
  -OEChem-04052305243D

 83 91  0     1  0  0  0  0  0999 V2000
  -35.5699  -21.0837   21.2736 C   0  0  0  0  0  0  0  0  0  0  0  0
  -34.2788  -20.8795   21.7497 C   0  0  0  0  0  0  0  0  0  0  0  0
  -23.0010   -9.8921   19.9840 C   0  0  0  0  0  0  0  0  0  0  0  0
  -23.7281   -9.9482   22.2873 C   0  0  0  0  0  0  0  0  0  0  0  0
  -36.4052  -22.0069   21.9012 C   0  0  0  0  0  0  0  0  0  0  0  0
  -33.8225  -21.5978   22.8543 C   0  0  0  0  0  0  0  0  0  0  0  0
  -29.1428  -23.4161   22.1915 C   0  0  0  0  0  0  0  0  0  0  0  0
  -22.2361   -8.7572   20.2531 C   0  0  0  0  0  0  0  0  0  0  0  0
  -22.9631   -8.8133   22.5564 C   0  0  0  0  0  0  0  0  0  0  0  0
  -28.0845  -22.5216   22.3450 C   0  0  0  0  0  0  0  0  0  0  0  0
  -23.2111   -5.4737   22.0905 C   0  0  0  0  0  0  0  0  0  0  0  0
  -23.8005   -4.4587   22.8439 C   0  0  0  0  0  0  0  0  0  0  0  0
  -27.6995  -23.3684   24.5707 C   0  0  0  0  0  0  0  0  0  0  0  0
  -22.0777   -4.7026   24.5202 C   0  0  0  0  0  0  0  0  0  0  0  0
  -31.1762  -17.4701   24.3148 C   0  0  0  0  0  0  0  0  0  0  0  0
  -23.7471  -10.4876   21.0011 C   0  0  0  0  0  0  0  0  0  0  0  0
  -24.1292  -13.0033   20.8201 C   0  0  0  0  0  0  0  0  0  0  0  0
  -35.9557  -22.7438   23.0082 C   0  0  0  0  0  0  0  0  0  0  0  0
  -29.4950  -24.2874   23.2322 C   0  0  0  0  0  0  0  0  0  0  0  0
  -34.6530  -22.5308   23.4982 C   0  0  0  0  0  0  0  0  0  0  0  0
  -28.7611  -24.2748   24.4269 C   0  0  0  0  0  0  0  0  0  0  0  0
  -22.2171   -8.2178   21.5393 C   0  0  0  0  0  0  0  0  0  0  0  0
  -27.3645  -22.4956   23.5358 C   0  0  0  0  0  0  0  0  0  0  0  0
  -22.0550   -6.1034   22.5518 C   0  0  0  0  0  0  0  0  0  0  0  0
  -23.2338   -4.0730   24.0588 C   0  0  0  0  0  0  0  0  0  0  0  0
  -21.4883   -5.7178   23.7667 C   0  0  0  0  0  0  0  0  0  0  0  0
  -24.5379  -11.6596   20.7236 C   0  0  0  0  0  0  0  0  0  0  0  0
  -30.3808  -17.3564   23.1938 C   0  0  0  0  0  0  0  0  0  0  0  0
  -25.2378  -13.7265   20.4535 C   0  0  0  0  0  0  0  0  0  0  0  0
  -28.8884  -18.1775   24.5752 C   0  0  0  0  0  0  0  0  0  0  0  0
  -22.8610  -13.5489   21.2067 C   0  0  0  0  0  0  0  0  0  0  0  0
  -32.0905  -24.7178   25.0159 C   0  0  0  0  0  0  0  0  0  0  0  0
  -30.4239  -27.2662   26.1342 C   0  0  0  0  0  0  0  0  0  0  0  0
  -27.3914  -28.7432   26.6529 C   0  0  0  0  0  0  0  0  0  0  0  0
  -30.7333  -14.6682   20.6956 C   0  0  0  0  0  0  0  0  0  0  0  0
  -36.9109  -23.6963   23.6827 C   0  0  0  0  0  0  0  0  0  0  0  0
  -30.6221  -25.2648   23.0409 C   0  0  0  0  0  0  0  0  0  0  0  0
  -29.0861  -25.2037   25.5671 C   0  0  0  0  0  0  0  0  0  0  0  0
  -36.2235  -24.6886   24.6170 C   0  0  0  0  0  0  0  0  0  0  0  0
  -29.5935  -12.2388   18.3556 C   0  0  0  0  0  0  0  0  0  0  0  0
  -35.2176  -23.9709   25.5114 C   0  0  0  0  0  0  0  0  0  0  0  0
  -28.1457  -11.9781   18.7749 C   0  0  0  0  0  0  0  0  0  0  0  0
  -30.4967  -12.4775   19.5636 C   0  0  0  0  0  0  0  0  0  0  0  0
  -28.5867  -13.2732   20.9025 C   0  0  0  0  0  0  0  0  0  0  0  0
  -34.1133  -23.3087   24.6787 C   0  0  1  0  0  0  0  0  0  0  0  0
  -31.2211  -25.7511   24.3570 C   0  0  1  0  0  0  0  0  0  0  0  0
  -27.6269  -13.0822   19.7157 C   0  0  2  0  0  0  0  0  0  0  0  0
  -30.6626  -17.8832   20.7434 C   0  0  0  0  0  0  0  0  0  0  0  0
  -26.3463  -30.8086   27.6220 C   0  0  0  0  0  0  0  0  0  0  0  0
  -25.8521  -17.3662   24.1609 C   0  0  0  0  0  0  0  0  0  0  0  0
  -30.8987  -26.1836   28.9472 C   0  0  0  0  0  0  0  0  0  0  0  0
  -29.0821  -27.7014   29.7625 C   0  0  0  0  0  0  0  0  0  0  0  0
  -31.1388  -28.6634   28.7294 C   0  0  0  0  0  0  0  0  0  0  0  0
  -26.2160  -29.5112   24.0477 C   0  0  0  0  0  0  0  0  0  0  0  0
  -25.5052  -19.7404   24.9279 C   0  0  0  0  0  0  0  0  0  0  0  0
  -26.0651  -21.1569   25.0107 C   0  0  0  0  0  0  0  0  0  1  0  0
  -30.8144  -16.8494   21.8767 C   0  0  2  0  0  0  0  0  0  0  0  0
  -29.4457  -27.4926   27.2615 C   0  0  1  0  0  0  0  0  0  0  0  0
  -26.8930  -30.1481   26.3660 C   0  0  2  0  0  0  0  0  0  0  0  0
  -26.4786  -18.7522   24.2778 C   0  0  1  0  0  0  0  0  0  0  0  0
  -30.1362  -27.4913   28.6546 C   0  0  0  0  0  0  0  0  0  0  0  0
  -25.8070  -11.5339   20.3266 N   0  0  0  0  0  0  0  0  0  0  0  0
  -29.0685  -17.7612   23.3414 N   0  0  0  0  0  0  0  0  0  0  0  0
  -26.2053  -12.8079   20.1703 N   0  0  0  0  0  0  0  0  0  0  0  0
  -30.2009  -26.1367   25.3341 N   0  0  0  0  0  0  0  0  0  0  0  0
  -29.9493  -13.5372   20.4142 N   0  0  0  0  0  0  0  0  0  0  0  0
  -25.4696  -15.0523   20.3488 N   0  0  0  0  0  0  0  0  0  0  0  0
  -21.8305  -12.6641   21.5527 N   0  0  0  0  0  0  0  0  0  0  0  0
  -27.6873  -18.6540   25.0692 N   0  0  0  0  0  0  0  0  0  0  0  0
  -33.1517  -24.2963   24.2377 N   0  0  0  0  0  0  0  0  0  0  0  0
  -28.7387  -28.7292   26.9462 N   0  0  0  0  0  0  0  0  0  0  0  0
  -30.1365  -15.6277   21.5042 N   0  0  0  0  0  0  0  0  0  0  0  0
  -25.8098  -30.1146   25.3431 N   0  3  0  0  0  0  0  0  0  0  0  0
  -22.6428  -14.7840   21.2284 O   0  0  0  0  0  0  0  0  0  0  0  0
  -31.8195  -24.3326   26.1472 O   0  0  0  0  0  0  0  0  0  0  0  0
  -31.3476  -28.0661   25.9653 O   0  0  0  0  0  0  0  0  0  0  0  0
  -26.6581  -27.7573   26.6237 O   0  0  0  0  0  0  0  0  0  0  0  0
  -31.8782  -14.8147   20.2543 O   0  0  0  0  0  0  0  0  0  0  0  0
  -21.4706   -7.1105   21.8023 O   0  0  0  0  0  0  0  0  0  0  0  0
  -26.3315  -21.6231   23.6886 O   0  0  0  0  0  0  0  0  0  1  0  0
  -23.7990   -3.0971   24.7815 F   0  0  0  0  0  0  0  0  0  0  0  0
  -20.3771   -6.3181   24.2145 F   0  0  0  0  0  0  0  0  0  0  0  0
  -30.2545  -18.1105   25.6116 S   0  0  0  0  0  0  0  0  0  0  0  0
  1  2  1  0  0  0  0
  1  5  2  0  0  0  0
  2  6  2  0  0  0  0
  3  8  2  0  0  0  0
  3 16  1  0  0  0  0
  4  9  1  0  0  0  0
  4 16  2  0  0  0  0
  5 18  1  0  0  0  0
  6 20  1  0  0  0  0
  7 10  2  0  0  0  0
  7 19  1  0  0  0  0
  8 22  1  0  0  0  0
  9 22  2  0  0  0  0
 10 23  1  0  0  0  0
 11 12  2  0  0  0  0
 11 24  1  0  0  0  0
 12 25  1  0  0  0  0
 13 21  1  0  0  0  0
 13 23  2  0  0  0  0
 14 25  2  0  0  0  0
 14 26  1  0  0  0  0
 15 28  2  0  0  0  0
 15 83  1  0  0  0  0
 16 27  1  0  0  0  0
 17 27  1  0  0  0  0
 17 29  2  0  0  0  0
 17 31  1  0  0  0  0
 18 20  2  0  0  0  0
 18 36  1  0  0  0  0
 19 21  2  0  0  0  0
 19 37  1  0  0  0  0
 20 45  1  0  0  0  0
 21 38  1  0  0  0  0
 22 79  1  0  0  0  0
 23 80  1  0  0  0  0
 24 26  2  0  0  0  0
 24 79  1  0  0  0  0
 25 81  1  0  0  0  0
 26 82  1  0  0  0  0
 27 62  2  0  0  0  0
 28 57  1  0  0  0  0
 28 63  1  0  0  0  0
 29 64  1  0  0  0  0
 29 67  1  0  0  0  0
 30 63  2  0  0  0  0
 30 69  1  0  0  0  0
 30 83  1  0  0  0  0
 31 68  1  0  0  0  0
 31 74  2  0  0  0  0
 32 46  1  0  0  0  0
 32 70  1  0  0  0  0
 32 75  2  0  0  0  0
 33 58  1  0  0  0  0
 33 65  1  0  0  0  0
 33 76  2  0  0  0  0
 34 59  1  0  0  0  0
 34 71  1  0  0  0  0
 34 77  2  0  0  0  0
 35 66  1  0  0  0  0
 35 72  1  0  0  0  0
 35 78  2  0  0  0  0
 36 39  1  0  0  0  0
 37 46  1  0  0  0  0
 38 65  1  0  0  0  0
 39 41  1  0  0  0  0
 40 42  1  0  0  0  0
 40 43  1  0  0  0  0
 41 45  1  0  0  0  0
 42 47  1  0  0  0  0
 43 66  1  0  0  0  0
 44 47  1  0  0  0  0
 44 66  1  0  0  0  0
 45 70  1  0  0  0  0
 46 65  1  0  0  0  0
 47 64  1  0  0  0  0
 48 57  1  0  0  0  0
 49 59  1  0  0  0  0
 50 60  1  0  0  0  0
 51 61  1  0  0  0  0
 52 61  1  0  0  0  0
 53 61  1  0  0  0  0
 54 73  1  0  0  0  0
 55 56  1  0  0  0  0
 55 60  1  0  0  0  0
 56 80  1  0  0  0  0
 57 72  1  0  0  0  0
 58 61  1  0  0  0  0
 58 71  1  0  0  0  0
 59 73  1  0  0  0  0
 60 69  1  0  0  0  0
 62 64  1  0  0  0  0
M  CHG  1  73   1
M  ISO  4  35 100  56 101  72 100  80 101
M  END
> <Batch ID>
0191

> <Smiles>
CNC(C)C(=O)NC(C(=O)N1Cc2cc([101O:1][101CH2:1]CC(C)Nc3nc(C(C)[100NH:0][100C:0](=O)N4CCCC(n5nc(-c6ccc(Oc7ccc(F)cc7F)cc6)c(C(N)=O)c5N)C4)cs3)ccc2CC1C(=O)NC1CCCc2ccccc21)C(C)(C)C

> <Shape>
0.203

> <Color>
0.197

> <Negative vol penalty>
0.000

$$$$

  -OEChem-04052305243D

 86 94  0     1  0  0  0  0  0999 V2000
  -23.4059  -32.0924   13.9967 C   0  0  0  0  0  0  0  0  0  0  0  0
  -24.3488  -31.3536   14.7043 C   0  0  0  0  0  0  0  0  0  0  0  0
  -24.1870   -9.4852   21.8120 C   0  0  0  0  0  0  0  0  0  0  0  0
  -24.6920  -10.9433   23.6710 C   0  0  0  0  0  0  0  0  0  0  0  0
  -22.9050  -33.2776   14.5335 C   0  0  0  0  0  0  0  0  0  0  0  0
  -24.7921  -31.8003   15.9487 C   0  0  0  0  0  0  0  0  0  0  0  0
  -24.9825  -28.0899   19.3898 C   0  0  0  0  0  0  0  0  0  0  0  0
  -23.8316   -8.4725   22.7028 C   0  0  0  0  0  0  0  0  0  0  0  0
  -24.3365   -9.9306   24.5619 C   0  0  0  0  0  0  0  0  0  0  0  0
  -26.0673  -27.2165   19.3250 C   0  0  0  0  0  0  0  0  0  0  0  0
  -21.1736   -7.6733   24.6339 C   0  0  0  0  0  0  0  0  0  0  0  0
  -20.0002   -6.9648   24.3753 C   0  0  0  0  0  0  0  0  0  0  0  0
  -27.1415  -28.4275   21.1135 C   0  0  0  0  0  0  0  0  0  0  0  0
  -21.2704   -4.9148   24.2285 C   0  0  0  0  0  0  0  0  0  0  0  0
  -31.2709  -22.4071   18.6689 C   0  0  0  0  0  0  0  0  0  0  0  0
  -24.6173  -10.7206   22.2961 C   0  0  0  0  0  0  0  0  0  0  0  0
  -24.1429  -12.7543   20.8310 C   0  0  0  0  0  0  0  0  0  0  0  0
  -23.3351  -33.7341   15.7894 C   0  0  0  0  0  0  0  0  0  0  0  0
  -24.9739  -29.1470   20.3111 C   0  0  0  0  0  0  0  0  0  0  0  0
  -24.2974  -32.9935   16.5021 C   0  0  0  0  0  0  0  0  0  0  0  0
  -26.0543  -29.3114   21.1898 C   0  0  0  0  0  0  0  0  0  0  0  0
  -30.2000  -22.6199   17.7803 C   0  0  0  0  0  0  0  0  0  0  0  0
  -23.9063   -8.6951   24.0778 C   0  0  0  0  0  0  0  0  0  0  0  0
  -27.1482  -27.3869   20.1850 C   0  0  0  0  0  0  0  0  0  0  0  0
  -22.3954   -7.0026   24.6897 C   0  0  0  0  0  0  0  0  0  0  0  0
  -20.0486   -5.5856   24.1726 C   0  0  0  0  0  0  0  0  0  0  0  0
  -22.4437   -5.6233   24.4871 C   0  0  0  0  0  0  0  0  0  0  0  0
  -24.9852  -11.7670   21.3764 C   0  0  0  0  0  0  0  0  0  0  0  0
  -29.6456  -21.3754   17.6063 C   0  0  0  0  0  0  0  0  0  0  0  0
  -24.9662  -13.5002   20.0234 C   0  0  0  0  0  0  0  0  0  0  0  0
  -22.7415  -12.9774   21.0361 C   0  0  0  0  0  0  0  0  0  0  0  0
  -24.8778  -32.3164   20.0879 C   0  0  0  0  0  0  0  0  0  0  0  0
  -29.8265  -16.1526   19.2284 C   0  0  0  0  0  0  0  0  0  0  0  0
  -24.6167  -32.1465   23.3167 C   0  0  0  0  0  0  0  0  0  0  0  0
  -25.1747  -30.3741   26.1792 C   0  0  0  0  0  0  0  0  0  0  0  0
  -22.8001  -35.0456   16.3074 C   0  0  0  0  0  0  0  0  0  0  0  0
  -23.7844  -30.0644   20.3866 C   0  0  0  0  0  0  0  0  0  0  0  0
  -26.0848  -30.4182   22.2107 C   0  0  0  0  0  0  0  0  0  0  0  0
  -23.0432  -35.2558   17.7997 C   0  0  0  0  0  0  0  0  0  0  0  0
  -29.6902  -12.6580   18.4477 C   0  0  0  0  0  0  0  0  0  0  0  0
  -24.4837  -34.9070   18.1603 C   0  0  0  0  0  0  0  0  0  0  0  0
  -28.4006  -12.1899   19.1207 C   0  0  0  0  0  0  0  0  0  0  0  0
  -30.3840  -13.7438   19.2644 C   0  0  0  0  0  0  0  0  0  0  0  0
  -28.2262  -14.4556   20.2436 C   0  0  0  0  0  0  0  0  0  0  0  0
  -24.7845  -33.4324   17.8660 C   0  0  1  0  0  0  0  0  0  0  0  0
  -24.1109  -31.4159   21.0145 C   0  0  1  0  0  0  0  0  0  0  0  0
  -27.4779  -13.3805   19.4359 C   0  0  2  0  0  0  0  0  0  0  0  0
  -28.4974  -20.9227   16.7971 C   0  0  0  0  0  0  0  0  0  0  0  0
  -24.8871  -30.5108   28.6684 C   0  0  0  0  0  0  0  0  0  0  0  0
  -26.9913  -34.0553   23.4839 C   0  0  0  0  0  0  0  0  0  0  0  0
  -27.2515  -33.4100   25.8889 C   0  0  0  0  0  0  0  0  0  0  0  0
  -25.1577  -34.5256   25.1182 C   0  0  0  0  0  0  0  0  0  0  0  0
  -30.4634  -18.5180   21.0045 C   0  0  0  0  0  0  0  0  0  0  0  0
  -28.3461  -19.5868   20.2138 C   0  0  0  0  0  0  0  0  0  0  0  0
  -23.4096  -27.9990   26.2222 C   0  0  0  0  0  0  0  0  0  0  0  0
  -28.8301  -17.2339   19.5627 C   0  0  0  0  0  0  0  0  0  0  0  0
  -30.1992  -19.1019   18.5232 C   0  0  0  0  0  0  0  0  0  0  0  0
  -30.4478  -25.0814   17.4554 C   0  0  0  0  0  0  0  0  0  0  0  0
  -28.5027  -25.9558   18.8534 C   0  0  0  0  0  0  0  0  0  1  0  0
  -25.5925  -32.1213   24.4683 C   0  0  1  0  0  0  0  0  0  0  0  0
  -24.2718  -30.0508   27.3559 C   0  0  2  0  0  0  0  0  0  0  0  0
  -29.9970  -25.6796   18.7817 C   0  0  1  0  0  0  0  0  0  0  0  0
  -26.2488  -33.5083   24.7194 C   0  0  0  0  0  0  0  0  0  0  0  0
  -29.4822  -18.6190   19.8205 C   0  0  0  0  0  0  0  0  0  0  0  0
  -31.3914  -21.1280   19.0342 N   0  0  0  0  0  0  0  0  0  0  0  0
  -26.2468  -11.8732   20.9510 N   0  0  0  0  0  0  0  0  0  0  0  0
  -30.3890  -20.5259   18.3718 N   0  0  0  0  0  0  0  0  0  0  0  0
  -26.2034  -12.9360   20.1297 N   0  0  0  0  0  0  0  0  0  0  0  0
  -24.9010  -31.2930   22.2413 N   0  0  0  0  0  0  0  0  0  0  0  0
  -29.4680  -14.8464   19.5620 N   0  0  0  0  0  0  0  0  0  0  0  0
  -24.7454  -14.5770   19.2397 N   0  0  0  0  0  0  0  0  0  0  0  0
  -22.0472  -12.1176   21.8981 N   0  0  0  0  0  0  0  0  0  0  0  0
  -29.7965  -23.8165   17.2096 N   0  0  0  0  0  0  0  0  0  0  0  0
  -24.2265  -32.5867   18.8995 N   0  0  0  0  0  0  0  0  0  0  0  0
  -24.8595  -31.5912   25.6129 N   0  0  0  0  0  0  0  0  0  0  0  0
  -24.0336  -28.5820   27.4378 N   0  3  0  0  0  0  0  0  0  0  0  0
  -22.1198  -13.9015   20.4590 O   0  0  0  0  0  0  0  0  0  0  0  0
  -25.9781  -32.7360   20.4266 O   0  0  0  0  0  0  0  0  0  0  0  0
  -30.8900  -16.4612   18.6844 O   0  0  0  0  0  0  0  0  0  0  0  0
  -23.6345  -32.8907   23.3725 O   0  0  0  0  0  0  0  0  0  0  0  0
  -26.0725  -29.6240   25.8026 O   0  0  0  0  0  0  0  0  0  0  0  0
  -23.5593   -7.7072   24.9474 O   0  0  0  0  0  0  0  0  0  0  0  0
  -28.2086  -26.5362   20.1234 O   0  0  0  0  0  0  0  0  0  1  0  0
  -18.9215   -4.9052   23.9258 F   0  0  0  0  0  0  0  0  0  0  0  0
  -23.6144   -4.9733   24.5407 F   0  0  0  0  0  0  0  0  0  0  0  0
  -30.3169  -24.8036   19.7782 F   0  0  0  0  0  0  0  0  0  0  0  0
  1  2  1  0  0  0  0
  1  5  2  0  0  0  0
  2  6  2  0  0  0  0
  3  8  2  0  0  0  0
  3 16  1  0  0  0  0
  4  9  1  0  0  0  0
  4 16  2  0  0  0  0
  5 18  1  0  0  0  0
  6 20  1  0  0  0  0
  7 10  2  0  0  0  0
  7 19  1  0  0  0  0
  8 23  1  0  0  0  0
  9 23  2  0  0  0  0
 10 24  1  0  0  0  0
 11 12  2  0  0  0  0
 11 25  1  0  0  0  0
 12 26  1  0  0  0  0
 13 21  1  0  0  0  0
 13 24  2  0  0  0  0
 14 26  2  0  0  0  0
 14 27  1  0  0  0  0
 15 22  1  0  0  0  0
 15 65  2  0  0  0  0
 16 28  1  0  0  0  0
 17 28  1  0  0  0  0
 17 30  2  0  0  0  0
 17 31  1  0  0  0  0
 18 20  2  0  0  0  0
 18 36  1  0  0  0  0
 19 21  2  0  0  0  0
 19 37  1  0  0  0  0
 20 45  1  0  0  0  0
 21 38  1  0  0  0  0
 22 29  2  0  0  0  0
 22 73  1  0  0  0  0
 23 82  1  0  0  0  0
 24 83  1  0  0  0  0
 25 27  2  0  0  0  0
 25 82  1  0  0  0  0
 26 84  1  0  0  0  0
 27 85  1  0  0  0  0
 28 66  2  0  0  0  0
 29 48  1  0  0  0  0
 29 67  1  0  0  0  0
 30 68  1  0  0  0  0
 30 71  1  0  0  0  0
 31 72  1  0  0  0  0
 31 77  2  0  0  0  0
 32 46  1  0  0  0  0
 32 74  1  0  0  0  0
 32 78  2  0  0  0  0
 33 56  1  0  0  0  0
 33 70  1  0  0  0  0
 33 79  2  0  0  0  0
 34 60  1  0  0  0  0
 34 69  1  0  0  0  0
 34 80  2  0  0  0  0
 35 61  1  0  0  0  0
 35 75  1  0  0  0  0
 35 81  2  0  0  0  0
 36 39  1  0  0  0  0
 37 46  1  0  0  0  0
 38 69  1  0  0  0  0
 39 41  1  0  0  0  0
 40 42  1  0  0  0  0
 40 43  1  0  0  0  0
 41 45  1  0  0  0  0
 42 47  1  0  0  0  0
 43 70  1  0  0  0  0
 44 47  1  0  0  0  0
 44 70  1  0  0  0  0
 45 74  1  0  0  0  0
 46 69  1  0  0  0  0
 47 68  1  0  0  0  0
 49 61  1  0  0  0  0
 50 63  1  0  0  0  0
 51 63  1  0  0  0  0
 52 63  1  0  0  0  0
 53 64  1  0  0  0  0
 54 64  1  0  0  0  0
 55 76  1  0  0  0  0
 56 64  1  0  0  0  0
 57 64  1  0  0  0  0
 57 67  1  0  0  0  0
 58 62  1  0  0  0  0
 58 73  1  0  0  0  0
 59 62  1  0  0  0  0
 59 83  1  0  0  0  0
 60 63  1  0  0  0  0
 60 75  1  0  0  0  0
 61 76  1  0  0  0  0
 62 86  1  0  0  0  0
 65 67  1  0  0  0  0
 66 68  1  0  0  0  0
M  CHG  1  76   1
M  ISO  4  33 100  56 100  59 101  83 101
M  END
> <Batch ID>
0191

> <Smiles>
CNC(C)C(=O)NC(C(=O)N1Cc2cc([101O:1][101CH2:1]C(F)CNc3cnn(CC(C)(C)[100CH2:0][100C:0](=O)N4CCCC(n5nc(-c6ccc(Oc7ccc(F)cc7F)cc6)c(C(N)=O)c5N)C4)c3C)ccc2CC1C(=O)NC1CCCc2ccccc21)C(C)(C)C

> <Shape>
0.328

> <Color>
0.145

> <Negative vol penalty>
0.000

$$$$

  -OEChem-04052305243D

 87 95  0     1  0  0  0  0  0999 V2000
  -23.2872  -23.7734   19.4279 C   0  0  0  0  0  0  0  0  0  0  0  0
  -24.2631  -22.7883   19.5403 C   0  0  0  0  0  0  0  0  0  0  0  0
  -23.2950  -29.7527   19.8797 C   0  0  0  0  0  0  0  0  0  0  0  0
  -23.6544  -28.5296   21.9321 C   0  0  0  0  0  0  0  0  0  0  0  0
  -22.1052  -23.6688   20.1598 C   0  0  0  0  0  0  0  0  0  0  0  0
  -24.0579  -21.6985   20.3856 C   0  0  0  0  0  0  0  0  0  0  0  0
  -25.3543  -17.3007   18.2352 C   0  0  0  0  0  0  0  0  0  0  0  0
  -21.9635  -29.9630   20.2382 C   0  0  0  0  0  0  0  0  0  0  0  0
  -22.3229  -28.7400   22.2905 C   0  0  0  0  0  0  0  0  0  0  0  0
  -26.7133  -16.9942   18.1818 C   0  0  0  0  0  0  0  0  0  0  0  0
  -19.2995  -27.4386   21.5180 C   0  0  0  0  0  0  0  0  0  0  0  0
  -18.5848  -26.3522   22.0224 C   0  0  0  0  0  0  0  0  0  0  0  0
  -26.4582  -15.5560   20.1016 C   0  0  0  0  0  0  0  0  0  0  0  0
  -18.2092  -27.5560   24.0832 C   0  0  0  0  0  0  0  0  0  0  0  0
  -24.1404  -29.0360   20.7267 C   0  0  0  0  0  0  0  0  0  0  0  0
  -26.6174  -29.6421   20.6552 C   0  0  0  0  0  0  0  0  0  0  0  0
  -21.8813  -22.5722   21.0071 C   0  0  0  0  0  0  0  0  0  0  0  0
  -24.5378  -16.7447   19.2305 C   0  0  0  0  0  0  0  0  0  0  0  0
  -22.8723  -21.5797   21.1306 C   0  0  0  0  0  0  0  0  0  0  0  0
  -25.0886  -15.8550   20.1639 C   0  0  0  0  0  0  0  0  0  0  0  0
  -21.4774  -29.4567   21.4436 C   0  0  0  0  0  0  0  0  0  0  0  0
  -27.2661  -16.1240   19.1169 C   0  0  0  0  0  0  0  0  0  0  0  0
  -19.4691  -28.5838   22.2962 C   0  0  0  0  0  0  0  0  0  0  0  0
  -18.0396  -26.4109   23.3049 C   0  0  0  0  0  0  0  0  0  0  0  0
  -18.9239  -28.6425   23.5788 C   0  0  0  0  0  0  0  0  0  0  0  0
  -25.5158  -28.8179   20.3567 C   0  0  0  0  0  0  0  0  0  0  0  0
  -27.6903  -29.0007   20.0861 C   0  0  0  0  0  0  0  0  0  0  0  0
  -29.5130  -21.2303   22.9174 C   0  0  0  0  0  0  0  0  0  0  0  0
  -29.2017  -22.1440   20.8913 C   0  0  0  0  0  0  0  0  0  0  0  0
  -30.4320  -20.2791   21.1042 C   0  0  0  0  0  0  0  0  0  0  0  0
  -26.6664  -30.8770   21.3821 C   0  0  0  0  0  0  0  0  0  0  0  0
  -22.7929  -17.9175   21.6146 C   0  0  0  0  0  0  0  0  0  0  0  0
  -21.8555  -14.8282   21.9304 C   0  0  0  0  0  0  0  0  0  0  0  0
  -22.5381  -11.5255   21.4079 C   0  0  0  0  0  0  0  0  0  0  0  0
  -28.7625  -23.2902   18.6914 C   0  0  0  0  0  0  0  0  0  0  0  0
  -20.6080  -22.5266   21.8143 C   0  0  0  0  0  0  0  0  0  0  0  0
  -23.0683  -17.0645   19.2582 C   0  0  0  0  0  0  0  0  0  0  0  0
  -24.2510  -15.2156   21.2400 C   0  0  0  0  0  0  0  0  0  0  0  0
  -20.3084  -21.1500   22.4020 C   0  0  0  0  0  0  0  0  0  0  0  0
  -28.8136  -26.0709   16.4683 C   0  0  0  0  0  0  0  0  0  0  0  0
  -21.5582  -20.5626   23.0500 C   0  0  0  0  0  0  0  0  0  0  0  0
  -28.0793  -27.1678   17.2428 C   0  0  0  0  0  0  0  0  0  0  0  0
  -28.2022  -24.6935   16.7186 C   0  0  0  0  0  0  0  0  0  0  0  0
  -27.3341  -25.4182   18.9073 C   0  0  0  0  0  0  0  0  0  0  0  0
  -22.6760  -20.3699   22.0181 C   0  0  1  0  0  0  0  0  0  0  0  0
  -22.4342  -16.8426   20.6278 C   0  0  1  0  0  0  0  0  0  0  0  0
  -27.9543  -26.8148   18.7379 C   0  0  2  0  0  0  0  0  0  0  0  0
  -29.7715  -22.5267   25.0726 C   0  0  0  0  0  0  0  0  0  0  0  0
  -21.6008   -9.2326   21.8098 C   0  0  0  0  0  0  0  0  0  0  0  0
  -32.1024  -17.6633   17.1958 C   0  0  0  0  0  0  0  0  0  0  0  0
  -32.5258  -20.2285   18.7435 C   0  0  0  0  0  0  0  0  0  0  0  0
  -22.6726  -15.0111   24.8645 C   0  0  0  0  0  0  0  0  0  0  0  0
  -22.6201  -12.5099   24.9629 C   0  0  0  0  0  0  0  0  0  0  0  0
  -20.5350  -13.7802   24.4517 C   0  0  0  0  0  0  0  0  0  0  0  0
  -22.4086  -10.9437   18.5090 C   0  0  0  0  0  0  0  0  0  0  0  0
  -30.8482  -16.6809   19.1827 C   0  0  0  0  0  0  0  0  0  0  0  0
  -29.4664  -16.8259   18.5496 C   0  0  0  0  0  0  0  0  0  1  0  0
  -29.2779  -21.2443   24.3896 C   0  0  1  0  0  0  0  0  0  0  0  0
  -22.3564  -13.6327   22.7044 C   0  0  1  0  0  0  0  0  0  0  0  0
  -21.6929  -10.3999   20.8394 C   0  0  2  0  0  0  0  0  0  0  0  0
  -31.8626  -17.7442   18.7106 C   0  0  2  0  0  0  0  0  0  0  0  0
  -31.4700  -19.1894   19.1140 C   0  0  1  0  0  0  0  0  0  0  0  0
  -22.0625  -13.7469   24.2269 C   0  0  0  0  0  0  0  0  0  0  0  0
  -25.8575  -27.7357   19.6524 N   0  0  0  0  0  0  0  0  0  0  0  0
  -28.9495  -22.2215   22.2078 N   0  0  0  0  0  0  0  0  0  0  0  0
  -30.2649  -20.2275   22.4355 N   0  0  0  0  0  0  0  0  0  0  0  0
  -29.9322  -21.2045   20.2695 N   0  0  0  0  0  0  0  0  0  0  0  0
  -27.1858  -27.8754   19.5036 N   0  0  0  0  0  0  0  0  0  0  0  0
  -22.8207  -15.5646   21.2293 N   0  0  0  0  0  0  0  0  0  0  0  0
  -28.1193  -24.4263   18.1562 N   0  0  0  0  0  0  0  0  0  0  0  0
  -29.0066  -29.2953   20.0320 N   0  0  0  0  0  0  0  0  0  0  0  0
  -25.4715  -31.3956   21.8995 N   0  0  0  0  0  0  0  0  0  0  0  0
  -28.6421  -23.1574   20.0743 N   0  0  0  0  0  0  0  0  0  0  0  0
  -31.1967  -19.2778   20.5344 N   0  0  0  0  0  0  0  0  0  0  0  0
  -22.4273  -19.1897   21.2182 N   0  0  0  0  0  0  0  0  0  0  0  0
  -21.7678  -12.4590   22.0686 N   0  0  0  0  0  0  0  0  0  0  0  0
  -27.8333  -21.0657   24.7656 N   0  3  0  0  0  0  0  0  0  0  0  0
  -22.2811   -9.9044   19.5629 N   0  3  0  0  0  0  0  0  0  0  0  0
  -27.7355  -31.5105   21.5531 O   0  0  0  0  0  0  0  0  0  0  0  0
  -23.3581  -17.6148   22.6589 O   0  0  0  0  0  0  0  0  0  0  0  0
  -20.6510  -15.0944   21.9416 O   0  0  0  0  0  0  0  0  0  0  0  0
  -23.7599  -11.5701   21.2820 O   0  0  0  0  0  0  0  0  0  0  0  0
  -29.3979  -22.5085   17.9793 O   0  0  0  0  0  0  0  0  0  0  0  0
  -20.1783  -29.6619   21.7938 O   0  0  0  0  0  0  0  0  0  0  0  0
  -28.5924  -15.8237   19.0675 O   0  0  0  0  0  0  0  0  0  1  0  0
  -17.3520  -25.3681   23.7886 F   0  0  0  0  0  0  0  0  0  0  0  0
  -19.0825  -29.7403   24.3307 F   0  0  0  0  0  0  0  0  0  0  0  0
  1  2  1  0  0  0  0
  1  5  2  0  0  0  0
  2  6  2  0  0  0  0
  3  8  2  0  0  0  0
  3 15  1  0  0  0  0
  4  9  1  0  0  0  0
  4 15  2  0  0  0  0
  5 17  1  0  0  0  0
  6 19  1  0  0  0  0
  7 10  2  0  0  0  0
  7 18  1  0  0  0  0
  8 21  1  0  0  0  0
  9 21  2  0  0  0  0
 10 22  1  0  0  0  0
 11 12  2  0  0  0  0
 11 23  1  0  0  0  0
 12 24  1  0  0  0  0
 13 20  1  0  0  0  0
 13 22  2  0  0  0  0
 14 24  2  0  0  0  0
 14 25  1  0  0  0  0
 15 26  1  0  0  0  0
 16 26  1  0  0  0  0
 16 27  2  0  0  0  0
 16 31  1  0  0  0  0
 17 19  2  0  0  0  0
 17 36  1  0  0  0  0
 18 20  2  0  0  0  0
 18 37  1  0  0  0  0
 19 45  1  0  0  0  0
 20 38  1  0  0  0  0
 21 84  1  0  0  0  0
 22 85  1  0  0  0  0
 23 25  2  0  0  0  0
 23 84  1  0  0  0  0
 24 86  1  0  0  0  0
 25 87  1  0  0  0  0
 26 64  2  0  0  0  0
 27 68  1  0  0  0  0
 27 71  1  0  0  0  0
 28 58  1  0  0  0  0
 28 65  2  0  0  0  0
 28 66  1  0  0  0  0
 29 65  1  0  0  0  0
 29 67  2  0  0  0  0
 29 73  1  0  0  0  0
 30 66  2  0  0  0  0
 30 67  1  0  0  0  0
 30 74  1  0  0  0  0
 31 72  1  0  0  0  0
 31 79  2  0  0  0  0
 32 46  1  0  0  0  0
 32 75  1  0  0  0  0
 32 80  2  0  0  0  0
 33 59  1  0  0  0  0
 33 69  1  0  0  0  0
 33 81  2  0  0  0  0
 34 60  1  0  0  0  0
 34 76  1  0  0  0  0
 34 82  2  0  0  0  0
 35 70  1  0  0  0  0
 35 73  1  0  0  0  0
 35 83  2  0  0  0  0
 36 39  1  0  0  0  0
 37 46  1  0  0  0  0
 38 69  1  0  0  0  0
 39 41  1  0  0  0  0
 40 42  1  0  0  0  0
 40 43  1  0  0  0  0
 41 45  1  0  0  0  0
 42 47  1  0  0  0  0
 43 70  1  0  0  0  0
 44 47  1  0  0  0  0
 44 70  1  0  0  0  0
 45 75  1  0  0  0  0
 46 69  1  0  0  0  0
 47 68  1  0  0  0  0
 48 58  1  0  0  0  0
 49 60  1  0  0  0  0
 50 61  1  0  0  0  0
 51 62  1  0  0  0  0
 52 63  1  0  0  0  0
 53 63  1  0  0  0  0
 54 63  1  0  0  0  0
 55 78  1  0  0  0  0
 56 57  1  0  0  0  0
 56 61  1  0  0  0  0
 57 85  1  0  0  0  0
 58 77  1  0  0  0  0
 59 63  1  0  0  0  0
 59 76  1  0  0  0  0
 60 78  1  0  0  0  0
 61 62  1  0  0  0  0
 62 74  1  0  0  0  0
 64 68  1  0  0  0  0
M  CHG  2  77   1  78   1
M  ISO  4  35 100  57 101  73 100  85 101
M  END
> <Batch ID>
0191

> <Smiles>
CNC(C)C(=O)NC(C(=O)N1Cc2cc([101O:1][101CH2:1]CC(C)C(C)Nc3nc([100NH:0][100C:0](=O)N4CCCC(n5nc(-c6ccc(Oc7ccc(F)cc7F)cc6)c(C(N)=O)c5N)C4)nc(C(C)N)n3)ccc2CC1C(=O)NC1CCCc2ccccc21)C(C)(C)C

> <Shape>
0.222

> <Color>
0.048

> <Negative vol penalty>
0.000

$$$$

  -OEChem-04052305242D

  0  0  0     0  0  0  0  0  0999 V2000
M  END
$$$$

  -OEChem-04052305243D

 84 92  0     1  0  0  0  0  0999 V2000
  -28.2147  -11.2755   19.4693 C   0  0  0  0  0  0  0  0  0  0  0  0
  -28.3509  -12.5472   18.9219 C   0  0  0  0  0  0  0  0  0  0  0  0
  -19.9637  -26.4542   23.4454 C   0  0  0  0  0  0  0  0  0  0  0  0
  -19.6724  -28.1375   21.7370 C   0  0  0  0  0  0  0  0  0  0  0  0
  -27.0459  -10.9312   20.1471 C   0  0  0  0  0  0  0  0  0  0  0  0
  -27.3179  -13.4750   19.0511 C   0  0  0  0  0  0  0  0  0  0  0  0
  -28.9884  -18.0721   20.3629 C   0  0  0  0  0  0  0  0  0  0  0  0
  -18.6266  -26.5982   23.8153 C   0  0  0  0  0  0  0  0  0  0  0  0
  -18.3352  -28.2815   22.1069 C   0  0  0  0  0  0  0  0  0  0  0  0
  -29.5555  -18.8542   19.3577 C   0  0  0  0  0  0  0  0  0  0  0  0
  -14.7509  -28.8341   22.3625 C   0  0  0  0  0  0  0  0  0  0  0  0
  -13.7983  -28.8909   21.3452 C   0  0  0  0  0  0  0  0  0  0  0  0
  -27.4846  -20.0731   19.1460 C   0  0  0  0  0  0  0  0  0  0  0  0
  -14.4691  -26.6946   20.5944 C   0  0  0  0  0  0  0  0  0  0  0  0
  -29.5257  -26.0115   18.7697 C   0  0  0  0  0  0  0  0  0  0  0  0
  -20.4867  -27.2239   22.4062 C   0  0  0  0  0  0  0  0  0  0  0  0
  -22.3942  -26.1920   21.0629 C   0  0  0  0  0  0  0  0  0  0  0  0
  -26.0020  -11.8583   20.2930 C   0  0  0  0  0  0  0  0  0  0  0  0
  -27.6594  -18.2777   20.7603 C   0  0  0  0  0  0  0  0  0  0  0  0
  -26.1336  -13.1423   19.7303 C   0  0  0  0  0  0  0  0  0  0  0  0
  -26.9038  -19.2939   20.1582 C   0  0  0  0  0  0  0  0  0  0  0  0
  -17.8123  -27.5118   23.1461 C   0  0  0  0  0  0  0  0  0  0  0  0
  -28.8027  -19.8530   18.7471 C   0  0  0  0  0  0  0  0  0  0  0  0
  -15.5627  -27.7076   22.4957 C   0  0  0  0  0  0  0  0  0  0  0  0
  -13.6574  -27.8212   20.4612 C   0  0  0  0  0  0  0  0  0  0  0  0
  -15.4218  -26.6379   21.6117 C   0  0  0  0  0  0  0  0  0  0  0  0
  -21.8680  -27.0760   22.0240 C   0  0  0  0  0  0  0  0  0  0  0  0
  -30.3412  -28.1340   17.3707 C   0  0  0  0  0  0  0  0  0  0  0  0
  -29.5155  -28.2778   18.4638 C   0  0  0  0  0  0  0  0  0  0  0  0
  -30.3508  -25.8676   17.6761 C   0  0  0  0  0  0  0  0  0  0  0  0
  -23.7454  -26.4379   21.0736 C   0  0  0  0  0  0  0  0  0  0  0  0
  -21.7216  -25.2343   20.2346 C   0  0  0  0  0  0  0  0  0  0  0  0
  -25.0139  -16.5157   20.7399 C   0  0  0  0  0  0  0  0  0  0  0  0
  -23.7835  -19.0448   22.3560 C   0  0  0  0  0  0  0  0  0  0  0  0
  -30.4279  -23.3624   17.9248 C   0  0  0  0  0  0  0  0  0  0  0  0
  -23.9446  -22.3757   23.0811 C   0  0  0  0  0  0  0  0  0  0  0  0
  -28.0442  -29.9961   21.1504 C   0  0  0  0  0  0  0  0  0  0  0  0
  -24.7385  -11.4247   20.9931 C   0  0  0  0  0  0  0  0  0  0  0  0
  -27.0708  -17.4432   21.8646 C   0  0  0  0  0  0  0  0  0  0  0  0
  -25.4791  -19.5683   20.5627 C   0  0  0  0  0  0  0  0  0  0  0  0
  -23.8431  -12.5886   21.4101 C   0  0  0  0  0  0  0  0  0  0  0  0
  -26.5746  -29.1415   24.2787 C   0  0  0  0  0  0  0  0  0  0  0  0
  -23.6906  -13.5825   20.2631 C   0  0  0  0  0  0  0  0  0  0  0  0
  -25.2604  -28.4610   23.8918 C   0  0  0  0  0  0  0  0  0  0  0  0
  -26.9135  -30.2927   23.3344 C   0  0  0  0  0  0  0  0  0  0  0  0
  -25.6121  -29.2560   21.5163 C   0  0  0  0  0  0  0  0  0  0  0  0
  -25.0454  -14.1844   19.8709 C   0  0  1  0  0  0  0  0  0  0  0  0
  -25.5462  -17.3991   21.8326 C   0  0  1  0  0  0  0  0  0  0  0  0
  -25.2564  -28.0529   22.4063 C   0  0  2  0  0  0  0  0  0  0  0  0
  -30.8011  -29.3134   16.5837 C   0  0  0  0  0  0  0  0  0  0  0  0
  -22.7804  -24.1623   24.4040 C   0  0  0  0  0  0  0  0  0  0  0  0
  -21.5553  -19.1317   20.2733 C   0  0  0  0  0  0  0  0  0  0  0  0
  -20.9977  -21.4395   21.0679 C   0  0  0  0  0  0  0  0  0  0  0  0
  -20.7978  -19.5030   22.6276 C   0  0  0  0  0  0  0  0  0  0  0  0
  -26.3608  -22.9106   24.7043 C   0  0  0  0  0  0  0  0  0  0  0  0
  -29.0439  -29.6195   18.9103 C   0  0  0  0  0  0  0  0  0  0  0  0
  -31.0857  -22.1914   17.2036 C   0  0  0  0  0  0  0  0  0  0  0  0
  -30.7609  -20.8444   17.8314 C   0  0  0  0  0  0  0  0  0  1  0  0
  -23.0936  -20.3296   21.9659 C   0  0  1  0  0  0  0  0  0  0  0  0
  -23.8906  -23.1230   24.4014 C   0  0  2  0  0  0  0  0  0  0  0  0
  -21.6373  -20.0948   21.4745 C   0  0  0  0  0  0  0  0  0  0  0  0
  -29.0931  -27.2192   19.1832 N   0  0  0  0  0  0  0  0  0  0  0  0
  -22.8084  -27.8272   22.6031 N   0  0  0  0  0  0  0  0  0  0  0  0
  -30.7735  -26.9263   16.9570 N   0  0  0  0  0  0  0  0  0  0  0  0
  -23.9390  -27.4159   22.0044 N   0  0  0  0  0  0  0  0  0  0  0  0
  -24.9464  -18.7214   21.6427 N   0  0  0  0  0  0  0  0  0  0  0  0
  -26.8943  -29.8388   21.9417 N   0  0  0  0  0  0  0  0  0  0  0  0
  -24.7750  -25.9108   20.3776 N   0  0  0  0  0  0  0  0  0  0  0  0
  -20.3304  -25.1105   20.3509 N   0  0  0  0  0  0  0  0  0  0  0  0
  -30.7609  -24.5646   17.3064 N   0  0  0  0  0  0  0  0  0  0  0  0
  -25.4395  -15.2034   20.8200 N   0  0  0  0  0  0  0  0  0  0  0  0
  -23.1992  -21.2163   23.1196 N   0  0  0  0  0  0  0  0  0  0  0  0
  -27.9432  -29.5334   19.8440 N   0  0  0  0  0  0  0  0  0  0  0  0
  -25.1845  -23.8167   24.6572 N   0  3  0  0  0  0  0  0  0  0  0  0
  -22.3381  -24.4983   19.4273 O   0  0  0  0  0  0  0  0  0  0  0  0
  -24.2710  -16.9891   19.8882 O   0  0  0  0  0  0  0  0  0  0  0  0
  -23.3120  -18.3572   23.2651 O   0  0  0  0  0  0  0  0  0  0  0  0
  -29.7142  -23.2048   18.9097 O   0  0  0  0  0  0  0  0  0  0  0  0
  -24.5810  -22.7820   22.1113 O   0  0  0  0  0  0  0  0  0  0  0  0
  -29.0854  -30.5058   21.5780 O   0  0  0  0  0  0  0  0  0  0  0  0
  -16.5074  -27.6524   23.5067 O   0  0  0  0  0  0  0  0  0  0  0  0
  -29.3536  -20.6174   17.7653 O   0  0  0  0  0  0  0  0  0  1  0  0
  -12.7415  -27.8752   19.4853 F   0  0  0  0  0  0  0  0  0  0  0  0
  -16.1979  -25.5525   21.7355 F   0  0  0  0  0  0  0  0  0  0  0  0
  1  2  1  0  0  0  0
  1  5  2  0  0  0  0
  2  6  2  0  0  0  0
  3  8  2  0  0  0  0
  3 16  1  0  0  0  0
  4  9  1  0  0  0  0
  4 16  2  0  0  0  0
  5 18  1  0  0  0  0
  6 20  1  0  0  0  0
  7 10  2  0  0  0  0
  7 19  1  0  0  0  0
  8 22  1  0  0  0  0
  9 22  2  0  0  0  0
 10 23  1  0  0  0  0
 11 12  2  0  0  0  0
 11 24  1  0  0  0  0
 12 25  1  0  0  0  0
 13 21  1  0  0  0  0
 13 23  2  0  0  0  0
 14 25  2  0  0  0  0
 14 26  1  0  0  0  0
 15 30  1  0  0  0  0
 15 62  2  0  0  0  0
 16 27  1  0  0  0  0
 17 27  1  0  0  0  0
 17 31  2  0  0  0  0
 17 32  1  0  0  0  0
 18 20  2  0  0  0  0
 18 38  1  0  0  0  0
 19 21  2  0  0  0  0
 19 39  1  0  0  0  0
 20 47  1  0  0  0  0
 21 40  1  0  0  0  0
 22 81  1  0  0  0  0
 23 82  1  0  0  0  0
 24 26  2  0  0  0  0
 24 81  1  0  0  0  0
 25 83  1  0  0  0  0
 26 84  1  0  0  0  0
 27 63  2  0  0  0  0
 28 29  2  0  0  0  0
 28 50  1  0  0  0  0
 28 64  1  0  0  0  0
 29 56  1  0  0  0  0
 29 62  1  0  0  0  0
 30 64  2  0  0  0  0
 30 70  1  0  0  0  0
 31 65  1  0  0  0  0
 31 68  1  0  0  0  0
 32 69  1  0  0  0  0
 32 75  2  0  0  0  0
 33 48  1  0  0  0  0
 33 71  1  0  0  0  0
 33 76  2  0  0  0  0
 34 59  1  0  0  0  0
 34 66  1  0  0  0  0
 34 77  2  0  0  0  0
 35 57  1  0  0  0  0
 35 70  1  0  0  0  0
 35 78  2  0  0  0  0
 36 60  1  0  0  0  0
 36 72  1  0  0  0  0
 36 79  2  0  0  0  0
 37 67  1  0  0  0  0
 37 73  1  0  0  0  0
 37 80  2  0  0  0  0
 38 41  1  0  0  0  0
 39 48  1  0  0  0  0
 40 66  1  0  0  0  0
 41 43  1  0  0  0  0
 42 44  1  0  0  0  0
 42 45  1  0  0  0  0
 43 47  1  0  0  0  0
 44 49  1  0  0  0  0
 45 67  1  0  0  0  0
 46 49  1  0  0  0  0
 46 67  1  0  0  0  0
 47 71  1  0  0  0  0
 48 66  1  0  0  0  0
 49 65  1  0  0  0  0
 51 60  1  0  0  0  0
 52 61  1  0  0  0  0
 53 61  1  0  0  0  0
 54 61  1  0  0  0  0
 55 74  1  0  0  0  0
 56 73  1  0  0  0  0
 57 58  1  0  0  0  0
 58 82  1  0  0  0  0
 59 61  1  0  0  0  0
 59 72  1  0  0  0  0
 60 74  1  0  0  0  0
 63 65  1  0  0  0  0
M  CHG  1  74   1
M  ISO  4  37 100  58 101  73 100  82 101
M  END
> <Batch ID>
0191

> <Smiles>
CNC(C)C(=O)NC(C(=O)N1Cc2cc([101O:1][101CH2:1]CC(=O)Nc3cnc(C[100NH:0][100C:0](=O)N4CCCC(n5nc(-c6ccc(Oc7ccc(F)cc7F)cc6)c(C(N)=O)c5N)C4)c(C)n3)ccc2CC1C(=O)NC1CCCc2ccccc21)C(C)(C)C

> <Shape>
0.217

> <Color>
0.065

> <Negative vol penalty>
0.000

$$$$

  -OEChem-04052305243D

 86 94  0     1  0  0  0  0  0999 V2000
  -18.4963  -33.2757   20.6292 C   0  0  0  0  0  0  0  0  0  0  0  0
  -19.8216  -33.0547   20.2684 C   0  0  0  0  0  0  0  0  0  0  0  0
  -24.5098  -13.6992   20.8651 C   0  0  0  0  0  0  0  0  0  0  0  0
  -26.8135  -13.2067   20.3289 C   0  0  0  0  0  0  0  0  0  0  0  0
  -17.9875  -32.7033   21.7942 C   0  0  0  0  0  0  0  0  0  0  0  0
  -20.6392  -32.2621   21.0731 C   0  0  0  0  0  0  0  0  0  0  0  0
  -25.1046  -28.5053   19.2149 C   0  0  0  0  0  0  0  0  0  0  0  0
  -24.1462  -12.4055   20.4912 C   0  0  0  0  0  0  0  0  0  0  0  0
  -26.4499  -11.9130   19.9551 C   0  0  0  0  0  0  0  0  0  0  0  0
  -26.4890  -28.6555   19.1467 C   0  0  0  0  0  0  0  0  0  0  0  0
  -22.6666   -9.1187   20.0198 C   0  0  0  0  0  0  0  0  0  0  0  0
  -21.7957   -8.4221   20.8576 C   0  0  0  0  0  0  0  0  0  0  0  0
  -26.7070  -27.5615   21.2856 C   0  0  0  0  0  0  0  0  0  0  0  0
  -23.3889   -8.6039   22.6648 C   0  0  0  0  0  0  0  0  0  0  0  0
  -31.5298  -21.6429   22.2571 C   0  0  0  0  0  0  0  0  0  0  0  0
  -25.8435  -14.0998   20.7839 C   0  0  0  0  0  0  0  0  0  0  0  0
  -26.6111  -15.8735   22.4489 C   0  0  0  0  0  0  0  0  0  0  0  0
  -18.7965  -31.8953   22.6086 C   0  0  0  0  0  0  0  0  0  0  0  0
  -24.5092  -27.8908   20.3259 C   0  0  0  0  0  0  0  0  0  0  0  0
  -20.1411  -31.6794   22.2509 C   0  0  0  0  0  0  0  0  0  0  0  0
  -25.3150  -27.4024   21.3643 C   0  0  0  0  0  0  0  0  0  0  0  0
  -25.1163  -11.5124   20.0363 C   0  0  0  0  0  0  0  0  0  0  0  0
  -27.2902  -28.1862   20.1834 C   0  0  0  0  0  0  0  0  0  0  0  0
  -23.8987   -9.5578   20.5044 C   0  0  0  0  0  0  0  0  0  0  0  0
  -22.1568   -8.1647   22.1801 C   0  0  0  0  0  0  0  0  0  0  0  0
  -24.2598   -9.3004   21.8269 C   0  0  0  0  0  0  0  0  0  0  0  0
  -26.2196  -15.4362   21.1694 C   0  0  0  0  0  0  0  0  0  0  0  0
  -32.5907  -23.6648   22.3841 C   0  0  0  0  0  0  0  0  0  0  0  0
  -30.8212  -22.0835   21.1611 C   0  0  0  0  0  0  0  0  0  0  0  0
  -31.8827  -24.1052   21.2876 C   0  0  0  0  0  0  0  0  0  0  0  0
  -26.8621  -17.2147   22.2916 C   0  0  0  0  0  0  0  0  0  0  0  0
  -26.7367  -15.1335   23.6705 C   0  0  0  0  0  0  0  0  0  0  0  0
  -22.4548  -28.8160   22.5680 C   0  0  0  0  0  0  0  0  0  0  0  0
  -22.5877  -25.6913   23.4288 C   0  0  0  0  0  0  0  0  0  0  0  0
  -24.3272  -22.7552   23.4200 C   0  0  0  0  0  0  0  0  0  0  0  0
  -29.0863  -21.4530   19.4468 C   0  0  0  0  0  0  0  0  0  0  0  0
  -18.2153  -31.3368   23.8833 C   0  0  0  0  0  0  0  0  0  0  0  0
  -23.0164  -27.7125   20.3719 C   0  0  0  0  0  0  0  0  0  0  0  0
  -24.7265  -26.7171   22.5695 C   0  0  0  0  0  0  0  0  0  0  0  0
  -19.0425  -30.2034   24.4845 C   0  0  0  0  0  0  0  0  0  0  0  0
  -25.8719  -20.3189   18.4180 C   0  0  0  0  0  0  0  0  0  0  0  0
  -20.5218  -30.5750   24.5050 C   0  0  0  0  0  0  0  0  0  0  0  0
  -25.7080  -18.9835   19.1473 C   0  0  0  0  0  0  0  0  0  0  0  0
  -27.3127  -20.5434   17.9628 C   0  0  0  0  0  0  0  0  0  0  0  0
  -28.1615  -19.0717   19.7468 C   0  0  0  0  0  0  0  0  0  0  0  0
  -21.0524  -30.8053   23.0848 C   0  0  1  0  0  0  0  0  0  0  0  0
  -22.4796  -27.5318   21.7885 C   0  0  1  0  0  0  0  0  0  0  0  0
  -26.7404  -18.8304   20.2815 C   0  0  2  0  0  0  0  0  0  0  0  0
  -33.5829  -24.5341   23.0798 C   0  0  0  0  0  0  0  0  0  0  0  0
  -31.3242  -25.9010   17.1238 C   0  0  0  0  0  0  0  0  0  0  0  0
  -24.7802  -20.3160   23.7974 C   0  0  0  0  0  0  0  0  0  0  0  0
  -23.2737  -26.6273   26.2507 C   0  0  0  0  0  0  0  0  0  0  0  0
  -24.0495  -24.3016   26.7584 C   0  0  0  0  0  0  0  0  0  0  0  0
  -21.6662  -24.7142   26.1480 C   0  0  0  0  0  0  0  0  0  0  0  0
  -23.1808  -22.0170   20.7933 C   0  0  0  0  0  0  0  0  0  0  0  0
  -32.0309  -25.3978   18.3768 C   0  0  0  0  0  0  0  0  0  0  0  0
  -30.8797  -28.1183   20.9942 C   0  0  0  0  0  0  0  0  0  0  0  0
  -29.4019  -27.8279   21.2171 C   0  0  0  0  0  0  0  0  0  1  0  0
  -23.4488  -24.8753   24.3624 C   0  0  1  0  0  0  0  0  0  0  0  0
  -23.9061  -21.3359   23.0843 C   0  0  2  0  0  0  0  0  0  0  0  0
  -31.4008  -25.9430   19.6703 C   0  0  2  0  0  0  0  0  0  0  0  0
  -31.4541  -27.4840   19.7210 C   0  0  2  0  0  0  0  0  0  0  0  0
  -23.1208  -25.1442   25.8582 C   0  0  0  0  0  0  0  0  0  0  0  0
  -32.4272  -22.4256   22.8883 N   0  0  0  0  0  0  0  0  0  0  0  0
  -26.2202  -16.4199   20.2658 N   0  0  0  0  0  0  0  0  0  0  0  0
  -30.9850  -23.3226   20.6566 N   0  0  0  0  0  0  0  0  0  0  0  0
  -26.6150  -17.4886   20.9786 N   0  0  0  0  0  0  0  0  0  0  0  0
  -23.2614  -26.5723   22.5710 N   0  0  0  0  0  0  0  0  0  0  0  0
  -28.2338  -20.3866   19.0905 N   0  0  0  0  0  0  0  0  0  0  0  0
  -27.2678  -18.1746   23.1497 N   0  0  0  0  0  0  0  0  0  0  0  0
  -26.4397  -13.7639   23.6556 N   0  0  0  0  0  0  0  0  0  0  0  0
  -29.8941  -21.1999   20.5549 N   0  0  0  0  0  0  0  0  0  0  0  0
  -32.0951  -25.3867   20.8159 N   0  0  0  0  0  0  0  0  0  0  0  0
  -21.2873  -29.5405   22.4217 N   0  0  0  0  0  0  0  0  0  0  0  0
  -23.2863  -23.4836   23.9558 N   0  0  0  0  0  0  0  0  0  0  0  0
  -24.0088  -21.0986   21.6166 N   0  3  0  0  0  0  0  0  0  0  0  0
  -27.0858  -15.6743   24.7472 O   0  0  0  0  0  0  0  0  0  0  0  0
  -23.4226  -29.1259   23.2528 O   0  0  0  0  0  0  0  0  0  0  0  0
  -21.3629  -25.5471   23.4545 O   0  0  0  0  0  0  0  0  0  0  0  0
  -25.4667  -23.1746   23.2296 O   0  0  0  0  0  0  0  0  0  0  0  0
  -29.0793  -22.5225   18.8320 O   0  0  0  0  0  0  0  0  0  0  0  0
  -32.8016  -27.9354   19.5669 O   0  0  0  0  0  0  0  0  0  0  0  0
  -24.7619  -10.2499   19.6716 O   0  0  0  0  0  0  0  0  0  0  0  0
  -28.6417  -28.3321   20.1197 O   0  0  0  0  0  0  0  0  0  1  0  0
  -21.3198   -7.4972   22.9850 F   0  0  0  0  0  0  0  0  0  0  0  0
  -25.4416   -9.7208   22.2985 F   0  0  0  0  0  0  0  0  0  0  0  0
  1  2  1  0  0  0  0
  1  5  2  0  0  0  0
  2  6  2  0  0  0  0
  3  8  2  0  0  0  0
  3 16  1  0  0  0  0
  4  9  1  0  0  0  0
  4 16  2  0  0  0  0
  5 18  1  0  0  0  0
  6 20  1  0  0  0  0
  7 10  2  0  0  0  0
  7 19  1  0  0  0  0
  8 22  1  0  0  0  0
  9 22  2  0  0  0  0
 10 23  1  0  0  0  0
 11 12  2  0  0  0  0
 11 24  1  0  0  0  0
 12 25  1  0  0  0  0
 13 21  1  0  0  0  0
 13 23  2  0  0  0  0
 14 25  2  0  0  0  0
 14 26  1  0  0  0  0
 15 29  1  0  0  0  0
 15 64  2  0  0  0  0
 16 27  1  0  0  0  0
 17 27  1  0  0  0  0
 17 31  2  0  0  0  0
 17 32  1  0  0  0  0
 18 20  2  0  0  0  0
 18 37  1  0  0  0  0
 19 21  2  0  0  0  0
 19 38  1  0  0  0  0
 20 46  1  0  0  0  0
 21 39  1  0  0  0  0
 22 83  1  0  0  0  0
 23 84  1  0  0  0  0
 24 26  2  0  0  0  0
 24 83  1  0  0  0  0
 25 85  1  0  0  0  0
 26 86  1  0  0  0  0
 27 65  2  0  0  0  0
 28 30  2  0  0  0  0
 28 49  1  0  0  0  0
 28 64  1  0  0  0  0
 29 66  2  0  0  0  0
 29 72  1  0  0  0  0
 30 66  1  0  0  0  0
 30 73  1  0  0  0  0
 31 67  1  0  0  0  0
 31 70  1  0  0  0  0
 32 71  1  0  0  0  0
 32 77  2  0  0  0  0
 33 47  1  0  0  0  0
 33 74  1  0  0  0  0
 33 78  2  0  0  0  0
 34 59  1  0  0  0  0
 34 68  1  0  0  0  0
 34 79  2  0  0  0  0
 35 60  1  0  0  0  0
 35 75  1  0  0  0  0
 35 80  2  0  0  0  0
 36 69  1  0  0  0  0
 36 72  1  0  0  0  0
 36 81  2  0  0  0  0
 37 40  1  0  0  0  0
 38 47  1  0  0  0  0
 39 68  1  0  0  0  0
 40 42  1  0  0  0  0
 41 43  1  0  0  0  0
 41 44  1  0  0  0  0
 42 46  1  0  0  0  0
 43 48  1  0  0  0  0
 44 69  1  0  0  0  0
 45 48  1  0  0  0  0
 45 69  1  0  0  0  0
 46 74  1  0  0  0  0
 47 68  1  0  0  0  0
 48 67  1  0  0  0  0
 50 56  1  0  0  0  0
 51 60  1  0  0  0  0
 52 63  1  0  0  0  0
 53 63  1  0  0  0  0
 54 63  1  0  0  0  0
 55 76  1  0  0  0  0
 56 61  1  0  0  0  0
 57 58  1  0  0  0  0
 57 62  1  0  0  0  0
 58 84  1  0  0  0  0
 59 63  1  0  0  0  0
 59 75  1  0  0  0  0
 60 76  1  0  0  0  0
 61 62  1  0  0  0  0
 61 73  1  0  0  0  0
 62 82  1  0  0  0  0
 65 67  1  0  0  0  0
M  CHG  1  76   1
M  ISO  4  36 100  58 101  72 100  84 101
M  END
> <Batch ID>
0191

> <Smiles>
CCC(Nc1nc([100NH:0][100C:0](=O)N2CCCC(n3nc(-c4ccc(Oc5ccc(F)cc5F)cc4)c(C(N)=O)c3N)C2)cnc1C)C(O)C[101CH2:1][101O:1]c1ccc2c(c1)CN(C(=O)C(NC(=O)C(C)NC)C(C)(C)C)C(C(=O)NC1CCCc3ccccc31)C2

> <Shape>
0.216

> <Color>
0.101

> <Negative vol penalty>
0.000

$$$$

  -OEChem-04052305243D

 82 90  0     1  0  0  0  0  0999 V2000
  -19.9821  -28.9307   26.6755 C   0  0  0  0  0  0  0  0  0  0  0  0
  -21.3227  -28.8255   26.3192 C   0  0  0  0  0  0  0  0  0  0  0  0
  -25.5208  -14.4623   21.7513 C   0  0  0  0  0  0  0  0  0  0  0  0
  -27.2569  -14.2646   20.0828 C   0  0  0  0  0  0  0  0  0  0  0  0
  -18.9888  -28.6656   25.7338 C   0  0  0  0  0  0  0  0  0  0  0  0
  -21.6708  -28.4539   25.0210 C   0  0  0  0  0  0  0  0  0  0  0  0
  -25.3824  -31.3200   23.1092 C   0  0  0  0  0  0  0  0  0  0  0  0
  -25.3008  -13.0866   21.6855 C   0  0  0  0  0  0  0  0  0  0  0  0
  -27.0370  -12.8887   20.0170 C   0  0  0  0  0  0  0  0  0  0  0  0
  -26.6823  -31.0420   23.5296 C   0  0  0  0  0  0  0  0  0  0  0  0
  -24.0366   -9.6770   21.6938 C   0  0  0  0  0  0  0  0  0  0  0  0
  -22.7159   -9.2318   21.6370 C   0  0  0  0  0  0  0  0  0  0  0  0
  -27.0755  -29.8210   21.4866 C   0  0  0  0  0  0  0  0  0  0  0  0
  -22.3880  -10.4661   19.5861 C   0  0  0  0  0  0  0  0  0  0  0  0
  -28.1465  -25.9492   19.1619 C   0  0  0  0  0  0  0  0  0  0  0  0
  -26.4989  -15.0514   20.9499 C   0  0  0  0  0  0  0  0  0  0  0  0
  -27.6203  -17.1513   21.8667 C   0  0  0  0  0  0  0  0  0  0  0  0
  -19.3249  -28.2999   24.4208 C   0  0  0  0  0  0  0  0  0  0  0  0
  -24.9149  -30.8405   21.8771 C   0  0  0  0  0  0  0  0  0  0  0  0
  -20.6811  -28.1823   24.0612 C   0  0  0  0  0  0  0  0  0  0  0  0
  -25.7701  -30.0964   21.0517 C   0  0  0  0  0  0  0  0  0  0  0  0
  -26.0589  -12.2997   20.8184 C   0  0  0  0  0  0  0  0  0  0  0  0
  -27.5281  -30.2900   22.7196 C   0  0  0  0  0  0  0  0  0  0  0  0
  -24.5330  -10.5167   20.6967 C   0  0  0  0  0  0  0  0  0  0  0  0
  -21.8916   -9.6264   20.5832 C   0  0  0  0  0  0  0  0  0  0  0  0
  -23.7087  -10.9112   19.6429 C   0  0  0  0  0  0  0  0  0  0  0  0
  -26.7262  -16.4726   21.0171 C   0  0  0  0  0  0  0  0  0  0  0  0
  -28.8449  -24.7600   19.1507 C   0  0  0  0  0  0  0  0  0  0  0  0
  -27.4618  -18.4768   21.5435 C   0  0  0  0  0  0  0  0  0  0  0  0
  -28.8501  -25.9605   21.2391 C   0  0  0  0  0  0  0  0  0  0  0  0
  -28.5141  -16.6302   22.8592 C   0  0  0  0  0  0  0  0  0  0  0  0
  -22.5881  -28.8728   20.9726 C   0  0  0  0  0  0  0  0  0  0  0  0
  -23.4850  -29.8066   17.9984 C   0  0  0  0  0  0  0  0  0  0  0  0
  -25.9239  -31.0626   15.9684 C   0  0  0  0  0  0  0  0  0  0  0  0
  -26.9253  -22.5293   17.7441 C   0  0  0  0  0  0  0  0  0  0  0  0
  -18.2161  -27.9772   23.4507 C   0  0  0  0  0  0  0  0  0  0  0  0
  -23.5187  -31.1716   21.4261 C   0  0  0  0  0  0  0  0  0  0  0  0
  -25.3232  -29.5756   19.7110 C   0  0  0  0  0  0  0  0  0  0  0  0
  -18.6696  -27.9536   21.9933 C   0  0  0  0  0  0  0  0  0  0  0  0
  -23.9746  -20.7758   18.6904 C   0  0  0  0  0  0  0  0  0  0  0  0
  -19.9649  -27.1608   21.8500 C   0  0  0  0  0  0  0  0  0  0  0  0
  -24.5014  -19.5535   19.4443 C   0  0  0  0  0  0  0  0  0  0  0  0
  -24.8801  -21.1498   17.5190 C   0  0  0  0  0  0  0  0  0  0  0  0
  -26.8266  -20.1183   18.6238 C   0  0  0  0  0  0  0  0  0  0  0  0
  -21.0986  -27.8060   22.6561 C   0  0  1  0  0  0  0  0  0  0  0  0
  -22.9812  -30.1975   20.3823 C   0  0  1  0  0  0  0  0  0  0  0  0
  -25.9768  -19.7365   19.8479 C   0  0  2  0  0  0  0  0  0  0  0  0
  -26.3729  -31.6789   13.5776 C   0  0  0  0  0  0  0  0  0  0  0  0
  -28.4529  -27.4512   24.6193 C   0  0  0  0  0  0  0  0  0  0  0  0
  -30.8188  -28.7174   23.1629 C   0  0  0  0  0  0  0  0  0  0  0  0
  -23.7720  -26.8519   17.2932 C   0  0  0  0  0  0  0  0  0  0  0  0
  -25.0988  -27.5325   15.2821 C   0  0  0  0  0  0  0  0  0  0  0  0
  -22.7214  -28.2532   15.5080 C   0  0  0  0  0  0  0  0  0  0  0  0
  -26.4229  -33.8940   16.6706 C   0  0  0  0  0  0  0  0  0  0  0  0
  -29.0403  -23.7895   18.0564 C   0  0  0  0  0  0  0  0  0  0  0  0
  -24.4832  -29.3139   16.9787 C   0  0  1  0  0  0  0  0  0  0  0  0
  -25.9008  -32.1749   14.9355 C   0  0  2  0  0  0  0  0  0  0  0  0
  -28.5231  -27.5899   23.1002 C   0  0  1  0  0  0  0  0  0  0  0  0
  -29.3772  -28.7951   22.6721 C   0  0  1  0  0  0  0  0  0  1  0  0
  -24.0269  -27.9959   16.2916 C   0  0  0  0  0  0  0  0  0  0  0  0
  -28.1480  -26.6388   20.3587 N   0  0  0  0  0  0  0  0  0  0  0  0
  -26.0498  -17.2988   20.2146 N   0  0  0  0  0  0  0  0  0  0  0  0
  -26.5190  -18.5102   20.5586 N   0  0  0  0  0  0  0  0  0  0  0  0
  -23.9472  -29.9205   19.3172 N   0  0  0  0  0  0  0  0  0  0  0  0
  -26.2647  -21.3103   17.9694 N   0  0  0  0  0  0  0  0  0  0  0  0
  -28.0384  -19.6054   22.0086 N   0  0  0  0  0  0  0  0  0  0  0  0
  -28.5512  -15.2441   23.0632 N   0  0  0  0  0  0  0  0  0  0  0  0
  -29.0582  -26.3623   22.5455 N   0  0  0  0  0  0  0  0  0  0  0  0
  -21.6225  -28.9600   21.9572 N   0  0  0  0  0  0  0  0  0  0  0  0
  -24.7059  -30.4224   16.0567 N   0  0  0  0  0  0  0  0  0  0  0  0
  -28.2331  -22.5995   18.2082 N   0  0  0  0  0  0  0  0  0  0  0  0
  -26.7869  -33.2951   15.3607 N   0  3  0  0  0  0  0  0  0  0  0  0
  -29.2460  -17.3731   23.5563 O   0  0  0  0  0  0  0  0  0  0  0  0
  -23.1204  -27.8474   20.5640 O   0  0  0  0  0  0  0  0  0  0  0  0
  -22.3395  -30.0872   17.6368 O   0  0  0  0  0  0  0  0  0  0  0  0
  -26.9235  -30.7867   16.6280 O   0  0  0  0  0  0  0  0  0  0  0  0
  -26.3875  -23.4861   17.1765 O   0  0  0  0  0  0  0  0  0  0  0  0
  -25.8446  -10.9572   20.7540 O   0  0  0  0  0  0  0  0  0  0  0  0
  -28.7972  -30.0167   23.1278 O   0  0  0  0  0  0  0  0  0  1  0  0
  -20.6238   -9.1976   20.5280 F   0  0  0  0  0  0  0  0  0  0  0  0
  -24.1803  -11.7169   18.6815 F   0  0  0  0  0  0  0  0  0  0  0  0
  -29.5373  -24.4850   20.6955 S   0  0  0  0  0  0  0  0  0  0  0  0
  1  2  1  0  0  0  0
  1  5  2  0  0  0  0
  2  6  2  0  0  0  0
  3  8  2  0  0  0  0
  3 16  1  0  0  0  0
  4  9  1  0  0  0  0
  4 16  2  0  0  0  0
  5 18  1  0  0  0  0
  6 20  1  0  0  0  0
  7 10  2  0  0  0  0
  7 19  1  0  0  0  0
  8 22  1  0  0  0  0
  9 22  2  0  0  0  0
 10 23  1  0  0  0  0
 11 12  2  0  0  0  0
 11 24  1  0  0  0  0
 12 25  1  0  0  0  0
 13 21  1  0  0  0  0
 13 23  2  0  0  0  0
 14 25  2  0  0  0  0
 14 26  1  0  0  0  0
 15 28  2  0  0  0  0
 15 61  1  0  0  0  0
 16 27  1  0  0  0  0
 17 27  1  0  0  0  0
 17 29  2  0  0  0  0
 17 31  1  0  0  0  0
 18 20  2  0  0  0  0
 18 36  1  0  0  0  0
 19 21  2  0  0  0  0
 19 37  1  0  0  0  0
 20 45  1  0  0  0  0
 21 38  1  0  0  0  0
 22 78  1  0  0  0  0
 23 79  1  0  0  0  0
 24 26  2  0  0  0  0
 24 78  1  0  0  0  0
 25 80  1  0  0  0  0
 26 81  1  0  0  0  0
 27 62  2  0  0  0  0
 28 55  1  0  0  0  0
 28 82  1  0  0  0  0
 29 63  1  0  0  0  0
 29 66  1  0  0  0  0
 30 61  2  0  0  0  0
 30 68  1  0  0  0  0
 30 82  1  0  0  0  0
 31 67  1  0  0  0  0
 31 73  2  0  0  0  0
 32 46  1  0  0  0  0
 32 69  1  0  0  0  0
 32 74  2  0  0  0  0
 33 56  1  0  0  0  0
 33 64  1  0  0  0  0
 33 75  2  0  0  0  0
 34 57  1  0  0  0  0
 34 70  1  0  0  0  0
 34 76  2  0  0  0  0
 35 65  1  0  0  0  0
 35 71  1  0  0  0  0
 35 77  2  0  0  0  0
 36 39  1  0  0  0  0
 37 46  1  0  0  0  0
 38 64  1  0  0  0  0
 39 41  1  0  0  0  0
 40 42  1  0  0  0  0
 40 43  1  0  0  0  0
 41 45  1  0  0  0  0
 42 47  1  0  0  0  0
 43 65  1  0  0  0  0
 44 47  1  0  0  0  0
 44 65  1  0  0  0  0
 45 69  1  0  0  0  0
 46 64  1  0  0  0  0
 47 63  1  0  0  0  0
 48 57  1  0  0  0  0
 49 58  1  0  0  0  0
 50 59  1  0  0  0  0
 51 60  1  0  0  0  0
 52 60  1  0  0  0  0
 53 60  1  0  0  0  0
 54 72  1  0  0  0  0
 55 71  1  0  0  0  0
 56 60  1  0  0  0  0
 56 70  1  0  0  0  0
 57 72  1  0  0  0  0
 58 59  1  0  0  0  0
 58 68  1  0  0  0  0
 59 79  1  0  0  0  0
 62 63  1  0  0  0  0
M  CHG  1  72   1
M  ISO  4  35 100  59 101  71 100  79 101
M  END
> <Batch ID>
0191

> <Smiles>
CNC(C)C(=O)NC(C(=O)N1Cc2cc([101O:1][101CH:1](C)C(C)Nc3ncc(C[100NH:0][100C:0](=O)N4CCCC(n5nc(-c6ccc(Oc7ccc(F)cc7F)cc6)c(C(N)=O)c5N)C4)s3)ccc2CC1C(=O)NC1CCCc2ccccc21)C(C)(C)C

> <Shape>
0.229

> <Color>
0.077

> <Negative vol penalty>
0.000

$$$$

  -OEChem-04052305243D

 82 90  0     1  0  0  0  0  0999 V2000
  -21.2832  -18.7738   19.3280 C   0  0  0  0  0  0  0  0  0  0  0  0
  -22.5111  -19.4276   19.3487 C   0  0  0  0  0  0  0  0  0  0  0  0
  -26.4592  -12.3616   21.6007 C   0  0  0  0  0  0  0  0  0  0  0  0
  -25.8273  -13.3556   19.4912 C   0  0  0  0  0  0  0  0  0  0  0  0
  -20.1177  -19.4904   19.0594 C   0  0  0  0  0  0  0  0  0  0  0  0
  -22.5742  -20.7981   19.0996 C   0  0  0  0  0  0  0  0  0  0  0  0
  -26.4287  -24.8264   21.6336 C   0  0  0  0  0  0  0  0  0  0  0  0
  -25.2509  -11.6655   21.6346 C   0  0  0  0  0  0  0  0  0  0  0  0
  -24.6190  -12.6595   19.5251 C   0  0  0  0  0  0  0  0  0  0  0  0
  -27.6238  -25.3893   21.1879 C   0  0  0  0  0  0  0  0  0  0  0  0
  -23.9305   -8.8967   20.2123 C   0  0  0  0  0  0  0  0  0  0  0  0
  -23.9694   -7.5473   20.5634 C   0  0  0  0  0  0  0  0  0  0  0  0
  -26.4128  -27.3203   20.3981 C   0  0  0  0  0  0  0  0  0  0  0  0
  -22.5274   -7.9963   22.4492 C   0  0  0  0  0  0  0  0  0  0  0  0
  -26.7474  -13.2067   20.5290 C   0  0  0  0  0  0  0  0  0  0  0  0
  -29.2094  -13.4954   19.9265 C   0  0  0  0  0  0  0  0  0  0  0  0
  -20.1655  -20.8722   18.8165 C   0  0  0  0  0  0  0  0  0  0  0  0
  -25.2133  -25.5026   21.4549 C   0  0  0  0  0  0  0  0  0  0  0  0
  -21.4084  -21.5336   18.8262 C   0  0  0  0  0  0  0  0  0  0  0  0
  -25.2040  -26.7650   20.8448 C   0  0  0  0  0  0  0  0  0  0  0  0
  -24.3309  -11.8144   20.5969 C   0  0  0  0  0  0  0  0  0  0  0  0
  -27.6156  -26.6351   20.5674 C   0  0  0  0  0  0  0  0  0  0  0  0
  -23.1901   -9.7959   20.9798 C   0  0  0  0  0  0  0  0  0  0  0  0
  -23.2678   -7.0971   21.6817 C   0  0  0  0  0  0  0  0  0  0  0  0
  -22.4886   -9.3457   22.0982 C   0  0  0  0  0  0  0  0  0  0  0  0
  -27.9951  -13.9264   20.4936 C   0  0  0  0  0  0  0  0  0  0  0  0
  -30.0813  -14.5322   20.1529 C   0  0  0  0  0  0  0  0  0  0  0  0
  -28.1809  -23.4382   18.0000 C   0  0  0  0  0  0  0  0  0  0  0  0
  -28.0982  -21.5991   19.1603 C   0  0  0  0  0  0  0  0  0  0  0  0
  -29.5213  -12.2675   19.2550 C   0  0  0  0  0  0  0  0  0  0  0  0
  -22.5198  -24.8963   19.8797 C   0  0  0  0  0  0  0  0  0  0  0  0
  -21.5069  -27.6027   21.3534 C   0  0  0  0  0  0  0  0  0  0  0  0
  -22.3125  -30.5665   22.8412 C   0  0  0  0  0  0  0  0  0  0  0  0
  -29.3161  -20.3963   21.0086 C   0  0  0  0  0  0  0  0  0  0  0  0
  -18.8846  -21.5955   18.4841 C   0  0  0  0  0  0  0  0  0  0  0  0
  -23.9361  -24.8938   21.9653 C   0  0  0  0  0  0  0  0  0  0  0  0
  -23.9282  -27.5409   20.6471 C   0  0  0  0  0  0  0  0  0  0  0  0
  -18.9945  -23.1136   18.6006 C   0  0  0  0  0  0  0  0  0  0  0  0
  -30.9250  -18.1141   23.2177 C   0  0  0  0  0  0  0  0  0  0  0  0
  -20.2651  -23.6108   17.9186 C   0  0  0  0  0  0  0  0  0  0  0  0
  -30.4716  -16.7417   22.7144 C   0  0  0  0  0  0  0  0  0  0  0  0
  -29.8134  -19.1557   23.1035 C   0  0  0  0  0  0  0  0  0  0  0  0
  -28.7530  -17.9001   21.2682 C   0  0  0  0  0  0  0  0  0  0  0  0
  -21.5150  -23.0238   18.5855 C   0  0  1  0  0  0  0  0  0  0  0  0
  -22.6936  -25.4406   21.2693 C   0  0  1  0  0  0  0  0  0  0  0  0
  -29.8594  -16.8332   21.3029 C   0  0  2  0  0  0  0  0  0  0  0  0
  -21.2677  -32.5808   23.9129 C   0  0  0  0  0  0  0  0  0  0  0  0
  -31.1771  -24.4442   17.8096 C   0  0  0  0  0  0  0  0  0  0  0  0
  -29.0823  -28.9693   18.5535 C   0  0  0  0  0  0  0  0  0  0  0  0
  -20.7316  -28.6629   18.5994 C   0  0  0  0  0  0  0  0  0  0  0  0
  -20.6007  -30.9559   19.5959 C   0  0  0  0  0  0  0  0  0  0  0  0
  -19.0784  -29.1553   20.4101 C   0  0  0  0  0  0  0  0  0  0  0  0
  -23.6575  -30.0344   25.4232 C   0  0  0  0  0  0  0  0  0  0  0  0
  -30.0584  -26.6799   18.1457 C   0  0  0  0  0  0  0  0  0  0  0  0
  -21.5308  -29.0747   21.0197 C   0  0  1  0  0  0  0  0  0  0  0  0
  -21.8544  -31.1969   24.1440 C   0  0  2  0  0  0  0  0  0  0  0  0
  -29.9484  -25.1618   18.3618 C   0  0  1  0  0  0  0  0  0  0  0  0
  -28.8823  -27.4702   18.7360 C   0  0  1  0  0  0  0  0  0  1  0  0
  -20.5093  -29.4470   19.9081 C   0  0  0  0  0  0  0  0  0  0  0  0
  -28.0838  -15.1423   21.0394 N   0  0  0  0  0  0  0  0  0  0  0  0
  -28.7873  -22.7087   19.0085 N   0  0  0  0  0  0  0  0  0  0  0  0
  -27.0950  -22.9752   17.3811 N   0  0  0  0  0  0  0  0  0  0  0  0
  -29.3643  -15.4840   20.8163 N   0  0  0  0  0  0  0  0  0  0  0  0
  -22.7047  -26.9007   21.1577 N   0  0  0  0  0  0  0  0  0  0  0  0
  -29.2844  -19.1891   21.7382 N   0  0  0  0  0  0  0  0  0  0  0  0
  -31.3836  -14.7134   19.8474 N   0  0  0  0  0  0  0  0  0  0  0  0
  -28.5082  -11.3103   19.1083 N   0  0  0  0  0  0  0  0  0  0  0  0
  -28.7705  -24.6512   17.6921 N   0  0  0  0  0  0  0  0  0  0  0  0
  -28.3041  -20.5219   20.0575 N   0  0  0  0  0  0  0  0  0  0  0  0
  -21.8007  -23.7177   19.8229 N   0  0  0  0  0  0  0  0  0  0  0  0
  -21.3274  -29.7822   22.2792 N   0  0  0  0  0  0  0  0  0  0  0  0
  -22.9999  -31.3239   25.0888 N   0  3  0  0  0  0  0  0  0  0  0  0
  -30.6688  -12.0197   18.8132 O   0  0  0  0  0  0  0  0  0  0  0  0
  -23.0012  -25.5016   18.9291 O   0  0  0  0  0  0  0  0  0  0  0  0
  -20.4660  -27.0959   21.7791 O   0  0  0  0  0  0  0  0  0  0  0  0
  -23.4308  -30.7543   22.3673 O   0  0  0  0  0  0  0  0  0  0  0  0
  -30.1935  -21.2436   21.1937 O   0  0  0  0  0  0  0  0  0  0  0  0
  -23.1518  -11.1352   20.6296 O   0  0  0  0  0  0  0  0  0  0  0  0
  -28.7806  -27.1865   20.1308 O   0  0  0  0  0  0  0  0  0  1  0  0
  -23.3040   -5.8010   22.0178 F   0  0  0  0  0  0  0  0  0  0  0  0
  -21.7746  -10.2047   22.8386 F   0  0  0  0  0  0  0  0  0  0  0  0
  -26.7633  -21.4946   18.0871 S   0  0  0  0  0  0  0  0  0  0  0  0
  1  2  1  0  0  0  0
  1  5  2  0  0  0  0
  2  6  2  0  0  0  0
  3  8  2  0  0  0  0
  3 15  1  0  0  0  0
  4  9  1  0  0  0  0
  4 15  2  0  0  0  0
  5 17  1  0  0  0  0
  6 19  1  0  0  0  0
  7 10  2  0  0  0  0
  7 18  1  0  0  0  0
  8 21  1  0  0  0  0
  9 21  2  0  0  0  0
 10 22  1  0  0  0  0
 11 12  2  0  0  0  0
 11 23  1  0  0  0  0
 12 24  1  0  0  0  0
 13 20  1  0  0  0  0
 13 22  2  0  0  0  0
 14 24  2  0  0  0  0
 14 25  1  0  0  0  0
 15 26  1  0  0  0  0
 16 26  1  0  0  0  0
 16 27  2  0  0  0  0
 16 30  1  0  0  0  0
 17 19  2  0  0  0  0
 17 35  1  0  0  0  0
 18 20  2  0  0  0  0
 18 36  1  0  0  0  0
 19 44  1  0  0  0  0
 20 37  1  0  0  0  0
 21 78  1  0  0  0  0
 22 79  1  0  0  0  0
 23 25  2  0  0  0  0
 23 78  1  0  0  0  0
 24 80  1  0  0  0  0
 25 81  1  0  0  0  0
 26 60  2  0  0  0  0
 27 63  1  0  0  0  0
 27 66  1  0  0  0  0
 28 61  1  0  0  0  0
 28 62  2  0  0  0  0
 28 68  1  0  0  0  0
 29 61  2  0  0  0  0
 29 69  1  0  0  0  0
 29 82  1  0  0  0  0
 30 67  1  0  0  0  0
 30 73  2  0  0  0  0
 31 45  1  0  0  0  0
 31 70  1  0  0  0  0
 31 74  2  0  0  0  0
 32 55  1  0  0  0  0
 32 64  1  0  0  0  0
 32 75  2  0  0  0  0
 33 56  1  0  0  0  0
 33 71  1  0  0  0  0
 33 76  2  0  0  0  0
 34 65  1  0  0  0  0
 34 69  1  0  0  0  0
 34 77  2  0  0  0  0
 35 38  1  0  0  0  0
 36 45  1  0  0  0  0
 37 64  1  0  0  0  0
 38 40  1  0  0  0  0
 39 41  1  0  0  0  0
 39 42  1  0  0  0  0
 40 44  1  0  0  0  0
 41 46  1  0  0  0  0
 42 65  1  0  0  0  0
 43 46  1  0  0  0  0
 43 65  1  0  0  0  0
 44 70  1  0  0  0  0
 45 64  1  0  0  0  0
 46 63  1  0  0  0  0
 47 56  1  0  0  0  0
 48 57  1  0  0  0  0
 49 58  1  0  0  0  0
 50 59  1  0  0  0  0
 51 59  1  0  0  0  0
 52 59  1  0  0  0  0
 53 72  1  0  0  0  0
 54 57  1  0  0  0  0
 54 58  1  0  0  0  0
 55 59  1  0  0  0  0
 55 71  1  0  0  0  0
 56 72  1  0  0  0  0
 57 68  1  0  0  0  0
 58 79  1  0  0  0  0
 60 63  1  0  0  0  0
 62 82  1  0  0  0  0
M  CHG  1  72   1
M  ISO  4  34 100  58 101  69 100  79 101
M  END
> <Batch ID>
0191

> <Smiles>
CNC(C)C(=O)NC(C(=O)N1Cc2cc([101O:1][101CH:1](C)CC(C)Nc3nsc([100NH:0][100C:0](=O)N4CCCC(n5nc(-c6ccc(Oc7ccc(F)cc7F)cc6)c(C(N)=O)c5N)C4)n3)ccc2CC1C(=O)NC1CCCc2ccccc21)C(C)(C)C

> <Shape>
0.251

> <Color>
0.090

> <Negative vol penalty>
0.000

$$$$

  -OEChem-04052305243D

 84 92  0     1  0  0  0  0  0999 V2000
  -17.2510  -30.5722   23.8636 C   0  0  0  0  0  0  0  0  0  0  0  0
  -18.5745  -30.3379   23.5046 C   0  0  0  0  0  0  0  0  0  0  0  0
  -22.1341  -15.0760   20.4686 C   0  0  0  0  0  0  0  0  0  0  0  0
  -24.0109  -14.3095   21.7827 C   0  0  0  0  0  0  0  0  0  0  0  0
  -16.3358  -29.5205   23.8728 C   0  0  0  0  0  0  0  0  0  0  0  0
  -18.9837  -29.0514   23.1556 C   0  0  0  0  0  0  0  0  0  0  0  0
  -21.8969  -28.9960   19.0137 C   0  0  0  0  0  0  0  0  0  0  0  0
  -21.5023  -13.8463   20.6536 C   0  0  0  0  0  0  0  0  0  0  0  0
  -23.3791  -13.0798   21.9679 C   0  0  0  0  0  0  0  0  0  0  0  0
  -23.2309  -29.3705   19.1685 C   0  0  0  0  0  0  0  0  0  0  0  0
  -22.4211   -9.6123   22.4860 C   0  0  0  0  0  0  0  0  0  0  0  0
  -23.1883   -8.4585   22.3254 C   0  0  0  0  0  0  0  0  0  0  0  0
  -23.8736  -27.0456   19.2011 C   0  0  0  0  0  0  0  0  0  0  0  0
  -23.6531   -9.0858   20.0390 C   0  0  0  0  0  0  0  0  0  0  0  0
  -29.6973  -24.5767   17.2696 C   0  0  0  0  0  0  0  0  0  0  0  0
  -30.2291  -24.6460   19.5431 C   0  0  0  0  0  0  0  0  0  0  0  0
  -23.3885  -15.3076   21.0331 C   0  0  0  0  0  0  0  0  0  0  0  0
  -23.9366  -17.7193   21.6585 C   0  0  0  0  0  0  0  0  0  0  0  0
  -16.7318  -28.2223   23.5144 C   0  0  0  0  0  0  0  0  0  0  0  0
  -21.5394  -27.6410   18.9623 C   0  0  0  0  0  0  0  0  0  0  0  0
  -18.0732  -27.9810   23.1613 C   0  0  0  0  0  0  0  0  0  0  0  0
  -22.5347  -26.6566   19.0431 C   0  0  0  0  0  0  0  0  0  0  0  0
  -29.6464  -25.2724   18.4603 C   0  0  0  0  0  0  0  0  0  0  0  0
  -22.1248  -12.8482   21.4033 C   0  0  0  0  0  0  0  0  0  0  0  0
  -24.2192  -28.3953   19.2651 C   0  0  0  0  0  0  0  0  0  0  0  0
  -22.2698  -10.5028   21.4231 C   0  0  0  0  0  0  0  0  0  0  0  0
  -23.8043   -8.1953   21.1020 C   0  0  0  0  0  0  0  0  0  0  0  0
  -22.8858  -10.2396   20.1996 C   0  0  0  0  0  0  0  0  0  0  0  0
  -24.0419  -16.5775   20.8418 C   0  0  0  0  0  0  0  0  0  0  0  0
  -24.7430  -18.6510   21.0517 C   0  0  0  0  0  0  0  0  0  0  0  0
  -30.8039  -22.8576   18.2632 C   0  0  0  0  0  0  0  0  0  0  0  0
  -23.1777  -17.9198   22.8583 C   0  0  0  0  0  0  0  0  0  0  0  0
  -19.7269  -25.7303   20.7422 C   0  0  0  0  0  0  0  0  0  0  0  0
  -29.5579  -19.9403   18.7211 C   0  0  0  0  0  0  0  0  0  0  0  0
  -20.3430  -23.5927   18.3814 C   0  0  0  0  0  0  0  0  0  0  0  0
  -22.3946  -22.5875   15.8461 C   0  0  0  0  0  0  0  0  0  0  0  0
  -15.7174  -27.1084   23.5850 C   0  0  0  0  0  0  0  0  0  0  0  0
  -20.0990  -27.2538   18.7682 C   0  0  0  0  0  0  0  0  0  0  0  0
  -22.2055  -25.1885   18.9731 C   0  0  0  0  0  0  0  0  0  0  0  0
  -16.1456  -25.8466   22.8403 C   0  0  0  0  0  0  0  0  0  0  0  0
  -26.9718  -18.6390   16.5198 C   0  0  0  0  0  0  0  0  0  0  0  0
  -17.5886  -25.4890   23.1817 C   0  0  0  0  0  0  0  0  0  0  0  0
  -25.9818  -18.0519   17.5250 C   0  0  0  0  0  0  0  0  0  0  0  0
  -28.4144  -18.4718   16.9897 C   0  0  0  0  0  0  0  0  0  0  0  0
  -27.6862  -18.4515   19.3548 C   0  0  0  0  0  0  0  0  0  0  0  0
  -18.5497  -26.6041   22.7525 C   0  0  1  0  0  0  0  0  0  0  0  0
  -19.7915  -25.8376   19.2448 C   0  0  1  0  0  0  0  0  0  0  0  0
  -26.2179  -18.6271   18.9325 C   0  0  2  0  0  0  0  0  0  0  0  0
  -22.6570  -20.7827   14.1224 C   0  0  0  0  0  0  0  0  0  0  0  0
  -30.3288  -27.9284   20.0505 C   0  0  0  0  0  0  0  0  0  0  0  0
  -21.3051  -21.6690   20.5456 C   0  0  0  0  0  0  0  0  0  0  0  0
  -22.4105  -20.3152   18.7530 C   0  0  0  0  0  0  0  0  0  0  0  0
  -19.9334  -20.6094   18.7428 C   0  0  0  0  0  0  0  0  0  0  0  0
  -22.2255  -24.5292   13.6190 C   0  0  0  0  0  0  0  0  0  0  0  0
  -30.4838  -20.4298   17.6362 C   0  0  0  0  0  0  0  0  0  0  0  0
  -27.8651  -28.3213   19.7028 C   0  0  0  0  0  0  0  0  0  0  0  0
  -26.4824  -27.7068   19.5092 C   0  0  0  0  0  0  0  0  0  1  0  0
  -31.4471  -21.5168   18.1521 C   0  0  1  0  0  0  0  0  0  0  0  0
  -21.4161  -22.5621   18.1256 C   0  0  1  0  0  0  0  0  0  0  0  0
  -22.0989  -22.1661   14.4180 C   0  0  2  0  0  0  0  0  0  0  0  0
  -28.9762  -27.2708   19.7955 C   0  0  1  0  0  0  0  0  0  0  0  0
  -21.2726  -21.3165   19.0450 C   0  0  0  0  0  0  0  0  0  0  0  0
  -30.2703  -23.3627   17.1347 N   0  0  0  0  0  0  0  0  0  0  0  0
  -30.8188  -23.4341   19.4801 N   0  0  0  0  0  0  0  0  0  0  0  0
  -24.8512  -16.7645   19.7958 N   0  0  0  0  0  0  0  0  0  0  0  0
  -25.2618  -18.0347   19.9512 N   0  0  0  0  0  0  0  0  0  0  0  0
  -20.7821  -24.8603   18.7890 N   0  0  0  0  0  0  0  0  0  0  0  0
  -28.5915  -19.0072   18.3449 N   0  0  0  0  0  0  0  0  0  0  0  0
  -25.0517  -19.9291   21.3575 N   0  0  0  0  0  0  0  0  0  0  0  0
  -22.4029  -16.8577   23.3441 N   0  0  0  0  0  0  0  0  0  0  0  0
  -29.0483  -26.5156   18.5621 N   0  0  0  0  0  0  0  0  0  0  0  0
  -18.7801  -26.5510   21.3247 N   0  0  0  0  0  0  0  0  0  0  0  0
  -21.3615  -22.2613   16.6991 N   0  0  0  0  0  0  0  0  0  0  0  0
  -32.6597  -21.5249   17.2573 N   0  3  0  0  0  0  0  0  0  0  0  0
  -22.7033  -23.1319   13.4573 N   0  3  0  0  0  0  0  0  0  0  0  0
  -23.1736  -19.0137   23.4721 O   0  0  0  0  0  0  0  0  0  0  0  0
  -20.4794  -24.9589   21.3256 O   0  0  0  0  0  0  0  0  0  0  0  0
  -29.6894  -20.3775   19.8672 O   0  0  0  0  0  0  0  0  0  0  0  0
  -19.1593  -23.2865   18.2183 O   0  0  0  0  0  0  0  0  0  0  0  0
  -23.4392  -23.1465   16.1729 O   0  0  0  0  0  0  0  0  0  0  0  0
  -21.5084  -11.6483   21.5843 O   0  0  0  0  0  0  0  0  0  0  0  0
  -25.5219  -28.7581   19.4169 O   0  0  0  0  0  0  0  0  0  1  0  0
  -24.5423   -7.0881   20.9484 F   0  0  0  0  0  0  0  0  0  0  0  0
  -22.7451  -11.0920   19.1752 F   0  0  0  0  0  0  0  0  0  0  0  0
  1  2  1  0  0  0  0
  1  5  2  0  0  0  0
  2  6  2  0  0  0  0
  3  8  2  0  0  0  0
  3 17  1  0  0  0  0
  4  9  1  0  0  0  0
  4 17  2  0  0  0  0
  5 19  1  0  0  0  0
  6 21  1  0  0  0  0
  7 10  2  0  0  0  0
  7 20  1  0  0  0  0
  8 24  1  0  0  0  0
  9 24  2  0  0  0  0
 10 25  1  0  0  0  0
 11 12  2  0  0  0  0
 11 26  1  0  0  0  0
 12 27  1  0  0  0  0
 13 22  1  0  0  0  0
 13 25  2  0  0  0  0
 14 27  2  0  0  0  0
 14 28  1  0  0  0  0
 15 23  1  0  0  0  0
 15 63  2  0  0  0  0
 16 23  2  0  0  0  0
 16 64  1  0  0  0  0
 17 29  1  0  0  0  0
 18 29  1  0  0  0  0
 18 30  2  0  0  0  0
 18 32  1  0  0  0  0
 19 21  2  0  0  0  0
 19 37  1  0  0  0  0
 20 22  2  0  0  0  0
 20 38  1  0  0  0  0
 21 46  1  0  0  0  0
 22 39  1  0  0  0  0
 23 71  1  0  0  0  0
 24 81  1  0  0  0  0
 25 82  1  0  0  0  0
 26 28  2  0  0  0  0
 26 81  1  0  0  0  0
 27 83  1  0  0  0  0
 28 84  1  0  0  0  0
 29 65  2  0  0  0  0
 30 66  1  0  0  0  0
 30 69  1  0  0  0  0
 31 58  1  0  0  0  0
 31 63  1  0  0  0  0
 31 64  2  0  0  0  0
 32 70  1  0  0  0  0
 32 76  2  0  0  0  0
 33 47  1  0  0  0  0
 33 72  1  0  0  0  0
 33 77  2  0  0  0  0
 34 55  1  0  0  0  0
 34 68  1  0  0  0  0
 34 78  2  0  0  0  0
 35 59  1  0  0  0  0
 35 67  1  0  0  0  0
 35 79  2  0  0  0  0
 36 60  1  0  0  0  0
 36 73  1  0  0  0  0
 36 80  2  0  0  0  0
 37 40  1  0  0  0  0
 38 47  1  0  0  0  0
 39 67  1  0  0  0  0
 40 42  1  0  0  0  0
 41 43  1  0  0  0  0
 41 44  1  0  0  0  0
 42 46  1  0  0  0  0
 43 48  1  0  0  0  0
 44 68  1  0  0  0  0
 45 48  1  0  0  0  0
 45 68  1  0  0  0  0
 46 72  1  0  0  0  0
 47 67  1  0  0  0  0
 48 66  1  0  0  0  0
 49 60  1  0  0  0  0
 50 61  1  0  0  0  0
 51 62  1  0  0  0  0
 52 62  1  0  0  0  0
 53 62  1  0  0  0  0
 54 75  1  0  0  0  0
 55 58  1  0  0  0  0
 56 57  1  0  0  0  0
 56 61  1  0  0  0  0
 57 82  1  0  0  0  0
 58 74  1  0  0  0  0
 59 62  1  0  0  0  0
 59 73  1  0  0  0  0
 60 75  1  0  0  0  0
 61 71  1  0  0  0  0
 65 66  1  0  0  0  0
M  CHG  2  74   1  75   1
M  ISO  4  34 100  55 100  57 101  82 101
M  END
> <Batch ID>
0191

> <Smiles>
CNC(C)C(=O)NC(C(=O)N1Cc2cc([101O:1][101CH2:1]CC(C)Nc3cnc(C(N)[100CH2:0][100C:0](=O)N4CCCC(n5nc(-c6ccc(Oc7ccc(F)cc7F)cc6)c(C(N)=O)c5N)C4)nc3)ccc2CC1C(=O)NC1CCCc2ccccc21)C(C)(C)C

> <Shape>
0.216

> <Color>
0.053

> <Negative vol penalty>
0.000

$$$$

  -OEChem-04052305243D

 89 97  0     1  0  0  0  0  0999 V2000
  -18.2772  -27.4092   22.8144 C   0  0  0  0  0  0  0  0  0  0  0  0
  -19.5524  -26.8971   22.5971 C   0  0  0  0  0  0  0  0  0  0  0  0
  -23.5850   -8.8390   20.2168 C   0  0  0  0  0  0  0  0  0  0  0  0
  -23.1878  -10.5369   21.8891 C   0  0  0  0  0  0  0  0  0  0  0  0
  -18.0705  -28.7880   22.8078 C   0  0  0  0  0  0  0  0  0  0  0  0
  -20.6214  -27.7637   22.3720 C   0  0  0  0  0  0  0  0  0  0  0  0
  -24.7527  -26.4765   25.0026 C   0  0  0  0  0  0  0  0  0  0  0  0
  -22.7516   -7.9612   20.9100 C   0  0  0  0  0  0  0  0  0  0  0  0
  -22.3543   -9.6591   22.5823 C   0  0  0  0  0  0  0  0  0  0  0  0
  -25.5163  -25.4185   24.5114 C   0  0  0  0  0  0  0  0  0  0  0  0
  -22.9491   -5.9642   23.6298 C   0  0  0  0  0  0  0  0  0  0  0  0
  -23.3920   -4.6532   23.8049 C   0  0  0  0  0  0  0  0  0  0  0  0
  -27.0703  -26.9938   23.5510 C   0  0  0  0  0  0  0  0  0  0  0  0
  -21.4584   -3.8397   22.6063 C   0  0  0  0  0  0  0  0  0  0  0  0
  -28.5378  -18.3123   19.3269 C   0  0  0  0  0  0  0  0  0  0  0  0
  -30.6269  -17.9914   20.3214 C   0  0  0  0  0  0  0  0  0  0  0  0
  -23.8032  -10.1268   20.7064 C   0  0  0  0  0  0  0  0  0  0  0  0
  -24.2923  -11.9414   18.9814 C   0  0  0  0  0  0  0  0  0  0  0  0
  -19.1393  -29.6722   22.5921 C   0  0  0  0  0  0  0  0  0  0  0  0
  -25.1370  -27.8035   24.7619 C   0  0  0  0  0  0  0  0  0  0  0  0
  -20.4285  -29.1556   22.3612 C   0  0  0  0  0  0  0  0  0  0  0  0
  -26.3113  -28.0669   24.0424 C   0  0  0  0  0  0  0  0  0  0  0  0
  -29.5063  -17.4246   19.7492 C   0  0  0  0  0  0  0  0  0  0  0  0
  -22.1362   -8.3713   22.0927 C   0  0  0  0  0  0  0  0  0  0  0  0
  -26.6738  -25.6771   23.7830 C   0  0  0  0  0  0  0  0  0  0  0  0
  -21.7607   -6.2130   22.9430 C   0  0  0  0  0  0  0  0  0  0  0  0
  -22.6467   -3.5910   23.2931 C   0  0  0  0  0  0  0  0  0  0  0  0
  -21.0154   -5.1508   22.4312 C   0  0  0  0  0  0  0  0  0  0  0  0
  -24.6645  -11.0338   19.9911 C   0  0  0  0  0  0  0  0  0  0  0  0
  -25.4652  -12.5636   18.6296 C   0  0  0  0  0  0  0  0  0  0  0  0
  -29.7840  -20.0813   20.0231 C   0  0  0  0  0  0  0  0  0  0  0  0
  -23.0017  -12.1992   18.4125 C   0  0  0  0  0  0  0  0  0  0  0  0
  -23.8386  -30.2740   23.2406 C   0  0  0  0  0  0  0  0  0  0  0  0
  -26.3843  -31.8673   24.4665 C   0  0  0  0  0  0  0  0  0  0  0  0
  -29.5685  -31.7386   25.6876 C   0  0  0  0  0  0  0  0  0  0  0  0
  -30.2661  -15.0347   19.9887 C   0  0  0  0  0  0  0  0  0  0  0  0
  -18.8583  -31.1533   22.5470 C   0  0  0  0  0  0  0  0  0  0  0  0
  -24.3169  -28.9334   25.3215 C   0  0  0  0  0  0  0  0  0  0  0  0
  -26.7782  -29.4735   23.7739 C   0  0  0  0  0  0  0  0  0  0  0  0
  -20.1119  -32.0152   22.6733 C   0  0  0  0  0  0  0  0  0  0  0  0
  -30.2600  -11.4776   19.8345 C   0  0  0  0  0  0  0  0  0  0  0  0
  -21.2133  -31.4931   21.7561 C   0  0  0  0  0  0  0  0  0  0  0  0
  -28.7731  -11.1197   19.7785 C   0  0  0  0  0  0  0  0  0  0  0  0
  -30.5202  -12.6799   20.7404 C   0  0  0  0  0  0  0  0  0  0  0  0
  -28.2298  -13.5132   20.3811 C   0  0  0  0  0  0  0  0  0  0  0  0
  -21.6180  -30.0641   22.1380 C   0  0  1  0  0  0  0  0  0  0  0  0
  -24.5250  -30.2486   24.5769 C   0  0  1  0  0  0  0  0  0  0  0  0
  -27.9105  -12.3484   19.4297 C   0  0  2  0  0  0  0  0  0  0  0  0
  -28.1224  -22.9695   16.3566 C   0  0  0  0  0  0  0  0  0  0  0  0
  -32.5694  -23.0544   17.0146 C   0  0  0  0  0  0  0  0  0  0  0  0
  -31.3992  -33.2083   26.5743 C   0  0  0  0  0  0  0  0  0  0  0  0
  -27.0143  -32.7913   21.6276 C   0  0  0  0  0  0  0  0  0  0  0  0
  -29.3042  -33.4254   22.4168 C   0  0  0  0  0  0  0  0  0  0  0  0
  -27.2980  -34.5490   23.3839 C   0  0  0  0  0  0  0  0  0  0  0  0
  -30.2590  -21.0119   17.3278 C   0  0  0  0  0  0  0  0  0  0  0  0
  -29.5589  -30.3660   28.3096 C   0  0  0  0  0  0  0  0  0  0  0  0
  -29.5261  -23.3576   16.8101 C   0  0  0  0  0  0  0  0  0  0  0  0
  -31.6184  -22.9740   18.2055 C   0  0  0  0  0  0  0  0  0  0  0  0
  -28.3527  -23.5678   21.3286 C   0  0  0  0  0  0  0  0  0  0  0  0
  -28.1459  -24.8728   22.0972 C   0  0  0  0  0  0  0  0  0  1  0  0
  -27.7935  -32.1485   24.0037 C   0  0  1  0  0  0  0  0  0  0  0  0
  -30.1969  -32.3469   26.9284 C   0  0  2  0  0  0  0  0  0  0  0  0
  -29.3293  -22.4097   19.2501 C   0  0  1  0  0  0  0  0  0  0  0  0
  -29.1570  -23.7486   20.0204 C   0  0  1  0  0  0  0  0  0  0  0  0
  -27.8429  -33.2020   22.8612 C   0  0  0  0  0  0  0  0  0  0  0  0
  -30.1741  -22.4514   17.9075 C   0  0  0  0  0  0  0  0  0  0  0  0
  -28.6442  -19.6518   19.4487 N   0  0  0  0  0  0  0  0  0  0  0  0
  -30.7995  -19.3207   20.4745 N   0  0  0  0  0  0  0  0  0  0  0  0
  -25.9716  -11.0725   20.2630 N   0  0  0  0  0  0  0  0  0  0  0  0
  -26.4310  -12.0120   19.4189 N   0  0  0  0  0  0  0  0  0  0  0  0
  -25.9389  -30.5443   24.3364 N   0  0  0  0  0  0  0  0  0  0  0  0
  -29.6712  -13.8068   20.3480 N   0  0  0  0  0  0  0  0  0  0  0  0
  -25.7542  -13.5231   17.7250 N   0  0  0  0  0  0  0  0  0  0  0  0
  -21.9035  -11.4710   18.8899 N   0  0  0  0  0  0  0  0  0  0  0  0
  -29.3610  -16.0228   19.6026 N   0  0  0  0  0  0  0  0  0  0  0  0
  -29.9258  -21.4442   20.1660 N   0  0  0  0  0  0  0  0  0  0  0  0
  -22.4726  -30.0759   23.3059 N   0  0  0  0  0  0  0  0  0  0  0  0
  -28.5473  -32.5234   25.1952 N   0  0  0  0  0  0  0  0  0  0  0  0
  -30.6454  -31.2744   27.8608 N   0  3  0  0  0  0  0  0  0  0  0  0
  -22.8303  -13.0385   17.4961 O   0  0  0  0  0  0  0  0  0  0  0  0
  -24.4992  -30.4610   22.2255 O   0  0  0  0  0  0  0  0  0  0  0  0
  -25.7064  -32.7862   24.9331 O   0  0  0  0  0  0  0  0  0  0  0  0
  -29.9483  -30.6756   25.2015 O   0  0  0  0  0  0  0  0  0  0  0  0
  -31.4901  -15.1892   19.9950 O   0  0  0  0  0  0  0  0  0  0  0  0
  -28.5022  -24.7172   19.2116 O   0  0  0  0  0  0  0  0  0  0  0  0
  -21.3227   -7.5151   22.7693 O   0  0  0  0  0  0  0  0  0  0  0  0
  -27.4264  -24.6381   23.2981 O   0  0  0  0  0  0  0  0  0  1  0  0
  -23.0730   -2.3322   23.4600 F   0  0  0  0  0  0  0  0  0  0  0  0
  -19.8736   -5.3836   21.7695 F   0  0  0  0  0  0  0  0  0  0  0  0
  1  2  1  0  0  0  0
  1  5  2  0  0  0  0
  2  6  2  0  0  0  0
  3  8  2  0  0  0  0
  3 17  1  0  0  0  0
  4  9  1  0  0  0  0
  4 17  2  0  0  0  0
  5 19  1  0  0  0  0
  6 21  1  0  0  0  0
  7 10  2  0  0  0  0
  7 20  1  0  0  0  0
  8 24  1  0  0  0  0
  9 24  2  0  0  0  0
 10 25  1  0  0  0  0
 11 12  2  0  0  0  0
 11 26  1  0  0  0  0
 12 27  1  0  0  0  0
 13 22  1  0  0  0  0
 13 25  2  0  0  0  0
 14 27  2  0  0  0  0
 14 28  1  0  0  0  0
 15 23  1  0  0  0  0
 15 67  2  0  0  0  0
 16 23  2  0  0  0  0
 16 68  1  0  0  0  0
 17 29  1  0  0  0  0
 18 29  1  0  0  0  0
 18 30  2  0  0  0  0
 18 32  1  0  0  0  0
 19 21  2  0  0  0  0
 19 37  1  0  0  0  0
 20 22  2  0  0  0  0
 20 38  1  0  0  0  0
 21 46  1  0  0  0  0
 22 39  1  0  0  0  0
 23 75  1  0  0  0  0
 24 86  1  0  0  0  0
 25 87  1  0  0  0  0
 26 28  2  0  0  0  0
 26 86  1  0  0  0  0
 27 88  1  0  0  0  0
 28 89  1  0  0  0  0
 29 69  2  0  0  0  0
 30 70  1  0  0  0  0
 30 73  1  0  0  0  0
 31 67  1  0  0  0  0
 31 68  2  0  0  0  0
 31 76  1  0  0  0  0
 32 74  1  0  0  0  0
 32 80  2  0  0  0  0
 33 47  1  0  0  0  0
 33 77  1  0  0  0  0
 33 81  2  0  0  0  0
 34 61  1  0  0  0  0
 34 71  1  0  0  0  0
 34 82  2  0  0  0  0
 35 62  1  0  0  0  0
 35 78  1  0  0  0  0
 35 83  2  0  0  0  0
 36 72  1  0  0  0  0
 36 75  1  0  0  0  0
 36 84  2  0  0  0  0
 37 40  1  0  0  0  0
 38 47  1  0  0  0  0
 39 71  1  0  0  0  0
 40 42  1  0  0  0  0
 41 43  1  0  0  0  0
 41 44  1  0  0  0  0
 42 46  1  0  0  0  0
 43 48  1  0  0  0  0
 44 72  1  0  0  0  0
 45 48  1  0  0  0  0
 45 72  1  0  0  0  0
 46 77  1  0  0  0  0
 47 71  1  0  0  0  0
 48 70  1  0  0  0  0
 49 57  1  0  0  0  0
 50 58  1  0  0  0  0
 51 62  1  0  0  0  0
 52 65  1  0  0  0  0
 53 65  1  0  0  0  0
 54 65  1  0  0  0  0
 55 66  1  0  0  0  0
 56 79  1  0  0  0  0
 57 66  1  0  0  0  0
 58 66  1  0  0  0  0
 59 60  1  0  0  0  0
 59 64  1  0  0  0  0
 60 87  1  0  0  0  0
 61 65  1  0  0  0  0
 61 78  1  0  0  0  0
 62 79  1  0  0  0  0
 63 64  1  0  0  0  0
 63 66  1  0  0  0  0
 63 76  1  0  0  0  0
 64 85  1  0  0  0  0
 69 70  1  0  0  0  0
M  CHG  1  79   1
M  ISO  4  36 100  60 101  75 100  87 101
M  END
> <Batch ID>
0191

> <Smiles>
CCC(C)(CC)C(Nc1ncc([100NH:0][100C:0](=O)N2CCCC(n3nc(-c4ccc(Oc5ccc(F)cc5F)cc4)c(C(N)=O)c3N)C2)cn1)C(O)C[101CH2:1][101O:1]c1ccc2c(c1)CN(C(=O)C(NC(=O)C(C)NC)C(C)(C)C)C(C(=O)NC1CCCc3ccccc31)C2

> <Shape>
0.315

> <Color>
0.084

> <Negative vol penalty>
0.000

$$$$

  -OEChem-04052305243D

 82 90  0     1  0  0  0  0  0999 V2000
  -32.1056  -15.3839   19.2703 C   0  0  0  0  0  0  0  0  0  0  0  0
  -31.1660  -16.4074   19.2004 C   0  0  0  0  0  0  0  0  0  0  0  0
  -28.7444  -25.7399   19.5924 C   0  0  0  0  0  0  0  0  0  0  0  0
  -26.5649  -24.7247   19.3548 C   0  0  0  0  0  0  0  0  0  0  0  0
  -31.6880  -14.0676   19.4623 C   0  0  0  0  0  0  0  0  0  0  0  0
  -29.8079  -16.1150   19.3214 C   0  0  0  0  0  0  0  0  0  0  0  0
  -25.5120  -19.5988   21.9509 C   0  0  0  0  0  0  0  0  0  0  0  0
  -29.3382  -24.4792   19.5321 C   0  0  0  0  0  0  0  0  0  0  0  0
  -27.1587  -23.4640   19.2945 C   0  0  0  0  0  0  0  0  0  0  0  0
  -24.5697  -20.4820   21.4259 C   0  0  0  0  0  0  0  0  0  0  0  0
  -28.7790  -21.5828   17.0018 C   0  0  0  0  0  0  0  0  0  0  0  0
  -28.3284  -20.7023   16.0184 C   0  0  0  0  0  0  0  0  0  0  0  0
  -22.9134  -18.7286   21.4650 C   0  0  0  0  0  0  0  0  0  0  0  0
  -27.6742  -19.1266   17.7291 C   0  0  0  0  0  0  0  0  0  0  0  0
  -18.4825  -28.1556   22.8902 C   0  0  0  0  0  0  0  0  0  0  0  0
  -27.3577  -25.8627   19.5038 C   0  0  0  0  0  0  0  0  0  0  0  0
  -26.4607  -28.0240   18.4880 C   0  0  0  0  0  0  0  0  0  0  0  0
  -30.3248  -13.7601   19.5954 C   0  0  0  0  0  0  0  0  0  0  0  0
  -25.1645  -18.2686   22.2272 C   0  0  0  0  0  0  0  0  0  0  0  0
  -29.3716  -14.7932   19.5141 C   0  0  0  0  0  0  0  0  0  0  0  0
  -23.8525  -17.8312   21.9959 C   0  0  0  0  0  0  0  0  0  0  0  0
  -28.5454  -23.3413   19.3831 C   0  0  0  0  0  0  0  0  0  0  0  0
  -23.2710  -20.0462   21.1801 C   0  0  0  0  0  0  0  0  0  0  0  0
  -28.6774  -21.2353   18.3489 C   0  0  0  0  0  0  0  0  0  0  0  0
  -27.7759  -19.4742   16.3821 C   0  0  0  0  0  0  0  0  0  0  0  0
  -28.1249  -20.0072   18.7125 C   0  0  0  0  0  0  0  0  0  0  0  0
  -26.7437  -27.1646   19.5666 C   0  0  0  0  0  0  0  0  0  0  0  0
  -19.8219  -28.0393   23.1977 C   0  0  0  0  0  0  0  0  0  0  0  0
  -25.8830  -29.1261   19.0696 C   0  0  0  0  0  0  0  0  0  0  0  0
  -19.5966  -26.2101   22.0089 C   0  0  0  0  0  0  0  0  0  0  0  0
  -26.6987  -27.8423   17.0859 C   0  0  0  0  0  0  0  0  0  0  0  0
  -26.1291  -15.4316   21.1670 C   0  0  0  0  0  0  0  0  0  0  0  0
  -24.1607  -14.3267   23.4965 C   0  0  0  0  0  0  0  0  0  0  0  0
  -21.4657  -14.8798   25.5159 C   0  0  0  0  0  0  0  0  0  0  0  0
  -22.8955  -29.9373   24.1947 C   0  0  0  0  0  0  0  0  0  0  0  0
  -29.9184  -12.3164   19.7544 C   0  0  0  0  0  0  0  0  0  0  0  0
  -26.1855  -17.3356   22.8184 C   0  0  0  0  0  0  0  0  0  0  0  0
  -23.4234  -16.4186   22.2943 C   0  0  0  0  0  0  0  0  0  0  0  0
  -28.4849  -12.1380   20.2480 C   0  0  0  0  0  0  0  0  0  0  0  0
  -25.8524  -31.6233   23.1505 C   0  0  0  0  0  0  0  0  0  0  0  0
  -27.5351  -13.0407   19.4672 C   0  0  0  0  0  0  0  0  0  0  0  0
  -26.3906  -30.7493   22.0162 C   0  0  0  0  0  0  0  0  0  0  0  0
  -25.2227  -30.7837   24.2597 C   0  0  0  0  0  0  0  0  0  0  0  0
  -24.7222  -28.9651   22.6735 C   0  0  0  0  0  0  0  0  0  0  0  0
  -27.8910  -14.5191   19.6656 C   0  0  1  0  0  0  0  0  0  0  0  0
  -25.8593  -15.8645   22.5803 C   0  0  1  0  0  0  0  0  0  0  0  0
  -25.3169  -29.7700   21.5052 C   0  0  2  0  0  0  0  0  0  0  0  0
  -20.0734  -13.7773   27.2889 C   0  0  0  0  0  0  0  0  0  0  0  0
  -22.7988  -12.6220   21.3636 C   0  0  0  0  0  0  0  0  0  0  0  0
  -20.8837  -12.2994   22.9437 C   0  0  0  0  0  0  0  0  0  0  0  0
  -23.1547  -11.4661   23.5526 C   0  0  0  0  0  0  0  0  0  0  0  0
  -22.1424  -16.9629   27.5062 C   0  0  0  0  0  0  0  0  0  0  0  0
  -20.6077  -28.9945   24.0039 C   0  0  0  0  0  0  0  0  0  0  0  0
  -21.2163  -24.4227   21.3708 C   0  0  0  0  0  0  0  0  0  0  0  0
  -22.4962  -22.2870   20.9950 C   0  0  0  0  0  0  0  0  0  1  0  0
  -22.7001  -13.9530   23.5738 C   0  0  1  0  0  0  0  0  0  0  0  0
  -21.2661  -14.6778   27.0071 C   0  0  2  0  0  0  0  0  0  0  0  0
  -21.1207  -22.9451   20.9956 C   0  0  1  0  0  0  0  0  0  0  0  0
  -22.3926  -12.6113   22.8509 C   0  0  0  0  0  0  0  0  0  0  0  0
  -26.3761  -27.6768   20.7441 N   0  0  0  0  0  0  0  0  0  0  0  0
  -20.4623  -26.9241   22.6936 N   0  0  0  0  0  0  0  0  0  0  0  0
  -25.8564  -28.8700   20.4089 N   0  0  0  0  0  0  0  0  0  0  0  0
  -24.4595  -15.5426   22.8655 N   0  0  0  0  0  0  0  0  0  0  0  0
  -24.2120  -29.8776   23.7088 N   0  0  0  0  0  0  0  0  0  0  0  0
  -25.4004  -30.2796   18.5608 N   0  0  0  0  0  0  0  0  0  0  0  0
  -27.3011  -26.6508   16.6594 N   0  0  0  0  0  0  0  0  0  0  0  0
  -19.9008  -25.0224   21.3655 N   0  0  0  0  0  0  0  0  0  0  0  0
  -27.4188  -14.9843   20.9521 N   0  0  0  0  0  0  0  0  0  0  0  0
  -22.3507  -13.9624   24.9902 N   0  0  0  0  0  0  0  0  0  0  0  0
  -21.9991  -29.0484   23.6141 N   0  0  0  0  0  0  0  0  0  0  0  0
  -21.0361  -15.9870   27.6809 N   0  3  0  0  0  0  0  0  0  0  0  0
  -26.4015  -28.7177   16.2381 O   0  0  0  0  0  0  0  0  0  0  0  0
  -25.2332  -15.4970   20.3335 O   0  0  0  0  0  0  0  0  0  0  0  0
  -25.0048  -13.5711   23.9846 O   0  0  0  0  0  0  0  0  0  0  0  0
  -20.8910  -15.7607   24.8802 O   0  0  0  0  0  0  0  0  0  0  0  0
  -22.5436  -30.7282   25.0766 O   0  0  0  0  0  0  0  0  0  0  0  0
  -20.3154  -22.2685   21.9631 O   0  0  0  0  0  0  0  0  0  0  0  0
  -29.1245  -22.1110   19.3240 O   0  0  0  0  0  0  0  0  0  0  0  0
  -22.3494  -20.9060   20.6670 O   0  0  0  0  0  0  0  0  0  1  0  0
  -27.3418  -18.6293   15.4377 F   0  0  0  0  0  0  0  0  0  0  0  0
  -28.0236  -19.6683   20.0051 F   0  0  0  0  0  0  0  0  0  0  0  0
  -17.9949  -26.8211   21.9297 S   0  0  0  0  0  0  0  0  0  0  0  0
  1  2  1  0  0  0  0
  1  5  2  0  0  0  0
  2  6  2  0  0  0  0
  3  8  2  0  0  0  0
  3 16  1  0  0  0  0
  4  9  1  0  0  0  0
  4 16  2  0  0  0  0
  5 18  1  0  0  0  0
  6 20  1  0  0  0  0
  7 10  2  0  0  0  0
  7 19  1  0  0  0  0
  8 22  1  0  0  0  0
  9 22  2  0  0  0  0
 10 23  1  0  0  0  0
 11 12  2  0  0  0  0
 11 24  1  0  0  0  0
 12 25  1  0  0  0  0
 13 21  1  0  0  0  0
 13 23  2  0  0  0  0
 14 25  2  0  0  0  0
 14 26  1  0  0  0  0
 15 28  2  0  0  0  0
 15 82  1  0  0  0  0
 16 27  1  0  0  0  0
 17 27  1  0  0  0  0
 17 29  2  0  0  0  0
 17 31  1  0  0  0  0
 18 20  2  0  0  0  0
 18 36  1  0  0  0  0
 19 21  2  0  0  0  0
 19 37  1  0  0  0  0
 20 45  1  0  0  0  0
 21 38  1  0  0  0  0
 22 78  1  0  0  0  0
 23 79  1  0  0  0  0
 24 26  2  0  0  0  0
 24 78  1  0  0  0  0
 25 80  1  0  0  0  0
 26 81  1  0  0  0  0
 27 60  2  0  0  0  0
 28 53  1  0  0  0  0
 28 61  1  0  0  0  0
 29 62  1  0  0  0  0
 29 65  1  0  0  0  0
 30 61  2  0  0  0  0
 30 67  1  0  0  0  0
 30 82  1  0  0  0  0
 31 66  1  0  0  0  0
 31 72  2  0  0  0  0
 32 46  1  0  0  0  0
 32 68  1  0  0  0  0
 32 73  2  0  0  0  0
 33 56  1  0  0  0  0
 33 63  1  0  0  0  0
 33 74  2  0  0  0  0
 34 57  1  0  0  0  0
 34 69  1  0  0  0  0
 34 75  2  0  0  0  0
 35 64  1  0  0  0  0
 35 70  1  0  0  0  0
 35 76  2  0  0  0  0
 36 39  1  0  0  0  0
 37 46  1  0  0  0  0
 38 63  1  0  0  0  0
 39 41  1  0  0  0  0
 40 42  1  0  0  0  0
 40 43  1  0  0  0  0
 41 45  1  0  0  0  0
 42 47  1  0  0  0  0
 43 64  1  0  0  0  0
 44 47  1  0  0  0  0
 44 64  1  0  0  0  0
 45 68  1  0  0  0  0
 46 63  1  0  0  0  0
 47 62  1  0  0  0  0
 48 57  1  0  0  0  0
 49 59  1  0  0  0  0
 50 59  1  0  0  0  0
 51 59  1  0  0  0  0
 52 71  1  0  0  0  0
 53 70  1  0  0  0  0
 54 58  1  0  0  0  0
 54 67  1  0  0  0  0
 55 58  1  0  0  0  0
 55 79  1  0  0  0  0
 56 59  1  0  0  0  0
 56 69  1  0  0  0  0
 57 71  1  0  0  0  0
 58 77  1  0  0  0  0
 60 62  1  0  0  0  0
M  CHG  1  71   1
M  ISO  4  35 100  55 101  70 100  79 101
M  END
> <Batch ID>
0191

> <Smiles>
CNC(C)C(=O)NC(C(=O)N1Cc2cc([101O:1][101CH2:1]C(O)CNc3nc(C[100NH:0][100C:0](=O)N4CCCC(n5nc(-c6ccc(Oc7ccc(F)cc7F)cc6)c(C(N)=O)c5N)C4)cs3)ccc2CC1C(=O)NC1CCCc2ccccc21)C(C)(C)C

> <Shape>
0.216

> <Color>
0.068

> <Negative vol penalty>
0.000

$$$$

  -OEChem-04052305243D

 86 94  0     1  0  0  0  0  0999 V2000
  -24.6942  -25.3230   26.7167 C   0  0  0  0  0  0  0  0  0  0  0  0
  -23.9914  -25.6544   25.5628 C   0  0  0  0  0  0  0  0  0  0  0  0
  -31.1874  -18.3130   20.4026 C   0  0  0  0  0  0  0  0  0  0  0  0
  -29.5095  -17.6862   18.7813 C   0  0  0  0  0  0  0  0  0  0  0  0
  -25.2155  -26.3304   27.5275 C   0  0  0  0  0  0  0  0  0  0  0  0
  -23.8085  -26.9934   25.2195 C   0  0  0  0  0  0  0  0  0  0  0  0
  -24.6690  -27.8747   20.3074 C   0  0  0  0  0  0  0  0  0  0  0  0
  -31.6108  -16.9861   20.4775 C   0  0  0  0  0  0  0  0  0  0  0  0
  -29.9330  -16.3593   18.8561 C   0  0  0  0  0  0  0  0  0  0  0  0
  -23.6642  -27.5150   19.4104 C   0  0  0  0  0  0  0  0  0  0  0  0
  -30.3335  -12.7470   18.8879 C   0  0  0  0  0  0  0  0  0  0  0  0
  -29.3541  -11.7582   18.9803 C   0  0  0  0  0  0  0  0  0  0  0  0
  -22.9351  -29.8125   19.3151 C   0  0  0  0  0  0  0  0  0  0  0  0
  -28.5560  -12.7411   21.0380 C   0  0  0  0  0  0  0  0  0  0  0  0
  -30.1367  -18.6631   19.5546 C   0  0  0  0  0  0  0  0  0  0  0  0
  -30.1720  -21.0293   18.6020 C   0  0  0  0  0  0  0  0  0  0  0  0
  -25.0472  -27.6823   27.1889 C   0  0  0  0  0  0  0  0  0  0  0  0
  -24.8078  -29.2064   20.7241 C   0  0  0  0  0  0  0  0  0  0  0  0
  -24.3268  -28.0199   26.0272 C   0  0  0  0  0  0  0  0  0  0  0  0
  -23.9441  -30.1870   20.2155 C   0  0  0  0  0  0  0  0  0  0  0  0
  -30.9836  -16.0092   19.7042 C   0  0  0  0  0  0  0  0  0  0  0  0
  -22.7952  -28.4834   18.9163 C   0  0  0  0  0  0  0  0  0  0  0  0
  -30.4243  -13.7329   19.8705 C   0  0  0  0  0  0  0  0  0  0  0  0
  -28.4654  -11.7552   20.0554 C   0  0  0  0  0  0  0  0  0  0  0  0
  -29.5355  -13.7300   20.9455 C   0  0  0  0  0  0  0  0  0  0  0  0
  -29.6985  -20.0335   19.4772 C   0  0  0  0  0  0  0  0  0  0  0  0
  -20.3343  -22.7931   19.0695 C   0  0  0  0  0  0  0  0  0  0  0  0
  -29.4411  -22.1463   18.9252 C   0  0  0  0  0  0  0  0  0  0  0  0
  -20.6290  -21.9344   18.0313 C   0  0  0  0  0  0  0  0  0  0  0  0
  -22.4089  -22.3264   19.6064 C   0  0  0  0  0  0  0  0  0  0  0  0
  -31.1821  -20.9515   17.5874 C   0  0  0  0  0  0  0  0  0  0  0  0
  -24.6200  -30.7145   23.5160 C   0  0  0  0  0  0  0  0  0  0  0  0
  -25.6133  -33.2589   21.7663 C   0  0  0  0  0  0  0  0  0  0  0  0
  -25.8452  -34.7607   18.7106 C   0  0  0  0  0  0  0  0  0  0  0  0
  -24.0628  -22.9278   21.4089 C   0  0  0  0  0  0  0  0  0  0  0  0
  -25.5880  -28.7371   28.1214 C   0  0  0  0  0  0  0  0  0  0  0  0
  -25.9137  -29.5828   21.6716 C   0  0  0  0  0  0  0  0  0  0  0  0
  -24.0638  -31.6340   20.6157 C   0  0  0  0  0  0  0  0  0  0  0  0
  -25.6728  -30.1238   27.4889 C   0  0  0  0  0  0  0  0  0  0  0  0
  -27.1663  -24.1970   22.6068 C   0  0  0  0  0  0  0  0  0  0  0  0
  -24.3799  -30.4532   26.7496 C   0  0  0  0  0  0  0  0  0  0  0  0
  -28.2110  -23.3681   21.8560 C   0  0  0  0  0  0  0  0  0  0  0  0
  -25.9405  -23.3638   22.9771 C   0  0  0  0  0  0  0  0  0  0  0  0
  -26.3624  -21.8158   21.1077 C   0  0  0  0  0  0  0  0  0  0  0  0
  -24.1288  -29.4605   25.6081 C   0  0  1  0  0  0  0  0  0  0  0  0
  -25.6394  -30.8809   22.4247 C   0  0  1  0  0  0  0  0  0  0  0  0
  -27.5873  -22.6280   20.6565 C   0  0  2  0  0  0  0  0  0  0  0  0
  -26.6754  -36.8534   17.6020 C   0  0  0  0  0  0  0  0  0  0  0  0
  -17.7130  -25.5269   17.2503 C   0  0  0  0  0  0  0  0  0  0  0  0
  -16.8892  -23.4222   20.7318 C   0  0  0  0  0  0  0  0  0  0  0  0
  -23.2048  -34.7862   22.8510 C   0  0  0  0  0  0  0  0  0  0  0  0
  -23.5407  -36.4709   21.0297 C   0  0  0  0  0  0  0  0  0  0  0  0
  -25.3201  -36.1157   22.7416 C   0  0  0  0  0  0  0  0  0  0  0  0
  -27.7429  -33.2488   17.0160 C   0  0  0  0  0  0  0  0  0  0  0  0
  -19.8227  -26.8359   17.7154 C   0  0  0  0  0  0  0  0  0  0  0  0
  -21.2836  -26.8143   18.1514 C   0  0  0  0  0  0  0  0  0  1  0  0
  -19.0118  -23.4984   19.3017 C   0  0  1  0  0  0  0  0  0  0  0  0
  -24.9266  -34.3477   20.9777 C   0  0  1  0  0  0  0  0  0  0  0  0
  -27.0111  -35.4246   18.0003 C   0  0  2  0  0  0  0  0  0  0  0  0
  -19.1438  -25.4658   17.7686 C   0  0  1  0  0  0  0  0  0  0  0  0
  -18.3841  -23.1240   20.6595 C   0  0  1  0  0  0  0  0  0  0  0  0
  -24.2443  -35.4026   21.8938 C   0  0  0  0  0  0  0  0  0  0  0  0
  -28.7411  -20.4787   20.2952 N   0  0  0  0  0  0  0  0  0  0  0  0
  -21.3536  -23.0187   19.9740 N   0  0  0  0  0  0  0  0  0  0  0  0
  -28.6070  -21.7666   19.9353 N   0  0  0  0  0  0  0  0  0  0  0  0
  -25.1571  -31.9511   21.5494 N   0  0  0  0  0  0  0  0  0  0  0  0
  -25.4011  -22.6956   21.7908 N   0  0  0  0  0  0  0  0  0  0  0  0
  -29.4370  -23.4065   18.4412 N   0  0  0  0  0  0  0  0  0  0  0  0
  -19.8215  -21.5420   17.0161 N   0  0  0  0  0  0  0  0  0  0  0  0
  -31.8345  -19.7274   17.3866 N   0  0  0  0  0  0  0  0  0  0  0  0
  -23.6713  -22.2639   20.2468 N   0  0  0  0  0  0  0  0  0  0  0  0
  -24.9653  -29.7766   24.4702 N   0  0  0  0  0  0  0  0  0  0  0  0
  -25.9352  -34.8993   20.0795 N   0  0  0  0  0  0  0  0  0  0  0  0
  -27.3680  -34.6649   16.7689 N   0  3  0  0  0  0  0  0  0  0  0  0
  -19.1021  -24.9761   19.1746 N   0  3  0  0  0  0  0  0  0  0  0  0
  -31.5083  -21.9425   16.8910 O   0  0  0  0  0  0  0  0  0  0  0  0
  -23.5966  -31.3882   23.4946 O   0  0  0  0  0  0  0  0  0  0  0  0
  -26.5260  -33.5571   22.5408 O   0  0  0  0  0  0  0  0  0  0  0  0
  -24.9428  -34.1806   18.1108 O   0  0  0  0  0  0  0  0  0  0  0  0
  -23.3269  -23.6830   22.0494 O   0  0  0  0  0  0  0  0  0  0  0  0
  -19.0409  -23.8260   21.7139 O   0  0  0  0  0  0  0  0  0  0  0  0
  -31.3967  -14.7144   19.7768 O   0  0  0  0  0  0  0  0  0  0  0  0
  -21.8131  -28.1349   18.0412 O   0  0  0  0  0  0  0  0  0  1  0  0
  -27.5239  -10.8065   20.1432 F   0  0  0  0  0  0  0  0  0  0  0  0
  -29.6170  -14.6752   21.8919 F   0  0  0  0  0  0  0  0  0  0  0  0
  -22.2458  -21.3825   18.1825 S   0  0  0  0  0  0  0  0  0  0  0  0
  1  2  1  0  0  0  0
  1  5  2  0  0  0  0
  2  6  2  0  0  0  0
  3  8  2  0  0  0  0
  3 15  1  0  0  0  0
  4  9  1  0  0  0  0
  4 15  2  0  0  0  0
  5 17  1  0  0  0  0
  6 19  1  0  0  0  0
  7 10  2  0  0  0  0
  7 18  1  0  0  0  0
  8 21  1  0  0  0  0
  9 21  2  0  0  0  0
 10 22  1  0  0  0  0
 11 12  2  0  0  0  0
 11 23  1  0  0  0  0
 12 24  1  0  0  0  0
 13 20  1  0  0  0  0
 13 22  2  0  0  0  0
 14 24  2  0  0  0  0
 14 25  1  0  0  0  0
 15 26  1  0  0  0  0
 16 26  1  0  0  0  0
 16 28  2  0  0  0  0
 16 31  1  0  0  0  0
 17 19  2  0  0  0  0
 17 36  1  0  0  0  0
 18 20  2  0  0  0  0
 18 37  1  0  0  0  0
 19 45  1  0  0  0  0
 20 38  1  0  0  0  0
 21 82  1  0  0  0  0
 22 83  1  0  0  0  0
 23 25  2  0  0  0  0
 23 82  1  0  0  0  0
 24 84  1  0  0  0  0
 25 85  1  0  0  0  0
 26 63  2  0  0  0  0
 27 29  2  0  0  0  0
 27 57  1  0  0  0  0
 27 64  1  0  0  0  0
 28 65  1  0  0  0  0
 28 68  1  0  0  0  0
 29 69  1  0  0  0  0
 29 86  1  0  0  0  0
 30 64  2  0  0  0  0
 30 71  1  0  0  0  0
 30 86  1  0  0  0  0
 31 70  1  0  0  0  0
 31 76  2  0  0  0  0
 32 46  1  0  0  0  0
 32 72  1  0  0  0  0
 32 77  2  0  0  0  0
 33 58  1  0  0  0  0
 33 66  1  0  0  0  0
 33 78  2  0  0  0  0
 34 59  1  0  0  0  0
 34 73  1  0  0  0  0
 34 79  2  0  0  0  0
 35 67  1  0  0  0  0
 35 71  1  0  0  0  0
 35 80  2  0  0  0  0
 36 39  1  0  0  0  0
 37 46  1  0  0  0  0
 38 66  1  0  0  0  0
 39 41  1  0  0  0  0
 40 42  1  0  0  0  0
 40 43  1  0  0  0  0
 41 45  1  0  0  0  0
 42 47  1  0  0  0  0
 43 67  1  0  0  0  0
 44 47  1  0  0  0  0
 44 67  1  0  0  0  0
 45 72  1  0  0  0  0
 46 66  1  0  0  0  0
 47 65  1  0  0  0  0
 48 59  1  0  0  0  0
 49 60  1  0  0  0  0
 50 61  1  0  0  0  0
 51 62  1  0  0  0  0
 52 62  1  0  0  0  0
 53 62  1  0  0  0  0
 54 74  1  0  0  0  0
 55 56  1  0  0  0  0
 55 60  1  0  0  0  0
 56 83  1  0  0  0  0
 57 61  1  0  0  0  0
 57 75  1  0  0  0  0
 58 62  1  0  0  0  0
 58 73  1  0  0  0  0
 59 74  1  0  0  0  0
 60 75  1  0  0  0  0
 61 81  1  0  0  0  0
 63 65  1  0  0  0  0
M  CHG  2  74   1  75   1
M  ISO  4  35 100  56 101  71 100  83 101
M  END
> <Batch ID>
0191

> <Smiles>
CNC(C)C(=O)NC(C(=O)N1Cc2cc([101O:1][101CH2:1]CC(C)NC(c3nc([100NH:0][100C:0](=O)N4CCCC(n5nc(-c6ccc(Oc7ccc(F)cc7F)cc6)c(C(N)=O)c5N)C4)sc3N)C(C)O)ccc2CC1C(=O)NC1CCCc2ccccc21)C(C)(C)C

> <Shape>
0.191

> <Color>
0.074

> <Negative vol penalty>
0.000

$$$$

  -OEChem-04052305243D

 81 89  0     1  0  0  0  0  0999 V2000
  -27.7305  -36.0299   20.2944 C   0  0  0  0  0  0  0  0  0  0  0  0
  -28.3888  -34.8722   19.8922 C   0  0  0  0  0  0  0  0  0  0  0  0
  -25.2432   -9.7459   21.7831 C   0  0  0  0  0  0  0  0  0  0  0  0
  -25.2238  -11.2578   23.6674 C   0  0  0  0  0  0  0  0  0  0  0  0
  -26.9653  -36.0262   21.4599 C   0  0  0  0  0  0  0  0  0  0  0  0
  -28.2832  -33.7104   20.6560 C   0  0  0  0  0  0  0  0  0  0  0  0
  -28.1540  -27.9463   18.5909 C   0  0  0  0  0  0  0  0  0  0  0  0
  -25.2877   -8.6587   22.6558 C   0  0  0  0  0  0  0  0  0  0  0  0
  -25.2682  -10.1706   24.5402 C   0  0  0  0  0  0  0  0  0  0  0  0
  -29.1385  -26.9645   18.4879 C   0  0  0  0  0  0  0  0  0  0  0  0
  -23.1225   -6.9305   24.5944 C   0  0  0  0  0  0  0  0  0  0  0  0
  -22.2759   -5.8536   24.3320 C   0  0  0  0  0  0  0  0  0  0  0  0
  -28.4220  -26.0334   20.5947 C   0  0  0  0  0  0  0  0  0  0  0  0
  -24.1922   -4.3961   24.1304 C   0  0  0  0  0  0  0  0  0  0  0  0
  -27.6294  -19.9891   21.9535 C   0  0  0  0  0  0  0  0  0  0  0  0
  -25.2113  -11.0455   22.2889 C   0  0  0  0  0  0  0  0  0  0  0  0
  -24.0177  -12.7985   20.8712 C   0  0  0  0  0  0  0  0  0  0  0  0
  -26.8424  -34.8611   22.2332 C   0  0  0  0  0  0  0  0  0  0  0  0
  -27.3017  -27.9855   19.7038 C   0  0  0  0  0  0  0  0  0  0  0  0
  -27.5167  -33.6914   21.8336 C   0  0  0  0  0  0  0  0  0  0  0  0
  -27.4258  -27.0151   20.7082 C   0  0  0  0  0  0  0  0  0  0  0  0
  -25.3002   -8.8711   24.0343 C   0  0  0  0  0  0  0  0  0  0  0  0
  -29.2745  -26.0096   19.4912 C   0  0  0  0  0  0  0  0  0  0  0  0
  -24.5041   -6.7403   24.6248 C   0  0  0  0  0  0  0  0  0  0  0  0
  -22.8107   -4.5864   24.1000 C   0  0  0  0  0  0  0  0  0  0  0  0
  -25.0389   -5.4731   24.3928 C   0  0  0  0  0  0  0  0  0  0  0  0
  -25.1660  -12.1690   21.3879 C   0  0  0  0  0  0  0  0  0  0  0  0
  -28.8933  -19.6713   21.5024 C   0  0  0  0  0  0  0  0  0  0  0  0
  -24.5069  -13.8025   20.0718 C   0  0  0  0  0  0  0  0  0  0  0  0
  -28.5925  -21.5216   20.3640 C   0  0  0  0  0  0  0  0  0  0  0  0
  -22.6327  -12.5022   21.0940 C   0  0  0  0  0  0  0  0  0  0  0  0
  -26.7349  -30.0850   22.0221 C   0  0  0  0  0  0  0  0  0  0  0  0
  -24.3828  -27.9941   22.8083 C   0  0  0  0  0  0  0  0  0  0  0  0
  -23.1846  -24.8010   22.6853 C   0  0  0  0  0  0  0  0  0  0  0  0
  -29.6594  -16.8525   20.0499 C   0  0  0  0  0  0  0  0  0  0  0  0
  -26.0425  -34.9185   23.5105 C   0  0  0  0  0  0  0  0  0  0  0  0
  -26.2273  -29.0349   19.7870 C   0  0  0  0  0  0  0  0  0  0  0  0
  -26.5227  -27.0013   21.9135 C   0  0  0  0  0  0  0  0  0  0  0  0
  -25.6775  -33.5431   24.0630 C   0  0  0  0  0  0  0  0  0  0  0  0
  -28.2958  -14.9341   17.3784 C   0  0  0  0  0  0  0  0  0  0  0  0
  -26.8940  -32.6229   24.0509 C   0  0  0  0  0  0  0  0  0  0  0  0
  -27.2354  -14.0647   18.0564 C   0  0  0  0  0  0  0  0  0  0  0  0
  -29.5180  -15.1334   18.2720 C   0  0  0  0  0  0  0  0  0  0  0  0
  -28.1609  -14.7815   20.2988 C   0  0  0  0  0  0  0  0  0  0  0  0
  -27.4063  -32.4045   22.6222 C   0  0  1  0  0  0  0  0  0  0  0  0
  -25.7498  -29.2893   21.2135 C   0  0  1  0  0  0  0  0  0  0  0  0
  -26.8855  -14.5985   19.4585 C   0  0  2  0  0  0  0  0  0  0  0  0
  -21.2558  -23.3899   23.4505 C   0  0  0  0  0  0  0  0  0  0  0  0
  -31.4462  -24.3843   17.4550 C   0  0  0  0  0  0  0  0  0  0  0  0
  -25.5414  -27.9453   25.6305 C   0  0  0  0  0  0  0  0  0  0  0  0
  -24.2150  -25.8666   26.0641 C   0  0  0  0  0  0  0  0  0  0  0  0
  -23.0433  -28.0029   25.5293 C   0  0  0  0  0  0  0  0  0  0  0  0
  -22.4059  -24.1519   19.9047 C   0  0  0  0  0  0  0  0  0  0  0  0
  -29.6841  -18.4936   21.9115 C   0  0  0  0  0  0  0  0  0  0  0  0
  -30.0416  -22.7357   18.7356 C   0  0  0  0  0  0  0  0  0  0  0  0
  -24.2862  -26.7792   23.6991 C   0  0  1  0  0  0  0  0  0  0  0  0
  -21.8147  -24.2522   22.3295 C   0  0  2  0  0  0  0  0  0  0  0  0
  -30.1728  -24.1818   18.2632 C   0  0  1  0  0  0  0  0  0  1  0  0
  -24.2899  -27.1497   25.2091 C   0  0  0  0  0  0  0  0  0  0  0  0
  -26.2993  -12.7262   20.9531 N   0  0  0  0  0  0  0  0  0  0  0  0
  -29.4470  -20.5487   20.5906 N   0  0  0  0  0  0  0  0  0  0  0  0
  -25.8655  -13.7165   20.1547 N   0  0  0  0  0  0  0  0  0  0  0  0
  -25.4918  -28.0516   21.9523 N   0  0  0  0  0  0  0  0  0  0  0  0
  -29.1175  -15.6425   19.5859 N   0  0  0  0  0  0  0  0  0  0  0  0
  -23.9031  -14.7417   19.3129 N   0  0  0  0  0  0  0  0  0  0  0  0
  -22.3057  -11.4371   21.9443 N   0  0  0  0  0  0  0  0  0  0  0  0
  -28.8241  -22.5774   19.4982 N   0  0  0  0  0  0  0  0  0  0  0  0
  -26.5680  -31.4533   21.9245 N   0  0  0  0  0  0  0  0  0  0  0  0
  -23.0999  -26.0487   23.2659 N   0  0  0  0  0  0  0  0  0  0  0  0
  -29.2219  -17.2664   21.3021 N   0  0  0  0  0  0  0  0  0  0  0  0
  -21.8939  -23.4230   21.0937 N   0  3  0  0  0  0  0  0  0  0  0  0
  -21.7125  -13.1521   20.5422 O   0  0  0  0  0  0  0  0  0  0  0  0
  -27.5828  -29.5009   22.6867 O   0  0  0  0  0  0  0  0  0  0  0  0
  -23.5029  -28.8568   22.8646 O   0  0  0  0  0  0  0  0  0  0  0  0
  -24.2255  -24.1829   22.4729 O   0  0  0  0  0  0  0  0  0  0  0  0
  -30.4687  -17.5175   19.3944 O   0  0  0  0  0  0  0  0  0  0  0  0
  -25.3433   -7.8104   24.8862 O   0  0  0  0  0  0  0  0  0  0  0  0
  -30.2351  -25.0507   19.3934 O   0  0  0  0  0  0  0  0  0  1  0  0
  -21.9974   -3.5520   23.8496 F   0  0  0  0  0  0  0  0  0  0  0  0
  -26.3652   -5.2840   24.4218 F   0  0  0  0  0  0  0  0  0  0  0  0
  -27.1037  -21.4446   21.2141 S   0  0  0  0  0  0  0  0  0  0  0  0
  1  2  1  0  0  0  0
  1  5  2  0  0  0  0
  2  6  2  0  0  0  0
  3  8  2  0  0  0  0
  3 16  1  0  0  0  0
  4  9  1  0  0  0  0
  4 16  2  0  0  0  0
  5 18  1  0  0  0  0
  6 20  1  0  0  0  0
  7 10  2  0  0  0  0
  7 19  1  0  0  0  0
  8 22  1  0  0  0  0
  9 22  2  0  0  0  0
 10 23  1  0  0  0  0
 11 12  2  0  0  0  0
 11 24  1  0  0  0  0
 12 25  1  0  0  0  0
 13 21  1  0  0  0  0
 13 23  2  0  0  0  0
 14 25  2  0  0  0  0
 14 26  1  0  0  0  0
 15 28  2  0  0  0  0
 15 81  1  0  0  0  0
 16 27  1  0  0  0  0
 17 27  1  0  0  0  0
 17 29  2  0  0  0  0
 17 31  1  0  0  0  0
 18 20  2  0  0  0  0
 18 36  1  0  0  0  0
 19 21  2  0  0  0  0
 19 37  1  0  0  0  0
 20 45  1  0  0  0  0
 21 38  1  0  0  0  0
 22 77  1  0  0  0  0
 23 78  1  0  0  0  0
 24 26  2  0  0  0  0
 24 77  1  0  0  0  0
 25 79  1  0  0  0  0
 26 80  1  0  0  0  0
 27 60  2  0  0  0  0
 28 54  1  0  0  0  0
 28 61  1  0  0  0  0
 29 62  1  0  0  0  0
 29 65  1  0  0  0  0
 30 61  2  0  0  0  0
 30 67  1  0  0  0  0
 30 81  1  0  0  0  0
 31 66  1  0  0  0  0
 31 72  2  0  0  0  0
 32 46  1  0  0  0  0
 32 68  1  0  0  0  0
 32 73  2  0  0  0  0
 33 56  1  0  0  0  0
 33 63  1  0  0  0  0
 33 74  2  0  0  0  0
 34 57  1  0  0  0  0
 34 69  1  0  0  0  0
 34 75  2  0  0  0  0
 35 64  1  0  0  0  0
 35 70  1  0  0  0  0
 35 76  2  0  0  0  0
 36 39  1  0  0  0  0
 37 46  1  0  0  0  0
 38 63  1  0  0  0  0
 39 41  1  0  0  0  0
 40 42  1  0  0  0  0
 40 43  1  0  0  0  0
 41 45  1  0  0  0  0
 42 47  1  0  0  0  0
 43 64  1  0  0  0  0
 44 47  1  0  0  0  0
 44 64  1  0  0  0  0
 45 68  1  0  0  0  0
 46 63  1  0  0  0  0
 47 62  1  0  0  0  0
 48 57  1  0  0  0  0
 49 58  1  0  0  0  0
 50 59  1  0  0  0  0
 51 59  1  0  0  0  0
 52 59  1  0  0  0  0
 53 71  1  0  0  0  0
 54 70  1  0  0  0  0
 55 58  1  0  0  0  0
 55 67  1  0  0  0  0
 56 59  1  0  0  0  0
 56 69  1  0  0  0  0
 57 71  1  0  0  0  0
 58 78  1  0  0  0  0
 60 62  1  0  0  0  0
M  CHG  1  71   1
M  ISO  4  35 100  58 101  70 100  78 101
M  END
> <Batch ID>
0191

> <Smiles>
CNC(C)C(=O)NC(C(=O)N1Cc2cc([101O:1][101CH:1](C)CNc3nc(C[100NH:0][100C:0](=O)N4CCCC(n5nc(-c6ccc(Oc7ccc(F)cc7F)cc6)c(C(N)=O)c5N)C4)cs3)ccc2CC1C(=O)NC1CCCc2ccccc21)C(C)(C)C

> <Shape>
0.249

> <Color>
0.092

> <Negative vol penalty>
0.000

$$$$

  -OEChem-04052305243D

 85 93  0     1  0  0  0  0  0999 V2000
  -25.9084  -30.8389   20.2561 C   0  0  0  0  0  0  0  0  0  0  0  0
  -25.7215  -29.4669   20.1210 C   0  0  0  0  0  0  0  0  0  0  0  0
  -30.6645  -22.1124   21.2897 C   0  0  0  0  0  0  0  0  0  0  0  0
  -28.2748  -22.4311   21.1327 C   0  0  0  0  0  0  0  0  0  0  0  0
  -25.1626  -31.5539   21.1923 C   0  0  0  0  0  0  0  0  0  0  0  0
  -24.7895  -28.8090   20.9228 C   0  0  0  0  0  0  0  0  0  0  0  0
  -21.2958  -24.0329   19.3453 C   0  0  0  0  0  0  0  0  0  0  0  0
  -30.8692  -23.3056   20.5968 C   0  0  0  0  0  0  0  0  0  0  0  0
  -28.4794  -23.6243   20.4398 C   0  0  0  0  0  0  0  0  0  0  0  0
  -21.4254  -22.6624   19.5661 C   0  0  0  0  0  0  0  0  0  0  0  0
  -29.2650  -24.5737   17.2914 C   0  0  0  0  0  0  0  0  0  0  0  0
  -28.4888  -24.8050   16.1559 C   0  0  0  0  0  0  0  0  0  0  0  0
  -19.9888  -22.8437   21.4956 C   0  0  0  0  0  0  0  0  0  0  0  0
  -27.5908  -26.8023   17.1766 C   0  0  0  0  0  0  0  0  0  0  0  0
  -23.0228  -15.8192   20.3924 C   0  0  0  0  0  0  0  0  0  0  0  0
  -29.3673  -21.6751   21.5576 C   0  0  0  0  0  0  0  0  0  0  0  0
  -29.0414  -20.2767   23.6661 C   0  0  0  0  0  0  0  0  0  0  0  0
  -24.2141  -30.9061   21.9992 C   0  0  0  0  0  0  0  0  0  0  0  0
  -20.5193  -24.8223   20.2057 C   0  0  0  0  0  0  0  0  0  0  0  0
  -24.0313  -29.5159   21.8716 C   0  0  0  0  0  0  0  0  0  0  0  0
  -19.8489  -24.2235   21.2819 C   0  0  0  0  0  0  0  0  0  0  0  0
  -29.7767  -24.0615   20.1719 C   0  0  0  0  0  0  0  0  0  0  0  0
  -20.7742  -22.0681   20.6431 C   0  0  0  0  0  0  0  0  0  0  0  0
  -29.2041  -25.4566   18.3696 C   0  0  0  0  0  0  0  0  0  0  0  0
  -27.6517  -25.9193   16.0984 C   0  0  0  0  0  0  0  0  0  0  0  0
  -28.3670  -26.5709   18.3122 C   0  0  0  0  0  0  0  0  0  0  0  0
  -29.1552  -20.4424   22.2728 C   0  0  0  0  0  0  0  0  0  0  0  0
  -28.8494  -18.9275   23.8369 C   0  0  0  0  0  0  0  0  0  0  0  0
  -24.1354  -15.0356   20.2698 C   0  0  0  0  0  0  0  0  0  0  0  0
  -22.3622  -13.7717   19.8710 C   0  0  0  0  0  0  0  0  0  0  0  0
  -29.1035  -21.2550   24.7124 C   0  0  0  0  0  0  0  0  0  0  0  0
  -21.1057  -27.2750   22.1406 C   0  0  0  0  0  0  0  0  0  0  0  0
  -17.8796  -27.2757   22.4796 C   0  0  0  0  0  0  0  0  0  0  0  0
  -14.9485  -25.5358   22.3124 C   0  0  0  0  0  0  0  0  0  0  0  0
  -26.6234  -14.6431   20.3164 C   0  0  0  0  0  0  0  0  0  0  0  0
  -23.4654  -31.7133   23.0300 C   0  0  0  0  0  0  0  0  0  0  0  0
  -20.3680  -26.2946   19.9381 C   0  0  0  0  0  0  0  0  0  0  0  0
  -18.9869  -25.0233   22.2231 C   0  0  0  0  0  0  0  0  0  0  0  0
  -22.2308  -31.0037   23.5802 C   0  0  0  0  0  0  0  0  0  0  0  0
  -29.8600  -14.7135   21.7984 C   0  0  0  0  0  0  0  0  0  0  0  0
  -22.5619  -29.5593   23.9416 C   0  0  0  0  0  0  0  0  0  0  0  0
  -30.0338  -16.1743   22.2205 C   0  0  0  0  0  0  0  0  0  0  0  0
  -29.1026  -14.5912   20.4774 C   0  0  0  0  0  0  0  0  0  0  0  0
  -27.9882  -16.7556   20.8550 C   0  0  0  0  0  0  0  0  0  0  0  0
  -23.0121  -28.7707   22.7058 C   0  0  1  0  0  0  0  0  0  0  0  0
  -19.9675  -27.0891   21.1775 C   0  0  1  0  0  0  0  0  0  0  0  0
  -28.6887  -16.9269   22.2127 C   0  0  2  0  0  0  0  0  0  0  0  0
  -21.5196  -12.5946   19.5460 C   0  0  0  0  0  0  0  0  0  0  0  0
  -19.8079  -16.0503   16.3021 C   0  0  0  0  0  0  0  0  0  0  0  0
  -12.4802  -25.7946   22.6833 C   0  0  0  0  0  0  0  0  0  0  0  0
  -18.3219  -27.1486   25.4959 C   0  0  0  0  0  0  0  0  0  0  0  0
  -15.9283  -26.4593   25.7477 C   0  0  0  0  0  0  0  0  0  0  0  0
  -16.4871  -28.6872   24.7746 C   0  0  0  0  0  0  0  0  0  0  0  0
  -14.3403  -24.9080   19.4849 C   0  0  0  0  0  0  0  0  0  0  0  0
  -20.2761  -15.3889   17.5913 C   0  0  0  0  0  0  0  0  0  0  0  0
  -20.7035  -17.5999   18.7776 C   0  0  0  0  0  0  0  0  0  0  0  0
  -20.4975  -15.4591   20.1643 C   0  0  0  0  0  0  0  0  0  0  0  0
  -21.1048  -19.9024   19.7177 C   0  0  0  0  0  0  0  0  0  1  0  0
  -16.9023  -26.5994   23.4105 C   0  0  1  0  0  0  0  0  0  0  0  0
  -13.6135  -25.8706   21.6721 C   0  0  2  0  0  0  0  0  0  0  0  0
  -20.0408  -16.2036   18.8879 C   0  0  2  0  0  0  0  0  0  0  0  0
  -20.4809  -18.5329   19.9776 C   0  0  1  0  0  0  0  0  0  0  0  0
  -16.9276  -27.2086   24.8407 C   0  0  0  0  0  0  0  0  0  0  0  0
  -29.0450  -19.2904   21.6058 N   0  0  0  0  0  0  0  0  0  0  0  0
  -21.9402  -15.0115   20.1399 N   0  0  0  0  0  0  0  0  0  0  0  0
  -28.8599  -18.3880   22.5843 N   0  0  0  0  0  0  0  0  0  0  0  0
  -23.6970  -13.7740   19.9471 N   0  3  0  0  0  0  0  0  0  0  0  0
  -18.8754  -26.4604   21.9233 N   0  0  0  0  0  0  0  0  0  0  0  0
  -27.8370  -15.3251   20.5456 N   0  0  0  0  0  0  0  0  0  0  0  0
  -28.6744  -18.1618   24.9349 N   0  0  0  0  0  0  0  0  0  0  0  0
  -29.3062  -22.5967   24.3615 N   0  0  0  0  0  0  0  0  0  0  0  0
  -25.4836  -15.4369   20.4402 N   0  0  0  0  0  0  0  0  0  0  0  0
  -21.8694  -28.4009   21.8984 N   0  0  0  0  0  0  0  0  0  0  0  0
  -15.6007  -26.6671   22.7551 N   0  0  0  0  0  0  0  0  0  0  0  0
  -13.3182  -24.9201   20.5629 N   0  3  0  0  0  0  0  0  0  0  0  0
  -28.9992  -20.9463   25.9238 O   0  0  0  0  0  0  0  0  0  0  0  0
  -21.2774  -26.4583   23.0379 O   0  0  0  0  0  0  0  0  0  0  0  0
  -17.7595  -28.4815   22.2488 O   0  0  0  0  0  0  0  0  0  0  0  0
  -15.3690  -24.3853   22.4135 O   0  0  0  0  0  0  0  0  0  0  0  0
  -26.5955  -13.4370   20.0581 O   0  0  0  0  0  0  0  0  0  0  0  0
  -19.0847  -18.7282   20.1950 O   0  0  0  0  0  0  0  0  0  0  0  0
  -29.9760  -25.2260   19.4960 O   0  0  0  0  0  0  0  0  0  0  0  0
  -20.8995  -20.7308   20.8614 O   0  0  0  0  0  0  0  0  0  1  0  0
  -26.9075  -26.1422   15.0072 F   0  0  0  0  0  0  0  0  0  0  0  0
  -28.3052  -27.4233   19.3444 F   0  0  0  0  0  0  0  0  0  0  0  0
  1  2  1  0  0  0  0
  1  5  2  0  0  0  0
  2  6  2  0  0  0  0
  3  8  2  0  0  0  0
  3 16  1  0  0  0  0
  4  9  1  0  0  0  0
  4 16  2  0  0  0  0
  5 18  1  0  0  0  0
  6 20  1  0  0  0  0
  7 10  2  0  0  0  0
  7 19  1  0  0  0  0
  8 22  1  0  0  0  0
  9 22  2  0  0  0  0
 10 23  1  0  0  0  0
 11 12  2  0  0  0  0
 11 24  1  0  0  0  0
 12 25  1  0  0  0  0
 13 21  1  0  0  0  0
 13 23  2  0  0  0  0
 14 25  2  0  0  0  0
 14 26  1  0  0  0  0
 15 29  2  0  0  0  0
 15 65  1  0  0  0  0
 16 27  1  0  0  0  0
 17 27  1  0  0  0  0
 17 28  2  0  0  0  0
 17 31  1  0  0  0  0
 18 20  2  0  0  0  0
 18 36  1  0  0  0  0
 19 21  2  0  0  0  0
 19 37  1  0  0  0  0
 20 45  1  0  0  0  0
 21 38  1  0  0  0  0
 22 82  1  0  0  0  0
 23 83  1  0  0  0  0
 24 26  2  0  0  0  0
 24 82  1  0  0  0  0
 25 84  1  0  0  0  0
 26 85  1  0  0  0  0
 27 64  2  0  0  0  0
 28 66  1  0  0  0  0
 28 70  1  0  0  0  0
 29 67  1  0  0  0  0
 29 72  1  0  0  0  0
 30 48  1  0  0  0  0
 30 65  1  0  0  0  0
 30 67  2  0  0  0  0
 31 71  1  0  0  0  0
 31 76  2  0  0  0  0
 32 46  1  0  0  0  0
 32 73  1  0  0  0  0
 32 77  2  0  0  0  0
 33 59  1  0  0  0  0
 33 68  1  0  0  0  0
 33 78  2  0  0  0  0
 34 60  1  0  0  0  0
 34 74  1  0  0  0  0
 34 79  2  0  0  0  0
 35 69  1  0  0  0  0
 35 72  1  0  0  0  0
 35 80  2  0  0  0  0
 36 39  1  0  0  0  0
 37 46  1  0  0  0  0
 38 68  1  0  0  0  0
 39 41  1  0  0  0  0
 40 42  1  0  0  0  0
 40 43  1  0  0  0  0
 41 45  1  0  0  0  0
 42 47  1  0  0  0  0
 43 69  1  0  0  0  0
 44 47  1  0  0  0  0
 44 69  1  0  0  0  0
 45 73  1  0  0  0  0
 46 68  1  0  0  0  0
 47 66  1  0  0  0  0
 49 55  1  0  0  0  0
 50 60  1  0  0  0  0
 51 63  1  0  0  0  0
 52 63  1  0  0  0  0
 53 63  1  0  0  0  0
 54 75  1  0  0  0  0
 55 61  1  0  0  0  0
 56 61  1  0  0  0  0
 56 62  1  0  0  0  0
 57 61  1  0  0  0  0
 57 65  1  0  0  0  0
 58 62  1  0  0  0  0
 58 83  1  0  0  0  0
 59 63  1  0  0  0  0
 59 74  1  0  0  0  0
 60 75  1  0  0  0  0
 62 81  1  0  0  0  0
 64 66  1  0  0  0  0
M  CHG  2  67   1  75   1
M  ISO  4  35 100  58 101  72 100  83 101
M  END
> <Batch ID>
0191

> <Smiles>
CCC(CC(O)[101CH2:1][101O:1]c1ccc2c(c1)CN(C(=O)C(NC(=O)C(C)NC)C(C)(C)C)C(C(=O)NC1CCCc3ccccc31)C2)Cn1cc([100NH:0][100C:0](=O)N2CCCC(n3nc(-c4ccc(Oc5ccc(F)cc5F)cc4)c(C(N)=O)c3N)C2)nc1C

> <Shape>
0.214

> <Color>
0.048

> <Negative vol penalty>
0.000

$$$$

  -OEChem-04052305243D

 86 94  0     1  0  0  0  0  0999 V2000
  -30.0620  -33.9988   15.9382 C   0  0  0  0  0  0  0  0  0  0  0  0
  -30.2558  -32.6530   16.2325 C   0  0  0  0  0  0  0  0  0  0  0  0
  -22.9550  -10.0385   20.1139 C   0  0  0  0  0  0  0  0  0  0  0  0
  -24.2449   -9.2257   21.9881 C   0  0  0  0  0  0  0  0  0  0  0  0
  -29.3843  -34.8179   16.8403 C   0  0  0  0  0  0  0  0  0  0  0  0
  -29.7730  -32.1257   17.4297 C   0  0  0  0  0  0  0  0  0  0  0  0
  -27.5500  -26.4923   18.3400 C   0  0  0  0  0  0  0  0  0  0  0  0
  -29.5892  -18.1516   22.9026 C   0  0  0  0  0  0  0  0  0  0  0  0
  -22.2503   -8.8353   20.0771 C   0  0  0  0  0  0  0  0  0  0  0  0
  -23.5401   -8.0225   21.9514 C   0  0  0  0  0  0  0  0  0  0  0  0
  -28.1210  -25.3311   18.8590 C   0  0  0  0  0  0  0  0  0  0  0  0
  -20.5245   -6.8725   22.9535 C   0  0  0  0  0  0  0  0  0  0  0  0
  -20.0711   -6.3516   24.1653 C   0  0  0  0  0  0  0  0  0  0  0  0
  -29.1949  -19.4403   22.5603 C   0  0  0  0  0  0  0  0  0  0  0  0
  -27.1934  -25.8502   21.0245 C   0  0  0  0  0  0  0  0  0  0  0  0
  -21.3793   -4.3542   23.7961 C   0  0  0  0  0  0  0  0  0  0  0  0
  -31.4709  -18.4028   21.4698 C   0  0  0  0  0  0  0  0  0  0  0  0
  -23.9524  -10.2337   21.0693 C   0  0  0  0  0  0  0  0  0  0  0  0
  -24.3503  -12.6336   21.8373 C   0  0  0  0  0  0  0  0  0  0  0  0
  -28.8845  -34.2982   18.0447 C   0  0  0  0  0  0  0  0  0  0  0  0
  -26.8043  -27.3482   19.1632 C   0  0  0  0  0  0  0  0  0  0  0  0
  -29.0892  -32.9389   18.3493 C   0  0  0  0  0  0  0  0  0  0  0  0
  -26.6118  -27.0203   20.5129 C   0  0  0  0  0  0  0  0  0  0  0  0
  -30.7477  -17.6156   22.3513 C   0  0  0  0  0  0  0  0  0  0  0  0
  -22.5428   -7.8273   20.9958 C   0  0  0  0  0  0  0  0  0  0  0  0
  -27.9452  -25.0114   20.2022 C   0  0  0  0  0  0  0  0  0  0  0  0
  -21.4053   -6.1343   22.1629 C   0  0  0  0  0  0  0  0  0  0  0  0
  -20.4985   -5.0924   24.5867 C   0  0  0  0  0  0  0  0  0  0  0  0
  -21.8327   -4.8752   22.5842 C   0  0  0  0  0  0  0  0  0  0  0  0
  -24.6811  -11.4761   21.1075 C   0  0  0  0  0  0  0  0  0  0  0  0
  -29.9877  -20.1459   21.6695 C   0  0  0  0  0  0  0  0  0  0  0  0
  -25.3502  -13.5261   21.5372 C   0  0  0  0  0  0  0  0  0  0  0  0
  -23.2386  -12.8799   22.7086 C   0  0  0  0  0  0  0  0  0  0  0  0
  -27.0926  -30.3712   20.1024 C   0  0  0  0  0  0  0  0  0  0  0  0
  -24.1821  -29.8287   21.4279 C   0  0  0  0  0  0  0  0  0  0  0  0
  -21.9314  -27.5752   22.6538 C   0  0  0  0  0  0  0  0  0  0  0  0
  -30.7522  -14.7128   20.7918 C   0  0  0  0  0  0  0  0  0  0  0  0
  -28.1997  -35.2331   19.0100 C   0  0  0  0  0  0  0  0  0  0  0  0
  -26.1724  -28.5831   18.5818 C   0  0  0  0  0  0  0  0  0  0  0  0
  -25.8029  -27.8953   21.4340 C   0  0  0  0  0  0  0  0  0  0  0  0
  -27.3918  -34.5127   20.0864 C   0  0  0  0  0  0  0  0  0  0  0  0
  -28.9838  -13.3404   18.0231 C   0  0  0  0  0  0  0  0  0  0  0  0
  -28.2045  -33.3714   20.6895 C   0  0  0  0  0  0  0  0  0  0  0  0
  -27.6830  -12.8232   18.6399 C   0  0  0  0  0  0  0  0  0  0  0  0
  -30.1709  -13.1455   18.9636 C   0  0  0  0  0  0  0  0  0  0  0  0
  -28.6884  -13.1905   20.9318 C   0  0  0  0  0  0  0  0  0  0  0  0
  -28.5586  -32.3244   19.6264 C   0  0  1  0  0  0  0  0  0  0  0  0
  -25.8635  -29.6468   19.6309 C   0  0  1  0  0  0  0  0  0  0  0  0
  -27.4532  -13.4161   20.0431 C   0  0  2  0  0  0  0  0  0  0  0  0
  -30.7160  -24.4966   24.4621 C   0  0  0  0  0  0  0  0  0  0  0  0
  -19.6557  -27.4350   23.7021 C   0  0  0  0  0  0  0  0  0  0  0  0
  -32.0888  -24.4487   21.7673 C   0  0  0  0  0  0  0  0  0  0  0  0
  -30.0298  -21.8153   18.9978 C   0  0  0  0  0  0  0  0  0  0  0  0
  -25.3432  -30.8092   24.0737 C   0  0  0  0  0  0  0  0  0  0  0  0
  -23.3843  -29.7719   25.2378 C   0  0  0  0  0  0  0  0  0  0  0  0
  -23.0239  -31.6110   23.5913 C   0  0  0  0  0  0  0  0  0  0  0  0
  -20.8808  -25.9292   20.4299 C   0  0  0  0  0  0  0  0  0  0  0  0
  -31.1953  -16.2399   22.6972 C   0  0  0  0  0  0  0  0  0  0  0  0
  -30.1104  -23.8399   23.2290 C   0  0  0  0  0  0  0  0  0  0  0  0
  -23.6932  -29.3184   22.7619 C   0  0  1  0  0  0  0  0  0  0  0  0
  -20.4448  -27.3978   22.4026 C   0  0  2  0  0  0  0  0  0  0  0  0
  -30.5561  -24.4405   21.8802 C   0  0  2  0  0  0  0  0  0  0  0  0
  -30.3083  -22.2845   20.4249 C   0  0  1  0  0  0  0  0  0  0  0  0
  -29.9224  -23.7634   20.6370 C   0  0  1  0  0  0  0  0  0  1  0  0
  -23.8781  -30.3619   23.8995 C   0  0  0  0  0  0  0  0  0  0  0  0
  -31.1195  -19.6586   21.1134 N   0  0  0  0  0  0  0  0  0  0  0  0
  -25.8033  -11.6176   20.3971 N   0  0  0  0  0  0  0  0  0  0  0  0
  -26.1864  -12.8745   20.6791 N   0  0  0  0  0  0  0  0  0  0  0  0
  -25.2106  -29.0951   20.8199 N   0  0  0  0  0  0  0  0  0  0  0  0
  -29.8893  -13.7316   20.2763 N   0  0  0  0  0  0  0  0  0  0  0  0
  -25.5869  -14.7969   21.9263 N   0  0  0  0  0  0  0  0  0  0  0  0
  -22.3042  -11.8541   22.9059 N   0  0  0  0  0  0  0  0  0  0  0  0
  -29.5827  -21.4262   21.3395 N   0  0  0  0  0  0  0  0  0  0  0  0
  -27.4157  -31.4819   19.3465 N   0  0  0  0  0  0  0  0  0  0  0  0
  -22.3117  -28.8970   22.5563 N   0  0  0  0  0  0  0  0  0  0  0  0
  -30.4091  -15.2205   22.0389 N   0  0  0  0  0  0  0  0  0  0  0  0
  -20.1849  -26.0925   21.7322 N   0  3  0  0  0  0  0  0  0  0  0  0
  -23.0698  -13.9828   23.2819 O   0  0  0  0  0  0  0  0  0  0  0  0
  -27.7018  -29.9542   21.0805 O   0  0  0  0  0  0  0  0  0  0  0  0
  -23.6653  -30.8369   20.9399 O   0  0  0  0  0  0  0  0  0  0  0  0
  -22.6797  -26.6356   22.9143 O   0  0  0  0  0  0  0  0  0  0  0  0
  -31.7512  -15.1110   20.1831 O   0  0  0  0  0  0  0  0  0  0  0  0
  -21.8552   -6.6533   20.9604 O   0  0  0  0  0  0  0  0  0  0  0  0
  -28.5020  -23.8790   20.7115 O   0  0  0  0  0  0  0  0  0  1  0  0
  -20.0642   -4.5929   25.7511 F   0  0  0  0  0  0  0  0  0  0  0  0
  -22.6797   -4.1618   21.8296 F   0  0  0  0  0  0  0  0  0  0  0  0
  1  2  1  0  0  0  0
  1  5  2  0  0  0  0
  2  6  2  0  0  0  0
  3  9  2  0  0  0  0
  3 18  1  0  0  0  0
  4 10  1  0  0  0  0
  4 18  2  0  0  0  0
  5 20  1  0  0  0  0
  6 22  1  0  0  0  0
  7 11  2  0  0  0  0
  7 21  1  0  0  0  0
  8 14  2  0  0  0  0
  8 24  1  0  0  0  0
  9 25  1  0  0  0  0
 10 25  2  0  0  0  0
 11 26  1  0  0  0  0
 12 13  2  0  0  0  0
 12 27  1  0  0  0  0
 13 28  1  0  0  0  0
 14 31  1  0  0  0  0
 15 23  1  0  0  0  0
 15 26  2  0  0  0  0
 16 28  2  0  0  0  0
 16 29  1  0  0  0  0
 17 24  2  0  0  0  0
 17 66  1  0  0  0  0
 18 30  1  0  0  0  0
 19 30  1  0  0  0  0
 19 32  2  0  0  0  0
 19 33  1  0  0  0  0
 20 22  2  0  0  0  0
 20 38  1  0  0  0  0
 21 23  2  0  0  0  0
 21 39  1  0  0  0  0
 22 47  1  0  0  0  0
 23 40  1  0  0  0  0
 24 58  1  0  0  0  0
 25 83  1  0  0  0  0
 26 84  1  0  0  0  0
 27 29  2  0  0  0  0
 27 83  1  0  0  0  0
 28 85  1  0  0  0  0
 29 86  1  0  0  0  0
 30 67  2  0  0  0  0
 31 66  2  0  0  0  0
 31 73  1  0  0  0  0
 32 68  1  0  0  0  0
 32 71  1  0  0  0  0
 33 72  1  0  0  0  0
 33 78  2  0  0  0  0
 34 48  1  0  0  0  0
 34 74  1  0  0  0  0
 34 79  2  0  0  0  0
 35 60  1  0  0  0  0
 35 69  1  0  0  0  0
 35 80  2  0  0  0  0
 36 61  1  0  0  0  0
 36 75  1  0  0  0  0
 36 81  2  0  0  0  0
 37 70  1  0  0  0  0
 37 76  1  0  0  0  0
 37 82  2  0  0  0  0
 38 41  1  0  0  0  0
 39 48  1  0  0  0  0
 40 69  1  0  0  0  0
 41 43  1  0  0  0  0
 42 44  1  0  0  0  0
 42 45  1  0  0  0  0
 43 47  1  0  0  0  0
 44 49  1  0  0  0  0
 45 70  1  0  0  0  0
 46 49  1  0  0  0  0
 46 70  1  0  0  0  0
 47 74  1  0  0  0  0
 48 69  1  0  0  0  0
 49 68  1  0  0  0  0
 50 59  1  0  0  0  0
 51 61  1  0  0  0  0
 52 62  1  0  0  0  0
 53 63  1  0  0  0  0
 54 65  1  0  0  0  0
 55 65  1  0  0  0  0
 56 65  1  0  0  0  0
 57 77  1  0  0  0  0
 58 76  1  0  0  0  0
 59 62  1  0  0  0  0
 60 65  1  0  0  0  0
 60 75  1  0  0  0  0
 61 77  1  0  0  0  0
 62 64  1  0  0  0  0
 63 64  1  0  0  0  0
 63 73  1  0  0  0  0
 64 84  1  0  0  0  0
 67 68  1  0  0  0  0
M  CHG  1  77   1
M  ISO  4  37 100  64 101  76 100  84 101
M  END
> <Batch ID>
0191

> <Smiles>
CCC(C)[101CH:1](C(C)Nc1ccc(C[100NH:0][100C:0](=O)N2CCCC(n3nc(-c4ccc(Oc5ccc(F)cc5F)cc4)c(C(N)=O)c3N)C2)cn1)[101O:1]c1ccc2c(c1)CN(C(=O)C(NC(=O)C(C)NC)C(C)(C)C)C(C(=O)NC1CCCc3ccccc31)C2

> <Shape>
0.328

> <Color>
0.140

> <Negative vol penalty>
0.000

$$$$

  -OEChem-04052305243D

 88 96  0     1  0  0  0  0  0999 V2000
  -26.5494  -35.0931   23.4978 C   0  0  0  0  0  0  0  0  0  0  0  0
  -26.6858  -34.0428   22.5958 C   0  0  0  0  0  0  0  0  0  0  0  0
  -30.7465  -18.1483   20.8321 C   0  0  0  0  0  0  0  0  0  0  0  0
  -29.4945  -17.5576   18.8520 C   0  0  0  0  0  0  0  0  0  0  0  0
  -25.8044  -34.9174   24.6632 C   0  0  0  0  0  0  0  0  0  0  0  0
  -26.0782  -32.8157   22.8592 C   0  0  0  0  0  0  0  0  0  0  0  0
  -23.6610  -28.9513   18.7690 C   0  0  0  0  0  0  0  0  0  0  0  0
  -31.2696  -16.8565   20.8868 C   0  0  0  0  0  0  0  0  0  0  0  0
  -30.0177  -16.2657   18.9067 C   0  0  0  0  0  0  0  0  0  0  0  0
  -24.1547  -27.7963   18.1640 C   0  0  0  0  0  0  0  0  0  0  0  0
  -30.7430  -12.7086   18.7313 C   0  0  0  0  0  0  0  0  0  0  0  0
  -29.8628  -11.6439   18.5382 C   0  0  0  0  0  0  0  0  0  0  0  0
  -23.0322  -26.4540   19.8245 C   0  0  0  0  0  0  0  0  0  0  0  0
  -28.5792  -12.3573   20.4567 C   0  0  0  0  0  0  0  0  0  0  0  0
  -29.8589  -18.4989   19.8147 C   0  0  0  0  0  0  0  0  0  0  0  0
  -29.8608  -20.9428   19.0833 C   0  0  0  0  0  0  0  0  0  0  0  0
  -25.1793  -33.6905   24.9363 C   0  0  0  0  0  0  0  0  0  0  0  0
  -22.8568  -28.8666   19.9146 C   0  0  0  0  0  0  0  0  0  0  0  0
  -25.3253  -32.6229   24.0299 C   0  0  0  0  0  0  0  0  0  0  0  0
  -22.5274  -27.6092   20.4406 C   0  0  0  0  0  0  0  0  0  0  0  0
  -30.9053  -15.9151   19.9241 C   0  0  0  0  0  0  0  0  0  0  0  0
  -23.8427  -26.5475   18.6934 C   0  0  0  0  0  0  0  0  0  0  0  0
  -30.5414  -13.5976   19.7871 C   0  0  0  0  0  0  0  0  0  0  0  0
  -28.7809  -11.4683   19.4009 C   0  0  0  0  0  0  0  0  0  0  0  0
  -29.4595  -13.4220   20.6498 C   0  0  0  0  0  0  0  0  0  0  0  0
  -29.3177  -19.8330   19.7580 C   0  0  0  0  0  0  0  0  0  0  0  0
  -20.0072  -21.9026   17.6340 C   0  0  0  0  0  0  0  0  0  0  0  0
  -20.5828  -21.1756   16.6131 C   0  0  0  0  0  0  0  0  0  0  0  0
  -28.9779  -21.9641   19.3358 C   0  0  0  0  0  0  0  0  0  0  0  0
  -21.9669  -21.5419   18.5502 C   0  0  0  0  0  0  0  0  0  0  0  0
  -21.7705  -21.9302   13.9214 C   0  0  0  0  0  0  0  0  0  0  0  0
  -31.0566  -21.0416   18.2983 C   0  0  0  0  0  0  0  0  0  0  0  0
  -23.1151  -29.8791   22.9166 C   0  0  0  0  0  0  0  0  0  0  0  0
  -20.0790  -28.7599   23.1442 C   0  0  0  0  0  0  0  0  0  0  0  0
  -17.6737  -26.6472   21.9619 C   0  0  0  0  0  0  0  0  0  0  0  0
  -23.1616  -22.0880   20.6999 C   0  0  0  0  0  0  0  0  0  0  0  0
  -24.4236  -33.5333   26.2320 C   0  0  0  0  0  0  0  0  0  0  0  0
  -22.3101  -30.1207   20.5397 C   0  0  0  0  0  0  0  0  0  0  0  0
  -21.6512  -27.4632   21.6569 C   0  0  0  0  0  0  0  0  0  0  0  0
  -23.5003  -32.3179   26.2551 C   0  0  0  0  0  0  0  0  0  0  0  0
  -25.8278  -23.4658   22.6155 C   0  0  0  0  0  0  0  0  0  0  0  0
  -24.2268  -31.0855   25.7256 C   0  0  0  0  0  0  0  0  0  0  0  0
  -27.0754  -22.7962   22.0346 C   0  0  0  0  0  0  0  0  0  0  0  0
  -24.6370  -22.5098   22.6544 C   0  0  0  0  0  0  0  0  0  0  0  0
  -25.5694  -21.1886   20.7958 C   0  0  0  0  0  0  0  0  0  0  0  0
  -24.6606  -31.2845   24.2683 C   0  0  1  0  0  0  0  0  0  0  0  0
  -21.9229  -29.9387   22.0040 C   0  0  1  0  0  0  0  0  0  0  0  0
  -26.7775  -22.1318   20.6761 C   0  0  2  0  0  0  0  0  0  0  0  0
  -18.6409  -22.4638   17.6387 C   0  0  0  0  0  0  0  0  0  0  0  0
  -15.3046  -25.9308   22.3757 C   0  0  0  0  0  0  0  0  0  0  0  0
  -25.2835  -23.0561   16.6598 C   0  0  0  0  0  0  0  0  0  0  0  0
  -23.9900  -23.1811   12.2504 C   0  0  0  0  0  0  0  0  0  0  0  0
  -20.9978  -27.1173   25.5459 C   0  0  0  0  0  0  0  0  0  0  0  0
  -18.9141  -25.7482   25.3185 C   0  0  0  0  0  0  0  0  0  0  0  0
  -18.7535  -28.1882   25.8115 C   0  0  0  0  0  0  0  0  0  0  0  0
  -16.8101  -27.5479   19.2782 C   0  0  0  0  0  0  0  0  0  0  0  0
  -20.2917  -21.7760   14.1652 C   0  0  0  0  0  0  0  0  0  0  0  0
  -24.4582  -24.1710   14.5218 C   0  0  0  0  0  0  0  0  0  0  0  0
  -24.5473  -25.4648   16.6966 C   0  0  0  0  0  0  0  0  0  1  0  0
  -20.0181  -20.7611   15.2755 C   0  0  1  0  0  0  0  0  0  0  0  0
  -19.4525  -27.4338   23.5019 C   0  0  1  0  0  0  0  0  0  0  0  0
  -16.2152  -26.8778   21.6097 C   0  0  2  0  0  0  0  0  0  0  0  0
  -24.3207  -24.0848   16.0591 C   0  0  2  0  0  0  0  0  0  0  0  0
  -23.7693  -23.0362   13.7518 C   0  0  1  0  0  0  0  0  0  0  0  0
  -19.5476  -27.1244   25.0227 C   0  0  0  0  0  0  0  0  0  0  0  0
  -28.1780  -20.1221   20.3917 N   0  0  0  0  0  0  0  0  0  0  0  0
  -20.7993  -22.1133   18.7458 N   0  0  0  0  0  0  0  0  0  0  0  0
  -22.3250  -23.0867   14.0035 N   0  0  0  0  0  0  0  0  0  0  0  0
  -27.9978  -21.4250   20.1164 N   0  0  0  0  0  0  0  0  0  0  0  0
  -21.1463  -28.7191   22.2359 N   0  0  0  0  0  0  0  0  0  0  0  0
  -24.4119  -21.9218   21.3321 N   0  0  0  0  0  0  0  0  0  0  0  0
  -28.9519  -23.2616   18.9642 N   0  0  0  0  0  0  0  0  0  0  0  0
  -31.8486  -19.8961   18.1403 N   0  0  0  0  0  0  0  0  0  0  0  0
  -23.0755  -21.5132   19.4323 N   0  0  0  0  0  0  0  0  0  0  0  0
  -23.5331  -31.1130   23.3774 N   0  0  0  0  0  0  0  0  0  0  0  0
  -18.0890  -27.4738   22.9844 N   0  0  0  0  0  0  0  0  0  0  0  0
  -15.9946  -26.6649   20.1513 N   0  3  0  0  0  0  0  0  0  0  0  0
  -31.4208  -22.1179   17.7669 O   0  0  0  0  0  0  0  0  0  0  0  0
  -23.6177  -28.7939   23.1840 O   0  0  0  0  0  0  0  0  0  0  0  0
  -19.6331  -29.7945   23.6466 O   0  0  0  0  0  0  0  0  0  0  0  0
  -18.3735  -25.8145   21.3898 O   0  0  0  0  0  0  0  0  0  0  0  0
  -22.2443  -22.7188   21.2316 O   0  0  0  0  0  0  0  0  0  0  0  0
  -31.4158  -14.6545   19.9770 O   0  0  0  0  0  0  0  0  0  0  0  0
  -24.3239  -25.4186   18.1052 O   0  0  0  0  0  0  0  0  0  1  0  0
  -27.9348  -10.4468   19.2145 F   0  0  0  0  0  0  0  0  0  0  0  0
  -29.2599  -14.2735   21.6651 F   0  0  0  0  0  0  0  0  0  0  0  0
  -20.4791  -19.5443   14.8560 F   0  0  0  0  0  0  0  0  0  0  0  0
  -22.1811  -20.7343   17.0513 S   0  0  0  0  0  0  0  0  0  0  0  0
  1  2  1  0  0  0  0
  1  5  2  0  0  0  0
  2  6  2  0  0  0  0
  3  8  2  0  0  0  0
  3 15  1  0  0  0  0
  4  9  1  0  0  0  0
  4 15  2  0  0  0  0
  5 17  1  0  0  0  0
  6 19  1  0  0  0  0
  7 10  2  0  0  0  0
  7 18  1  0  0  0  0
  8 21  1  0  0  0  0
  9 21  2  0  0  0  0
 10 22  1  0  0  0  0
 11 12  2  0  0  0  0
 11 23  1  0  0  0  0
 12 24  1  0  0  0  0
 13 20  1  0  0  0  0
 13 22  2  0  0  0  0
 14 24  2  0  0  0  0
 14 25  1  0  0  0  0
 15 26  1  0  0  0  0
 16 26  1  0  0  0  0
 16 29  2  0  0  0  0
 16 32  1  0  0  0  0
 17 19  2  0  0  0  0
 17 37  1  0  0  0  0
 18 20  2  0  0  0  0
 18 38  1  0  0  0  0
 19 46  1  0  0  0  0
 20 39  1  0  0  0  0
 21 83  1  0  0  0  0
 22 84  1  0  0  0  0
 23 25  2  0  0  0  0
 23 83  1  0  0  0  0
 24 85  1  0  0  0  0
 25 86  1  0  0  0  0
 26 66  2  0  0  0  0
 27 28  2  0  0  0  0
 27 49  1  0  0  0  0
 27 67  1  0  0  0  0
 28 60  1  0  0  0  0
 28 88  1  0  0  0  0
 29 69  1  0  0  0  0
 29 72  1  0  0  0  0
 30 67  2  0  0  0  0
 30 74  1  0  0  0  0
 30 88  1  0  0  0  0
 31 57  1  0  0  0  0
 31 68  2  0  0  0  0
 32 73  1  0  0  0  0
 32 78  2  0  0  0  0
 33 47  1  0  0  0  0
 33 75  1  0  0  0  0
 33 79  2  0  0  0  0
 34 61  1  0  0  0  0
 34 70  1  0  0  0  0
 34 80  2  0  0  0  0
 35 62  1  0  0  0  0
 35 76  1  0  0  0  0
 35 81  2  0  0  0  0
 36 71  1  0  0  0  0
 36 74  1  0  0  0  0
 36 82  2  0  0  0  0
 37 40  1  0  0  0  0
 38 47  1  0  0  0  0
 39 70  1  0  0  0  0
 40 42  1  0  0  0  0
 41 43  1  0  0  0  0
 41 44  1  0  0  0  0
 42 46  1  0  0  0  0
 43 48  1  0  0  0  0
 44 71  1  0  0  0  0
 45 48  1  0  0  0  0
 45 71  1  0  0  0  0
 46 75  1  0  0  0  0
 47 70  1  0  0  0  0
 48 69  1  0  0  0  0
 50 62  1  0  0  0  0
 51 63  1  0  0  0  0
 52 64  1  0  0  0  0
 53 65  1  0  0  0  0
 54 65  1  0  0  0  0
 55 65  1  0  0  0  0
 56 77  1  0  0  0  0
 57 60  1  0  0  0  0
 58 63  1  0  0  0  0
 58 64  1  0  0  0  0
 59 63  1  0  0  0  0
 59 84  1  0  0  0  0
 60 87  1  0  0  0  0
 61 65  1  0  0  0  0
 61 76  1  0  0  0  0
 62 77  1  0  0  0  0
 64 68  1  0  0  0  0
 66 69  1  0  0  0  0
M  CHG  1  77   1
M  ISO  4  36 100  59 101  74 100  84 101
M  END
> <Batch ID>
0191

> <Smiles>
CNC(C)C(=O)NC(C(=O)N1Cc2cc([101O:1][101CH2:1]C(C)CC(C)NC=CC(F)c3sc([100NH:0][100C:0](=O)N4CCCC(n5nc(-c6ccc(Oc7ccc(F)cc7F)cc6)c(C(N)=O)c5N)C4)nc3C)ccc2CC1C(=O)NC1CCCc2ccccc21)C(C)(C)C

> <Shape>
0.252

> <Color>
0.067

> <Negative vol penalty>
0.000

$$$$

  -OEChem-04052305243D

 83 91  0     1  0  0  0  0  0999 V2000
  -16.9156  -30.7951   22.9522 C   0  0  0  0  0  0  0  0  0  0  0  0
  -18.1941  -31.2977   22.7324 C   0  0  0  0  0  0  0  0  0  0  0  0
  -27.0325  -12.2437   21.5899 C   0  0  0  0  0  0  0  0  0  0  0  0
  -26.0861  -13.8841   20.0897 C   0  0  0  0  0  0  0  0  0  0  0  0
  -16.7365  -29.4366   23.2096 C   0  0  0  0  0  0  0  0  0  0  0  0
  -19.2944  -30.4420   22.7708 C   0  0  0  0  0  0  0  0  0  0  0  0
  -25.7365  -29.4944   19.7845 C   0  0  0  0  0  0  0  0  0  0  0  0
  -26.2003  -11.2656   21.0455 C   0  0  0  0  0  0  0  0  0  0  0  0
  -25.2538  -12.9060   19.5453 C   0  0  0  0  0  0  0  0  0  0  0  0
  -27.0713  -29.3055   20.1401 C   0  0  0  0  0  0  0  0  0  0  0  0
  -24.0694   -8.4157   20.2965 C   0  0  0  0  0  0  0  0  0  0  0  0
  -23.4131   -7.5566   21.1778 C   0  0  0  0  0  0  0  0  0  0  0  0
  -26.6335  -26.9631   20.5154 C   0  0  0  0  0  0  0  0  0  0  0  0
  -22.3122   -9.4479   22.2016 C   0  0  0  0  0  0  0  0  0  0  0  0
  -26.9754  -13.5530   21.1120 C   0  0  0  0  0  0  0  0  0  0  0  0
  -29.1275  -14.9163   21.2436 C   0  0  0  0  0  0  0  0  0  0  0  0
  -17.8343  -28.5622   23.2417 C   0  0  0  0  0  0  0  0  0  0  0  0
  -24.8362  -28.4194   19.8022 C   0  0  0  0  0  0  0  0  0  0  0  0
  -19.1301  -29.0708   23.0302 C   0  0  0  0  0  0  0  0  0  0  0  0
  -25.2884  -27.1405   20.1570 C   0  0  0  0  0  0  0  0  0  0  0  0
  -25.3110  -11.5967   20.0232 C   0  0  0  0  0  0  0  0  0  0  0  0
  -27.5193  -28.0403   20.5084 C   0  0  0  0  0  0  0  0  0  0  0  0
  -23.8472   -9.7910   20.3678 C   0  0  0  0  0  0  0  0  0  0  0  0
  -22.5345   -8.0727   22.1303 C   0  0  0  0  0  0  0  0  0  0  0  0
  -22.9685  -10.3070   21.3203 C   0  0  0  0  0  0  0  0  0  0  0  0
  -27.8344  -14.5639   21.6743 C   0  0  0  0  0  0  0  0  0  0  0  0
  -29.5121  -15.9207   22.0979 C   0  0  0  0  0  0  0  0  0  0  0  0
  -26.5823  -22.6174   23.6139 C   0  0  0  0  0  0  0  0  0  0  0  0
  -28.2909  -23.9131   22.6296 C   0  0  0  0  0  0  0  0  0  0  0  0
  -29.9109  -14.3835   20.1675 C   0  0  0  0  0  0  0  0  0  0  0  0
  -22.1735  -27.7497   21.4037 C   0  0  0  0  0  0  0  0  0  0  0  0
  -22.0837  -25.1898   19.4134 C   0  0  0  0  0  0  0  0  0  0  0  0
  -23.7878  -23.0237   17.4007 C   0  0  0  0  0  0  0  0  0  0  0  0
  -26.4449  -19.8785   25.3811 C   0  0  0  0  0  0  0  0  0  0  0  0
  -17.5961  -27.1097   23.5706 C   0  0  0  0  0  0  0  0  0  0  0  0
  -23.4057  -28.6344   19.3900 C   0  0  0  0  0  0  0  0  0  0  0  0
  -24.3667  -25.9495   20.1726 C   0  0  0  0  0  0  0  0  0  0  0  0
  -18.7756  -26.2051   23.2232 C   0  0  0  0  0  0  0  0  0  0  0  0
  -28.8274  -17.5093   26.5587 C   0  0  0  0  0  0  0  0  0  0  0  0
  -20.0824  -26.8192   23.7153 C   0  0  0  0  0  0  0  0  0  0  0  0
  -28.9598  -16.5176   25.4016 C   0  0  0  0  0  0  0  0  0  0  0  0
  -27.3941  -18.0144   26.7079 C   0  0  0  0  0  0  0  0  0  0  0  0
  -26.9391  -17.5910   24.3231 C   0  0  0  0  0  0  0  0  0  0  0  0
  -20.3461  -28.1701   23.0392 C   0  0  1  0  0  0  0  0  0  0  0  0
  -22.4594  -27.5713   19.9394 C   0  0  1  0  0  0  0  0  0  0  0  0
  -28.3781  -17.0963   24.0977 C   0  0  2  0  0  0  0  0  0  0  0  0
  -23.4491  -21.0133   15.9375 C   0  0  0  0  0  0  0  0  0  0  0  0
  -31.2251  -25.0221   23.0609 C   0  0  0  0  0  0  0  0  0  0  0  0
  -30.1978  -27.6761   18.8992 C   0  0  0  0  0  0  0  0  0  0  0  0
  -21.8463  -23.4280   21.8932 C   0  0  0  0  0  0  0  0  0  0  0  0
  -22.4642  -21.4626   20.4707 C   0  0  0  0  0  0  0  0  0  0  0  0
  -20.3810  -22.7460   19.9848 C   0  0  0  0  0  0  0  0  0  0  0  0
  -24.7488  -24.4643   15.0006 C   0  0  0  0  0  0  0  0  0  0  0  0
  -25.5078  -21.6516   23.9192 C   0  0  0  0  0  0  0  0  0  0  0  0
  -30.6582  -26.2891   20.9546 C   0  0  0  0  0  0  0  0  0  0  0  0
  -22.6263  -23.7817   19.4575 C   0  0  1  0  0  0  0  0  0  0  0  0
  -23.5145  -22.5317   15.9908 C   0  0  2  0  0  0  0  0  0  0  0  0
  -30.0967  -25.5799   22.1977 C   0  0  1  0  0  0  0  0  0  0  0  0
  -29.5771  -26.9302   20.0735 C   0  0  1  0  0  0  0  0  0  1  0  0
  -21.8466  -22.8772   20.4532 C   0  0  0  0  0  0  0  0  0  0  0  0
  -27.4250  -15.2856   22.7210 N   0  0  0  0  0  0  0  0  0  0  0  0
  -27.0584  -23.5139   24.4514 N   0  0  0  0  0  0  0  0  0  0  0  0
  -28.0599  -24.2746   23.8737 N   0  0  0  0  0  0  0  0  0  0  0  0
  -28.4668  -16.1015   22.9552 N   0  0  0  0  0  0  0  0  0  0  0  0
  -22.9758  -26.2119   19.7677 N   0  0  0  0  0  0  0  0  0  0  0  0
  -26.9026  -18.5517   25.4368 N   0  0  0  0  0  0  0  0  0  0  0  0
  -30.6390  -16.6580   22.1919 N   0  0  0  0  0  0  0  0  0  0  0  0
  -29.3640  -13.3546   19.3886 N   0  0  0  0  0  0  0  0  0  0  0  0
  -29.2337  -24.4885   21.7967 N   0  0  0  0  0  0  0  0  0  0  0  0
  -20.8411  -27.9737   21.6935 N   0  0  0  0  0  0  0  0  0  0  0  0
  -22.6203  -23.2987   18.0810 N   0  0  0  0  0  0  0  0  0  0  0  0
  -26.0023  -20.3104   24.1367 N   0  0  0  0  0  0  0  0  0  0  0  0
  -24.5894  -22.9887   15.0652 N   0  3  0  0  0  0  0  0  0  0  0  0
  -31.0682  -14.7961   19.9147 O   0  0  0  0  0  0  0  0  0  0  0  0
  -23.0933  -27.6872   22.2109 O   0  0  0  0  0  0  0  0  0  0  0  0
  -20.9137  -25.3766   19.0700 O   0  0  0  0  0  0  0  0  0  0  0  0
  -24.9232  -23.1479   17.8545 O   0  0  0  0  0  0  0  0  0  0  0  0
  -26.4366  -20.6248   26.3660 O   0  0  0  0  0  0  0  0  0  0  0  0
  -24.4989  -10.6425   19.4916 O   0  0  0  0  0  0  0  0  0  0  0  0
  -28.8215  -27.8533   20.8567 O   0  0  0  0  0  0  0  0  0  1  0  0
  -21.9031   -7.2474   22.9756 F   0  0  0  0  0  0  0  0  0  0  0  0
  -22.7501  -11.6272   21.3928 F   0  0  0  0  0  0  0  0  0  0  0  0
  -27.3123  -22.6241   22.0619 S   0  0  0  0  0  0  0  0  0  0  0  0
  1  2  1  0  0  0  0
  1  5  2  0  0  0  0
  2  6  2  0  0  0  0
  3  8  2  0  0  0  0
  3 15  1  0  0  0  0
  4  9  1  0  0  0  0
  4 15  2  0  0  0  0
  5 17  1  0  0  0  0
  6 19  1  0  0  0  0
  7 10  2  0  0  0  0
  7 18  1  0  0  0  0
  8 21  1  0  0  0  0
  9 21  2  0  0  0  0
 10 22  1  0  0  0  0
 11 12  2  0  0  0  0
 11 23  1  0  0  0  0
 12 24  1  0  0  0  0
 13 20  1  0  0  0  0
 13 22  2  0  0  0  0
 14 24  2  0  0  0  0
 14 25  1  0  0  0  0
 15 26  1  0  0  0  0
 16 26  1  0  0  0  0
 16 27  2  0  0  0  0
 16 30  1  0  0  0  0
 17 19  2  0  0  0  0
 17 35  1  0  0  0  0
 18 20  2  0  0  0  0
 18 36  1  0  0  0  0
 19 44  1  0  0  0  0
 20 37  1  0  0  0  0
 21 79  1  0  0  0  0
 22 80  1  0  0  0  0
 23 25  2  0  0  0  0
 23 79  1  0  0  0  0
 24 81  1  0  0  0  0
 25 82  1  0  0  0  0
 26 61  2  0  0  0  0
 27 64  1  0  0  0  0
 27 67  1  0  0  0  0
 28 54  1  0  0  0  0
 28 62  2  0  0  0  0
 28 83  1  0  0  0  0
 29 63  2  0  0  0  0
 29 69  1  0  0  0  0
 29 83  1  0  0  0  0
 30 68  1  0  0  0  0
 30 74  2  0  0  0  0
 31 45  1  0  0  0  0
 31 70  1  0  0  0  0
 31 75  2  0  0  0  0
 32 56  1  0  0  0  0
 32 65  1  0  0  0  0
 32 76  2  0  0  0  0
 33 57  1  0  0  0  0
 33 71  1  0  0  0  0
 33 77  2  0  0  0  0
 34 66  1  0  0  0  0
 34 72  1  0  0  0  0
 34 78  2  0  0  0  0
 35 38  1  0  0  0  0
 36 45  1  0  0  0  0
 37 65  1  0  0  0  0
 38 40  1  0  0  0  0
 39 41  1  0  0  0  0
 39 42  1  0  0  0  0
 40 44  1  0  0  0  0
 41 46  1  0  0  0  0
 42 66  1  0  0  0  0
 43 46  1  0  0  0  0
 43 66  1  0  0  0  0
 44 70  1  0  0  0  0
 45 65  1  0  0  0  0
 46 64  1  0  0  0  0
 47 57  1  0  0  0  0
 48 58  1  0  0  0  0
 49 59  1  0  0  0  0
 50 60  1  0  0  0  0
 51 60  1  0  0  0  0
 52 60  1  0  0  0  0
 53 73  1  0  0  0  0
 54 72  1  0  0  0  0
 55 58  1  0  0  0  0
 55 59  1  0  0  0  0
 56 60  1  0  0  0  0
 56 71  1  0  0  0  0
 57 73  1  0  0  0  0
 58 69  1  0  0  0  0
 59 80  1  0  0  0  0
 61 64  1  0  0  0  0
 62 63  1  0  0  0  0
M  CHG  1  73   1
M  ISO  4  34 100  59 101  72 100  80 101
M  END
> <Batch ID>
0191

> <Smiles>
CNC(C)C(=O)NC(C(=O)N1Cc2cc([101O:1][101CH:1](C)CC(C)Nc3nnc(C[100NH:0][100C:0](=O)N4CCCC(n5nc(-c6ccc(Oc7ccc(F)cc7F)cc6)c(C(N)=O)c5N)C4)s3)ccc2CC1C(=O)NC1CCCc2ccccc21)C(C)(C)C

> <Shape>
0.224

> <Color>
0.081

> <Negative vol penalty>
0.000

$$$$

  -OEChem-04052305243D

 86 94  0     1  0  0  0  0  0999 V2000
  -18.9528  -22.2655   22.4352 C   0  0  0  0  0  0  0  0  0  0  0  0
  -20.0360  -22.3852   21.5705 C   0  0  0  0  0  0  0  0  0  0  0  0
  -23.2792  -12.8033   20.7170 C   0  0  0  0  0  0  0  0  0  0  0  0
  -23.5222  -14.0674   22.7616 C   0  0  0  0  0  0  0  0  0  0  0  0
  -18.3621  -23.4082   22.9731 C   0  0  0  0  0  0  0  0  0  0  0  0
  -20.5284  -23.6478   21.2422 C   0  0  0  0  0  0  0  0  0  0  0  0
  -27.3746  -25.4272   22.6044 C   0  0  0  0  0  0  0  0  0  0  0  0
  -22.8477  -11.6987   21.4512 C   0  0  0  0  0  0  0  0  0  0  0  0
  -23.0906  -12.9627   23.4958 C   0  0  0  0  0  0  0  0  0  0  0  0
  -28.7261  -25.7710   22.6402 C   0  0  0  0  0  0  0  0  0  0  0  0
  -22.0252   -8.4311   22.8187 C   0  0  0  0  0  0  0  0  0  0  0  0
  -22.5607   -7.1849   22.4934 C   0  0  0  0  0  0  0  0  0  0  0  0
  -28.1985  -27.9759   21.7986 C   0  0  0  0  0  0  0  0  0  0  0  0
  -24.7763   -8.0050   22.9990 C   0  0  0  0  0  0  0  0  0  0  0  0
  -27.9061  -24.7560   19.0864 C   0  0  0  0  0  0  0  0  0  0  0  0
  -26.8362  -22.8374   19.7219 C   0  0  0  0  0  0  0  0  0  0  0  0
  -23.6165  -13.9877   21.3722 C   0  0  0  0  0  0  0  0  0  0  0  0
  -23.2653  -16.1557   20.0745 C   0  0  0  0  0  0  0  0  0  0  0  0
  -18.8536  -24.6850   22.6589 C   0  0  0  0  0  0  0  0  0  0  0  0
  -26.4271  -26.3627   22.1796 C   0  0  0  0  0  0  0  0  0  0  0  0
  -19.9429  -24.8087   21.7754 C   0  0  0  0  0  0  0  0  0  0  0  0
  -26.8420  -27.6413   21.7724 C   0  0  0  0  0  0  0  0  0  0  0  0
  -22.7533  -11.7783   22.8406 C   0  0  0  0  0  0  0  0  0  0  0  0
  -29.1371  -27.0421   22.2381 C   0  0  0  0  0  0  0  0  0  0  0  0
  -22.8653   -9.4643   23.2341 C   0  0  0  0  0  0  0  0  0  0  0  0
  -23.9362   -6.9718   22.5836 C   0  0  0  0  0  0  0  0  0  0  0  0
  -24.2408   -9.2512   23.3242 C   0  0  0  0  0  0  0  0  0  0  0  0
  -24.0629  -15.1289   20.6144 C   0  0  0  0  0  0  0  0  0  0  0  0
  -29.0356  -24.0268   18.7866 C   0  0  0  0  0  0  0  0  0  0  0  0
  -27.9654  -22.1080   19.4214 C   0  0  0  0  0  0  0  0  0  0  0  0
  -24.1585  -16.9929   19.4518 C   0  0  0  0  0  0  0  0  0  0  0  0
  -21.8442  -16.3366   20.1311 C   0  0  0  0  0  0  0  0  0  0  0  0
  -22.8099  -27.1280   21.5423 C   0  0  0  0  0  0  0  0  0  0  0  0
  -24.0393  -29.6326   22.8172 C   0  0  0  0  0  0  0  0  0  0  0  0
  -31.9083  -26.3284   19.2046 C   0  0  0  0  0  0  0  0  0  0  0  0
  -25.6694  -32.0263   24.6202 C   0  0  0  0  0  0  0  0  0  0  0  0
  -28.9681  -19.7974   19.3774 C   0  0  0  0  0  0  0  0  0  0  0  0
  -18.1524  -25.8931   23.2277 C   0  0  0  0  0  0  0  0  0  0  0  0
  -24.9674  -26.0158   22.0664 C   0  0  0  0  0  0  0  0  0  0  0  0
  -25.7913  -28.6038   21.2900 C   0  0  0  0  0  0  0  0  0  0  0  0
  -18.9711  -27.1773   23.1245 C   0  0  0  0  0  0  0  0  0  0  0  0
  -29.0716  -16.3746   18.4024 C   0  0  0  0  0  0  0  0  0  0  0  0
  -19.5678  -27.3192   21.7278 C   0  0  0  0  0  0  0  0  0  0  0  0
  -27.7121  -15.8298   18.8465 C   0  0  0  0  0  0  0  0  0  0  0  0
  -29.6223  -17.4001   19.3917 C   0  0  0  0  0  0  0  0  0  0  0  0
  -27.3491  -17.9583   20.1598 C   0  0  0  0  0  0  0  0  0  0  0  0
  -20.5213  -26.1598   21.4148 C   0  0  1  0  0  0  0  0  0  0  0  0
  -24.0387  -27.1969   22.4005 C   0  0  1  0  0  0  0  0  0  0  0  0
  -26.7240  -16.9698   19.1619 C   0  0  2  0  0  0  0  0  0  0  0  0
  -31.0878  -23.8170   17.3249 C   0  0  0  0  0  0  0  0  0  0  0  0
  -25.3290  -34.2887   25.6513 C   0  0  0  0  0  0  0  0  0  0  0  0
  -24.2342  -30.9159   20.0569 C   0  0  0  0  0  0  0  0  0  0  0  0
  -24.8417  -33.0699   21.1793 C   0  0  0  0  0  0  0  0  0  0  0  0
  -22.6186  -32.0241   21.6113 C   0  0  0  0  0  0  0  0  0  0  0  0
  -26.2254  -30.9989   27.3394 C   0  0  0  0  0  0  0  0  0  0  0  0
  -32.3891  -28.0376   21.0226 C   0  0  0  0  0  0  0  0  0  0  0  0
  -30.9192  -28.3217   21.3194 C   0  0  0  0  0  0  0  0  0  1  0  0
  -30.2758  -24.7140   18.2570 C   0  0  2  0  0  0  0  0  0  0  0  0
  -24.6956  -30.9720   22.5966 C   0  0  1  0  0  0  0  0  0  0  0  0
  -32.6788  -26.6360   20.4785 C   0  0  2  0  0  0  0  0  0  0  0  0
  -25.2759  -32.7853   25.8745 C   0  0  2  0  0  0  0  0  0  0  0  0
  -24.1129  -31.7220   21.3656 C   0  0  0  0  0  0  0  0  0  0  0  0
  -26.7860  -24.1744   19.5595 N   0  0  0  0  0  0  0  0  0  0  0  0
  -25.3628  -15.2964   20.3569 N   0  0  0  0  0  0  0  0  0  0  0  0
  -29.0856  -22.6897   18.9487 N   0  0  0  0  0  0  0  0  0  0  0  0
  -25.3889  -16.4381   19.6485 N   0  0  0  0  0  0  0  0  0  0  0  0
  -24.6080  -28.5339   22.1615 N   0  0  0  0  0  0  0  0  0  0  0  0
  -28.6336  -18.4519   19.6389 N   0  0  0  0  0  0  0  0  0  0  0  0
  -24.0037  -18.1421   18.7605 N   0  0  0  0  0  0  0  0  0  0  0  0
  -21.0757  -15.3823   20.8115 N   0  0  0  0  0  0  0  0  0  0  0  0
  -27.9376  -20.7052   19.6192 N   0  0  0  0  0  0  0  0  0  0  0  0
  -21.7933  -26.3590   22.0759 N   0  0  0  0  0  0  0  0  0  0  0  0
  -31.1017  -25.2079   19.3338 N   0  0  0  0  0  0  0  0  0  0  0  0
  -24.5700  -31.7003   23.8545 N   0  0  0  0  0  0  0  0  0  0  0  0
  -34.1428  -26.4711   20.2552 N   0  3  0  0  0  0  0  0  0  0  0  0
  -26.1956  -32.4440   26.9964 N   0  3  0  0  0  0  0  0  0  0  0  0
  -21.2710  -17.3069   19.5800 O   0  0  0  0  0  0  0  0  0  0  0  0
  -22.7840  -27.7292   20.4747 O   0  0  0  0  0  0  0  0  0  0  0  0
  -23.0459  -29.5605   23.5460 O   0  0  0  0  0  0  0  0  0  0  0  0
  -32.0091  -27.0097   18.1866 O   0  0  0  0  0  0  0  0  0  0  0  0
  -26.8357  -31.7534   24.3451 O   0  0  0  0  0  0  0  0  0  0  0  0
  -30.0776  -20.1177   18.9432 O   0  0  0  0  0  0  0  0  0  0  0  0
  -22.3320  -10.7007   23.5574 O   0  0  0  0  0  0  0  0  0  0  0  0
  -30.4576  -27.3726   22.2798 O   0  0  0  0  0  0  0  0  0  1  0  0
  -24.4501   -5.7745   22.2727 F   0  0  0  0  0  0  0  0  0  0  0  0
  -25.0527  -10.2396   23.7238 F   0  0  0  0  0  0  0  0  0  0  0  0
  1  2  1  0  0  0  0
  1  5  2  0  0  0  0
  2  6  2  0  0  0  0
  3  8  2  0  0  0  0
  3 17  1  0  0  0  0
  4  9  1  0  0  0  0
  4 17  2  0  0  0  0
  5 19  1  0  0  0  0
  6 21  1  0  0  0  0
  7 10  2  0  0  0  0
  7 20  1  0  0  0  0
  8 23  1  0  0  0  0
  9 23  2  0  0  0  0
 10 24  1  0  0  0  0
 11 12  2  0  0  0  0
 11 25  1  0  0  0  0
 12 26  1  0  0  0  0
 13 22  1  0  0  0  0
 13 24  2  0  0  0  0
 14 26  2  0  0  0  0
 14 27  1  0  0  0  0
 15 29  1  0  0  0  0
 15 63  2  0  0  0  0
 16 30  2  0  0  0  0
 16 63  1  0  0  0  0
 17 28  1  0  0  0  0
 18 28  1  0  0  0  0
 18 31  2  0  0  0  0
 18 32  1  0  0  0  0
 19 21  2  0  0  0  0
 19 38  1  0  0  0  0
 20 22  2  0  0  0  0
 20 39  1  0  0  0  0
 21 47  1  0  0  0  0
 22 40  1  0  0  0  0
 23 83  1  0  0  0  0
 24 84  1  0  0  0  0
 25 27  2  0  0  0  0
 25 83  1  0  0  0  0
 26 85  1  0  0  0  0
 27 86  1  0  0  0  0
 28 64  2  0  0  0  0
 29 58  1  0  0  0  0
 29 65  2  0  0  0  0
 30 65  1  0  0  0  0
 30 71  1  0  0  0  0
 31 66  1  0  0  0  0
 31 69  1  0  0  0  0
 32 70  1  0  0  0  0
 32 77  2  0  0  0  0
 33 48  1  0  0  0  0
 33 72  1  0  0  0  0
 33 78  2  0  0  0  0
 34 59  1  0  0  0  0
 34 67  1  0  0  0  0
 34 79  2  0  0  0  0
 35 60  1  0  0  0  0
 35 73  1  0  0  0  0
 35 80  2  0  0  0  0
 36 61  1  0  0  0  0
 36 74  1  0  0  0  0
 36 81  2  0  0  0  0
 37 68  1  0  0  0  0
 37 71  1  0  0  0  0
 37 82  2  0  0  0  0
 38 41  1  0  0  0  0
 39 48  1  0  0  0  0
 40 67  1  0  0  0  0
 41 43  1  0  0  0  0
 42 44  1  0  0  0  0
 42 45  1  0  0  0  0
 43 47  1  0  0  0  0
 44 49  1  0  0  0  0
 45 68  1  0  0  0  0
 46 49  1  0  0  0  0
 46 68  1  0  0  0  0
 47 72  1  0  0  0  0
 48 67  1  0  0  0  0
 49 66  1  0  0  0  0
 50 58  1  0  0  0  0
 51 61  1  0  0  0  0
 52 62  1  0  0  0  0
 53 62  1  0  0  0  0
 54 62  1  0  0  0  0
 55 76  1  0  0  0  0
 56 57  1  0  0  0  0
 56 60  1  0  0  0  0
 57 84  1  0  0  0  0
 58 73  1  0  0  0  0
 59 62  1  0  0  0  0
 59 74  1  0  0  0  0
 60 75  1  0  0  0  0
 61 76  1  0  0  0  0
 64 66  1  0  0  0  0
M  CHG  2  75   1  76   1
M  ISO  4  37 100  57 101  71 100  84 101
M  END
> <Batch ID>
0191

> <Smiles>
CNC(C)C(=O)NC(C(=O)N1Cc2cc([101O:1][101CH2:1]CC(N)C(=O)NC(C)c3cncc([100NH:0][100C:0](=O)N4CCCC(n5nc(-c6ccc(Oc7ccc(F)cc7F)cc6)c(C(N)=O)c5N)C4)n3)ccc2CC1C(=O)NC1CCCc2ccccc21)C(C)(C)C

> <Shape>
0.269

> <Color>
0.046

> <Negative vol penalty>
0.000

$$$$

  -OEChem-04052305243D

 85 93  0     1  0  0  0  0  0999 V2000
  -16.6038  -30.5757   20.7666 C   0  0  0  0  0  0  0  0  0  0  0  0
  -17.7793  -31.3175   20.7091 C   0  0  0  0  0  0  0  0  0  0  0  0
  -24.2326   -9.4371   21.2236 C   0  0  0  0  0  0  0  0  0  0  0  0
  -25.0280  -10.3209   23.3267 C   0  0  0  0  0  0  0  0  0  0  0  0
  -16.5286  -29.4535   21.5905 C   0  0  0  0  0  0  0  0  0  0  0  0
  -18.8800  -30.9380   21.4764 C   0  0  0  0  0  0  0  0  0  0  0  0
  -26.1941  -29.3091   19.2677 C   0  0  0  0  0  0  0  0  0  0  0  0
  -23.9114   -8.2334   21.8509 C   0  0  0  0  0  0  0  0  0  0  0  0
  -24.7067   -9.1172   23.9541 C   0  0  0  0  0  0  0  0  0  0  0  0
  -27.4781  -28.8450   18.9811 C   0  0  0  0  0  0  0  0  0  0  0  0
  -22.5480   -5.0552   22.9712 C   0  0  0  0  0  0  0  0  0  0  0  0
  -21.3122   -4.4797   22.6761 C   0  0  0  0  0  0  0  0  0  0  0  0
  -27.4491  -27.4942   20.9866 C   0  0  0  0  0  0  0  0  0  0  0  0
  -20.1943   -6.4517   23.5121 C   0  0  0  0  0  0  0  0  0  0  0  0
  -24.7910  -10.4808   21.9615 C   0  0  0  0  0  0  0  0  0  0  0  0
  -24.2924  -12.8493   21.1557 C   0  0  0  0  0  0  0  0  0  0  0  0
  -17.6321  -29.0544   22.3609 C   0  0  0  0  0  0  0  0  0  0  0  0
  -25.5259  -28.8551   20.4082 C   0  0  0  0  0  0  0  0  0  0  0  0
  -18.8191  -29.8101   22.3124 C   0  0  0  0  0  0  0  0  0  0  0  0
  -26.1580  -27.9460   21.2723 C   0  0  0  0  0  0  0  0  0  0  0  0
  -24.1484   -8.0735   23.2161 C   0  0  0  0  0  0  0  0  0  0  0  0
  -28.1041  -27.9400   19.8386 C   0  0  0  0  0  0  0  0  0  0  0  0
  -22.6070   -6.3289   23.5369 C   0  0  0  0  0  0  0  0  0  0  0  0
  -20.1353   -5.1779   22.9465 C   0  0  0  0  0  0  0  0  0  0  0  0
  -21.4302   -7.0271   23.8073 C   0  0  0  0  0  0  0  0  0  0  0  0
  -25.1237  -11.7243   21.3139 C   0  0  0  0  0  0  0  0  0  0  0  0
  -25.0698  -13.7584   20.4807 C   0  0  0  0  0  0  0  0  0  0  0  0
  -29.6146  -20.8032   20.1453 C   0  0  0  0  0  0  0  0  0  0  0  0
  -29.0964  -18.7012   20.3655 C   0  0  0  0  0  0  0  0  0  0  0  0
  -22.9386  -13.0543   21.5811 C   0  0  0  0  0  0  0  0  0  0  0  0
  -22.4112  -28.9643   22.4970 C   0  0  0  0  0  0  0  0  0  0  0  0
  -23.3420  -26.0419   22.4372 C   0  0  0  0  0  0  0  0  0  0  0  0
  -24.4613  -22.8882   21.7752 C   0  0  0  0  0  0  0  0  0  0  0  0
  -29.9055  -16.4081   19.7073 C   0  0  0  0  0  0  0  0  0  0  0  0
  -17.4878  -27.8616   23.2725 C   0  0  0  0  0  0  0  0  0  0  0  0
  -24.1663  -29.3752   20.7889 C   0  0  0  0  0  0  0  0  0  0  0  0
  -25.4146  -27.5116   22.5059 C   0  0  0  0  0  0  0  0  0  0  0  0
  -18.8216  -27.3094   23.7689 C   0  0  0  0  0  0  0  0  0  0  0  0
  -29.5516  -13.2046   18.1941 C   0  0  0  0  0  0  0  0  0  0  0  0
  -19.7220  -28.4423   24.2513 C   0  0  0  0  0  0  0  0  0  0  0  0
  -28.2997  -12.6265   18.8578 C   0  0  0  0  0  0  0  0  0  0  0  0
  -30.3843  -14.0285   19.1747 C   0  0  0  0  0  0  0  0  0  0  0  0
  -28.3944  -14.5037   20.5472 C   0  0  0  0  0  0  0  0  0  0  0  0
  -20.0427  -29.4160   23.1109 C   0  0  1  0  0  0  0  0  0  0  0  0
  -23.2803  -28.3119   21.4624 C   0  0  1  0  0  0  0  0  0  0  0  0
  -27.4900  -13.7197   19.5823 C   0  0  2  0  0  0  0  0  0  0  0  0
  -23.9817  -20.4793   22.2898 C   0  0  0  0  0  0  0  0  0  0  0  0
  -30.1177  -22.6701   16.7842 C   0  0  0  0  0  0  0  0  0  0  0  0
  -28.0028  -22.1349   18.0201 C   0  0  0  0  0  0  0  0  0  0  0  0
  -31.7970  -24.0823   20.7961 C   0  0  0  0  0  0  0  0  0  0  0  0
  -24.5607  -26.3956   25.2108 C   0  0  0  0  0  0  0  0  0  0  0  0
  -24.9305  -23.9206   25.2863 C   0  0  0  0  0  0  0  0  0  0  0  0
  -22.6134  -24.8292   25.1187 C   0  0  0  0  0  0  0  0  0  0  0  0
  -23.9818  -22.2542   18.9244 C   0  0  0  0  0  0  0  0  0  0  0  0
  -30.7249  -25.5763   19.0483 C   0  0  0  0  0  0  0  0  0  0  0  0
  -29.6922  -26.1752   19.9985 C   0  0  0  0  0  0  0  0  0  1  0  0
  -24.1426  -24.9553   23.1093 C   0  0  1  0  0  0  0  0  0  0  0  0
  -23.7324  -21.6329   21.3308 C   0  0  2  0  0  0  0  0  0  0  0  0
  -29.2177  -23.0715   17.9572 C   0  0  0  0  0  0  0  0  0  0  0  0
  -31.1543  -24.1344   19.3977 C   0  0  2  0  0  0  0  0  0  0  0  0
  -29.9606  -23.1324   19.3204 C   0  0  2  0  0  0  0  0  0  0  0  0
  -24.0727  -25.0408   24.6601 C   0  0  0  0  0  0  0  0  0  0  0  0
  -26.3362  -11.9001   20.7820 N   0  0  0  0  0  0  0  0  0  0  0  0
  -29.9865  -19.5073   19.8298 N   0  0  0  0  0  0  0  0  0  0  0  0
  -28.5237  -21.0422   20.8728 N   0  0  0  0  0  0  0  0  0  0  0  0
  -26.2724  -13.1463   20.2829 N   0  0  0  0  0  0  0  0  0  0  0  0
  -24.0054  -27.2470   22.1761 N   0  0  0  0  0  0  0  0  0  0  0  0
  -29.5523  -15.0467   19.8197 N   0  0  0  0  0  0  0  0  0  0  0  0
  -24.8350  -15.0136   20.0428 N   0  0  0  0  0  0  0  0  0  0  0  0
  -22.2879  -12.0167   22.2624 N   0  0  0  0  0  0  0  0  0  0  0  0
  -30.4365  -21.8011   19.6638 N   0  0  0  0  0  0  0  0  0  0  0  0
  -29.0222  -17.2865   20.3339 N   0  0  0  0  0  0  0  0  0  0  0  0
  -21.0573  -28.8596   22.2416 N   0  0  0  0  0  0  0  0  0  0  0  0
  -23.6612  -23.6933   22.5581 N   0  0  0  0  0  0  0  0  0  0  0  0
  -24.1888  -21.2222   19.9729 N   0  3  0  0  0  0  0  0  0  0  0  0
  -22.3187  -14.1199   21.3490 O   0  0  0  0  0  0  0  0  0  0  0  0
  -22.9297  -29.5209   23.4578 O   0  0  0  0  0  0  0  0  0  0  0  0
  -22.1587  -25.8327   22.1553 O   0  0  0  0  0  0  0  0  0  0  0  0
  -25.6253  -23.1285   21.4625 O   0  0  0  0  0  0  0  0  0  0  0  0
  -30.9023  -16.7700   19.0768 O   0  0  0  0  0  0  0  0  0  0  0  0
  -23.8348   -6.8991   23.8286 O   0  0  0  0  0  0  0  0  0  0  0  0
  -29.3642  -27.4845   19.5484 O   0  0  0  0  0  0  0  0  0  1  0  0
  -18.9487   -4.6258   22.6615 F   0  0  0  0  0  0  0  0  0  0  0  0
  -21.4805   -8.2515   24.3495 F   0  0  0  0  0  0  0  0  0  0  0  0
  -27.8665  -19.5421   21.2169 S   0  0  0  0  0  0  0  0  0  0  0  0
  1  2  1  0  0  0  0
  1  5  2  0  0  0  0
  2  6  2  0  0  0  0
  3  8  2  0  0  0  0
  3 15  1  0  0  0  0
  4  9  1  0  0  0  0
  4 15  2  0  0  0  0
  5 17  1  0  0  0  0
  6 19  1  0  0  0  0
  7 10  2  0  0  0  0
  7 18  1  0  0  0  0
  8 21  1  0  0  0  0
  9 21  2  0  0  0  0
 10 22  1  0  0  0  0
 11 12  2  0  0  0  0
 11 23  1  0  0  0  0
 12 24  1  0  0  0  0
 13 20  1  0  0  0  0
 13 22  2  0  0  0  0
 14 24  2  0  0  0  0
 14 25  1  0  0  0  0
 15 26  1  0  0  0  0
 16 26  1  0  0  0  0
 16 27  2  0  0  0  0
 16 30  1  0  0  0  0
 17 19  2  0  0  0  0
 17 35  1  0  0  0  0
 18 20  2  0  0  0  0
 18 36  1  0  0  0  0
 19 44  1  0  0  0  0
 20 37  1  0  0  0  0
 21 81  1  0  0  0  0
 22 82  1  0  0  0  0
 23 25  2  0  0  0  0
 23 81  1  0  0  0  0
 24 83  1  0  0  0  0
 25 84  1  0  0  0  0
 26 63  2  0  0  0  0
 27 66  1  0  0  0  0
 27 69  1  0  0  0  0
 28 64  1  0  0  0  0
 28 65  2  0  0  0  0
 28 71  1  0  0  0  0
 29 64  2  0  0  0  0
 29 72  1  0  0  0  0
 29 85  1  0  0  0  0
 30 70  1  0  0  0  0
 30 76  2  0  0  0  0
 31 45  1  0  0  0  0
 31 73  1  0  0  0  0
 31 77  2  0  0  0  0
 32 57  1  0  0  0  0
 32 67  1  0  0  0  0
 32 78  2  0  0  0  0
 33 58  1  0  0  0  0
 33 74  1  0  0  0  0
 33 79  2  0  0  0  0
 34 68  1  0  0  0  0
 34 72  1  0  0  0  0
 34 80  2  0  0  0  0
 35 38  1  0  0  0  0
 36 45  1  0  0  0  0
 37 67  1  0  0  0  0
 38 40  1  0  0  0  0
 39 41  1  0  0  0  0
 39 42  1  0  0  0  0
 40 44  1  0  0  0  0
 41 46  1  0  0  0  0
 42 68  1  0  0  0  0
 43 46  1  0  0  0  0
 43 68  1  0  0  0  0
 44 73  1  0  0  0  0
 45 67  1  0  0  0  0
 46 66  1  0  0  0  0
 47 58  1  0  0  0  0
 48 59  1  0  0  0  0
 49 59  1  0  0  0  0
 50 60  1  0  0  0  0
 51 62  1  0  0  0  0
 52 62  1  0  0  0  0
 53 62  1  0  0  0  0
 54 75  1  0  0  0  0
 55 56  1  0  0  0  0
 55 60  1  0  0  0  0
 56 82  1  0  0  0  0
 57 62  1  0  0  0  0
 57 74  1  0  0  0  0
 58 75  1  0  0  0  0
 59 61  1  0  0  0  0
 60 61  1  0  0  0  0
 61 71  1  0  0  0  0
 63 66  1  0  0  0  0
 65 85  1  0  0  0  0
M  CHG  1  75   1
M  ISO  4  34 100  56 101  72 100  82 101
M  END
> <Batch ID>
0191

> <Smiles>
CNC(C)C(=O)NC(C(=O)N1Cc2cc([101O:1][101CH2:1]CC(C)C(Nc3nsc([100NH:0][100C:0](=O)N4CCCC(n5nc(-c6ccc(Oc7ccc(F)cc7F)cc6)c(C(N)=O)c5N)C4)n3)C(C)C)ccc2CC1C(=O)NC1CCCc2ccccc21)C(C)(C)C

> <Shape>
0.313

> <Color>
0.152

> <Negative vol penalty>
0.000

$$$$

  -OEChem-04052305243D

 85 93  0     1  0  0  0  0  0999 V2000
  -18.0725  -28.2773   22.7570 C   0  0  0  0  0  0  0  0  0  0  0  0
  -18.0268  -27.0686   22.0697 C   0  0  0  0  0  0  0  0  0  0  0  0
  -29.6178  -22.9120   21.0377 C   0  0  0  0  0  0  0  0  0  0  0  0
  -29.7149  -22.3119   18.6995 C   0  0  0  0  0  0  0  0  0  0  0  0
  -19.2703  -28.7107   23.3239 C   0  0  0  0  0  0  0  0  0  0  0  0
  -19.1792  -26.2930   21.9481 C   0  0  0  0  0  0  0  0  0  0  0  0
  -19.5120  -20.1781   21.8862 C   0  0  0  0  0  0  0  0  0  0  0  0
  -30.1706  -24.1577   20.7410 C   0  0  0  0  0  0  0  0  0  0  0  0
  -30.2677  -23.5576   18.4027 C   0  0  0  0  0  0  0  0  0  0  0  0
  -19.6120  -19.2547   20.8465 C   0  0  0  0  0  0  0  0  0  0  0  0
  -29.1193  -27.1120   19.4761 C   0  0  0  0  0  0  0  0  0  0  0  0
  -28.5388  -28.2356   20.0645 C   0  0  0  0  0  0  0  0  0  0  0  0
  -22.0066  -19.2007   21.1330 C   0  0  0  0  0  0  0  0  0  0  0  0
  -30.6390  -28.7585   21.1382 C   0  0  0  0  0  0  0  0  0  0  0  0
  -29.3900  -21.9890   20.0170 C   0  0  0  0  0  0  0  0  0  0  0  0
  -27.4535  -20.3628   20.3531 C   0  0  0  0  0  0  0  0  0  0  0  0
  -20.4357  -27.9354   23.2175 C   0  0  0  0  0  0  0  0  0  0  0  0
  -20.6615  -20.6288   22.5510 C   0  0  0  0  0  0  0  0  0  0  0  0
  -20.3941  -26.7170   22.5130 C   0  0  0  0  0  0  0  0  0  0  0  0
  -21.9182  -20.1279   22.1825 C   0  0  0  0  0  0  0  0  0  0  0  0
  -30.4956  -24.4806   19.4235 C   0  0  0  0  0  0  0  0  0  0  0  0
  -20.8597  -18.7680   20.4678 C   0  0  0  0  0  0  0  0  0  0  0  0
  -30.4597  -26.8116   19.7189 C   0  0  0  0  0  0  0  0  0  0  0  0
  -29.2986  -29.0589   20.8955 C   0  0  0  0  0  0  0  0  0  0  0  0
  -31.2195  -27.6349   20.5499 C   0  0  0  0  0  0  0  0  0  0  0  0
  -28.8195  -20.7018   20.3230 C   0  0  0  0  0  0  0  0  0  0  0  0
  -27.4373  -19.0321   20.6931 C   0  0  0  0  0  0  0  0  0  0  0  0
  -26.1367  -12.6336   19.7690 C   0  0  0  0  0  0  0  0  0  0  0  0
  -24.7766  -11.8253   21.3607 C   0  0  0  0  0  0  0  0  0  0  0  0
  -24.0046  -13.3255   19.8808 C   0  0  0  0  0  0  0  0  0  0  0  0
  -26.3021  -21.1778   20.0965 C   0  0  0  0  0  0  0  0  0  0  0  0
  -22.0729  -23.4518   22.9284 C   0  0  0  0  0  0  0  0  0  0  0  0
  -24.0045  -21.7814   24.9287 C   0  0  0  0  0  0  0  0  0  0  0  0
  -25.3194  -18.7669   25.8400 C   0  0  0  0  0  0  0  0  0  0  0  0
  -29.4136  -13.8427   20.1371 C   0  0  0  0  0  0  0  0  0  0  0  0
  -21.7181  -28.4679   23.8063 C   0  0  0  0  0  0  0  0  0  0  0  0
  -20.5341  -21.6049   23.6882 C   0  0  0  0  0  0  0  0  0  0  0  0
  -23.1809  -20.5645   22.8778 C   0  0  0  0  0  0  0  0  0  0  0  0
  -22.8067  -27.4079   23.9541 C   0  0  0  0  0  0  0  0  0  0  0  0
  -31.1371  -16.0170   22.3684 C   0  0  0  0  0  0  0  0  0  0  0  0
  -22.9239  -26.5814   22.6774 C   0  0  0  0  0  0  0  0  0  0  0  0
  -30.5798  -17.4016   22.0333 C   0  0  0  0  0  0  0  0  0  0  0  0
  -31.2756  -15.1473   21.1208 C   0  0  0  0  0  0  0  0  0  0  0  0
  -29.4896  -16.4051   19.9797 C   0  0  0  0  0  0  0  0  0  0  0  0
  -21.6172  -25.8358   22.3810 C   0  0  1  0  0  0  0  0  0  0  0  0
  -21.8188  -22.3835   23.9541 C   0  0  1  0  0  0  0  0  0  0  0  0
  -29.2795  -17.2993   21.2136 C   0  0  2  0  0  0  0  0  0  0  0  0
  -26.8979  -17.7237   27.4885 C   0  0  0  0  0  0  0  0  0  0  0  0
  -23.0503  -14.1659   16.9770 C   0  0  0  0  0  0  0  0  0  0  0  0
  -26.3745  -22.8581   23.3370 C   0  0  0  0  0  0  0  0  0  0  0  0
  -27.7957  -21.0837   24.3860 C   0  0  0  0  0  0  0  0  0  0  0  0
  -26.7133  -22.8188   25.8146 C   0  0  0  0  0  0  0  0  0  0  0  0
  -25.5876  -10.1569   23.0294 C   0  0  0  0  0  0  0  0  0  0  0  0
  -23.1828  -17.0718   26.9890 C   0  0  0  0  0  0  0  0  0  0  0  0
  -27.4756  -12.6773   19.1148 C   0  0  0  0  0  0  0  0  0  0  0  0
  -21.9904  -16.0439   18.2790 C   0  0  0  0  0  0  0  0  0  0  0  0
  -22.0417  -16.9380   19.5139 C   0  0  0  0  0  0  0  0  0  1  0  0
  -25.2907  -21.0065   24.7733 C   0  0  1  0  0  0  0  0  0  0  0  0
  -25.4525  -18.0940   27.1942 C   0  0  2  0  0  0  0  0  0  0  0  0
  -23.1050  -14.9932   18.2575 C   0  0  1  0  0  0  0  0  0  0  0  0
  -26.5201  -21.9348   24.5631 C   0  0  0  0  0  0  0  0  0  0  0  0
  -29.6135  -19.6697   20.6203 N   0  0  0  0  0  0  0  0  0  0  0  0
  -26.0075  -11.8135   20.8246 N   0  0  0  0  0  0  0  0  0  0  0  0
  -25.1821  -13.4175   19.2421 N   0  0  0  0  0  0  0  0  0  0  0  0
  -23.7282  -12.5533   20.9440 N   0  0  0  0  0  0  0  0  0  0  0  0
  -28.7437  -18.6692   20.8405 N   0  0  0  0  0  0  0  0  0  0  0  0
  -23.0049  -21.5252   23.9795 N   0  0  0  0  0  0  0  0  0  0  0  0
  -30.0075  -15.0903   20.3897 N   0  0  0  0  0  0  0  0  0  0  0  0
  -26.4332  -18.1489   20.8773 N   0  0  0  0  0  0  0  0  0  0  0  0
  -26.4982  -22.5242   19.7599 N   0  0  0  0  0  0  0  0  0  0  0  0
  -24.5638  -10.9876   22.4773 N   0  0  0  0  0  0  0  0  0  0  0  0
  -22.9712  -14.1058   19.3939 N   0  0  0  0  0  0  0  0  0  0  0  0
  -21.4962  -24.6706   23.2307 N   0  0  0  0  0  0  0  0  0  0  0  0
  -25.3891  -20.1402   25.9430 N   0  0  0  0  0  0  0  0  0  0  0  0
  -28.2099  -13.8787   19.4440 N   0  0  0  0  0  0  0  0  0  0  0  0
  -24.6307  -16.8516   27.2383 N   0  3  0  0  0  0  0  0  0  0  0  0
  -25.1334  -20.7298   20.1799 O   0  0  0  0  0  0  0  0  0  0  0  0
  -22.7438  -23.1900   21.9369 O   0  0  0  0  0  0  0  0  0  0  0  0
  -23.8881  -22.5793   25.8623 O   0  0  0  0  0  0  0  0  0  0  0  0
  -25.1723  -18.1372   24.7949 O   0  0  0  0  0  0  0  0  0  0  0  0
  -29.9161  -12.7761   20.5070 O   0  0  0  0  0  0  0  0  0  0  0  0
  -31.0348  -25.6962   19.1335 O   0  0  0  0  0  0  0  0  0  0  0  0
  -20.9603  -17.8671   19.4528 O   0  0  0  0  0  0  0  0  0  1  0  0
  -28.7414  -30.1387   21.4591 F   0  0  0  0  0  0  0  0  0  0  0  0
  -32.5080  -27.3521   20.7859 F   0  0  0  0  0  0  0  0  0  0  0  0
  1  2  1  0  0  0  0
  1  5  2  0  0  0  0
  2  6  2  0  0  0  0
  3  8  2  0  0  0  0
  3 15  1  0  0  0  0
  4  9  1  0  0  0  0
  4 15  2  0  0  0  0
  5 17  1  0  0  0  0
  6 19  1  0  0  0  0
  7 10  2  0  0  0  0
  7 18  1  0  0  0  0
  8 21  1  0  0  0  0
  9 21  2  0  0  0  0
 10 22  1  0  0  0  0
 11 12  2  0  0  0  0
 11 23  1  0  0  0  0
 12 24  1  0  0  0  0
 13 20  1  0  0  0  0
 13 22  2  0  0  0  0
 14 24  2  0  0  0  0
 14 25  1  0  0  0  0
 15 26  1  0  0  0  0
 16 26  1  0  0  0  0
 16 27  2  0  0  0  0
 16 31  1  0  0  0  0
 17 19  2  0  0  0  0
 17 36  1  0  0  0  0
 18 20  2  0  0  0  0
 18 37  1  0  0  0  0
 19 45  1  0  0  0  0
 20 38  1  0  0  0  0
 21 82  1  0  0  0  0
 22 83  1  0  0  0  0
 23 25  2  0  0  0  0
 23 82  1  0  0  0  0
 24 84  1  0  0  0  0
 25 85  1  0  0  0  0
 26 62  2  0  0  0  0
 27 66  1  0  0  0  0
 27 69  1  0  0  0  0
 28 55  1  0  0  0  0
 28 63  2  0  0  0  0
 28 64  1  0  0  0  0
 29 63  1  0  0  0  0
 29 65  2  0  0  0  0
 29 71  1  0  0  0  0
 30 64  2  0  0  0  0
 30 65  1  0  0  0  0
 30 72  1  0  0  0  0
 31 70  1  0  0  0  0
 31 77  2  0  0  0  0
 32 46  1  0  0  0  0
 32 73  1  0  0  0  0
 32 78  2  0  0  0  0
 33 58  1  0  0  0  0
 33 67  1  0  0  0  0
 33 79  2  0  0  0  0
 34 59  1  0  0  0  0
 34 74  1  0  0  0  0
 34 80  2  0  0  0  0
 35 68  1  0  0  0  0
 35 75  1  0  0  0  0
 35 81  2  0  0  0  0
 36 39  1  0  0  0  0
 37 46  1  0  0  0  0
 38 67  1  0  0  0  0
 39 41  1  0  0  0  0
 40 42  1  0  0  0  0
 40 43  1  0  0  0  0
 41 45  1  0  0  0  0
 42 47  1  0  0  0  0
 43 68  1  0  0  0  0
 44 47  1  0  0  0  0
 44 68  1  0  0  0  0
 45 73  1  0  0  0  0
 46 67  1  0  0  0  0
 47 66  1  0  0  0  0
 48 59  1  0  0  0  0
 49 60  1  0  0  0  0
 50 61  1  0  0  0  0
 51 61  1  0  0  0  0
 52 61  1  0  0  0  0
 53 71  1  0  0  0  0
 54 76  1  0  0  0  0
 55 75  1  0  0  0  0
 56 57  1  0  0  0  0
 56 60  1  0  0  0  0
 57 83  1  0  0  0  0
 58 61  1  0  0  0  0
 58 74  1  0  0  0  0
 59 76  1  0  0  0  0
 60 72  1  0  0  0  0
 62 66  1  0  0  0  0
M  CHG  1  76   1
M  ISO  4  35 100  57 101  75 100  83 101
M  END
> <Batch ID>
0191

> <Smiles>
CNc1nc(C[100NH:0][100C:0](=O)N2CCCC(n3nc(-c4ccc(Oc5ccc(F)cc5F)cc4)c(C(N)=O)c3N)C2)nc(NC(C)C[101CH2:1][101O:1]c2ccc3c(c2)CN(C(=O)C(NC(=O)C(C)NC)C(C)(C)C)C(C(=O)NC2CCCc4ccccc42)C3)n1

> <Shape>
0.241

> <Color>
0.069

> <Negative vol penalty>
0.000

$$$$

  -OEChem-04052305243D

 85 93  0     1  0  0  0  0  0999 V2000
  -19.2194  -33.9870   21.0733 C   0  0  0  0  0  0  0  0  0  0  0  0
  -20.5205  -33.6373   20.7262 C   0  0  0  0  0  0  0  0  0  0  0  0
  -24.0354  -12.6829   21.0537 C   0  0  0  0  0  0  0  0  0  0  0  0
  -26.3380  -12.1977   20.5060 C   0  0  0  0  0  0  0  0  0  0  0  0
  -18.5829  -33.3381   22.1305 C   0  0  0  0  0  0  0  0  0  0  0  0
  -21.1862  -32.6393   21.4369 C   0  0  0  0  0  0  0  0  0  0  0  0
  -25.2062  -28.5913   19.2101 C   0  0  0  0  0  0  0  0  0  0  0  0
  -23.6856  -11.3677   20.7481 C   0  0  0  0  0  0  0  0  0  0  0  0
  -25.9881  -10.8824   20.2005 C   0  0  0  0  0  0  0  0  0  0  0  0
  -26.6000  -28.5585   19.2063 C   0  0  0  0  0  0  0  0  0  0  0  0
  -22.2481   -8.0413   20.4582 C   0  0  0  0  0  0  0  0  0  0  0  0
  -21.4002   -7.3738   21.3420 C   0  0  0  0  0  0  0  0  0  0  0  0
  -26.5666  -27.1673   21.1767 C   0  0  0  0  0  0  0  0  0  0  0  0
  -23.0172   -7.6650   23.1133 C   0  0  0  0  0  0  0  0  0  0  0  0
  -31.0095  -20.8929   21.9511 C   0  0  0  0  0  0  0  0  0  0  0  0
  -25.3616  -13.0979   20.9326 C   0  0  0  0  0  0  0  0  0  0  0  0
  -26.1275  -14.9605   22.4984 C   0  0  0  0  0  0  0  0  0  0  0  0
  -19.2377  -32.3250   22.8484 C   0  0  0  0  0  0  0  0  0  0  0  0
  -24.4812  -27.9202   20.2052 C   0  0  0  0  0  0  0  0  0  0  0  0
  -20.5583  -31.9772   22.5056 C   0  0  0  0  0  0  0  0  0  0  0  0
  -25.1636  -27.1910   21.1894 C   0  0  0  0  0  0  0  0  0  0  0  0
  -24.6619  -10.4674   20.3215 C   0  0  0  0  0  0  0  0  0  0  0  0
  -27.2805  -27.8488   20.1914 C   0  0  0  0  0  0  0  0  0  0  0  0
  -23.4806   -8.5207   20.9020 C   0  0  0  0  0  0  0  0  0  0  0  0
  -21.7847   -7.1856   22.6695 C   0  0  0  0  0  0  0  0  0  0  0  0
  -23.8651   -8.3325   22.2295 C   0  0  0  0  0  0  0  0  0  0  0  0
  -25.7236  -14.4566   21.2475 C   0  0  0  0  0  0  0  0  0  0  0  0
  -30.2250  -21.1602   20.8487 C   0  0  0  0  0  0  0  0  0  0  0  0
  -26.3562  -16.2960   22.2729 C   0  0  0  0  0  0  0  0  0  0  0  0
  -31.2881  -23.0747   20.9691 C   0  0  0  0  0  0  0  0  0  0  0  0
  -26.2822  -14.2822   23.7520 C   0  0  0  0  0  0  0  0  0  0  0  0
  -22.4577  -28.8078   22.4903 C   0  0  0  0  0  0  0  0  0  0  0  0
  -22.1366  -25.6072   22.9090 C   0  0  0  0  0  0  0  0  0  0  0  0
  -23.4740  -22.4888   22.5432 C   0  0  0  0  0  0  0  0  0  0  0  0
  -28.4746  -20.4231   19.1937 C   0  0  0  0  0  0  0  0  0  0  0  0
  -18.5259  -31.6848   24.0138 C   0  0  0  0  0  0  0  0  0  0  0  0
  -22.9774  -27.9433   20.1798 C   0  0  0  0  0  0  0  0  0  0  0  0
  -24.4314  -26.4369   22.2681 C   0  0  0  0  0  0  0  0  0  0  0  0
  -19.1665  -30.3785   24.4758 C   0  0  0  0  0  0  0  0  0  0  0  0
  -25.2625  -19.1953   18.2705 C   0  0  0  0  0  0  0  0  0  0  0  0
  -20.6789  -30.5380   24.5937 C   0  0  0  0  0  0  0  0  0  0  0  0
  -25.1294  -17.8945   19.0656 C   0  0  0  0  0  0  0  0  0  0  0  0
  -26.6930  -19.4180   17.7828 C   0  0  0  0  0  0  0  0  0  0  0  0
  -27.5899  -18.0463   19.6221 C   0  0  0  0  0  0  0  0  0  0  0  0
  -21.3047  -30.8825   23.2368 C   0  0  1  0  0  0  0  0  0  0  0  0
  -22.3522  -27.6488   21.5398 C   0  0  1  0  0  0  0  0  0  0  0  0
  -26.1806  -17.8109   20.1897 C   0  0  2  0  0  0  0  0  0  0  0  0
  -31.9606  -24.7398   15.7656 C   0  0  0  0  0  0  0  0  0  0  0  0
  -23.5837  -19.9822   22.5894 C   0  0  0  0  0  0  0  0  0  0  0  0
  -22.7992  -26.0524   25.8540 C   0  0  0  0  0  0  0  0  0  0  0  0
  -23.2370  -23.5955   26.0550 C   0  0  0  0  0  0  0  0  0  0  0  0
  -20.9616  -24.4086   25.4351 C   0  0  0  0  0  0  0  0  0  0  0  0
  -22.3718  -22.2744   19.8049 C   0  0  0  0  0  0  0  0  0  0  0  0
  -31.2734  -25.2786   17.0114 C   0  0  0  0  0  0  0  0  0  0  0  0
  -31.8110  -24.6102   18.2781 C   0  0  0  0  0  0  0  0  0  0  0  0
  -30.7903  -27.1794   21.1342 C   0  0  0  0  0  0  0  0  0  0  0  0
  -29.2732  -27.0693   21.2294 C   0  0  0  0  0  0  0  0  0  1  0  0
  -22.8359  -24.5630   23.7454 C   0  0  1  0  0  0  0  0  0  0  0  0
  -22.8874  -21.1987   21.9994 C   0  0  2  0  0  0  0  0  0  0  0  0
  -31.1618  -25.1380   19.5718 C   0  0  2  0  0  0  0  0  0  0  0  0
  -31.3932  -26.6424   19.8235 C   0  0  2  0  0  0  0  0  0  0  0  0
  -22.4726  -24.6706   25.2533 C   0  0  0  0  0  0  0  0  0  0  0  0
  -25.6961  -15.3954   20.2979 N   0  0  0  0  0  0  0  0  0  0  0  0
  -30.3831  -22.4110   20.2845 N   0  0  0  0  0  0  0  0  0  0  0  0
  -26.0855  -16.5027   20.9523 N   0  0  0  0  0  0  0  0  0  0  0  0
  -22.9617  -26.4950   22.2042 N   0  0  0  0  0  0  0  0  0  0  0  0
  -27.6329  -19.3288   18.9024 N   0  0  0  0  0  0  0  0  0  0  0  0
  -26.7603  -17.3018   23.0776 N   0  0  0  0  0  0  0  0  0  0  0  0
  -26.0054  -12.9094   23.8075 N   0  0  0  0  0  0  0  0  0  0  0  0
  -29.3023  -20.2353   20.3001 N   0  0  0  0  0  0  0  0  0  0  0  0
  -31.6933  -24.3626   20.6788 N   0  0  0  0  0  0  0  0  0  0  0  0
  -21.4040  -29.6983   22.4108 N   0  0  0  0  0  0  0  0  0  0  0  0
  -22.5125  -23.2740   23.1433 N   0  0  0  0  0  0  0  0  0  0  0  0
  -23.0304  -21.1490   20.5168 N   0  3  0  0  0  0  0  0  0  0  0  0
  -26.6392  -14.8791   24.7959 O   0  0  0  0  0  0  0  0  0  0  0  0
  -23.4228  -28.8875   23.2412 O   0  0  0  0  0  0  0  0  0  0  0  0
  -20.9037  -25.6297   22.8765 O   0  0  0  0  0  0  0  0  0  0  0  0
  -24.6667  -22.7701   22.4486 O   0  0  0  0  0  0  0  0  0  0  0  0
  -28.4426  -21.4616   18.5285 O   0  0  0  0  0  0  0  0  0  0  0  0
  -32.7980  -26.9069   19.8315 O   0  0  0  0  0  0  0  0  0  0  0  0
  -24.3209   -9.1839   20.0235 O   0  0  0  0  0  0  0  0  0  0  0  0
  -28.6409  -27.8157   20.1904 O   0  0  0  0  0  0  0  0  0  1  0  0
  -20.9697   -6.5460   23.5185 F   0  0  0  0  0  0  0  0  0  0  0  0
  -25.0474   -8.7918   22.6619 F   0  0  0  0  0  0  0  0  0  0  0  0
  -31.9901  -22.2551   22.3034 S   0  0  0  0  0  0  0  0  0  0  0  0
  1  2  1  0  0  0  0
  1  5  2  0  0  0  0
  2  6  2  0  0  0  0
  3  8  2  0  0  0  0
  3 16  1  0  0  0  0
  4  9  1  0  0  0  0
  4 16  2  0  0  0  0
  5 18  1  0  0  0  0
  6 20  1  0  0  0  0
  7 10  2  0  0  0  0
  7 19  1  0  0  0  0
  8 22  1  0  0  0  0
  9 22  2  0  0  0  0
 10 23  1  0  0  0  0
 11 12  2  0  0  0  0
 11 24  1  0  0  0  0
 12 25  1  0  0  0  0
 13 21  1  0  0  0  0
 13 23  2  0  0  0  0
 14 25  2  0  0  0  0
 14 26  1  0  0  0  0
 15 28  2  0  0  0  0
 15 85  1  0  0  0  0
 16 27  1  0  0  0  0
 17 27  1  0  0  0  0
 17 29  2  0  0  0  0
 17 31  1  0  0  0  0
 18 20  2  0  0  0  0
 18 36  1  0  0  0  0
 19 21  2  0  0  0  0
 19 37  1  0  0  0  0
 20 45  1  0  0  0  0
 21 38  1  0  0  0  0
 22 81  1  0  0  0  0
 23 82  1  0  0  0  0
 24 26  2  0  0  0  0
 24 81  1  0  0  0  0
 25 83  1  0  0  0  0
 26 84  1  0  0  0  0
 27 63  2  0  0  0  0
 28 64  1  0  0  0  0
 28 70  1  0  0  0  0
 29 65  1  0  0  0  0
 29 68  1  0  0  0  0
 30 64  2  0  0  0  0
 30 71  1  0  0  0  0
 30 85  1  0  0  0  0
 31 69  1  0  0  0  0
 31 75  2  0  0  0  0
 32 46  1  0  0  0  0
 32 72  1  0  0  0  0
 32 76  2  0  0  0  0
 33 58  1  0  0  0  0
 33 66  1  0  0  0  0
 33 77  2  0  0  0  0
 34 59  1  0  0  0  0
 34 73  1  0  0  0  0
 34 78  2  0  0  0  0
 35 67  1  0  0  0  0
 35 70  1  0  0  0  0
 35 79  2  0  0  0  0
 36 39  1  0  0  0  0
 37 46  1  0  0  0  0
 38 66  1  0  0  0  0
 39 41  1  0  0  0  0
 40 42  1  0  0  0  0
 40 43  1  0  0  0  0
 41 45  1  0  0  0  0
 42 47  1  0  0  0  0
 43 67  1  0  0  0  0
 44 47  1  0  0  0  0
 44 67  1  0  0  0  0
 45 72  1  0  0  0  0
 46 66  1  0  0  0  0
 47 65  1  0  0  0  0
 48 54  1  0  0  0  0
 49 59  1  0  0  0  0
 50 62  1  0  0  0  0
 51 62  1  0  0  0  0
 52 62  1  0  0  0  0
 53 74  1  0  0  0  0
 54 55  1  0  0  0  0
 55 60  1  0  0  0  0
 56 57  1  0  0  0  0
 56 61  1  0  0  0  0
 57 82  1  0  0  0  0
 58 62  1  0  0  0  0
 58 73  1  0  0  0  0
 59 74  1  0  0  0  0
 60 61  1  0  0  0  0
 60 71  1  0  0  0  0
 61 80  1  0  0  0  0
 63 65  1  0  0  0  0
M  CHG  1  74   1
M  ISO  4  35 100  57 101  70 100  82 101
M  END
> <Batch ID>
0191

> <Smiles>
CCCC(Nc1nc([100NH:0][100C:0](=O)N2CCCC(n3nc(-c4ccc(Oc5ccc(F)cc5F)cc4)c(C(N)=O)c3N)C2)cs1)C(O)C[101CH2:1][101O:1]c1ccc2c(c1)CN(C(=O)C(NC(=O)C(C)NC)C(C)(C)C)C(C(=O)NC1CCCc3ccccc31)C2

> <Shape>
0.225

> <Color>
0.083

> <Negative vol penalty>
0.000

$$$$

  -OEChem-04052305243D

 88 96  0     1  0  0  0  0  0999 V2000
  -37.3504  -23.0622   15.2942 C   0  0  0  0  0  0  0  0  0  0  0  0
  -36.4122  -22.7161   16.2615 C   0  0  0  0  0  0  0  0  0  0  0  0
  -23.0751   -9.8073   19.9695 C   0  0  0  0  0  0  0  0  0  0  0  0
  -23.7598   -9.8905   22.2850 C   0  0  0  0  0  0  0  0  0  0  0  0
  -37.5262  -24.3998   14.9424 C   0  0  0  0  0  0  0  0  0  0  0  0
  -35.6502  -23.7077   16.8783 C   0  0  0  0  0  0  0  0  0  0  0  0
  -30.7533  -22.4632   17.2205 C   0  0  0  0  0  0  0  0  0  0  0  0
  -22.3054   -8.6754   20.2378 C   0  0  0  0  0  0  0  0  0  0  0  0
  -22.9900   -8.7587   22.5533 C   0  0  0  0  0  0  0  0  0  0  0  0
  -30.3924  -21.5694   18.2278 C   0  0  0  0  0  0  0  0  0  0  0  0
  -19.2991   -7.9777   21.6192 C   0  0  0  0  0  0  0  0  0  0  0  0
  -18.0082   -7.9320   21.0929 C   0  0  0  0  0  0  0  0  0  0  0  0
  -29.6375  -23.4144   19.5862 C   0  0  0  0  0  0  0  0  0  0  0  0
  -18.5800   -5.9321   19.8639 C   0  0  0  0  0  0  0  0  0  0  0  0
  -30.7135  -17.0310   23.6741 C   0  0  0  0  0  0  0  0  0  0  0  0
  -32.2857  -18.1544   22.6144 C   0  0  0  0  0  0  0  0  0  0  0  0
  -23.8024  -10.4148   20.9931 C   0  0  0  0  0  0  0  0  0  0  0  0
  -24.1878  -12.9283   20.7897 C   0  0  0  0  0  0  0  0  0  0  0  0
  -36.7591  -25.4073   15.5482 C   0  0  0  0  0  0  0  0  0  0  0  0
  -30.5688  -23.8426   17.3932 C   0  0  0  0  0  0  0  0  0  0  0  0
  -35.8169  -25.0602   16.5352 C   0  0  0  0  0  0  0  0  0  0  0  0
  -29.9945  -24.3235   18.5786 C   0  0  0  0  0  0  0  0  0  0  0  0
  -22.2627   -8.1511   21.5296 C   0  0  0  0  0  0  0  0  0  0  0  0
  -29.8371  -22.0452   19.4120 C   0  0  0  0  0  0  0  0  0  0  0  0
  -20.2305   -7.0006   21.2678 C   0  0  0  0  0  0  0  0  0  0  0  0
  -17.6486   -6.9092   20.2153 C   0  0  0  0  0  0  0  0  0  0  0  0
  -19.8709   -5.9778   20.3902 C   0  0  0  0  0  0  0  0  0  0  0  0
  -24.5982  -11.5837   20.7165 C   0  0  0  0  0  0  0  0  0  0  0  0
  -31.0407  -16.4332   22.4799 C   0  0  0  0  0  0  0  0  0  0  0  0
  -25.3030  -13.6474   20.4350 C   0  0  0  0  0  0  0  0  0  0  0  0
  -22.9127  -13.4781   21.1465 C   0  0  0  0  0  0  0  0  0  0  0  0
  -32.4954  -26.3690   17.4880 C   0  0  0  0  0  0  0  0  0  0  0  0
  -29.6989  -28.0089   17.5997 C   0  0  0  0  0  0  0  0  0  0  0  0
  -26.3743  -28.0178   18.3700 C   0  0  0  0  0  0  0  0  0  0  0  0
  -30.7763  -14.6194   20.7517 C   0  0  0  0  0  0  0  0  0  0  0  0
  -37.0181  -26.8439   15.1691 C   0  0  0  0  0  0  0  0  0  0  0  0
  -30.9386  -24.7915   16.2864 C   0  0  0  0  0  0  0  0  0  0  0  0
  -29.7568  -25.7934   18.8052 C   0  0  0  0  0  0  0  0  0  0  0  0
  -35.9070  -27.7976   15.6007 C   0  0  0  0  0  0  0  0  0  0  0  0
  -29.7019  -12.1334   18.4403 C   0  0  0  0  0  0  0  0  0  0  0  0
  -35.5031  -27.5271   17.0465 C   0  0  0  0  0  0  0  0  0  0  0  0
  -28.2446  -11.8794   18.8325 C   0  0  0  0  0  0  0  0  0  0  0  0
  -30.5808  -12.3946   19.6622 C   0  0  0  0  0  0  0  0  0  0  0  0
  -28.6414  -13.1989   20.9511 C   0  0  0  0  0  0  0  0  0  0  0  0
  -34.9537  -26.1047   17.2090 C   0  0  1  0  0  0  0  0  0  0  0  0
  -31.1809  -26.2158   16.7764 C   0  0  1  0  0  0  0  0  0  0  0  0
  -27.7050  -12.9949   19.7489 C   0  0  2  0  0  0  0  0  0  0  0  0
  -30.0752  -19.3933   29.1574 C   0  0  0  0  0  0  0  0  0  0  0  0
  -27.4258  -20.1803   26.6669 C   0  0  0  0  0  0  0  0  0  0  0  0
  -24.3606  -29.5151   18.3888 C   0  0  0  0  0  0  0  0  0  0  0  0
  -30.7575  -29.3971   20.1021 C   0  0  0  0  0  0  0  0  0  0  0  0
  -28.4165  -30.1317   20.6003 C   0  0  0  0  0  0  0  0  0  0  0  0
  -29.5442  -30.8974   18.5112 C   0  0  0  0  0  0  0  0  0  0  0  0
  -31.1259  -21.3937   27.0371 C   0  0  0  0  0  0  0  0  0  0  0  0
  -24.9212  -26.2813   16.4642 C   0  0  0  0  0  0  0  0  0  0  0  0
  -30.2076  -19.1188   27.6617 C   0  0  0  0  0  0  0  0  0  0  0  0
  -28.6578  -21.0351   26.9389 C   0  0  0  0  0  0  0  0  0  0  0  0
  -29.9614  -20.9854   24.1470 C   0  0  0  0  0  0  0  0  0  0  0  0
  -31.5545  -19.1452   24.8717 C   0  0  0  0  0  0  0  0  0  0  0  0
  -29.5553  -21.6528   21.7407 C   0  0  0  0  0  0  0  0  0  1  0  0
  -28.7866  -28.4928   18.7008 C   0  0  1  0  0  0  0  0  0  0  0  0
  -25.1615  -28.4966   17.5926 C   0  0  2  0  0  0  0  0  0  0  0  0
  -30.1901  -19.8445   25.1849 C   0  0  1  0  0  0  0  0  0  0  0  0
  -29.8460  -20.4944   22.6930 C   0  0  2  0  0  0  0  0  0  0  0  0
  -29.3823  -29.7022   19.4754 C   0  0  0  0  0  0  0  0  0  0  0  0
  -30.0413  -20.3399   26.6982 C   0  0  0  0  0  0  0  0  0  0  0  0
  -32.0201  -17.1372   21.8252 N   0  0  0  0  0  0  0  0  0  0  0  0
  -25.8744  -11.4536   20.3444 N   0  0  0  0  0  0  0  0  0  0  0  0
  -31.5196  -18.1320   23.7466 N   0  0  0  0  0  0  0  0  0  0  0  0
  -26.2755  -12.7257   20.1805 N   0  0  0  0  0  0  0  0  0  0  0  0
  -30.1409  -26.6818   17.6958 N   0  0  0  0  0  0  0  0  0  0  0  0
  -30.0098  -13.4662   20.4811 N   0  0  0  0  0  0  0  0  0  0  0  0
  -25.5367  -14.9719   20.3191 N   0  0  0  0  0  0  0  0  0  0  0  0
  -21.8760  -12.5973   21.4839 N   0  0  0  0  0  0  0  0  0  0  0  0
  -30.4660  -15.2482   21.9571 N   0  0  0  0  0  0  0  0  0  0  0  0
  -33.5934  -26.0294   16.7208 N   0  0  0  0  0  0  0  0  0  0  0  0
  -27.4970  -28.7615   18.0738 N   0  0  0  0  0  0  0  0  0  0  0  0
  -24.2692  -27.3485   17.2660 N   0  3  0  0  0  0  0  0  0  0  0  0
  -22.6941  -14.7133   21.1497 O   0  0  0  0  0  0  0  0  0  0  0  0
  -32.5124  -26.7672   18.6468 O   0  0  0  0  0  0  0  0  0  0  0  0
  -30.0024  -28.7778   16.6841 O   0  0  0  0  0  0  0  0  0  0  0  0
  -26.3293  -27.0804   19.1635 O   0  0  0  0  0  0  0  0  0  0  0  0
  -31.6253  -15.0351   19.9590 O   0  0  0  0  0  0  0  0  0  0  0  0
  -28.7828  -19.5462   22.5904 O   0  0  0  0  0  0  0  0  0  0  0  0
  -21.5115   -7.0468   21.7918 O   0  0  0  0  0  0  0  0  0  0  0  0
  -29.4823  -21.1694   20.4033 O   0  0  0  0  0  0  0  0  0  1  0  0
  -16.4084   -6.8647   19.7111 F   0  0  0  0  0  0  0  0  0  0  0  0
  -20.7610   -5.0356   20.0499 F   0  0  0  0  0  0  0  0  0  0  0  0
  1  2  1  0  0  0  0
  1  5  2  0  0  0  0
  2  6  2  0  0  0  0
  3  8  2  0  0  0  0
  3 17  1  0  0  0  0
  4  9  1  0  0  0  0
  4 17  2  0  0  0  0
  5 19  1  0  0  0  0
  6 21  1  0  0  0  0
  7 10  2  0  0  0  0
  7 20  1  0  0  0  0
  8 23  1  0  0  0  0
  9 23  2  0  0  0  0
 10 24  1  0  0  0  0
 11 12  2  0  0  0  0
 11 25  1  0  0  0  0
 12 26  1  0  0  0  0
 13 22  1  0  0  0  0
 13 24  2  0  0  0  0
 14 26  2  0  0  0  0
 14 27  1  0  0  0  0
 15 29  2  0  0  0  0
 15 69  1  0  0  0  0
 16 67  2  0  0  0  0
 16 69  1  0  0  0  0
 17 28  1  0  0  0  0
 18 28  1  0  0  0  0
 18 30  2  0  0  0  0
 18 31  1  0  0  0  0
 19 21  2  0  0  0  0
 19 36  1  0  0  0  0
 20 22  2  0  0  0  0
 20 37  1  0  0  0  0
 21 45  1  0  0  0  0
 22 38  1  0  0  0  0
 23 85  1  0  0  0  0
 24 86  1  0  0  0  0
 25 27  2  0  0  0  0
 25 85  1  0  0  0  0
 26 87  1  0  0  0  0
 27 88  1  0  0  0  0
 28 68  2  0  0  0  0
 29 67  1  0  0  0  0
 29 75  1  0  0  0  0
 30 70  1  0  0  0  0
 30 73  1  0  0  0  0
 31 74  1  0  0  0  0
 31 79  2  0  0  0  0
 32 46  1  0  0  0  0
 32 76  1  0  0  0  0
 32 80  2  0  0  0  0
 33 61  1  0  0  0  0
 33 71  1  0  0  0  0
 33 81  2  0  0  0  0
 34 62  1  0  0  0  0
 34 77  1  0  0  0  0
 34 82  2  0  0  0  0
 35 72  1  0  0  0  0
 35 75  1  0  0  0  0
 35 83  2  0  0  0  0
 36 39  1  0  0  0  0
 37 46  1  0  0  0  0
 38 71  1  0  0  0  0
 39 41  1  0  0  0  0
 40 42  1  0  0  0  0
 40 43  1  0  0  0  0
 41 45  1  0  0  0  0
 42 47  1  0  0  0  0
 43 72  1  0  0  0  0
 44 47  1  0  0  0  0
 44 72  1  0  0  0  0
 45 76  1  0  0  0  0
 46 71  1  0  0  0  0
 47 70  1  0  0  0  0
 48 56  1  0  0  0  0
 49 57  1  0  0  0  0
 50 62  1  0  0  0  0
 51 65  1  0  0  0  0
 52 65  1  0  0  0  0
 53 65  1  0  0  0  0
 54 66  1  0  0  0  0
 55 78  1  0  0  0  0
 56 66  1  0  0  0  0
 57 66  1  0  0  0  0
 58 63  1  0  0  0  0
 58 64  1  0  0  0  0
 59 63  1  0  0  0  0
 59 69  1  0  0  0  0
 60 64  1  0  0  0  0
 60 86  1  0  0  0  0
 61 65  1  0  0  0  0
 61 77  1  0  0  0  0
 62 78  1  0  0  0  0
 63 66  1  0  0  0  0
 64 84  1  0  0  0  0
 68 70  1  0  0  0  0
M  CHG  1  78   1
M  ISO  4  35 100  60 101  75 100  86 101
M  END
> <Batch ID>
0191

> <Smiles>
CCC(C)(CC)C(CC(O)[101CH2:1][101O:1]c1ccc2c(c1)CN(C(=O)C(NC(=O)C(C)NC)C(C)(C)C)C(C(=O)NC1CCCc3ccccc31)C2)Cn1cnc([100NH:0][100C:0](=O)N2CCCC(n3nc(-c4ccc(Oc5ccc(F)cc5F)cc4)c(C(N)=O)c3N)C2)c1

> <Shape>
0.229

> <Color>
0.162

> <Negative vol penalty>
0.000

$$$$

  -OEChem-04052305243D

 86 94  0     1  0  0  0  0  0999 V2000
  -21.9306  -10.9557   19.6267 C   0  0  0  0  0  0  0  0  0  0  0  0
  -21.5984  -12.1929   20.1693 C   0  0  0  0  0  0  0  0  0  0  0  0
  -19.5631  -26.4604   19.9902 C   0  0  0  0  0  0  0  0  0  0  0  0
  -20.3972  -24.6337   21.3335 C   0  0  0  0  0  0  0  0  0  0  0  0
  -23.2617  -10.5417   19.6013 C   0  0  0  0  0  0  0  0  0  0  0  0
  -22.5971  -13.0164   20.6878 C   0  0  0  0  0  0  0  0  0  0  0  0
  -22.7790  -19.1356   20.5190 C   0  0  0  0  0  0  0  0  0  0  0  0
  -18.5376  -25.6430   19.5153 C   0  0  0  0  0  0  0  0  0  0  0  0
  -19.3716  -23.8162   20.8586 C   0  0  0  0  0  0  0  0  0  0  0  0
  -22.4466  -20.1102   21.4589 C   0  0  0  0  0  0  0  0  0  0  0  0
  -16.0799  -23.3474   21.4633 C   0  0  0  0  0  0  0  0  0  0  0  0
  -15.3959  -22.5629   22.3919 C   0  0  0  0  0  0  0  0  0  0  0  0
  -24.7594  -20.2413   22.1320 C   0  0  0  0  0  0  0  0  0  0  0  0
  -16.0755  -20.5693   21.2083 C   0  0  0  0  0  0  0  0  0  0  0  0
  -29.4657  -22.6950   23.1650 C   0  0  0  0  0  0  0  0  0  0  0  0
  -20.4930  -25.9558   20.8993 C   0  0  0  0  0  0  0  0  0  0  0  0
  -21.5242  -27.6246   22.5301 C   0  0  0  0  0  0  0  0  0  0  0  0
  -24.2784  -11.3647   20.1110 C   0  0  0  0  0  0  0  0  0  0  0  0
  -24.1046  -18.6979   20.3858 C   0  0  0  0  0  0  0  0  0  0  0  0
  -23.9429  -12.6125   20.6704 C   0  0  0  0  0  0  0  0  0  0  0  0
  -25.1064  -19.2629   21.1879 C   0  0  0  0  0  0  0  0  0  0  0  0
  -18.4417  -24.3209   19.9495 C   0  0  0  0  0  0  0  0  0  0  0  0
  -23.4364  -20.6611   22.2676 C   0  0  0  0  0  0  0  0  0  0  0  0
  -16.7617  -22.7429   20.4071 C   0  0  0  0  0  0  0  0  0  0  0  0
  -15.3937  -21.1739   22.2644 C   0  0  0  0  0  0  0  0  0  0  0  0
  -16.7595  -21.3538   20.2796 C   0  0  0  0  0  0  0  0  0  0  0  0
  -21.5530  -26.7995   21.3898 C   0  0  0  0  0  0  0  0  0  0  0  0
  -28.6717  -23.7350   22.7292 C   0  0  0  0  0  0  0  0  0  0  0  0
  -22.7652  -28.2122   22.5602 C   0  0  0  0  0  0  0  0  0  0  0  0
  -27.2527  -22.7936   24.1113 C   0  0  0  0  0  0  0  0  0  0  0  0
  -20.4698  -27.8404   23.4774 C   0  0  0  0  0  0  0  0  0  0  0  0
  -25.5963  -15.9158   20.7574 C   0  0  0  0  0  0  0  0  0  0  0  0
  -25.1515  -24.6395   25.5568 C   0  0  0  0  0  0  0  0  0  0  0  0
  -28.1320  -17.5618   19.5814 C   0  0  0  0  0  0  0  0  0  0  0  0
  -29.6503  -20.5776   19.0850 C   0  0  0  0  0  0  0  0  0  0  0  0
  -28.0981  -26.5917   20.3727 C   0  0  0  0  0  0  0  0  0  0  0  0
  -25.6975  -10.8540   20.1045 C   0  0  0  0  0  0  0  0  0  0  0  0
  -24.4512  -17.6651   19.3487 C   0  0  0  0  0  0  0  0  0  0  0  0
  -26.5478  -18.8421   21.0703 C   0  0  0  0  0  0  0  0  0  0  0  0
  -26.7389  -11.9463   20.3340 C   0  0  0  0  0  0  0  0  0  0  0  0
  -26.3227  -29.5985   19.6769 C   0  0  0  0  0  0  0  0  0  0  0  0
  -26.3306  -12.8359   21.5039 C   0  0  0  0  0  0  0  0  0  0  0  0
  -24.8964  -29.2965   20.1399 C   0  0  0  0  0  0  0  0  0  0  0  0
  -26.9862  -28.3712   19.0560 C   0  0  0  0  0  0  0  0  0  0  0  0
  -25.5440  -26.8617   20.3656 C   0  0  0  0  0  0  0  0  0  0  0  0
  -25.0007  -13.5447   21.2201 C   0  0  1  0  0  0  0  0  0  0  0  0
  -25.7493  -16.9241   19.6539 C   0  0  1  0  0  0  0  0  0  0  0  0
  -24.8533  -28.0540   21.0495 C   0  0  2  0  0  0  0  0  0  0  0  0
  -24.7473  -27.1106   25.9167 C   0  0  0  0  0  0  0  0  0  0  0  0
  -31.7332  -21.6010   18.1300 C   0  0  0  0  0  0  0  0  0  0  0  0
  -22.1898  -20.6009   25.1563 C   0  0  0  0  0  0  0  0  0  0  0  0
  -29.7011  -16.6520   22.0349 C   0  0  0  0  0  0  0  0  0  0  0  0
  -31.3914  -18.4274   21.5261 C   0  0  0  0  0  0  0  0  0  0  0  0
  -30.9873  -16.5872   19.8911 C   0  0  0  0  0  0  0  0  0  0  0  0
  -28.1115  -22.1346   17.0934 C   0  0  0  0  0  0  0  0  0  0  0  0
  -29.0655  -24.7701   21.7528 C   0  0  0  0  0  0  0  0  0  0  0  0
  -24.4762  -25.9009   25.0402 C   0  0  0  0  0  0  0  0  0  0  0  0
  -23.6923  -22.6208   25.3006 C   0  0  0  0  0  0  0  0  0  0  0  0
  -24.9100  -23.3709   24.7472 C   0  0  2  0  0  0  0  0  0  0  0  0
  -29.2404  -18.3914   20.1834 C   0  0  1  0  0  0  0  0  0  0  0  0
  -30.2949  -21.1905   17.8548 C   0  0  2  0  0  0  0  0  0  0  0  0
  -23.3933  -21.3146   24.5538 C   0  0  2  0  0  0  0  0  0  1  0  0
  -30.3027  -17.5212   20.9127 C   0  0  0  0  0  0  0  0  0  0  0  0
  -22.7199  -26.8555   20.7422 N   0  0  0  0  0  0  0  0  0  0  0  0
  -27.4022  -23.7930   23.2704 N   0  0  0  0  0  0  0  0  0  0  0  0
  -23.4357  -27.7228   21.4780 N   0  0  0  0  0  0  0  0  0  0  0  0
  -26.8354  -17.8245   20.0459 N   0  0  0  0  0  0  0  0  0  0  0  0
  -26.9127  -27.2286   19.9698 N   0  0  0  0  0  0  0  0  0  0  0  0
  -23.3374  -29.0948   23.4064 N   0  0  0  0  0  0  0  0  0  0  0  0
  -19.2597  -27.1566   23.2976 N   0  0  0  0  0  0  0  0  0  0  0  0
  -26.0977  -22.5483   24.8329 N   0  0  0  0  0  0  0  0  0  0  0  0
  -25.2051  -14.6631   20.3246 N   0  0  0  0  0  0  0  0  0  0  0  0
  -29.7773  -19.2047   19.0978 N   0  0  0  0  0  0  0  0  0  0  0  0
  -27.9396  -25.5216   21.2446 N   0  0  0  0  0  0  0  0  0  0  0  0
  -29.5368  -22.3975   17.4196 N   0  3  0  0  0  0  0  0  0  0  0  0
  -20.5914  -28.6291   24.4453 O   0  0  0  0  0  0  0  0  0  0  0  0
  -25.8183  -16.2492   21.9155 O   0  0  0  0  0  0  0  0  0  0  0  0
  -25.8369  -24.6373   26.5798 O   0  0  0  0  0  0  0  0  0  0  0  0
  -28.4057  -16.7170   18.7252 O   0  0  0  0  0  0  0  0  0  0  0  0
  -29.0934  -21.2500   19.9501 O   0  0  0  0  0  0  0  0  0  0  0  0
  -29.2154  -26.9536   19.9883 O   0  0  0  0  0  0  0  0  0  0  0  0
  -17.4410  -23.5230   19.4865 O   0  0  0  0  0  0  0  0  0  0  0  0
  -23.1145  -21.6120   23.1863 O   0  0  0  0  0  0  0  0  0  1  0  0
  -14.7381  -20.4206   23.1571 F   0  0  0  0  0  0  0  0  0  0  0  0
  -17.4136  -20.7673   19.2678 F   0  0  0  0  0  0  0  0  0  0  0  0
  -28.5985  -21.7457   24.3000 S   0  0  0  0  0  0  0  0  0  0  0  0
  1  2  1  0  0  0  0
  1  5  2  0  0  0  0
  2  6  2  0  0  0  0
  3  8  2  0  0  0  0
  3 16  1  0  0  0  0
  4  9  1  0  0  0  0
  4 16  2  0  0  0  0
  5 18  1  0  0  0  0
  6 20  1  0  0  0  0
  7 10  2  0  0  0  0
  7 19  1  0  0  0  0
  8 22  1  0  0  0  0
  9 22  2  0  0  0  0
 10 23  1  0  0  0  0
 11 12  2  0  0  0  0
 11 24  1  0  0  0  0
 12 25  1  0  0  0  0
 13 21  1  0  0  0  0
 13 23  2  0  0  0  0
 14 25  2  0  0  0  0
 14 26  1  0  0  0  0
 15 28  2  0  0  0  0
 15 86  1  0  0  0  0
 16 27  1  0  0  0  0
 17 27  1  0  0  0  0
 17 29  2  0  0  0  0
 17 31  1  0  0  0  0
 18 20  2  0  0  0  0
 18 37  1  0  0  0  0
 19 21  2  0  0  0  0
 19 38  1  0  0  0  0
 20 46  1  0  0  0  0
 21 39  1  0  0  0  0
 22 82  1  0  0  0  0
 23 83  1  0  0  0  0
 24 26  2  0  0  0  0
 24 82  1  0  0  0  0
 25 84  1  0  0  0  0
 26 85  1  0  0  0  0
 27 64  2  0  0  0  0
 28 56  1  0  0  0  0
 28 65  1  0  0  0  0
 29 66  1  0  0  0  0
 29 69  1  0  0  0  0
 30 65  2  0  0  0  0
 30 71  1  0  0  0  0
 30 86  1  0  0  0  0
 31 70  1  0  0  0  0
 31 76  2  0  0  0  0
 32 47  1  0  0  0  0
 32 72  1  0  0  0  0
 32 77  2  0  0  0  0
 33 57  1  0  0  0  0
 33 59  1  0  0  0  0
 33 78  2  0  0  0  0
 34 60  1  0  0  0  0
 34 67  1  0  0  0  0
 34 79  2  0  0  0  0
 35 61  1  0  0  0  0
 35 73  1  0  0  0  0
 35 80  2  0  0  0  0
 36 68  1  0  0  0  0
 36 74  1  0  0  0  0
 36 81  2  0  0  0  0
 37 40  1  0  0  0  0
 38 47  1  0  0  0  0
 39 67  1  0  0  0  0
 40 42  1  0  0  0  0
 41 43  1  0  0  0  0
 41 44  1  0  0  0  0
 42 46  1  0  0  0  0
 43 48  1  0  0  0  0
 44 68  1  0  0  0  0
 45 48  1  0  0  0  0
 45 68  1  0  0  0  0
 46 72  1  0  0  0  0
 47 67  1  0  0  0  0
 48 66  1  0  0  0  0
 49 57  1  0  0  0  0
 50 61  1  0  0  0  0
 51 62  1  0  0  0  0
 52 63  1  0  0  0  0
 53 63  1  0  0  0  0
 54 63  1  0  0  0  0
 55 75  1  0  0  0  0
 56 74  1  0  0  0  0
 58 59  1  0  0  0  0
 58 62  1  0  0  0  0
 59 71  1  0  0  0  0
 60 63  1  0  0  0  0
 60 73  1  0  0  0  0
 61 75  1  0  0  0  0
 62 83  1  0  0  0  0
 64 66  1  0  0  0  0
M  CHG  1  75   1
M  ISO  4  36 100  62 101  74 100  83 101
M  END
> <Batch ID>
0191

> <Smiles>
CCC(=O)C(C[101CH:1](C)[101O:1]c1ccc2c(c1)CN(C(=O)C(NC(=O)C(C)NC)C(C)(C)C)C(C(=O)NC1CCCc3ccccc31)C2)Nc1nc(C[100NH:0][100C:0](=O)N2CCCC(n3nc(-c4ccc(Oc5ccc(F)cc5F)cc4)c(C(N)=O)c3N)C2)cs1

> <Shape>
0.198

> <Color>
0.083

> <Negative vol penalty>
0.000

$$$$

  -OEChem-04052305243D

 90 98  0     1  0  0  0  0  0999 V2000
  -27.8857  -33.1250   27.0136 C   0  0  0  0  0  0  0  0  0  0  0  0
  -28.0357  -31.9953   26.2158 C   0  0  0  0  0  0  0  0  0  0  0  0
  -27.5567  -10.7530   22.0592 C   0  0  0  0  0  0  0  0  0  0  0  0
  -26.2242  -10.7029   20.0445 C   0  0  0  0  0  0  0  0  0  0  0  0
  -26.6102  -33.6072   27.3046 C   0  0  0  0  0  0  0  0  0  0  0  0
  -26.9101  -31.3464   25.7093 C   0  0  0  0  0  0  0  0  0  0  0  0
  -27.4076  -30.1249   20.8200 C   0  0  0  0  0  0  0  0  0  0  0  0
  -26.5057  -10.1722   22.7688 C   0  0  0  0  0  0  0  0  0  0  0  0
  -25.1731  -10.1220   20.7542 C   0  0  0  0  0  0  0  0  0  0  0  0
  -28.1803  -29.0040   20.5192 C   0  0  0  0  0  0  0  0  0  0  0  0
  -22.7406  -11.1313   22.8743 C   0  0  0  0  0  0  0  0  0  0  0  0
  -21.4583  -11.6383   22.6640 C   0  0  0  0  0  0  0  0  0  0  0  0
  -26.1704  -27.6955   20.2599 C   0  0  0  0  0  0  0  0  0  0  0  0
  -20.7245   -9.4662   21.9019 C   0  0  0  0  0  0  0  0  0  0  0  0
  -27.4159  -11.0184   20.6970 C   0  0  0  0  0  0  0  0  0  0  0  0
  -29.5432  -10.9534   19.2905 C   0  0  0  0  0  0  0  0  0  0  0  0
  -25.4688  -32.9696   26.7935 C   0  0  0  0  0  0  0  0  0  0  0  0
  -26.0085  -30.0367   20.8538 C   0  0  0  0  0  0  0  0  0  0  0  0
  -25.6182  -31.8197   25.9948 C   0  0  0  0  0  0  0  0  0  0  0  0
  -25.3821  -28.8173   20.5590 C   0  0  0  0  0  0  0  0  0  0  0  0
  -25.3139   -9.8566   22.1163 C   0  0  0  0  0  0  0  0  0  0  0  0
  -27.5618  -27.7884   20.2419 C   0  0  0  0  0  0  0  0  0  0  0  0
  -23.0149   -9.7917   22.5984 C   0  0  0  0  0  0  0  0  0  0  0  0
  -20.4502  -10.8058   22.1778 C   0  0  0  0  0  0  0  0  0  0  0  0
  -22.0068   -8.9592   22.1122 C   0  0  0  0  0  0  0  0  0  0  0  0
  -28.5011  -11.6189   19.9635 C   0  0  0  0  0  0  0  0  0  0  0  0
  -28.0257  -20.0633   20.6416 C   0  0  0  0  0  0  0  0  0  0  0  0
  -28.3208  -19.6766   19.3464 C   0  0  0  0  0  0  0  0  0  0  0  0
  -30.3080  -11.9627   18.7586 C   0  0  0  0  0  0  0  0  0  0  0  0
  -29.7972   -9.5485   19.1580 C   0  0  0  0  0  0  0  0  0  0  0  0
  -23.7879  -30.4558   23.0892 C   0  0  0  0  0  0  0  0  0  0  0  0
  -21.7551  -30.0302   20.5975 C   0  0  0  0  0  0  0  0  0  0  0  0
  -21.2187  -28.7406   17.4836 C   0  0  0  0  0  0  0  0  0  0  0  0
  -29.4196  -17.5251   17.3449 C   0  0  0  0  0  0  0  0  0  0  0  0
  -24.1093  -33.4999   27.1743 C   0  0  0  0  0  0  0  0  0  0  0  0
  -25.1884  -31.2613   21.1538 C   0  0  0  0  0  0  0  0  0  0  0  0
  -23.8828  -28.6748   20.5622 C   0  0  0  0  0  0  0  0  0  0  0  0
  -22.9810  -32.9742   26.2905 C   0  0  0  0  0  0  0  0  0  0  0  0
  -30.5578  -16.2286   20.6799 C   0  0  0  0  0  0  0  0  0  0  0  0
  -23.1066  -31.4653   26.1056 C   0  0  0  0  0  0  0  0  0  0  0  0
  -31.1566  -15.1134   19.8225 C   0  0  0  0  0  0  0  0  0  0  0  0
  -29.9684  -17.3538   19.8218 C   0  0  0  0  0  0  0  0  0  0  0  0
  -28.9277  -15.4626   18.6151 C   0  0  0  0  0  0  0  0  0  0  0  0
  -24.4224  -31.1027   25.4065 C   0  0  1  0  0  0  0  0  0  0  0  0
  -23.7888  -30.9329   21.6644 C   0  0  1  0  0  0  0  0  0  0  0  0
  -30.1454  -14.5405   18.8012 C   0  0  2  0  0  0  0  0  0  0  0  0
  -32.6400  -18.5292   14.2143 C   0  0  0  0  0  0  0  0  0  0  0  0
  -29.5394  -20.0818   13.0099 C   0  0  0  0  0  0  0  0  0  0  0  0
  -19.4459  -28.5202   15.7212 C   0  0  0  0  0  0  0  0  0  0  0  0
  -30.4007  -22.5146   22.4912 C   0  0  0  0  0  0  0  0  0  0  0  0
  -20.3945  -27.8498   22.2421 C   0  0  0  0  0  0  0  0  0  0  0  0
  -19.3000  -27.0440   20.1395 C   0  0  0  0  0  0  0  0  0  0  0  0
  -18.8273  -29.3417   20.9880 C   0  0  0  0  0  0  0  0  0  0  0  0
  -31.6843  -20.6747   16.2296 C   0  0  0  0  0  0  0  0  0  0  0  0
  -22.8318  -30.2426   15.5086 C   0  0  0  0  0  0  0  0  0  0  0  0
  -28.8806  -20.6769   21.7241 C   0  0  0  0  0  0  0  0  0  0  0  0
  -29.5598  -19.7353   18.5752 C   0  0  0  0  0  0  0  0  0  0  0  0
  -31.3232  -18.4916   14.9834 C   0  0  0  0  0  0  0  0  0  0  0  0
  -30.4853  -20.6951   14.0360 C   0  0  0  0  0  0  0  0  0  0  0  0
  -28.4033  -23.0816   21.0139 C   0  0  0  0  0  0  0  0  0  0  0  0
  -29.3739  -19.6621   16.1174 C   0  0  0  0  0  0  0  0  0  0  0  0
  -27.7764  -25.4209   20.3093 C   0  0  0  0  0  0  0  0  0  1  0  0
  -21.0813  -28.8398   19.9586 C   0  0  1  0  0  0  0  0  0  0  0  0
  -20.6140  -29.3497   16.2315 C   0  0  2  0  0  0  0  0  0  0  0  0
  -29.5011  -22.0417   21.3435 C   0  0  1  0  0  0  0  0  0  0  0  0
  -28.9285  -24.4607   20.5951 C   0  0  2  0  0  0  0  0  0  0  0  0
  -19.9291  -28.2707   20.8338 C   0  0  0  0  0  0  0  0  0  0  0  0
  -30.7008  -19.8738   15.3457 C   0  0  0  0  0  0  0  0  0  0  0  0
  -28.5925  -12.9481   19.8694 N   0  0  0  0  0  0  0  0  0  0  0  0
  -29.7013  -13.1260   19.1311 N   0  0  0  0  0  0  0  0  0  0  0  0
  -23.1246  -29.8994   20.8676 N   0  0  0  0  0  0  0  0  0  0  0  0
  -29.3519  -16.8611   18.5813 N   0  0  0  0  0  0  0  0  0  0  0  0
  -31.4336  -11.9597   18.0133 N   0  0  0  0  0  0  0  0  0  0  0  0
  -28.9115   -8.6491   19.7671 N   0  0  0  0  0  0  0  0  0  0  0  0
  -24.3269  -31.3591   23.9853 N   0  0  0  0  0  0  0  0  0  0  0  0
  -20.6644  -29.2717   18.6290 N   0  0  0  0  0  0  0  0  0  0  0  0
  -29.5290  -18.9230   17.3628 N   0  0  0  0  0  0  0  0  0  0  0  0
  -21.6369  -29.4354   15.1512 N   0  3  0  0  0  0  0  0  0  0  0  0
  -30.7895   -9.1044   18.5323 O   0  0  0  0  0  0  0  0  0  0  0  0
  -23.3306  -29.3506   23.3560 O   0  0  0  0  0  0  0  0  0  0  0  0
  -21.0922  -31.0416   20.8410 O   0  0  0  0  0  0  0  0  0  0  0  0
  -22.0926  -27.8771   17.4491 O   0  0  0  0  0  0  0  0  0  0  0  0
  -29.3995  -16.8987   16.2769 O   0  0  0  0  0  0  0  0  0  0  0  0
  -29.7096  -24.3164   19.4098 O   0  0  0  0  0  0  0  0  0  0  0  0
  -24.2882   -9.2897   22.8085 O   0  0  0  0  0  0  0  0  0  0  0  0
  -28.3136  -26.6927   19.9486 O   0  0  0  0  0  0  0  0  0  1  0  0
  -19.2185  -11.2924   21.9773 F   0  0  0  0  0  0  0  0  0  0  0  0
  -22.2640   -7.6712   21.8464 F   0  0  0  0  0  0  0  0  0  0  0  0
  -26.3066  -19.6345   20.7105 S   0  0  0  0  0  0  0  0  0  0  0  0
  -26.7344  -19.0736   18.8324 S   0  0  0  0  0  0  0  0  0  0  0  0
  1  2  1  0  0  0  0
  1  5  2  0  0  0  0
  2  6  2  0  0  0  0
  3  8  2  0  0  0  0
  3 15  1  0  0  0  0
  4  9  1  0  0  0  0
  4 15  2  0  0  0  0
  5 17  1  0  0  0  0
  6 19  1  0  0  0  0
  7 10  2  0  0  0  0
  7 18  1  0  0  0  0
  8 21  1  0  0  0  0
  9 21  2  0  0  0  0
 10 22  1  0  0  0  0
 11 12  2  0  0  0  0
 11 23  1  0  0  0  0
 12 24  1  0  0  0  0
 13 20  1  0  0  0  0
 13 22  2  0  0  0  0
 14 24  2  0  0  0  0
 14 25  1  0  0  0  0
 15 26  1  0  0  0  0
 16 26  1  0  0  0  0
 16 29  2  0  0  0  0
 16 30  1  0  0  0  0
 17 19  2  0  0  0  0
 17 35  1  0  0  0  0
 18 20  2  0  0  0  0
 18 36  1  0  0  0  0
 19 44  1  0  0  0  0
 20 37  1  0  0  0  0
 21 85  1  0  0  0  0
 22 86  1  0  0  0  0
 23 25  2  0  0  0  0
 23 85  1  0  0  0  0
 24 87  1  0  0  0  0
 25 88  1  0  0  0  0
 26 69  2  0  0  0  0
 27 28  2  0  0  0  0
 27 56  1  0  0  0  0
 27 89  1  0  0  0  0
 28 57  1  0  0  0  0
 28 90  1  0  0  0  0
 29 70  1  0  0  0  0
 29 73  1  0  0  0  0
 30 74  1  0  0  0  0
 30 79  2  0  0  0  0
 31 45  1  0  0  0  0
 31 75  1  0  0  0  0
 31 80  2  0  0  0  0
 32 63  1  0  0  0  0
 32 71  1  0  0  0  0
 32 81  2  0  0  0  0
 33 64  1  0  0  0  0
 33 76  1  0  0  0  0
 33 82  2  0  0  0  0
 34 72  1  0  0  0  0
 34 77  1  0  0  0  0
 34 83  2  0  0  0  0
 35 38  1  0  0  0  0
 36 45  1  0  0  0  0
 37 71  1  0  0  0  0
 38 40  1  0  0  0  0
 39 41  1  0  0  0  0
 39 42  1  0  0  0  0
 40 44  1  0  0  0  0
 41 46  1  0  0  0  0
 42 72  1  0  0  0  0
 43 46  1  0  0  0  0
 43 72  1  0  0  0  0
 44 75  1  0  0  0  0
 45 71  1  0  0  0  0
 46 70  1  0  0  0  0
 47 58  1  0  0  0  0
 48 59  1  0  0  0  0
 49 64  1  0  0  0  0
 50 65  1  0  0  0  0
 51 67  1  0  0  0  0
 52 67  1  0  0  0  0
 53 67  1  0  0  0  0
 54 68  1  0  0  0  0
 55 78  1  0  0  0  0
 56 65  1  0  0  0  0
 57 77  1  0  0  0  0
 58 68  1  0  0  0  0
 59 68  1  0  0  0  0
 60 65  1  0  0  0  0
 60 66  1  0  0  0  0
 61 68  1  0  0  0  0
 61 77  1  0  0  0  0
 62 66  1  0  0  0  0
 62 86  1  0  0  0  0
 63 67  1  0  0  0  0
 63 76  1  0  0  0  0
 64 78  1  0  0  0  0
 66 84  1  0  0  0  0
 69 70  1  0  0  0  0
 89 90  1  0  0  0  0
M  CHG  1  78   1
M  ISO  4  34 100  62 101  77 100  86 101
M  END
> <Batch ID>
0191

> <Smiles>
CCC(C)(CC)C[100N:0](Cc1ssc1CC(C)CC(O)[101CH2:1][101O:1]c1ccc2c(c1)CN(C(=O)C(NC(=O)C(C)NC)C(C)(C)C)C(C(=O)NC1CCCc3ccccc31)C2)[100C:0](=O)N1CCCC(n2nc(-c3ccc(Oc4ccc(F)cc4F)cc3)c(C(N)=O)c2N)C1

> <Shape>
0.289

> <Color>
0.068

> <Negative vol penalty>
0.000

$$$$

  -OEChem-04052305243D

 87 95  0     1  0  0  0  0  0999 V2000
  -29.0037  -19.7934   12.7151 C   0  0  0  0  0  0  0  0  0  0  0  0
  -28.2223  -20.8315   13.2123 C   0  0  0  0  0  0  0  0  0  0  0  0
  -26.9416  -17.3276   19.9318 C   0  0  0  0  0  0  0  0  0  0  0  0
  -24.8886  -16.6103   20.9842 C   0  0  0  0  0  0  0  0  0  0  0  0
  -29.8899  -19.1241   13.5581 C   0  0  0  0  0  0  0  0  0  0  0  0
  -28.3258  -21.2001   14.5531 C   0  0  0  0  0  0  0  0  0  0  0  0
  -27.8054  -26.8451   16.8701 C   0  0  0  0  0  0  0  0  0  0  0  0
  -27.5632  -16.1476   20.3401 C   0  0  0  0  0  0  0  0  0  0  0  0
  -25.5102  -15.4302   21.3926 C   0  0  0  0  0  0  0  0  0  0  0  0
  -26.7463  -27.5137   17.4825 C   0  0  0  0  0  0  0  0  0  0  0  0
  -29.5879  -13.1628   20.7951 C   0  0  0  0  0  0  0  0  0  0  0  0
  -30.3743  -12.4875   19.8617 C   0  0  0  0  0  0  0  0  0  0  0  0
  -27.6196  -26.9025   19.6465 C   0  0  0  0  0  0  0  0  0  0  0  0
  -28.4507  -12.2385   18.4213 C   0  0  0  0  0  0  0  0  0  0  0  0
  -18.1248  -27.2384   22.0687 C   0  0  0  0  0  0  0  0  0  0  0  0
  -25.6043  -17.5590   20.2539 C   0  0  0  0  0  0  0  0  0  0  0  0
  -24.2666  -19.0007   18.6291 C   0  0  0  0  0  0  0  0  0  0  0  0
  -30.0113  -19.4910   14.9076 C   0  0  0  0  0  0  0  0  0  0  0  0
  -28.7752  -26.1898   17.6424 C   0  0  0  0  0  0  0  0  0  0  0  0
  -29.2134  -20.5341   15.4153 C   0  0  0  0  0  0  0  0  0  0  0  0
  -28.6914  -26.2285   19.0416 C   0  0  0  0  0  0  0  0  0  0  0  0
  -26.8475  -15.1989   21.0705 C   0  0  0  0  0  0  0  0  0  0  0  0
  -26.6516  -27.5401   18.8708 C   0  0  0  0  0  0  0  0  0  0  0  0
  -28.2329  -13.3759   20.5416 C   0  0  0  0  0  0  0  0  0  0  0  0
  -29.8057  -12.0254   18.6748 C   0  0  0  0  0  0  0  0  0  0  0  0
  -27.6643  -12.9138   19.3547 C   0  0  0  0  0  0  0  0  0  0  0  0
  -24.9617  -18.7780   19.8329 C   0  0  0  0  0  0  0  0  0  0  0  0
  -18.7790  -28.0787   22.9247 C   0  0  0  0  0  0  0  0  0  0  0  0
  -23.8505  -20.3071   18.7096 C   0  0  0  0  0  0  0  0  0  0  0  0
  -20.1277  -26.3840   22.4673 C   0  0  0  0  0  0  0  0  0  0  0  0
  -24.0192  -18.1065   17.5360 C   0  0  0  0  0  0  0  0  0  0  0  0
  -29.7451  -23.1776   17.9415 C   0  0  0  0  0  0  0  0  0  0  0  0
  -32.0099  -24.5057   19.8466 C   0  0  0  0  0  0  0  0  0  0  0  0
  -32.9504  -27.1024   21.8514 C   0  0  0  0  0  0  0  0  0  0  0  0
  -21.4005  -24.2717   21.7024 C   0  0  0  0  0  0  0  0  0  0  0  0
  -30.9485  -18.7069   15.7916 C   0  0  0  0  0  0  0  0  0  0  0  0
  -29.9261  -25.4957   16.9671 C   0  0  0  0  0  0  0  0  0  0  0  0
  -29.7179  -25.5579   19.9163 C   0  0  0  0  0  0  0  0  0  0  0  0
  -31.2703  -19.4062   17.1098 C   0  0  0  0  0  0  0  0  0  0  0  0
  -25.0886  -23.9844   21.9180 C   0  0  0  0  0  0  0  0  0  0  0  0
  -29.9958  -19.9395   17.7562 C   0  0  0  0  0  0  0  0  0  0  0  0
  -25.3066  -22.5820   21.3603 C   0  0  0  0  0  0  0  0  0  0  0  0
  -23.7589  -24.1107   22.6601 C   0  0  0  0  0  0  0  0  0  0  0  0
  -22.8043  -22.2756   21.2810 C   0  0  0  0  0  0  0  0  0  0  0  0
  -29.3151  -20.9794   16.8580 C   0  0  1  0  0  0  0  0  0  0  0  0
  -30.5746  -24.4263   17.8408 C   0  0  1  0  0  0  0  0  0  0  0  0
  -24.1147  -22.1596   20.4892 C   0  0  2  0  0  0  0  0  0  0  0  0
  -18.3452  -29.3407   23.5365 C   0  0  0  0  0  0  0  0  0  0  0  0
  -34.8431  -27.8873   23.3001 C   0  0  0  0  0  0  0  0  0  0  0  0
  -31.1676  -22.5296   22.0134 C   0  0  0  0  0  0  0  0  0  0  0  0
  -32.3779  -23.9505   23.6821 C   0  0  0  0  0  0  0  0  0  0  0  0
  -33.6370  -22.8730   21.8176 C   0  0  0  0  0  0  0  0  0  0  0  0
  -23.7794  -31.1002   22.7390 C   0  0  0  0  0  0  0  0  0  0  0  0
  -22.0779  -31.8561   21.0585 C   0  0  0  0  0  0  0  0  0  0  0  0
  -33.3697  -29.5188   20.1948 C   0  0  0  0  0  0  0  0  0  0  0  0
  -24.5072  -30.2928   19.8128 C   0  0  0  0  0  0  0  0  0  0  0  0
  -21.0525  -28.0875   24.0132 C   0  0  0  0  0  0  0  0  0  0  0  0
  -22.1890  -28.7504   23.2459 C   0  0  0  0  0  0  0  0  0  0  0  0
  -25.0730  -29.3166   18.7837 C   0  0  0  0  0  0  0  0  0  1  0  0
  -32.1145  -24.8285   21.3176 C   0  0  1  0  0  0  0  0  0  0  0  0
  -34.2291  -27.9185   21.9092 C   0  0  2  0  0  0  0  0  0  0  0  0
  -23.3799  -29.6802   20.6596 C   0  0  1  0  0  0  0  0  0  0  0  0
  -32.3037  -23.5565   22.1914 C   0  0  0  0  0  0  0  0  0  0  0  0
  -22.7432  -30.6358   21.7042 C   0  0  0  0  0  0  0  0  0  0  0  0
  -24.9880  -19.8566   20.6203 N   0  0  0  0  0  0  0  0  0  0  0  0
  -20.0155  -27.5253   23.1546 N   0  0  0  0  0  0  0  0  0  0  0  0
  -24.3042  -20.7697   19.9097 N   0  0  0  0  0  0  0  0  0  0  0  0
  -18.9828  -26.1987   21.8023 N   0  3  0  0  0  0  0  0  0  0  0  0
  -30.8209  -24.8869   19.2088 N   0  0  0  0  0  0  0  0  0  0  0  0
  -22.6318  -23.6127   21.8606 N   0  0  0  0  0  0  0  0  0  0  0  0
  -23.1444  -21.0939   17.8701 N   0  0  0  0  0  0  0  0  0  0  0  0
  -24.5180  -16.7992   17.6162 N   0  0  0  0  0  0  0  0  0  0  0  0
  -21.2622  -25.5068   22.4380 N   0  0  0  0  0  0  0  0  0  0  0  0
  -30.0000  -22.2511   16.9485 N   0  0  0  0  0  0  0  0  0  0  0  0
  -33.1894  -25.8065   21.4454 N   0  0  0  0  0  0  0  0  0  0  0  0
  -33.9544  -29.3381   21.5485 N   0  3  0  0  0  0  0  0  0  0  0  0
  -21.6781  -29.8990   22.4622 N   0  3  0  0  0  0  0  0  0  0  0  0
  -23.3890  -18.4614   16.5111 O   0  0  0  0  0  0  0  0  0  0  0  0
  -28.9348  -23.0625   18.8537 O   0  0  0  0  0  0  0  0  0  0  0  0
  -32.9514  -23.9427   19.2825 O   0  0  0  0  0  0  0  0  0  0  0  0
  -31.8501  -27.5670   22.1412 O   0  0  0  0  0  0  0  0  0  0  0  0
  -20.4856  -23.8129   21.0210 O   0  0  0  0  0  0  0  0  0  0  0  0
  -22.3521  -29.1991   19.7885 O   0  0  0  0  0  0  0  0  0  0  0  0
  -27.4537  -14.0472   21.4689 O   0  0  0  0  0  0  0  0  0  0  0  0
  -25.6185  -28.1914   19.4711 O   0  0  0  0  0  0  0  0  0  1  0  0
  -30.5613  -11.3783   17.7779 F   0  0  0  0  0  0  0  0  0  0  0  0
  -26.3634  -13.1165   19.1050 F   0  0  0  0  0  0  0  0  0  0  0  0
  1  2  1  0  0  0  0
  1  5  2  0  0  0  0
  2  6  2  0  0  0  0
  3  8  2  0  0  0  0
  3 16  1  0  0  0  0
  4  9  1  0  0  0  0
  4 16  2  0  0  0  0
  5 18  1  0  0  0  0
  6 20  1  0  0  0  0
  7 10  2  0  0  0  0
  7 19  1  0  0  0  0
  8 22  1  0  0  0  0
  9 22  2  0  0  0  0
 10 23  1  0  0  0  0
 11 12  2  0  0  0  0
 11 24  1  0  0  0  0
 12 25  1  0  0  0  0
 13 21  1  0  0  0  0
 13 23  2  0  0  0  0
 14 25  2  0  0  0  0
 14 26  1  0  0  0  0
 15 28  2  0  0  0  0
 15 68  1  0  0  0  0
 16 27  1  0  0  0  0
 17 27  1  0  0  0  0
 17 29  2  0  0  0  0
 17 31  1  0  0  0  0
 18 20  2  0  0  0  0
 18 36  1  0  0  0  0
 19 21  2  0  0  0  0
 19 37  1  0  0  0  0
 20 45  1  0  0  0  0
 21 38  1  0  0  0  0
 22 84  1  0  0  0  0
 23 85  1  0  0  0  0
 24 26  2  0  0  0  0
 24 84  1  0  0  0  0
 25 86  1  0  0  0  0
 26 87  1  0  0  0  0
 27 65  2  0  0  0  0
 28 48  1  0  0  0  0
 28 66  1  0  0  0  0
 29 67  1  0  0  0  0
 29 71  1  0  0  0  0
 30 66  1  0  0  0  0
 30 68  2  0  0  0  0
 30 73  1  0  0  0  0
 31 72  1  0  0  0  0
 31 78  2  0  0  0  0
 32 46  1  0  0  0  0
 32 74  1  0  0  0  0
 32 79  2  0  0  0  0
 33 60  1  0  0  0  0
 33 69  1  0  0  0  0
 33 80  2  0  0  0  0
 34 61  1  0  0  0  0
 34 75  1  0  0  0  0
 34 81  2  0  0  0  0
 35 70  1  0  0  0  0
 35 73  1  0  0  0  0
 35 82  2  0  0  0  0
 36 39  1  0  0  0  0
 37 46  1  0  0  0  0
 38 69  1  0  0  0  0
 39 41  1  0  0  0  0
 40 42  1  0  0  0  0
 40 43  1  0  0  0  0
 41 45  1  0  0  0  0
 42 47  1  0  0  0  0
 43 70  1  0  0  0  0
 44 47  1  0  0  0  0
 44 70  1  0  0  0  0
 45 74  1  0  0  0  0
 46 69  1  0  0  0  0
 47 67  1  0  0  0  0
 49 61  1  0  0  0  0
 50 63  1  0  0  0  0
 51 63  1  0  0  0  0
 52 63  1  0  0  0  0
 53 64  1  0  0  0  0
 54 64  1  0  0  0  0
 55 76  1  0  0  0  0
 56 59  1  0  0  0  0
 56 62  1  0  0  0  0
 57 58  1  0  0  0  0
 57 66  1  0  0  0  0
 58 77  1  0  0  0  0
 59 85  1  0  0  0  0
 60 63  1  0  0  0  0
 60 75  1  0  0  0  0
 61 76  1  0  0  0  0
 62 64  1  0  0  0  0
 62 83  1  0  0  0  0
 64 77  1  0  0  0  0
 65 67  1  0  0  0  0
M  CHG  3  68   1  76   1  77   1
M  ISO  4  35 100  59 101  73 100  85 101
M  END
> <Batch ID>
0191

> <Smiles>
CNC(C)C(=O)NC(C(=O)N1Cc2cc([101O:1][101CH2:1]CC(O)C(C)(C)NCCn3c(C)cnc3[100NH:0][100C:0](=O)N3CCCC(n4nc(-c5ccc(Oc6ccc(F)cc6F)cc5)c(C(N)=O)c4N)C3)ccc2CC1C(=O)NC1CCCc2ccccc21)C(C)(C)C

> <Shape>
0.221

> <Color>
0.059

> <Negative vol penalty>
0.000

$$$$

  -OEChem-04052305243D

 84 92  0     1  0  0  0  0  0999 V2000
  -27.6982  -33.9609   21.3757 C   0  0  0  0  0  0  0  0  0  0  0  0
  -27.4926  -32.6932   20.8407 C   0  0  0  0  0  0  0  0  0  0  0  0
  -26.4932  -12.8925   21.6008 C   0  0  0  0  0  0  0  0  0  0  0  0
  -26.1866  -13.7842   19.3764 C   0  0  0  0  0  0  0  0  0  0  0  0
  -27.1326  -34.2978   22.6047 C   0  0  0  0  0  0  0  0  0  0  0  0
  -26.7220  -31.7613   21.5351 C   0  0  0  0  0  0  0  0  0  0  0  0
  -23.4410  -29.3339   18.5372 C   0  0  0  0  0  0  0  0  0  0  0  0
  -25.2403  -12.2837   21.5295 C   0  0  0  0  0  0  0  0  0  0  0  0
  -24.9336  -13.1755   19.3051 C   0  0  0  0  0  0  0  0  0  0  0  0
  -23.9465  -28.3096   17.7378 C   0  0  0  0  0  0  0  0  0  0  0  0
  -23.8890   -9.5222   20.1220 C   0  0  0  0  0  0  0  0  0  0  0  0
  -23.7855   -8.1997   20.5530 C   0  0  0  0  0  0  0  0  0  0  0  0
  -23.1352  -26.6812   19.3219 C   0  0  0  0  0  0  0  0  0  0  0  0
  -22.1726   -8.8700   22.2223 C   0  0  0  0  0  0  0  0  0  0  0  0
  -26.9664  -13.6428   20.5242 C   0  0  0  0  0  0  0  0  0  0  0  0
  -29.4963  -13.7232   20.2067 C   0  0  0  0  0  0  0  0  0  0  0  0
  -26.3467  -33.3727   23.3099 C   0  0  0  0  0  0  0  0  0  0  0  0
  -22.7873  -29.0395   19.7424 C   0  0  0  0  0  0  0  0  0  0  0  0
  -26.1464  -32.0857   22.7753 C   0  0  0  0  0  0  0  0  0  0  0  0
  -22.6201  -27.7034   20.1335 C   0  0  0  0  0  0  0  0  0  0  0  0
  -24.4605  -12.4252   20.3816 C   0  0  0  0  0  0  0  0  0  0  0  0
  -23.7962  -26.9831   18.1315 C   0  0  0  0  0  0  0  0  0  0  0  0
  -23.1345  -10.5187   20.7412 C   0  0  0  0  0  0  0  0  0  0  0  0
  -22.9272   -7.8735   21.6031 C   0  0  0  0  0  0  0  0  0  0  0  0
  -22.2762  -10.1925   21.7913 C   0  0  0  0  0  0  0  0  0  0  0  0
  -28.2603  -14.2724   20.5975 C   0  0  0  0  0  0  0  0  0  0  0  0
  -29.4976  -21.8925   18.8119 C   0  0  0  0  0  0  0  0  0  0  0  0
  -30.6500  -22.5080   18.3699 C   0  0  0  0  0  0  0  0  0  0  0  0
  -30.4115  -14.7113   20.4758 C   0  0  0  0  0  0  0  0  0  0  0  0
  -28.5990  -23.7038   17.9624 C   0  0  0  0  0  0  0  0  0  0  0  0
  -29.7906  -12.4350   19.6502 C   0  0  0  0  0  0  0  0  0  0  0  0
  -23.3218  -29.7038   22.8045 C   0  0  0  0  0  0  0  0  0  0  0  0
  -29.8559  -20.6768   20.9404 C   0  0  0  0  0  0  0  0  0  0  0  0
  -20.4290  -28.2939   23.2123 C   0  0  0  0  0  0  0  0  0  0  0  0
  -18.0694  -26.1285   22.0332 C   0  0  0  0  0  0  0  0  0  0  0  0
  -26.3086  -24.7101   17.6788 C   0  0  0  0  0  0  0  0  0  0  0  0
  -25.7951  -33.7668   24.6572 C   0  0  0  0  0  0  0  0  0  0  0  0
  -22.2242  -30.1546   20.5801 C   0  0  0  0  0  0  0  0  0  0  0  0
  -21.9082  -27.3334   21.4082 C   0  0  0  0  0  0  0  0  0  0  0  0
  -24.6816  -32.8473   25.1520 C   0  0  0  0  0  0  0  0  0  0  0  0
  -31.1833  -18.4195   23.3864 C   0  0  0  0  0  0  0  0  0  0  0  0
  -25.0753  -31.3852   24.9679 C   0  0  0  0  0  0  0  0  0  0  0  0
  -30.6728  -17.0537   22.9289 C   0  0  0  0  0  0  0  0  0  0  0  0
  -30.1649  -19.5196   23.1037 C   0  0  0  0  0  0  0  0  0  0  0  0
  -29.2205  -18.2290   21.2158 C   0  0  0  0  0  0  0  0  0  0  0  0
  -25.2961  -31.0556   23.4867 C   0  0  1  0  0  0  0  0  0  0  0  0
  -22.0286  -29.7638   22.0418 C   0  0  1  0  0  0  0  0  0  0  0  0
  -30.2317  -17.0938   21.4550 C   0  0  2  0  0  0  0  0  0  0  0  0
  -32.9396  -23.0200   19.2913 C   0  0  0  0  0  0  0  0  0  0  0  0
  -32.7072  -21.8573   17.0666 C   0  0  0  0  0  0  0  0  0  0  0  0
  -15.8281  -25.1551   22.6045 C   0  0  0  0  0  0  0  0  0  0  0  0
  -25.9396  -26.1001   15.6072 C   0  0  0  0  0  0  0  0  0  0  0  0
  -21.7495  -26.4654   25.2672 C   0  0  0  0  0  0  0  0  0  0  0  0
  -19.7647  -24.9497   25.0910 C   0  0  0  0  0  0  0  0  0  0  0  0
  -19.4772  -27.2881   25.9106 C   0  0  0  0  0  0  0  0  0  0  0  0
  -16.8269  -27.2624   19.5982 C   0  0  0  0  0  0  0  0  0  0  0  0
  -29.4177  -20.5881   19.5003 C   0  0  0  0  0  0  0  0  0  0  0  0
  -32.0564  -22.0666   18.4535 C   0  0  0  0  0  0  0  0  0  0  0  0
  -19.9528  -26.8830   23.4607 C   0  0  1  0  0  0  0  0  0  0  0  0
  -16.5660  -26.2660   21.8737 C   0  0  2  0  0  0  0  0  0  0  0  0
  -25.6943  -25.9841   17.1044 C   0  0  1  0  0  0  0  0  0  1  0  0
  -20.2512  -26.4033   24.9093 C   0  0  0  0  0  0  0  0  0  0  0  0
  -28.3764  -15.5130   21.0784 N   0  0  0  0  0  0  0  0  0  0  0  0
  -28.3206  -22.5769   18.5794 N   0  0  0  0  0  0  0  0  0  0  0  0
  -29.6961  -15.7516   20.9916 N   0  0  0  0  0  0  0  0  0  0  0  0
  -21.3809  -28.4596   22.1963 N   0  0  0  0  0  0  0  0  0  0  0  0
  -29.7545  -19.5101   21.6985 N   0  0  0  0  0  0  0  0  0  0  0  0
  -31.7504  -14.7831   20.3192 N   0  0  0  0  0  0  0  0  0  0  0  0
  -28.7323  -11.5410   19.4385 N   0  0  0  0  0  0  0  0  0  0  0  0
  -27.6923  -24.7035   17.5365 N   0  0  0  0  0  0  0  0  0  0  0  0
  -24.0270  -30.8921   22.8106 N   0  0  0  0  0  0  0  0  0  0  0  0
  -18.5385  -26.8607   23.1033 N   0  0  0  0  0  0  0  0  0  0  0  0
  -16.1908  -26.2105   20.4325 N   0  3  0  0  0  0  0  0  0  0  0  0
  -30.9597  -12.0811   19.3648 O   0  0  0  0  0  0  0  0  0  0  0  0
  -23.6544  -28.6573   23.3486 O   0  0  0  0  0  0  0  0  0  0  0  0
  -30.2782  -21.7511   21.3761 O   0  0  0  0  0  0  0  0  0  0  0  0
  -19.9679  -29.2159   23.8897 O   0  0  0  0  0  0  0  0  0  0  0  0
  -18.7581  -25.4375   21.2857 O   0  0  0  0  0  0  0  0  0  0  0  0
  -25.6102  -23.8470   18.2026 O   0  0  0  0  0  0  0  0  0  0  0  0
  -23.2379  -11.8311   20.3116 O   0  0  0  0  0  0  0  0  0  0  0  0
  -24.2892  -25.9814   17.3534 O   0  0  0  0  0  0  0  0  0  1  0  0
  -22.8267   -6.6032   22.0158 F   0  0  0  0  0  0  0  0  0  0  0  0
  -21.5479  -11.1453   22.3892 F   0  0  0  0  0  0  0  0  0  0  0  0
  -30.2556  -24.0041   17.6300 S   0  0  0  0  0  0  0  0  0  0  0  0
  1  2  1  0  0  0  0
  1  5  2  0  0  0  0
  2  6  2  0  0  0  0
  3  8  2  0  0  0  0
  3 15  1  0  0  0  0
  4  9  1  0  0  0  0
  4 15  2  0  0  0  0
  5 17  1  0  0  0  0
  6 19  1  0  0  0  0
  7 10  2  0  0  0  0
  7 18  1  0  0  0  0
  8 21  1  0  0  0  0
  9 21  2  0  0  0  0
 10 22  1  0  0  0  0
 11 12  2  0  0  0  0
 11 23  1  0  0  0  0
 12 24  1  0  0  0  0
 13 20  1  0  0  0  0
 13 22  2  0  0  0  0
 14 24  2  0  0  0  0
 14 25  1  0  0  0  0
 15 26  1  0  0  0  0
 16 26  1  0  0  0  0
 16 29  2  0  0  0  0
 16 31  1  0  0  0  0
 17 19  2  0  0  0  0
 17 37  1  0  0  0  0
 18 20  2  0  0  0  0
 18 38  1  0  0  0  0
 19 46  1  0  0  0  0
 20 39  1  0  0  0  0
 21 80  1  0  0  0  0
 22 81  1  0  0  0  0
 23 25  2  0  0  0  0
 23 80  1  0  0  0  0
 24 82  1  0  0  0  0
 25 83  1  0  0  0  0
 26 63  2  0  0  0  0
 27 28  2  0  0  0  0
 27 57  1  0  0  0  0
 27 64  1  0  0  0  0
 28 58  1  0  0  0  0
 28 84  1  0  0  0  0
 29 65  1  0  0  0  0
 29 68  1  0  0  0  0
 30 64  2  0  0  0  0
 30 70  1  0  0  0  0
 30 84  1  0  0  0  0
 31 69  1  0  0  0  0
 31 74  2  0  0  0  0
 32 47  1  0  0  0  0
 32 71  1  0  0  0  0
 32 75  2  0  0  0  0
 33 57  1  0  0  0  0
 33 67  1  0  0  0  0
 33 76  2  0  0  0  0
 34 59  1  0  0  0  0
 34 66  1  0  0  0  0
 34 77  2  0  0  0  0
 35 60  1  0  0  0  0
 35 72  1  0  0  0  0
 35 78  2  0  0  0  0
 36 61  1  0  0  0  0
 36 70  1  0  0  0  0
 36 79  2  0  0  0  0
 37 40  1  0  0  0  0
 38 47  1  0  0  0  0
 39 66  1  0  0  0  0
 40 42  1  0  0  0  0
 41 43  1  0  0  0  0
 41 44  1  0  0  0  0
 42 46  1  0  0  0  0
 43 48  1  0  0  0  0
 44 67  1  0  0  0  0
 45 48  1  0  0  0  0
 45 67  1  0  0  0  0
 46 71  1  0  0  0  0
 47 66  1  0  0  0  0
 48 65  1  0  0  0  0
 49 58  1  0  0  0  0
 50 58  1  0  0  0  0
 51 60  1  0  0  0  0
 52 61  1  0  0  0  0
 53 62  1  0  0  0  0
 54 62  1  0  0  0  0
 55 62  1  0  0  0  0
 56 73  1  0  0  0  0
 59 62  1  0  0  0  0
 59 72  1  0  0  0  0
 60 73  1  0  0  0  0
 61 81  1  0  0  0  0
 63 65  1  0  0  0  0
M  CHG  1  73   1
M  ISO  4  33 100  57 100  61 101  81 101
M  END
> <Batch ID>
0191

> <Smiles>
CNC(C)C(=O)NC(C(=O)N1Cc2cc([101O:1][101CH:1](C)C(=O)Nc3nc([100CH2:0][100C:0](=O)N4CCCC(n5nc(-c6ccc(Oc7ccc(F)cc7F)cc6)c(C(N)=O)c5N)C4)c(C(C)C)s3)ccc2CC1C(=O)NC1CCCc2ccccc21)C(C)(C)C

> <Shape>
0.329

> <Color>
0.075

> <Negative vol penalty>
0.000

$$$$

  -OEChem-04052305243D

 87 95  0     1  0  0  0  0  0999 V2000
  -21.6693  -13.4434   16.8274 C   0  0  0  0  0  0  0  0  0  0  0  0
  -22.0466  -14.6396   17.4293 C   0  0  0  0  0  0  0  0  0  0  0  0
  -23.0728   -9.8688   19.9548 C   0  0  0  0  0  0  0  0  0  0  0  0
  -23.8359   -9.8919   22.2470 C   0  0  0  0  0  0  0  0  0  0  0  0
  -20.8542  -13.4602   15.6964 C   0  0  0  0  0  0  0  0  0  0  0  0
  -21.6099  -15.8534   16.8997 C   0  0  0  0  0  0  0  0  0  0  0  0
  -19.9718  -19.0524   20.4673 C   0  0  0  0  0  0  0  0  0  0  0  0
  -22.3273   -8.7189   20.2145 C   0  0  0  0  0  0  0  0  0  0  0  0
  -23.0903   -8.7420   22.5067 C   0  0  0  0  0  0  0  0  0  0  0  0
  -20.9394  -19.7313   21.2066 C   0  0  0  0  0  0  0  0  0  0  0  0
  -19.3797   -7.9384   21.6759 C   0  0  0  0  0  0  0  0  0  0  0  0
  -18.0720   -7.8908   21.1928 C   0  0  0  0  0  0  0  0  0  0  0  0
  -20.6133  -21.6843   19.8287 C   0  0  0  0  0  0  0  0  0  0  0  0
  -18.6266   -5.9368   19.8845 C   0  0  0  0  0  0  0  0  0  0  0  0
  -23.8271  -10.4553   20.9710 C   0  0  0  0  0  0  0  0  0  0  0  0
  -24.1731  -12.9789   20.8313 C   0  0  0  0  0  0  0  0  0  0  0  0
  -20.3994  -14.6744   15.1584 C   0  0  0  0  0  0  0  0  0  0  0  0
  -19.3244  -19.6818   19.3944 C   0  0  0  0  0  0  0  0  0  0  0  0
  -20.7891  -15.8865   15.7596 C   0  0  0  0  0  0  0  0  0  0  0  0
  -19.6360  -21.0120   19.0789 C   0  0  0  0  0  0  0  0  0  0  0  0
  -22.3360   -8.1555   21.4905 C   0  0  0  0  0  0  0  0  0  0  0  0
  -21.2624  -21.0465   20.8855 C   0  0  0  0  0  0  0  0  0  0  0  0
  -20.3108   -6.9853   21.2632 C   0  0  0  0  0  0  0  0  0  0  0  0
  -17.6955   -6.8900   20.2972 C   0  0  0  0  0  0  0  0  0  0  0  0
  -19.9342   -5.9845   20.3676 C   0  0  0  0  0  0  0  0  0  0  0  0
  -24.5979  -11.6429   20.7032 C   0  0  0  0  0  0  0  0  0  0  0  0
  -25.2661  -13.7237   20.4609 C   0  0  0  0  0  0  0  0  0  0  0  0
  -29.8923  -18.0286   22.0210 C   0  0  0  0  0  0  0  0  0  0  0  0
  -28.6050  -19.8439   22.8050 C   0  0  0  0  0  0  0  0  0  0  0  0
  -22.9041  -13.5001   21.2481 C   0  0  0  0  0  0  0  0  0  0  0  0
  -19.1334  -19.1507   16.2663 C   0  0  0  0  0  0  0  0  0  0  0  0
  -16.9868  -21.5800   16.3794 C   0  0  0  0  0  0  0  0  0  0  0  0
  -15.8371  -24.3575   17.9952 C   0  0  0  0  0  0  0  0  0  0  0  0
  -30.7518  -14.7347   20.6339 C   0  0  0  0  0  0  0  0  0  0  0  0
  -19.5587  -14.6442   13.9066 C   0  0  0  0  0  0  0  0  0  0  0  0
  -18.2638  -18.9445   18.6237 C   0  0  0  0  0  0  0  0  0  0  0  0
  -18.9554  -21.7395   17.9493 C   0  0  0  0  0  0  0  0  0  0  0  0
  -18.8320  -15.9576   13.6290 C   0  0  0  0  0  0  0  0  0  0  0  0
  -29.6068  -12.3341   18.2669 C   0  0  0  0  0  0  0  0  0  0  0  0
  -19.7828  -17.1390   13.7938 C   0  0  0  0  0  0  0  0  0  0  0  0
  -28.1694  -12.0461   18.7040 C   0  0  0  0  0  0  0  0  0  0  0  0
  -30.5260  -12.5624   19.4648 C   0  0  0  0  0  0  0  0  0  0  0  0
  -28.6274  -13.3073   20.8484 C   0  0  0  0  0  0  0  0  0  0  0  0
  -20.3155  -17.2224   15.2293 C   0  0  1  0  0  0  0  0  0  0  0  0
  -18.0362  -19.5135   17.2266 C   0  0  1  0  0  0  0  0  0  0  0  0
  -27.6513  -13.1254   19.6735 C   0  0  2  0  0  0  0  0  0  0  0  0
  -28.7444  -24.2629   22.4427 C   0  0  0  0  0  0  0  0  0  0  0  0
  -14.0928  -26.1536   17.8271 C   0  0  0  0  0  0  0  0  0  0  0  0
  -26.5134  -22.8122   25.2840 C   0  0  0  0  0  0  0  0  0  0  0  0
  -18.6168  -22.9554   14.1974 C   0  0  0  0  0  0  0  0  0  0  0  0
  -17.4191  -25.0854   14.7423 C   0  0  0  0  0  0  0  0  0  0  0  0
  -16.1382  -23.1153   13.9053 C   0  0  0  0  0  0  0  0  0  0  0  0
  -14.5997  -23.5574   20.5618 C   0  0  0  0  0  0  0  0  0  0  0  0
  -30.8231  -16.8944   21.8543 C   0  0  0  0  0  0  0  0  0  0  0  0
  -28.2717  -23.8517   23.8300 C   0  0  0  0  0  0  0  0  0  0  0  0
  -25.6758  -20.9772   22.8808 C   0  0  0  0  0  0  0  0  0  0  0  0
  -23.2540  -20.9297   22.1800 C   0  0  0  0  0  0  0  0  0  1  0  0
  -17.0654  -23.0826   16.2572 C   0  0  1  0  0  0  0  0  0  0  0  0
  -14.4354  -24.7840   18.3922 C   0  0  2  0  0  0  0  0  0  0  0  0
  -26.9453  -23.0557   23.8308 C   0  0  1  0  0  0  0  0  0  0  0  0
  -27.0073  -21.7513   22.9917 C   0  0  1  0  0  0  0  0  0  0  0  0
  -24.5265  -21.7699   22.2486 C   0  0  2  0  0  0  0  0  0  0  0  0
  -17.3242  -23.5456   14.7957 C   0  0  0  0  0  0  0  0  0  0  0  0
  -25.8620  -11.5417   20.2839 N   0  0  0  0  0  0  0  0  0  0  0  0
  -29.1038  -18.5084   21.0830 N   0  0  0  0  0  0  0  0  0  0  0  0
  -28.3494  -19.5739   21.5425 N   0  0  0  0  0  0  0  0  0  0  0  0
  -26.2409  -12.8236   20.1453 N   0  0  0  0  0  0  0  0  0  0  0  0
  -17.9299  -20.9739   17.2215 N   0  0  0  0  0  0  0  0  0  0  0  0
  -29.9784  -13.5986   20.3437 N   0  0  0  0  0  0  0  0  0  0  0  0
  -25.4787  -15.0542   20.3774 N   0  0  0  0  0  0  0  0  0  0  0  0
  -21.8911  -12.5952   21.5936 N   0  0  0  0  0  0  0  0  0  0  0  0
  -28.0078  -20.8505   23.5375 N   0  0  0  0  0  0  0  0  0  0  0  0
  -19.3149  -17.7900   16.1074 N   0  0  0  0  0  0  0  0  0  0  0  0
  -15.8340  -23.6045   16.8401 N   0  0  0  0  0  0  0  0  0  0  0  0
  -30.1554  -15.6709   21.4697 N   0  0  0  0  0  0  0  0  0  0  0  0
  -14.3129  -24.8438   19.8762 N   0  3  0  0  0  0  0  0  0  0  0  0
  -22.6701  -14.7315   21.2964 O   0  0  0  0  0  0  0  0  0  0  0  0
  -19.7673  -20.0394   15.7095 O   0  0  0  0  0  0  0  0  0  0  0  0
  -16.1161  -20.9673   15.7564 O   0  0  0  0  0  0  0  0  0  0  0  0
  -16.8354  -24.6649   18.6428 O   0  0  0  0  0  0  0  0  0  0  0  0
  -31.8874  -14.9047   20.1774 O   0  0  0  0  0  0  0  0  0  0  0  0
  -24.8993  -22.1476   20.9242 O   0  0  0  0  0  0  0  0  0  0  0  0
  -21.6085   -7.0335   21.7443 O   0  0  0  0  0  0  0  0  0  0  0  0
  -22.2130  -21.7156   21.6098 O   0  0  0  0  0  0  0  0  0  1  0  0
  -16.4393   -6.8434   19.8345 F   0  0  0  0  0  0  0  0  0  0  0  0
  -20.8240   -5.0653   19.9685 F   0  0  0  0  0  0  0  0  0  0  0  0
  -29.7797  -18.8289   23.5338 S   0  0  0  0  0  0  0  0  0  0  0  0
  1  2  1  0  0  0  0
  1  5  2  0  0  0  0
  2  6  2  0  0  0  0
  3  8  2  0  0  0  0
  3 15  1  0  0  0  0
  4  9  1  0  0  0  0
  4 15  2  0  0  0  0
  5 17  1  0  0  0  0
  6 19  1  0  0  0  0
  7 10  2  0  0  0  0
  7 18  1  0  0  0  0
  8 21  1  0  0  0  0
  9 21  2  0  0  0  0
 10 22  1  0  0  0  0
 11 12  2  0  0  0  0
 11 23  1  0  0  0  0
 12 24  1  0  0  0  0
 13 20  1  0  0  0  0
 13 22  2  0  0  0  0
 14 24  2  0  0  0  0
 14 25  1  0  0  0  0
 15 26  1  0  0  0  0
 16 26  1  0  0  0  0
 16 27  2  0  0  0  0
 16 30  1  0  0  0  0
 17 19  2  0  0  0  0
 17 35  1  0  0  0  0
 18 20  2  0  0  0  0
 18 36  1  0  0  0  0
 19 44  1  0  0  0  0
 20 37  1  0  0  0  0
 21 83  1  0  0  0  0
 22 84  1  0  0  0  0
 23 25  2  0  0  0  0
 23 83  1  0  0  0  0
 24 85  1  0  0  0  0
 25 86  1  0  0  0  0
 26 64  2  0  0  0  0
 27 67  1  0  0  0  0
 27 70  1  0  0  0  0
 28 54  1  0  0  0  0
 28 65  2  0  0  0  0
 28 87  1  0  0  0  0
 29 66  2  0  0  0  0
 29 72  1  0  0  0  0
 29 87  1  0  0  0  0
 30 71  1  0  0  0  0
 30 77  2  0  0  0  0
 31 45  1  0  0  0  0
 31 73  1  0  0  0  0
 31 78  2  0  0  0  0
 32 58  1  0  0  0  0
 32 68  1  0  0  0  0
 32 79  2  0  0  0  0
 33 59  1  0  0  0  0
 33 74  1  0  0  0  0
 33 80  2  0  0  0  0
 34 69  1  0  0  0  0
 34 75  1  0  0  0  0
 34 81  2  0  0  0  0
 35 38  1  0  0  0  0
 36 45  1  0  0  0  0
 37 68  1  0  0  0  0
 38 40  1  0  0  0  0
 39 41  1  0  0  0  0
 39 42  1  0  0  0  0
 40 44  1  0  0  0  0
 41 46  1  0  0  0  0
 42 69  1  0  0  0  0
 43 46  1  0  0  0  0
 43 69  1  0  0  0  0
 44 73  1  0  0  0  0
 45 68  1  0  0  0  0
 46 67  1  0  0  0  0
 47 55  1  0  0  0  0
 48 59  1  0  0  0  0
 49 60  1  0  0  0  0
 50 63  1  0  0  0  0
 51 63  1  0  0  0  0
 52 63  1  0  0  0  0
 53 76  1  0  0  0  0
 54 75  1  0  0  0  0
 55 60  1  0  0  0  0
 56 61  1  0  0  0  0
 56 62  1  0  0  0  0
 57 62  1  0  0  0  0
 57 84  1  0  0  0  0
 58 63  1  0  0  0  0
 58 74  1  0  0  0  0
 59 76  1  0  0  0  0
 60 61  1  0  0  0  0
 61 72  1  0  0  0  0
 62 82  1  0  0  0  0
 64 67  1  0  0  0  0
 65 66  1  0  0  0  0
M  CHG  1  76   1
M  ISO  4  34 100  57 101  75 100  84 101
M  END
> <Batch ID>
0191

> <Smiles>
CCC(C)C(CC(O)[101CH2:1][101O:1]c1ccc2c(c1)CN(C(=O)C(NC(=O)C(C)NC)C(C)(C)C)C(C(=O)NC1CCCc3ccccc31)C2)Nc1nnc(C[100NH:0][100C:0](=O)N2CCCC(n3nc(-c4ccc(Oc5ccc(F)cc5F)cc4)c(C(N)=O)c3N)C2)s1

> <Shape>
0.157

> <Color>
0.173

> <Negative vol penalty>
0.000

$$$$

  -OEChem-04052305243D

 85 93  0     1  0  0  0  0  0999 V2000
  -25.0368  -22.3991   13.5196 C   0  0  0  0  0  0  0  0  0  0  0  0
  -24.7236  -22.0179   14.8204 C   0  0  0  0  0  0  0  0  0  0  0  0
  -30.9901  -23.0062   20.6918 C   0  0  0  0  0  0  0  0  0  0  0  0
  -28.7780  -23.4621   19.8342 C   0  0  0  0  0  0  0  0  0  0  0  0
  -25.5020  -23.6885   13.2652 C   0  0  0  0  0  0  0  0  0  0  0  0
  -24.8764  -22.9257   15.8677 C   0  0  0  0  0  0  0  0  0  0  0  0
  -20.9231  -22.9242   19.0325 C   0  0  0  0  0  0  0  0  0  0  0  0
  -31.4089  -24.2730   20.2852 C   0  0  0  0  0  0  0  0  0  0  0  0
  -29.1967  -24.7290   19.4276 C   0  0  0  0  0  0  0  0  0  0  0  0
  -20.8472  -21.8825   19.9561 C   0  0  0  0  0  0  0  0  0  0  0  0
  -29.7526  -27.7429   20.8516 C   0  0  0  0  0  0  0  0  0  0  0  0
  -28.9132  -28.8216   21.1300 C   0  0  0  0  0  0  0  0  0  0  0  0
  -21.7395  -23.3372   21.6610 C   0  0  0  0  0  0  0  0  0  0  0  0
  -28.7437  -29.2994   18.7678 C   0  0  0  0  0  0  0  0  0  0  0  0
  -23.6045  -12.6265   20.7648 C   0  0  0  0  0  0  0  0  0  0  0  0
  -29.6747  -22.6007   20.4663 C   0  0  0  0  0  0  0  0  0  0  0  0
  -28.6862  -20.9384   22.1298 C   0  0  0  0  0  0  0  0  0  0  0  0
  -25.6515  -24.6157   14.3086 C   0  0  0  0  0  0  0  0  0  0  0  0
  -21.4188  -24.1792   19.4142 C   0  0  0  0  0  0  0  0  0  0  0  0
  -25.3453  -24.2284   15.6272 C   0  0  0  0  0  0  0  0  0  0  0  0
  -21.8183  -24.3939   20.7410 C   0  0  0  0  0  0  0  0  0  0  0  0
  -22.7234  -13.0596   21.7346 C   0  0  0  0  0  0  0  0  0  0  0  0
  -30.5122  -25.1344   19.6531 C   0  0  0  0  0  0  0  0  0  0  0  0
  -21.2582  -22.0881   21.2698 C   0  0  0  0  0  0  0  0  0  0  0  0
  -30.0876  -27.4425   19.5313 C   0  0  0  0  0  0  0  0  0  0  0  0
  -28.4087  -29.5998   20.0882 C   0  0  0  0  0  0  0  0  0  0  0  0
  -29.5831  -28.2207   18.4894 C   0  0  0  0  0  0  0  0  0  0  0  0
  -29.2416  -21.2919   20.8855 C   0  0  0  0  0  0  0  0  0  0  0  0
  -22.8840  -14.3669   22.1463 C   0  0  0  0  0  0  0  0  0  0  0  0
  -28.4467  -19.5898   22.0283 C   0  0  0  0  0  0  0  0  0  0  0  0
  -24.6261  -14.6565   20.7152 C   0  0  0  0  0  0  0  0  0  0  0  0
  -28.4112  -21.7560   23.2751 C   0  0  0  0  0  0  0  0  0  0  0  0
  -23.8956  -25.9717   18.5447 C   0  0  0  0  0  0  0  0  0  0  0  0
  -22.5133  -28.1480   20.5133 C   0  0  0  0  0  0  0  0  0  0  0  0
  -20.4537  -28.7598   23.1648 C   0  0  0  0  0  0  0  0  0  0  0  0
  -26.5711  -15.1752   19.2004 C   0  0  0  0  0  0  0  0  0  0  0  0
  -26.2026  -25.9832   13.9912 C   0  0  0  0  0  0  0  0  0  0  0  0
  -21.4692  -25.3002   18.4126 C   0  0  0  0  0  0  0  0  0  0  0  0
  -22.3389  -25.7284   21.2063 C   0  0  0  0  0  0  0  0  0  0  0  0
  -25.9806  -27.0030   15.1051 C   0  0  0  0  0  0  0  0  0  0  0  0
  -29.8997  -16.2413   18.5214 C   0  0  0  0  0  0  0  0  0  0  0  0
  -26.3533  -26.4054   16.4581 C   0  0  0  0  0  0  0  0  0  0  0  0
  -29.9795  -17.6212   19.1783 C   0  0  0  0  0  0  0  0  0  0  0  0
  -28.5272  -15.9872   17.9006 C   0  0  0  0  0  0  0  0  0  0  0  0
  -27.4688  -17.5712   19.4627 C   0  0  0  0  0  0  0  0  0  0  0  0
  -25.4743  -25.1925   16.7865 C   0  0  1  0  0  0  0  0  0  0  0  0
  -22.4719  -26.3884   18.7837 C   0  0  1  0  0  0  0  0  0  0  0  0
  -28.8117  -17.8472   20.1585 C   0  0  2  0  0  0  0  0  0  0  0  0
  -19.5490  -30.6358   24.5646 C   0  0  0  0  0  0  0  0  0  0  0  0
  -21.7530  -16.7270   24.9583 C   0  0  0  0  0  0  0  0  0  0  0  0
  -25.1958  -28.3655   21.9510 C   0  0  0  0  0  0  0  0  0  0  0  0
  -24.0069  -29.4766   23.8537 C   0  0  0  0  0  0  0  0  0  0  0  0
  -24.0208  -30.5451   21.5996 C   0  0  0  0  0  0  0  0  0  0  0  0
  -17.6625  -28.1369   22.4030 C   0  0  0  0  0  0  0  0  0  0  0  0
  -21.9797  -14.9537   23.2032 C   0  0  0  0  0  0  0  0  0  0  0  0
  -21.6907  -17.3898   22.4985 C   0  0  0  0  0  0  0  0  0  0  0  0
  -21.3308  -19.7451   21.6709 C   0  0  0  0  0  0  0  0  0  1  0  0
  -22.6165  -28.4778   21.9828 C   0  0  1  0  0  0  0  0  0  0  0  0
  -19.3178  -29.7496   23.3506 C   0  0  2  0  0  0  0  0  0  0  0  0
  -22.2889  -16.4282   23.5534 C   0  0  1  0  0  0  0  0  0  0  0  0
  -21.9743  -18.8764   22.7491 C   0  0  2  0  0  0  0  0  0  0  0  0
  -23.9520  -29.1904   22.3379 C   0  0  0  0  0  0  0  0  0  0  0  0
  -24.5716  -13.4011   20.2310 N   0  0  0  0  0  0  0  0  0  0  0  0
  -29.3489  -20.2518   20.0545 N   0  0  0  0  0  0  0  0  0  0  0  0
  -23.8284  -15.1965   21.6563 N   0  0  0  0  0  0  0  0  0  0  0  0
  -28.8576  -19.2314   20.7781 N   0  0  0  0  0  0  0  0  0  0  0  0
  -22.3749  -26.7912   20.1882 N   0  0  0  0  0  0  0  0  0  0  0  0
  -27.4706  -16.2165   18.8885 N   0  0  0  0  0  0  0  0  0  0  0  0
  -21.7377  -12.2120   22.2538 N   0  0  0  0  0  0  0  0  0  0  0  0
  -27.9269  -18.6874   22.8873 N   0  0  0  0  0  0  0  0  0  0  0  0
  -28.7186  -23.1219   23.2102 N   0  0  0  0  0  0  0  0  0  0  0  0
  -25.6302  -15.4993   20.1773 N   0  0  0  0  0  0  0  0  0  0  0  0
  -24.1674  -25.6222   17.2357 N   0  0  0  0  0  0  0  0  0  0  0  0
  -21.4222  -29.2478   22.3132 N   0  0  0  0  0  0  0  0  0  0  0  0
  -18.0269  -29.0281   23.5344 N   0  3  0  0  0  0  0  0  0  0  0  0
  -27.9229  -21.2861   24.3307 O   0  0  0  0  0  0  0  0  0  0  0  0
  -24.6892  -25.9689   19.4785 O   0  0  0  0  0  0  0  0  0  0  0  0
  -22.5469  -29.0613   19.6847 O   0  0  0  0  0  0  0  0  0  0  0  0
  -20.4810  -27.6649   23.7224 O   0  0  0  0  0  0  0  0  0  0  0  0
  -26.6481  -14.0680   18.6618 O   0  0  0  0  0  0  0  0  0  0  0  0
  -23.3853  -19.0872   22.7258 O   0  0  0  0  0  0  0  0  0  0  0  0
  -30.9204  -26.3708   19.2565 O   0  0  0  0  0  0  0  0  0  0  0  0
  -21.1858  -21.0729   22.1731 O   0  0  0  0  0  0  0  0  0  1  0  0
  -27.6014  -30.6347   20.3556 F   0  0  0  0  0  0  0  0  0  0  0  0
  -29.9004  -27.9362   17.2189 F   0  0  0  0  0  0  0  0  0  0  0  0
  1  2  1  0  0  0  0
  1  5  2  0  0  0  0
  2  6  2  0  0  0  0
  3  8  2  0  0  0  0
  3 16  1  0  0  0  0
  4  9  1  0  0  0  0
  4 16  2  0  0  0  0
  5 18  1  0  0  0  0
  6 20  1  0  0  0  0
  7 10  2  0  0  0  0
  7 19  1  0  0  0  0
  8 23  1  0  0  0  0
  9 23  2  0  0  0  0
 10 24  1  0  0  0  0
 11 12  2  0  0  0  0
 11 25  1  0  0  0  0
 12 26  1  0  0  0  0
 13 21  1  0  0  0  0
 13 24  2  0  0  0  0
 14 26  2  0  0  0  0
 14 27  1  0  0  0  0
 15 22  1  0  0  0  0
 15 63  2  0  0  0  0
 16 28  1  0  0  0  0
 17 28  1  0  0  0  0
 17 30  2  0  0  0  0
 17 32  1  0  0  0  0
 18 20  2  0  0  0  0
 18 37  1  0  0  0  0
 19 21  2  0  0  0  0
 19 38  1  0  0  0  0
 20 46  1  0  0  0  0
 21 39  1  0  0  0  0
 22 29  2  0  0  0  0
 22 69  1  0  0  0  0
 23 82  1  0  0  0  0
 24 83  1  0  0  0  0
 25 27  2  0  0  0  0
 25 82  1  0  0  0  0
 26 84  1  0  0  0  0
 27 85  1  0  0  0  0
 28 64  2  0  0  0  0
 29 55  1  0  0  0  0
 29 65  1  0  0  0  0
 30 66  1  0  0  0  0
 30 70  1  0  0  0  0
 31 63  1  0  0  0  0
 31 65  2  0  0  0  0
 31 72  1  0  0  0  0
 32 71  1  0  0  0  0
 32 76  2  0  0  0  0
 33 47  1  0  0  0  0
 33 73  1  0  0  0  0
 33 77  2  0  0  0  0
 34 58  1  0  0  0  0
 34 67  1  0  0  0  0
 34 78  2  0  0  0  0
 35 59  1  0  0  0  0
 35 74  1  0  0  0  0
 35 79  2  0  0  0  0
 36 68  1  0  0  0  0
 36 72  1  0  0  0  0
 36 80  2  0  0  0  0
 37 40  1  0  0  0  0
 38 47  1  0  0  0  0
 39 67  1  0  0  0  0
 40 42  1  0  0  0  0
 41 43  1  0  0  0  0
 41 44  1  0  0  0  0
 42 46  1  0  0  0  0
 43 48  1  0  0  0  0
 44 68  1  0  0  0  0
 45 48  1  0  0  0  0
 45 68  1  0  0  0  0
 46 73  1  0  0  0  0
 47 67  1  0  0  0  0
 48 66  1  0  0  0  0
 49 59  1  0  0  0  0
 50 60  1  0  0  0  0
 51 62  1  0  0  0  0
 52 62  1  0  0  0  0
 53 62  1  0  0  0  0
 54 75  1  0  0  0  0
 55 60  1  0  0  0  0
 56 60  1  0  0  0  0
 56 61  1  0  0  0  0
 57 61  1  0  0  0  0
 57 83  1  0  0  0  0
 58 62  1  0  0  0  0
 58 74  1  0  0  0  0
 59 75  1  0  0  0  0
 61 81  1  0  0  0  0
 64 66  1  0  0  0  0
M  CHG  1  75   1
M  ISO  4  36 100  57 101  72 100  83 101
M  END
> <Batch ID>
0191

> <Smiles>
CNC(C)C(=O)NC(C(=O)N1Cc2cc([101O:1][101CH2:1]C(O)CC(C)Cc3nc([100NH:0][100C:0](=O)N4CCCC(n5nc(-c6ccc(Oc7ccc(F)cc7F)cc6)c(C(N)=O)c5N)C4)ncc3N)ccc2CC1C(=O)NC1CCCc2ccccc21)C(C)(C)C

> <Shape>
0.216

> <Color>
0.066

> <Negative vol penalty>
0.000

$$$$

  -OEChem-04052305243D

 88 96  0     1  0  0  0  0  0999 V2000
  -26.6904  -24.4799   16.3389 C   0  0  0  0  0  0  0  0  0  0  0  0
  -25.5478  -24.9269   16.9945 C   0  0  0  0  0  0  0  0  0  0  0  0
  -26.4054  -14.1421   20.1411 C   0  0  0  0  0  0  0  0  0  0  0  0
  -24.0094  -14.2611   20.4280 C   0  0  0  0  0  0  0  0  0  0  0  0
  -27.9418  -24.6434   16.9316 C   0  0  0  0  0  0  0  0  0  0  0  0
  -25.6557  -25.5369   18.2438 C   0  0  0  0  0  0  0  0  0  0  0  0
  -22.8179  -29.7144   18.6179 C   0  0  0  0  0  0  0  0  0  0  0  0
  -26.4237  -12.9147   20.8035 C   0  0  0  0  0  0  0  0  0  0  0  0
  -24.0278  -13.0336   21.0903 C   0  0  0  0  0  0  0  0  0  0  0  0
  -21.4511  -29.5388   18.8298 C   0  0  0  0  0  0  0  0  0  0  0  0
  -23.3967   -9.7593   22.5391 C   0  0  0  0  0  0  0  0  0  0  0  0
  -22.4272   -8.8190   22.1906 C   0  0  0  0  0  0  0  0  0  0  0  0
  -21.7638  -29.9875   21.1793 C   0  0  0  0  0  0  0  0  0  0  0  0
  -23.2444   -8.8191   19.9170 C   0  0  0  0  0  0  0  0  0  0  0  0
  -25.1982  -14.8153   19.9534 C   0  0  0  0  0  0  0  0  0  0  0  0
  -25.0239  -16.3020   17.8877 C   0  0  0  0  0  0  0  0  0  0  0  0
  -28.0661  -25.2644   18.1844 C   0  0  0  0  0  0  0  0  0  0  0  0
  -23.6710  -30.0176   19.6887 C   0  0  0  0  0  0  0  0  0  0  0  0
  -26.9098  -25.7077   18.8544 C   0  0  0  0  0  0  0  0  0  0  0  0
  -23.1407  -30.1690   20.9779 C   0  0  0  0  0  0  0  0  0  0  0  0
  -25.2350  -12.3604   21.2780 C   0  0  0  0  0  0  0  0  0  0  0  0
  -20.9243  -29.6725   20.1111 C   0  0  0  0  0  0  0  0  0  0  0  0
  -24.2900  -10.2296   21.5765 C   0  0  0  0  0  0  0  0  0  0  0  0
  -22.3511   -8.3488   20.8796 C   0  0  0  0  0  0  0  0  0  0  0  0
  -24.2138   -9.7595   20.2655 C   0  0  0  0  0  0  0  0  0  0  0  0
  -25.1787  -16.0835   19.2698 C   0  0  0  0  0  0  0  0  0  0  0  0
  -19.7796  -23.7394   22.0461 C   0  0  0  0  0  0  0  0  0  0  0  0
  -25.0741  -17.6674   17.7482 C   0  0  0  0  0  0  0  0  0  0  0  0
  -18.9774  -22.6400   21.8225 C   0  0  0  0  0  0  0  0  0  0  0  0
  -21.3478  -22.2713   21.6040 C   0  0  0  0  0  0  0  0  0  0  0  0
  -24.8501  -15.3553   16.8251 C   0  0  0  0  0  0  0  0  0  0  0  0
  -26.1579  -28.5817   21.0516 C   0  0  0  0  0  0  0  0  0  0  0  0
  -26.3196  -31.3377   22.7547 C   0  0  0  0  0  0  0  0  0  0  0  0
  -24.7127  -34.0956   23.9625 C   0  0  0  0  0  0  0  0  0  0  0  0
  -23.8613  -22.1968   21.4522 C   0  0  0  0  0  0  0  0  0  0  0  0
  -29.4355  -25.3763   18.8065 C   0  0  0  0  0  0  0  0  0  0  0  0
  -25.1389  -30.2303   19.4391 C   0  0  0  0  0  0  0  0  0  0  0  0
  -24.0108  -30.5137   22.1579 C   0  0  0  0  0  0  0  0  0  0  0  0
  -29.4994  -26.3699   19.9637 C   0  0  0  0  0  0  0  0  0  0  0  0
  -26.9473  -21.5739   19.7891 C   0  0  0  0  0  0  0  0  0  0  0  0
  -28.3246  -26.1593   20.9136 C   0  0  0  0  0  0  0  0  0  0  0  0
  -26.8274  -20.1170   19.3361 C   0  0  0  0  0  0  0  0  0  0  0  0
  -26.2959  -21.7994   21.1524 C   0  0  0  0  0  0  0  0  0  0  0  0
  -24.7847  -19.8848   20.8061 C   0  0  0  0  0  0  0  0  0  0  0  0
  -26.9884  -26.3965   20.1996 C   0  0  1  0  0  0  0  0  0  0  0  0
  -25.9925  -30.0301   20.6877 C   0  0  1  0  0  0  0  0  0  0  0  0
  -25.3693  -19.6225   19.4085 C   0  0  2  0  0  0  0  0  0  0  0  0
  -25.0980  -36.1488   25.3529 C   0  0  0  0  0  0  0  0  0  0  0  0
  -19.0044  -25.9546   25.4082 C   0  0  0  0  0  0  0  0  0  0  0  0
  -21.4181  -26.5353   25.5297 C   0  0  0  0  0  0  0  0  0  0  0  0
  -20.7198  -24.1683   25.0893 C   0  0  0  0  0  0  0  0  0  0  0  0
  -26.2740  -29.6309   25.2835 C   0  0  0  0  0  0  0  0  0  0  0  0
  -25.7053  -31.6945   26.5823 C   0  0  0  0  0  0  0  0  0  0  0  0
  -27.8707  -31.5545   25.3519 C   0  0  0  0  0  0  0  0  0  0  0  0
  -24.0187  -35.8900   21.7137 C   0  0  0  0  0  0  0  0  0  0  0  0
  -18.9759  -25.9557   21.1335 C   0  0  0  0  0  0  0  0  0  0  0  0
  -18.0443  -27.1498   21.4022 C   0  0  0  0  0  0  0  0  0  0  0  0
  -20.3202  -25.9352   23.2787 C   0  0  0  0  0  0  0  0  0  0  0  0
  -18.9043  -28.6008   19.4577 C   0  0  0  0  0  0  0  0  0  1  0  0
  -19.3074  -25.1358   22.4117 C   0  0  2  0  0  0  0  0  0  0  0  0
  -25.7211  -31.8307   24.0500 C   0  0  1  0  0  0  0  0  0  0  0  0
  -25.0872  -35.5666   23.9480 C   0  0  2  0  0  0  0  0  0  0  0  0
  -17.6985  -27.9684   20.1490 C   0  0  2  0  0  0  0  0  0  0  0  0
  -20.3947  -25.6440   24.8086 C   0  0  0  0  0  0  0  0  0  0  0  0
  -26.3764  -31.1692   25.2952 C   0  0  0  0  0  0  0  0  0  0  0  0
  -25.3171  -17.2193   19.9590 N   0  0  0  0  0  0  0  0  0  0  0  0
  -21.1391  -23.5297   21.9217 N   0  0  0  0  0  0  0  0  0  0  0  0
  -25.2495  -18.1645   19.0061 N   0  0  0  0  0  0  0  0  0  0  0  0
  -25.4406  -30.7056   21.8639 N   0  0  0  0  0  0  0  0  0  0  0  0
  -24.9153  -21.3106   21.1447 N   0  0  0  0  0  0  0  0  0  0  0  0
  -24.9851  -18.4794   16.6734 N   0  0  0  0  0  0  0  0  0  0  0  0
  -17.6253  -22.5665   21.8786 N   0  0  0  0  0  0  0  0  0  0  0  0
  -24.8213  -13.9908   17.1440 N   0  0  0  0  0  0  0  0  0  0  0  0
  -22.5902  -21.6276   21.3811 N   0  0  0  0  0  0  0  0  0  0  0  0
  -26.7357  -27.8145   20.0582 N   0  0  0  0  0  0  0  0  0  0  0  0
  -25.8269  -33.2854   24.0210 N   0  0  0  0  0  0  0  0  0  0  0  0
  -24.1146  -36.3407   23.1260 N   0  3  0  0  0  0  0  0  0  0  0  0
  -24.7406  -15.7080   15.6263 O   0  0  0  0  0  0  0  0  0  0  0  0
  -25.7899  -28.1896   22.1527 O   0  0  0  0  0  0  0  0  0  0  0  0
  -27.5211  -31.5136   22.5381 O   0  0  0  0  0  0  0  0  0  0  0  0
  -23.5480  -33.7044   23.9294 O   0  0  0  0  0  0  0  0  0  0  0  0
  -24.0689  -23.3808   21.7296 O   0  0  0  0  0  0  0  0  0  0  0  0
  -16.7675  -28.9884   20.4981 O   0  0  0  0  0  0  0  0  0  0  0  0
  -25.2525  -11.1626   21.9242 O   0  0  0  0  0  0  0  0  0  0  0  0
  -19.5798  -29.4996   20.3225 O   0  0  0  0  0  0  0  0  0  1  0  0
  -21.4210   -7.4447   20.5455 F   0  0  0  0  0  0  0  0  0  0  0  0
  -25.0700  -10.2067   19.3366 F   0  0  0  0  0  0  0  0  0  0  0  0
  -19.9541  -21.2837   21.4381 S   0  0  0  0  0  0  0  0  0  0  0  0
  1  2  1  0  0  0  0
  1  5  2  0  0  0  0
  2  6  2  0  0  0  0
  3  8  2  0  0  0  0
  3 15  1  0  0  0  0
  4  9  1  0  0  0  0
  4 15  2  0  0  0  0
  5 17  1  0  0  0  0
  6 19  1  0  0  0  0
  7 10  2  0  0  0  0
  7 18  1  0  0  0  0
  8 21  1  0  0  0  0
  9 21  2  0  0  0  0
 10 22  1  0  0  0  0
 11 12  2  0  0  0  0
 11 23  1  0  0  0  0
 12 24  1  0  0  0  0
 13 20  1  0  0  0  0
 13 22  2  0  0  0  0
 14 24  2  0  0  0  0
 14 25  1  0  0  0  0
 15 26  1  0  0  0  0
 16 26  1  0  0  0  0
 16 28  2  0  0  0  0
 16 31  1  0  0  0  0
 17 19  2  0  0  0  0
 17 36  1  0  0  0  0
 18 20  2  0  0  0  0
 18 37  1  0  0  0  0
 19 45  1  0  0  0  0
 20 38  1  0  0  0  0
 21 84  1  0  0  0  0
 22 85  1  0  0  0  0
 23 25  2  0  0  0  0
 23 84  1  0  0  0  0
 24 86  1  0  0  0  0
 25 87  1  0  0  0  0
 26 66  2  0  0  0  0
 27 29  2  0  0  0  0
 27 60  1  0  0  0  0
 27 67  1  0  0  0  0
 28 68  1  0  0  0  0
 28 71  1  0  0  0  0
 29 72  1  0  0  0  0
 29 88  1  0  0  0  0
 30 67  2  0  0  0  0
 30 74  1  0  0  0  0
 30 88  1  0  0  0  0
 31 73  1  0  0  0  0
 31 78  2  0  0  0  0
 32 46  1  0  0  0  0
 32 75  1  0  0  0  0
 32 79  2  0  0  0  0
 33 61  1  0  0  0  0
 33 69  1  0  0  0  0
 33 80  2  0  0  0  0
 34 62  1  0  0  0  0
 34 76  1  0  0  0  0
 34 81  2  0  0  0  0
 35 70  1  0  0  0  0
 35 74  1  0  0  0  0
 35 82  2  0  0  0  0
 36 39  1  0  0  0  0
 37 46  1  0  0  0  0
 38 69  1  0  0  0  0
 39 41  1  0  0  0  0
 40 42  1  0  0  0  0
 40 43  1  0  0  0  0
 41 45  1  0  0  0  0
 42 47  1  0  0  0  0
 43 70  1  0  0  0  0
 44 47  1  0  0  0  0
 44 70  1  0  0  0  0
 45 75  1  0  0  0  0
 46 69  1  0  0  0  0
 47 68  1  0  0  0  0
 48 62  1  0  0  0  0
 49 64  1  0  0  0  0
 50 64  1  0  0  0  0
 51 64  1  0  0  0  0
 52 65  1  0  0  0  0
 53 65  1  0  0  0  0
 54 65  1  0  0  0  0
 55 77  1  0  0  0  0
 56 57  1  0  0  0  0
 56 60  1  0  0  0  0
 57 63  1  0  0  0  0
 58 60  1  0  0  0  0
 58 64  1  0  0  0  0
 59 63  1  0  0  0  0
 59 85  1  0  0  0  0
 61 65  1  0  0  0  0
 61 76  1  0  0  0  0
 62 77  1  0  0  0  0
 63 83  1  0  0  0  0
 66 68  1  0  0  0  0
M  CHG  1  77   1
M  ISO  4  35 100  59 101  74 100  85 101
M  END
> <Batch ID>
0191

> <Smiles>
CNC(C)C(=O)NC(C(=O)N1Cc2cc([101O:1][101CH2:1]C(O)CCC(CC(C)(C)C)c3nc([100NH:0][100C:0](=O)N4CCCC(n5nc(-c6ccc(Oc7ccc(F)cc7F)cc6)c(C(N)=O)c5N)C4)sc3N)ccc2CC1C(=O)NC1CCCc2ccccc21)C(C)(C)C

> <Shape>
0.269

> <Color>
0.068

> <Negative vol penalty>
0.000

$$$$

  -OEChem-04052305243D

 84 92  0     1  0  0  0  0  0999 V2000
  -17.8270  -28.5336   22.8555 C   0  0  0  0  0  0  0  0  0  0  0  0
  -17.6810  -27.1796   22.5711 C   0  0  0  0  0  0  0  0  0  0  0  0
  -30.0456  -23.4331   20.3686 C   0  0  0  0  0  0  0  0  0  0  0  0
  -30.0844  -22.7950   18.0387 C   0  0  0  0  0  0  0  0  0  0  0  0
  -19.1014  -29.0857   22.9771 C   0  0  0  0  0  0  0  0  0  0  0  0
  -18.8096  -26.3772   22.4071 C   0  0  0  0  0  0  0  0  0  0  0  0
  -19.4101  -20.4968   24.0090 C   0  0  0  0  0  0  0  0  0  0  0  0
  -30.7042  -24.6217   20.0541 C   0  0  0  0  0  0  0  0  0  0  0  0
  -30.7429  -23.9837   17.7241 C   0  0  0  0  0  0  0  0  0  0  0  0
  -19.3105  -19.3116   23.2816 C   0  0  0  0  0  0  0  0  0  0  0  0
  -32.0538  -27.9886   19.8141 C   0  0  0  0  0  0  0  0  0  0  0  0
  -31.5773  -29.1661   20.3904 C   0  0  0  0  0  0  0  0  0  0  0  0
  -21.7062  -19.2907   22.9992 C   0  0  0  0  0  0  0  0  0  0  0  0
  -29.4349  -28.8186   19.3289 C   0  0  0  0  0  0  0  0  0  0  0  0
  -26.3071  -11.9921   20.5077 C   0  0  0  0  0  0  0  0  0  0  0  0
  -29.7358  -22.5196   19.3610 C   0  0  0  0  0  0  0  0  0  0  0  0
  -27.6657  -21.0731   19.7218 C   0  0  0  0  0  0  0  0  0  0  0  0
  -20.2461  -28.2877   22.8240 C   0  0  0  0  0  0  0  0  0  0  0  0
  -20.6596  -21.0947   24.2280 C   0  0  0  0  0  0  0  0  0  0  0  0
  -20.1005  -26.9194   22.5254 C   0  0  0  0  0  0  0  0  0  0  0  0
  -21.8192  -20.4821   23.7319 C   0  0  0  0  0  0  0  0  0  0  0  0
  -31.0528  -24.8971   18.7318 C   0  0  0  0  0  0  0  0  0  0  0  0
  -20.4583  -18.7099   22.7741 C   0  0  0  0  0  0  0  0  0  0  0  0
  -31.2209  -27.2262   18.9952 C   0  0  0  0  0  0  0  0  0  0  0  0
  -30.2678  -29.5811   20.1478 C   0  0  0  0  0  0  0  0  0  0  0  0
  -29.9115  -27.6411   18.7526 C   0  0  0  0  0  0  0  0  0  0  0  0
  -29.0560  -21.2913   19.6854 C   0  0  0  0  0  0  0  0  0  0  0  0
  -26.0621  -13.0775   19.6914 C   0  0  0  0  0  0  0  0  0  0  0  0
  -25.3745  -11.7690   21.5000 C   0  0  0  0  0  0  0  0  0  0  0  0
  -27.5345  -19.7537   20.0801 C   0  0  0  0  0  0  0  0  0  0  0  0
  -24.1561  -13.5669   20.8292 C   0  0  0  0  0  0  0  0  0  0  0  0
  -26.5892  -21.9819   19.4555 C   0  0  0  0  0  0  0  0  0  0  0  0
  -21.9837  -23.8760   23.4440 C   0  0  0  0  0  0  0  0  0  0  0  0
  -24.4036  -22.8098   25.3228 C   0  0  0  0  0  0  0  0  0  0  0  0
  -26.0361  -20.1568   26.7168 C   0  0  0  0  0  0  0  0  0  0  0  0
  -29.0498  -14.4047   19.5933 C   0  0  0  0  0  0  0  0  0  0  0  0
  -21.6031  -28.9392   22.9178 C   0  0  0  0  0  0  0  0  0  0  0  0
  -20.7527  -22.3590   25.0375 C   0  0  0  0  0  0  0  0  0  0  0  0
  -23.1863  -21.0728   23.9566 C   0  0  0  0  0  0  0  0  0  0  0  0
  -22.7456  -27.9433   23.1001 C   0  0  0  0  0  0  0  0  0  0  0  0
  -30.9616  -16.4507   21.7923 C   0  0  0  0  0  0  0  0  0  0  0  0
  -22.6032  -26.7824   22.1208 C   0  0  0  0  0  0  0  0  0  0  0  0
  -30.5262  -17.8739   21.4388 C   0  0  0  0  0  0  0  0  0  0  0  0
  -31.0207  -15.5553   20.5566 C   0  0  0  0  0  0  0  0  0  0  0  0
  -29.3484  -16.9483   19.4005 C   0  0  0  0  0  0  0  0  0  0  0  0
  -21.3004  -26.0113   22.3650 C   0  0  1  0  0  0  0  0  0  0  0  0
  -22.0254  -23.1533   24.7607 C   0  0  1  0  0  0  0  0  0  0  0  0
  -29.2199  -17.8741   20.6222 C   0  0  2  0  0  0  0  0  0  0  0  0
  -28.0014  -19.5976   28.1735 C   0  0  0  0  0  0  0  0  0  0  0  0
  -26.2863  -23.3324   22.9793 C   0  0  0  0  0  0  0  0  0  0  0  0
  -27.9947  -21.9042   24.1237 C   0  0  0  0  0  0  0  0  0  0  0  0
  -27.1912  -23.9994   25.2132 C   0  0  0  0  0  0  0  0  0  0  0  0
  -24.3072  -18.9097   28.7697 C   0  0  0  0  0  0  0  0  0  0  0  0
  -27.0151  -13.3989   18.5895 C   0  0  0  0  0  0  0  0  0  0  0  0
  -22.0503  -14.1765   22.0207 C   0  0  0  0  0  0  0  0  0  0  0  0
  -21.4730  -16.6579   22.1293 C   0  0  0  0  0  0  0  0  0  1  0  0
  -25.6542  -21.9954   25.0957 C   0  0  1  0  0  0  0  0  0  0  0  0
  -26.5113  -19.8987   28.1353 C   0  0  2  0  0  0  0  0  0  0  0  0
  -20.9605  -15.2378   21.9422 C   0  0  1  0  0  0  0  0  0  0  0  0
  -26.7558  -22.7975   24.3469 C   0  0  0  0  0  0  0  0  0  0  0  0
  -29.7578  -20.1981   19.9959 N   0  0  0  0  0  0  0  0  0  0  0  0
  -24.9926  -13.8891   19.8243 N   0  0  0  0  0  0  0  0  0  0  0  0
  -24.2833  -12.5393   21.6903 N   0  0  0  0  0  0  0  0  0  0  0  0
  -28.8047  -19.2803   20.2310 N   0  0  0  0  0  0  0  0  0  0  0  0
  -23.2247  -22.3132   24.7488 N   0  0  0  0  0  0  0  0  0  0  0  0
  -29.7507  -15.5991   19.8279 N   0  0  0  0  0  0  0  0  0  0  0  0
  -25.5890  -10.6643   22.3602 N   0  0  0  0  0  0  0  0  0  0  0  0
  -26.4577  -18.9639   20.2777 N   0  0  0  0  0  0  0  0  0  0  0  0
  -26.9010  -23.3013   19.1001 N   0  0  0  0  0  0  0  0  0  0  0  0
  -23.0459  -14.3794   20.9949 N   0  0  0  0  0  0  0  0  0  0  0  0
  -21.4353  -25.1424   23.5144 N   0  0  0  0  0  0  0  0  0  0  0  0
  -26.0622  -21.4999   26.4058 N   0  0  0  0  0  0  0  0  0  0  0  0
  -27.8521  -14.5360   18.9012 N   0  0  0  0  0  0  0  0  0  0  0  0
  -25.7822  -18.7394   28.7229 N   0  3  0  0  0  0  0  0  0  0  0  0
  -25.3861  -21.6385   19.5464 O   0  0  0  0  0  0  0  0  0  0  0  0
  -22.4183  -23.3259   22.4389 O   0  0  0  0  0  0  0  0  0  0  0  0
  -24.4688  -23.8446   25.9911 O   0  0  0  0  0  0  0  0  0  0  0  0
  -25.6811  -19.2566   25.9591 O   0  0  0  0  0  0  0  0  0  0  0  0
  -29.4583  -13.3034   19.9772 O   0  0  0  0  0  0  0  0  0  0  0  0
  -31.6952  -26.0570   18.4245 O   0  0  0  0  0  0  0  0  0  0  0  0
  -20.3639  -17.5533   22.0632 O   0  0  0  0  0  0  0  0  0  1  0  0
  -29.8099  -30.7111   20.7025 F   0  0  0  0  0  0  0  0  0  0  0  0
  -29.1063  -26.9122   17.9677 F   0  0  0  0  0  0  0  0  0  0  0  0
  -20.3699  -15.1561   20.7144 F   0  0  0  0  0  0  0  0  0  0  0  0
  1  2  1  0  0  0  0
  1  5  2  0  0  0  0
  2  6  2  0  0  0  0
  3  8  2  0  0  0  0
  3 16  1  0  0  0  0
  4  9  1  0  0  0  0
  4 16  2  0  0  0  0
  5 18  1  0  0  0  0
  6 20  1  0  0  0  0
  7 10  2  0  0  0  0
  7 19  1  0  0  0  0
  8 22  1  0  0  0  0
  9 22  2  0  0  0  0
 10 23  1  0  0  0  0
 11 12  2  0  0  0  0
 11 24  1  0  0  0  0
 12 25  1  0  0  0  0
 13 21  1  0  0  0  0
 13 23  2  0  0  0  0
 14 25  2  0  0  0  0
 14 26  1  0  0  0  0
 15 28  2  0  0  0  0
 15 29  1  0  0  0  0
 16 27  1  0  0  0  0
 17 27  1  0  0  0  0
 17 30  2  0  0  0  0
 17 32  1  0  0  0  0
 18 20  2  0  0  0  0
 18 37  1  0  0  0  0
 19 21  2  0  0  0  0
 19 38  1  0  0  0  0
 20 46  1  0  0  0  0
 21 39  1  0  0  0  0
 22 80  1  0  0  0  0
 23 81  1  0  0  0  0
 24 26  2  0  0  0  0
 24 80  1  0  0  0  0
 25 82  1  0  0  0  0
 26 83  1  0  0  0  0
 27 61  2  0  0  0  0
 28 54  1  0  0  0  0
 28 62  1  0  0  0  0
 29 63  2  0  0  0  0
 29 67  1  0  0  0  0
 30 64  1  0  0  0  0
 30 68  1  0  0  0  0
 31 62  2  0  0  0  0
 31 63  1  0  0  0  0
 31 70  1  0  0  0  0
 32 69  1  0  0  0  0
 32 75  2  0  0  0  0
 33 47  1  0  0  0  0
 33 71  1  0  0  0  0
 33 76  2  0  0  0  0
 34 57  1  0  0  0  0
 34 65  1  0  0  0  0
 34 77  2  0  0  0  0
 35 58  1  0  0  0  0
 35 72  1  0  0  0  0
 35 78  2  0  0  0  0
 36 66  1  0  0  0  0
 36 73  1  0  0  0  0
 36 79  2  0  0  0  0
 37 40  1  0  0  0  0
 38 47  1  0  0  0  0
 39 65  1  0  0  0  0
 40 42  1  0  0  0  0
 41 43  1  0  0  0  0
 41 44  1  0  0  0  0
 42 46  1  0  0  0  0
 43 48  1  0  0  0  0
 44 66  1  0  0  0  0
 45 48  1  0  0  0  0
 45 66  1  0  0  0  0
 46 71  1  0  0  0  0
 47 65  1  0  0  0  0
 48 64  1  0  0  0  0
 49 58  1  0  0  0  0
 50 60  1  0  0  0  0
 51 60  1  0  0  0  0
 52 60  1  0  0  0  0
 53 74  1  0  0  0  0
 54 73  1  0  0  0  0
 55 59  1  0  0  0  0
 55 70  1  0  0  0  0
 56 59  1  0  0  0  0
 56 81  1  0  0  0  0
 57 60  1  0  0  0  0
 57 72  1  0  0  0  0
 58 74  1  0  0  0  0
 59 84  1  0  0  0  0
 61 64  1  0  0  0  0
M  CHG  1  74   1
M  ISO  4  36 100  56 101  73 100  81 101
M  END
> <Batch ID>
0191

> <Smiles>
CNC(C)C(=O)NC(C(=O)N1Cc2cc([101O:1][101CH2:1]C(F)CNc3nc(N)cc(C[100NH:0][100C:0](=O)N4CCCC(n5nc(-c6ccc(Oc7ccc(F)cc7F)cc6)c(C(N)=O)c5N)C4)n3)ccc2CC1C(=O)NC1CCCc2ccccc21)C(C)(C)C

> <Shape>
0.231

> <Color>
0.051

> <Negative vol penalty>
0.000

$$$$

  -OEChem-04052305243D

 88 96  0     1  0  0  0  0  0999 V2000
  -27.7638  -32.0867   23.8580 C   0  0  0  0  0  0  0  0  0  0  0  0
  -28.1127  -30.8061   23.4413 C   0  0  0  0  0  0  0  0  0  0  0  0
  -23.1449   -9.8358   19.9065 C   0  0  0  0  0  0  0  0  0  0  0  0
  -23.8985   -9.8393   22.2020 C   0  0  0  0  0  0  0  0  0  0  0  0
  -26.7372  -32.7735   23.2112 C   0  0  0  0  0  0  0  0  0  0  0  0
  -27.4345  -30.2111   22.3781 C   0  0  0  0  0  0  0  0  0  0  0  0
  -30.5627  -27.9477   19.1014 C   0  0  0  0  0  0  0  0  0  0  0  0
  -22.4379   -8.6564   20.1404 C   0  0  0  0  0  0  0  0  0  0  0  0
  -23.1915   -8.6599   22.4359 C   0  0  0  0  0  0  0  0  0  0  0  0
  -31.0721  -26.7017   19.4643 C   0  0  0  0  0  0  0  0  0  0  0  0
  -19.9892   -7.7514   23.0195 C   0  0  0  0  0  0  0  0  0  0  0  0
  -19.2310   -7.6729   24.1876 C   0  0  0  0  0  0  0  0  0  0  0  0
  -29.4262  -25.6280   18.0653 C   0  0  0  0  0  0  0  0  0  0  0  0
  -20.5324   -5.7676   24.9042 C   0  0  0  0  0  0  0  0  0  0  0  0
  -31.9786  -18.7881   22.0643 C   0  0  0  0  0  0  0  0  0  0  0  0
  -29.5813  -17.8696   22.7968 C   0  0  0  0  0  0  0  0  0  0  0  0
  -23.8753  -10.4273   20.9373 C   0  0  0  0  0  0  0  0  0  0  0  0
  -24.1359  -12.9634   20.8487 C   0  0  0  0  0  0  0  0  0  0  0  0
  -26.0526  -32.1904   22.1333 C   0  0  0  0  0  0  0  0  0  0  0  0
  -29.4724  -28.0430   18.2247 C   0  0  0  0  0  0  0  0  0  0  0  0
  -26.3969  -30.8902   21.7171 C   0  0  0  0  0  0  0  0  0  0  0  0
  -28.9065  -26.8765   17.6908 C   0  0  0  0  0  0  0  0  0  0  0  0
  -22.4612   -8.0684   21.4051 C   0  0  0  0  0  0  0  0  0  0  0  0
  -30.5020  -25.5415   18.9485 C   0  0  0  0  0  0  0  0  0  0  0  0
  -21.0189   -6.8379   22.7936 C   0  0  0  0  0  0  0  0  0  0  0  0
  -19.5026   -6.6810   25.1300 C   0  0  0  0  0  0  0  0  0  0  0  0
  -21.2905   -5.8460   23.7360 C   0  0  0  0  0  0  0  0  0  0  0  0
  -24.6062  -11.6453   20.6961 C   0  0  0  0  0  0  0  0  0  0  0  0
  -31.1537  -19.5277   22.8829 C   0  0  0  0  0  0  0  0  0  0  0  0
  -30.4057  -17.1302   21.9776 C   0  0  0  0  0  0  0  0  0  0  0  0
  -25.2043  -13.7519   20.4977 C   0  0  0  0  0  0  0  0  0  0  0  0
  -22.8484  -13.4329   21.2702 C   0  0  0  0  0  0  0  0  0  0  0  0
  -26.5158  -29.1903   18.4385 C   0  0  0  0  0  0  0  0  0  0  0  0
  -26.4407  -28.5120   15.2673 C   0  0  0  0  0  0  0  0  0  0  0  0
  -27.6759  -26.6801   12.6663 C   0  0  0  0  0  0  0  0  0  0  0  0
  -30.6335  -14.9706   20.7007 C   0  0  0  0  0  0  0  0  0  0  0  0
  -24.9182  -32.9531   21.4958 C   0  0  0  0  0  0  0  0  0  0  0  0
  -28.9517  -29.3955   17.8221 C   0  0  0  0  0  0  0  0  0  0  0  0
  -27.7476  -26.9253   16.7301 C   0  0  0  0  0  0  0  0  0  0  0  0
  -24.5004  -32.3995   20.1359 C   0  0  0  0  0  0  0  0  0  0  0  0
  -29.6033  -12.5511   18.3002 C   0  0  0  0  0  0  0  0  0  0  0  0
  -24.3638  -30.8815   20.1966 C   0  0  0  0  0  0  0  0  0  0  0  0
  -28.1727  -12.2082   18.7221 C   0  0  0  0  0  0  0  0  0  0  0  0
  -30.5076  -12.7946   19.5072 C   0  0  0  0  0  0  0  0  0  0  0  0
  -28.5749  -13.4406   20.8916 C   0  0  0  0  0  0  0  0  0  0  0  0
  -25.7013  -30.2209   20.5516 C   0  0  1  0  0  0  0  0  0  0  0  0
  -27.5101  -29.3569   17.3244 C   0  0  1  0  0  0  0  0  0  0  0  0
  -27.6110  -13.2504   19.7090 C   0  0  2  0  0  0  0  0  0  0  0  0
  -33.7908  -22.9131   24.3402 C   0  0  0  0  0  0  0  0  0  0  0  0
  -27.3901  -26.3202   10.1993 C   0  0  0  0  0  0  0  0  0  0  0  0
  -31.4187  -20.1841   25.8541 C   0  0  0  0  0  0  0  0  0  0  0  0
  -28.4098  -22.6765   22.4145 C   0  0  0  0  0  0  0  0  0  0  0  0
  -29.9421  -22.1784   19.0907 C   0  0  0  0  0  0  0  0  0  0  0  0
  -23.9003  -26.9075   15.7981 C   0  0  0  0  0  0  0  0  0  0  0  0
  -24.2001  -25.8246   13.5608 C   0  0  0  0  0  0  0  0  0  0  0  0
  -23.8452  -28.2890   13.7141 C   0  0  0  0  0  0  0  0  0  0  0  0
  -30.4554  -27.5264   12.1032 C   0  0  0  0  0  0  0  0  0  0  0  0
  -32.8002  -22.2161   25.2635 C   0  0  0  0  0  0  0  0  0  0  0  0
  -30.6640  -23.0679   21.3368 C   0  0  0  0  0  0  0  0  0  0  0  0
  -31.5922  -20.8907   23.3911 C   0  0  2  0  0  0  0  0  0  0  0  0
  -26.0594  -27.3080   14.4403 C   0  0  1  0  0  0  0  0  0  0  0  0
  -28.1392  -27.0859   11.2788 C   0  0  2  0  0  0  0  0  0  0  0  0
  -32.3003  -20.8338   24.7754 C   0  0  2  0  0  0  0  0  0  0  0  0
  -29.7933  -22.0970   22.1471 C   0  0  1  0  0  0  0  0  0  0  0  0
  -30.1024  -23.4237   19.9541 C   0  0  1  0  0  0  0  0  0  1  0  0
  -24.5218  -27.0809   14.3979 C   0  0  0  0  0  0  0  0  0  0  0  0
  -29.9405  -19.0816   23.2641 N   0  0  0  0  0  0  0  0  0  0  0  0
  -31.6192  -17.5762   21.5966 N   0  0  0  0  0  0  0  0  0  0  0  0
  -25.8746  -11.5953   20.2804 N   0  0  0  0  0  0  0  0  0  0  0  0
  -26.2103  -12.8918   20.1686 N   0  0  0  0  0  0  0  0  0  0  0  0
  -27.2700  -28.2711   16.3718 N   0  0  0  0  0  0  0  0  0  0  0  0
  -29.9135  -13.7962   20.3953 N   0  0  0  0  0  0  0  0  0  0  0  0
  -25.3719  -15.0903   20.4413 N   0  0  0  0  0  0  0  0  0  0  0  0
  -21.8655  -12.4876   21.5936 N   0  0  0  0  0  0  0  0  0  0  0  0
  -29.9547  -15.8643   21.5283 N   0  0  0  0  0  0  0  0  0  0  0  0
  -26.5705  -30.1860   19.3951 N   0  0  0  0  0  0  0  0  0  0  0  0
  -26.6710  -27.5024   13.1301 N   0  0  0  0  0  0  0  0  0  0  0  0
  -29.5965  -26.8174   11.1201 N   0  3  0  0  0  0  0  0  0  0  0  0
  -30.4351  -21.8200   23.4626 N   0  3  0  0  0  0  0  0  0  0  0  0
  -22.5726  -14.6545   21.3417 O   0  0  0  0  0  0  0  0  0  0  0  0
  -25.7542  -28.2303   18.4300 O   0  0  0  0  0  0  0  0  0  0  0  0
  -26.0240  -29.6263   14.9410 O   0  0  0  0  0  0  0  0  0  0  0  0
  -28.1549  -25.7265   13.2761 O   0  0  0  0  0  0  0  0  0  0  0  0
  -31.7578  -15.1812   20.2384 O   0  0  0  0  0  0  0  0  0  0  0  0
  -21.7712   -6.9177   21.6337 O   0  0  0  0  0  0  0  0  0  0  0  0
  -30.9969  -24.3240   19.3017 O   0  0  0  0  0  0  0  0  0  1  0  0
  -18.7755   -6.6067   26.2524 F   0  0  0  0  0  0  0  0  0  0  0  0
  -22.2792   -4.9664   23.5251 F   0  0  0  0  0  0  0  0  0  0  0  0
  1  2  1  0  0  0  0
  1  5  2  0  0  0  0
  2  6  2  0  0  0  0
  3  8  2  0  0  0  0
  3 17  1  0  0  0  0
  4  9  1  0  0  0  0
  4 17  2  0  0  0  0
  5 19  1  0  0  0  0
  6 21  1  0  0  0  0
  7 10  2  0  0  0  0
  7 20  1  0  0  0  0
  8 23  1  0  0  0  0
  9 23  2  0  0  0  0
 10 24  1  0  0  0  0
 11 12  2  0  0  0  0
 11 25  1  0  0  0  0
 12 26  1  0  0  0  0
 13 22  1  0  0  0  0
 13 24  2  0  0  0  0
 14 26  2  0  0  0  0
 14 27  1  0  0  0  0
 15 29  1  0  0  0  0
 15 68  2  0  0  0  0
 16 30  2  0  0  0  0
 16 67  1  0  0  0  0
 17 28  1  0  0  0  0
 18 28  1  0  0  0  0
 18 31  2  0  0  0  0
 18 32  1  0  0  0  0
 19 21  2  0  0  0  0
 19 37  1  0  0  0  0
 20 22  2  0  0  0  0
 20 38  1  0  0  0  0
 21 46  1  0  0  0  0
 22 39  1  0  0  0  0
 23 85  1  0  0  0  0
 24 86  1  0  0  0  0
 25 27  2  0  0  0  0
 25 85  1  0  0  0  0
 26 87  1  0  0  0  0
 27 88  1  0  0  0  0
 28 69  2  0  0  0  0
 29 60  1  0  0  0  0
 29 67  2  0  0  0  0
 30 68  1  0  0  0  0
 30 75  1  0  0  0  0
 31 70  1  0  0  0  0
 31 73  1  0  0  0  0
 32 74  1  0  0  0  0
 32 80  2  0  0  0  0
 33 47  1  0  0  0  0
 33 76  1  0  0  0  0
 33 81  2  0  0  0  0
 34 61  1  0  0  0  0
 34 71  1  0  0  0  0
 34 82  2  0  0  0  0
 35 62  1  0  0  0  0
 35 77  1  0  0  0  0
 35 83  2  0  0  0  0
 36 72  1  0  0  0  0
 36 75  1  0  0  0  0
 36 84  2  0  0  0  0
 37 40  1  0  0  0  0
 38 47  1  0  0  0  0
 39 71  1  0  0  0  0
 40 42  1  0  0  0  0
 41 43  1  0  0  0  0
 41 44  1  0  0  0  0
 42 46  1  0  0  0  0
 43 48  1  0  0  0  0
 44 72  1  0  0  0  0
 45 48  1  0  0  0  0
 45 72  1  0  0  0  0
 46 76  1  0  0  0  0
 47 71  1  0  0  0  0
 48 70  1  0  0  0  0
 49 58  1  0  0  0  0
 50 62  1  0  0  0  0
 51 63  1  0  0  0  0
 52 64  1  0  0  0  0
 53 65  1  0  0  0  0
 54 66  1  0  0  0  0
 55 66  1  0  0  0  0
 56 66  1  0  0  0  0
 57 78  1  0  0  0  0
 58 63  1  0  0  0  0
 59 64  1  0  0  0  0
 59 65  1  0  0  0  0
 60 63  1  0  0  0  0
 60 79  1  0  0  0  0
 61 66  1  0  0  0  0
 61 77  1  0  0  0  0
 62 78  1  0  0  0  0
 64 79  1  0  0  0  0
 65 86  1  0  0  0  0
 69 70  1  0  0  0  0
M  CHG  2  78   1  79   1
M  ISO  4  36 100  65 101  75 100  86 101
M  END
> <Batch ID>
0191

> <Smiles>
CCC(C)C(NC(C)C[101CH:1](C)[101O:1]c1ccc2c(c1)CN(C(=O)C(NC(=O)C(C)NC)C(C)(C)C)C(C(=O)NC1CCCc3ccccc31)C2)c1cnc([100NH:0][100C:0](=O)N2CCCC(n3nc(-c4ccc(Oc5ccc(F)cc5F)cc4)c(C(N)=O)c3N)C2)cn1

> <Shape>
0.287

> <Color>
0.183

> <Negative vol penalty>
0.000

$$$$

  -OEChem-04052305243D

 86 94  0     1  0  0  0  0  0999 V2000
  -19.3690  -18.9864   22.3321 C   0  0  0  0  0  0  0  0  0  0  0  0
  -20.6139  -19.3625   22.8262 C   0  0  0  0  0  0  0  0  0  0  0  0
  -23.9601  -14.2019   21.5795 C   0  0  0  0  0  0  0  0  0  0  0  0
  -26.1635  -14.1552   20.5897 C   0  0  0  0  0  0  0  0  0  0  0  0
  -18.6586  -19.8532   21.5028 C   0  0  0  0  0  0  0  0  0  0  0  0
  -21.1496  -20.6054   22.4903 C   0  0  0  0  0  0  0  0  0  0  0  0
  -23.1498  -23.0586   26.5490 C   0  0  0  0  0  0  0  0  0  0  0  0
  -23.6757  -12.9631   21.0048 C   0  0  0  0  0  0  0  0  0  0  0  0
  -25.8791  -12.9164   20.0151 C   0  0  0  0  0  0  0  0  0  0  0  0
  -24.4060  -22.6649   27.0081 C   0  0  0  0  0  0  0  0  0  0  0  0
  -24.3743   -9.7125   21.6200 C   0  0  0  0  0  0  0  0  0  0  0  0
  -23.7584   -8.7520   22.4221 C   0  0  0  0  0  0  0  0  0  0  0  0
  -25.4147  -24.4883   25.7933 C   0  0  0  0  0  0  0  0  0  0  0  0
  -21.8837   -8.6827   20.8997 C   0  0  0  0  0  0  0  0  0  0  0  0
  -25.2040  -14.7979   21.3718 C   0  0  0  0  0  0  0  0  0  0  0  0
  -25.5058  -16.3981   23.3355 C   0  0  0  0  0  0  0  0  0  0  0  0
  -19.1815  -21.1113   21.1644 C   0  0  0  0  0  0  0  0  0  0  0  0
  -23.0170  -24.1659   25.6987 C   0  0  0  0  0  0  0  0  0  0  0  0
  -20.4461  -21.4893   21.6546 C   0  0  0  0  0  0  0  0  0  0  0  0
  -24.1553  -24.8968   25.3288 C   0  0  0  0  0  0  0  0  0  0  0  0
  -24.6352  -12.3204   20.2227 C   0  0  0  0  0  0  0  0  0  0  0  0
  -25.5389  -23.3784   26.6284 C   0  0  0  0  0  0  0  0  0  0  0  0
  -23.7449  -10.1583   20.4577 C   0  0  0  0  0  0  0  0  0  0  0  0
  -22.5131   -8.2370   22.0620 C   0  0  0  0  0  0  0  0  0  0  0  0
  -22.4996   -9.6434   20.0976 C   0  0  0  0  0  0  0  0  0  0  0  0
  -25.4982  -16.0778   21.9647 C   0  0  0  0  0  0  0  0  0  0  0  0
  -25.8430  -17.7290   23.3753 C   0  0  0  0  0  0  0  0  0  0  0  0
  -30.2603  -24.9602   21.5191 C   0  0  0  0  0  0  0  0  0  0  0  0
  -29.9719  -23.8154   22.1402 C   0  0  0  0  0  0  0  0  0  0  0  0
  -29.8790  -24.6219   20.1431 C   0  0  0  0  0  0  0  0  0  0  0  0
  -25.2326  -15.5669   24.4714 C   0  0  0  0  0  0  0  0  0  0  0  0
  -21.9270  -24.6970   22.7364 C   0  0  0  0  0  0  0  0  0  0  0  0
  -28.8937  -21.0882   19.5432 C   0  0  0  0  0  0  0  0  0  0  0  0
  -22.5252  -27.8402   23.6397 C   0  0  0  0  0  0  0  0  0  0  0  0
  -29.8481  -22.3824   24.0880 C   0  0  0  0  0  0  0  0  0  0  0  0
  -21.3429  -28.7740   20.8766 C   0  0  0  0  0  0  0  0  0  0  0  0
  -18.3977  -21.9948   20.2264 C   0  0  0  0  0  0  0  0  0  0  0  0
  -21.6491  -24.5924   25.2390 C   0  0  0  0  0  0  0  0  0  0  0  0
  -24.0654  -26.0942   24.4217 C   0  0  0  0  0  0  0  0  0  0  0  0
  -18.8685  -23.4469   20.2215 C   0  0  0  0  0  0  0  0  0  0  0  0
  -25.5516  -21.7519   20.8149 C   0  0  0  0  0  0  0  0  0  0  0  0
  -20.3893  -23.5148   20.1249 C   0  0  0  0  0  0  0  0  0  0  0  0
  -25.1524  -20.3796   21.3560 C   0  0  0  0  0  0  0  0  0  0  0  0
  -26.4105  -21.6317   19.5588 C   0  0  0  0  0  0  0  0  0  0  0  0
  -27.2307  -19.4113   20.2809 C   0  0  0  0  0  0  0  0  0  0  0  0
  -21.0495  -22.8393   21.3329 C   0  0  1  0  0  0  0  0  0  0  0  0
  -21.6720  -25.4776   23.9946 C   0  0  1  0  0  0  0  0  0  0  0  0
  -26.3888  -19.4880   21.5655 C   0  0  2  0  0  0  0  0  0  0  0  0
  -20.3433  -29.8916   18.8644 C   0  0  0  0  0  0  0  0  0  0  0  0
  -28.1757  -25.3367   17.6645 C   0  0  0  0  0  0  0  0  0  0  0  0
  -30.5288  -25.5662   16.7953 C   0  0  0  0  0  0  0  0  0  0  0  0
  -20.2650  -27.8108   25.6881 C   0  0  0  0  0  0  0  0  0  0  0  0
  -18.9098  -29.2018   24.1081 C   0  0  0  0  0  0  0  0  0  0  0  0
  -21.0487  -30.0932   25.0318 C   0  0  0  0  0  0  0  0  0  0  0  0
  -23.9332  -29.9897   20.1210 C   0  0  0  0  0  0  0  0  0  0  0  0
  -29.1519  -22.4691   18.9954 C   0  0  0  0  0  0  0  0  0  0  0  0
  -30.1667  -22.4308   25.5729 C   0  0  0  0  0  0  0  0  0  0  0  0
  -28.9366  -22.1938   26.4418 C   0  0  0  0  0  0  0  0  0  0  0  0
  -27.8802  -23.2678   26.2260 C   0  0  0  0  0  0  0  0  0  1  0  0
  -21.1184  -28.2591   23.2930 C   0  0  1  0  0  0  0  0  0  0  0  0
  -21.4447  -29.9416   19.9118 C   0  0  2  0  0  0  0  0  0  0  0  0
  -29.6365  -24.9645   17.8706 C   0  0  0  0  0  0  0  0  0  0  0  0
  -20.3460  -28.8161   24.5220 C   0  0  0  0  0  0  0  0  0  0  0  0
  -25.8059  -17.1212   21.1897 N   0  0  0  0  0  0  0  0  0  0  0  0
  -30.0692  -25.4527   19.1713 N   0  0  0  0  0  0  0  0  0  0  0  0
  -26.0100  -18.1102   22.0764 N   0  0  0  0  0  0  0  0  0  0  0  0
  -29.3433  -23.3600   20.1026 N   0  0  0  0  0  0  0  0  0  0  0  0
  -22.7042  -26.5193   24.0701 N   0  0  0  0  0  0  0  0  0  0  0  0
  -27.5626  -20.7525   19.7915 N   0  0  0  0  0  0  0  0  0  0  0  0
  -26.0099  -18.5987   24.3942 N   0  0  0  0  0  0  0  0  0  0  0  0
  -23.9131  -15.4835   24.9363 N   0  0  0  0  0  0  0  0  0  0  0  0
  -30.1570  -23.5850   23.4646 N   0  0  0  0  0  0  0  0  0  0  0  0
  -20.9948  -23.7072   22.4897 N   0  0  0  0  0  0  0  0  0  0  0  0
  -21.2342  -29.1995   22.1837 N   0  0  0  0  0  0  0  0  0  0  0  0
  -22.7602  -29.9219   19.2118 N   0  3  0  0  0  0  0  0  0  0  0  0
  -26.1347  -14.9303   25.0667 O   0  0  0  0  0  0  0  0  0  0  0  0
  -22.8968  -24.9733   22.0400 O   0  0  0  0  0  0  0  0  0  0  0  0
  -29.8479  -20.3330   19.7464 O   0  0  0  0  0  0  0  0  0  0  0  0
  -23.4408  -28.6617   23.5400 O   0  0  0  0  0  0  0  0  0  0  0  0
  -29.3774  -21.3912   23.5358 O   0  0  0  0  0  0  0  0  0  0  0  0
  -21.3545  -27.6018   20.5074 O   0  0  0  0  0  0  0  0  0  0  0  0
  -29.4510  -22.7782   21.3679 O   0  0  0  0  0  0  0  0  0  0  0  0
  -24.3581  -11.1115   19.6620 O   0  0  0  0  0  0  0  0  0  0  0  0
  -26.7662  -22.9965   27.0755 O   0  0  0  0  0  0  0  0  0  1  0  0
  -21.9224   -7.3134   22.8316 F   0  0  0  0  0  0  0  0  0  0  0  0
  -21.8906  -10.0669   18.9815 F   0  0  0  0  0  0  0  0  0  0  0  0
  1  2  1  0  0  0  0
  1  5  2  0  0  0  0
  2  6  2  0  0  0  0
  3  8  2  0  0  0  0
  3 15  1  0  0  0  0
  4  9  1  0  0  0  0
  4 15  2  0  0  0  0
  5 17  1  0  0  0  0
  6 19  1  0  0  0  0
  7 10  2  0  0  0  0
  7 18  1  0  0  0  0
  8 21  1  0  0  0  0
  9 21  2  0  0  0  0
 10 22  1  0  0  0  0
 11 12  2  0  0  0  0
 11 23  1  0  0  0  0
 12 24  1  0  0  0  0
 13 20  1  0  0  0  0
 13 22  2  0  0  0  0
 14 24  2  0  0  0  0
 14 25  1  0  0  0  0
 15 26  1  0  0  0  0
 16 26  1  0  0  0  0
 16 27  2  0  0  0  0
 16 31  1  0  0  0  0
 17 19  2  0  0  0  0
 17 37  1  0  0  0  0
 18 20  2  0  0  0  0
 18 38  1  0  0  0  0
 19 46  1  0  0  0  0
 20 39  1  0  0  0  0
 21 83  1  0  0  0  0
 22 84  1  0  0  0  0
 23 25  2  0  0  0  0
 23 83  1  0  0  0  0
 24 85  1  0  0  0  0
 25 86  1  0  0  0  0
 26 64  2  0  0  0  0
 27 66  1  0  0  0  0
 27 70  1  0  0  0  0
 28 29  2  0  0  0  0
 28 30  1  0  0  0  0
 29 72  1  0  0  0  0
 29 82  1  0  0  0  0
 30 65  2  0  0  0  0
 30 67  1  0  0  0  0
 31 71  1  0  0  0  0
 31 76  2  0  0  0  0
 32 47  1  0  0  0  0
 32 73  1  0  0  0  0
 32 77  2  0  0  0  0
 33 56  1  0  0  0  0
 33 69  1  0  0  0  0
 33 78  2  0  0  0  0
 34 60  1  0  0  0  0
 34 68  1  0  0  0  0
 34 79  2  0  0  0  0
 35 57  1  0  0  0  0
 35 72  1  0  0  0  0
 35 80  2  0  0  0  0
 36 61  1  0  0  0  0
 36 74  1  0  0  0  0
 36 81  2  0  0  0  0
 37 40  1  0  0  0  0
 38 47  1  0  0  0  0
 39 68  1  0  0  0  0
 40 42  1  0  0  0  0
 41 43  1  0  0  0  0
 41 44  1  0  0  0  0
 42 46  1  0  0  0  0
 43 48  1  0  0  0  0
 44 69  1  0  0  0  0
 45 48  1  0  0  0  0
 45 69  1  0  0  0  0
 46 73  1  0  0  0  0
 47 68  1  0  0  0  0
 48 66  1  0  0  0  0
 49 61  1  0  0  0  0
 50 62  1  0  0  0  0
 51 62  1  0  0  0  0
 52 63  1  0  0  0  0
 53 63  1  0  0  0  0
 54 63  1  0  0  0  0
 55 75  1  0  0  0  0
 56 67  1  0  0  0  0
 57 58  1  0  0  0  0
 58 59  1  0  0  0  0
 59 84  1  0  0  0  0
 60 63  1  0  0  0  0
 60 74  1  0  0  0  0
 61 75  1  0  0  0  0
 62 65  1  0  0  0  0
 64 66  1  0  0  0  0
 67 82  1  0  0  0  0
M  CHG  1  75   1
M  ISO  4  33 100  56 100  59 101  84 101
M  END
> <Batch ID>
0191

> <Smiles>
CNC(C)C(=O)NC(C(=O)N1Cc2cc([101O:1][101CH2:1]CCC(=O)Nc3cc(=NC(C)C)n([100CH2:0][100C:0](=O)N4CCCC(n5nc(-c6ccc(Oc7ccc(F)cc7F)cc6)c(C(N)=O)c5N)C4)o3)ccc2CC1C(=O)NC1CCCc2ccccc21)C(C)(C)C

> <Shape>
0.186

> <Color>
0.077

> <Negative vol penalty>
0.000

$$$$

  -OEChem-04052305243D

 82 90  0     1  0  0  0  0  0999 V2000
  -29.6325  -34.4776   22.6070 C   0  0  0  0  0  0  0  0  0  0  0  0
  -29.8578  -33.1083   22.5098 C   0  0  0  0  0  0  0  0  0  0  0  0
  -27.0154  -12.9710   20.9995 C   0  0  0  0  0  0  0  0  0  0  0  0
  -26.9107  -13.2504   18.6020 C   0  0  0  0  0  0  0  0  0  0  0  0
  -28.3464  -34.9555   22.8547 C   0  0  0  0  0  0  0  0  0  0  0  0
  -28.7972  -32.2158   22.6614 C   0  0  0  0  0  0  0  0  0  0  0  0
  -28.8212  -28.5573   19.1600 C   0  0  0  0  0  0  0  0  0  0  0  0
  -26.3626  -11.7437   20.8850 C   0  0  0  0  0  0  0  0  0  0  0  0
  -26.2579  -12.0230   18.4875 C   0  0  0  0  0  0  0  0  0  0  0  0
  -29.7207  -27.5078   19.3419 C   0  0  0  0  0  0  0  0  0  0  0  0
  -24.4024   -8.7033   21.2562 C   0  0  0  0  0  0  0  0  0  0  0  0
  -23.3665   -8.4322   22.1500 C   0  0  0  0  0  0  0  0  0  0  0  0
  -27.9391  -26.1416   20.2243 C   0  0  0  0  0  0  0  0  0  0  0  0
  -22.1618  -10.3633   21.3397 C   0  0  0  0  0  0  0  0  0  0  0  0
  -27.0959  -23.0128   14.8960 C   0  0  0  0  0  0  0  0  0  0  0  0
  -27.2894  -13.7244   19.8580 C   0  0  0  0  0  0  0  0  0  0  0  0
  -29.3514  -15.2240   19.9419 C   0  0  0  0  0  0  0  0  0  0  0  0
  -27.2677  -34.0689   22.9997 C   0  0  0  0  0  0  0  0  0  0  0  0
  -27.4738  -28.4103   19.5197 C   0  0  0  0  0  0  0  0  0  0  0  0
  -27.4956  -32.6822   22.9125 C   0  0  0  0  0  0  0  0  0  0  0  0
  -27.0240  -27.1899   20.0436 C   0  0  0  0  0  0  0  0  0  0  0  0
  -25.9839  -11.2697   19.6290 C   0  0  0  0  0  0  0  0  0  0  0  0
  -29.2804  -26.3007   19.8768 C   0  0  0  0  0  0  0  0  0  0  0  0
  -24.3181   -9.8045   20.4042 C   0  0  0  0  0  0  0  0  0  0  0  0
  -22.2462   -9.2621   22.1918 C   0  0  0  0  0  0  0  0  0  0  0  0
  -23.1978  -10.6345   20.4459 C   0  0  0  0  0  0  0  0  0  0  0  0
  -27.9632  -14.9926   19.9757 C   0  0  0  0  0  0  0  0  0  0  0  0
  -26.9199  -22.3396   16.0868 C   0  0  0  0  0  0  0  0  0  0  0  0
  -29.4767  -16.5833   20.0940 C   0  0  0  0  0  0  0  0  0  0  0  0
  -28.9397  -23.1166   16.4426 C   0  0  0  0  0  0  0  0  0  0  0  0
  -30.4311  -14.2935   19.7867 C   0  0  0  0  0  0  0  0  0  0  0  0
  -25.5390  -29.8357   21.6002 C   0  0  0  0  0  0  0  0  0  0  0  0
  -23.2854  -27.9855   20.1789 C   0  0  0  0  0  0  0  0  0  0  0  0
  -22.5521  -25.1722   18.3915 C   0  0  0  0  0  0  0  0  0  0  0  0
  -25.8124  -21.1719   18.9244 C   0  0  0  0  0  0  0  0  0  0  0  0
  -25.9036  -34.6305   23.3134 C   0  0  0  0  0  0  0  0  0  0  0  0
  -26.5106  -29.5429   19.2923 C   0  0  0  0  0  0  0  0  0  0  0  0
  -25.5835  -26.9743   20.4269 C   0  0  0  0  0  0  0  0  0  0  0  0
  -24.7686  -33.6346   23.0890 C   0  0  0  0  0  0  0  0  0  0  0  0
  -27.2784  -20.3491   22.0630 C   0  0  0  0  0  0  0  0  0  0  0  0
  -25.1162  -32.2819   23.7024 C   0  0  0  0  0  0  0  0  0  0  0  0
  -27.7454  -18.9039   21.8809 C   0  0  0  0  0  0  0  0  0  0  0  0
  -25.9633  -20.6135   21.3331 C   0  0  0  0  0  0  0  0  0  0  0  0
  -26.4333  -18.8103   19.7203 C   0  0  0  0  0  0  0  0  0  0  0  0
  -26.3664  -31.6836   23.0464 C   0  0  1  0  0  0  0  0  0  0  0  0
  -25.2673  -29.4557   20.1721 C   0  0  1  0  0  0  0  0  0  0  0  0
  -27.7843  -18.5106   20.3919 C   0  0  2  0  0  0  0  0  0  0  0  0
  -20.6175  -23.9090   17.4123 C   0  0  0  0  0  0  0  0  0  0  0  0
  -30.8993  -21.4234   18.2707 C   0  0  0  0  0  0  0  0  0  0  0  0
  -22.5412  -26.9742   22.9598 C   0  0  0  0  0  0  0  0  0  0  0  0
  -21.3200  -25.0807   21.8682 C   0  0  0  0  0  0  0  0  0  0  0  0
  -20.5928  -27.4317   21.4602 C   0  0  0  0  0  0  0  0  0  0  0  0
  -23.6104  -25.4532   15.6420 C   0  0  0  0  0  0  0  0  0  0  0  0
  -25.7155  -21.5809   16.4785 C   0  0  0  0  0  0  0  0  0  0  0  0
  -31.6356  -23.7298   18.9662 C   0  0  0  0  0  0  0  0  0  0  0  0
  -31.2578  -25.1959   19.1520 C   0  0  0  0  0  0  0  0  0  1  0  0
  -22.7378  -26.5983   20.4130 C   0  0  1  0  0  0  0  0  0  0  0  0
  -21.6903  -24.9570   17.1605 C   0  0  2  0  0  0  0  0  0  0  0  0
  -30.4961  -22.8906   18.3796 C   0  0  1  0  0  0  0  0  0  0  0  0
  -21.8256  -26.5256   21.6700 C   0  0  0  0  0  0  0  0  0  0  0  0
  -27.2571  -16.1148   20.1369 N   0  0  0  0  0  0  0  0  0  0  0  0
  -27.9763  -22.3977   16.9747 N   0  0  0  0  0  0  0  0  0  0  0  0
  -28.2055  -17.0646   20.2057 N   0  0  0  0  0  0  0  0  0  0  0  0
  -24.6815  -28.1138   20.1914 N   0  0  0  0  0  0  0  0  0  0  0  0
  -26.0676  -20.2205   19.9258 N   0  0  0  0  0  0  0  0  0  0  0  0
  -30.5492  -17.4018   20.1418 N   0  0  0  0  0  0  0  0  0  0  0  0
  -30.1254  -12.9333   19.6423 N   0  0  0  0  0  0  0  0  0  0  0  0
  -30.1486  -23.3793   17.0616 N   0  0  0  0  0  0  0  0  0  0  0  0
  -26.0376  -31.1149   21.7569 N   0  0  0  0  0  0  0  0  0  0  0  0
  -22.0782  -26.2051   19.1725 N   0  0  0  0  0  0  0  0  0  0  0  0
  -25.9396  -20.7184   17.6172 N   0  0  0  0  0  0  0  0  0  0  0  0
  -22.5285  -24.5055   16.0139 N   0  3  0  0  0  0  0  0  0  0  0  0
  -31.6321  -14.6555   19.7929 O   0  0  0  0  0  0  0  0  0  0  0  0
  -25.3118  -29.0287   22.4939 O   0  0  0  0  0  0  0  0  0  0  0  0
  -22.5034  -28.9196   19.9847 O   0  0  0  0  0  0  0  0  0  0  0  0
  -23.5441  -24.4897   18.6378 O   0  0  0  0  0  0  0  0  0  0  0  0
  -25.4998  -22.3405   19.1767 O   0  0  0  0  0  0  0  0  0  0  0  0
  -25.3471  -10.0720   19.5168 O   0  0  0  0  0  0  0  0  0  0  0  0
  -30.1565  -25.2749   20.0560 O   0  0  0  0  0  0  0  0  0  1  0  0
  -21.2508   -9.0007   23.0491 F   0  0  0  0  0  0  0  0  0  0  0  0
  -23.1106  -11.6932   19.6290 F   0  0  0  0  0  0  0  0  0  0  0  0
  -28.6425  -23.7538   14.8772 S   0  0  0  0  0  0  0  0  0  0  0  0
  1  2  1  0  0  0  0
  1  5  2  0  0  0  0
  2  6  2  0  0  0  0
  3  8  2  0  0  0  0
  3 16  1  0  0  0  0
  4  9  1  0  0  0  0
  4 16  2  0  0  0  0
  5 18  1  0  0  0  0
  6 20  1  0  0  0  0
  7 10  2  0  0  0  0
  7 19  1  0  0  0  0
  8 22  1  0  0  0  0
  9 22  2  0  0  0  0
 10 23  1  0  0  0  0
 11 12  2  0  0  0  0
 11 24  1  0  0  0  0
 12 25  1  0  0  0  0
 13 21  1  0  0  0  0
 13 23  2  0  0  0  0
 14 25  2  0  0  0  0
 14 26  1  0  0  0  0
 15 28  2  0  0  0  0
 15 82  1  0  0  0  0
 16 27  1  0  0  0  0
 17 27  1  0  0  0  0
 17 29  2  0  0  0  0
 17 31  1  0  0  0  0
 18 20  2  0  0  0  0
 18 36  1  0  0  0  0
 19 21  2  0  0  0  0
 19 37  1  0  0  0  0
 20 45  1  0  0  0  0
 21 38  1  0  0  0  0
 22 78  1  0  0  0  0
 23 79  1  0  0  0  0
 24 26  2  0  0  0  0
 24 78  1  0  0  0  0
 25 80  1  0  0  0  0
 26 81  1  0  0  0  0
 27 61  2  0  0  0  0
 28 54  1  0  0  0  0
 28 62  1  0  0  0  0
 29 63  1  0  0  0  0
 29 66  1  0  0  0  0
 30 62  2  0  0  0  0
 30 68  1  0  0  0  0
 30 82  1  0  0  0  0
 31 67  1  0  0  0  0
 31 73  2  0  0  0  0
 32 46  1  0  0  0  0
 32 69  1  0  0  0  0
 32 74  2  0  0  0  0
 33 57  1  0  0  0  0
 33 64  1  0  0  0  0
 33 75  2  0  0  0  0
 34 58  1  0  0  0  0
 34 70  1  0  0  0  0
 34 76  2  0  0  0  0
 35 65  1  0  0  0  0
 35 71  1  0  0  0  0
 35 77  2  0  0  0  0
 36 39  1  0  0  0  0
 37 46  1  0  0  0  0
 38 64  1  0  0  0  0
 39 41  1  0  0  0  0
 40 42  1  0  0  0  0
 40 43  1  0  0  0  0
 41 45  1  0  0  0  0
 42 47  1  0  0  0  0
 43 65  1  0  0  0  0
 44 47  1  0  0  0  0
 44 65  1  0  0  0  0
 45 69  1  0  0  0  0
 46 64  1  0  0  0  0
 47 63  1  0  0  0  0
 48 58  1  0  0  0  0
 49 59  1  0  0  0  0
 50 60  1  0  0  0  0
 51 60  1  0  0  0  0
 52 60  1  0  0  0  0
 53 72  1  0  0  0  0
 54 71  1  0  0  0  0
 55 56  1  0  0  0  0
 55 59  1  0  0  0  0
 56 79  1  0  0  0  0
 57 60  1  0  0  0  0
 57 70  1  0  0  0  0
 58 72  1  0  0  0  0
 59 68  1  0  0  0  0
 61 63  1  0  0  0  0
M  CHG  1  72   1
M  ISO  4  35 100  56 101  71 100  79 101
M  END
> <Batch ID>
0191

> <Smiles>
CNC(C)C(=O)NC(C(=O)N1Cc2cc([101O:1][101CH2:1]CC(C)Nc3nc(C[100NH:0][100C:0](=O)N4CCCC(n5nc(-c6ccc(Oc7ccc(F)cc7F)cc6)c(C(N)=O)c5N)C4)cs3)ccc2CC1C(=O)NC1CCCc2ccccc21)C(C)(C)C

> <Shape>
0.257

> <Color>
0.081

> <Negative vol penalty>
0.000

$$$$

  -OEChem-04052305243D

 85 93  0     1  0  0  0  0  0999 V2000
  -19.1340  -29.1160   22.9957 C   0  0  0  0  0  0  0  0  0  0  0  0
  -20.4617  -28.7318   22.8380 C   0  0  0  0  0  0  0  0  0  0  0  0
  -25.8863  -14.0808   21.5186 C   0  0  0  0  0  0  0  0  0  0  0  0
  -25.3867  -14.8578   19.2862 C   0  0  0  0  0  0  0  0  0  0  0  0
  -18.1131  -28.1849   22.8090 C   0  0  0  0  0  0  0  0  0  0  0  0
  -20.7694  -27.4158   22.4944 C   0  0  0  0  0  0  0  0  0  0  0  0
  -24.2884  -27.1278   18.8642 C   0  0  0  0  0  0  0  0  0  0  0  0
  -24.8518  -13.1497   21.4261 C   0  0  0  0  0  0  0  0  0  0  0  0
  -24.3522  -13.9267   19.1936 C   0  0  0  0  0  0  0  0  0  0  0  0
  -25.6141  -27.3308   19.2450 C   0  0  0  0  0  0  0  0  0  0  0  0
  -24.3424  -10.1254   20.0025 C   0  0  0  0  0  0  0  0  0  0  0  0
  -24.6001   -8.8248   20.4356 C   0  0  0  0  0  0  0  0  0  0  0  0
  -32.9587  -22.7544   17.1932 C   0  0  0  0  0  0  0  0  0  0  0  0
  -33.2208  -24.0680   17.5660 C   0  0  0  0  0  0  0  0  0  0  0  0
  -25.9679  -24.9447   19.2632 C   0  0  0  0  0  0  0  0  0  0  0  0
  -22.8340   -9.0200   22.0727 C   0  0  0  0  0  0  0  0  0  0  0  0
  -26.1537  -14.9349   20.4487 C   0  0  0  0  0  0  0  0  0  0  0  0
  -28.5684  -15.7116   20.1777 C   0  0  0  0  0  0  0  0  0  0  0  0
  -18.4080  -26.8593   22.4535 C   0  0  0  0  0  0  0  0  0  0  0  0
  -23.7886  -25.8292   18.6903 C   0  0  0  0  0  0  0  0  0  0  0  0
  -19.7516  -26.4658   22.3041 C   0  0  0  0  0  0  0  0  0  0  0  0
  -24.6361  -24.7280   18.8777 C   0  0  0  0  0  0  0  0  0  0  0  0
  -24.0847  -13.0727   20.2636 C   0  0  0  0  0  0  0  0  0  0  0  0
  -26.4533  -26.2391   19.4474 C   0  0  0  0  0  0  0  0  0  0  0  0
  -23.3305  -10.8733   20.6045 C   0  0  0  0  0  0  0  0  0  0  0  0
  -23.8459   -8.2721   21.4706 C   0  0  0  0  0  0  0  0  0  0  0  0
  -31.9126  -22.0628   17.7937 C   0  0  0  0  0  0  0  0  0  0  0  0
  -22.5763  -10.3206   21.6396 C   0  0  0  0  0  0  0  0  0  0  0  0
  -27.2218  -15.8972   20.5439 C   0  0  0  0  0  0  0  0  0  0  0  0
  -32.4140  -24.6401   18.5363 C   0  0  0  0  0  0  0  0  0  0  0  0
  -31.1645  -22.7245   18.7540 C   0  0  0  0  0  0  0  0  0  0  0  0
  -29.1699  -16.9136   20.4605 C   0  0  0  0  0  0  0  0  0  0  0  0
  -29.2175  -14.5561   19.6307 C   0  0  0  0  0  0  0  0  0  0  0  0
  -21.5018  -24.1029   20.0666 C   0  0  0  0  0  0  0  0  0  0  0  0
  -22.2390  -21.9779   17.7292 C   0  0  0  0  0  0  0  0  0  0  0  0
  -24.5428  -20.8052   15.5012 C   0  0  0  0  0  0  0  0  0  0  0  0
  -29.2246  -22.4801   20.3425 C   0  0  0  0  0  0  0  0  0  0  0  0
  -17.2729  -25.8769   22.3087 C   0  0  0  0  0  0  0  0  0  0  0  0
  -22.3635  -25.6280   18.2534 C   0  0  0  0  0  0  0  0  0  0  0  0
  -24.1540  -23.3143   18.6843 C   0  0  0  0  0  0  0  0  0  0  0  0
  -17.6662  -24.5950   21.5790 C   0  0  0  0  0  0  0  0  0  0  0  0
  -27.4586  -20.9321   23.0187 C   0  0  0  0  0  0  0  0  0  0  0  0
  -18.9833  -24.0526   22.1249 C   0  0  0  0  0  0  0  0  0  0  0  0
  -27.3503  -19.4690   22.5833 C   0  0  0  0  0  0  0  0  0  0  0  0
  -27.3274  -21.8876   21.8340 C   0  0  0  0  0  0  0  0  0  0  0  0
  -28.1296  -20.1536   20.2788 C   0  0  0  0  0  0  0  0  0  0  0  0
  -20.1244  -25.0537   21.9076 C   0  0  1  0  0  0  0  0  0  0  0  0
  -21.8201  -24.2465   18.6051 C   0  0  1  0  0  0  0  0  0  0  0  0
  -28.3208  -19.1513   21.4288 C   0  0  2  0  0  0  0  0  0  0  0  0
  -24.8690  -19.0346   13.7530 C   0  0  0  0  0  0  0  0  0  0  0  0
  -30.8495  -28.1614   18.1506 C   0  0  0  0  0  0  0  0  0  0  0  0
  -32.8040  -27.7912   20.4658 C   0  0  0  0  0  0  0  0  0  0  0  0
  -22.6072  -19.8862   19.9199 C   0  0  0  0  0  0  0  0  0  0  0  0
  -23.8230  -18.4615   18.2585 C   0  0  0  0  0  0  0  0  0  0  0  0
  -21.4316  -19.0580   17.8738 C   0  0  0  0  0  0  0  0  0  0  0  0
  -24.9639  -22.8192   13.3739 C   0  0  0  0  0  0  0  0  0  0  0  0
  -29.6558  -27.8090   20.3725 C   0  0  0  0  0  0  0  0  0  0  0  0
  -28.1792  -27.7844   19.9850 C   0  0  0  0  0  0  0  0  0  1  0  0
  -23.2119  -20.8314   17.5946 C   0  0  1  0  0  0  0  0  0  0  0  0
  -24.4353  -20.4665   14.0253 C   0  0  2  0  0  0  0  0  0  0  0  0
  -30.5875  -27.1885   19.3097 C   0  0  2  0  0  0  0  0  0  0  0  0
  -31.9303  -26.6773   19.8934 C   0  0  1  0  0  0  0  0  0  0  0  0
  -22.7773  -19.5858   18.4173 C   0  0  0  0  0  0  0  0  0  0  0  0
  -26.9817  -17.1207   21.0229 N   0  0  0  0  0  0  0  0  0  0  0  0
  -31.3889  -23.9999   19.1421 N   0  0  0  0  0  0  0  0  0  0  0  0
  -28.1855  -17.7147   20.9598 N   0  0  0  0  0  0  0  0  0  0  0  0
  -22.7508  -23.1691   18.2629 N   0  0  0  0  0  0  0  0  0  0  0  0
  -28.2801  -21.5282   20.7814 N   0  0  0  0  0  0  0  0  0  0  0  0
  -30.4396  -17.3527   20.3285 N   0  0  0  0  0  0  0  0  0  0  0  0
  -28.4514  -13.4049   19.4023 N   0  0  0  0  0  0  0  0  0  0  0  0
  -30.0993  -22.0144   19.3614 N   0  0  0  0  0  0  0  0  0  0  0  0
  -32.6872  -25.9469   18.8966 N   0  0  0  0  0  0  0  0  0  0  0  0
  -20.5752  -25.0158   20.5329 N   0  0  0  0  0  0  0  0  0  0  0  0
  -23.3544  -20.5828   16.1641 N   0  0  0  0  0  0  0  0  0  0  0  0
  -25.2956  -21.3793   13.2204 N   0  3  0  0  0  0  0  0  0  0  0  0
  -30.4440  -14.5395   19.3681 O   0  0  0  0  0  0  0  0  0  0  0  0
  -22.0548  -23.2276   20.7222 O   0  0  0  0  0  0  0  0  0  0  0  0
  -21.0698  -21.8245   17.3672 O   0  0  0  0  0  0  0  0  0  0  0  0
  -25.5786  -21.2215   16.0153 O   0  0  0  0  0  0  0  0  0  0  0  0
  -29.2727  -23.6155   20.8225 O   0  0  0  0  0  0  0  0  0  0  0  0
  -23.0753  -12.1642   20.1728 O   0  0  0  0  0  0  0  0  0  0  0  0
  -27.7476  -26.4343   19.8197 O   0  0  0  0  0  0  0  0  0  1  0  0
  -24.0925   -7.0225   21.8854 F   0  0  0  0  0  0  0  0  0  0  0  0
  -31.6499  -20.7967   17.4450 F   0  0  0  0  0  0  0  0  0  0  0  0
  -21.6022  -11.0339   22.2210 F   0  0  0  0  0  0  0  0  0  0  0  0
  1  2  1  0  0  0  0
  1  5  2  0  0  0  0
  2  6  2  0  0  0  0
  3  8  2  0  0  0  0
  3 17  1  0  0  0  0
  4  9  1  0  0  0  0
  4 17  2  0  0  0  0
  5 19  1  0  0  0  0
  6 21  1  0  0  0  0
  7 10  2  0  0  0  0
  7 20  1  0  0  0  0
  8 23  1  0  0  0  0
  9 23  2  0  0  0  0
 10 24  1  0  0  0  0
 11 12  2  0  0  0  0
 11 25  1  0  0  0  0
 12 26  1  0  0  0  0
 13 14  2  0  0  0  0
 13 27  1  0  0  0  0
 14 30  1  0  0  0  0
 15 22  1  0  0  0  0
 15 24  2  0  0  0  0
 16 26  2  0  0  0  0
 16 28  1  0  0  0  0
 17 29  1  0  0  0  0
 18 29  1  0  0  0  0
 18 32  2  0  0  0  0
 18 33  1  0  0  0  0
 19 21  2  0  0  0  0
 19 38  1  0  0  0  0
 20 22  2  0  0  0  0
 20 39  1  0  0  0  0
 21 47  1  0  0  0  0
 22 40  1  0  0  0  0
 23 81  1  0  0  0  0
 24 82  1  0  0  0  0
 25 28  2  0  0  0  0
 25 81  1  0  0  0  0
 26 83  1  0  0  0  0
 27 31  2  0  0  0  0
 27 84  1  0  0  0  0
 28 85  1  0  0  0  0
 29 64  2  0  0  0  0
 30 65  2  0  0  0  0
 30 72  1  0  0  0  0
 31 65  1  0  0  0  0
 31 71  1  0  0  0  0
 32 66  1  0  0  0  0
 32 69  1  0  0  0  0
 33 70  1  0  0  0  0
 33 76  2  0  0  0  0
 34 48  1  0  0  0  0
 34 73  1  0  0  0  0
 34 77  2  0  0  0  0
 35 59  1  0  0  0  0
 35 67  1  0  0  0  0
 35 78  2  0  0  0  0
 36 60  1  0  0  0  0
 36 74  1  0  0  0  0
 36 79  2  0  0  0  0
 37 68  1  0  0  0  0
 37 71  1  0  0  0  0
 37 80  2  0  0  0  0
 38 41  1  0  0  0  0
 39 48  1  0  0  0  0
 40 67  1  0  0  0  0
 41 43  1  0  0  0  0
 42 44  1  0  0  0  0
 42 45  1  0  0  0  0
 43 47  1  0  0  0  0
 44 49  1  0  0  0  0
 45 68  1  0  0  0  0
 46 49  1  0  0  0  0
 46 68  1  0  0  0  0
 47 73  1  0  0  0  0
 48 67  1  0  0  0  0
 49 66  1  0  0  0  0
 50 60  1  0  0  0  0
 51 61  1  0  0  0  0
 52 62  1  0  0  0  0
 53 63  1  0  0  0  0
 54 63  1  0  0  0  0
 55 63  1  0  0  0  0
 56 75  1  0  0  0  0
 57 58  1  0  0  0  0
 57 61  1  0  0  0  0
 58 82  1  0  0  0  0
 59 63  1  0  0  0  0
 59 74  1  0  0  0  0
 60 75  1  0  0  0  0
 61 62  1  0  0  0  0
 62 72  1  0  0  0  0
 64 66  1  0  0  0  0
M  CHG  1  75   1
M  ISO  4  37 100  58 101  71 100  82 101
M  END
> <Batch ID>
0191

> <Smiles>
CNC(C)C(=O)NC(C(=O)N1Cc2cc([101O:1][101CH2:1]CC(C)C(C)Nc3ccc(F)c([100NH:0][100C:0](=O)N4CCCC(n5nc(-c6ccc(Oc7ccc(F)cc7F)cc6)c(C(N)=O)c5N)C4)n3)ccc2CC1C(=O)NC1CCCc2ccccc21)C(C)(C)C

> <Shape>
0.241

> <Color>
0.064

> <Negative vol penalty>
0.000

$$$$

  -OEChem-04052305242D

  0  0  0     0  0  0  0  0  0999 V2000
M  END
$$$$

  -OEChem-04052305243D

 83 91  0     1  0  0  0  0  0999 V2000
  -27.5720  -38.3700   23.0943 C   0  0  0  0  0  0  0  0  0  0  0  0
  -28.1640  -37.4400   23.9428 C   0  0  0  0  0  0  0  0  0  0  0  0
  -24.1396   -9.4700   21.6425 C   0  0  0  0  0  0  0  0  0  0  0  0
  -22.8367  -11.4209   21.0646 C   0  0  0  0  0  0  0  0  0  0  0  0
  -26.2124  -38.2769   22.7998 C   0  0  0  0  0  0  0  0  0  0  0  0
  -27.3964  -36.4169   24.4983 C   0  0  0  0  0  0  0  0  0  0  0  0
  -29.0565  -29.5000   23.3614 C   0  0  0  0  0  0  0  0  0  0  0  0
  -23.1717   -9.1003   22.5764 C   0  0  0  0  0  0  0  0  0  0  0  0
  -21.8688  -11.0511   21.9985 C   0  0  0  0  0  0  0  0  0  0  0  0
  -29.4320  -28.1565   23.3642 C   0  0  0  0  0  0  0  0  0  0  0  0
  -20.8703   -7.4506   24.8561 C   0  0  0  0  0  0  0  0  0  0  0  0
  -20.4756   -6.1132   24.8861 C   0  0  0  0  0  0  0  0  0  0  0  0
  -27.4478  -27.5935   24.6267 C   0  0  0  0  0  0  0  0  0  0  0  0
  -19.7376   -6.2794   22.5916 C   0  0  0  0  0  0  0  0  0  0  0  0
  -28.3610  -18.9688   18.3626 C   0  0  0  0  0  0  0  0  0  0  0  0
  -23.9721  -10.6304   20.8866 C   0  0  0  0  0  0  0  0  0  0  0  0
  -25.0266  -10.6476   18.5638 C   0  0  0  0  0  0  0  0  0  0  0  0
  -25.4298  -37.2465   23.3442 C   0  0  0  0  0  0  0  0  0  0  0  0
  -27.8660  -29.8937   23.9788 C   0  0  0  0  0  0  0  0  0  0  0  0
  -26.0248  -36.3107   24.2118 C   0  0  0  0  0  0  0  0  0  0  0  0
  -27.0602  -28.9360   24.6164 C   0  0  0  0  0  0  0  0  0  0  0  0
  -22.0364   -9.8908   22.7544 C   0  0  0  0  0  0  0  0  0  0  0  0
  -28.6297  -27.2056   23.9955 C   0  0  0  0  0  0  0  0  0  0  0  0
  -20.6985   -8.2026   23.6938 C   0  0  0  0  0  0  0  0  0  0  0  0
  -19.9093   -5.5275   23.7539 C   0  0  0  0  0  0  0  0  0  0  0  0
  -20.1322   -7.6170   22.5616 C   0  0  0  0  0  0  0  0  0  0  0  0
  -24.9718  -11.0132   19.9222 C   0  0  0  0  0  0  0  0  0  0  0  0
  -28.0735  -18.2931   19.5301 C   0  0  0  0  0  0  0  0  0  0  0  0
  -26.1583  -11.2634   18.0879 C   0  0  0  0  0  0  0  0  0  0  0  0
  -28.1576  -20.3296   20.3399 C   0  0  0  0  0  0  0  0  0  0  0  0
  -24.1342   -9.8250   17.8005 C   0  0  0  0  0  0  0  0  0  0  0  0
  -25.5271  -32.7016   24.8280 C   0  0  0  0  0  0  0  0  0  0  0  0
  -29.1735  -16.1147   19.9549 C   0  0  0  0  0  0  0  0  0  0  0  0
  -23.7879  -30.3022   24.0351 C   0  0  0  0  0  0  0  0  0  0  0  0
  -22.2487  -27.5690   22.6944 C   0  0  0  0  0  0  0  0  0  0  0  0
  -23.9542  -37.2145   23.0344 C   0  0  0  0  0  0  0  0  0  0  0  0
  -27.4530  -31.3385   24.0536 C   0  0  0  0  0  0  0  0  0  0  0  0
  -25.8057  -29.4103   25.2976 C   0  0  0  0  0  0  0  0  0  0  0  0
  -23.2908  -35.8803   23.3664 C   0  0  0  0  0  0  0  0  0  0  0  0
  -30.4599  -12.8040   19.4811 C   0  0  0  0  0  0  0  0  0  0  0  0
  -23.7160  -35.4028   24.7513 C   0  0  0  0  0  0  0  0  0  0  0  0
  -29.2048  -11.9329   19.4456 C   0  0  0  0  0  0  0  0  0  0  0  0
  -30.3022  -13.9712   20.4506 C   0  0  0  0  0  0  0  0  0  0  0  0
  -27.8463  -13.9533   20.1508 C   0  0  0  0  0  0  0  0  0  0  0  0
  -25.2307  -35.1720   24.8142 C   0  0  1  0  0  0  0  0  0  0  0  0
  -25.9285  -31.5354   23.9735 C   0  0  1  0  0  0  0  0  0  0  0  0
  -27.9519  -12.7799   19.1607 C   0  0  2  0  0  0  0  0  0  0  0  0
  -19.9761  -26.6687   22.1271 C   0  0  0  0  0  0  0  0  0  0  0  0
  -26.0673  -23.0219   22.5525 C   0  0  0  0  0  0  0  0  0  0  0  0
  -29.0853  -20.6613   23.3380 C   0  0  0  0  0  0  0  0  0  0  0  0
  -23.2869  -29.7175   26.9865 C   0  0  0  0  0  0  0  0  0  0  0  0
  -21.5624  -28.0418   26.2888 C   0  0  0  0  0  0  0  0  0  0  0  0
  -21.2650  -30.4500   25.7099 C   0  0  0  0  0  0  0  0  0  0  0  0
  -22.9143  -27.3801   19.8169 C   0  0  0  0  0  0  0  0  0  0  0  0
  -27.8823  -16.8347   19.6576 C   0  0  0  0  0  0  0  0  0  0  0  0
  -28.4124  -23.6488   23.3229 C   0  0  0  0  0  0  0  0  0  0  0  0
  -27.9535  -24.9254   24.0235 C   0  0  0  0  0  0  0  0  0  1  0  0
  -23.0178  -29.0909   24.4964 C   0  0  1  0  0  0  0  0  0  0  0  0
  -21.1856  -27.4378   21.6188 C   0  0  2  0  0  0  0  0  0  0  0  0
  -27.3352  -22.5443   23.2758 C   0  0  2  0  0  0  0  0  0  0  0  0
  -27.8415  -21.2189   22.6496 C   0  0  1  0  0  0  0  0  0  0  0  0
  -22.3098  -29.3230   25.8611 C   0  0  0  0  0  0  0  0  0  0  0  0
  -25.9880  -11.8001   20.2858 N   0  0  0  0  0  0  0  0  0  0  0  0
  -27.9570  -19.0717   20.6650 N   0  0  0  0  0  0  0  0  0  0  0  0
  -26.6919  -11.9340   19.1489 N   0  0  0  0  0  0  0  0  0  0  0  0
  -25.1202  -30.4020   24.4541 N   0  0  0  0  0  0  0  0  0  0  0  0
  -29.0890  -14.7375   20.1607 N   0  0  0  0  0  0  0  0  0  0  0  0
  -26.7390  -11.2912   16.8695 N   0  0  0  0  0  0  0  0  0  0  0  0
  -23.0200   -9.2709   18.4453 N   0  0  0  0  0  0  0  0  0  0  0  0
  -28.1157  -21.3818   21.2360 N   0  0  0  0  0  0  0  0  0  0  0  0
  -25.5781  -33.9197   24.1775 N   0  0  0  0  0  0  0  0  0  0  0  0
  -22.1135  -28.7425   23.4058 N   0  0  0  0  0  0  0  0  0  0  0  0
  -21.7341  -26.7209   20.4330 N   0  3  0  0  0  0  0  0  0  0  0  0
  -24.3284   -9.5749   16.5867 O   0  0  0  0  0  0  0  0  0  0  0  0
  -25.1939  -32.5115   25.9918 O   0  0  0  0  0  0  0  0  0  0  0  0
  -30.2252  -16.7582   19.9995 O   0  0  0  0  0  0  0  0  0  0  0  0
  -23.2245  -31.1417   23.3272 O   0  0  0  0  0  0  0  0  0  0  0  0
  -23.1105  -26.7141   22.8870 O   0  0  0  0  0  0  0  0  0  0  0  0
  -21.0916   -9.5301   23.6654 O   0  0  0  0  0  0  0  0  0  0  0  0
  -29.0000  -25.8951   23.9905 O   0  0  0  0  0  0  0  0  0  1  0  0
  -19.5318   -4.2427   23.7824 F   0  0  0  0  0  0  0  0  0  0  0  0
  -19.9658   -8.3340   21.4418 F   0  0  0  0  0  0  0  0  0  0  0  0
  -28.4909  -20.6479   18.6868 S   0  0  0  0  0  0  0  0  0  0  0  0
  1  2  1  0  0  0  0
  1  5  2  0  0  0  0
  2  6  2  0  0  0  0
  3  8  2  0  0  0  0
  3 16  1  0  0  0  0
  4  9  1  0  0  0  0
  4 16  2  0  0  0  0
  5 18  1  0  0  0  0
  6 20  1  0  0  0  0
  7 10  2  0  0  0  0
  7 19  1  0  0  0  0
  8 22  1  0  0  0  0
  9 22  2  0  0  0  0
 10 23  1  0  0  0  0
 11 12  2  0  0  0  0
 11 24  1  0  0  0  0
 12 25  1  0  0  0  0
 13 21  1  0  0  0  0
 13 23  2  0  0  0  0
 14 25  2  0  0  0  0
 14 26  1  0  0  0  0
 15 28  2  0  0  0  0
 15 83  1  0  0  0  0
 16 27  1  0  0  0  0
 17 27  1  0  0  0  0
 17 29  2  0  0  0  0
 17 31  1  0  0  0  0
 18 20  2  0  0  0  0
 18 36  1  0  0  0  0
 19 21  2  0  0  0  0
 19 37  1  0  0  0  0
 20 45  1  0  0  0  0
 21 38  1  0  0  0  0
 22 79  1  0  0  0  0
 23 80  1  0  0  0  0
 24 26  2  0  0  0  0
 24 79  1  0  0  0  0
 25 81  1  0  0  0  0
 26 82  1  0  0  0  0
 27 63  2  0  0  0  0
 28 55  1  0  0  0  0
 28 64  1  0  0  0  0
 29 65  1  0  0  0  0
 29 68  1  0  0  0  0
 30 64  2  0  0  0  0
 30 70  1  0  0  0  0
 30 83  1  0  0  0  0
 31 69  1  0  0  0  0
 31 74  2  0  0  0  0
 32 46  1  0  0  0  0
 32 71  1  0  0  0  0
 32 75  2  0  0  0  0
 33 55  1  0  0  0  0
 33 67  1  0  0  0  0
 33 76  2  0  0  0  0
 34 58  1  0  0  0  0
 34 66  1  0  0  0  0
 34 77  2  0  0  0  0
 35 59  1  0  0  0  0
 35 72  1  0  0  0  0
 35 78  2  0  0  0  0
 36 39  1  0  0  0  0
 37 46  1  0  0  0  0
 38 66  1  0  0  0  0
 39 41  1  0  0  0  0
 40 42  1  0  0  0  0
 40 43  1  0  0  0  0
 41 45  1  0  0  0  0
 42 47  1  0  0  0  0
 43 67  1  0  0  0  0
 44 47  1  0  0  0  0
 44 67  1  0  0  0  0
 45 71  1  0  0  0  0
 46 66  1  0  0  0  0
 47 65  1  0  0  0  0
 48 59  1  0  0  0  0
 49 60  1  0  0  0  0
 50 61  1  0  0  0  0
 51 62  1  0  0  0  0
 52 62  1  0  0  0  0
 53 62  1  0  0  0  0
 54 73  1  0  0  0  0
 56 57  1  0  0  0  0
 56 60  1  0  0  0  0
 57 80  1  0  0  0  0
 58 62  1  0  0  0  0
 58 72  1  0  0  0  0
 59 73  1  0  0  0  0
 60 61  1  0  0  0  0
 61 70  1  0  0  0  0
 63 65  1  0  0  0  0
M  CHG  1  73   1
M  ISO  4  33 100  55 100  57 101  80 101
M  END
> <Batch ID>
0191

> <Smiles>
CNC(C)C(=O)NC(C(=O)N1Cc2cc([101O:1][101CH2:1]CC(C)C(C)Nc3nc([100CH2:0][100C:0](=O)N4CCCC(n5nc(-c6ccc(Oc7ccc(F)cc7F)cc6)c(C(N)=O)c5N)C4)cs3)ccc2CC1C(=O)NC1CCCc2ccccc21)C(C)(C)C

> <Shape>
0.288

> <Color>
0.070

> <Negative vol penalty>
0.000

$$$$

  -OEChem-04052305243D

 83 91  0     1  0  0  0  0  0999 V2000
  -19.0034  -31.5108   23.9575 C   0  0  0  0  0  0  0  0  0  0  0  0
  -20.3736  -31.3330   23.7950 C   0  0  0  0  0  0  0  0  0  0  0  0
  -24.5165  -13.5384   19.7606 C   0  0  0  0  0  0  0  0  0  0  0  0
  -25.9069  -13.9403   21.6951 C   0  0  0  0  0  0  0  0  0  0  0  0
  -18.1280  -30.4609   23.6831 C   0  0  0  0  0  0  0  0  0  0  0  0
  -20.8692  -30.1047   23.3590 C   0  0  0  0  0  0  0  0  0  0  0  0
  -25.7349  -29.1662   19.7604 C   0  0  0  0  0  0  0  0  0  0  0  0
  -24.6639  -12.1631   19.9403 C   0  0  0  0  0  0  0  0  0  0  0  0
  -26.0543  -12.5649   21.8749 C   0  0  0  0  0  0  0  0  0  0  0  0
  -27.0560  -28.8199   20.0407 C   0  0  0  0  0  0  0  0  0  0  0  0
  -24.3786   -8.5427   20.1029 C   0  0  0  0  0  0  0  0  0  0  0  0
  -23.2368   -7.7487   19.9966 C   0  0  0  0  0  0  0  0  0  0  0  0
  -26.5302  -26.5024   19.6259 C   0  0  0  0  0  0  0  0  0  0  0  0
  -22.2229   -8.9621   21.8233 C   0  0  0  0  0  0  0  0  0  0  0  0
  -31.3131  -24.1947   23.2492 C   0  0  0  0  0  0  0  0  0  0  0  0
  -25.1380  -14.4270   20.6380 C   0  0  0  0  0  0  0  0  0  0  0  0
  -23.9871  -16.6748   20.9994 C   0  0  0  0  0  0  0  0  0  0  0  0
  -18.6125  -29.2222   23.2343 C   0  0  0  0  0  0  0  0  0  0  0  0
  -24.7974  -28.1802   19.4208 C   0  0  0  0  0  0  0  0  0  0  0  0
  -19.9996  -29.0369   23.0796 C   0  0  0  0  0  0  0  0  0  0  0  0
  -25.1985  -26.8391   19.3393 C   0  0  0  0  0  0  0  0  0  0  0  0
  -25.4328  -11.6763   20.9974 C   0  0  0  0  0  0  0  0  0  0  0  0
  -27.4532  -27.4876   19.9763 C   0  0  0  0  0  0  0  0  0  0  0  0
  -24.4427   -9.5463   21.0695 C   0  0  0  0  0  0  0  0  0  0  0  0
  -22.1589   -7.9584   20.8568 C   0  0  0  0  0  0  0  0  0  0  0  0
  -23.3649   -9.7560   21.9296 C   0  0  0  0  0  0  0  0  0  0  0  0
  -24.9866  -15.8479   20.4526 C   0  0  0  0  0  0  0  0  0  0  0  0
  -30.3906  -24.0982   22.2285 C   0  0  0  0  0  0  0  0  0  0  0  0
  -24.2833  -17.9299   20.5268 C   0  0  0  0  0  0  0  0  0  0  0  0
  -31.4118  -25.9269   21.5782 C   0  0  0  0  0  0  0  0  0  0  0  0
  -22.8891  -16.3384   21.8579 C   0  0  0  0  0  0  0  0  0  0  0  0
  -22.0860  -27.1268   20.7023 C   0  0  0  0  0  0  0  0  0  0  0  0
  -28.0600  -21.9230   19.4868 C   0  0  0  0  0  0  0  0  0  0  0  0
  -21.9406  -25.3645   17.9829 C   0  0  0  0  0  0  0  0  0  0  0  0
  -23.6017  -23.9119   15.3795 C   0  0  0  0  0  0  0  0  0  0  0  0
  -17.6310  -28.1021   22.9957 C   0  0  0  0  0  0  0  0  0  0  0  0
  -23.3825  -28.5733   19.0953 C   0  0  0  0  0  0  0  0  0  0  0  0
  -24.2355  -25.7451   18.9596 C   0  0  0  0  0  0  0  0  0  0  0  0
  -18.2091  -26.9493   22.1789 C   0  0  0  0  0  0  0  0  0  0  0  0
  -27.5316  -19.4340   16.9638 C   0  0  0  0  0  0  0  0  0  0  0  0
  -19.5866  -26.5599   22.7058 C   0  0  0  0  0  0  0  0  0  0  0  0
  -26.7669  -18.3341   17.6992 C   0  0  0  0  0  0  0  0  0  0  0  0
  -28.5492  -20.1120   17.8758 C   0  0  0  0  0  0  0  0  0  0  0  0
  -27.1995  -19.5607   19.8748 C   0  0  0  0  0  0  0  0  0  0  0  0
  -20.5738  -27.7271   22.5848 C   0  0  1  0  0  0  0  0  0  0  0  0
  -22.3904  -27.4264   19.2617 C   0  0  1  0  0  0  0  0  0  0  0  0
  -26.1396  -18.8707   18.9980 C   0  0  2  0  0  0  0  0  0  0  0  0
  -23.2178  -22.5055   13.3370 C   0  0  0  0  0  0  0  0  0  0  0  0
  -31.9737  -28.3334   18.8005 C   0  0  0  0  0  0  0  0  0  0  0  0
  -21.5995  -22.8989   19.7477 C   0  0  0  0  0  0  0  0  0  0  0  0
  -22.1723  -21.4847   17.7627 C   0  0  0  0  0  0  0  0  0  0  0  0
  -20.1439  -22.9359   17.7144 C   0  0  0  0  0  0  0  0  0  0  0  0
  -24.6532  -26.0201   13.5883 C   0  0  0  0  0  0  0  0  0  0  0  0
  -27.2382  -24.3029   22.2911 C   0  0  0  0  0  0  0  0  0  0  0  0
  -29.3734  -23.0381   22.0830 C   0  0  0  0  0  0  0  0  0  0  0  0
  -27.3788  -22.3393   20.7661 C   0  0  0  0  0  0  0  0  0  0  0  0
  -29.7468  -28.1159   19.9546 C   0  0  0  0  0  0  0  0  0  1  0  0
  -22.4327  -23.9996   17.5659 C   0  0  1  0  0  0  0  0  0  0  0  0
  -23.3354  -23.9192   13.8851 C   0  0  2  0  0  0  0  0  0  0  0  0
  -31.0623  -27.4207   19.6104 C   0  0  2  0  0  0  0  0  0  0  0  0
  -21.6050  -22.8499   18.2067 C   0  0  0  0  0  0  0  0  0  0  0  0
  -25.8529  -16.5210   19.6907 N   0  0  0  0  0  0  0  0  0  0  0  0
  -30.4454  -25.0908   21.2696 N   0  0  0  0  0  0  0  0  0  0  0  0
  -25.3986  -17.7841   19.7554 N   0  0  0  0  0  0  0  0  0  0  0  0
  -22.8617  -26.1791   18.6566 N   0  0  0  0  0  0  0  0  0  0  0  0
  -27.9185  -20.5878   19.1083 N   0  0  0  0  0  0  0  0  0  0  0  0
  -23.6960  -19.1330   20.7000 N   0  0  0  0  0  0  0  0  0  0  0  0
  -22.7313  -15.0016   22.2481 N   0  0  0  0  0  0  0  0  0  0  0  0
  -31.7448  -27.0420   20.8315 N   0  0  0  0  0  0  0  0  0  0  0  0
  -21.0348  -27.8597   21.2194 N   0  0  0  0  0  0  0  0  0  0  0  0
  -22.4332  -23.9940   16.1070 N   0  0  0  0  0  0  0  0  0  0  0  0
  -24.4412  -24.6119   13.1652 N   0  3  0  0  0  0  0  0  0  0  0  0
  -28.1259  -23.4861   21.3916 N   0  3  1  0  0  0  0  0  0  0  0  0
  -22.0627  -17.1951   22.2536 O   0  0  0  0  0  0  0  0  0  0  0  0
  -22.7543  -26.2915   21.3000 O   0  0  0  0  0  0  0  0  0  0  0  0
  -28.6960  -22.7616   18.8429 O   0  0  0  0  0  0  0  0  0  0  0  0
  -20.7838  -25.6984   17.7143 O   0  0  0  0  0  0  0  0  0  0  0  0
  -24.7329  -23.8368   15.8542 O   0  0  0  0  0  0  0  0  0  0  0  0
  -25.5767  -10.3343   21.1732 O   0  0  0  0  0  0  0  0  0  0  0  0
  -28.7419  -27.1467   20.2500 O   0  0  0  0  0  0  0  0  0  1  0  0
  -21.0618   -7.1968   20.7535 F   0  0  0  0  0  0  0  0  0  0  0  0
  -23.4201  -10.7195   22.8594 F   0  0  0  0  0  0  0  0  0  0  0  0
  -32.2954  -25.5797   23.0077 S   0  0  0  0  0  0  0  0  0  0  0  0
  1  2  1  0  0  0  0
  1  5  2  0  0  0  0
  2  6  2  0  0  0  0
  3  8  2  0  0  0  0
  3 16  1  0  0  0  0
  4  9  1  0  0  0  0
  4 16  2  0  0  0  0
  5 18  1  0  0  0  0
  6 20  1  0  0  0  0
  7 10  2  0  0  0  0
  7 19  1  0  0  0  0
  8 22  1  0  0  0  0
  9 22  2  0  0  0  0
 10 23  1  0  0  0  0
 11 12  2  0  0  0  0
 11 24  1  0  0  0  0
 12 25  1  0  0  0  0
 13 21  1  0  0  0  0
 13 23  2  0  0  0  0
 14 25  2  0  0  0  0
 14 26  1  0  0  0  0
 15 28  2  0  0  0  0
 15 83  1  0  0  0  0
 16 27  1  0  0  0  0
 17 27  1  0  0  0  0
 17 29  2  0  0  0  0
 17 31  1  0  0  0  0
 18 20  2  0  0  0  0
 18 36  1  0  0  0  0
 19 21  2  0  0  0  0
 19 37  1  0  0  0  0
 20 45  1  0  0  0  0
 21 38  1  0  0  0  0
 22 79  1  0  0  0  0
 23 80  1  0  0  0  0
 24 26  2  0  0  0  0
 24 79  1  0  0  0  0
 25 81  1  0  0  0  0
 26 82  1  0  0  0  0
 27 62  2  0  0  0  0
 28 55  1  0  0  0  0
 28 63  1  0  0  0  0
 29 64  1  0  0  0  0
 29 67  1  0  0  0  0
 30 63  2  0  0  0  0
 30 69  1  0  0  0  0
 30 83  1  0  0  0  0
 31 68  1  0  0  0  0
 31 74  2  0  0  0  0
 32 46  1  0  0  0  0
 32 70  1  0  0  0  0
 32 75  2  0  0  0  0
 33 56  1  0  0  0  0
 33 66  1  0  0  0  0
 33 76  2  0  0  0  0
 34 58  1  0  0  0  0
 34 65  1  0  0  0  0
 34 77  2  0  0  0  0
 35 59  1  0  0  0  0
 35 71  1  0  0  0  0
 35 78  2  0  0  0  0
 36 39  1  0  0  0  0
 37 46  1  0  0  0  0
 38 65  1  0  0  0  0
 39 41  1  0  0  0  0
 40 42  1  0  0  0  0
 40 43  1  0  0  0  0
 41 45  1  0  0  0  0
 42 47  1  0  0  0  0
 43 66  1  0  0  0  0
 44 47  1  0  0  0  0
 44 66  1  0  0  0  0
 45 70  1  0  0  0  0
 46 65  1  0  0  0  0
 47 64  1  0  0  0  0
 48 59  1  0  0  0  0
 49 60  1  0  0  0  0
 50 61  1  0  0  0  0
 51 61  1  0  0  0  0
 52 61  1  0  0  0  0
 53 72  1  0  0  0  0
 54 73  1  0  0  0  0
 55 73  1  0  0  0  0
 56 73  1  0  0  0  0
 57 60  1  0  0  0  0
 57 80  1  0  0  0  0
 58 61  1  0  0  0  0
 58 71  1  0  0  0  0
 59 72  1  0  0  0  0
 60 69  1  0  0  0  0
 62 64  1  0  0  0  0
M  CHG  2  72   1  73   1
M  ISO  4  33 100  56 100  57 101  80 101
M  END
> <Batch ID>
0191

> <Smiles>
CNC(C)C(=O)NC(C(=O)N1Cc2cc([101O:1][101CH2:1]C(C)Nc3nc(CN(C)[100CH2:0][100C:0](=O)N4CCCC(n5nc(-c6ccc(Oc7ccc(F)cc7F)cc6)c(C(N)=O)c5N)C4)cs3)ccc2CC1C(=O)NC1CCCc2ccccc21)C(C)(C)C

> <Shape>
0.228

> <Color>
0.095

> <Negative vol penalty>
0.000

$$$$

  -OEChem-04052305243D

 84 92  0     1  0  0  0  0  0999 V2000
  -21.4513  -12.3984   20.1295 C   0  0  0  0  0  0  0  0  0  0  0  0
  -21.5090  -13.6884   20.6471 C   0  0  0  0  0  0  0  0  0  0  0  0
  -29.5091  -27.3060   21.6988 C   0  0  0  0  0  0  0  0  0  0  0  0
  -27.8553  -25.5780   22.0393 C   0  0  0  0  0  0  0  0  0  0  0  0
  -22.6189  -11.6477   19.9996 C   0  0  0  0  0  0  0  0  0  0  0  0
  -22.7345  -14.2281   21.0363 C   0  0  0  0  0  0  0  0  0  0  0  0
  -23.3540  -18.9932   19.4380 C   0  0  0  0  0  0  0  0  0  0  0  0
  -30.4169  -26.5912   22.4802 C   0  0  0  0  0  0  0  0  0  0  0  0
  -28.7631  -24.8631   22.8206 C   0  0  0  0  0  0  0  0  0  0  0  0
  -22.6951  -19.9944   20.1502 C   0  0  0  0  0  0  0  0  0  0  0  0
  -30.5239  -22.7554   25.2011 C   0  0  0  0  0  0  0  0  0  0  0  0
  -30.0608  -22.2118   26.3992 C   0  0  0  0  0  0  0  0  0  0  0  0
  -24.7457  -20.5091   21.3120 C   0  0  0  0  0  0  0  0  0  0  0  0
  -29.4898  -24.4248   27.1826 C   0  0  0  0  0  0  0  0  0  0  0  0
  -20.0856  -26.6814   23.6065 C   0  0  0  0  0  0  0  0  0  0  0  0
  -18.8733  -25.6461   21.4650 C   0  0  0  0  0  0  0  0  0  0  0  0
  -28.2282  -26.7995   21.4784 C   0  0  0  0  0  0  0  0  0  0  0  0
  -27.1046  -27.4404   19.2797 C   0  0  0  0  0  0  0  0  0  0  0  0
  -23.8606  -12.1820   20.3784 C   0  0  0  0  0  0  0  0  0  0  0  0
  -24.7133  -18.7347   19.6656 C   0  0  0  0  0  0  0  0  0  0  0  0
  -23.9197  -13.4833   20.9126 C   0  0  0  0  0  0  0  0  0  0  0  0
  -25.4201  -19.5057   20.5995 C   0  0  0  0  0  0  0  0  0  0  0  0
  -30.0439  -25.3698   23.0410 C   0  0  0  0  0  0  0  0  0  0  0  0
  -23.3902  -20.7506   21.0894 C   0  0  0  0  0  0  0  0  0  0  0  0
  -30.4701  -24.1337   24.9937 C   0  0  0  0  0  0  0  0  0  0  0  0
  -29.5437  -23.0464   27.3900 C   0  0  0  0  0  0  0  0  0  0  0  0
  -29.9530  -24.9684   25.9844 C   0  0  0  0  0  0  0  0  0  0  0  0
  -27.2899  -27.5377   20.6718 C   0  0  0  0  0  0  0  0  0  0  0  0
  -19.6668  -27.4849   22.5689 C   0  0  0  0  0  0  0  0  0  0  0  0
  -19.2927  -24.8424   22.5022 C   0  0  0  0  0  0  0  0  0  0  0  0
  -26.1053  -28.3410   19.0025 C   0  0  0  0  0  0  0  0  0  0  0  0
  -27.7758  -26.6102   18.3227 C   0  0  0  0  0  0  0  0  0  0  0  0
  -26.3775  -16.2346   20.7068 C   0  0  0  0  0  0  0  0  0  0  0  0
  -28.9180  -18.1031   19.9473 C   0  0  0  0  0  0  0  0  0  0  0  0
  -30.1577  -21.2426   19.4438 C   0  0  0  0  0  0  0  0  0  0  0  0
  -21.6682  -30.6491   22.2943 C   0  0  0  0  0  0  0  0  0  0  0  0
  -25.0894  -11.3151   20.2634 C   0  0  0  0  0  0  0  0  0  0  0  0
  -25.4160  -17.6691   18.8700 C   0  0  0  0  0  0  0  0  0  0  0  0
  -26.8853  -19.2815   20.8665 C   0  0  0  0  0  0  0  0  0  0  0  0
  -26.3972  -12.0978   20.3496 C   0  0  0  0  0  0  0  0  0  0  0  0
  -24.2202  -32.4455   20.5805 C   0  0  0  0  0  0  0  0  0  0  0  0
  -26.3538  -13.0832   21.5131 C   0  0  0  0  0  0  0  0  0  0  0  0
  -25.2796  -31.3826   20.2840 C   0  0  0  0  0  0  0  0  0  0  0  0
  -23.5535  -32.2154   21.9350 C   0  0  0  0  0  0  0  0  0  0  0  0
  -24.0484  -29.8034   21.8296 C   0  0  0  0  0  0  0  0  0  0  0  0
  -25.2334  -14.1127   21.3227 C   0  0  1  0  0  0  0  0  0  0  0  0
  -26.6772  -17.1481   19.5520 C   0  0  1  0  0  0  0  0  0  0  0  0
  -24.7093  -29.9611   20.4495 C   0  0  2  0  0  0  0  0  0  0  0  0
  -31.8143  -23.0180   18.8104 C   0  0  0  0  0  0  0  0  0  0  0  0
  -18.5931  -21.2856   23.3140 C   0  0  0  0  0  0  0  0  0  0  0  0
  -29.9395  -17.6521   22.7869 C   0  0  0  0  0  0  0  0  0  0  0  0
  -31.4891  -19.5917   22.4629 C   0  0  0  0  0  0  0  0  0  0  0  0
  -31.7052  -17.5699   21.0177 C   0  0  0  0  0  0  0  0  0  0  0  0
  -29.3107  -21.1850   16.6086 C   0  0  0  0  0  0  0  0  0  0  0  0
  -19.8818  -28.9574   22.6194 C   0  0  0  0  0  0  0  0  0  0  0  0
  -21.3574  -21.5400   22.0383 C   0  0  0  0  0  0  0  0  0  1  0  0
  -29.7457  -19.1315   20.6797 C   0  0  1  0  0  0  0  0  0  0  0  0
  -31.0069  -21.8232   18.3274 C   0  0  2  0  0  0  0  0  0  0  0  0
  -19.4661  -22.5332   23.4311 C   0  0  1  0  0  0  0  0  0  0  0  0
  -20.9742  -22.2252   23.3524 C   0  0  1  0  0  0  0  0  0  0  0  0
  -30.6918  -18.4895   21.7334 C   0  0  0  0  0  0  0  0  0  0  0  0
  -19.0528  -26.9818   21.4797 N   0  0  0  0  0  0  0  0  0  0  0  0
  -19.9063  -25.3457   23.5915 N   0  0  0  0  0  0  0  0  0  0  0  0
  -26.4738  -28.4298   21.2395 N   0  0  0  0  0  0  0  0  0  0  0  0
  -25.7662  -28.9014   20.1989 N   0  0  0  0  0  0  0  0  0  0  0  0
  -27.5264  -18.2238   20.0678 N   0  0  0  0  0  0  0  0  0  0  0  0
  -23.0326  -30.8493   22.0269 N   0  0  0  0  0  0  0  0  0  0  0  0
  -25.4925  -28.7004   17.8546 N   0  0  0  0  0  0  0  0  0  0  0  0
  -28.7777  -25.7420   18.7775 N   0  0  0  0  0  0  0  0  0  0  0  0
  -19.0705  -23.4810   22.4084 N   0  0  0  0  0  0  0  0  0  0  0  0
  -25.6320  -15.1223   20.3655 N   0  0  0  0  0  0  0  0  0  0  0  0
  -30.4333  -19.9080   19.6538 N   0  0  0  0  0  0  0  0  0  0  0  0
  -21.2560  -29.3237   22.3585 N   0  0  0  0  0  0  0  0  0  0  0  0
  -30.1433  -22.2658   17.1964 N   0  3  0  0  0  0  0  0  0  0  0  0
  -27.5068  -26.6493   17.0981 O   0  0  0  0  0  0  0  0  0  0  0  0
  -26.7931  -16.5173   21.8244 O   0  0  0  0  0  0  0  0  0  0  0  0
  -29.4852  -17.2294   19.2866 O   0  0  0  0  0  0  0  0  0  0  0  0
  -29.3351  -21.9075   20.0696 O   0  0  0  0  0  0  0  0  0  0  0  0
  -20.8752  -31.5825   22.4582 O   0  0  0  0  0  0  0  0  0  0  0  0
  -30.9296  -24.6719   23.8033 O   0  0  0  0  0  0  0  0  0  0  0  0
  -22.7494  -21.7280   21.7864 O   0  0  0  0  0  0  0  0  0  1  0  0
  -29.0975  -22.5241   28.5399 F   0  0  0  0  0  0  0  0  0  0  0  0
  -29.8975  -26.2932   25.7905 F   0  0  0  0  0  0  0  0  0  0  0  0
  -21.5227  -21.2091   24.7320 Cl  0  0  0  0  0  0  0  0  0  0  0  0
  1  2  1  0  0  0  0
  1  5  2  0  0  0  0
  2  6  2  0  0  0  0
  3  8  2  0  0  0  0
  3 17  1  0  0  0  0
  4  9  1  0  0  0  0
  4 17  2  0  0  0  0
  5 19  1  0  0  0  0
  6 21  1  0  0  0  0
  7 10  2  0  0  0  0
  7 20  1  0  0  0  0
  8 23  1  0  0  0  0
  9 23  2  0  0  0  0
 10 24  1  0  0  0  0
 11 12  2  0  0  0  0
 11 25  1  0  0  0  0
 12 26  1  0  0  0  0
 13 22  1  0  0  0  0
 13 24  2  0  0  0  0
 14 26  2  0  0  0  0
 14 27  1  0  0  0  0
 15 29  2  0  0  0  0
 15 63  1  0  0  0  0
 16 30  1  0  0  0  0
 16 62  2  0  0  0  0
 17 28  1  0  0  0  0
 18 28  1  0  0  0  0
 18 31  2  0  0  0  0
 18 32  1  0  0  0  0
 19 21  2  0  0  0  0
 19 37  1  0  0  0  0
 20 22  2  0  0  0  0
 20 38  1  0  0  0  0
 21 46  1  0  0  0  0
 22 39  1  0  0  0  0
 23 80  1  0  0  0  0
 24 81  1  0  0  0  0
 25 27  2  0  0  0  0
 25 80  1  0  0  0  0
 26 82  1  0  0  0  0
 27 83  1  0  0  0  0
 28 64  2  0  0  0  0
 29 55  1  0  0  0  0
 29 62  1  0  0  0  0
 30 63  2  0  0  0  0
 30 70  1  0  0  0  0
 31 65  1  0  0  0  0
 31 68  1  0  0  0  0
 32 69  1  0  0  0  0
 32 75  2  0  0  0  0
 33 47  1  0  0  0  0
 33 71  1  0  0  0  0
 33 76  2  0  0  0  0
 34 57  1  0  0  0  0
 34 66  1  0  0  0  0
 34 77  2  0  0  0  0
 35 58  1  0  0  0  0
 35 72  1  0  0  0  0
 35 78  2  0  0  0  0
 36 67  1  0  0  0  0
 36 73  1  0  0  0  0
 36 79  2  0  0  0  0
 37 40  1  0  0  0  0
 38 47  1  0  0  0  0
 39 66  1  0  0  0  0
 40 42  1  0  0  0  0
 41 43  1  0  0  0  0
 41 44  1  0  0  0  0
 42 46  1  0  0  0  0
 43 48  1  0  0  0  0
 44 67  1  0  0  0  0
 45 48  1  0  0  0  0
 45 67  1  0  0  0  0
 46 71  1  0  0  0  0
 47 66  1  0  0  0  0
 48 65  1  0  0  0  0
 49 58  1  0  0  0  0
 50 59  1  0  0  0  0
 51 61  1  0  0  0  0
 52 61  1  0  0  0  0
 53 61  1  0  0  0  0
 54 74  1  0  0  0  0
 55 73  1  0  0  0  0
 56 60  1  0  0  0  0
 56 81  1  0  0  0  0
 57 61  1  0  0  0  0
 57 72  1  0  0  0  0
 58 74  1  0  0  0  0
 59 60  1  0  0  0  0
 59 70  1  0  0  0  0
 60 84  1  0  0  0  0
 64 65  1  0  0  0  0
M  CHG  1  74   1
M  ISO  4  36 100  56 101  73 100  81 101
M  END
> <Batch ID>
0191

> <Smiles>
CNC(C)C(=O)NC(C(=O)N1Cc2cc([101O:1][101CH2:1]C(Cl)C(C)Nc3cnc(C[100NH:0][100C:0](=O)N4CCCC(n5nc(-c6ccc(Oc7ccc(F)cc7F)cc6)c(C(N)=O)c5N)C4)cn3)ccc2CC1C(=O)NC1CCCc2ccccc21)C(C)(C)C

> <Shape>
0.229

> <Color>
0.085

> <Negative vol penalty>
0.000

$$$$

  -OEChem-04052305243D

 87 95  0     1  0  0  0  0  0999 V2000
  -23.7841  -19.6625   19.6752 C   0  0  0  0  0  0  0  0  0  0  0  0
  -24.7401  -19.9463   20.6453 C   0  0  0  0  0  0  0  0  0  0  0  0
  -22.8654   -9.9210   20.1292 C   0  0  0  0  0  0  0  0  0  0  0  0
  -23.5068  -10.1575   22.4464 C   0  0  0  0  0  0  0  0  0  0  0  0
  -23.3218  -20.6756   18.8363 C   0  0  0  0  0  0  0  0  0  0  0  0
  -25.2351  -21.2433   20.7763 C   0  0  0  0  0  0  0  0  0  0  0  0
  -25.4908  -22.7467   25.6053 C   0  0  0  0  0  0  0  0  0  0  0  0
  -22.0554   -8.8360   20.4641 C   0  0  0  0  0  0  0  0  0  0  0  0
  -22.6968   -9.0725   22.7814 C   0  0  0  0  0  0  0  0  0  0  0  0
  -26.5584  -22.2703   26.3648 C   0  0  0  0  0  0  0  0  0  0  0  0
  -22.8563   -5.6994   22.6153 C   0  0  0  0  0  0  0  0  0  0  0  0
  -23.3846   -4.7378   23.4765 C   0  0  0  0  0  0  0  0  0  0  0  0
  -27.7157  -24.3616   26.0388 C   0  0  0  0  0  0  0  0  0  0  0  0
  -21.6086   -5.1757   25.0549 C   0  0  0  0  0  0  0  0  0  0  0  0
  -31.8863  -18.6114   21.9232 C   0  0  0  0  0  0  0  0  0  0  0  0
  -23.5912  -10.5818   21.1203 C   0  0  0  0  0  0  0  0  0  0  0  0
  -24.0592  -13.0603   20.7388 C   0  0  0  0  0  0  0  0  0  0  0  0
  -23.8043  -21.9877   18.9635 C   0  0  0  0  0  0  0  0  0  0  0  0
  -25.5323  -24.0323   25.0468 C   0  0  0  0  0  0  0  0  0  0  0  0
  -24.7798  -22.2746   19.9374 C   0  0  0  0  0  0  0  0  0  0  0  0
  -26.6462  -24.8530   25.2747 C   0  0  0  0  0  0  0  0  0  0  0  0
  -21.9710   -8.4117   21.7902 C   0  0  0  0  0  0  0  0  0  0  0  0
  -27.6724  -23.0767   26.5792 C   0  0  0  0  0  0  0  0  0  0  0  0
  -21.7042   -6.3993   22.9739 C   0  0  0  0  0  0  0  0  0  0  0  0
  -22.7607   -4.4759   24.6963 C   0  0  0  0  0  0  0  0  0  0  0  0
  -21.0804   -6.1374   24.1936 C   0  0  0  0  0  0  0  0  0  0  0  0
  -24.4286  -11.7023   20.7749 C   0  0  0  0  0  0  0  0  0  0  0  0
  -30.7671  -19.1065   22.5590 C   0  0  0  0  0  0  0  0  0  0  0  0
  -25.2031  -13.7171   20.3560 C   0  0  0  0  0  0  0  0  0  0  0  0
  -30.5836  -16.8601   21.7088 C   0  0  0  0  0  0  0  0  0  0  0  0
  -22.7952  -13.6731   21.0256 C   0  0  0  0  0  0  0  0  0  0  0  0
  -25.4786  -25.1959   22.0892 C   0  0  0  0  0  0  0  0  0  0  0  0
  -31.9799  -22.9289   24.4667 C   0  0  0  0  0  0  0  0  0  0  0  0
  -25.3317  -28.0463   23.6307 C   0  0  0  0  0  0  0  0  0  0  0  0
  -25.9646  -29.8456   26.4607 C   0  0  0  0  0  0  0  0  0  0  0  0
  -30.6971  -14.5462   20.7194 C   0  0  0  0  0  0  0  0  0  0  0  0
  -23.3093  -23.0395   18.0025 C   0  0  0  0  0  0  0  0  0  0  0  0
  -24.3610  -24.5414   24.2522 C   0  0  0  0  0  0  0  0  0  0  0  0
  -26.7312  -26.2483   24.7141 C   0  0  0  0  0  0  0  0  0  0  0  0
  -23.6094  -24.4665   18.4539 C   0  0  0  0  0  0  0  0  0  0  0  0
  -29.5906  -11.9271   18.5762 C   0  0  0  0  0  0  0  0  0  0  0  0
  -25.0563  -24.5852   18.9221 C   0  0  0  0  0  0  0  0  0  0  0  0
  -28.1186  -11.7468   18.9542 C   0  0  0  0  0  0  0  0  0  0  0  0
  -30.4531  -12.2528   19.7943 C   0  0  0  0  0  0  0  0  0  0  0  0
  -28.5151  -13.2090   20.9770 C   0  0  0  0  0  0  0  0  0  0  0  0
  -25.3228  -23.6744   20.1267 C   0  0  1  0  0  0  0  0  0  0  0  0
  -24.7315  -25.6755   23.3015 C   0  0  1  0  0  0  0  0  0  0  0  0
  -27.5964  -12.9436   19.7732 C   0  0  2  0  0  0  0  0  0  0  0  0
  -32.4447  -25.2832   23.6694 C   0  0  0  0  0  0  0  0  0  0  0  0
  -25.7693  -32.1614   27.4075 C   0  0  0  0  0  0  0  0  0  0  0  0
  -30.8495  -20.9867   28.9433 C   0  0  0  0  0  0  0  0  0  0  0  0
  -27.7409  -28.9233   21.9763 C   0  0  0  0  0  0  0  0  0  0  0  0
  -28.0776  -30.8056   23.5923 C   0  0  0  0  0  0  0  0  0  0  0  0
  -25.9753  -30.6722   22.2562 C   0  0  0  0  0  0  0  0  0  0  0  0
  -24.1646  -28.9339   28.6258 C   0  0  0  0  0  0  0  0  0  0  0  0
  -30.5386  -20.4442   23.1988 C   0  0  0  0  0  0  0  0  0  0  0  0
  -31.4497  -24.3481   24.3336 C   0  0  0  0  0  0  0  0  0  0  0  0
  -31.3624  -21.8384   26.6408 C   0  0  0  0  0  0  0  0  0  0  0  0
  -28.9569  -21.2092   27.2994 C   0  0  0  0  0  0  0  0  0  1  0  0
  -31.0537  -21.9261   25.1423 C   0  0  2  0  0  0  0  0  0  0  0  0
  -26.3480  -29.0360   24.1472 C   0  0  1  0  0  0  0  0  0  0  0  0
  -25.0998  -30.8040   27.2594 C   0  0  2  0  0  0  0  0  0  0  0  0
  -30.4509  -20.9019   27.4643 C   0  0  2  0  0  0  0  0  0  0  0  0
  -27.0350  -29.8323   23.0021 C   0  0  0  0  0  0  0  0  0  0  0  0
  -31.7831  -17.3233   21.4354 N   0  0  0  0  0  0  0  0  0  0  0  0
  -25.7071  -11.5066   20.4415 N   0  0  0  0  0  0  0  0  0  0  0  0
  -26.1511  -12.7503   20.1922 N   0  0  0  0  0  0  0  0  0  0  0  0
  -25.5634  -26.6983   23.9388 N   0  0  0  0  0  0  0  0  0  0  0  0
  -29.9002  -13.3993   20.5185 N   0  0  0  0  0  0  0  0  0  0  0  0
  -25.4805  -15.0216   20.1468 N   0  0  0  0  0  0  0  0  0  0  0  0
  -21.7250  -12.8515   21.4049 N   0  0  0  0  0  0  0  0  0  0  0  0
  -30.0539  -15.5847   21.3919 N   0  0  0  0  0  0  0  0  0  0  0  0
  -24.7892  -24.2656   21.3351 N   0  0  0  0  0  0  0  0  0  0  0  0
  -25.6485  -29.8698   25.1187 N   0  0  0  0  0  0  0  0  0  0  0  0
  -24.8414  -30.2564   28.6211 N   0  3  0  0  0  0  0  0  0  0  0  0
  -31.2222  -20.5867   24.5098 N   0  3  0  0  0  0  0  0  0  0  0  0
  -22.6155  -14.9111   20.9320 O   0  0  0  0  0  0  0  0  0  0  0  0
  -26.5970  -25.6384   21.8546 O   0  0  0  0  0  0  0  0  0  0  0  0
  -33.0992  -22.6083   24.0667 O   0  0  0  0  0  0  0  0  0  0  0  0
  -24.3641  -28.4551   22.9839 O   0  0  0  0  0  0  0  0  0  0  0  0
  -26.8361  -29.1482   26.9751 O   0  0  0  0  0  0  0  0  0  0  0  0
  -31.8554  -14.6131   20.2999 O   0  0  0  0  0  0  0  0  0  0  0  0
  -21.1805   -7.3532   22.1174 O   0  0  0  0  0  0  0  0  0  0  0  0
  -28.7239  -22.6104   27.3251 O   0  0  0  0  0  0  0  0  0  1  0  0
  -23.2673   -3.5513   25.5226 F   0  0  0  0  0  0  0  0  0  0  0  0
  -19.9726   -6.8057   24.5431 F   0  0  0  0  0  0  0  0  0  0  0  0
  -29.5284  -17.9203   22.5499 S   0  0  0  0  0  0  0  0  0  0  0  0
  1  2  1  0  0  0  0
  1  5  2  0  0  0  0
  2  6  2  0  0  0  0
  3  8  2  0  0  0  0
  3 16  1  0  0  0  0
  4  9  1  0  0  0  0
  4 16  2  0  0  0  0
  5 18  1  0  0  0  0
  6 20  1  0  0  0  0
  7 10  2  0  0  0  0
  7 19  1  0  0  0  0
  8 22  1  0  0  0  0
  9 22  2  0  0  0  0
 10 23  1  0  0  0  0
 11 12  2  0  0  0  0
 11 24  1  0  0  0  0
 12 25  1  0  0  0  0
 13 21  1  0  0  0  0
 13 23  2  0  0  0  0
 14 25  2  0  0  0  0
 14 26  1  0  0  0  0
 15 28  2  0  0  0  0
 15 65  1  0  0  0  0
 16 27  1  0  0  0  0
 17 27  1  0  0  0  0
 17 29  2  0  0  0  0
 17 31  1  0  0  0  0
 18 20  2  0  0  0  0
 18 37  1  0  0  0  0
 19 21  2  0  0  0  0
 19 38  1  0  0  0  0
 20 46  1  0  0  0  0
 21 39  1  0  0  0  0
 22 83  1  0  0  0  0
 23 84  1  0  0  0  0
 24 26  2  0  0  0  0
 24 83  1  0  0  0  0
 25 85  1  0  0  0  0
 26 86  1  0  0  0  0
 27 66  2  0  0  0  0
 28 56  1  0  0  0  0
 28 87  1  0  0  0  0
 29 67  1  0  0  0  0
 29 70  1  0  0  0  0
 30 65  2  0  0  0  0
 30 72  1  0  0  0  0
 30 87  1  0  0  0  0
 31 71  1  0  0  0  0
 31 77  2  0  0  0  0
 32 47  1  0  0  0  0
 32 73  1  0  0  0  0
 32 78  2  0  0  0  0
 33 57  1  0  0  0  0
 33 60  1  0  0  0  0
 33 79  2  0  0  0  0
 34 61  1  0  0  0  0
 34 68  1  0  0  0  0
 34 80  2  0  0  0  0
 35 62  1  0  0  0  0
 35 74  1  0  0  0  0
 35 81  2  0  0  0  0
 36 69  1  0  0  0  0
 36 72  1  0  0  0  0
 36 82  2  0  0  0  0
 37 40  1  0  0  0  0
 38 47  1  0  0  0  0
 39 68  1  0  0  0  0
 40 42  1  0  0  0  0
 41 43  1  0  0  0  0
 41 44  1  0  0  0  0
 42 46  1  0  0  0  0
 43 48  1  0  0  0  0
 44 69  1  0  0  0  0
 45 48  1  0  0  0  0
 45 69  1  0  0  0  0
 46 73  1  0  0  0  0
 47 68  1  0  0  0  0
 48 67  1  0  0  0  0
 49 57  1  0  0  0  0
 50 62  1  0  0  0  0
 51 63  1  0  0  0  0
 52 64  1  0  0  0  0
 53 64  1  0  0  0  0
 54 64  1  0  0  0  0
 55 75  1  0  0  0  0
 56 76  1  0  0  0  0
 58 60  1  0  0  0  0
 58 63  1  0  0  0  0
 59 63  1  0  0  0  0
 59 84  1  0  0  0  0
 60 76  1  0  0  0  0
 61 64  1  0  0  0  0
 61 74  1  0  0  0  0
 62 75  1  0  0  0  0
 66 67  1  0  0  0  0
M  CHG  2  75   1  76   1
M  ISO  4  36 100  59 101  72 100  84 101
M  END
> <Batch ID>
0191

> <Smiles>
CCC(=O)C(CC(C)[101CH2:1][101O:1]c1ccc2c(c1)CN(C(=O)C(NC(=O)C(C)NC)C(C)(C)C)C(C(=O)NC1CCCc3ccccc31)C2)NCc1cnc([100NH:0][100C:0](=O)N2CCCC(n3nc(-c4ccc(Oc5ccc(F)cc5F)cc4)c(C(N)=O)c3N)C2)s1

> <Shape>
0.222

> <Color>
0.178

> <Negative vol penalty>
0.000

$$$$

  -OEChem-04052305243D

 86 94  0     1  0  0  0  0  0999 V2000
  -27.4686  -23.4037   18.3639 C   0  0  0  0  0  0  0  0  0  0  0  0
  -26.1525  -23.8154   18.5478 C   0  0  0  0  0  0  0  0  0  0  0  0
  -23.5571  -13.8403   19.3561 C   0  0  0  0  0  0  0  0  0  0  0  0
  -24.8363  -14.5697   21.2715 C   0  0  0  0  0  0  0  0  0  0  0  0
  -28.4544  -23.8006   19.2664 C   0  0  0  0  0  0  0  0  0  0  0  0
  -25.8213  -24.6234   19.6349 C   0  0  0  0  0  0  0  0  0  0  0  0
  -21.5886  -29.0472   19.7796 C   0  0  0  0  0  0  0  0  0  0  0  0
  -24.5212  -12.8704   19.0815 C   0  0  0  0  0  0  0  0  0  0  0  0
  -25.8004  -13.5998   20.9969 C   0  0  0  0  0  0  0  0  0  0  0  0
  -20.2734  -29.0722   20.2415 C   0  0  0  0  0  0  0  0  0  0  0  0
  -28.3881  -13.1943   18.8591 C   0  0  0  0  0  0  0  0  0  0  0  0
  -29.7280  -13.5774   18.9184 C   0  0  0  0  0  0  0  0  0  0  0  0
  -21.0347  -29.9827   22.3417 C   0  0  0  0  0  0  0  0  0  0  0  0
  -30.1198  -11.9385   20.6498 C   0  0  0  0  0  0  0  0  0  0  0  0
  -19.4686  -22.2038   24.9982 C   0  0  0  0  0  0  0  0  0  0  0  0
  -23.7147  -14.6900   20.4510 C   0  0  0  0  0  0  0  0  0  0  0  0
  -21.5799  -15.5523   21.5495 C   0  0  0  0  0  0  0  0  0  0  0  0
  -28.1369  -24.6218   20.3597 C   0  0  0  0  0  0  0  0  0  0  0  0
  -22.6397  -29.4803   20.6006 C   0  0  0  0  0  0  0  0  0  0  0  0
  -26.8036  -25.0306   20.5536 C   0  0  0  0  0  0  0  0  0  0  0  0
  -22.3621  -29.9646   21.8869 C   0  0  0  0  0  0  0  0  0  0  0  0
  -25.6428  -12.7501   19.9019 C   0  0  0  0  0  0  0  0  0  0  0  0
  -19.9966  -29.5373   21.5238 C   0  0  0  0  0  0  0  0  0  0  0  0
  -27.9140  -12.1834   19.6951 C   0  0  0  0  0  0  0  0  0  0  0  0
  -30.5939  -12.9495   19.8138 C   0  0  0  0  0  0  0  0  0  0  0  0
  -28.7799  -11.5554   20.5904 C   0  0  0  0  0  0  0  0  0  0  0  0
  -22.7194  -15.6925   20.7348 C   0  0  0  0  0  0  0  0  0  0  0  0
  -20.9651  -16.7793   21.4939 C   0  0  0  0  0  0  0  0  0  0  0  0
  -19.9493  -22.6466   23.7983 C   0  0  0  0  0  0  0  0  0  0  0  0
  -18.9081  -24.3344   24.7821 C   0  0  0  0  0  0  0  0  0  0  0  0
  -21.1184  -14.4148   22.2903 C   0  0  0  0  0  0  0  0  0  0  0  0
  -25.2240  -28.1109   21.8456 C   0  0  0  0  0  0  0  0  0  0  0  0
  -25.8831  -31.1361   22.8134 C   0  0  0  0  0  0  0  0  0  0  0  0
  -24.7180  -34.2490   23.5873 C   0  0  0  0  0  0  0  0  0  0  0  0
  -21.1737  -22.3420   21.6179 C   0  0  0  0  0  0  0  0  0  0  0  0
  -29.2282  -24.9862   21.3350 C   0  0  0  0  0  0  0  0  0  0  0  0
  -24.0500  -29.4719   20.0777 C   0  0  0  0  0  0  0  0  0  0  0  0
  -23.4525  -30.4597   22.8002 C   0  0  0  0  0  0  0  0  0  0  0  0
  -28.8621  -26.1509   22.2514 C   0  0  0  0  0  0  0  0  0  0  0  0
  -21.8294  -20.7639   18.4943 C   0  0  0  0  0  0  0  0  0  0  0  0
  -27.4606  -25.9604   22.8228 C   0  0  0  0  0  0  0  0  0  0  0  0
  -22.0256  -19.2923   18.8658 C   0  0  0  0  0  0  0  0  0  0  0  0
  -22.4043  -21.6986   19.5571 C   0  0  0  0  0  0  0  0  0  0  0  0
  -22.1295  -19.9759   21.2966 C   0  0  0  0  0  0  0  0  0  0  0  0
  -26.4095  -25.9278   21.7068 C   0  0  1  0  0  0  0  0  0  0  0  0
  -25.0981  -29.4552   21.1861 C   0  0  1  0  0  0  0  0  0  0  0  0
  -21.5089  -18.9961   20.2873 C   0  0  2  0  0  0  0  0  0  0  0  0
  -20.6189  -26.8855   25.0774 C   0  0  0  0  0  0  0  0  0  0  0  0
  -16.8157  -22.5554   26.8152 C   0  0  0  0  0  0  0  0  0  0  0  0
  -25.4908  -36.5001   24.3827 C   0  0  0  0  0  0  0  0  0  0  0  0
  -26.1736  -30.0337   25.6436 C   0  0  0  0  0  0  0  0  0  0  0  0
  -25.9946  -32.3792   26.5007 C   0  0  0  0  0  0  0  0  0  0  0  0
  -27.8879  -31.7399   25.0076 C   0  0  0  0  0  0  0  0  0  0  0  0
  -23.7584  -35.5779   21.1231 C   0  0  0  0  0  0  0  0  0  0  0  0
  -19.3145  -26.6257   25.8239 C   0  0  0  0  0  0  0  0  0  0  0  0
  -16.7244  -28.2820   22.4771 C   0  0  0  0  0  0  0  0  0  0  0  0
  -17.8944  -26.3592   23.6986 C   0  0  0  0  0  0  0  0  0  0  0  0
  -18.1716  -23.2375   26.8771 C   0  0  0  0  0  0  0  0  0  0  0  0
  -17.8239  -28.5722   21.4634 C   0  0  0  0  0  0  0  0  0  1  0  0
  -18.3342  -25.7221   25.0432 C   0  0  1  0  0  0  0  0  0  0  0  0
  -25.5638  -31.9606   24.0370 C   0  0  1  0  0  0  0  0  0  0  0  0
  -25.1863  -35.6319   23.1718 C   0  0  2  0  0  0  0  0  0  0  0  0
  -17.2172  -27.7330   23.8262 C   0  0  2  0  0  0  0  0  0  0  0  0
  -26.3844  -31.5173   25.2810 C   0  0  0  0  0  0  0  0  0  0  0  0
  -22.8246  -16.9122   20.2007 N   0  0  0  0  0  0  0  0  0  0  0  0
  -18.8294  -23.2688   25.5857 N   0  0  0  0  0  0  0  0  0  0  0  0
  -21.7432  -17.5496   20.6808 N   0  0  0  0  0  0  0  0  0  0  0  0
  -19.5877  -23.9679   23.6907 N   0  3  0  0  0  0  0  0  0  0  0  0
  -24.8159  -30.4258   22.2456 N   0  0  0  0  0  0  0  0  0  0  0  0
  -21.8668  -21.3614   20.8770 N   0  0  0  0  0  0  0  0  0  0  0  0
  -19.8401  -17.2635   22.0617 N   0  0  0  0  0  0  0  0  0  0  0  0
  -21.8702  -13.2332   22.2373 N   0  0  0  0  0  0  0  0  0  0  0  0
  -20.6801  -21.8967   22.8437 N   0  0  0  0  0  0  0  0  0  0  0  0
  -26.1320  -27.2673   21.2345 N   0  0  0  0  0  0  0  0  0  0  0  0
  -25.7647  -33.3539   23.6541 N   0  0  0  0  0  0  0  0  0  0  0  0
  -24.1385  -36.3109   22.3582 N   0  3  0  0  0  0  0  0  0  0  0  0
  -20.0617  -14.4403   22.9657 O   0  0  0  0  0  0  0  0  0  0  0  0
  -24.5486  -27.8584   22.8364 O   0  0  0  0  0  0  0  0  0  0  0  0
  -27.0354  -31.1284   22.3732 O   0  0  0  0  0  0  0  0  0  0  0  0
  -23.5418  -33.9896   23.8321 O   0  0  0  0  0  0  0  0  0  0  0  0
  -21.0053  -23.4846   21.1839 O   0  0  0  0  0  0  0  0  0  0  0  0
  -16.0865  -27.6067   24.6894 O   0  0  0  0  0  0  0  0  0  0  0  0
  -26.5837  -11.8036   19.6344 O   0  0  0  0  0  0  0  0  0  0  0  0
  -18.7138  -29.5622   21.9774 O   0  0  0  0  0  0  0  0  0  1  0  0
  -31.8809  -13.3164   19.8696 F   0  0  0  0  0  0  0  0  0  0  0  0
  -28.3305  -10.5827   21.3953 F   0  0  0  0  0  0  0  0  0  0  0  0
  1  2  1  0  0  0  0
  1  5  2  0  0  0  0
  2  6  2  0  0  0  0
  3  8  2  0  0  0  0
  3 16  1  0  0  0  0
  4  9  1  0  0  0  0
  4 16  2  0  0  0  0
  5 18  1  0  0  0  0
  6 20  1  0  0  0  0
  7 10  2  0  0  0  0
  7 19  1  0  0  0  0
  8 22  1  0  0  0  0
  9 22  2  0  0  0  0
 10 23  1  0  0  0  0
 11 12  2  0  0  0  0
 11 24  1  0  0  0  0
 12 25  1  0  0  0  0
 13 21  1  0  0  0  0
 13 23  2  0  0  0  0
 14 25  2  0  0  0  0
 14 26  1  0  0  0  0
 15 29  2  0  0  0  0
 15 66  1  0  0  0  0
 16 27  1  0  0  0  0
 17 27  1  0  0  0  0
 17 28  2  0  0  0  0
 17 31  1  0  0  0  0
 18 20  2  0  0  0  0
 18 36  1  0  0  0  0
 19 21  2  0  0  0  0
 19 37  1  0  0  0  0
 20 45  1  0  0  0  0
 21 38  1  0  0  0  0
 22 83  1  0  0  0  0
 23 84  1  0  0  0  0
 24 26  2  0  0  0  0
 24 83  1  0  0  0  0
 25 85  1  0  0  0  0
 26 86  1  0  0  0  0
 27 65  2  0  0  0  0
 28 67  1  0  0  0  0
 28 71  1  0  0  0  0
 29 68  1  0  0  0  0
 29 73  1  0  0  0  0
 30 60  1  0  0  0  0
 30 66  1  0  0  0  0
 30 68  2  0  0  0  0
 31 72  1  0  0  0  0
 31 77  2  0  0  0  0
 32 46  1  0  0  0  0
 32 74  1  0  0  0  0
 32 78  2  0  0  0  0
 33 61  1  0  0  0  0
 33 69  1  0  0  0  0
 33 79  2  0  0  0  0
 34 62  1  0  0  0  0
 34 75  1  0  0  0  0
 34 80  2  0  0  0  0
 35 70  1  0  0  0  0
 35 73  1  0  0  0  0
 35 81  2  0  0  0  0
 36 39  1  0  0  0  0
 37 46  1  0  0  0  0
 38 69  1  0  0  0  0
 39 41  1  0  0  0  0
 40 42  1  0  0  0  0
 40 43  1  0  0  0  0
 41 45  1  0  0  0  0
 42 47  1  0  0  0  0
 43 70  1  0  0  0  0
 44 47  1  0  0  0  0
 44 70  1  0  0  0  0
 45 74  1  0  0  0  0
 46 69  1  0  0  0  0
 47 67  1  0  0  0  0
 48 55  1  0  0  0  0
 49 58  1  0  0  0  0
 50 62  1  0  0  0  0
 51 64  1  0  0  0  0
 52 64  1  0  0  0  0
 53 64  1  0  0  0  0
 54 76  1  0  0  0  0
 55 60  1  0  0  0  0
 56 59  1  0  0  0  0
 56 63  1  0  0  0  0
 57 60  1  0  0  0  0
 57 63  1  0  0  0  0
 58 66  1  0  0  0  0
 59 84  1  0  0  0  0
 61 64  1  0  0  0  0
 61 75  1  0  0  0  0
 62 76  1  0  0  0  0
 63 82  1  0  0  0  0
 65 67  1  0  0  0  0
M  CHG  2  68   1  76   1
M  ISO  4  35 100  59 101  73 100  84 101
M  END
> <Batch ID>
0191

> <Smiles>
CCC(CC(O)C[101CH2:1][101O:1]c1ccc2c(c1)CN(C(=O)C(NC(=O)C(C)NC)C(C)(C)C)C(C(=O)NC1CCCc3ccccc31)C2)c1nc([100NH:0][100C:0](=O)N2CCCC(n3nc(-c4ccc(Oc5ccc(F)cc5F)cc4)c(C(N)=O)c3N)C2)cn1CC

> <Shape>
0.244

> <Color>
0.072

> <Negative vol penalty>
0.000

$$$$

  -OEChem-04052305243D

 83 91  0     1  0  0  0  0  0999 V2000
  -29.3173  -34.9105   26.2256 C   0  0  0  0  0  0  0  0  0  0  0  0
  -29.7110  -34.1600   25.1224 C   0  0  0  0  0  0  0  0  0  0  0  0
  -23.0729  -10.0248   21.5928 C   0  0  0  0  0  0  0  0  0  0  0  0
  -23.7396  -11.1396   23.6299 C   0  0  0  0  0  0  0  0  0  0  0  0
  -28.3432  -34.4160   27.0919 C   0  0  0  0  0  0  0  0  0  0  0  0
  -29.1316  -32.9140   24.8854 C   0  0  0  0  0  0  0  0  0  0  0  0
  -27.2037  -28.5842   19.5140 C   0  0  0  0  0  0  0  0  0  0  0  0
  -22.3279   -9.1102   22.3371 C   0  0  0  0  0  0  0  0  0  0  0  0
  -22.9946  -10.2250   24.3743 C   0  0  0  0  0  0  0  0  0  0  0  0
  -27.3695  -27.2708   19.0768 C   0  0  0  0  0  0  0  0  0  0  0  0
  -22.9120   -6.3439   24.1894 C   0  0  0  0  0  0  0  0  0  0  0  0
  -23.0241   -4.9942   23.8561 C   0  0  0  0  0  0  0  0  0  0  0  0
  -25.6394  -26.5528   20.5968 C   0  0  0  0  0  0  0  0  0  0  0  0
  -20.6546   -4.9120   23.3916 C   0  0  0  0  0  0  0  0  0  0  0  0
  -29.6282  -18.5124   20.4982 C   0  0  0  0  0  0  0  0  0  0  0  0
  -23.7788  -11.0395   22.2392 C   0  0  0  0  0  0  0  0  0  0  0  0
  -24.1069  -13.2125   20.9437 C   0  0  0  0  0  0  0  0  0  0  0  0
  -27.7445  -33.1676   26.8601 C   0  0  0  0  0  0  0  0  0  0  0  0
  -26.2605  -28.8907   20.5054 C   0  0  0  0  0  0  0  0  0  0  0  0
  -28.1495  -32.4017   25.7502 C   0  0  0  0  0  0  0  0  0  0  0  0
  -25.4618  -27.8713   21.0430 C   0  0  0  0  0  0  0  0  0  0  0  0
  -22.2887   -9.2103   23.7278 C   0  0  0  0  0  0  0  0  0  0  0  0
  -26.5893  -26.2544   19.6203 C   0  0  0  0  0  0  0  0  0  0  0  0
  -21.6712   -6.9778   24.1239 C   0  0  0  0  0  0  0  0  0  0  0  0
  -21.8955   -4.2782   23.4571 C   0  0  0  0  0  0  0  0  0  0  0  0
  -20.5425   -6.2618   23.7250 C   0  0  0  0  0  0  0  0  0  0  0  0
  -24.5490  -11.9843   21.4709 C   0  0  0  0  0  0  0  0  0  0  0  0
  -30.4335  -17.3784   20.1917 C   0  0  0  0  0  0  0  0  0  0  0  0
  -25.2074  -13.7271   20.3030 C   0  0  0  0  0  0  0  0  0  0  0  0
  -30.3149  -19.6721   20.2116 C   0  0  0  0  0  0  0  0  0  0  0  0
  -22.8169  -13.8327   21.0260 C   0  0  0  0  0  0  0  0  0  0  0  0
  -26.4037  -30.1087   23.4379 C   0  0  0  0  0  0  0  0  0  0  0  0
  -23.1691  -30.0403   23.2034 C   0  0  0  0  0  0  0  0  0  0  0  0
  -20.3975  -28.6746   21.7542 C   0  0  0  0  0  0  0  0  0  0  0  0
  -30.6543  -14.8696   20.1343 C   0  0  0  0  0  0  0  0  0  0  0  0
  -26.7299  -32.6539   27.8507 C   0  0  0  0  0  0  0  0  0  0  0  0
  -26.0752  -30.3165   20.9469 C   0  0  0  0  0  0  0  0  0  0  0  0
  -24.4210  -28.1509   22.0952 C   0  0  0  0  0  0  0  0  0  0  0  0
  -25.8959  -31.4904   27.3205 C   0  0  0  0  0  0  0  0  0  0  0  0
  -29.6539  -11.5929   19.1649 C   0  0  0  0  0  0  0  0  0  0  0  0
  -26.7915  -30.4540   26.6492 C   0  0  0  0  0  0  0  0  0  0  0  0
  -28.2003  -11.5037   19.6350 C   0  0  0  0  0  0  0  0  0  0  0  0
  -30.5181  -12.3884   20.1417 C   0  0  0  0  0  0  0  0  0  0  0  0
  -28.5518  -13.6330   20.9502 C   0  0  0  0  0  0  0  0  0  0  0  0
  -27.5264  -31.0567   25.4457 C   0  0  1  0  0  0  0  0  0  0  0  0
  -25.4429  -30.4363   22.3301 C   0  0  1  0  0  0  0  0  0  0  0  0
  -27.6285  -12.8962   19.9660 C   0  0  2  0  0  0  0  0  0  0  0  0
  -17.8913  -28.7963   21.7936 C   0  0  0  0  0  0  0  0  0  0  0  0
  -27.2242  -22.2733   18.2091 C   0  0  0  0  0  0  0  0  0  0  0  0
  -28.5946  -21.1746   22.3946 C   0  0  0  0  0  0  0  0  0  0  0  0
  -23.1370  -28.4800   25.8253 C   0  0  0  0  0  0  0  0  0  0  0  0
  -20.7735  -27.8230   25.3245 C   0  0  0  0  0  0  0  0  0  0  0  0
  -21.3595  -30.2284   25.6299 C   0  0  0  0  0  0  0  0  0  0  0  0
  -20.2765  -29.4862   18.9107 C   0  0  0  0  0  0  0  0  0  0  0  0
  -28.2455  -22.7909   20.4922 C   0  0  0  0  0  0  0  0  0  0  0  0
  -28.0510  -24.5928   18.7493 C   0  0  0  0  0  0  0  0  0  1  0  0
  -22.0947  -29.0308   23.5282 C   0  0  1  0  0  0  0  0  0  0  0  0
  -19.1641  -29.3120   21.1403 C   0  0  2  0  0  0  0  0  0  0  0  0
  -28.2692  -23.0896   18.9775 C   0  0  2  0  0  0  0  0  0  0  0  0
  -28.5853  -21.3426   20.8775 C   0  0  1  0  0  0  0  0  0  0  0  0
  -21.8620  -28.8846   25.0586 C   0  0  0  0  0  0  0  0  0  0  0  0
  -25.8304  -11.7337   21.1893 N   0  0  0  0  0  0  0  0  0  0  0  0
  -31.6504  -17.6093   19.7046 N   0  0  0  0  0  0  0  0  0  0  0  0
  -26.2029  -12.8114   20.4781 N   0  0  0  0  0  0  0  0  0  0  0  0
  -24.2819  -29.5599   22.4987 N   0  0  0  0  0  0  0  0  0  0  0  0
  -29.9167  -13.6976   20.4047 N   0  0  0  0  0  0  0  0  0  0  0  0
  -25.4109  -14.8690   19.6123 N   0  0  0  0  0  0  0  0  0  0  0  0
  -21.7988  -13.1673   21.7224 N   0  0  0  0  0  0  0  0  0  0  0  0
  -29.9677  -16.0555   20.3930 N   0  0  0  0  0  0  0  0  0  0  0  0
  -29.8896  -20.9798   20.3652 N   0  0  0  0  0  0  0  0  0  0  0  0
  -26.6371  -31.1561   24.3084 N   0  0  0  0  0  0  0  0  0  0  0  0
  -20.9108  -29.4396   22.7802 N   0  0  0  0  0  0  0  0  0  0  0  0
  -19.0981  -29.0131   19.6818 N   0  3  0  0  0  0  0  0  0  0  0  0
  -22.5696  -14.9364   20.4836 O   0  0  0  0  0  0  0  0  0  0  0  0
  -26.8957  -28.9880   23.4992 O   0  0  0  0  0  0  0  0  0  0  0  0
  -23.0229  -31.2135   23.5555 O   0  0  0  0  0  0  0  0  0  0  0  0
  -20.8573  -27.6032   21.3652 O   0  0  0  0  0  0  0  0  0  0  0  0
  -31.8001  -14.8247   19.6792 O   0  0  0  0  0  0  0  0  0  0  0  0
  -21.5617   -8.3181   24.4544 O   0  0  0  0  0  0  0  0  0  0  0  0
  -26.7496  -24.9714   19.1958 O   0  0  0  0  0  0  0  0  0  1  0  0
  -22.0035   -2.9824   23.1356 F   0  0  0  0  0  0  0  0  0  0  0  0
  -19.3480   -6.8656   23.6590 F   0  0  0  0  0  0  0  0  0  0  0  0
  -31.8601  -19.2547   19.6018 S   0  0  0  0  0  0  0  0  0  0  0  0
  1  2  1  0  0  0  0
  1  5  2  0  0  0  0
  2  6  2  0  0  0  0
  3  8  2  0  0  0  0
  3 16  1  0  0  0  0
  4  9  1  0  0  0  0
  4 16  2  0  0  0  0
  5 18  1  0  0  0  0
  6 20  1  0  0  0  0
  7 10  2  0  0  0  0
  7 19  1  0  0  0  0
  8 22  1  0  0  0  0
  9 22  2  0  0  0  0
 10 23  1  0  0  0  0
 11 12  2  0  0  0  0
 11 24  1  0  0  0  0
 12 25  1  0  0  0  0
 13 21  1  0  0  0  0
 13 23  2  0  0  0  0
 14 25  2  0  0  0  0
 14 26  1  0  0  0  0
 15 28  1  0  0  0  0
 15 30  2  0  0  0  0
 16 27  1  0  0  0  0
 17 27  1  0  0  0  0
 17 29  2  0  0  0  0
 17 31  1  0  0  0  0
 18 20  2  0  0  0  0
 18 36  1  0  0  0  0
 19 21  2  0  0  0  0
 19 37  1  0  0  0  0
 20 45  1  0  0  0  0
 21 38  1  0  0  0  0
 22 79  1  0  0  0  0
 23 80  1  0  0  0  0
 24 26  2  0  0  0  0
 24 79  1  0  0  0  0
 25 81  1  0  0  0  0
 26 82  1  0  0  0  0
 27 62  2  0  0  0  0
 28 63  2  0  0  0  0
 28 69  1  0  0  0  0
 29 64  1  0  0  0  0
 29 67  1  0  0  0  0
 30 70  1  0  0  0  0
 30 83  1  0  0  0  0
 31 68  1  0  0  0  0
 31 74  2  0  0  0  0
 32 46  1  0  0  0  0
 32 71  1  0  0  0  0
 32 75  2  0  0  0  0
 33 57  1  0  0  0  0
 33 65  1  0  0  0  0
 33 76  2  0  0  0  0
 34 58  1  0  0  0  0
 34 72  1  0  0  0  0
 34 77  2  0  0  0  0
 35 66  1  0  0  0  0
 35 69  1  0  0  0  0
 35 78  2  0  0  0  0
 36 39  1  0  0  0  0
 37 46  1  0  0  0  0
 38 65  1  0  0  0  0
 39 41  1  0  0  0  0
 40 42  1  0  0  0  0
 40 43  1  0  0  0  0
 41 45  1  0  0  0  0
 42 47  1  0  0  0  0
 43 66  1  0  0  0  0
 44 47  1  0  0  0  0
 44 66  1  0  0  0  0
 45 71  1  0  0  0  0
 46 65  1  0  0  0  0
 47 64  1  0  0  0  0
 48 58  1  0  0  0  0
 49 59  1  0  0  0  0
 50 60  1  0  0  0  0
 51 61  1  0  0  0  0
 52 61  1  0  0  0  0
 53 61  1  0  0  0  0
 54 73  1  0  0  0  0
 55 59  1  0  0  0  0
 55 60  1  0  0  0  0
 56 59  1  0  0  0  0
 56 80  1  0  0  0  0
 57 61  1  0  0  0  0
 57 72  1  0  0  0  0
 58 73  1  0  0  0  0
 60 70  1  0  0  0  0
 62 64  1  0  0  0  0
 63 83  1  0  0  0  0
M  CHG  1  73   1
M  ISO  4  35 100  56 101  69 100  80 101
M  END
> <Batch ID>
0191

> <Smiles>
CNC(C)C(=O)NC(C(=O)N1Cc2cc([101O:1][101CH2:1]C(C)CC(C)Nc3cc([100NH:0][100C:0](=O)N4CCCC(n5nc(-c6ccc(Oc7ccc(F)cc7F)cc6)c(C(N)=O)c5N)C4)ns3)ccc2CC1C(=O)NC1CCCc2ccccc21)C(C)(C)C

> <Shape>
0.343

> <Color>
0.177

> <Negative vol penalty>
0.000

$$$$

  -OEChem-04052305243D

 85 93  0     1  0  0  0  0  0999 V2000
  -18.8926  -26.6725   18.8213 C   0  0  0  0  0  0  0  0  0  0  0  0
  -19.9574  -27.1489   19.5793 C   0  0  0  0  0  0  0  0  0  0  0  0
  -22.2715  -16.7110   22.0658 C   0  0  0  0  0  0  0  0  0  0  0  0
  -24.0931  -17.8632   23.1571 C   0  0  0  0  0  0  0  0  0  0  0  0
  -18.9360  -25.3826   18.2937 C   0  0  0  0  0  0  0  0  0  0  0  0
  -21.0658  -26.3352   19.8111 C   0  0  0  0  0  0  0  0  0  0  0  0
  -25.4473  -28.7939   19.1762 C   0  0  0  0  0  0  0  0  0  0  0  0
  -23.1875  -15.9650   21.3241 C   0  0  0  0  0  0  0  0  0  0  0  0
  -25.0092  -17.1172   22.4155 C   0  0  0  0  0  0  0  0  0  0  0  0
  -25.8595  -29.6369   20.2073 C   0  0  0  0  0  0  0  0  0  0  0  0
  -25.1882  -13.2826   21.8085 C   0  0  0  0  0  0  0  0  0  0  0  0
  -24.9671  -11.9099   21.6969 C   0  0  0  0  0  0  0  0  0  0  0  0
  -27.3616  -27.9236   20.9995 C   0  0  0  0  0  0  0  0  0  0  0  0
  -24.8301  -12.1274   19.2946 C   0  0  0  0  0  0  0  0  0  0  0  0
  -22.7243  -17.6601   22.9822 C   0  0  0  0  0  0  0  0  0  0  0  0
  -21.2335  -18.1038   25.0041 C   0  0  0  0  0  0  0  0  0  0  0  0
  -20.0497  -24.5562   18.5111 C   0  0  0  0  0  0  0  0  0  0  0  0
  -25.9820  -27.5032   19.0553 C   0  0  0  0  0  0  0  0  0  0  0  0
  -21.1236  -25.0326   19.2871 C   0  0  0  0  0  0  0  0  0  0  0  0
  -26.9563  -27.0671   19.9645 C   0  0  0  0  0  0  0  0  0  0  0  0
  -24.5564  -16.1681   21.4990 C   0  0  0  0  0  0  0  0  0  0  0  0
  -26.8147  -29.2008   21.1208 C   0  0  0  0  0  0  0  0  0  0  0  0
  -25.2302  -14.0777   20.6632 C   0  0  0  0  0  0  0  0  0  0  0  0
  -24.7881  -11.3323   20.4399 C   0  0  0  0  0  0  0  0  0  0  0  0
  -25.0511  -13.5001   19.4063 C   0  0  0  0  0  0  0  0  0  0  0  0
  -21.7785  -18.4314   23.7482 C   0  0  0  0  0  0  0  0  0  0  0  0
  -20.3955  -19.1515   25.2986 C   0  0  0  0  0  0  0  0  0  0  0  0
  -22.9987  -28.1289   24.8463 C   0  0  0  0  0  0  0  0  0  0  0  0
  -22.3595  -26.1904   24.0920 C   0  0  0  0  0  0  0  0  0  0  0  0
  -21.4641  -16.9553   25.8308 C   0  0  0  0  0  0  0  0  0  0  0  0
  -24.7863  -24.5602   19.1678 C   0  0  0  0  0  0  0  0  0  0  0  0
  -27.8014  -23.7219   18.3140 C   0  0  0  0  0  0  0  0  0  0  0  0
  -24.0459  -31.5151   24.6491 C   0  0  0  0  0  0  0  0  0  0  0  0
  -31.1200  -24.5151   18.2471 C   0  0  0  0  0  0  0  0  0  0  0  0
  -20.2667  -24.8782   23.5975 C   0  0  0  0  0  0  0  0  0  0  0  0
  -20.0305  -23.1524   17.9602 C   0  0  0  0  0  0  0  0  0  0  0  0
  -25.5464  -26.6158   17.9217 C   0  0  0  0  0  0  0  0  0  0  0  0
  -27.5763  -25.6980   19.8664 C   0  0  0  0  0  0  0  0  0  0  0  0
  -21.4047  -22.4880   17.9378 C   0  0  0  0  0  0  0  0  0  0  0  0
  -17.6713  -22.4757   23.1862 C   0  0  0  0  0  0  0  0  0  0  0  0
  -22.1209  -22.6980   19.2681 C   0  0  0  0  0  0  0  0  0  0  0  0
  -18.3791  -21.1364   23.4039 C   0  0  0  0  0  0  0  0  0  0  0  0
  -18.5634  -23.4762   22.4536 C   0  0  0  0  0  0  0  0  0  0  0  0
  -20.5935  -22.3475   23.2745 C   0  0  0  0  0  0  0  0  0  0  0  0
  -22.3543  -24.1890   19.5398 C   0  0  1  0  0  0  0  0  0  0  0  0
  -25.7809  -25.1340   18.1987 C   0  0  1  0  0  0  0  0  0  0  0  0
  -19.7576  -21.3287   24.0662 C   0  0  2  0  0  0  0  0  0  0  0  0
  -33.3462  -23.6151   17.5181 C   0  0  0  0  0  0  0  0  0  0  0  0
  -27.9116  -31.9129   24.2937 C   0  0  0  0  0  0  0  0  0  0  0  0
  -27.8238  -21.8393   20.7151 C   0  0  0  0  0  0  0  0  0  0  0  0
  -30.3144  -21.7051   20.4984 C   0  0  0  0  0  0  0  0  0  0  0  0
  -28.8573  -20.8977   18.6416 C   0  0  0  0  0  0  0  0  0  0  0  0
  -31.5517  -26.7718   16.3816 C   0  0  0  0  0  0  0  0  0  0  0  0
  -22.7840  -29.5109   25.3922 C   0  0  0  0  0  0  0  0  0  0  0  0
  -26.2666  -30.9652   22.6184 C   0  0  0  0  0  0  0  0  0  1  0  0
  -29.0686  -23.3820   19.0608 C   0  0  1  0  0  0  0  0  0  0  0  0
  -25.4217  -32.1624   24.7346 C   0  0  1  0  0  0  0  0  0  0  0  0
  -32.1456  -24.4637   17.1291 C   0  0  2  0  0  0  0  0  0  0  0  0
  -26.5243  -31.2829   24.1015 C   0  0  2  0  0  0  0  0  0  0  0  0
  -29.0031  -21.9812   19.7322 C   0  0  0  0  0  0  0  0  0  0  0  0
  -21.3248  -19.5959   23.2770 N   0  0  0  0  0  0  0  0  0  0  0  0
  -21.9033  -27.3366   24.5472 N   0  0  0  0  0  0  0  0  0  0  0  0
  -24.2388  -27.6796   24.6544 N   0  0  0  0  0  0  0  0  0  0  0  0
  -20.4858  -20.0093   24.2421 N   0  0  0  0  0  0  0  0  0  0  0  0
  -27.1129  -24.8649   18.7444 N   0  0  0  0  0  0  0  0  0  0  0  0
  -19.8500  -23.6100   23.1403 N   0  0  0  0  0  0  0  0  0  0  0  0
  -19.5976  -19.4134   26.3556 N   0  0  0  0  0  0  0  0  0  0  0  0
  -22.3558  -15.9738   25.3771 N   0  0  0  0  0  0  0  0  0  0  0  0
  -21.6500  -25.0464   23.6496 N   0  0  0  0  0  0  0  0  0  0  0  0
  -23.4714  -24.6762   18.7592 N   0  0  0  0  0  0  0  0  0  0  0  0
  -23.9858  -30.3090   25.3308 N   0  0  0  0  0  0  0  0  0  0  0  0
  -30.1596  -23.5360   18.1047 N   0  0  0  0  0  0  0  0  0  0  0  0
  -25.3881  -33.5159   24.1093 N   0  3  0  0  0  0  0  0  0  0  0  0
  -32.6260  -25.8363   16.8033 N   0  3  0  0  0  0  0  0  0  0  0  0
  -20.8839  -16.7960   26.9315 O   0  0  0  0  0  0  0  0  0  0  0  0
  -25.1826  -24.0487   20.2085 O   0  0  0  0  0  0  0  0  0  0  0  0
  -27.4397  -23.0039   17.3785 O   0  0  0  0  0  0  0  0  0  0  0  0
  -23.1088  -32.0248   24.0383 O   0  0  0  0  0  0  0  0  0  0  0  0
  -31.1682  -25.3390   19.1579 O   0  0  0  0  0  0  0  0  0  0  0  0
  -19.4564  -25.7412   23.9449 O   0  0  0  0  0  0  0  0  0  0  0  0
  -25.4506  -15.4402   20.7757 O   0  0  0  0  0  0  0  0  0  0  0  0
  -27.2184  -30.0214   22.1285 O   0  0  0  0  0  0  0  0  0  1  0  0
  -24.5773  -10.0139   20.3327 F   0  0  0  0  0  0  0  0  0  0  0  0
  -25.0916  -14.2587   18.3023 F   0  0  0  0  0  0  0  0  0  0  0  0
  -24.0738  -26.1287   24.0476 S   0  0  0  0  0  0  0  0  0  0  0  0
  1  2  1  0  0  0  0
  1  5  2  0  0  0  0
  2  6  2  0  0  0  0
  3  8  2  0  0  0  0
  3 15  1  0  0  0  0
  4  9  1  0  0  0  0
  4 15  2  0  0  0  0
  5 17  1  0  0  0  0
  6 19  1  0  0  0  0
  7 10  2  0  0  0  0
  7 18  1  0  0  0  0
  8 21  1  0  0  0  0
  9 21  2  0  0  0  0
 10 22  1  0  0  0  0
 11 12  2  0  0  0  0
 11 23  1  0  0  0  0
 12 24  1  0  0  0  0
 13 20  1  0  0  0  0
 13 22  2  0  0  0  0
 14 24  2  0  0  0  0
 14 25  1  0  0  0  0
 15 26  1  0  0  0  0
 16 26  1  0  0  0  0
 16 27  2  0  0  0  0
 16 30  1  0  0  0  0
 17 19  2  0  0  0  0
 17 36  1  0  0  0  0
 18 20  2  0  0  0  0
 18 37  1  0  0  0  0
 19 45  1  0  0  0  0
 20 38  1  0  0  0  0
 21 81  1  0  0  0  0
 22 82  1  0  0  0  0
 23 25  2  0  0  0  0
 23 81  1  0  0  0  0
 24 83  1  0  0  0  0
 25 84  1  0  0  0  0
 26 61  2  0  0  0  0
 27 64  1  0  0  0  0
 27 67  1  0  0  0  0
 28 54  1  0  0  0  0
 28 62  1  0  0  0  0
 28 63  2  0  0  0  0
 29 62  2  0  0  0  0
 29 69  1  0  0  0  0
 29 85  1  0  0  0  0
 30 68  1  0  0  0  0
 30 75  2  0  0  0  0
 31 46  1  0  0  0  0
 31 70  1  0  0  0  0
 31 76  2  0  0  0  0
 32 56  1  0  0  0  0
 32 65  1  0  0  0  0
 32 77  2  0  0  0  0
 33 57  1  0  0  0  0
 33 71  1  0  0  0  0
 33 78  2  0  0  0  0
 34 58  1  0  0  0  0
 34 72  1  0  0  0  0
 34 79  2  0  0  0  0
 35 66  1  0  0  0  0
 35 69  1  0  0  0  0
 35 80  2  0  0  0  0
 36 39  1  0  0  0  0
 37 46  1  0  0  0  0
 38 65  1  0  0  0  0
 39 41  1  0  0  0  0
 40 42  1  0  0  0  0
 40 43  1  0  0  0  0
 41 45  1  0  0  0  0
 42 47  1  0  0  0  0
 43 66  1  0  0  0  0
 44 47  1  0  0  0  0
 44 66  1  0  0  0  0
 45 70  1  0  0  0  0
 46 65  1  0  0  0  0
 47 64  1  0  0  0  0
 48 58  1  0  0  0  0
 49 59  1  0  0  0  0
 50 60  1  0  0  0  0
 51 60  1  0  0  0  0
 52 60  1  0  0  0  0
 53 74  1  0  0  0  0
 54 71  1  0  0  0  0
 55 59  1  0  0  0  0
 55 82  1  0  0  0  0
 56 60  1  0  0  0  0
 56 72  1  0  0  0  0
 57 59  1  0  0  0  0
 57 73  1  0  0  0  0
 58 74  1  0  0  0  0
 61 64  1  0  0  0  0
 63 85  1  0  0  0  0
M  CHG  2  73   1  74   1
M  ISO  4  35 100  55 101  69 100  82 101
M  END
> <Batch ID>
0191

> <Smiles>
CNC(C)C(=O)NC(C(=O)N1Cc2cc([101O:1][101CH2:1]C(C)C(N)C(=O)NCc3nsc([100NH:0][100C:0](=O)N4CCCC(n5nc(-c6ccc(Oc7ccc(F)cc7F)cc6)c(C(N)=O)c5N)C4)n3)ccc2CC1C(=O)NC1CCCc2ccccc21)C(C)(C)C

> <Shape>
0.179

> <Color>
0.091

> <Negative vol penalty>
0.000

$$$$

  -OEChem-04052305243D

 88 96  0     1  0  0  0  0  0999 V2000
  -28.8317  -35.7319   18.0065 C   0  0  0  0  0  0  0  0  0  0  0  0
  -28.5360  -34.4365   17.5941 C   0  0  0  0  0  0  0  0  0  0  0  0
  -23.6130  -10.0752   22.3938 C   0  0  0  0  0  0  0  0  0  0  0  0
  -23.9440  -11.5421   24.2848 C   0  0  0  0  0  0  0  0  0  0  0  0
  -28.9706  -36.0152   19.3646 C   0  0  0  0  0  0  0  0  0  0  0  0
  -28.3802  -33.4235   18.5396 C   0  0  0  0  0  0  0  0  0  0  0  0
  -24.5303  -28.6700   18.2416 C   0  0  0  0  0  0  0  0  0  0  0  0
  -22.9667   -9.1559   23.2201 C   0  0  0  0  0  0  0  0  0  0  0  0
  -23.2977  -10.6227   25.1111 C   0  0  0  0  0  0  0  0  0  0  0  0
  -24.7088  -27.3410   17.8601 C   0  0  0  0  0  0  0  0  0  0  0  0
  -23.8362   -6.7909   25.4729 C   0  0  0  0  0  0  0  0  0  0  0  0
  -24.1822   -5.4463   25.3402 C   0  0  0  0  0  0  0  0  0  0  0  0
  -25.0044  -26.7231   20.1731 C   0  0  0  0  0  0  0  0  0  0  0  0
  -21.8957   -4.9143   24.7688 C   0  0  0  0  0  0  0  0  0  0  0  0
  -24.1017  -11.2683   22.9262 C   0  0  0  0  0  0  0  0  0  0  0  0
  -24.1819  -13.2767   21.3554 C   0  0  0  0  0  0  0  0  0  0  0  0
  -28.8069  -35.0072   20.3277 C   0  0  0  0  0  0  0  0  0  0  0  0
  -24.5986  -29.0380   19.5930 C   0  0  0  0  0  0  0  0  0  0  0  0
  -28.5184  -33.6934   19.9117 C   0  0  0  0  0  0  0  0  0  0  0  0
  -24.8240  -28.0571   20.5693 C   0  0  0  0  0  0  0  0  0  0  0  0
  -22.8090   -9.4296   24.5787 C   0  0  0  0  0  0  0  0  0  0  0  0
  -24.9487  -26.3677   18.8257 C   0  0  0  0  0  0  0  0  0  0  0  0
  -22.5199   -7.1974   25.2537 C   0  0  0  0  0  0  0  0  0  0  0  0
  -23.2120   -4.5079   24.9881 C   0  0  0  0  0  0  0  0  0  0  0  0
  -21.5497   -6.2591   24.9017 C   0  0  0  0  0  0  0  0  0  0  0  0
  -24.7699  -12.2181   22.0733 C   0  0  0  0  0  0  0  0  0  0  0  0
  -30.7747  -20.1458   19.6712 C   0  0  0  0  0  0  0  0  0  0  0  0
  -29.5242  -20.6515   19.9585 C   0  0  0  0  0  0  0  0  0  0  0  0
  -25.2331  -13.8772   20.7066 C   0  0  0  0  0  0  0  0  0  0  0  0
  -29.8188  -18.2937   20.3539 C   0  0  0  0  0  0  0  0  0  0  0  0
  -22.8084  -13.6811   21.2815 C   0  0  0  0  0  0  0  0  0  0  0  0
  -26.4746  -30.9487   21.3056 C   0  0  0  0  0  0  0  0  0  0  0  0
  -27.5669  -23.4491   18.1888 C   0  0  0  0  0  0  0  0  0  0  0  0
  -24.3715  -30.2458   23.6731 C   0  0  0  0  0  0  0  0  0  0  0  0
  -22.0483  -28.0900   24.9389 C   0  0  0  0  0  0  0  0  0  0  0  0
  -30.4322  -15.8700   20.6632 C   0  0  0  0  0  0  0  0  0  0  0  0
  -29.0134  -35.3517   21.7814 C   0  0  0  0  0  0  0  0  0  0  0  0
  -24.3773  -30.4717   19.9904 C   0  0  0  0  0  0  0  0  0  0  0  0
  -24.8863  -28.3970   22.0353 C   0  0  0  0  0  0  0  0  0  0  0  0
  -28.4628  -34.2997   22.7408 C   0  0  0  0  0  0  0  0  0  0  0  0
  -30.0305  -12.3749   20.1155 C   0  0  0  0  0  0  0  0  0  0  0  0
  -28.8803  -32.9014   22.2966 C   0  0  0  0  0  0  0  0  0  0  0  0
  -28.5778  -12.1096   20.5170 C   0  0  0  0  0  0  0  0  0  0  0  0
  -30.6849  -13.4229   21.0139 C   0  0  0  0  0  0  0  0  0  0  0  0
  -28.4937  -14.4214   21.5346 C   0  0  0  0  0  0  0  0  0  0  0  0
  -28.3175  -32.5726   20.9085 C   0  0  1  0  0  0  0  0  0  0  0  0
  -24.9787  -30.8145   21.3499 C   0  0  1  0  0  0  0  0  0  0  0  0
  -27.7726  -13.4200   20.6176 C   0  0  2  0  0  0  0  0  0  0  0  0
  -31.9249  -20.9134   19.1520 C   0  0  0  0  0  0  0  0  0  0  0  0
  -20.5285  -27.7663   26.9093 C   0  0  0  0  0  0  0  0  0  0  0  0
  -30.5504  -22.3887   22.6852 C   0  0  0  0  0  0  0  0  0  0  0  0
  -30.2541  -24.5116   21.3870 C   0  0  0  0  0  0  0  0  0  0  0  0
  -28.7375  -23.9783   23.2973 C   0  0  0  0  0  0  0  0  0  0  0  0
  -26.7603  -29.4028   25.3740 C   0  0  0  0  0  0  0  0  0  0  0  0
  -25.1661  -28.2296   26.9070 C   0  0  0  0  0  0  0  0  0  0  0  0
  -25.0109  -30.7006   26.6027 C   0  0  0  0  0  0  0  0  0  0  0  0
  -19.6322  -28.1378   23.2304 C   0  0  0  0  0  0  0  0  0  0  0  0
  -26.4304  -23.4997   17.1764 C   0  0  0  0  0  0  0  0  0  0  0  0
  -27.8555  -22.0737   18.7804 C   0  0  0  0  0  0  0  0  0  0  0  0
  -28.4842  -22.6758   21.1746 C   0  0  0  0  0  0  0  0  0  0  0  0
  -25.6949  -24.8309   17.1711 C   0  0  0  0  0  0  0  0  0  1  0  0
  -28.9883  -22.0695   19.8345 C   0  0  1  0  0  0  0  0  0  0  0  0
  -24.2708  -29.1722   24.7297 C   0  0  1  0  0  0  0  0  0  0  0  0
  -20.6575  -28.3239   25.5004 C   0  0  2  0  0  0  0  0  0  0  0  0
  -29.5189  -23.3713   22.1104 C   0  0  0  0  0  0  0  0  0  0  0  0
  -25.3028  -29.3699   25.8757 C   0  0  0  0  0  0  0  0  0  0  0  0
  -26.0921  -12.1475   21.8973 N   0  0  0  0  0  0  0  0  0  0  0  0
  -30.9456  -18.7940   19.8977 N   0  0  0  0  0  0  0  0  0  0  0  0
  -26.3436  -13.1692   21.0613 N   0  0  0  0  0  0  0  0  0  0  0  0
  -24.6700  -29.8136   22.3731 N   0  0  0  0  0  0  0  0  0  0  0  0
  -29.8686  -14.6381   21.0576 N   0  0  0  0  0  0  0  0  0  0  0  0
  -25.3067  -14.9365   19.8730 N   0  0  0  0  0  0  0  0  0  0  0  0
  -21.8577  -12.9541   22.0109 N   0  0  0  0  0  0  0  0  0  0  0  0
  -29.5516  -16.9500   20.7155 N   0  0  0  0  0  0  0  0  0  0  0  0
  -26.9164  -32.2222   21.0012 N   0  0  0  0  0  0  0  0  0  0  0  0
  -22.8807  -29.1642   25.1723 N   0  0  0  0  0  0  0  0  0  0  0  0
  -19.6340  -27.6667   24.6393 N   0  3  0  0  0  0  0  0  0  0  0  0
  -22.4328  -14.6481   20.5763 O   0  0  0  0  0  0  0  0  0  0  0  0
  -27.1761  -29.9698   21.5323 O   0  0  0  0  0  0  0  0  0  0  0  0
  -28.2283  -24.4432   18.4837 O   0  0  0  0  0  0  0  0  0  0  0  0
  -24.1850  -31.4237   23.9882 O   0  0  0  0  0  0  0  0  0  0  0  0
  -22.3658  -27.0561   24.3551 O   0  0  0  0  0  0  0  0  0  0  0  0
  -31.6016  -15.9554   20.2794 O   0  0  0  0  0  0  0  0  0  0  0  0
  -22.1782   -8.5329   25.3852 O   0  0  0  0  0  0  0  0  0  0  0  0
  -25.1252  -25.0607   18.4534 O   0  0  0  0  0  0  0  0  0  1  0  0
  -23.5447   -3.2169   24.8591 F   0  0  0  0  0  0  0  0  0  0  0  0
  -20.2838   -6.6437   24.6886 F   0  0  0  0  0  0  0  0  0  0  0  0
  -28.5127  -19.3920   20.5345 S   0  0  0  0  0  0  0  0  0  0  0  0
  1  2  1  0  0  0  0
  1  5  2  0  0  0  0
  2  6  2  0  0  0  0
  3  8  2  0  0  0  0
  3 15  1  0  0  0  0
  4  9  1  0  0  0  0
  4 15  2  0  0  0  0
  5 17  1  0  0  0  0
  6 19  1  0  0  0  0
  7 10  2  0  0  0  0
  7 18  1  0  0  0  0
  8 21  1  0  0  0  0
  9 21  2  0  0  0  0
 10 22  1  0  0  0  0
 11 12  2  0  0  0  0
 11 23  1  0  0  0  0
 12 24  1  0  0  0  0
 13 20  1  0  0  0  0
 13 22  2  0  0  0  0
 14 24  2  0  0  0  0
 14 25  1  0  0  0  0
 15 26  1  0  0  0  0
 16 26  1  0  0  0  0
 16 29  2  0  0  0  0
 16 31  1  0  0  0  0
 17 19  2  0  0  0  0
 17 37  1  0  0  0  0
 18 20  2  0  0  0  0
 18 38  1  0  0  0  0
 19 46  1  0  0  0  0
 20 39  1  0  0  0  0
 21 84  1  0  0  0  0
 22 85  1  0  0  0  0
 23 25  2  0  0  0  0
 23 84  1  0  0  0  0
 24 86  1  0  0  0  0
 25 87  1  0  0  0  0
 26 67  2  0  0  0  0
 27 28  2  0  0  0  0
 27 49  1  0  0  0  0
 27 68  1  0  0  0  0
 28 62  1  0  0  0  0
 28 88  1  0  0  0  0
 29 69  1  0  0  0  0
 29 72  1  0  0  0  0
 30 68  2  0  0  0  0
 30 74  1  0  0  0  0
 30 88  1  0  0  0  0
 31 73  1  0  0  0  0
 31 78  2  0  0  0  0
 32 47  1  0  0  0  0
 32 75  1  0  0  0  0
 32 79  2  0  0  0  0
 33 58  1  0  0  0  0
 33 59  1  0  0  0  0
 33 80  2  0  0  0  0
 34 63  1  0  0  0  0
 34 70  1  0  0  0  0
 34 81  2  0  0  0  0
 35 64  1  0  0  0  0
 35 76  1  0  0  0  0
 35 82  2  0  0  0  0
 36 71  1  0  0  0  0
 36 74  1  0  0  0  0
 36 83  2  0  0  0  0
 37 40  1  0  0  0  0
 38 47  1  0  0  0  0
 39 70  1  0  0  0  0
 40 42  1  0  0  0  0
 41 43  1  0  0  0  0
 41 44  1  0  0  0  0
 42 46  1  0  0  0  0
 43 48  1  0  0  0  0
 44 71  1  0  0  0  0
 45 48  1  0  0  0  0
 45 71  1  0  0  0  0
 46 75  1  0  0  0  0
 47 70  1  0  0  0  0
 48 69  1  0  0  0  0
 50 64  1  0  0  0  0
 51 65  1  0  0  0  0
 52 65  1  0  0  0  0
 53 65  1  0  0  0  0
 54 66  1  0  0  0  0
 55 66  1  0  0  0  0
 56 66  1  0  0  0  0
 57 77  1  0  0  0  0
 58 61  1  0  0  0  0
 59 62  1  0  0  0  0
 60 62  1  0  0  0  0
 60 65  1  0  0  0  0
 61 85  1  0  0  0  0
 63 66  1  0  0  0  0
 63 76  1  0  0  0  0
 64 77  1  0  0  0  0
 67 69  1  0  0  0  0
M  CHG  1  77   1
M  ISO  4  36 100  61 101  74 100  85 101
M  END
> <Batch ID>
0191

> <Smiles>
CNC(C)C(=O)NC(C(=O)N1Cc2cc([101O:1][101CH2:1]CC(=O)CC(CC(C)(C)C)c3sc([100NH:0][100C:0](=O)N4CCCC(n5nc(-c6ccc(Oc7ccc(F)cc7F)cc6)c(C(N)=O)c5N)C4)nc3C)ccc2CC1C(=O)NC1CCCc2ccccc21)C(C)(C)C

> <Shape>
0.262

> <Color>
0.109

> <Negative vol penalty>
0.000

$$$$

  -OEChem-04052305243D

 87 95  0     1  0  0  0  0  0999 V2000
  -42.9152  -22.7554   19.7047 C   0  0  0  0  0  0  0  0  0  0  0  0
  -41.7409  -22.1112   20.0810 C   0  0  0  0  0  0  0  0  0  0  0  0
  -23.4448   -9.6852   20.2178 C   0  0  0  0  0  0  0  0  0  0  0  0
  -23.8274  -10.0735   22.5715 C   0  0  0  0  0  0  0  0  0  0  0  0
  -42.9924  -24.1466   19.7544 C   0  0  0  0  0  0  0  0  0  0  0  0
  -40.6436  -22.8579   20.5084 C   0  0  0  0  0  0  0  0  0  0  0  0
  -36.2952  -21.2706   18.4547 C   0  0  0  0  0  0  0  0  0  0  0  0
  -22.7625   -8.5075   20.5229 C   0  0  0  0  0  0  0  0  0  0  0  0
  -23.1450   -8.8958   22.8767 C   0  0  0  0  0  0  0  0  0  0  0  0
  -35.7166  -20.1236   18.9963 C   0  0  0  0  0  0  0  0  0  0  0  0
  -19.9340   -7.8686   23.1105 C   0  0  0  0  0  0  0  0  0  0  0  0
  -19.0058   -7.9102   24.1509 C   0  0  0  0  0  0  0  0  0  0  0  0
  -34.1890  -21.4982   20.2598 C   0  0  0  0  0  0  0  0  0  0  0  0
  -20.2610   -6.2214   25.3381 C   0  0  0  0  0  0  0  0  0  0  0  0
  -31.9113  -14.3759   26.2636 C   0  0  0  0  0  0  0  0  0  0  0  0
  -23.9773  -10.4682   21.2421 C   0  0  0  0  0  0  0  0  0  0  0  0
  -24.1367  -12.9761   20.8033 C   0  0  0  0  0  0  0  0  0  0  0  0
  -41.8922  -24.9112   20.1734 C   0  0  0  0  0  0  0  0  0  0  0  0
  -35.8315  -22.5424   18.8205 C   0  0  0  0  0  0  0  0  0  0  0  0
  -40.7066  -24.2606   20.5650 C   0  0  0  0  0  0  0  0  0  0  0  0
  -34.7618  -22.6597   19.7194 C   0  0  0  0  0  0  0  0  0  0  0  0
  -22.6126   -8.1128   21.8524 C   0  0  0  0  0  0  0  0  0  0  0  0
  -34.6652  -20.2373   19.9012 C   0  0  0  0  0  0  0  0  0  0  0  0
  -21.0256   -7.0034   23.1839 C   0  0  0  0  0  0  0  0  0  0  0  0
  -19.1693   -7.0866   25.2647 C   0  0  0  0  0  0  0  0  0  0  0  0
  -21.1891   -6.1798   24.2977 C   0  0  0  0  0  0  0  0  0  0  0  0
  -24.6828  -11.6845   20.9274 C   0  0  0  0  0  0  0  0  0  0  0  0
  -32.9148  -14.5606   25.3358 C   0  0  0  0  0  0  0  0  0  0  0  0
  -25.2112  -13.7752   20.4977 C   0  0  0  0  0  0  0  0  0  0  0  0
  -31.3557  -13.8079   23.9896 C   0  0  0  0  0  0  0  0  0  0  0  0
  -22.7796  -13.4143   20.9511 C   0  0  0  0  0  0  0  0  0  0  0  0
  -37.1137  -25.0683   20.2625 C   0  0  0  0  0  0  0  0  0  0  0  0
  -34.2745  -26.4477   19.5150 C   0  0  0  0  0  0  0  0  0  0  0  0
  -30.9667  -26.0512   18.7748 C   0  0  0  0  0  0  0  0  0  0  0  0
  -31.0764  -13.3027   21.5374 C   0  0  0  0  0  0  0  0  0  0  0  0
  -42.0389  -26.4100   20.2556 C   0  0  0  0  0  0  0  0  0  0  0  0
  -36.4488  -23.7692   18.2068 C   0  0  0  0  0  0  0  0  0  0  0  0
  -34.2137  -24.0014   20.1291 C   0  0  0  0  0  0  0  0  0  0  0  0
  -40.7066  -27.1474   20.3631 C   0  0  0  0  0  0  0  0  0  0  0  0
  -29.4962  -13.6341   18.3640 C   0  0  0  0  0  0  0  0  0  0  0  0
  -39.8113  -26.4831   21.4042 C   0  0  0  0  0  0  0  0  0  0  0  0
  -28.0317  -13.2952   18.6511 C   0  0  0  0  0  0  0  0  0  0  0  0
  -30.4500  -12.7742   19.1914 C   0  0  0  0  0  0  0  0  0  0  0  0
  -28.7313  -12.4421   20.9249 C   0  0  0  0  0  0  0  0  0  0  0  0
  -39.4865  -25.0371   21.0106 C   0  0  1  0  0  0  0  0  0  0  0  0
  -36.2364  -25.0271   19.0434 C   0  0  1  0  0  0  0  0  0  0  0  0
  -27.7317  -13.3273   20.1626 C   0  0  2  0  0  0  0  0  0  0  0  0
  -28.8944  -27.3654   18.2495 C   0  0  0  0  0  0  0  0  0  0  0  0
  -33.9049  -18.0047   25.5433 C   0  0  0  0  0  0  0  0  0  0  0  0
  -34.9291  -13.1989   27.2413 C   0  0  0  0  0  0  0  0  0  0  0  0
  -35.4886  -12.9581   24.8312 C   0  0  0  0  0  0  0  0  0  0  0  0
  -36.7839  -14.5471   26.2607 C   0  0  0  0  0  0  0  0  0  0  0  0
  -34.0033  -27.1931   22.4614 C   0  0  0  0  0  0  0  0  0  0  0  0
  -31.5711  -27.6269   22.0558 C   0  0  0  0  0  0  0  0  0  0  0  0
  -33.2936  -28.9811   20.8633 C   0  0  0  0  0  0  0  0  0  0  0  0
  -30.7020  -24.7898   16.1106 C   0  0  0  0  0  0  0  0  0  0  0  0
  -34.4684  -17.1416   21.7728 C   0  0  0  0  0  0  0  0  0  0  0  0
  -34.4836  -17.9395   23.0833 C   0  0  0  0  0  0  0  0  0  0  0  0
  -34.9397  -17.9768   20.5872 C   0  0  0  0  0  0  0  0  0  1  0  0
  -34.3151  -15.0839   25.6317 C   0  0  1  0  0  0  0  0  0  0  0  0
  -32.9328  -26.5693   20.1962 C   0  0  1  0  0  0  0  0  0  0  0  0
  -30.1027  -26.6422   17.6753 C   0  0  2  0  0  0  0  0  0  0  0  0
  -33.9416  -17.1521   24.2818 C   0  0  1  0  0  0  0  0  0  0  0  0
  -35.3769  -13.9819   25.9837 C   0  0  0  0  0  0  0  0  0  0  0  0
  -32.9616  -27.5672   21.3882 C   0  0  0  0  0  0  0  0  0  0  0  0
  -26.0016  -11.6599   20.7177 N   0  0  0  0  0  0  0  0  0  0  0  0
  -32.5982  -14.2350   24.0313 N   0  0  0  0  0  0  0  0  0  0  0  0
  -26.2933  -12.9459   20.4585 N   0  0  0  0  0  0  0  0  0  0  0  0
  -34.8548  -25.1713   19.5065 N   0  0  0  0  0  0  0  0  0  0  0  0
  -30.1080  -12.8572   20.6130 N   0  0  0  0  0  0  0  0  0  0  0  0
  -25.3265  -15.0993   20.2613 N   0  0  0  0  0  0  0  0  0  0  0  0
  -21.8006  -12.4622   21.2665 N   0  0  0  0  0  0  0  0  0  0  0  0
  -30.6267  -13.3714   22.8556 N   0  0  0  0  0  0  0  0  0  0  0  0
  -38.4660  -25.0096   19.9848 N   0  0  0  0  0  0  0  0  0  0  0  0
  -31.9744  -26.9137   19.1516 N   0  0  0  0  0  0  0  0  0  0  0  0
  -29.6178  -25.5676   16.7636 N   0  3  0  0  0  0  0  0  0  0  0  0
  -34.8121  -15.9735   24.5502 N   0  3  0  0  0  0  0  0  0  0  0  0
  -22.4424  -14.6120   20.7916 O   0  0  0  0  0  0  0  0  0  0  0  0
  -36.6016  -25.1491   21.3729 O   0  0  0  0  0  0  0  0  0  0  0  0
  -34.7855  -27.4468   19.0029 O   0  0  0  0  0  0  0  0  0  0  0  0
  -30.7654  -24.9376   19.2542 O   0  0  0  0  0  0  0  0  0  0  0  0
  -32.2122  -13.6272   21.1815 O   0  0  0  0  0  0  0  0  0  0  0  0
  -21.9466   -6.9638   22.1505 O   0  0  0  0  0  0  0  0  0  0  0  0
  -34.0991  -19.1194   20.4319 O   0  0  0  0  0  0  0  0  0  1  0  0
  -18.2788   -7.1278   26.2644 F   0  0  0  0  0  0  0  0  0  0  0  0
  -22.2365   -5.3473   24.3744 F   0  0  0  0  0  0  0  0  0  0  0  0
  -30.5091  -13.7722   25.4819 S   0  0  0  0  0  0  0  0  0  0  0  0
  1  2  1  0  0  0  0
  1  5  2  0  0  0  0
  2  6  2  0  0  0  0
  3  8  2  0  0  0  0
  3 16  1  0  0  0  0
  4  9  1  0  0  0  0
  4 16  2  0  0  0  0
  5 18  1  0  0  0  0
  6 20  1  0  0  0  0
  7 10  2  0  0  0  0
  7 19  1  0  0  0  0
  8 22  1  0  0  0  0
  9 22  2  0  0  0  0
 10 23  1  0  0  0  0
 11 12  2  0  0  0  0
 11 24  1  0  0  0  0
 12 25  1  0  0  0  0
 13 21  1  0  0  0  0
 13 23  2  0  0  0  0
 14 25  2  0  0  0  0
 14 26  1  0  0  0  0
 15 28  2  0  0  0  0
 15 87  1  0  0  0  0
 16 27  1  0  0  0  0
 17 27  1  0  0  0  0
 17 29  2  0  0  0  0
 17 31  1  0  0  0  0
 18 20  2  0  0  0  0
 18 36  1  0  0  0  0
 19 21  2  0  0  0  0
 19 37  1  0  0  0  0
 20 45  1  0  0  0  0
 21 38  1  0  0  0  0
 22 83  1  0  0  0  0
 23 84  1  0  0  0  0
 24 26  2  0  0  0  0
 24 83  1  0  0  0  0
 25 85  1  0  0  0  0
 26 86  1  0  0  0  0
 27 66  2  0  0  0  0
 28 60  1  0  0  0  0
 28 67  1  0  0  0  0
 29 68  1  0  0  0  0
 29 71  1  0  0  0  0
 30 67  2  0  0  0  0
 30 73  1  0  0  0  0
 30 87  1  0  0  0  0
 31 72  1  0  0  0  0
 31 78  2  0  0  0  0
 32 46  1  0  0  0  0
 32 74  1  0  0  0  0
 32 79  2  0  0  0  0
 33 61  1  0  0  0  0
 33 69  1  0  0  0  0
 33 80  2  0  0  0  0
 34 62  1  0  0  0  0
 34 75  1  0  0  0  0
 34 81  2  0  0  0  0
 35 70  1  0  0  0  0
 35 73  1  0  0  0  0
 35 82  2  0  0  0  0
 36 39  1  0  0  0  0
 37 46  1  0  0  0  0
 38 69  1  0  0  0  0
 39 41  1  0  0  0  0
 40 42  1  0  0  0  0
 40 43  1  0  0  0  0
 41 45  1  0  0  0  0
 42 47  1  0  0  0  0
 43 70  1  0  0  0  0
 44 47  1  0  0  0  0
 44 70  1  0  0  0  0
 45 74  1  0  0  0  0
 46 69  1  0  0  0  0
 47 68  1  0  0  0  0
 48 62  1  0  0  0  0
 49 63  1  0  0  0  0
 50 64  1  0  0  0  0
 51 64  1  0  0  0  0
 52 64  1  0  0  0  0
 53 65  1  0  0  0  0
 54 65  1  0  0  0  0
 55 65  1  0  0  0  0
 56 76  1  0  0  0  0
 57 58  1  0  0  0  0
 57 59  1  0  0  0  0
 58 63  1  0  0  0  0
 59 84  1  0  0  0  0
 60 64  1  0  0  0  0
 60 77  1  0  0  0  0
 61 65  1  0  0  0  0
 61 75  1  0  0  0  0
 62 76  1  0  0  0  0
 63 77  1  0  0  0  0
 66 68  1  0  0  0  0
M  CHG  2  76   1  77   1
M  ISO  4  35 100  59 101  73 100  84 101
M  END
> <Batch ID>
0191

> <Smiles>
CNC(C)C(=O)NC(C(=O)N1Cc2cc([101O:1][101CH2:1]CCC(C)NC(c3csc([100NH:0][100C:0](=O)N4CCCC(n5nc(-c6ccc(Oc7ccc(F)cc7F)cc6)c(C(N)=O)c5N)C4)n3)C(C)(C)C)ccc2CC1C(=O)NC1CCCc2ccccc21)C(C)(C)C

> <Shape>
0.164

> <Color>
0.175

> <Negative vol penalty>
0.000

$$$$

  -OEChem-04052305243D

 85 93  0     1  0  0  0  0  0999 V2000
  -32.0732  -16.6776   21.2996 C   0  0  0  0  0  0  0  0  0  0  0  0
  -30.9608  -17.4732   21.0450 C   0  0  0  0  0  0  0  0  0  0  0  0
  -29.0470  -25.2597   19.4498 C   0  0  0  0  0  0  0  0  0  0  0  0
  -27.5431  -24.1371   20.9714 C   0  0  0  0  0  0  0  0  0  0  0  0
  -31.9624  -15.2888   21.2466 C   0  0  0  0  0  0  0  0  0  0  0  0
  -29.7370  -16.8805   20.7361 C   0  0  0  0  0  0  0  0  0  0  0  0
  -25.8689  -18.9997   23.2244 C   0  0  0  0  0  0  0  0  0  0  0  0
  -30.0762  -24.3996   19.8323 C   0  0  0  0  0  0  0  0  0  0  0  0
  -28.5724  -23.2769   21.3540 C   0  0  0  0  0  0  0  0  0  0  0  0
  -25.3924  -20.2178   22.7420 C   0  0  0  0  0  0  0  0  0  0  0  0
  -33.0044  -22.2679   20.1434 C   0  0  0  0  0  0  0  0  0  0  0  0
  -33.7995  -21.7201   19.1368 C   0  0  0  0  0  0  0  0  0  0  0  0
  -18.2358  -28.4689   22.5020 C   0  0  0  0  0  0  0  0  0  0  0  0
  -23.5760  -19.0673   21.6482 C   0  0  0  0  0  0  0  0  0  0  0  0
  -31.8483  -20.6830   18.1598 C   0  0  0  0  0  0  0  0  0  0  0  0
  -17.6012  -27.2468   22.4120 C   0  0  0  0  0  0  0  0  0  0  0  0
  -27.7804  -25.1286   20.0193 C   0  0  0  0  0  0  0  0  0  0  0  0
  -25.7965  -25.8287   18.5766 C   0  0  0  0  0  0  0  0  0  0  0  0
  -30.7343  -14.6785   20.9465 C   0  0  0  0  0  0  0  0  0  0  0  0
  -25.2076  -17.8030   22.9128 C   0  0  0  0  0  0  0  0  0  0  0  0
  -29.6099  -15.4822   20.6778 C   0  0  0  0  0  0  0  0  0  0  0  0
  -24.0447  -17.8355   22.1300 C   0  0  0  0  0  0  0  0  0  0  0  0
  -29.8389  -23.4082   20.7844 C   0  0  0  0  0  0  0  0  0  0  0  0
  -24.2474  -20.2515   21.9514 C   0  0  0  0  0  0  0  0  0  0  0  0
  -31.6312  -22.0233   20.1582 C   0  0  0  0  0  0  0  0  0  0  0  0
  -33.2215  -20.9276   18.1450 C   0  0  0  0  0  0  0  0  0  0  0  0
  -31.0532  -21.2308   19.1665 C   0  0  0  0  0  0  0  0  0  0  0  0
  -26.7169  -26.0171   19.6250 C   0  0  0  0  0  0  0  0  0  0  0  0
  -19.5907  -28.4206   22.7592 C   0  0  0  0  0  0  0  0  0  0  0  0
  -24.9992  -26.9465   18.6146 C   0  0  0  0  0  0  0  0  0  0  0  0
  -19.5516  -26.1483   22.8073 C   0  0  0  0  0  0  0  0  0  0  0  0
  -25.6731  -24.7406   17.6512 C   0  0  0  0  0  0  0  0  0  0  0  0
  -25.9928  -15.1466   21.3538 C   0  0  0  0  0  0  0  0  0  0  0  0
  -23.0902  -14.1414   22.3961 C   0  0  0  0  0  0  0  0  0  0  0  0
  -19.9568  -14.9580   23.4740 C   0  0  0  0  0  0  0  0  0  0  0  0
  -22.6204  -30.6125   22.4115 C   0  0  0  0  0  0  0  0  0  0  0  0
  -30.6746  -13.1743   20.8544 C   0  0  0  0  0  0  0  0  0  0  0  0
  -25.7192  -16.5000   23.4631 C   0  0  0  0  0  0  0  0  0  0  0  0
  -23.2866  -16.5810   21.7837 C   0  0  0  0  0  0  0  0  0  0  0  0
  -29.2534  -12.6180   20.8880 C   0  0  0  0  0  0  0  0  0  0  0  0
  -25.4728  -31.5023   20.4754 C   0  0  0  0  0  0  0  0  0  0  0  0
  -28.3500  -13.4041   19.9431 C   0  0  0  0  0  0  0  0  0  0  0  0
  -25.9989  -30.1611   19.9613 C   0  0  0  0  0  0  0  0  0  0  0  0
  -24.9163  -31.3845   21.8926 C   0  0  0  0  0  0  0  0  0  0  0  0
  -24.4222  -28.9933   21.5579 C   0  0  0  0  0  0  0  0  0  0  0  0
  -28.2594  -14.8760   20.3636 C   0  0  1  0  0  0  0  0  0  0  0  0
  -25.2590  -15.2892   22.6572 C   0  0  1  0  0  0  0  0  0  0  0  0
  -24.9426  -29.0497   20.1114 C   0  0  2  0  0  0  0  0  0  0  0  0
  -17.7958  -13.9198   24.2155 C   0  0  0  0  0  0  0  0  0  0  0  0
  -22.6486  -23.9040   20.4197 C   0  0  0  0  0  0  0  0  0  0  0  0
  -21.8863  -25.1867   24.7066 C   0  0  0  0  0  0  0  0  0  0  0  0
  -22.4212  -13.4683   19.4962 C   0  0  0  0  0  0  0  0  0  0  0  0
  -20.0081  -13.3510   20.1531 C   0  0  0  0  0  0  0  0  0  0  0  0
  -21.6526  -11.7716   21.1649 C   0  0  0  0  0  0  0  0  0  0  0  0
  -20.1357  -16.2155   26.1471 C   0  0  0  0  0  0  0  0  0  0  0  0
  -20.3626  -29.6919   22.8742 C   0  0  0  0  0  0  0  0  0  0  0  0
  -22.1726  -23.4629   22.8900 C   0  0  0  0  0  0  0  0  0  0  0  0
  -22.3726  -21.5479   21.2728 C   0  0  0  0  0  0  0  0  0  1  0  0
  -21.6810  -14.2028   21.8581 C   0  0  1  0  0  0  0  0  0  0  0  0
  -19.1410  -14.4734   24.6590 C   0  0  2  0  0  0  0  0  0  0  0  0
  -21.9283  -23.0093   21.4344 C   0  0  2  0  0  0  0  0  0  0  0  0
  -21.6496  -24.8665   23.2330 C   0  0  1  0  0  0  0  0  0  0  0  0
  -21.4559  -13.2220   20.6728 C   0  0  0  0  0  0  0  0  0  0  0  0
  -18.2307  -26.0627   22.5599 N   0  0  0  0  0  0  0  0  0  0  0  0
  -26.5235  -27.1644   20.2810 N   0  0  0  0  0  0  0  0  0  0  0  0
  -20.2831  -27.2736   22.9182 N   0  0  0  0  0  0  0  0  0  0  0  0
  -25.4724  -27.7070   19.6432 N   0  0  0  0  0  0  0  0  0  0  0  0
  -23.8300  -15.3311   22.3403 N   0  0  0  0  0  0  0  0  0  0  0  0
  -23.9189  -30.3141   21.9666 N   0  0  0  0  0  0  0  0  0  0  0  0
  -23.9466  -27.3432   17.8682 N   0  0  0  0  0  0  0  0  0  0  0  0
  -26.5744  -23.6720   17.7524 N   0  0  0  0  0  0  0  0  0  0  0  0
  -20.2297  -24.9525   22.9645 N   0  0  0  0  0  0  0  0  0  0  0  0
  -27.3627  -15.0257   21.4897 N   0  0  0  0  0  0  0  0  0  0  0  0
  -20.7988  -13.9755   22.9976 N   0  0  0  0  0  0  0  0  0  0  0  0
  -21.7354  -29.5418   22.4455 N   0  0  0  0  0  0  0  0  0  0  0  0
  -18.8975  -15.5925   25.6126 N   0  3  0  0  0  0  0  0  0  0  0  0
  -24.8002  -24.7242   16.7505 O   0  0  0  0  0  0  0  0  0  0  0  0
  -25.3628  -15.1448   20.3027 O   0  0  0  0  0  0  0  0  0  0  0  0
  -23.5162  -13.0789   22.8557 O   0  0  0  0  0  0  0  0  0  0  0  0
  -19.8544  -16.0933   23.0145 O   0  0  0  0  0  0  0  0  0  0  0  0
  -22.2739  -31.7498   22.7481 O   0  0  0  0  0  0  0  0  0  0  0  0
  -30.8430  -22.5685   21.1578 O   0  0  0  0  0  0  0  0  0  0  0  0
  -23.7805  -21.4391   21.4786 O   0  0  0  0  0  0  0  0  0  1  0  0
  -33.9850  -20.4029   17.1776 F   0  0  0  0  0  0  0  0  0  0  0  0
  -29.7344  -20.9933   19.1748 F   0  0  0  0  0  0  0  0  0  0  0  0
  1  2  1  0  0  0  0
  1  5  2  0  0  0  0
  2  6  2  0  0  0  0
  3  8  2  0  0  0  0
  3 17  1  0  0  0  0
  4  9  1  0  0  0  0
  4 17  2  0  0  0  0
  5 19  1  0  0  0  0
  6 21  1  0  0  0  0
  7 10  2  0  0  0  0
  7 20  1  0  0  0  0
  8 23  1  0  0  0  0
  9 23  2  0  0  0  0
 10 24  1  0  0  0  0
 11 12  2  0  0  0  0
 11 25  1  0  0  0  0
 12 26  1  0  0  0  0
 13 16  1  0  0  0  0
 13 29  2  0  0  0  0
 14 22  1  0  0  0  0
 14 24  2  0  0  0  0
 15 26  2  0  0  0  0
 15 27  1  0  0  0  0
 16 64  2  0  0  0  0
 17 28  1  0  0  0  0
 18 28  1  0  0  0  0
 18 30  2  0  0  0  0
 18 32  1  0  0  0  0
 19 21  2  0  0  0  0
 19 37  1  0  0  0  0
 20 22  2  0  0  0  0
 20 38  1  0  0  0  0
 21 46  1  0  0  0  0
 22 39  1  0  0  0  0
 23 82  1  0  0  0  0
 24 83  1  0  0  0  0
 25 27  2  0  0  0  0
 25 82  1  0  0  0  0
 26 84  1  0  0  0  0
 27 85  1  0  0  0  0
 28 65  2  0  0  0  0
 29 56  1  0  0  0  0
 29 66  1  0  0  0  0
 30 67  1  0  0  0  0
 30 70  1  0  0  0  0
 31 64  1  0  0  0  0
 31 66  2  0  0  0  0
 31 72  1  0  0  0  0
 32 71  1  0  0  0  0
 32 77  2  0  0  0  0
 33 47  1  0  0  0  0
 33 73  1  0  0  0  0
 33 78  2  0  0  0  0
 34 59  1  0  0  0  0
 34 68  1  0  0  0  0
 34 79  2  0  0  0  0
 35 60  1  0  0  0  0
 35 74  1  0  0  0  0
 35 80  2  0  0  0  0
 36 69  1  0  0  0  0
 36 75  1  0  0  0  0
 36 81  2  0  0  0  0
 37 40  1  0  0  0  0
 38 47  1  0  0  0  0
 39 68  1  0  0  0  0
 40 42  1  0  0  0  0
 41 43  1  0  0  0  0
 41 44  1  0  0  0  0
 42 46  1  0  0  0  0
 43 48  1  0  0  0  0
 44 69  1  0  0  0  0
 45 48  1  0  0  0  0
 45 69  1  0  0  0  0
 46 73  1  0  0  0  0
 47 68  1  0  0  0  0
 48 67  1  0  0  0  0
 49 60  1  0  0  0  0
 50 61  1  0  0  0  0
 51 62  1  0  0  0  0
 52 63  1  0  0  0  0
 53 63  1  0  0  0  0
 54 63  1  0  0  0  0
 55 76  1  0  0  0  0
 56 75  1  0  0  0  0
 57 61  1  0  0  0  0
 57 62  1  0  0  0  0
 58 61  1  0  0  0  0
 58 83  1  0  0  0  0
 59 63  1  0  0  0  0
 59 74  1  0  0  0  0
 60 76  1  0  0  0  0
 62 72  1  0  0  0  0
 65 67  1  0  0  0  0
M  CHG  1  76   1
M  ISO  4  36 100  58 101  75 100  83 101
M  END
> <Batch ID>
0191

> <Smiles>
CNC(C)C(=O)NC(C(=O)N1Cc2cc([101O:1][101CH2:1]C(C)CC(C)Nc3nccc(C[100NH:0][100C:0](=O)N4CCCC(n5nc(-c6ccc(Oc7ccc(F)cc7F)cc6)c(C(N)=O)c5N)C4)n3)ccc2CC1C(=O)NC1CCCc2ccccc21)C(C)(C)C

> <Shape>
0.230

> <Color>
0.069

> <Negative vol penalty>
0.000

$$$$

  -OEChem-04052305243D

 83 91  0     1  0  0  0  0  0999 V2000
  -29.6834  -27.4204   21.4853 C   0  0  0  0  0  0  0  0  0  0  0  0
  -28.4174  -26.9499   21.8192 C   0  0  0  0  0  0  0  0  0  0  0  0
  -24.7987  -28.6970   21.6989 C   0  0  0  0  0  0  0  0  0  0  0  0
  -23.7945  -30.0469   19.9649 C   0  0  0  0  0  0  0  0  0  0  0  0
  -30.4086  -26.8038   20.4666 C   0  0  0  0  0  0  0  0  0  0  0  0
  -27.8756  -25.8631   21.1338 C   0  0  0  0  0  0  0  0  0  0  0  0
  -24.2427  -21.5013   23.4322 C   0  0  0  0  0  0  0  0  0  0  0  0
  -25.5977  -29.7762   22.0763 C   0  0  0  0  0  0  0  0  0  0  0  0
  -24.5935  -31.1261   20.3424 C   0  0  0  0  0  0  0  0  0  0  0  0
  -22.8601  -21.3237   23.4091 C   0  0  0  0  0  0  0  0  0  0  0  0
  -25.2545  -32.6235   23.8674 C   0  0  0  0  0  0  0  0  0  0  0  0
  -25.3702  -32.8992   25.2298 C   0  0  0  0  0  0  0  0  0  0  0  0
  -23.0843  -19.8737   21.4944 C   0  0  0  0  0  0  0  0  0  0  0  0
  -27.7587  -32.5619   25.0953 C   0  0  0  0  0  0  0  0  0  0  0  0
  -17.4758  -20.9766   15.2148 C   0  0  0  0  0  0  0  0  0  0  0  0
  -23.8971  -28.8323   20.6431 C   0  0  0  0  0  0  0  0  0  0  0  0
  -21.7920  -27.3948   20.7420 C   0  0  0  0  0  0  0  0  0  0  0  0
  -29.8794  -25.7028   19.7749 C   0  0  0  0  0  0  0  0  0  0  0  0
  -25.0569  -20.8740   22.4782 C   0  0  0  0  0  0  0  0  0  0  0  0
  -28.5939  -25.2321   20.1040 C   0  0  0  0  0  0  0  0  0  0  0  0
  -24.4772  -20.0429   21.5090 C   0  0  0  0  0  0  0  0  0  0  0  0
  -25.4952  -30.9908   21.3981 C   0  0  0  0  0  0  0  0  0  0  0  0
  -22.2804  -20.5122   22.4384 C   0  0  0  0  0  0  0  0  0  0  0  0
  -26.3909  -32.3169   23.1189 C   0  0  0  0  0  0  0  0  0  0  0  0
  -26.6223  -32.8684   25.8437 C   0  0  0  0  0  0  0  0  0  0  0  0
  -27.6430  -32.2861   23.7328 C   0  0  0  0  0  0  0  0  0  0  0  0
  -23.0718  -27.7177   20.2524 C   0  0  0  0  0  0  0  0  0  0  0  0
  -18.1354  -22.0673   15.7417 C   0  0  0  0  0  0  0  0  0  0  0  0
  -21.4401  -26.2566   20.0585 C   0  0  0  0  0  0  0  0  0  0  0  0
  -17.7850  -20.9628   17.6037 C   0  0  0  0  0  0  0  0  0  0  0  0
  -20.9927  -28.0639   21.7264 C   0  0  0  0  0  0  0  0  0  0  0  0
  -27.0321  -21.8848   20.2022 C   0  0  0  0  0  0  0  0  0  0  0  0
  -27.6920  -18.7220   19.9125 C   0  0  0  0  0  0  0  0  0  0  0  0
  -26.6753  -15.4966   20.3701 C   0  0  0  0  0  0  0  0  0  0  0  0
  -21.1118  -23.3330   15.3161 C   0  0  0  0  0  0  0  0  0  0  0  0
  -30.6813  -25.0989   18.6494 C   0  0  0  0  0  0  0  0  0  0  0  0
  -26.5492  -21.0544   22.5331 C   0  0  0  0  0  0  0  0  0  0  0  0
  -25.3090  -19.3308   20.4749 C   0  0  0  0  0  0  0  0  0  0  0  0
  -30.1903  -23.7172   18.2248 C   0  0  0  0  0  0  0  0  0  0  0  0
  -24.1894  -23.2089   17.1022 C   0  0  0  0  0  0  0  0  0  0  0  0
  -28.6727  -23.7141   18.0705 C   0  0  0  0  0  0  0  0  0  0  0  0
  -24.0698  -24.3477   18.1165 C   0  0  0  0  0  0  0  0  0  0  0  0
  -23.5357  -23.5689   15.7699 C   0  0  0  0  0  0  0  0  0  0  0  0
  -22.0146  -25.1566   16.8833 C   0  0  0  0  0  0  0  0  0  0  0  0
  -27.9823  -24.0400   19.4003 C   0  0  1  0  0  0  0  0  0  0  0  0
  -27.2339  -20.7780   21.1981 C   0  0  1  0  0  0  0  0  0  0  0  0
  -22.6102  -24.8191   18.2608 C   0  0  2  0  0  0  0  0  0  0  0  0
  -27.4144  -13.1270   20.0010 C   0  0  0  0  0  0  0  0  0  0  0  0
  -27.0578  -18.9898   16.9399 C   0  0  0  0  0  0  0  0  0  0  0  0
  -26.8810  -16.4951   16.8241 C   0  0  0  0  0  0  0  0  0  0  0  0
  -29.0447  -17.5623   17.4582 C   0  0  0  0  0  0  0  0  0  0  0  0
  -26.5905  -14.8964   23.2670 C   0  0  0  0  0  0  0  0  0  0  0  0
  -18.6569  -23.2142   14.9719 C   0  0  0  0  0  0  0  0  0  0  0  0
  -18.8890  -19.4540   21.5223 C   0  0  0  0  0  0  0  0  0  0  0  0
  -18.3670  -21.4625   19.9779 C   0  0  0  0  0  0  0  0  0  0  0  0
  -20.4043  -19.4927   21.3909 C   0  0  0  0  0  0  0  0  0  1  0  0
  -27.1245  -17.5813   19.1027 C   0  0  1  0  0  0  0  0  0  0  0  0
  -27.3788  -14.2948   20.9745 C   0  0  2  0  0  0  0  0  0  0  0  0
  -18.2185  -20.8221   21.3590 C   0  0  1  0  0  0  0  0  0  0  0  0
  -27.5109  -17.6720   17.5994 C   0  0  0  0  0  0  0  0  0  0  0  0
  -23.5038  -26.8543   19.3294 N   0  0  0  0  0  0  0  0  0  0  0  0
  -18.3132  -22.0613   17.1114 N   0  0  0  0  0  0  0  0  0  0  0  0
  -22.4898  -25.9776   19.2336 N   0  0  0  0  0  0  0  0  0  0  0  0
  -26.7629  -19.5438   20.5661 N   0  0  0  0  0  0  0  0  0  0  0  0
  -22.1529  -24.0062   15.9764 N   0  0  0  0  0  0  0  0  0  0  0  0
  -20.3383  -25.4771   20.0888 N   0  0  0  0  0  0  0  0  0  0  0  0
  -21.5058  -29.2199   22.3303 N   0  0  0  0  0  0  0  0  0  0  0  0
  -17.7837  -20.6326   18.9488 N   0  0  0  0  0  0  0  0  0  0  0  0
  -27.9860  -22.8824   20.2688 N   0  0  0  0  0  0  0  0  0  0  0  0
  -27.5647  -16.3555   19.7600 N   0  0  0  0  0  0  0  0  0  0  0  0
  -19.8311  -23.8072   15.5722 N   0  0  0  0  0  0  0  0  0  0  0  0
  -26.6777  -13.8530   22.2131 N   0  3  0  0  0  0  0  0  0  0  0  0
  -19.8641  -27.6397   22.0725 O   0  0  0  0  0  0  0  0  0  0  0  0
  -26.0823  -21.8366   19.4294 O   0  0  0  0  0  0  0  0  0  0  0  0
  -28.9148  -18.8739   19.9689 O   0  0  0  0  0  0  0  0  0  0  0  0
  -25.4580  -15.6554   20.4299 O   0  0  0  0  0  0  0  0  0  0  0  0
  -21.3087  -22.3765   14.5590 O   0  0  0  0  0  0  0  0  0  0  0  0
  -16.8244  -20.6937   21.6448 O   0  0  0  0  0  0  0  0  0  0  0  0
  -26.2745  -32.0441   21.7662 O   0  0  0  0  0  0  0  0  0  0  0  0
  -20.9310  -20.3377   22.4132 O   0  0  0  0  0  0  0  0  0  1  0  0
  -26.7334  -33.1348   27.1518 F   0  0  0  0  0  0  0  0  0  0  0  0
  -28.7385  -31.9934   23.0187 F   0  0  0  0  0  0  0  0  0  0  0  0
  -17.0584  -19.8923   16.4762 S   0  0  0  0  0  0  0  0  0  0  0  0
  1  2  1  0  0  0  0
  1  5  2  0  0  0  0
  2  6  2  0  0  0  0
  3  8  2  0  0  0  0
  3 16  1  0  0  0  0
  4  9  1  0  0  0  0
  4 16  2  0  0  0  0
  5 18  1  0  0  0  0
  6 20  1  0  0  0  0
  7 10  2  0  0  0  0
  7 19  1  0  0  0  0
  8 22  1  0  0  0  0
  9 22  2  0  0  0  0
 10 23  1  0  0  0  0
 11 12  2  0  0  0  0
 11 24  1  0  0  0  0
 12 25  1  0  0  0  0
 13 21  1  0  0  0  0
 13 23  2  0  0  0  0
 14 25  2  0  0  0  0
 14 26  1  0  0  0  0
 15 28  2  0  0  0  0
 15 83  1  0  0  0  0
 16 27  1  0  0  0  0
 17 27  1  0  0  0  0
 17 29  2  0  0  0  0
 17 31  1  0  0  0  0
 18 20  2  0  0  0  0
 18 36  1  0  0  0  0
 19 21  2  0  0  0  0
 19 37  1  0  0  0  0
 20 45  1  0  0  0  0
 21 38  1  0  0  0  0
 22 79  1  0  0  0  0
 23 80  1  0  0  0  0
 24 26  2  0  0  0  0
 24 79  1  0  0  0  0
 25 81  1  0  0  0  0
 26 82  1  0  0  0  0
 27 61  2  0  0  0  0
 28 53  1  0  0  0  0
 28 62  1  0  0  0  0
 29 63  1  0  0  0  0
 29 66  1  0  0  0  0
 30 62  2  0  0  0  0
 30 68  1  0  0  0  0
 30 83  1  0  0  0  0
 31 67  1  0  0  0  0
 31 73  2  0  0  0  0
 32 46  1  0  0  0  0
 32 69  1  0  0  0  0
 32 74  2  0  0  0  0
 33 57  1  0  0  0  0
 33 64  1  0  0  0  0
 33 75  2  0  0  0  0
 34 58  1  0  0  0  0
 34 70  1  0  0  0  0
 34 76  2  0  0  0  0
 35 65  1  0  0  0  0
 35 71  1  0  0  0  0
 35 77  2  0  0  0  0
 36 39  1  0  0  0  0
 37 46  1  0  0  0  0
 38 64  1  0  0  0  0
 39 41  1  0  0  0  0
 40 42  1  0  0  0  0
 40 43  1  0  0  0  0
 41 45  1  0  0  0  0
 42 47  1  0  0  0  0
 43 65  1  0  0  0  0
 44 47  1  0  0  0  0
 44 65  1  0  0  0  0
 45 69  1  0  0  0  0
 46 64  1  0  0  0  0
 47 63  1  0  0  0  0
 48 58  1  0  0  0  0
 49 60  1  0  0  0  0
 50 60  1  0  0  0  0
 51 60  1  0  0  0  0
 52 72  1  0  0  0  0
 53 71  1  0  0  0  0
 54 56  1  0  0  0  0
 54 59  1  0  0  0  0
 55 59  1  0  0  0  0
 55 68  1  0  0  0  0
 56 80  1  0  0  0  0
 57 60  1  0  0  0  0
 57 70  1  0  0  0  0
 58 72  1  0  0  0  0
 59 78  1  0  0  0  0
 61 63  1  0  0  0  0
M  CHG  1  72   1
M  ISO  4  35 100  56 101  71 100  80 101
M  END
> <Batch ID>
0191

> <Smiles>
CNC(C)C(=O)NC(C(=O)N1Cc2cc([101O:1][101CH2:1]CC(O)CNc3nc(C[100NH:0][100C:0](=O)N4CCCC(n5nc(-c6ccc(Oc7ccc(F)cc7F)cc6)c(C(N)=O)c5N)C4)cs3)ccc2CC1C(=O)NC1CCCc2ccccc21)C(C)(C)C

> <Shape>
0.204

> <Color>
0.051

> <Negative vol penalty>
0.000

$$$$

  -OEChem-04052305243D

 81 89  0     1  0  0  0  0  0999 V2000
  -14.7486  -29.8571   21.2371 C   0  0  0  0  0  0  0  0  0  0  0  0
  -15.7725  -29.7171   20.3057 C   0  0  0  0  0  0  0  0  0  0  0  0
  -25.4671  -15.5903   21.6438 C   0  0  0  0  0  0  0  0  0  0  0  0
  -24.8178  -16.6860   19.5908 C   0  0  0  0  0  0  0  0  0  0  0  0
  -15.0299  -29.7662   22.5996 C   0  0  0  0  0  0  0  0  0  0  0  0
  -17.0787  -29.4870   20.7365 C   0  0  0  0  0  0  0  0  0  0  0  0
  -21.3235  -26.0607   17.9532 C   0  0  0  0  0  0  0  0  0  0  0  0
  -24.2300  -14.9478   21.6922 C   0  0  0  0  0  0  0  0  0  0  0  0
  -23.5807  -16.0435   19.6392 C   0  0  0  0  0  0  0  0  0  0  0  0
  -22.3902  -26.3855   17.1162 C   0  0  0  0  0  0  0  0  0  0  0  0
  -22.7427  -12.2929   20.2184 C   0  0  0  0  0  0  0  0  0  0  0  0
  -22.7307  -10.9314   20.5215 C   0  0  0  0  0  0  0  0  0  0  0  0
  -23.8785  -26.3635   19.0145 C   0  0  0  0  0  0  0  0  0  0  0  0
  -21.3682  -11.3764   22.4665 C   0  0  0  0  0  0  0  0  0  0  0  0
  -25.7610  -16.4595   20.5931 C   0  0  0  0  0  0  0  0  0  0  0  0
  -28.2143  -16.6599   19.9231 C   0  0  0  0  0  0  0  0  0  0  0  0
  -16.3386  -29.5253   23.0470 C   0  0  0  0  0  0  0  0  0  0  0  0
  -21.5247  -25.8953   19.3311 C   0  0  0  0  0  0  0  0  0  0  0  0
  -17.3780  -29.3941   22.1063 C   0  0  0  0  0  0  0  0  0  0  0  0
  -22.8132  -26.0341   19.8664 C   0  0  0  0  0  0  0  0  0  0  0  0
  -23.2868  -15.1744   20.6899 C   0  0  0  0  0  0  0  0  0  0  0  0
  -23.6674  -26.5398   17.6473 C   0  0  0  0  0  0  0  0  0  0  0  0
  -22.0675  -13.1962   21.0394 C   0  0  0  0  0  0  0  0  0  0  0  0
  -22.0435  -10.4732   21.6455 C   0  0  0  0  0  0  0  0  0  0  0  0
  -21.3802  -12.7379   22.1634 C   0  0  0  0  0  0  0  0  0  0  0  0
  -27.0385  -17.1239   20.5429 C   0  0  0  0  0  0  0  0  0  0  0  0
  -29.5650  -26.5075   19.7313 C   0  0  0  0  0  0  0  0  0  0  0  0
  -29.4832  -27.8588   19.9593 C   0  0  0  0  0  0  0  0  0  0  0  0
  -29.1389  -17.6482   20.1572 C   0  0  0  0  0  0  0  0  0  0  0  0
  -27.8878  -27.2235   18.6837 C   0  0  0  0  0  0  0  0  0  0  0  0
  -28.4496  -15.4442   19.2004 C   0  0  0  0  0  0  0  0  0  0  0  0
  -20.4529  -27.3517   21.9452 C   0  0  0  0  0  0  0  0  0  0  0  0
  -22.0436  -24.9625   23.4564 C   0  0  0  0  0  0  0  0  0  0  0  0
  -24.5278  -22.6243   23.3637 C   0  0  0  0  0  0  0  0  0  0  0  0
  -29.4528  -23.3263   20.4266 C   0  0  0  0  0  0  0  0  0  0  0  0
  -16.6019  -29.4821   24.5314 C   0  0  0  0  0  0  0  0  0  0  0  0
  -20.3685  -25.5187   20.2164 C   0  0  0  0  0  0  0  0  0  0  0  0
  -23.0858  -25.8472   21.3359 C   0  0  0  0  0  0  0  0  0  0  0  0
  -17.9497  -28.8634   24.8931 C   0  0  0  0  0  0  0  0  0  0  0  0
  -29.5569  -21.3235   23.4392 C   0  0  0  0  0  0  0  0  0  0  0  0
  -19.0545  -29.4382   24.0124 C   0  0  0  0  0  0  0  0  0  0  0  0
  -29.0281  -19.9812   22.9304 C   0  0  0  0  0  0  0  0  0  0  0  0
  -28.8333  -22.4907   22.7741 C   0  0  0  0  0  0  0  0  0  0  0  0
  -28.3496  -21.1344   20.7741 C   0  0  0  0  0  0  0  0  0  0  0  0
  -18.8034  -29.1191   22.5337 C   0  0  1  0  0  0  0  0  0  0  0  0
  -20.5953  -25.8794   21.6812 C   0  0  1  0  0  0  0  0  0  0  0  0
  -29.0568  -19.9144   21.3919 C   0  0  2  0  0  0  0  0  0  0  0  0
  -30.2687  -28.8304   20.7275 C   0  0  0  0  0  0  0  0  0  0  0  0
  -25.6117  -20.8453   24.7629 C   0  0  0  0  0  0  0  0  0  0  0  0
  -26.7508  -26.1291   15.8601 C   0  0  0  0  0  0  0  0  0  0  0  0
  -23.4922  -27.1132   25.0645 C   0  0  0  0  0  0  0  0  0  0  0  0
  -25.1810  -25.3858   25.7219 C   0  0  0  0  0  0  0  0  0  0  0  0
  -22.7936  -25.1117   26.3913 C   0  0  0  0  0  0  0  0  0  0  0  0
  -23.8055  -20.5017   21.4319 C   0  0  0  0  0  0  0  0  0  0  0  0
  -30.5523  -25.5425   20.2352 C   0  0  0  0  0  0  0  0  0  0  0  0
  -23.4495  -24.7738   23.9731 C   0  0  1  0  0  0  0  0  0  0  0  0
  -24.5386  -21.1510   23.7296 C   0  0  2  0  0  0  0  0  0  0  0  0
  -26.0326  -26.3989   17.1814 C   0  0  1  0  0  0  0  0  0  1  0  0
  -23.7239  -25.6016   25.2603 C   0  0  0  0  0  0  0  0  0  0  0  0
  -27.1989  -18.3144   21.1270 N   0  0  0  0  0  0  0  0  0  0  0  0
  -28.5398  -26.1062   18.9134 N   0  0  0  0  0  0  0  0  0  0  0  0
  -28.4862  -18.6067   20.8753 N   0  0  0  0  0  0  0  0  0  0  0  0
  -21.9215  -25.4858   22.1614 N   0  0  0  0  0  0  0  0  0  0  0  0
  -28.9139  -22.3772   21.3110 N   0  0  0  0  0  0  0  0  0  0  0  0
  -30.4383  -17.7822   19.8169 N   0  0  0  0  0  0  0  0  0  0  0  0
  -27.3900  -14.5387   19.0531 N   0  0  0  0  0  0  0  0  0  0  0  0
  -26.7537  -27.4261   17.9152 N   0  0  0  0  0  0  0  0  0  0  0  0
  -19.1632  -27.7474   22.2444 N   0  0  0  0  0  0  0  0  0  0  0  0
  -23.6347  -23.3359   24.1365 N   0  0  0  0  0  0  0  0  0  0  0  0
  -29.9602  -24.4784   21.0149 N   0  0  0  0  0  0  0  0  0  0  0  0
  -24.7992  -20.3190   22.5210 N   0  3  0  0  0  0  0  0  0  0  0  0
  -29.5708  -15.1615   18.7141 O   0  0  0  0  0  0  0  0  0  0  0  0
  -21.4403  -28.0748   21.8836 O   0  0  0  0  0  0  0  0  0  0  0  0
  -21.0891  -24.6501   24.1726 O   0  0  0  0  0  0  0  0  0  0  0  0
  -25.2430  -23.0971   22.4831 O   0  0  0  0  0  0  0  0  0  0  0  0
  -29.4845  -23.1573   19.2029 O   0  0  0  0  0  0  0  0  0  0  0  0
  -28.3990  -28.3328   19.2844 O   0  0  0  0  0  0  0  0  0  0  0  0
  -22.0796  -14.5474   20.7367 O   0  0  0  0  0  0  0  0  0  0  0  0
  -24.7102  -26.8575   16.8327 O   0  0  0  0  0  0  0  0  0  1  0  0
  -22.0308   -9.1656   21.9356 F   0  0  0  0  0  0  0  0  0  0  0  0
  -20.7287  -13.6007   22.9552 F   0  0  0  0  0  0  0  0  0  0  0  0
  1  2  1  0  0  0  0
  1  5  2  0  0  0  0
  2  6  2  0  0  0  0
  3  8  2  0  0  0  0
  3 15  1  0  0  0  0
  4  9  1  0  0  0  0
  4 15  2  0  0  0  0
  5 17  1  0  0  0  0
  6 19  1  0  0  0  0
  7 10  2  0  0  0  0
  7 18  1  0  0  0  0
  8 21  1  0  0  0  0
  9 21  2  0  0  0  0
 10 22  1  0  0  0  0
 11 12  2  0  0  0  0
 11 23  1  0  0  0  0
 12 24  1  0  0  0  0
 13 20  1  0  0  0  0
 13 22  2  0  0  0  0
 14 24  2  0  0  0  0
 14 25  1  0  0  0  0
 15 26  1  0  0  0  0
 16 26  1  0  0  0  0
 16 29  2  0  0  0  0
 16 31  1  0  0  0  0
 17 19  2  0  0  0  0
 17 36  1  0  0  0  0
 18 20  2  0  0  0  0
 18 37  1  0  0  0  0
 19 45  1  0  0  0  0
 20 38  1  0  0  0  0
 21 78  1  0  0  0  0
 22 79  1  0  0  0  0
 23 25  2  0  0  0  0
 23 78  1  0  0  0  0
 24 80  1  0  0  0  0
 25 81  1  0  0  0  0
 26 60  2  0  0  0  0
 27 28  2  0  0  0  0
 27 55  1  0  0  0  0
 27 61  1  0  0  0  0
 28 48  1  0  0  0  0
 28 77  1  0  0  0  0
 29 62  1  0  0  0  0
 29 65  1  0  0  0  0
 30 61  2  0  0  0  0
 30 67  1  0  0  0  0
 30 77  1  0  0  0  0
 31 66  1  0  0  0  0
 31 72  2  0  0  0  0
 32 46  1  0  0  0  0
 32 68  1  0  0  0  0
 32 73  2  0  0  0  0
 33 56  1  0  0  0  0
 33 63  1  0  0  0  0
 33 74  2  0  0  0  0
 34 57  1  0  0  0  0
 34 69  1  0  0  0  0
 34 75  2  0  0  0  0
 35 64  1  0  0  0  0
 35 70  1  0  0  0  0
 35 76  2  0  0  0  0
 36 39  1  0  0  0  0
 37 46  1  0  0  0  0
 38 63  1  0  0  0  0
 39 41  1  0  0  0  0
 40 42  1  0  0  0  0
 40 43  1  0  0  0  0
 41 45  1  0  0  0  0
 42 47  1  0  0  0  0
 43 64  1  0  0  0  0
 44 47  1  0  0  0  0
 44 64  1  0  0  0  0
 45 68  1  0  0  0  0
 46 63  1  0  0  0  0
 47 62  1  0  0  0  0
 49 57  1  0  0  0  0
 50 58  1  0  0  0  0
 51 59  1  0  0  0  0
 52 59  1  0  0  0  0
 53 59  1  0  0  0  0
 54 71  1  0  0  0  0
 55 70  1  0  0  0  0
 56 59  1  0  0  0  0
 56 69  1  0  0  0  0
 57 71  1  0  0  0  0
 58 67  1  0  0  0  0
 58 79  1  0  0  0  0
 60 62  1  0  0  0  0
M  CHG  1  71   1
M  ISO  4  35 100  58 101  70 100  79 101
M  END
> <Batch ID>
0191

> <Smiles>
CNC(C)C(=O)NC(C(=O)N1Cc2cc([101O:1][101CH:1](C)Nc3nc(C[100NH:0][100C:0](=O)N4CCCC(n5nc(-c6ccc(Oc7ccc(F)cc7F)cc6)c(C(N)=O)c5N)C4)c(C)o3)ccc2CC1C(=O)NC1CCCc2ccccc21)C(C)(C)C

> <Shape>
0.206

> <Color>
0.071

> <Negative vol penalty>
0.000

$$$$

  -OEChem-04052305243D

 85 93  0     1  0  0  0  0  0999 V2000
  -19.2511  -19.8760   25.2996 C   0  0  0  0  0  0  0  0  0  0  0  0
  -20.2339  -20.8278   25.5520 C   0  0  0  0  0  0  0  0  0  0  0  0
  -26.2154  -12.9322   21.5989 C   0  0  0  0  0  0  0  0  0  0  0  0
  -25.8579  -13.6258   19.3124 C   0  0  0  0  0  0  0  0  0  0  0  0
  -19.2532  -19.1764   24.0936 C   0  0  0  0  0  0  0  0  0  0  0  0
  -21.2201  -21.0797   24.5989 C   0  0  0  0  0  0  0  0  0  0  0  0
  -25.2932  -26.3928   22.0500 C   0  0  0  0  0  0  0  0  0  0  0  0
  -25.0337  -12.1922   21.5592 C   0  0  0  0  0  0  0  0  0  0  0  0
  -24.6761  -12.8858   19.2727 C   0  0  0  0  0  0  0  0  0  0  0  0
  -26.6285  -26.6949   21.7865 C   0  0  0  0  0  0  0  0  0  0  0  0
  -24.0010   -9.2111   20.3430 C   0  0  0  0  0  0  0  0  0  0  0  0
  -24.0272   -7.9192   20.8682 C   0  0  0  0  0  0  0  0  0  0  0  0
  -26.4861  -25.4821   19.7061 C   0  0  0  0  0  0  0  0  0  0  0  0
  -22.3240   -8.5347   22.4674 C   0  0  0  0  0  0  0  0  0  0  0  0
  -26.6275  -13.6490   20.4755 C   0  0  0  0  0  0  0  0  0  0  0  0
  -29.1407  -13.9705   20.1791 C   0  0  0  0  0  0  0  0  0  0  0  0
  -20.2342  -19.4268   23.1212 C   0  0  0  0  0  0  0  0  0  0  0  0
  -24.5462  -25.6226   21.1472 C   0  0  0  0  0  0  0  0  0  0  0  0
  -21.2360  -20.3818   23.3793 C   0  0  0  0  0  0  0  0  0  0  0  0
  -25.1408  -25.1738   19.9592 C   0  0  0  0  0  0  0  0  0  0  0  0
  -28.7120  -23.2583   15.8509 C   0  0  0  0  0  0  0  0  0  0  0  0
  -24.2641  -12.1690   20.3961 C   0  0  0  0  0  0  0  0  0  0  0  0
  -27.2260  -26.2371   20.6158 C   0  0  0  0  0  0  0  0  0  0  0  0
  -23.1364  -10.1649   20.8800 C   0  0  0  0  0  0  0  0  0  0  0  0
  -23.1887   -7.5810   21.9304 C   0  0  0  0  0  0  0  0  0  0  0  0
  -22.2979   -9.8267   21.9422 C   0  0  0  0  0  0  0  0  0  0  0  0
  -27.8478  -14.4140   20.5160 C   0  0  0  0  0  0  0  0  0  0  0  0
  -28.3389  -21.9372   15.7099 C   0  0  0  0  0  0  0  0  0  0  0  0
  -29.0434  -23.6516   17.1314 C   0  0  0  0  0  0  0  0  0  0  0  0
  -29.9438  -15.0656   20.3848 C   0  0  0  0  0  0  0  0  0  0  0  0
  -28.6362  -21.5636   17.9323 C   0  0  0  0  0  0  0  0  0  0  0  0
  -29.5768  -12.6838   19.7211 C   0  0  0  0  0  0  0  0  0  0  0  0
  -23.0687  -22.8115   21.2838 C   0  0  0  0  0  0  0  0  0  0  0  0
  -22.0377  -23.6485   18.3243 C   0  0  0  0  0  0  0  0  0  0  0  0
  -22.5361  -25.4939   15.4971 C   0  0  0  0  0  0  0  0  0  0  0  0
  -28.9071  -20.9503   20.3606 C   0  0  0  0  0  0  0  0  0  0  0  0
  -20.2231  -18.6118   21.8522 C   0  0  0  0  0  0  0  0  0  0  0  0
  -23.0992  -25.3280   21.4333 C   0  0  0  0  0  0  0  0  0  0  0  0
  -24.3764  -24.3605   18.9478 C   0  0  0  0  0  0  0  0  0  0  0  0
  -21.0839  -19.2050   20.7398 C   0  0  0  0  0  0  0  0  0  0  0  0
  -30.2527  -19.0362   23.0444 C   0  0  0  0  0  0  0  0  0  0  0  0
  -22.4481  -19.6182   21.2832 C   0  0  0  0  0  0  0  0  0  0  0  0
  -29.9117  -17.5928   22.6669 C   0  0  0  0  0  0  0  0  0  0  0  0
  -29.1400  -20.0045   22.6467 C   0  0  0  0  0  0  0  0  0  0  0  0
  -28.3814  -18.4833   20.8635 C   0  0  0  0  0  0  0  0  0  0  0  0
  -22.3081  -20.7010   22.3600 C   0  0  1  0  0  0  0  0  0  0  0  0
  -22.5804  -24.1018   20.6885 C   0  0  1  0  0  0  0  0  0  0  0  0
  -29.5007  -17.4798   21.1857 C   0  0  2  0  0  0  0  0  0  0  0  0
  -28.7511  -24.1904   14.6907 C   0  0  0  0  0  0  0  0  0  0  0  0
  -27.9582  -21.3966   14.3708 C   0  0  0  0  0  0  0  0  0  0  0  0
  -21.5453  -25.9385   13.2348 C   0  0  0  0  0  0  0  0  0  0  0  0
  -31.7719  -25.0535   17.9157 C   0  0  0  0  0  0  0  0  0  0  0  0
  -28.7336  -28.7571   19.4873 C   0  0  0  0  0  0  0  0  0  0  0  0
  -23.1184  -20.9746   17.3282 C   0  0  0  0  0  0  0  0  0  0  0  0
  -22.9730  -21.8650   14.9927 C   0  0  0  0  0  0  0  0  0  0  0  0
  -20.9043  -21.6284   16.3665 C   0  0  0  0  0  0  0  0  0  0  0  0
  -22.1265  -28.3598   16.1115 C   0  0  0  0  0  0  0  0  0  0  0  0
  -30.1952  -26.8826   18.6445 C   0  0  0  0  0  0  0  0  0  0  0  0
  -22.5561  -23.4610   16.9189 C   0  0  1  0  0  0  0  0  0  0  0  0
  -21.5986  -26.3745   14.6907 C   0  0  2  0  0  0  0  0  0  0  0  0
  -30.3515  -25.3780   18.3701 C   0  0  1  0  0  0  0  0  0  0  0  0
  -28.8048  -27.2694   19.1675 C   0  0  1  0  0  0  0  0  0  1  0  0
  -22.4032  -21.9959   16.4214 C   0  0  0  0  0  0  0  0  0  0  0  0
  -27.8262  -15.6912   20.9063 N   0  0  0  0  0  0  0  0  0  0  0  0
  -28.2897  -21.0589   16.7328 N   0  0  0  0  0  0  0  0  0  0  0  0
  -29.0164  -22.8276   18.1994 N   0  0  0  0  0  0  0  0  0  0  0  0
  -29.1154  -16.0596   20.8160 N   0  0  0  0  0  0  0  0  0  0  0  0
  -22.9663  -24.0933   19.2760 N   0  0  0  0  0  0  0  0  0  0  0  0
  -28.8066  -19.8434   21.2297 N   0  0  0  0  0  0  0  0  0  0  0  0
  -31.2707  -15.2656   20.2373 N   0  0  0  0  0  0  0  0  0  0  0  0
  -28.6207  -11.6711   19.5642 N   0  0  0  0  0  0  0  0  0  0  0  0
  -29.4258  -24.9653   17.3359 N   0  0  0  0  0  0  0  0  0  0  0  0
  -28.5963  -20.6692   19.0306 N   0  0  0  0  0  0  0  0  0  0  0  0
  -22.0604  -21.9903   21.7511 N   0  0  0  0  0  0  0  0  0  0  0  0
  -21.8661  -24.4472   16.0944 N   0  0  0  0  0  0  0  0  0  0  0  0
  -22.0506  -27.7937   14.7401 N   0  3  0  0  0  0  0  0  0  0  0  0
  -30.7812  -12.4345   19.4744 O   0  0  0  0  0  0  0  0  0  0  0  0
  -24.2712  -22.5775   21.3154 O   0  0  0  0  0  0  0  0  0  0  0  0
  -20.8509  -23.4159   18.5672 O   0  0  0  0  0  0  0  0  0  0  0  0
  -23.7426  -25.7106   15.5850 O   0  0  0  0  0  0  0  0  0  0  0  0
  -29.2705  -22.0591   20.7613 O   0  0  0  0  0  0  0  0  0  0  0  0
  -23.1110  -11.4469   20.3570 O   0  0  0  0  0  0  0  0  0  0  0  0
  -28.5294  -26.5299   20.3565 O   0  0  0  0  0  0  0  0  0  1  0  0
  -23.2128   -6.3399   22.4336 F   0  0  0  0  0  0  0  0  0  0  0  0
  -21.4642  -10.7384   22.4615 F   0  0  0  0  0  0  0  0  0  0  0  0
  1  2  1  0  0  0  0
  1  5  2  0  0  0  0
  2  6  2  0  0  0  0
  3  8  2  0  0  0  0
  3 15  1  0  0  0  0
  4  9  1  0  0  0  0
  4 15  2  0  0  0  0
  5 17  1  0  0  0  0
  6 19  1  0  0  0  0
  7 10  2  0  0  0  0
  7 18  1  0  0  0  0
  8 22  1  0  0  0  0
  9 22  2  0  0  0  0
 10 23  1  0  0  0  0
 11 12  2  0  0  0  0
 11 24  1  0  0  0  0
 12 25  1  0  0  0  0
 13 20  1  0  0  0  0
 13 23  2  0  0  0  0
 14 25  2  0  0  0  0
 14 26  1  0  0  0  0
 15 27  1  0  0  0  0
 16 27  1  0  0  0  0
 16 30  2  0  0  0  0
 16 32  1  0  0  0  0
 17 19  2  0  0  0  0
 17 37  1  0  0  0  0
 18 20  2  0  0  0  0
 18 38  1  0  0  0  0
 19 46  1  0  0  0  0
 20 39  1  0  0  0  0
 21 28  1  0  0  0  0
 21 29  2  0  0  0  0
 21 49  1  0  0  0  0
 22 82  1  0  0  0  0
 23 83  1  0  0  0  0
 24 26  2  0  0  0  0
 24 82  1  0  0  0  0
 25 84  1  0  0  0  0
 26 85  1  0  0  0  0
 27 64  2  0  0  0  0
 28 50  1  0  0  0  0
 28 65  2  0  0  0  0
 29 66  1  0  0  0  0
 29 72  1  0  0  0  0
 30 67  1  0  0  0  0
 30 70  1  0  0  0  0
 31 65  1  0  0  0  0
 31 66  2  0  0  0  0
 31 73  1  0  0  0  0
 32 71  1  0  0  0  0
 32 77  2  0  0  0  0
 33 47  1  0  0  0  0
 33 74  1  0  0  0  0
 33 78  2  0  0  0  0
 34 59  1  0  0  0  0
 34 68  1  0  0  0  0
 34 79  2  0  0  0  0
 35 60  1  0  0  0  0
 35 75  1  0  0  0  0
 35 80  2  0  0  0  0
 36 69  1  0  0  0  0
 36 73  1  0  0  0  0
 36 81  2  0  0  0  0
 37 40  1  0  0  0  0
 38 47  1  0  0  0  0
 39 68  1  0  0  0  0
 40 42  1  0  0  0  0
 41 43  1  0  0  0  0
 41 44  1  0  0  0  0
 42 46  1  0  0  0  0
 43 48  1  0  0  0  0
 44 69  1  0  0  0  0
 45 48  1  0  0  0  0
 45 69  1  0  0  0  0
 46 74  1  0  0  0  0
 47 68  1  0  0  0  0
 48 67  1  0  0  0  0
 51 60  1  0  0  0  0
 52 61  1  0  0  0  0
 53 62  1  0  0  0  0
 54 63  1  0  0  0  0
 55 63  1  0  0  0  0
 56 63  1  0  0  0  0
 57 76  1  0  0  0  0
 58 61  1  0  0  0  0
 58 62  1  0  0  0  0
 59 63  1  0  0  0  0
 59 75  1  0  0  0  0
 60 76  1  0  0  0  0
 61 72  1  0  0  0  0
 62 83  1  0  0  0  0
 64 67  1  0  0  0  0
M  CHG  1  76   1
M  ISO  4  36 100  62 101  73 100  83 101
M  END
> <Batch ID>
0191

> <Smiles>
CNC(C)C(=O)NC(C(=O)N1Cc2cc([101O:1][101CH:1](C)CC(C)Nc3nc([100NH:0][100C:0](=O)N4CCCC(n5nc(-c6ccc(Oc7ccc(F)cc7F)cc6)c(C(N)=O)c5N)C4)nc(C)c3C)ccc2CC1C(=O)NC1CCCc2ccccc21)C(C)(C)C

> <Shape>
0.193

> <Color>
0.070

> <Negative vol penalty>
0.000

$$$$

  -OEChem-04052305243D

 83 91  0     1  0  0  0  0  0999 V2000
  -18.1583  -28.0434   22.4861 C   0  0  0  0  0  0  0  0  0  0  0  0
  -18.8082  -27.5368   21.3652 C   0  0  0  0  0  0  0  0  0  0  0  0
  -25.0613  -12.9105   19.6864 C   0  0  0  0  0  0  0  0  0  0  0  0
  -25.0341  -13.6944   21.9715 C   0  0  0  0  0  0  0  0  0  0  0  0
  -18.8564  -28.2036   23.6823 C   0  0  0  0  0  0  0  0  0  0  0  0
  -20.1571  -27.1910   21.4396 C   0  0  0  0  0  0  0  0  0  0  0  0
  -24.8711  -22.4945   18.7869 C   0  0  0  0  0  0  0  0  0  0  0  0
  -25.0373  -11.5912   20.1386 C   0  0  0  0  0  0  0  0  0  0  0  0
  -25.0100  -12.3751   22.4238 C   0  0  0  0  0  0  0  0  0  0  0  0
  -26.1146  -22.4552   18.1577 C   0  0  0  0  0  0  0  0  0  0  0  0
  -24.6187   -8.0218   20.6854 C   0  0  0  0  0  0  0  0  0  0  0  0
  -23.7455   -7.1358   20.0545 C   0  0  0  0  0  0  0  0  0  0  0  0
  -27.1989  -22.7007   20.2985 C   0  0  0  0  0  0  0  0  0  0  0  0
  -21.8740   -8.5206   20.7002 C   0  0  0  0  0  0  0  0  0  0  0  0
  -31.1335  -25.4785   20.9228 C   0  0  0  0  0  0  0  0  0  0  0  0
  -25.0598  -13.9621   20.6028 C   0  0  0  0  0  0  0  0  0  0  0  0
  -23.9783  -16.1438   19.8425 C   0  0  0  0  0  0  0  0  0  0  0  0
  -20.2120  -27.8506   23.7740 C   0  0  0  0  0  0  0  0  0  0  0  0
  -24.7817  -22.6484   20.1778 C   0  0  0  0  0  0  0  0  0  0  0  0
  -20.8743  -27.3479   22.6378 C   0  0  0  0  0  0  0  0  0  0  0  0
  -25.9531  -22.7391   20.9432 C   0  0  0  0  0  0  0  0  0  0  0  0
  -31.3182  -24.2314   21.4841 C   0  0  0  0  0  0  0  0  0  0  0  0
  -25.0116  -11.3235   21.5073 C   0  0  0  0  0  0  0  0  0  0  0  0
  -27.2787  -22.5613   18.9132 C   0  0  0  0  0  0  0  0  0  0  0  0
  -24.1196   -9.1572   21.3238 C   0  0  0  0  0  0  0  0  0  0  0  0
  -22.3731   -7.3852   20.0619 C   0  0  0  0  0  0  0  0  0  0  0  0
  -22.7472   -9.4066   21.3311 C   0  0  0  0  0  0  0  0  0  0  0  0
  -25.0851  -15.3251   20.1363 C   0  0  0  0  0  0  0  0  0  0  0  0
  -31.0943  -23.1597   20.6443 C   0  0  0  0  0  0  0  0  0  0  0  0
  -24.5298  -17.3359   19.4410 C   0  0  0  0  0  0  0  0  0  0  0  0
  -30.5720  -24.5515   18.9247 C   0  0  0  0  0  0  0  0  0  0  0  0
  -22.5768  -15.8528   19.9252 C   0  0  0  0  0  0  0  0  0  0  0  0
  -23.5337  -24.8360   22.1170 C   0  0  0  0  0  0  0  0  0  0  0  0
  -24.3533  -22.7006   24.4171 C   0  0  0  0  0  0  0  0  0  0  0  0
  -26.3400  -20.0975   25.3783 C   0  0  0  0  0  0  0  0  0  0  0  0
  -29.7076  -19.8886   20.6780 C   0  0  0  0  0  0  0  0  0  0  0  0
  -20.9370  -28.0860   25.0754 C   0  0  0  0  0  0  0  0  0  0  0  0
  -23.4334  -22.6621   20.8442 C   0  0  0  0  0  0  0  0  0  0  0  0
  -25.9119  -22.8854   22.4417 C   0  0  0  0  0  0  0  0  0  0  0  0
  -22.2677  -27.3445   25.1742 C   0  0  0  0  0  0  0  0  0  0  0  0
  -28.4492  -19.1391   17.3686 C   0  0  0  0  0  0  0  0  0  0  0  0
  -23.0747  -27.5231   23.8921 C   0  0  0  0  0  0  0  0  0  0  0  0
  -27.3301  -18.1458   17.6865 C   0  0  0  0  0  0  0  0  0  0  0  0
  -29.6459  -18.9382   18.2936 C   0  0  0  0  0  0  0  0  0  0  0  0
  -28.2025  -18.0170   20.0661 C   0  0  0  0  0  0  0  0  0  0  0  0
  -22.3304  -26.9383   22.6857 C   0  0  1  0  0  0  0  0  0  0  0  0
  -23.4494  -23.3388   22.2114 C   0  0  1  0  0  0  0  0  0  0  0  0
  -26.9547  -18.1836   19.1798 C   0  0  2  0  0  0  0  0  0  0  0  0
  -31.7322  -24.0803   22.9023 C   0  0  0  0  0  0  0  0  0  0  0  0
  -26.8029  -18.5887   27.3294 C   0  0  0  0  0  0  0  0  0  0  0  0
  -30.0641  -24.1193   15.2672 C   0  0  0  0  0  0  0  0  0  0  0  0
  -25.8515  -24.9649   25.8096 C   0  0  0  0  0  0  0  0  0  0  0  0
  -27.0443  -23.2406   27.1779 C   0  0  0  0  0  0  0  0  0  0  0  0
  -24.5655  -23.4662   27.3441 C   0  0  0  0  0  0  0  0  0  0  0  0
  -25.6079  -17.6821   23.8328 C   0  0  0  0  0  0  0  0  0  0  0  0
  -31.2668  -21.7623   21.1417 C   0  0  0  0  0  0  0  0  0  0  0  0
  -28.5645  -23.0233   16.9666 C   0  0  0  0  0  0  0  0  0  1  0  0
  -25.5813  -22.4565   25.2606 C   0  0  1  0  0  0  0  0  0  0  0  0
  -26.0126  -18.7726   26.0431 C   0  0  2  0  0  0  0  0  0  0  0  0
  -29.9476  -23.6129   16.6988 C   0  0  2  0  0  0  0  0  0  0  0  0
  -25.7617  -23.5312   26.3696 C   0  0  0  0  0  0  0  0  0  0  0  0
  -30.7593  -25.6760   19.6417 N   0  0  0  0  0  0  0  0  0  0  0  0
  -26.2517  -15.9446   19.9382 N   0  0  0  0  0  0  0  0  0  0  0  0
  -30.7187  -23.2837   19.3543 N   0  0  0  0  0  0  0  0  0  0  0  0
  -25.8810  -17.1653   19.5155 N   0  0  0  0  0  0  0  0  0  0  0  0
  -24.5695  -22.8999   23.0462 N   0  0  0  0  0  0  0  0  0  0  0  0
  -29.2238  -19.0040   19.6998 N   0  0  0  0  0  0  0  0  0  0  0  0
  -23.9861  -18.5029   19.0350 N   0  0  0  0  0  0  0  0  0  0  0  0
  -22.1833  -14.5787   20.3567 N   0  0  0  0  0  0  0  0  0  0  0  0
  -30.1885  -24.7166   17.6065 N   0  0  0  0  0  0  0  0  0  0  0  0
  -22.4518  -25.4963   22.6675 N   0  0  0  0  0  0  0  0  0  0  0  0
  -25.4662  -21.0920   25.7639 N   0  0  0  0  0  0  0  0  0  0  0  0
  -30.6780  -20.7868   20.2513 N   0  0  0  0  0  0  0  0  0  0  0  0
  -26.3337  -17.6408   25.1283 N   0  3  0  0  0  0  0  0  0  0  0  0
  -21.6996  -16.6921   19.6095 O   0  0  0  0  0  0  0  0  0  0  0  0
  -24.5088  -25.3540   21.5855 O   0  0  0  0  0  0  0  0  0  0  0  0
  -23.2426  -22.7069   24.9536 O   0  0  0  0  0  0  0  0  0  0  0  0
  -27.2793  -20.2372   24.5981 O   0  0  0  0  0  0  0  0  0  0  0  0
  -29.3007  -19.8821   21.8449 O   0  0  0  0  0  0  0  0  0  0  0  0
  -24.9879  -10.0363   21.9490 O   0  0  0  0  0  0  0  0  0  0  0  0
  -28.4937  -22.5239   18.3015 O   0  0  0  0  0  0  0  0  0  1  0  0
  -21.5348   -6.5351   19.4547 F   0  0  0  0  0  0  0  0  0  0  0  0
  -22.2619  -10.4963   21.9417 F   0  0  0  0  0  0  0  0  0  0  0  0
  1  2  1  0  0  0  0
  1  5  2  0  0  0  0
  2  6  2  0  0  0  0
  3  8  2  0  0  0  0
  3 16  1  0  0  0  0
  4  9  1  0  0  0  0
  4 16  2  0  0  0  0
  5 18  1  0  0  0  0
  6 20  1  0  0  0  0
  7 10  2  0  0  0  0
  7 19  1  0  0  0  0
  8 23  1  0  0  0  0
  9 23  2  0  0  0  0
 10 24  1  0  0  0  0
 11 12  2  0  0  0  0
 11 25  1  0  0  0  0
 12 26  1  0  0  0  0
 13 21  1  0  0  0  0
 13 24  2  0  0  0  0
 14 26  2  0  0  0  0
 14 27  1  0  0  0  0
 15 22  1  0  0  0  0
 15 62  2  0  0  0  0
 16 28  1  0  0  0  0
 17 28  1  0  0  0  0
 17 30  2  0  0  0  0
 17 32  1  0  0  0  0
 18 20  2  0  0  0  0
 18 37  1  0  0  0  0
 19 21  2  0  0  0  0
 19 38  1  0  0  0  0
 20 46  1  0  0  0  0
 21 39  1  0  0  0  0
 22 29  2  0  0  0  0
 22 49  1  0  0  0  0
 23 80  1  0  0  0  0
 24 81  1  0  0  0  0
 25 27  2  0  0  0  0
 25 80  1  0  0  0  0
 26 82  1  0  0  0  0
 27 83  1  0  0  0  0
 28 63  2  0  0  0  0
 29 56  1  0  0  0  0
 29 64  1  0  0  0  0
 30 65  1  0  0  0  0
 30 68  1  0  0  0  0
 31 62  1  0  0  0  0
 31 64  2  0  0  0  0
 31 70  1  0  0  0  0
 32 69  1  0  0  0  0
 32 75  2  0  0  0  0
 33 47  1  0  0  0  0
 33 71  1  0  0  0  0
 33 76  2  0  0  0  0
 34 58  1  0  0  0  0
 34 66  1  0  0  0  0
 34 77  2  0  0  0  0
 35 59  1  0  0  0  0
 35 72  1  0  0  0  0
 35 78  2  0  0  0  0
 36 67  1  0  0  0  0
 36 73  1  0  0  0  0
 36 79  2  0  0  0  0
 37 40  1  0  0  0  0
 38 47  1  0  0  0  0
 39 66  1  0  0  0  0
 40 42  1  0  0  0  0
 41 43  1  0  0  0  0
 41 44  1  0  0  0  0
 42 46  1  0  0  0  0
 43 48  1  0  0  0  0
 44 67  1  0  0  0  0
 45 48  1  0  0  0  0
 45 67  1  0  0  0  0
 46 71  1  0  0  0  0
 47 66  1  0  0  0  0
 48 65  1  0  0  0  0
 50 59  1  0  0  0  0
 51 60  1  0  0  0  0
 52 61  1  0  0  0  0
 53 61  1  0  0  0  0
 54 61  1  0  0  0  0
 55 74  1  0  0  0  0
 56 73  1  0  0  0  0
 57 60  1  0  0  0  0
 57 81  1  0  0  0  0
 58 61  1  0  0  0  0
 58 72  1  0  0  0  0
 59 74  1  0  0  0  0
 60 70  1  0  0  0  0
 63 65  1  0  0  0  0
M  CHG  1  74   1
M  ISO  4  36 100  57 101  73 100  81 101
M  END
> <Batch ID>
0191

> <Smiles>
CNC(C)C(=O)NC(C(=O)N1Cc2cc([101O:1][101CH2:1]C(C)Nc3ncc(C)c(C[100NH:0][100C:0](=O)N4CCCC(n5nc(-c6ccc(Oc7ccc(F)cc7F)cc6)c(C(N)=O)c5N)C4)n3)ccc2CC1C(=O)NC1CCCc2ccccc21)C(C)(C)C

> <Shape>
0.189

> <Color>
0.070

> <Negative vol penalty>
0.000

$$$$

  -OEChem-04052305243D

 82 89  0     1  0  0  0  0  0999 V2000
  -32.3584  -14.5510   20.7128 C   0  0  0  0  0  0  0  0  0  0  0  0
  -31.4654  -15.5437   21.1034 C   0  0  0  0  0  0  0  0  0  0  0  0
  -22.3436  -28.3855   20.7765 C   0  0  0  0  0  0  0  0  0  0  0  0
  -23.1806  -26.8145   22.4101 C   0  0  0  0  0  0  0  0  0  0  0  0
  -31.8956  -13.4297   20.0256 C   0  0  0  0  0  0  0  0  0  0  0  0
  -30.1090  -15.4160   20.8060 C   0  0  0  0  0  0  0  0  0  0  0  0
  -27.1393  -16.5935   24.7352 C   0  0  0  0  0  0  0  0  0  0  0  0
  -21.0554  -28.2321   21.2889 C   0  0  0  0  0  0  0  0  0  0  0  0
  -21.8923  -26.6611   22.9226 C   0  0  0  0  0  0  0  0  0  0  0  0
  -26.9456  -17.9478   25.0036 C   0  0  0  0  0  0  0  0  0  0  0  0
  -19.2790  -29.3524   23.9389 C   0  0  0  0  0  0  0  0  0  0  0  0
  -18.5223  -30.5056   24.1462 C   0  0  0  0  0  0  0  0  0  0  0  0
  -24.8077  -17.8565   23.8900 C   0  0  0  0  0  0  0  0  0  0  0  0
  -16.8491  -29.6840   22.6092 C   0  0  0  0  0  0  0  0  0  0  0  0
  -23.4062  -27.6766   21.3370 C   0  0  0  0  0  0  0  0  0  0  0  0
  -25.7072  -28.7709   21.2118 C   0  0  0  0  0  0  0  0  0  0  0  0
  -30.5315  -13.2836   19.7281 C   0  0  0  0  0  0  0  0  0  0  0  0
  -26.1719  -15.8618   24.0315 C   0  0  0  0  0  0  0  0  0  0  0  0
  -29.6277  -14.2922   20.1129 C   0  0  0  0  0  0  0  0  0  0  0  0
  -24.9904  -16.4924   23.6162 C   0  0  0  0  0  0  0  0  0  0  0  0
  -20.8298  -27.3700   22.3620 C   0  0  0  0  0  0  0  0  0  0  0  0
  -25.7810  -18.5802   24.5784 C   0  0  0  0  0  0  0  0  0  0  0  0
  -18.8209  -28.3650   23.0666 C   0  0  0  0  0  0  0  0  0  0  0  0
  -17.3074  -30.6714   23.4814 C   0  0  0  0  0  0  0  0  0  0  0  0
  -17.6059  -28.5308   22.4018 C   0  0  0  0  0  0  0  0  0  0  0  0
  -24.7371  -27.8342   20.8078 C   0  0  0  0  0  0  0  0  0  0  0  0
  -26.7906  -28.5114   20.4084 C   0  0  0  0  0  0  0  0  0  0  0  0
  -25.6355  -29.7849   22.2230 C   0  0  0  0  0  0  0  0  0  0  0  0
  -26.1181  -14.2913   21.2685 C   0  0  0  0  0  0  0  0  0  0  0  0
  -28.5216  -23.5554   17.4838 C   0  0  0  0  0  0  0  0  0  0  0  0
  -23.1599  -13.4155   22.2706 C   0  0  0  0  0  0  0  0  0  0  0  0
  -20.4433  -14.0933   24.2220 C   0  0  0  0  0  0  0  0  0  0  0  0
  -30.0853  -12.0764   18.9418 C   0  0  0  0  0  0  0  0  0  0  0  0
  -26.3840  -14.3953   23.7734 C   0  0  0  0  0  0  0  0  0  0  0  0
  -23.9119  -15.7467   22.8750 C   0  0  0  0  0  0  0  0  0  0  0  0
  -28.5784  -11.8381   18.9946 C   0  0  0  0  0  0  0  0  0  0  0  0
  -27.9423  -26.8082   16.0967 C   0  0  0  0  0  0  0  0  0  0  0  0
  -27.8230  -13.1403   18.7485 C   0  0  0  0  0  0  0  0  0  0  0  0
  -27.1186  -27.5155   17.1721 C   0  0  0  0  0  0  0  0  0  0  0  0
  -27.6021  -25.3231   16.0195 C   0  0  0  0  0  0  0  0  0  0  0  0
  -26.9169  -25.3054   18.3969 C   0  0  0  0  0  0  0  0  0  0  0  0
  -28.1454  -14.1780   19.8305 C   0  0  1  0  0  0  0  0  0  0  0  0
  -25.5628  -13.8703   22.5997 C   0  0  1  0  0  0  0  0  0  0  0  0
  -27.2517  -26.8017   18.5290 C   0  0  2  0  0  0  0  0  0  0  0  0
  -29.9786  -22.3515   19.0650 C   0  0  0  0  0  0  0  0  0  0  0  0
  -18.1646  -13.2153   24.7999 C   0  0  0  0  0  0  0  0  0  0  0  0
  -26.2977  -20.1330   20.3492 C   0  0  0  0  0  0  0  0  0  0  0  0
  -29.0789  -21.7726   22.9592 C   0  0  0  0  0  0  0  0  0  0  0  0
  -22.0879  -14.4525   19.6087 C   0  0  0  0  0  0  0  0  0  0  0  0
  -19.7917  -14.4359   20.6065 C   0  0  0  0  0  0  0  0  0  0  0  0
  -21.0662  -12.3036   20.3789 C   0  0  0  0  0  0  0  0  0  0  0  0
  -21.1710  -13.7491   27.0700 C   0  0  0  0  0  0  0  0  0  0  0  0
  -27.4549  -21.9374   19.0100 C   0  0  0  0  0  0  0  0  0  0  0  0
  -26.7899  -22.2897   23.8942 C   0  0  0  0  0  0  0  0  0  0  0  0
  -24.8056  -20.6413   23.9029 C   0  0  0  0  0  0  0  0  0  1  0  0
  -28.5949  -22.9578   18.8663 C   0  0  2  0  0  0  0  0  0  0  0  0
  -21.7701  -13.9876   22.1284 C   0  0  1  0  0  0  0  0  0  0  0  0
  -19.6400  -13.2199   25.1687 C   0  0  2  0  0  0  0  0  0  0  0  0
  -27.4179  -21.1660   20.3350 C   0  0  1  0  0  0  0  0  0  0  0  0
  -27.5778  -21.5715   22.7944 C   0  0  1  0  0  0  0  0  0  0  0  0
  -25.2660  -22.0962   23.8559 C   0  0  1  0  0  0  0  0  0  0  0  0
  -21.2000  -13.8097   20.6929 C   0  0  0  0  0  0  0  0  0  0  0  0
  -25.1662  -27.0391   19.8241 N   0  0  0  0  0  0  0  0  0  0  0  0
  -26.4179  -27.4756   19.6032 N   0  0  0  0  0  0  0  0  0  0  0  0
  -24.1686  -14.3160   22.6411 N   0  0  0  0  0  0  0  0  0  0  0  0
  -27.7188  -24.6862   17.3325 N   0  0  0  0  0  0  0  0  0  0  0  0
  -28.0161  -29.0704   20.3193 N   0  0  0  0  0  0  0  0  0  0  0  0
  -24.4478  -29.9151   22.9556 N   0  0  0  0  0  0  0  0  0  0  0  0
  -27.4193  -13.8822   21.0469 N   0  0  0  0  0  0  0  0  0  0  0  0
  -20.9637  -13.3653   23.1729 N   0  0  0  0  0  0  0  0  0  0  0  0
  -19.7731  -13.7142   26.5683 N   0  3  0  0  0  0  0  0  0  0  0  0
  -27.1864  -22.1073   21.4614 N   0  3  0  0  0  0  0  0  0  0  0  0
  -26.5905  -30.5634   22.4583 O   0  0  0  0  0  0  0  0  0  0  0  0
  -25.4174  -14.9380   20.4988 O   0  0  0  0  0  0  0  0  0  0  0  0
  -29.1619  -23.0331   16.5675 O   0  0  0  0  0  0  0  0  0  0  0  0
  -23.3424  -12.2126   22.0676 O   0  0  0  0  0  0  0  0  0  0  0  0
  -20.5911  -15.3013   24.3938 O   0  0  0  0  0  0  0  0  0  0  0  0
  -24.7016  -22.7647   24.9881 O   0  0  0  0  0  0  0  0  0  0  0  0
  -19.5729  -27.2203   22.8624 O   0  0  0  0  0  0  0  0  0  0  0  0
  -25.5896  -19.9022   24.8384 O   0  0  0  0  0  0  0  0  0  1  0  0
  -16.5800  -31.7782   23.6818 F   0  0  0  0  0  0  0  0  0  0  0  0
  -17.1600  -27.5851   21.5635 F   0  0  0  0  0  0  0  0  0  0  0  0
  1  2  1  0  0  0  0
  1  5  2  0  0  0  0
  2  6  2  0  0  0  0
  3  8  2  0  0  0  0
  3 15  1  0  0  0  0
  4  9  1  0  0  0  0
  4 15  2  0  0  0  0
  5 17  1  0  0  0  0
  6 19  1  0  0  0  0
  7 10  2  0  0  0  0
  7 18  1  0  0  0  0
  8 21  1  0  0  0  0
  9 21  2  0  0  0  0
 10 22  1  0  0  0  0
 11 12  2  0  0  0  0
 11 23  1  0  0  0  0
 12 24  1  0  0  0  0
 13 20  1  0  0  0  0
 13 22  2  0  0  0  0
 14 24  2  0  0  0  0
 14 25  1  0  0  0  0
 15 26  1  0  0  0  0
 16 26  1  0  0  0  0
 16 27  2  0  0  0  0
 16 28  1  0  0  0  0
 17 19  2  0  0  0  0
 17 33  1  0  0  0  0
 18 20  2  0  0  0  0
 18 34  1  0  0  0  0
 19 42  1  0  0  0  0
 20 35  1  0  0  0  0
 21 79  1  0  0  0  0
 22 80  1  0  0  0  0
 23 25  2  0  0  0  0
 23 79  1  0  0  0  0
 24 81  1  0  0  0  0
 25 82  1  0  0  0  0
 26 63  2  0  0  0  0
 27 64  1  0  0  0  0
 27 67  1  0  0  0  0
 28 68  1  0  0  0  0
 28 73  2  0  0  0  0
 29 43  1  0  0  0  0
 29 69  1  0  0  0  0
 29 74  2  0  0  0  0
 30 56  1  0  0  0  0
 30 66  1  0  0  0  0
 30 75  2  0  0  0  0
 31 57  1  0  0  0  0
 31 65  1  0  0  0  0
 31 76  2  0  0  0  0
 32 58  1  0  0  0  0
 32 70  1  0  0  0  0
 32 77  2  0  0  0  0
 33 36  1  0  0  0  0
 34 43  1  0  0  0  0
 35 65  1  0  0  0  0
 36 38  1  0  0  0  0
 37 39  1  0  0  0  0
 37 40  1  0  0  0  0
 38 42  1  0  0  0  0
 39 44  1  0  0  0  0
 40 66  1  0  0  0  0
 41 44  1  0  0  0  0
 41 66  1  0  0  0  0
 42 69  1  0  0  0  0
 43 65  1  0  0  0  0
 44 64  1  0  0  0  0
 45 56  1  0  0  0  0
 46 58  1  0  0  0  0
 47 59  1  0  0  0  0
 48 60  1  0  0  0  0
 49 62  1  0  0  0  0
 50 62  1  0  0  0  0
 51 62  1  0  0  0  0
 52 71  1  0  0  0  0
 53 56  1  0  0  0  0
 53 59  1  0  0  0  0
 54 60  1  0  0  0  0
 54 61  1  0  0  0  0
 55 61  1  0  0  0  0
 55 80  1  0  0  0  0
 57 62  1  0  0  0  0
 57 70  1  0  0  0  0
 58 71  1  0  0  0  0
 59 72  1  0  0  0  0
 60 72  1  0  0  0  0
 61 78  1  0  0  0  0
 63 64  1  0  0  0  0
M  CHG  2  71   1  72   1
M  ISO  4  30 100  55 101  56 100  80 101
M  END
> <Batch ID>
0191

> <Smiles>
CNC(C)C(=O)NC(C(=O)N1Cc2cc([101O:1][101CH2:1]C(O)CC(C)NC(C)C[100CH:0](C)[100C:0](=O)N3CCCC(n4nc(-c5ccc(Oc6ccc(F)cc6F)cc5)c(C(N)=O)c4N)C3)ccc2CC1C(=O)NC1CCCc2ccccc21)C(C)(C)C

> <Shape>
0.242

> <Color>
0.066

> <Negative vol penalty>
0.000

$$$$

  -OEChem-04052305243D

 90 98  0     1  0  0  0  0  0999 V2000
  -26.6987  -18.5934   26.7159 C   0  0  0  0  0  0  0  0  0  0  0  0
  -27.0166  -19.8428   26.1931 C   0  0  0  0  0  0  0  0  0  0  0  0
  -27.3136  -14.9154   23.0279 C   0  0  0  0  0  0  0  0  0  0  0  0
  -26.3609  -15.0045   20.8095 C   0  0  0  0  0  0  0  0  0  0  0  0
  -25.5987  -17.8924   26.2236 C   0  0  0  0  0  0  0  0  0  0  0  0
  -26.2352  -20.3914   25.1768 C   0  0  0  0  0  0  0  0  0  0  0  0
  -25.1722  -25.2792   25.9672 C   0  0  0  0  0  0  0  0  0  0  0  0
  -26.3466  -13.9838   23.4057 C   0  0  0  0  0  0  0  0  0  0  0  0
  -25.3940  -14.0728   21.1872 C   0  0  0  0  0  0  0  0  0  0  0  0
  -26.1769  -26.2032   25.6836 C   0  0  0  0  0  0  0  0  0  0  0  0
  -25.1968  -10.7274   21.6229 C   0  0  0  0  0  0  0  0  0  0  0  0
  -24.9319   -9.6777   20.7434 C   0  0  0  0  0  0  0  0  0  0  0  0
  -25.1192  -26.6963   23.5724 C   0  0  0  0  0  0  0  0  0  0  0  0
  -22.6307  -10.3953   20.5799 C   0  0  0  0  0  0  0  0  0  0  0  0
  -27.3207  -15.4258   21.7298 C   0  0  0  0  0  0  0  0  0  0  0  0
  -29.5852  -16.1229   20.7844 C   0  0  0  0  0  0  0  0  0  0  0  0
  -24.7977  -18.4369   25.2075 C   0  0  0  0  0  0  0  0  0  0  0  0
  -24.1376  -25.0485   25.0491 C   0  0  0  0  0  0  0  0  0  0  0  0
  -25.1242  -19.6964   24.6695 C   0  0  0  0  0  0  0  0  0  0  0  0
  -24.1012  -25.7707   23.8478 C   0  0  0  0  0  0  0  0  0  0  0  0
  -25.3869  -13.5625   22.4854 C   0  0  0  0  0  0  0  0  0  0  0  0
  -26.1521  -26.9099   24.4848 C   0  0  0  0  0  0  0  0  0  0  0  0
  -24.1786  -11.6111   21.9810 C   0  0  0  0  0  0  0  0  0  0  0  0
  -23.6489   -9.5116   20.2219 C   0  0  0  0  0  0  0  0  0  0  0  0
  -22.8956  -11.4450   21.4595 C   0  0  0  0  0  0  0  0  0  0  0  0
  -28.3189  -16.3886   21.3391 C   0  0  0  0  0  0  0  0  0  0  0  0
  -26.6946  -26.7957   18.2758 C   0  0  0  0  0  0  0  0  0  0  0  0
  -27.6681  -26.0724   18.9290 C   0  0  0  0  0  0  0  0  0  0  0  0
  -27.8423  -27.7253   20.4997 C   0  0  0  0  0  0  0  0  0  0  0  0
  -26.8693  -28.4490   19.8462 C   0  0  0  0  0  0  0  0  0  0  0  0
  -30.1436  -17.3631   20.5936 C   0  0  0  0  0  0  0  0  0  0  0  0
  -30.2016  -14.8672   20.4698 C   0  0  0  0  0  0  0  0  0  0  0  0
  -23.1362  -22.5332   23.3835 C   0  0  0  0  0  0  0  0  0  0  0  0
  -20.7205  -24.5336   22.5560 C   0  0  0  0  0  0  0  0  0  0  0  0
  -19.6195  -27.7400   22.1642 C   0  0  0  0  0  0  0  0  0  0  0  0
  -27.7204  -22.6779   19.7351 C   0  0  0  0  0  0  0  0  0  0  0  0
  -23.6466  -17.6210   24.6747 C   0  0  0  0  0  0  0  0  0  0  0  0
  -23.0467  -24.0678   25.3817 C   0  0  0  0  0  0  0  0  0  0  0  0
  -23.0013  -25.5746   22.8377 C   0  0  0  0  0  0  0  0  0  0  0  0
  -22.6488  -18.4368   23.8568 C   0  0  0  0  0  0  0  0  0  0  0  0
  -30.0681  -21.8145   22.3505 C   0  0  0  0  0  0  0  0  0  0  0  0
  -23.3800  -19.3317   22.8611 C   0  0  0  0  0  0  0  0  0  0  0  0
  -29.9999  -20.2865   22.3282 C   0  0  0  0  0  0  0  0  0  0  0  0
  -28.6964  -22.4329   22.0973 C   0  0  0  0  0  0  0  0  0  0  0  0
  -27.9734  -20.4593   20.8105 C   0  0  0  0  0  0  0  0  0  0  0  0
  -24.2861  -20.3358   23.5837 C   0  0  1  0  0  0  0  0  0  0  0  0
  -22.3223  -23.5387   24.1478 C   0  0  1  0  0  0  0  0  0  0  0  0
  -29.3332  -19.7741   21.0378 C   0  0  2  0  0  0  0  0  0  0  0  0
  -26.0480  -26.2845   17.0343 C   0  0  0  0  0  0  0  0  0  0  0  0
  -33.1524  -25.6120   17.9362 C   0  0  0  0  0  0  0  0  0  0  0  0
  -17.6119  -29.0585   21.4372 C   0  0  0  0  0  0  0  0  0  0  0  0
  -29.3820  -23.5631   16.5386 C   0  0  0  0  0  0  0  0  0  0  0  0
  -30.7707  -27.7700   21.7127 C   0  0  0  0  0  0  0  0  0  0  0  0
  -21.3676  -23.9070   19.6408 C   0  0  0  0  0  0  0  0  0  0  0  0
  -20.0230  -25.9140   18.9835 C   0  0  0  0  0  0  0  0  0  0  0  0
  -18.9251  -24.0127   20.1677 C   0  0  0  0  0  0  0  0  0  0  0  0
  -19.3515  -29.0166   24.8207 C   0  0  0  0  0  0  0  0  0  0  0  0
  -31.8718  -25.3256   17.1649 C   0  0  0  0  0  0  0  0  0  0  0  0
  -30.7056  -25.0391   18.1151 C   0  0  0  0  0  0  0  0  0  0  0  0
  -29.4777  -28.1661   23.8379 C   0  0  0  0  0  0  0  0  0  0  0  0
  -28.4230  -27.5611   24.7590 C   0  0  0  0  0  0  0  0  0  1  0  0
  -28.1214  -24.7457   18.4234 C   0  0  1  0  0  0  0  0  0  0  0  0
  -20.4910  -25.5310   21.4463 C   0  0  1  0  0  0  0  0  0  0  0  0
  -18.3431  -28.4286   22.6125 C   0  0  2  0  0  0  0  0  0  0  0  0
  -29.3331  -24.8115   17.4325 C   0  0  2  0  0  0  0  0  0  0  0  0
  -29.4307  -27.5902   22.4192 C   0  0  1  0  0  0  0  0  0  0  0  0
  -20.2236  -24.8437   20.0775 C   0  0  0  0  0  0  0  0  0  0  0  0
  -28.0864  -17.6951   21.4909 N   0  0  0  0  0  0  0  0  0  0  0  0
  -28.2595  -26.5242   20.0527 N   0  0  0  0  0  0  0  0  0  0  0  0
  -26.2777  -27.9970   18.7227 N   0  0  0  0  0  0  0  0  0  0  0  0
  -29.2142  -18.2614   21.0289 N   0  0  0  0  0  0  0  0  0  0  0  0
  -21.9610  -24.6001   23.2060 N   0  0  0  0  0  0  0  0  0  0  0  0
  -28.1250  -21.9178   20.8450 N   0  0  0  0  0  0  0  0  0  0  0  0
  -31.3341  -17.7621   20.0976 N   0  0  0  0  0  0  0  0  0  0  0  0
  -29.4882  -13.6890   20.7296 N   0  0  0  0  0  0  0  0  0  0  0  0
  -28.4021  -28.2564   21.6478 N   0  0  0  0  0  0  0  0  0  0  0  0
  -23.5024  -21.4257   24.1244 N   0  0  0  0  0  0  0  0  0  0  0  0
  -19.4121  -26.4031   21.8979 N   0  0  0  0  0  0  0  0  0  0  0  0
  -28.4192  -23.8609   19.5277 N   0  0  0  0  0  0  0  0  0  0  0  0
  -18.6522  -29.4992   23.6021 N   0  3  0  0  0  0  0  0  0  0  0  0
  -31.3574  -14.7915   19.9882 O   0  0  0  0  0  0  0  0  0  0  0  0
  -23.4105  -22.7456   22.2082 O   0  0  0  0  0  0  0  0  0  0  0  0
  -19.8290  -23.7298   22.8405 O   0  0  0  0  0  0  0  0  0  0  0  0
  -20.6924  -28.3300   22.0570 O   0  0  0  0  0  0  0  0  0  0  0  0
  -26.8071  -22.3256   18.9809 O   0  0  0  0  0  0  0  0  0  0  0  0
  -24.4434  -12.6532   22.8536 O   0  0  0  0  0  0  0  0  0  0  0  0
  -27.1320  -27.8119   24.2052 O   0  0  0  0  0  0  0  0  0  1  0  0
  -23.3951   -8.5045   19.3761 F   0  0  0  0  0  0  0  0  0  0  0  0
  -21.9137  -12.2915   21.7989 F   0  0  0  0  0  0  0  0  0  0  0  0
  -26.4813  -29.6420   20.3217 F   0  0  0  0  0  0  0  0  0  0  0  0
  1  2  1  0  0  0  0
  1  5  2  0  0  0  0
  2  6  2  0  0  0  0
  3  8  2  0  0  0  0
  3 15  1  0  0  0  0
  4  9  1  0  0  0  0
  4 15  2  0  0  0  0
  5 17  1  0  0  0  0
  6 19  1  0  0  0  0
  7 10  2  0  0  0  0
  7 18  1  0  0  0  0
  8 21  1  0  0  0  0
  9 21  2  0  0  0  0
 10 22  1  0  0  0  0
 11 12  2  0  0  0  0
 11 23  1  0  0  0  0
 12 24  1  0  0  0  0
 13 20  1  0  0  0  0
 13 22  2  0  0  0  0
 14 24  2  0  0  0  0
 14 25  1  0  0  0  0
 15 26  1  0  0  0  0
 16 26  1  0  0  0  0
 16 31  2  0  0  0  0
 16 32  1  0  0  0  0
 17 19  2  0  0  0  0
 17 37  1  0  0  0  0
 18 20  2  0  0  0  0
 18 38  1  0  0  0  0
 19 46  1  0  0  0  0
 20 39  1  0  0  0  0
 21 86  1  0  0  0  0
 22 87  1  0  0  0  0
 23 25  2  0  0  0  0
 23 86  1  0  0  0  0
 24 88  1  0  0  0  0
 25 89  1  0  0  0  0
 26 68  2  0  0  0  0
 27 28  2  0  0  0  0
 27 49  1  0  0  0  0
 27 70  1  0  0  0  0
 28 62  1  0  0  0  0
 28 69  1  0  0  0  0
 29 30  1  0  0  0  0
 29 69  2  0  0  0  0
 29 76  1  0  0  0  0
 30 70  2  0  0  0  0
 30 90  1  0  0  0  0
 31 71  1  0  0  0  0
 31 74  1  0  0  0  0
 32 75  1  0  0  0  0
 32 81  2  0  0  0  0
 33 47  1  0  0  0  0
 33 77  1  0  0  0  0
 33 82  2  0  0  0  0
 34 63  1  0  0  0  0
 34 72  1  0  0  0  0
 34 83  2  0  0  0  0
 35 64  1  0  0  0  0
 35 78  1  0  0  0  0
 35 84  2  0  0  0  0
 36 73  1  0  0  0  0
 36 79  1  0  0  0  0
 36 85  2  0  0  0  0
 37 40  1  0  0  0  0
 38 47  1  0  0  0  0
 39 72  1  0  0  0  0
 40 42  1  0  0  0  0
 41 43  1  0  0  0  0
 41 44  1  0  0  0  0
 42 46  1  0  0  0  0
 43 48  1  0  0  0  0
 44 73  1  0  0  0  0
 45 48  1  0  0  0  0
 45 73  1  0  0  0  0
 46 77  1  0  0  0  0
 47 72  1  0  0  0  0
 48 71  1  0  0  0  0
 50 58  1  0  0  0  0
 51 64  1  0  0  0  0
 52 65  1  0  0  0  0
 53 66  1  0  0  0  0
 54 67  1  0  0  0  0
 55 67  1  0  0  0  0
 56 67  1  0  0  0  0
 57 80  1  0  0  0  0
 58 59  1  0  0  0  0
 59 65  1  0  0  0  0
 60 61  1  0  0  0  0
 60 66  1  0  0  0  0
 61 87  1  0  0  0  0
 62 65  1  0  0  0  0
 62 79  1  0  0  0  0
 63 67  1  0  0  0  0
 63 78  1  0  0  0  0
 64 80  1  0  0  0  0
 66 76  1  0  0  0  0
 68 71  1  0  0  0  0
M  CHG  1  80   1
M  ISO  4  36 100  61 101  79 100  87 101
M  END
> <Batch ID>
0191

> <Smiles>
CCCC(C)C([100NH:0][100C:0](=O)N1CCCC(n2nc(-c3ccc(Oc4ccc(F)cc4F)cc3)c(C(N)=O)c2N)C1)c1nc(NC(C)C[101CH2:1][101O:1]c2ccc3c(c2)CN(C(=O)C(NC(=O)C(C)NC)C(C)(C)C)C(C(=O)NC2CCCc4ccccc42)C3)c(F)nc1C

> <Shape>
0.221

> <Color>
0.040

> <Negative vol penalty>
0.000

$$$$

  -OEChem-04052305243D

 84 92  0     1  0  0  0  0  0999 V2000
  -16.8114  -30.8965   24.0856 C   0  0  0  0  0  0  0  0  0  0  0  0
  -17.7375  -30.4009   24.9978 C   0  0  0  0  0  0  0  0  0  0  0  0
  -24.5536  -13.7855   20.2815 C   0  0  0  0  0  0  0  0  0  0  0  0
  -26.8180  -13.5012   21.0743 C   0  0  0  0  0  0  0  0  0  0  0  0
  -16.7755  -30.3920   22.7864 C   0  0  0  0  0  0  0  0  0  0  0  0
  -18.6277  -29.3995   24.6114 C   0  0  0  0  0  0  0  0  0  0  0  0
  -24.4156  -28.6954   26.4852 C   0  0  0  0  0  0  0  0  0  0  0  0
  -24.4275  -12.4031   20.1456 C   0  0  0  0  0  0  0  0  0  0  0  0
  -26.6920  -12.1187   20.9385 C   0  0  0  0  0  0  0  0  0  0  0  0
  -24.9945  -27.8790   27.4558 C   0  0  0  0  0  0  0  0  0  0  0  0
  -23.8674   -9.7433   22.1568 C   0  0  0  0  0  0  0  0  0  0  0  0
  -22.6971   -9.1496   22.6295 C   0  0  0  0  0  0  0  0  0  0  0  0
  -31.1371  -22.9314   23.4261 C   0  0  0  0  0  0  0  0  0  0  0  0
  -30.7680  -22.8651   24.8007 C   0  0  0  0  0  0  0  0  0  0  0  0
  -25.5387  -26.2553   25.7567 C   0  0  0  0  0  0  0  0  0  0  0  0
  -22.2149   -8.3313   20.4080 C   0  0  0  0  0  0  0  0  0  0  0  0
  -25.7489  -14.3346   20.7458 C   0  0  0  0  0  0  0  0  0  0  0  0
  -25.5793  -16.5365   22.0226 C   0  0  0  0  0  0  0  0  0  0  0  0
  -17.6721  -29.3907   22.3811 C   0  0  0  0  0  0  0  0  0  0  0  0
  -24.3841  -28.2923   25.1424 C   0  0  0  0  0  0  0  0  0  0  0  0
  -18.6030  -28.8801   23.3059 C   0  0  0  0  0  0  0  0  0  0  0  0
  -24.9610  -27.0696   24.7706 C   0  0  0  0  0  0  0  0  0  0  0  0
  -25.4967  -11.5696   20.4742 C   0  0  0  0  0  0  0  0  0  0  0  0
  -25.5536  -26.6574   27.0920 C   0  0  0  0  0  0  0  0  0  0  0  0
  -24.2114   -9.6312   20.8096 C   0  0  0  0  0  0  0  0  0  0  0  0
  -21.8709   -8.4435   21.7552 C   0  0  0  0  0  0  0  0  0  0  0  0
  -23.3851   -8.9251   19.9353 C   0  0  0  0  0  0  0  0  0  0  0  0
  -25.8799  -15.7627   20.8857 C   0  0  0  0  0  0  0  0  0  0  0  0
  -30.0443  -22.8444   22.5920 C   0  0  0  0  0  0  0  0  0  0  0  0
  -25.8730  -17.8250   21.6484 C   0  0  0  0  0  0  0  0  0  0  0  0
  -29.4068  -22.7301   24.9649 C   0  0  0  0  0  0  0  0  0  0  0  0
  -25.0793  -16.1273   23.3026 C   0  0  0  0  0  0  0  0  0  0  0  0
  -22.0821  -27.6640   23.0424 C   0  0  0  0  0  0  0  0  0  0  0  0
  -24.5719  -27.3994   20.9801 C   0  0  0  0  0  0  0  0  0  0  0  0
  -29.0609  -22.6425   27.4583 C   0  0  0  0  0  0  0  0  0  0  0  0
  -27.8993  -26.7984   20.5173 C   0  0  0  0  0  0  0  0  0  0  0  0
  -29.2378  -21.5277   19.1759 C   0  0  0  0  0  0  0  0  0  0  0  0
  -17.5640  -28.8432   20.9800 C   0  0  0  0  0  0  0  0  0  0  0  0
  -23.7796  -29.1965   24.1035 C   0  0  0  0  0  0  0  0  0  0  0  0
  -24.9711  -26.6001   23.3396 C   0  0  0  0  0  0  0  0  0  0  0  0
  -18.7900  -28.0468   20.5409 C   0  0  0  0  0  0  0  0  0  0  0  0
  -26.9369  -19.7718   17.1026 C   0  0  0  0  0  0  0  0  0  0  0  0
  -19.2110  -27.0692   21.6336 C   0  0  0  0  0  0  0  0  0  0  0  0
  -26.4371  -18.6331   17.9934 C   0  0  0  0  0  0  0  0  0  0  0  0
  -28.4136  -20.0735   17.3477 C   0  0  0  0  0  0  0  0  0  0  0  0
  -28.2671  -19.1969   19.6463 C   0  0  0  0  0  0  0  0  0  0  0  0
  -19.6015  -27.8115   22.9174 C   0  0  1  0  0  0  0  0  0  0  0  0
  -23.3453  -28.4531   22.8441 C   0  0  1  0  0  0  0  0  0  0  0  0
  -26.7688  -18.8934   19.4751 C   0  0  2  0  0  0  0  0  0  0  0  0
  -28.3051  -21.7327   29.6933 C   0  0  0  0  0  0  0  0  0  0  0  0
  -29.6355  -26.6129   18.7149 C   0  0  0  0  0  0  0  0  0  0  0  0
  -23.4954  -24.6446   20.2301 C   0  0  0  0  0  0  0  0  0  0  0  0
  -25.7155  -24.1371   19.1899 C   0  0  0  0  0  0  0  0  0  0  0  0
  -24.3203  -26.0034   18.2994 C   0  0  0  0  0  0  0  0  0  0  0  0
  -29.4668  -29.0463   21.6349 C   0  0  0  0  0  0  0  0  0  0  0  0
  -30.0097  -22.8726   21.1137 C   0  0  0  0  0  0  0  0  0  0  0  0
  -27.2815  -23.8789   28.7822 C   0  0  0  0  0  0  0  0  0  0  0  0
  -26.6730  -24.6201   27.5946 C   0  0  0  0  0  0  0  0  0  1  0  0
  -25.4744  -26.2750   20.5324 C   0  0  1  0  0  0  0  0  0  0  0  0
  -27.8918  -22.5083   28.4427 C   0  0  1  0  0  0  0  0  0  0  0  0
  -28.9538  -27.5365   19.7124 C   0  0  2  0  0  0  0  0  0  0  0  0
  -24.7496  -25.2727   19.5903 C   0  0  0  0  0  0  0  0  0  0  0  0
  -26.3300  -16.4981   19.8657 N   0  0  0  0  0  0  0  0  0  0  0  0
  -26.3142  -17.7477   20.3602 N   0  0  0  0  0  0  0  0  0  0  0  0
  -24.3624  -27.5167   22.3615 N   0  0  0  0  0  0  0  0  0  0  0  0
  -28.6608  -20.3126   18.7717 N   0  0  0  0  0  0  0  0  0  0  0  0
  -25.7942  -19.0053   22.2989 N   0  0  0  0  0  0  0  0  0  0  0  0
  -24.8317  -14.7648   23.5186 N   0  0  0  0  0  0  0  0  0  0  0  0
  -28.6215  -22.6288   26.1378 N   0  0  0  0  0  0  0  0  0  0  0  0
  -20.9268  -28.3788   22.7899 N   0  0  0  0  0  0  0  0  0  0  0  0
  -26.6504  -26.9057   19.9428 N   0  0  0  0  0  0  0  0  0  0  0  0
  -29.4321  -21.6757   20.5438 N   0  0  0  0  0  0  0  0  0  0  0  0
  -29.9945  -28.1015   20.6171 N   0  3  0  0  0  0  0  0  0  0  0  0
  -24.8430  -16.9475   24.2218 O   0  0  0  0  0  0  0  0  0  0  0  0
  -22.1506  -26.4930   23.3968 O   0  0  0  0  0  0  0  0  0  0  0  0
  -24.0770  -28.1503   20.1358 O   0  0  0  0  0  0  0  0  0  0  0  0
  -30.2200  -22.7477   27.8494 O   0  0  0  0  0  0  0  0  0  0  0  0
  -28.1583  -26.1848   21.5502 O   0  0  0  0  0  0  0  0  0  0  0  0
  -29.5514  -22.4172   18.3775 O   0  0  0  0  0  0  0  0  0  0  0  0
  -25.3739  -10.2206   20.3420 O   0  0  0  0  0  0  0  0  0  0  0  0
  -26.1188  -25.8583   28.0375 O   0  0  0  0  0  0  0  0  0  1  0  0
  -20.7479   -7.8721   22.2097 F   0  0  0  0  0  0  0  0  0  0  0  0
  -23.7110   -8.8129   18.6403 F   0  0  0  0  0  0  0  0  0  0  0  0
  -28.5804  -22.6836   23.4658 S   0  0  0  0  0  0  0  0  0  0  0  0
  1  2  1  0  0  0  0
  1  5  2  0  0  0  0
  2  6  2  0  0  0  0
  3  8  2  0  0  0  0
  3 17  1  0  0  0  0
  4  9  1  0  0  0  0
  4 17  2  0  0  0  0
  5 19  1  0  0  0  0
  6 21  1  0  0  0  0
  7 10  2  0  0  0  0
  7 20  1  0  0  0  0
  8 23  1  0  0  0  0
  9 23  2  0  0  0  0
 10 24  1  0  0  0  0
 11 12  2  0  0  0  0
 11 25  1  0  0  0  0
 12 26  1  0  0  0  0
 13 14  1  0  0  0  0
 13 29  2  0  0  0  0
 14 31  2  0  0  0  0
 15 22  1  0  0  0  0
 15 24  2  0  0  0  0
 16 26  2  0  0  0  0
 16 27  1  0  0  0  0
 17 28  1  0  0  0  0
 18 28  1  0  0  0  0
 18 30  2  0  0  0  0
 18 32  1  0  0  0  0
 19 21  2  0  0  0  0
 19 38  1  0  0  0  0
 20 22  2  0  0  0  0
 20 39  1  0  0  0  0
 21 47  1  0  0  0  0
 22 40  1  0  0  0  0
 23 80  1  0  0  0  0
 24 81  1  0  0  0  0
 25 27  2  0  0  0  0
 25 80  1  0  0  0  0
 26 82  1  0  0  0  0
 27 83  1  0  0  0  0
 28 63  2  0  0  0  0
 29 56  1  0  0  0  0
 29 84  1  0  0  0  0
 30 64  1  0  0  0  0
 30 67  1  0  0  0  0
 31 69  1  0  0  0  0
 31 84  1  0  0  0  0
 32 68  1  0  0  0  0
 32 74  2  0  0  0  0
 33 48  1  0  0  0  0
 33 70  1  0  0  0  0
 33 75  2  0  0  0  0
 34 59  1  0  0  0  0
 34 65  1  0  0  0  0
 34 76  2  0  0  0  0
 35 60  1  0  0  0  0
 35 69  1  0  0  0  0
 35 77  2  0  0  0  0
 36 61  1  0  0  0  0
 36 71  1  0  0  0  0
 36 78  2  0  0  0  0
 37 66  1  0  0  0  0
 37 72  1  0  0  0  0
 37 79  2  0  0  0  0
 38 41  1  0  0  0  0
 39 48  1  0  0  0  0
 40 65  1  0  0  0  0
 41 43  1  0  0  0  0
 42 44  1  0  0  0  0
 42 45  1  0  0  0  0
 43 47  1  0  0  0  0
 44 49  1  0  0  0  0
 45 66  1  0  0  0  0
 46 49  1  0  0  0  0
 46 66  1  0  0  0  0
 47 70  1  0  0  0  0
 48 65  1  0  0  0  0
 49 64  1  0  0  0  0
 50 60  1  0  0  0  0
 51 61  1  0  0  0  0
 52 62  1  0  0  0  0
 53 62  1  0  0  0  0
 54 62  1  0  0  0  0
 55 73  1  0  0  0  0
 56 72  1  0  0  0  0
 57 58  1  0  0  0  0
 57 60  1  0  0  0  0
 58 81  1  0  0  0  0
 59 62  1  0  0  0  0
 59 71  1  0  0  0  0
 61 73  1  0  0  0  0
 63 64  1  0  0  0  0
M  CHG  1  73   1
M  ISO  4  37 100  58 101  72 100  81 101
M  END
> <Batch ID>
0191

> <Smiles>
CNC(C)C(=O)NC(C(=O)N1Cc2cc([101O:1][101CH2:1]CC(C)C(=O)Nc3ccc(C[100NH:0][100C:0](=O)N4CCCC(n5nc(-c6ccc(Oc7ccc(F)cc7F)cc6)c(C(N)=O)c5N)C4)s3)ccc2CC1C(=O)NC1CCCc2ccccc21)C(C)(C)C

> <Shape>
0.220

> <Color>
0.067

> <Negative vol penalty>
0.000

$$$$

  -OEChem-04052305243D

 85 93  0     1  0  0  0  0  0999 V2000
  -30.1650  -23.8253   17.6216 C   0  0  0  0  0  0  0  0  0  0  0  0
  -28.9322  -23.8565   18.2656 C   0  0  0  0  0  0  0  0  0  0  0  0
  -27.4572  -14.8616   19.2634 C   0  0  0  0  0  0  0  0  0  0  0  0
  -25.5819  -15.4724   20.6588 C   0  0  0  0  0  0  0  0  0  0  0  0
  -31.2083  -24.6308   18.0762 C   0  0  0  0  0  0  0  0  0  0  0  0
  -28.7424  -24.6925   19.3654 C   0  0  0  0  0  0  0  0  0  0  0  0
  -24.3531  -27.2097   19.1576 C   0  0  0  0  0  0  0  0  0  0  0  0
  -27.2115  -13.5134   19.5233 C   0  0  0  0  0  0  0  0  0  0  0  0
  -25.3362  -14.1242   20.9188 C   0  0  0  0  0  0  0  0  0  0  0  0
  -23.1992  -26.5069   19.5017 C   0  0  0  0  0  0  0  0  0  0  0  0
  -23.8865  -11.5093   19.3435 C   0  0  0  0  0  0  0  0  0  0  0  0
  -22.5653  -11.0676   19.2733 C   0  0  0  0  0  0  0  0  0  0  0  0
  -23.2474  -27.5131   21.6937 C   0  0  0  0  0  0  0  0  0  0  0  0
  -22.6701  -10.3863   21.5889 C   0  0  0  0  0  0  0  0  0  0  0  0
  -26.6424  -15.8411   19.8311 C   0  0  0  0  0  0  0  0  0  0  0  0
  -26.3665  -18.0080   18.5135 C   0  0  0  0  0  0  0  0  0  0  0  0
  -31.0282  -25.4842   19.1761 C   0  0  0  0  0  0  0  0  0  0  0  0
  -24.9701  -28.0625   20.0842 C   0  0  0  0  0  0  0  0  0  0  0  0
  -29.7847  -25.5092   19.8360 C   0  0  0  0  0  0  0  0  0  0  0  0
  -24.4076  -28.2275   21.3580 C   0  0  0  0  0  0  0  0  0  0  0  0
  -26.1511  -13.1447   20.3510 C   0  0  0  0  0  0  0  0  0  0  0  0
  -22.6478  -26.6564   20.7709 C   0  0  0  0  0  0  0  0  0  0  0  0
  -24.5996  -11.3894   20.5364 C   0  0  0  0  0  0  0  0  0  0  0  0
  -21.9571  -10.5061   20.3960 C   0  0  0  0  0  0  0  0  0  0  0  0
  -23.9913  -10.8280   21.6591 C   0  0  0  0  0  0  0  0  0  0  0  0
  -26.8960  -17.2340   19.5634 C   0  0  0  0  0  0  0  0  0  0  0  0
  -25.7363  -22.5650   25.2279 C   0  0  0  0  0  0  0  0  0  0  0  0
  -25.1876  -22.2059   26.4412 C   0  0  0  0  0  0  0  0  0  0  0  0
  -26.9098  -19.2557   18.6989 C   0  0  0  0  0  0  0  0  0  0  0  0
  -23.6411  -22.3912   24.6036 C   0  0  0  0  0  0  0  0  0  0  0  0
  -25.4642  -17.6326   17.4644 C   0  0  0  0  0  0  0  0  0  0  0  0
  -27.8138  -28.1540   21.5014 C   0  0  0  0  0  0  0  0  0  0  0  0
  -26.7231  -30.9903   22.6361 C   0  0  0  0  0  0  0  0  0  0  0  0
  -24.0503  -32.9625   23.4196 C   0  0  0  0  0  0  0  0  0  0  0  0
  -29.0389  -22.1007   23.5180 C   0  0  0  0  0  0  0  0  0  0  0  0
  -32.1997  -26.3014   19.6603 C   0  0  0  0  0  0  0  0  0  0  0  0
  -26.1992  -28.8340   19.6885 C   0  0  0  0  0  0  0  0  0  0  0  0
  -25.0200  -29.1463   22.3823 C   0  0  0  0  0  0  0  0  0  0  0  0
  -31.8033  -27.4366   20.6009 C   0  0  0  0  0  0  0  0  0  0  0  0
  -30.7806  -21.4263   20.4868 C   0  0  0  0  0  0  0  0  0  0  0  0
  -30.8260  -26.9359   21.6596 C   0  0  0  0  0  0  0  0  0  0  0  0
  -29.9348  -20.3452   19.8117 C   0  0  0  0  0  0  0  0  0  0  0  0
  -30.8082  -21.2557   22.0040 C   0  0  0  0  0  0  0  0  0  0  0  0
  -28.6353  -20.0935   21.9673 C   0  0  0  0  0  0  0  0  0  0  0  0
  -29.5324  -26.4212   21.0170 C   0  0  1  0  0  0  0  0  0  0  0  0
  -27.0348  -29.2808   20.8840 C   0  0  1  0  0  0  0  0  0  0  0  0
  -28.5315  -20.2566   20.4412 C   0  0  2  0  0  0  0  0  0  0  0  0
  -25.8323  -22.0033   27.7540 C   0  0  0  0  0  0  0  0  0  0  0  0
  -23.4738  -35.2149   24.3639 C   0  0  0  0  0  0  0  0  0  0  0  0
  -23.0423  -21.5170   21.6248 C   0  0  0  0  0  0  0  0  0  0  0  0
  -27.3931  -29.9845   25.4378 C   0  0  0  0  0  0  0  0  0  0  0  0
  -25.9564  -31.8145   26.3628 C   0  0  0  0  0  0  0  0  0  0  0  0
  -27.9818  -32.3790   25.0205 C   0  0  0  0  0  0  0  0  0  0  0  0
  -22.6731  -33.7819   20.9314 C   0  0  0  0  0  0  0  0  0  0  0  0
  -27.1642  -22.8393   24.9669 C   0  0  0  0  0  0  0  0  0  0  0  0
  -21.1154  -23.1111   21.9276 C   0  0  0  0  0  0  0  0  0  0  0  0
  -21.3641  -25.6197   22.4836 C   0  0  0  0  0  0  0  0  0  1  0  0
  -25.9493  -31.4272   23.8566 C   0  0  1  0  0  0  0  0  0  0  0  0
  -23.7410  -34.4137   23.0992 C   0  0  2  0  0  0  0  0  0  0  0  0
  -22.5237  -22.7260   22.3980 C   0  0  1  0  0  0  0  0  0  0  0  0
  -20.5230  -24.3522   22.6151 C   0  0  1  0  0  0  0  0  0  0  0  0
  -26.8095  -31.3824   25.1510 C   0  0  0  0  0  0  0  0  0  0  0  0
  -27.7131  -17.9316   20.3570 N   0  0  0  0  0  0  0  0  0  0  0  0
  -24.8511  -22.6713   24.1730 N   0  0  0  0  0  0  0  0  0  0  0  0
  -27.7012  -19.1570   19.8053 N   0  0  0  0  0  0  0  0  0  0  0  0
  -26.2246  -29.8739   21.9499 N   0  0  0  0  0  0  0  0  0  0  0  0
  -29.4464  -21.1801   22.5385 N   0  0  0  0  0  0  0  0  0  0  0  0
  -26.7832  -20.4167   18.0217 N   0  0  0  0  0  0  0  0  0  0  0  0
  -25.0025  -16.3100   17.4216 N   0  0  0  0  0  0  0  0  0  0  0  0
  -22.5088  -22.4013   23.8086 N   0  0  0  0  0  0  0  0  0  0  0  0
  -28.6849  -27.5286   20.6299 N   0  0  0  0  0  0  0  0  0  0  0  0
  -25.4060  -32.7449   23.5454 N   0  0  0  0  0  0  0  0  0  0  0  0
  -27.7308  -21.9631   23.9658 N   0  0  0  0  0  0  0  0  0  0  0  0
  -22.5399  -34.5059   22.2218 N   0  3  0  0  0  0  0  0  0  0  0  0
  -25.0916  -18.4418   16.5812 O   0  0  0  0  0  0  0  0  0  0  0  0
  -27.6387  -27.8737   22.6814 O   0  0  0  0  0  0  0  0  0  0  0  0
  -27.7285  -31.6209   22.2999 O   0  0  0  0  0  0  0  0  0  0  0  0
  -23.1763  -32.1081   23.5492 O   0  0  0  0  0  0  0  0  0  0  0  0
  -29.7840  -22.9835   23.9568 O   0  0  0  0  0  0  0  0  0  0  0  0
  -19.2448  -24.6199   22.0319 O   0  0  0  0  0  0  0  0  0  0  0  0
  -25.9109  -11.8292   20.6047 O   0  0  0  0  0  0  0  0  0  0  0  0
  -21.5219  -25.9711   21.1096 O   0  0  0  0  0  0  0  0  0  1  0  0
  -20.6879  -10.0834   20.3289 F   0  0  0  0  0  0  0  0  0  0  0  0
  -24.6709  -10.7113   22.8082 F   0  0  0  0  0  0  0  0  0  0  0  0
  -23.4950  -21.9920   26.2663 S   0  0  0  0  0  0  0  0  0  0  0  0
  1  2  1  0  0  0  0
  1  5  2  0  0  0  0
  2  6  2  0  0  0  0
  3  8  2  0  0  0  0
  3 15  1  0  0  0  0
  4  9  1  0  0  0  0
  4 15  2  0  0  0  0
  5 17  1  0  0  0  0
  6 19  1  0  0  0  0
  7 10  2  0  0  0  0
  7 18  1  0  0  0  0
  8 21  1  0  0  0  0
  9 21  2  0  0  0  0
 10 22  1  0  0  0  0
 11 12  2  0  0  0  0
 11 23  1  0  0  0  0
 12 24  1  0  0  0  0
 13 20  1  0  0  0  0
 13 22  2  0  0  0  0
 14 24  2  0  0  0  0
 14 25  1  0  0  0  0
 15 26  1  0  0  0  0
 16 26  1  0  0  0  0
 16 29  2  0  0  0  0
 16 31  1  0  0  0  0
 17 19  2  0  0  0  0
 17 36  1  0  0  0  0
 18 20  2  0  0  0  0
 18 37  1  0  0  0  0
 19 45  1  0  0  0  0
 20 38  1  0  0  0  0
 21 81  1  0  0  0  0
 22 82  1  0  0  0  0
 23 25  2  0  0  0  0
 23 81  1  0  0  0  0
 24 83  1  0  0  0  0
 25 84  1  0  0  0  0
 26 63  2  0  0  0  0
 27 28  2  0  0  0  0
 27 55  1  0  0  0  0
 27 64  1  0  0  0  0
 28 48  1  0  0  0  0
 28 85  1  0  0  0  0
 29 65  1  0  0  0  0
 29 68  1  0  0  0  0
 30 64  2  0  0  0  0
 30 70  1  0  0  0  0
 30 85  1  0  0  0  0
 31 69  1  0  0  0  0
 31 75  2  0  0  0  0
 32 46  1  0  0  0  0
 32 71  1  0  0  0  0
 32 76  2  0  0  0  0
 33 58  1  0  0  0  0
 33 66  1  0  0  0  0
 33 77  2  0  0  0  0
 34 59  1  0  0  0  0
 34 72  1  0  0  0  0
 34 78  2  0  0  0  0
 35 67  1  0  0  0  0
 35 73  1  0  0  0  0
 35 79  2  0  0  0  0
 36 39  1  0  0  0  0
 37 46  1  0  0  0  0
 38 66  1  0  0  0  0
 39 41  1  0  0  0  0
 40 42  1  0  0  0  0
 40 43  1  0  0  0  0
 41 45  1  0  0  0  0
 42 47  1  0  0  0  0
 43 67  1  0  0  0  0
 44 47  1  0  0  0  0
 44 67  1  0  0  0  0
 45 71  1  0  0  0  0
 46 66  1  0  0  0  0
 47 65  1  0  0  0  0
 49 59  1  0  0  0  0
 50 60  1  0  0  0  0
 51 62  1  0  0  0  0
 52 62  1  0  0  0  0
 53 62  1  0  0  0  0
 54 74  1  0  0  0  0
 55 73  1  0  0  0  0
 56 60  1  0  0  0  0
 56 61  1  0  0  0  0
 57 61  1  0  0  0  0
 57 82  1  0  0  0  0
 58 62  1  0  0  0  0
 58 72  1  0  0  0  0
 59 74  1  0  0  0  0
 60 70  1  0  0  0  0
 61 80  1  0  0  0  0
 63 65  1  0  0  0  0
M  CHG  1  74   1
M  ISO  4  35 100  57 101  73 100  82 101
M  END
> <Batch ID>
0191

> <Smiles>
CNC(C)C(=O)NC(C(=O)N1Cc2cc([101O:1][101CH2:1]C(O)CC(C)Nc3nc(C[100NH:0][100C:0](=O)N4CCCC(n5nc(-c6ccc(Oc7ccc(F)cc7F)cc6)c(C(N)=O)c5N)C4)c(C)s3)ccc2CC1C(=O)NC1CCCc2ccccc21)C(C)(C)C

> <Shape>
0.272

> <Color>
0.058

> <Negative vol penalty>
0.000

$$$$

  -OEChem-04052305243D

 87 95  0     1  0  0  0  0  0999 V2000
  -17.9341  -32.6937   22.9260 C   0  0  0  0  0  0  0  0  0  0  0  0
  -19.0961  -32.7410   22.1624 C   0  0  0  0  0  0  0  0  0  0  0  0
  -24.6428   -8.8643   21.4374 C   0  0  0  0  0  0  0  0  0  0  0  0
  -23.0096  -10.6255   21.1771 C   0  0  0  0  0  0  0  0  0  0  0  0
  -17.8179  -31.7654   23.9597 C   0  0  0  0  0  0  0  0  0  0  0  0
  -20.1431  -31.8607   22.4330 C   0  0  0  0  0  0  0  0  0  0  0  0
  -25.3776  -28.2347   19.1514 C   0  0  0  0  0  0  0  0  0  0  0  0
  -23.8387   -8.2616   22.4047 C   0  0  0  0  0  0  0  0  0  0  0  0
  -22.2054  -10.0228   22.1444 C   0  0  0  0  0  0  0  0  0  0  0  0
  -26.7543  -28.0273   19.2254 C   0  0  0  0  0  0  0  0  0  0  0  0
  -21.0707   -6.3214   22.4865 C   0  0  0  0  0  0  0  0  0  0  0  0
  -20.8848   -4.9413   22.4068 C   0  0  0  0  0  0  0  0  0  0  0  0
  -26.4104  -26.4131   20.9848 C   0  0  0  0  0  0  0  0  0  0  0  0
  -30.5066  -20.7103   20.8175 C   0  0  0  0  0  0  0  0  0  0  0  0
  -21.8610   -4.6830   24.6016 C   0  0  0  0  0  0  0  0  0  0  0  0
  -28.1361  -20.6126   20.6511 C   0  0  0  0  0  0  0  0  0  0  0  0
  -24.2283  -10.0464   20.8236 C   0  0  0  0  0  0  0  0  0  0  0  0
  -25.0341  -10.4419   18.4358 C   0  0  0  0  0  0  0  0  0  0  0  0
  -18.8602  -30.8668   24.2369 C   0  0  0  0  0  0  0  0  0  0  0  0
  -24.5063  -27.5398   20.0024 C   0  0  0  0  0  0  0  0  0  0  0  0
  -20.0413  -30.9203   23.4723 C   0  0  0  0  0  0  0  0  0  0  0  0
  -25.0229  -26.6117   20.9178 C   0  0  0  0  0  0  0  0  0  0  0  0
  -30.5433  -19.3278   20.6737 C   0  0  0  0  0  0  0  0  0  0  0  0
  -29.2841  -21.3726   20.8071 C   0  0  0  0  0  0  0  0  0  0  0  0
  -22.6200   -8.8407   22.7581 C   0  0  0  0  0  0  0  0  0  0  0  0
  -27.2711  -27.1185   20.1442 C   0  0  0  0  0  0  0  0  0  0  0  0
  -21.6518   -6.8823   23.6238 C   0  0  0  0  0  0  0  0  0  0  0  0
  -21.2799   -4.1221   23.4643 C   0  0  0  0  0  0  0  0  0  0  0  0
  -22.0469   -6.0631   24.6814 C   0  0  0  0  0  0  0  0  0  0  0  0
  -25.0588  -10.6698   19.8247 C   0  0  0  0  0  0  0  0  0  0  0  0
  -29.3389  -18.6593   20.5238 C   0  0  0  0  0  0  0  0  0  0  0  0
  -26.0073  -11.2714   17.9344 C   0  0  0  0  0  0  0  0  0  0  0  0
  -24.2056   -9.5594   17.6674 C   0  0  0  0  0  0  0  0  0  0  0  0
  -22.4351  -28.3787   22.2630 C   0  0  0  0  0  0  0  0  0  0  0  0
  -21.7107  -25.2170   22.2266 C   0  0  0  0  0  0  0  0  0  0  0  0
  -22.6972  -22.0266   21.5230 C   0  0  0  0  0  0  0  0  0  0  0  0
  -30.2724  -23.6650   21.1145 C   0  0  0  0  0  0  0  0  0  0  0  0
  -28.2374  -16.3458   20.2061 C   0  0  0  0  0  0  0  0  0  0  0  0
  -18.7075  -29.9127   25.3949 C   0  0  0  0  0  0  0  0  0  0  0  0
  -23.0218  -27.7552   19.8917 C   0  0  0  0  0  0  0  0  0  0  0  0
  -24.1285  -25.8253   21.8399 C   0  0  0  0  0  0  0  0  0  0  0  0
  -19.7136  -28.7648   25.3752 C   0  0  0  0  0  0  0  0  0  0  0  0
  -30.1273  -13.3607   19.0885 C   0  0  0  0  0  0  0  0  0  0  0  0
  -21.1177  -29.2904   25.0941 C   0  0  0  0  0  0  0  0  0  0  0  0
  -29.0337  -12.2981   19.1052 C   0  0  0  0  0  0  0  0  0  0  0  0
  -29.9149  -14.4251   20.1641 C   0  0  0  0  0  0  0  0  0  0  0  0
  -27.4669  -13.9938   20.1208 C   0  0  0  0  0  0  0  0  0  0  0  0
  -21.1891  -29.9655   23.7191 C   0  0  1  0  0  0  0  0  0  0  0  0
  -22.2662  -27.3720   21.1604 C   0  0  1  0  0  0  0  0  0  0  0  0
  -27.6481  -12.9524   19.0071 C   0  0  2  0  0  0  0  0  0  0  0  0
  -32.6012  -18.7867   22.0249 C   0  0  0  0  0  0  0  0  0  0  0  0
  -32.7692  -19.0511   19.5235 C   0  0  0  0  0  0  0  0  0  0  0  0
  -21.9024  -19.6490   21.6351 C   0  0  0  0  0  0  0  0  0  0  0  0
  -30.0005  -25.6110   18.7524 C   0  0  0  0  0  0  0  0  0  0  0  0
  -22.1981  -25.1985   25.2386 C   0  0  0  0  0  0  0  0  0  0  0  0
  -22.3287  -22.7006   25.1319 C   0  0  0  0  0  0  0  0  0  0  0  0
  -20.2172  -23.8658   24.4942 C   0  0  0  0  0  0  0  0  0  0  0  0
  -22.9185  -21.6924   18.5907 C   0  0  0  0  0  0  0  0  0  0  0  0
  -31.8557  -18.6205   20.6869 C   0  0  0  0  0  0  0  0  0  0  0  0
  -22.2182  -23.9955   22.9542 C   0  0  1  0  0  0  0  0  0  0  0  0
  -22.0058  -20.9000   20.7766 C   0  0  2  0  0  0  0  0  0  0  0  0
  -29.7929  -25.1014   21.2348 C   0  0  2  0  0  0  0  0  0  0  0  0
  -29.0853  -25.5906   19.9703 C   0  0  1  0  0  0  0  0  0  1  0  0
  -21.7578  -23.9562   24.4388 C   0  0  0  0  0  0  0  0  0  0  0  0
  -28.1320  -19.2682   20.5086 N   0  0  0  0  0  0  0  0  0  0  0  0
  -25.9751  -11.5732   20.1829 N   0  0  0  0  0  0  0  0  0  0  0  0
  -26.5353  -11.9202   19.0116 N   0  0  0  0  0  0  0  0  0  0  0  0
  -22.6847  -26.0758   21.6978 N   0  0  0  0  0  0  0  0  0  0  0  0
  -28.5548  -14.9786   20.1311 N   0  0  0  0  0  0  0  0  0  0  0  0
  -26.4543  -11.5018   16.6816 N   0  0  0  0  0  0  0  0  0  0  0  0
  -23.2568   -8.7782   18.3411 N   0  0  0  0  0  0  0  0  0  0  0  0
  -29.2155  -22.7785   20.9512 N   0  0  0  0  0  0  0  0  0  0  0  0
  -29.3645  -17.2330   20.3741 N   0  0  0  0  0  0  0  0  0  0  0  0
  -21.2547  -28.9704   22.6703 N   0  0  0  0  0  0  0  0  0  0  0  0
  -21.7920  -22.8443   22.1658 N   0  0  0  0  0  0  0  0  0  0  0  0
  -22.7614  -20.5589   19.5381 N   0  3  0  0  0  0  0  0  0  0  0  0
  -24.3148   -9.4543   16.4222 O   0  0  0  0  0  0  0  0  0  0  0  0
  -23.5535  -28.6009   22.7121 O   0  0  0  0  0  0  0  0  0  0  0  0
  -20.4949  -25.3986   22.1248 O   0  0  0  0  0  0  0  0  0  0  0  0
  -23.9183  -22.1651   21.5377 O   0  0  0  0  0  0  0  0  0  0  0  0
  -31.4699  -23.4021   21.1765 O   0  0  0  0  0  0  0  0  0  0  0  0
  -27.0804  -16.7605   20.1743 O   0  0  0  0  0  0  0  0  0  0  0  0
  -21.8350   -8.2527   23.7018 O   0  0  0  0  0  0  0  0  0  0  0  0
  -28.6145  -26.9146   20.2190 O   0  0  0  0  0  0  0  0  0  1  0  0
  -21.0999   -2.7970   23.3882 F   0  0  0  0  0  0  0  0  0  0  0  0
  -22.6047   -6.5963   25.7770 F   0  0  0  0  0  0  0  0  0  0  0  0
  -30.8433  -25.9329   21.4966 F   0  0  0  0  0  0  0  0  0  0  0  0
  1  2  1  0  0  0  0
  1  5  2  0  0  0  0
  2  6  2  0  0  0  0
  3  8  2  0  0  0  0
  3 17  1  0  0  0  0
  4  9  1  0  0  0  0
  4 17  2  0  0  0  0
  5 19  1  0  0  0  0
  6 21  1  0  0  0  0
  7 10  2  0  0  0  0
  7 20  1  0  0  0  0
  8 25  1  0  0  0  0
  9 25  2  0  0  0  0
 10 26  1  0  0  0  0
 11 12  2  0  0  0  0
 11 27  1  0  0  0  0
 12 28  1  0  0  0  0
 13 22  1  0  0  0  0
 13 26  2  0  0  0  0
 14 23  1  0  0  0  0
 14 24  2  0  0  0  0
 15 28  2  0  0  0  0
 15 29  1  0  0  0  0
 16 24  1  0  0  0  0
 16 65  2  0  0  0  0
 17 30  1  0  0  0  0
 18 30  1  0  0  0  0
 18 32  2  0  0  0  0
 18 33  1  0  0  0  0
 19 21  2  0  0  0  0
 19 39  1  0  0  0  0
 20 22  2  0  0  0  0
 20 40  1  0  0  0  0
 21 48  1  0  0  0  0
 22 41  1  0  0  0  0
 23 31  2  0  0  0  0
 23 59  1  0  0  0  0
 24 72  1  0  0  0  0
 25 83  1  0  0  0  0
 26 84  1  0  0  0  0
 27 29  2  0  0  0  0
 27 83  1  0  0  0  0
 28 85  1  0  0  0  0
 29 86  1  0  0  0  0
 30 66  2  0  0  0  0
 31 65  1  0  0  0  0
 31 73  1  0  0  0  0
 32 67  1  0  0  0  0
 32 70  1  0  0  0  0
 33 71  1  0  0  0  0
 33 77  2  0  0  0  0
 34 49  1  0  0  0  0
 34 74  1  0  0  0  0
 34 78  2  0  0  0  0
 35 60  1  0  0  0  0
 35 68  1  0  0  0  0
 35 79  2  0  0  0  0
 36 61  1  0  0  0  0
 36 75  1  0  0  0  0
 36 80  2  0  0  0  0
 37 62  1  0  0  0  0
 37 72  1  0  0  0  0
 37 81  2  0  0  0  0
 38 69  1  0  0  0  0
 38 73  1  0  0  0  0
 38 82  2  0  0  0  0
 39 42  1  0  0  0  0
 40 49  1  0  0  0  0
 41 68  1  0  0  0  0
 42 44  1  0  0  0  0
 43 45  1  0  0  0  0
 43 46  1  0  0  0  0
 44 48  1  0  0  0  0
 45 50  1  0  0  0  0
 46 69  1  0  0  0  0
 47 50  1  0  0  0  0
 47 69  1  0  0  0  0
 48 74  1  0  0  0  0
 49 68  1  0  0  0  0
 50 67  1  0  0  0  0
 51 59  1  0  0  0  0
 52 59  1  0  0  0  0
 53 61  1  0  0  0  0
 54 63  1  0  0  0  0
 55 64  1  0  0  0  0
 56 64  1  0  0  0  0
 57 64  1  0  0  0  0
 58 76  1  0  0  0  0
 60 64  1  0  0  0  0
 60 75  1  0  0  0  0
 61 76  1  0  0  0  0
 62 63  1  0  0  0  0
 62 87  1  0  0  0  0
 63 84  1  0  0  0  0
 66 67  1  0  0  0  0
M  CHG  1  76   1
M  ISO  4  38 100  63 101  73 100  84 101
M  END
> <Batch ID>
0191

> <Smiles>
CNC(C)C(=O)NC(C(=O)N1Cc2cc([101O:1][101CH:1](C)C(F)C(=O)Nc3cnc([100NH:0][100C:0](=O)N4CCCC(n5nc(-c6ccc(Oc7ccc(F)cc7F)cc6)c(C(N)=O)c5N)C4)c(C(C)C)c3)ccc2CC1C(=O)NC1CCCc2ccccc21)C(C)(C)C

> <Shape>
0.265

> <Color>
0.106

> <Negative vol penalty>
0.000

$$$$

  -OEChem-04052305243D

 87 95  0     1  0  0  0  0  0999 V2000
  -20.9664  -29.7110   25.1185 C   0  0  0  0  0  0  0  0  0  0  0  0
  -21.6125  -28.5138   25.4095 C   0  0  0  0  0  0  0  0  0  0  0  0
  -30.1308  -23.9712   19.2677 C   0  0  0  0  0  0  0  0  0  0  0  0
  -28.5361  -23.5981   21.0439 C   0  0  0  0  0  0  0  0  0  0  0  0
  -20.0929  -29.7848   24.0343 C   0  0  0  0  0  0  0  0  0  0  0  0
  -21.3846  -27.3893   24.6170 C   0  0  0  0  0  0  0  0  0  0  0  0
  -25.4289  -23.0239   23.1707 C   0  0  0  0  0  0  0  0  0  0  0  0
  -29.8245  -25.3319   19.2785 C   0  0  0  0  0  0  0  0  0  0  0  0
  -28.2298  -24.9589   21.0547 C   0  0  0  0  0  0  0  0  0  0  0  0
  -25.6664  -21.7541   23.6952 C   0  0  0  0  0  0  0  0  0  0  0  0
  -26.3676  -27.1080   19.2259 C   0  0  0  0  0  0  0  0  0  0  0  0
  -25.0213  -27.4688   19.2792 C   0  0  0  0  0  0  0  0  0  0  0  0
  -24.2827  -20.7895   21.9706 C   0  0  0  0  0  0  0  0  0  0  0  0
  -25.4170  -28.6379   21.3562 C   0  0  0  0  0  0  0  0  0  0  0  0
  -29.4865  -23.1042   20.1504 C   0  0  0  0  0  0  0  0  0  0  0  0
  -30.7946  -21.0439   20.8933 C   0  0  0  0  0  0  0  0  0  0  0  0
  -19.8616  -28.6633   23.2223 C   0  0  0  0  0  0  0  0  0  0  0  0
  -24.6064  -23.1873   22.0467 C   0  0  0  0  0  0  0  0  0  0  0  0
  -20.5062  -27.4478   23.5217 C   0  0  0  0  0  0  0  0  0  0  0  0
  -24.0385  -22.0621   21.4322 C   0  0  0  0  0  0  0  0  0  0  0  0
  -28.8741  -25.8258   20.1720 C   0  0  0  0  0  0  0  0  0  0  0  0
  -25.0909  -20.6370   23.0970 C   0  0  0  0  0  0  0  0  0  0  0  0
  -27.2386  -27.5120   20.2378 C   0  0  0  0  0  0  0  0  0  0  0  0
  -24.5460  -28.2338   20.3444 C   0  0  0  0  0  0  0  0  0  0  0  0
  -26.7633  -28.2770   21.3029 C   0  0  0  0  0  0  0  0  0  0  0  0
  -29.8021  -21.6984   20.1393 C   0  0  0  0  0  0  0  0  0  0  0  0
  -25.9746  -12.5306   20.0730 C   0  0  0  0  0  0  0  0  0  0  0  0
  -30.6916  -19.7248   20.5249 C   0  0  0  0  0  0  0  0  0  0  0  0
  -25.0544  -11.5408   19.7982 C   0  0  0  0  0  0  0  0  0  0  0  0
  -24.6453  -12.8300   21.7914 C   0  0  0  0  0  0  0  0  0  0  0  0
  -31.7263  -21.5805   21.8419 C   0  0  0  0  0  0  0  0  0  0  0  0
  -21.8639  -24.6885   21.4734 C   0  0  0  0  0  0  0  0  0  0  0  0
  -22.4722  -23.8081   18.4112 C   0  0  0  0  0  0  0  0  0  0  0  0
  -24.0495  -21.6688   16.2705 C   0  0  0  0  0  0  0  0  0  0  0  0
  -27.6491  -15.2816   19.5510 C   0  0  0  0  0  0  0  0  0  0  0  0
  -18.8725  -28.7787   22.0896 C   0  0  0  0  0  0  0  0  0  0  0  0
  -24.3818  -24.5611   21.4771 C   0  0  0  0  0  0  0  0  0  0  0  0
  -23.1642  -22.1818   20.2116 C   0  0  0  0  0  0  0  0  0  0  0  0
  -18.9733  -27.6427   21.0749 C   0  0  0  0  0  0  0  0  0  0  0  0
  -28.1014  -17.5466   16.7649 C   0  0  0  0  0  0  0  0  0  0  0  0
  -19.0534  -26.2962   21.7871 C   0  0  0  0  0  0  0  0  0  0  0  0
  -28.6703  -18.7815   17.4661 C   0  0  0  0  0  0  0  0  0  0  0  0
  -27.0402  -16.8637   17.6225 C   0  0  0  0  0  0  0  0  0  0  0  0
  -28.0697  -17.7200   19.6915 C   0  0  0  0  0  0  0  0  0  0  0  0
  -20.3040  -26.2130   22.6707 C   0  0  1  0  0  0  0  0  0  0  0  0
  -23.1120  -24.6594   20.6372 C   0  0  1  0  0  0  0  0  0  0  0  0
  -29.1641  -18.4425   18.8850 C   0  0  2  0  0  0  0  0  0  0  0  0
  -24.0970  -13.1594   27.3176 C   0  0  0  0  0  0  0  0  0  0  0  0
  -24.3263  -21.1771   13.8253 C   0  0  0  0  0  0  0  0  0  0  0  0
  -19.6904  -22.5559   18.3507 C   0  0  0  0  0  0  0  0  0  0  0  0
  -20.3791  -21.2943   16.3007 C   0  0  0  0  0  0  0  0  0  0  0  0
  -20.3253  -23.7880   16.2690 C   0  0  0  0  0  0  0  0  0  0  0  0
  -26.9691  -22.1395   16.3876 C   0  0  0  0  0  0  0  0  0  0  0  0
  -27.1673  -12.8642   19.2665 C   0  0  0  0  0  0  0  0  0  0  0  0
  -24.5458  -13.1219   25.8649 C   0  0  0  0  0  0  0  0  0  0  0  0
  -24.2132  -14.4317   25.1430 C   0  0  0  0  0  0  0  0  0  0  0  0
  -25.0196  -16.9929   23.6704 C   0  0  0  0  0  0  0  0  0  0  0  0
  -24.6991  -18.2962   22.9444 C   0  0  0  0  0  0  0  0  0  1  0  0
  -22.1479  -22.6039   17.5605 C   0  0  1  0  0  0  0  0  0  0  0  0
  -24.8850  -21.9209   15.0284 C   0  0  2  0  0  0  0  0  0  0  0  0
  -24.7151  -14.4480   23.6896 C   0  0  2  0  0  0  0  0  0  0  0  0
  -24.3607  -15.7780   23.0073 C   0  0  2  0  0  0  0  0  0  0  0  0
  -20.6505  -22.5581   17.1444 C   0  0  0  0  0  0  0  0  0  0  0  0
  -29.1190  -20.8638   19.3514 N   0  0  0  0  0  0  0  0  0  0  0  0
  -25.7414  -13.2712   21.2153 N   0  0  0  0  0  0  0  0  0  0  0  0
  -29.6832  -19.6714   19.6082 N   0  0  0  0  0  0  0  0  0  0  0  0
  -22.9694  -23.5469   19.6958 N   0  0  0  0  0  0  0  0  0  0  0  0
  -27.5798  -16.5511   18.9534 N   0  0  0  0  0  0  0  0  0  0  0  0
  -31.3663  -18.6169   20.8989 N   0  0  0  0  0  0  0  0  0  0  0  0
  -31.6959  -22.9572   22.1028 N   0  0  0  0  0  0  0  0  0  0  0  0
  -24.1162  -13.3489   22.9586 N   0  0  0  0  0  0  0  0  0  0  0  0
  -21.4772  -25.9566   21.8631 N   0  0  0  0  0  0  0  0  0  0  0  0
  -23.0794  -22.6342   16.4381 N   0  0  0  0  0  0  0  0  0  0  0  0
  -27.1580  -14.2289   18.7886 N   0  0  0  0  0  0  0  0  0  0  0  0
  -26.2888  -21.4715   15.2483 N   0  3  0  0  0  0  0  0  0  0  0  0
  -32.5718  -20.8630   22.4282 O   0  0  0  0  0  0  0  0  0  0  0  0
  -21.2932  -23.6384   21.7437 O   0  0  0  0  0  0  0  0  0  0  0  0
  -22.2977  -24.9389   17.9501 O   0  0  0  0  0  0  0  0  0  0  0  0
  -24.2363  -20.7093   17.0155 O   0  0  0  0  0  0  0  0  0  0  0  0
  -28.1191  -15.0988   20.6792 O   0  0  0  0  0  0  0  0  0  0  0  0
  -28.5751  -27.1536   20.1830 O   0  0  0  0  0  0  0  0  0  0  0  0
  -25.3204  -19.3966   23.6074 O   0  0  0  0  0  0  0  0  0  1  0  0
  -23.2534  -28.5815   20.3947 F   0  0  0  0  0  0  0  0  0  0  0  0
  -27.5955  -28.6691   22.2773 F   0  0  0  0  0  0  0  0  0  0  0  0
  -24.7562  -15.7194   21.7042 F   0  0  0  0  0  0  0  0  0  0  0  0
  -23.8447  -11.5264   21.0138 S   0  0  0  0  0  0  0  0  0  0  0  0
  -25.0028  -10.4337   18.4972 Cl  0  0  0  0  0  0  0  0  0  0  0  0
  1  2  1  0  0  0  0
  1  5  2  0  0  0  0
  2  6  2  0  0  0  0
  3  8  2  0  0  0  0
  3 15  1  0  0  0  0
  4  9  1  0  0  0  0
  4 15  2  0  0  0  0
  5 17  1  0  0  0  0
  6 19  1  0  0  0  0
  7 10  2  0  0  0  0
  7 18  1  0  0  0  0
  8 21  1  0  0  0  0
  9 21  2  0  0  0  0
 10 22  1  0  0  0  0
 11 12  2  0  0  0  0
 11 23  1  0  0  0  0
 12 24  1  0  0  0  0
 13 20  1  0  0  0  0
 13 22  2  0  0  0  0
 14 24  2  0  0  0  0
 14 25  1  0  0  0  0
 15 26  1  0  0  0  0
 16 26  1  0  0  0  0
 16 28  2  0  0  0  0
 16 31  1  0  0  0  0
 17 19  2  0  0  0  0
 17 36  1  0  0  0  0
 18 20  2  0  0  0  0
 18 37  1  0  0  0  0
 19 45  1  0  0  0  0
 20 38  1  0  0  0  0
 21 81  1  0  0  0  0
 22 82  1  0  0  0  0
 23 25  2  0  0  0  0
 23 81  1  0  0  0  0
 24 83  1  0  0  0  0
 25 84  1  0  0  0  0
 26 64  2  0  0  0  0
 27 29  2  0  0  0  0
 27 54  1  0  0  0  0
 27 65  1  0  0  0  0
 28 66  1  0  0  0  0
 28 69  1  0  0  0  0
 29 86  1  0  0  0  0
 29 87  1  0  0  0  0
 30 65  2  0  0  0  0
 30 71  1  0  0  0  0
 30 86  1  0  0  0  0
 31 70  1  0  0  0  0
 31 76  2  0  0  0  0
 32 46  1  0  0  0  0
 32 72  1  0  0  0  0
 32 77  2  0  0  0  0
 33 59  1  0  0  0  0
 33 67  1  0  0  0  0
 33 78  2  0  0  0  0
 34 60  1  0  0  0  0
 34 73  1  0  0  0  0
 34 79  2  0  0  0  0
 35 68  1  0  0  0  0
 35 74  1  0  0  0  0
 35 80  2  0  0  0  0
 36 39  1  0  0  0  0
 37 46  1  0  0  0  0
 38 67  1  0  0  0  0
 39 41  1  0  0  0  0
 40 42  1  0  0  0  0
 40 43  1  0  0  0  0
 41 45  1  0  0  0  0
 42 47  1  0  0  0  0
 43 68  1  0  0  0  0
 44 47  1  0  0  0  0
 44 68  1  0  0  0  0
 45 72  1  0  0  0  0
 46 67  1  0  0  0  0
 47 66  1  0  0  0  0
 48 55  1  0  0  0  0
 49 60  1  0  0  0  0
 50 63  1  0  0  0  0
 51 63  1  0  0  0  0
 52 63  1  0  0  0  0
 53 75  1  0  0  0  0
 54 74  1  0  0  0  0
 55 56  1  0  0  0  0
 56 61  1  0  0  0  0
 57 58  1  0  0  0  0
 57 62  1  0  0  0  0
 58 82  1  0  0  0  0
 59 63  1  0  0  0  0
 59 73  1  0  0  0  0
 60 75  1  0  0  0  0
 61 62  1  0  0  0  0
 61 71  1  0  0  0  0
 62 85  1  0  0  0  0
 64 66  1  0  0  0  0
M  CHG  1  75   1
M  ISO  4  35 100  58 101  74 100  82 101
M  END
> <Batch ID>
0191

> <Smiles>
CCCC(Nc1nc(C[100NH:0][100C:0](=O)N2CCCC(n3nc(-c4ccc(Oc5ccc(F)cc5F)cc4)c(C(N)=O)c3N)C2)c(Cl)s1)C(F)C[101CH2:1][101O:1]c1ccc2c(c1)CN(C(=O)C(NC(=O)C(C)NC)C(C)(C)C)C(C(=O)NC1CCCc3ccccc31)C2

> <Shape>
0.198

> <Color>
0.077

> <Negative vol penalty>
0.000

$$$$

  -OEChem-04052305243D

 85 93  0     1  0  0  0  0  0999 V2000
  -19.5098  -34.1876   21.4676 C   0  0  0  0  0  0  0  0  0  0  0  0
  -20.7924  -33.8038   21.0893 C   0  0  0  0  0  0  0  0  0  0  0  0
  -27.2154  -17.3660   20.0191 C   0  0  0  0  0  0  0  0  0  0  0  0
  -29.2065  -17.0602   21.3529 C   0  0  0  0  0  0  0  0  0  0  0  0
  -18.8419  -33.4883   22.4720 C   0  0  0  0  0  0  0  0  0  0  0  0
  -21.4083  -32.7211   21.7161 C   0  0  0  0  0  0  0  0  0  0  0  0
  -25.2272  -28.6728   19.1602 C   0  0  0  0  0  0  0  0  0  0  0  0
  -27.1198  -15.9854   19.8452 C   0  0  0  0  0  0  0  0  0  0  0  0
  -29.1108  -15.6795   21.1791 C   0  0  0  0  0  0  0  0  0  0  0  0
  -26.6178  -28.5726   19.1491 C   0  0  0  0  0  0  0  0  0  0  0  0
  -26.0575  -13.3177   21.6307 C   0  0  0  0  0  0  0  0  0  0  0  0
  -24.8027  -12.7297   21.7898 C   0  0  0  0  0  0  0  0  0  0  0  0
  -26.5156  -27.0320   21.0026 C   0  0  0  0  0  0  0  0  0  0  0  0
  -24.8893  -11.9285   19.5122 C   0  0  0  0  0  0  0  0  0  0  0  0
  -28.2588  -17.9035   20.7729 C   0  0  0  0  0  0  0  0  0  0  0  0
  -27.7863  -20.0988   21.9832 C   0  0  0  0  0  0  0  0  0  0  0  0
  -19.4461  -32.3904   23.1047 C   0  0  0  0  0  0  0  0  0  0  0  0
  -24.4698  -27.9606   20.1013 C   0  0  0  0  0  0  0  0  0  0  0  0
  -20.7484  -32.0073   22.7308 C   0  0  0  0  0  0  0  0  0  0  0  0
  -25.1154  -27.1229   21.0219 C   0  0  0  0  0  0  0  0  0  0  0  0
  -28.0674  -15.1421   20.4253 C   0  0  0  0  0  0  0  0  0  0  0  0
  -27.2623  -27.7544   20.0723 C   0  0  0  0  0  0  0  0  0  0  0  0
  -26.7282  -13.2112   20.4122 C   0  0  0  0  0  0  0  0  0  0  0  0
  -24.2186  -12.0351   20.7306 C   0  0  0  0  0  0  0  0  0  0  0  0
  -26.1441  -12.5165   19.3530 C   0  0  0  0  0  0  0  0  0  0  0  0
  -28.3585  -19.3296   20.9523 C   0  0  0  0  0  0  0  0  0  0  0  0
  -28.1718  -21.3873   21.7047 C   0  0  0  0  0  0  0  0  0  0  0  0
  -34.8712  -24.5815   21.0501 C   0  0  0  0  0  0  0  0  0  0  0  0
  -35.4663  -25.3417   23.0761 C   0  0  0  0  0  0  0  0  0  0  0  0
  -34.2662  -26.6436   21.6971 C   0  0  0  0  0  0  0  0  0  0  0  0
  -26.9786  -19.6854   23.0934 C   0  0  0  0  0  0  0  0  0  0  0  0
  -22.4909  -28.7606   22.4566 C   0  0  0  0  0  0  0  0  0  0  0  0
  -22.0139  -25.5562   22.6202 C   0  0  0  0  0  0  0  0  0  0  0  0
  -23.1979  -22.4155   22.0027 C   0  0  0  0  0  0  0  0  0  0  0  0
  -32.7961  -23.6968   18.6827 C   0  0  0  0  0  0  0  0  0  0  0  0
  -18.7034  -31.6949   24.2178 C   0  0  0  0  0  0  0  0  0  0  0  0
  -22.9690  -28.0587   20.0828 C   0  0  0  0  0  0  0  0  0  0  0  0
  -24.3468  -26.3217   22.0396 C   0  0  0  0  0  0  0  0  0  0  0  0
  -19.2792  -30.3263   24.5721 C   0  0  0  0  0  0  0  0  0  0  0  0
  -29.3357  -24.2391   18.0437 C   0  0  0  0  0  0  0  0  0  0  0  0
  -20.7976  -30.4021   24.6972 C   0  0  0  0  0  0  0  0  0  0  0  0
  -28.6413  -23.1118   18.8097 C   0  0  0  0  0  0  0  0  0  0  0  0
  -30.6577  -23.7768   17.4348 C   0  0  0  0  0  0  0  0  0  0  0  0
  -30.9011  -22.0289   19.1550 C   0  0  0  0  0  0  0  0  0  0  0  0
  -21.4401  -30.8228   23.3699 C   0  0  1  0  0  0  0  0  0  0  0  0
  -22.3295  -27.6876   21.4173 C   0  0  1  0  0  0  0  0  0  0  0  0
  -29.5908  -22.4622   19.8343 C   0  0  2  0  0  0  0  0  0  0  0  0
  -22.5995  -19.9945   22.2818 C   0  0  0  0  0  0  0  0  0  0  0  0
  -32.8338  -29.6386   20.0310 C   0  0  0  0  0  0  0  0  0  0  0  0
  -22.6960  -25.7324   25.5890 C   0  0  0  0  0  0  0  0  0  0  0  0
  -23.0134  -23.2490   25.5922 C   0  0  0  0  0  0  0  0  0  0  0  0
  -20.7806  -24.2186   25.0468 C   0  0  0  0  0  0  0  0  0  0  0  0
  -23.2535  -21.9451   19.0813 C   0  0  0  0  0  0  0  0  0  0  0  0
  -34.8738  -23.4986   20.0254 C   0  0  0  0  0  0  0  0  0  0  0  0
  -30.6487  -28.0220   21.3278 C   0  0  0  0  0  0  0  0  0  0  0  0
  -31.5406  -27.4810   20.2016 C   0  0  0  0  0  0  0  0  0  0  0  0
  -29.2593  -27.3945   21.3126 C   0  0  0  0  0  0  0  0  0  1  0  0
  -22.6611  -24.4158   23.3684 C   0  0  1  0  0  0  0  0  0  0  0  0
  -22.5492  -21.2029   21.3598 C   0  0  2  0  0  0  0  0  0  0  0  0
  -32.9338  -28.1254   20.1955 C   0  0  2  0  0  0  0  0  0  0  0  0
  -22.3027  -24.4204   24.8813 C   0  0  0  0  0  0  0  0  0  0  0  0
  -29.0545  -20.0679   20.0836 N   0  0  0  0  0  0  0  0  0  0  0  0
  -35.5113  -24.3234   22.2021 N   0  0  0  0  0  0  0  0  0  0  0  0
  -34.2280  -25.7153   20.7276 N   0  0  0  0  0  0  0  0  0  0  0  0
  -34.8644  -26.5280   22.8936 N   0  0  0  0  0  0  0  0  0  0  0  0
  -28.9220  -21.3145   20.5680 N   0  0  0  0  0  0  0  0  0  0  0  0
  -22.8817  -26.4561   21.9855 N   0  0  0  0  0  0  0  0  0  0  0  0
  -31.5126  -23.1719   18.4591 N   0  0  0  0  0  0  0  0  0  0  0  0
  -27.9389  -22.5641   22.3237 N   0  0  0  0  0  0  0  0  0  0  0  0
  -36.1196  -25.1450   24.3123 N   0  0  0  0  0  0  0  0  0  0  0  0
  -26.6771  -18.3235   23.2298 N   0  0  0  0  0  0  0  0  0  0  0  0
  -33.6239  -27.8407   21.4364 N   0  0  0  0  0  0  0  0  0  0  0  0
  -21.4820  -29.7047   22.4519 N   0  0  0  0  0  0  0  0  0  0  0  0
  -22.2755  -23.1963   22.6667 N   0  0  0  0  0  0  0  0  0  0  0  0
  -33.5383  -23.0689   19.6755 N   0  0  0  0  0  0  0  0  0  0  0  0
  -23.2470  -20.8544   20.0899 N   0  3  0  0  0  0  0  0  0  0  0  0
  -26.5237  -20.5018   23.9301 O   0  0  0  0  0  0  0  0  0  0  0  0
  -23.4584  -28.7331   23.2082 O   0  0  0  0  0  0  0  0  0  0  0  0
  -20.7836  -25.6412   22.5938 O   0  0  0  0  0  0  0  0  0  0  0  0
  -24.4029  -22.6451   21.9267 O   0  0  0  0  0  0  0  0  0  0  0  0
  -33.2453  -24.6575   18.0484 O   0  0  0  0  0  0  0  0  0  0  0  0
  -27.9742  -13.7948   20.2561 O   0  0  0  0  0  0  0  0  0  0  0  0
  -28.6195  -27.6553   20.0640 O   0  0  0  0  0  0  0  0  0  1  0  0
  -23.0143  -11.4692   20.8841 F   0  0  0  0  0  0  0  0  0  0  0  0
  -26.7841  -12.4098   18.1805 F   0  0  0  0  0  0  0  0  0  0  0  0
  1  2  1  0  0  0  0
  1  5  2  0  0  0  0
  2  6  2  0  0  0  0
  3  8  2  0  0  0  0
  3 15  1  0  0  0  0
  4  9  1  0  0  0  0
  4 15  2  0  0  0  0
  5 17  1  0  0  0  0
  6 19  1  0  0  0  0
  7 10  2  0  0  0  0
  7 18  1  0  0  0  0
  8 21  1  0  0  0  0
  9 21  2  0  0  0  0
 10 22  1  0  0  0  0
 11 12  2  0  0  0  0
 11 23  1  0  0  0  0
 12 24  1  0  0  0  0
 13 20  1  0  0  0  0
 13 22  2  0  0  0  0
 14 24  2  0  0  0  0
 14 25  1  0  0  0  0
 15 26  1  0  0  0  0
 16 26  1  0  0  0  0
 16 27  2  0  0  0  0
 16 31  1  0  0  0  0
 17 19  2  0  0  0  0
 17 36  1  0  0  0  0
 18 20  2  0  0  0  0
 18 37  1  0  0  0  0
 19 45  1  0  0  0  0
 20 38  1  0  0  0  0
 21 82  1  0  0  0  0
 22 83  1  0  0  0  0
 23 25  2  0  0  0  0
 23 82  1  0  0  0  0
 24 84  1  0  0  0  0
 25 85  1  0  0  0  0
 26 62  2  0  0  0  0
 27 66  1  0  0  0  0
 27 69  1  0  0  0  0
 28 54  1  0  0  0  0
 28 63  2  0  0  0  0
 28 64  1  0  0  0  0
 29 63  1  0  0  0  0
 29 65  2  0  0  0  0
 29 70  1  0  0  0  0
 30 64  2  0  0  0  0
 30 65  1  0  0  0  0
 30 72  1  0  0  0  0
 31 71  1  0  0  0  0
 31 77  2  0  0  0  0
 32 46  1  0  0  0  0
 32 73  1  0  0  0  0
 32 78  2  0  0  0  0
 33 58  1  0  0  0  0
 33 67  1  0  0  0  0
 33 79  2  0  0  0  0
 34 59  1  0  0  0  0
 34 74  1  0  0  0  0
 34 80  2  0  0  0  0
 35 68  1  0  0  0  0
 35 75  1  0  0  0  0
 35 81  2  0  0  0  0
 36 39  1  0  0  0  0
 37 46  1  0  0  0  0
 38 67  1  0  0  0  0
 39 41  1  0  0  0  0
 40 42  1  0  0  0  0
 40 43  1  0  0  0  0
 41 45  1  0  0  0  0
 42 47  1  0  0  0  0
 43 68  1  0  0  0  0
 44 47  1  0  0  0  0
 44 68  1  0  0  0  0
 45 73  1  0  0  0  0
 46 67  1  0  0  0  0
 47 66  1  0  0  0  0
 48 59  1  0  0  0  0
 49 60  1  0  0  0  0
 50 61  1  0  0  0  0
 51 61  1  0  0  0  0
 52 61  1  0  0  0  0
 53 76  1  0  0  0  0
 54 75  1  0  0  0  0
 55 56  1  0  0  0  0
 55 57  1  0  0  0  0
 56 60  1  0  0  0  0
 57 83  1  0  0  0  0
 58 61  1  0  0  0  0
 58 74  1  0  0  0  0
 59 76  1  0  0  0  0
 60 72  1  0  0  0  0
 62 66  1  0  0  0  0
M  CHG  1  76   1
M  ISO  4  35 100  57 101  75 100  83 101
M  END
> <Batch ID>
0191

> <Smiles>
CNC(C)C(=O)NC(C(=O)N1Cc2cc([101O:1][101CH2:1]CCC(C)Nc3nc(N)nc(C[100NH:0][100C:0](=O)N4CCCC(n5nc(-c6ccc(Oc7ccc(F)cc7F)cc6)c(C(N)=O)c5N)C4)n3)ccc2CC1C(=O)NC1CCCc2ccccc21)C(C)(C)C

> <Shape>
0.204

> <Color>
0.087

> <Negative vol penalty>
0.000

$$$$

  -OEChem-04052305243D

 85 93  0     1  0  0  0  0  0999 V2000
  -28.7613  -33.2823   25.4638 C   0  0  0  0  0  0  0  0  0  0  0  0
  -28.7052  -31.9835   24.9686 C   0  0  0  0  0  0  0  0  0  0  0  0
  -19.2100  -15.3996   20.7837 C   0  0  0  0  0  0  0  0  0  0  0  0
  -20.2221  -16.1659   18.7281 C   0  0  0  0  0  0  0  0  0  0  0  0
  -27.5823  -33.9734   25.7399 C   0  0  0  0  0  0  0  0  0  0  0  0
  -27.4699  -31.3746   24.7501 C   0  0  0  0  0  0  0  0  0  0  0  0
  -27.2556  -28.9548   20.3066 C   0  0  0  0  0  0  0  0  0  0  0  0
  -18.2837  -16.4402   20.7155 C   0  0  0  0  0  0  0  0  0  0  0  0
  -19.2958  -17.2065   18.6599 C   0  0  0  0  0  0  0  0  0  0  0  0
  -27.8755  -27.7084   20.2299 C   0  0  0  0  0  0  0  0  0  0  0  0
  -18.8420  -20.2358   20.0913 C   0  0  0  0  0  0  0  0  0  0  0  0
  -19.3186  -21.5080   19.7752 C   0  0  0  0  0  0  0  0  0  0  0  0
  -25.7330  -26.6331   20.4989 C   0  0  0  0  0  0  0  0  0  0  0  0
  -17.9019  -21.5525   17.8186 C   0  0  0  0  0  0  0  0  0  0  0  0
  -29.8951  -17.0613   19.9578 C   0  0  0  0  0  0  0  0  0  0  0  0
  -20.1792  -15.2625   19.7900 C   0  0  0  0  0  0  0  0  0  0  0  0
  -21.0070  -12.8968   19.3146 C   0  0  0  0  0  0  0  0  0  0  0  0
  -26.3319  -33.3762   25.5155 C   0  0  0  0  0  0  0  0  0  0  0  0
  -25.8688  -29.0499   20.4913 C   0  0  0  0  0  0  0  0  0  0  0  0
  -26.2731  -32.0578   25.0246 C   0  0  0  0  0  0  0  0  0  0  0  0
  -25.0976  -27.8819   20.5751 C   0  0  0  0  0  0  0  0  0  0  0  0
  -18.3265  -17.3437   19.6537 C   0  0  0  0  0  0  0  0  0  0  0  0
  -27.1146  -26.5473   20.3289 C   0  0  0  0  0  0  0  0  0  0  0  0
  -17.8954  -19.6219   19.2711 C   0  0  0  0  0  0  0  0  0  0  0  0
  -18.8485  -22.1663   18.6389 C   0  0  0  0  0  0  0  0  0  0  0  0
  -17.4253  -20.2802   18.1348 C   0  0  0  0  0  0  0  0  0  0  0  0
  -21.1367  -14.1881   19.8601 C   0  0  0  0  0  0  0  0  0  0  0  0
  -29.2595  -16.3924   18.9328 C   0  0  0  0  0  0  0  0  0  0  0  0
  -22.1770  -12.2619   19.6531 C   0  0  0  0  0  0  0  0  0  0  0  0
  -29.7548  -18.7138   18.5227 C   0  0  0  0  0  0  0  0  0  0  0  0
  -19.9256  -12.3226   18.5686 C   0  0  0  0  0  0  0  0  0  0  0  0
  -23.9840  -30.2668   22.7431 C   0  0  0  0  0  0  0  0  0  0  0  0
  -21.6345  -29.5040   20.6407 C   0  0  0  0  0  0  0  0  0  0  0  0
  -30.4014  -21.1443   18.3830 C   0  0  0  0  0  0  0  0  0  0  0  0
  -20.6060  -27.5752   18.0198 C   0  0  0  0  0  0  0  0  0  0  0  0
  -27.6764  -14.2563   20.9299 C   0  0  0  0  0  0  0  0  0  0  0  0
  -25.0851  -34.1457   25.8736 C   0  0  0  0  0  0  0  0  0  0  0  0
  -25.2119  -30.4020   20.5454 C   0  0  0  0  0  0  0  0  0  0  0  0
  -23.6028  -27.9297   20.7535 C   0  0  0  0  0  0  0  0  0  0  0  0
  -23.8136  -33.5644   25.2608 C   0  0  0  0  0  0  0  0  0  0  0  0
  -25.5943  -12.2439   23.0016 C   0  0  0  0  0  0  0  0  0  0  0  0
  -23.7708  -32.0519   25.4542 C   0  0  0  0  0  0  0  0  0  0  0  0
  -24.2041  -12.3975   22.3822 C   0  0  0  0  0  0  0  0  0  0  0  0
  -26.3929  -13.5433   22.9251 C   0  0  0  0  0  0  0  0  0  0  0  0
  -25.1083  -14.2803   20.9552 C   0  0  0  0  0  0  0  0  0  0  0  0
  -24.9520  -31.3723   24.7510 C   0  0  1  0  0  0  0  0  0  0  0  0
  -23.8590  -30.3812   21.2501 C   0  0  1  0  0  0  0  0  0  0  0  0
  -24.2858  -12.9803   20.9585 C   0  0  2  0  0  0  0  0  0  0  0  0
  -31.5563  -22.1987   16.4492 C   0  0  0  0  0  0  0  0  0  0  0  0
  -18.6209  -27.1544   16.5434 C   0  0  0  0  0  0  0  0  0  0  0  0
  -20.2794  -27.9704   22.9038 C   0  0  0  0  0  0  0  0  0  0  0  0
  -18.8675  -26.8204   21.1855 C   0  0  0  0  0  0  0  0  0  0  0  0
  -18.7227  -29.2952   21.4630 C   0  0  0  0  0  0  0  0  0  0  0  0
  -22.1059  -28.3449   15.5874 C   0  0  0  0  0  0  0  0  0  0  0  0
  -28.8202  -14.9860   18.8518 C   0  0  0  0  0  0  0  0  0  0  0  0
  -28.9927  -23.8368   18.8746 C   0  0  0  0  0  0  0  0  0  0  0  0
  -30.2543  -23.6658   18.0248 C   0  0  0  0  0  0  0  0  0  0  0  0
  -28.9016  -25.2377   19.4643 C   0  0  0  0  0  0  0  0  0  1  0  0
  -20.7779  -28.2864   20.3903 C   0  0  1  0  0  0  0  0  0  0  0  0
  -30.3272  -22.2819   17.3572 C   0  0  2  0  0  0  0  0  0  0  0  0
  -19.9160  -27.9327   16.7158 C   0  0  2  0  0  0  0  0  0  0  0  0
  -19.6903  -28.0919   21.4842 C   0  0  0  0  0  0  0  0  0  0  0  0
  -30.1803  -18.3924   19.7243 N   0  0  0  0  0  0  0  0  0  0  0  0
  -22.2975  -14.3646   20.4969 N   0  0  0  0  0  0  0  0  0  0  0  0
  -22.9078  -13.1758   20.3537 N   0  0  0  0  0  0  0  0  0  0  0  0
  -23.0078  -29.2752   20.8069 N   0  0  0  0  0  0  0  0  0  0  0  0
  -26.4335  -14.0423   21.5483 N   0  0  0  0  0  0  0  0  0  0  0  0
  -22.6416  -11.0167   19.4168 N   0  0  0  0  0  0  0  0  0  0  0  0
  -18.7983  -13.1140   18.3095 N   0  0  0  0  0  0  0  0  0  0  0  0
  -29.8434  -19.9719   17.8807 N   0  0  0  0  0  0  0  0  0  0  0  0
  -24.7110  -31.2869   23.3266 N   0  0  0  0  0  0  0  0  0  0  0  0
  -20.2471  -28.4316   19.0391 N   0  0  0  0  0  0  0  0  0  0  0  0
  -27.6251  -14.7240   19.6224 N   0  0  0  0  0  0  0  0  0  0  0  0
  -20.8049  -27.6283   15.5590 N   0  3  0  0  0  0  0  0  0  0  0  0
  -19.9511  -11.1374   18.1585 O   0  0  0  0  0  0  0  0  0  0  0  0
  -23.4585  -29.3238   23.3229 O   0  0  0  0  0  0  0  0  0  0  0  0
  -21.1057  -30.6177   20.6799 O   0  0  0  0  0  0  0  0  0  0  0  0
  -30.9226  -21.3027   19.4830 O   0  0  0  0  0  0  0  0  0  0  0  0
  -21.3826  -26.6284   18.1247 O   0  0  0  0  0  0  0  0  0  0  0  0
  -28.7520  -14.0410   21.4987 O   0  0  0  0  0  0  0  0  0  0  0  0
  -17.4226  -18.3591   19.5867 O   0  0  0  0  0  0  0  0  0  0  0  0
  -27.7172  -25.3294   20.2549 O   0  0  0  0  0  0  0  0  0  1  0  0
  -19.3052  -23.3887   18.3362 F   0  0  0  0  0  0  0  0  0  0  0  0
  -16.5151  -19.6960   17.3436 F   0  0  0  0  0  0  0  0  0  0  0  0
  -29.0017  -17.4643   17.6191 S   0  0  0  0  0  0  0  0  0  0  0  0
  1  2  1  0  0  0  0
  1  5  2  0  0  0  0
  2  6  2  0  0  0  0
  3  8  2  0  0  0  0
  3 16  1  0  0  0  0
  4  9  1  0  0  0  0
  4 16  2  0  0  0  0
  5 18  1  0  0  0  0
  6 20  1  0  0  0  0
  7 10  2  0  0  0  0
  7 19  1  0  0  0  0
  8 22  1  0  0  0  0
  9 22  2  0  0  0  0
 10 23  1  0  0  0  0
 11 12  2  0  0  0  0
 11 24  1  0  0  0  0
 12 25  1  0  0  0  0
 13 21  1  0  0  0  0
 13 23  2  0  0  0  0
 14 25  2  0  0  0  0
 14 26  1  0  0  0  0
 15 28  2  0  0  0  0
 15 63  1  0  0  0  0
 16 27  1  0  0  0  0
 17 27  1  0  0  0  0
 17 29  2  0  0  0  0
 17 31  1  0  0  0  0
 18 20  2  0  0  0  0
 18 37  1  0  0  0  0
 19 21  2  0  0  0  0
 19 38  1  0  0  0  0
 20 46  1  0  0  0  0
 21 39  1  0  0  0  0
 22 81  1  0  0  0  0
 23 82  1  0  0  0  0
 24 26  2  0  0  0  0
 24 81  1  0  0  0  0
 25 83  1  0  0  0  0
 26 84  1  0  0  0  0
 27 64  2  0  0  0  0
 28 55  1  0  0  0  0
 28 85  1  0  0  0  0
 29 65  1  0  0  0  0
 29 68  1  0  0  0  0
 30 63  2  0  0  0  0
 30 70  1  0  0  0  0
 30 85  1  0  0  0  0
 31 69  1  0  0  0  0
 31 75  2  0  0  0  0
 32 47  1  0  0  0  0
 32 71  1  0  0  0  0
 32 76  2  0  0  0  0
 33 59  1  0  0  0  0
 33 66  1  0  0  0  0
 33 77  2  0  0  0  0
 34 60  1  0  0  0  0
 34 70  1  0  0  0  0
 34 78  2  0  0  0  0
 35 61  1  0  0  0  0
 35 72  1  0  0  0  0
 35 79  2  0  0  0  0
 36 67  1  0  0  0  0
 36 73  1  0  0  0  0
 36 80  2  0  0  0  0
 37 40  1  0  0  0  0
 38 47  1  0  0  0  0
 39 66  1  0  0  0  0
 40 42  1  0  0  0  0
 41 43  1  0  0  0  0
 41 44  1  0  0  0  0
 42 46  1  0  0  0  0
 43 48  1  0  0  0  0
 44 67  1  0  0  0  0
 45 48  1  0  0  0  0
 45 67  1  0  0  0  0
 46 71  1  0  0  0  0
 47 66  1  0  0  0  0
 48 65  1  0  0  0  0
 49 60  1  0  0  0  0
 50 61  1  0  0  0  0
 51 62  1  0  0  0  0
 52 62  1  0  0  0  0
 53 62  1  0  0  0  0
 54 74  1  0  0  0  0
 55 73  1  0  0  0  0
 56 57  1  0  0  0  0
 56 58  1  0  0  0  0
 57 60  1  0  0  0  0
 58 82  1  0  0  0  0
 59 62  1  0  0  0  0
 59 72  1  0  0  0  0
 61 74  1  0  0  0  0
 64 65  1  0  0  0  0
M  CHG  1  74   1
M  ISO  4  36 100  58 101  73 100  82 101
M  END
> <Batch ID>
0191

> <Smiles>
CNC(C)C(=O)NC(C(=O)N1Cc2cc([101O:1][101CH2:1]CCC(C)C(=O)Nc3ncc(C[100NH:0][100C:0](=O)N4CCCC(n5nc(-c6ccc(Oc7ccc(F)cc7F)cc6)c(C(N)=O)c5N)C4)s3)ccc2CC1C(=O)NC1CCCc2ccccc21)C(C)(C)C

> <Shape>
0.242

> <Color>
0.064

> <Negative vol penalty>
0.000

$$$$

  -OEChem-04052305243D

 87 95  0     1  0  0  0  0  0999 V2000
  -31.8341  -25.7512    8.3779 C   0  0  0  0  0  0  0  0  0  0  0  0
  -31.7119  -25.0240    9.5576 C   0  0  0  0  0  0  0  0  0  0  0  0
  -23.0188   -9.8829   19.9748 C   0  0  0  0  0  0  0  0  0  0  0  0
  -23.7445   -9.9375   22.2786 C   0  0  0  0  0  0  0  0  0  0  0  0
  -32.3345  -27.0521    8.4109 C   0  0  0  0  0  0  0  0  0  0  0  0
  -32.0911  -25.5971   10.7710 C   0  0  0  0  0  0  0  0  0  0  0  0
  -29.4813  -24.7045   16.2389 C   0  0  0  0  0  0  0  0  0  0  0  0
  -22.2616   -8.7419   20.2404 C   0  0  0  0  0  0  0  0  0  0  0  0
  -22.9872   -8.7966   22.5442 C   0  0  0  0  0  0  0  0  0  0  0  0
  -29.8135  -23.8808   17.3136 C   0  0  0  0  0  0  0  0  0  0  0  0
  -21.5314   -5.6905   23.7452 C   0  0  0  0  0  0  0  0  0  0  0  0
  -22.1259   -4.6788   24.4992 C   0  0  0  0  0  0  0  0  0  0  0  0
  -30.9600  -25.7247   18.3646 C   0  0  0  0  0  0  0  0  0  0  0  0
  -23.8535   -4.4472   22.8262 C   0  0  0  0  0  0  0  0  0  0  0  0
  -31.7933  -18.7221   22.2089 C   0  0  0  0  0  0  0  0  0  0  0  0
  -23.7603  -10.4806   20.9939 C   0  0  0  0  0  0  0  0  0  0  0  0
  -24.1252  -12.9994   20.8202 C   0  0  0  0  0  0  0  0  0  0  0  0
  -32.7110  -27.6449    9.6265 C   0  0  0  0  0  0  0  0  0  0  0  0
  -29.8959  -26.0438   16.2139 C   0  0  0  0  0  0  0  0  0  0  0  0
  -32.5983  -26.9067   10.8201 C   0  0  0  0  0  0  0  0  0  0  0  0
  -30.6295  -26.5640   17.2897 C   0  0  0  0  0  0  0  0  0  0  0  0
  -22.2458   -8.1988   21.5251 C   0  0  0  0  0  0  0  0  0  0  0  0
  -30.5554  -24.3901   18.3753 C   0  0  0  0  0  0  0  0  0  0  0  0
  -22.0978   -6.0805   22.5316 C   0  0  0  0  0  0  0  0  0  0  0  0
  -23.2870   -4.0571   24.0397 C   0  0  0  0  0  0  0  0  0  0  0  0
  -23.2589   -5.4589   22.0722 C   0  0  0  0  0  0  0  0  0  0  0  0
  -24.5432  -11.6589   20.7201 C   0  0  0  0  0  0  0  0  0  0  0  0
  -25.2289  -13.7313   20.4560 C   0  0  0  0  0  0  0  0  0  0  0  0
  -30.6837  -19.1152   22.9274 C   0  0  0  0  0  0  0  0  0  0  0  0
  -30.5458  -16.9474   21.8863 C   0  0  0  0  0  0  0  0  0  0  0  0
  -22.8530  -13.5352   21.2077 C   0  0  0  0  0  0  0  0  0  0  0  0
  -31.7570  -27.7807   14.3103 C   0  0  0  0  0  0  0  0  0  0  0  0
  -30.7273  -30.2230   16.1804 C   0  0  0  0  0  0  0  0  0  0  0  0
  -29.4592  -31.2383   19.1817 C   0  0  0  0  0  0  0  0  0  0  0  0
  -30.7005  -14.7364   20.6888 C   0  0  0  0  0  0  0  0  0  0  0  0
  -33.2909  -29.0370    9.6064 C   0  0  0  0  0  0  0  0  0  0  0  0
  -29.5066  -26.9264   15.0598 C   0  0  0  0  0  0  0  0  0  0  0  0
  -31.0815  -28.0004   17.3206 C   0  0  0  0  0  0  0  0  0  0  0  0
  -33.3190  -29.7049   10.9788 C   0  0  0  0  0  0  0  0  0  0  0  0
  -29.6011  -12.2769   18.3608 C   0  0  0  0  0  0  0  0  0  0  0  0
  -33.8667  -28.7439   12.0291 C   0  0  0  0  0  0  0  0  0  0  0  0
  -28.1528  -12.0072   18.7753 C   0  0  0  0  0  0  0  0  0  0  0  0
  -30.5002  -12.5264   19.5705 C   0  0  0  0  0  0  0  0  0  0  0  0
  -28.5791  -13.2984   20.9056 C   0  0  0  0  0  0  0  0  0  0  0  0
  -32.9758  -27.5025   12.1590 C   0  0  1  0  0  0  0  0  0  0  0  0
  -30.4209  -28.1369   14.8983 C   0  0  1  0  0  0  0  0  0  0  0  0
  -27.6224  -13.1055   19.7176 C   0  0  2  0  0  0  0  0  0  0  0  0
  -28.7579  -33.3006   20.4276 C   0  0  0  0  0  0  0  0  0  0  0  0
  -28.8942  -22.1129   21.9956 C   0  0  0  0  0  0  0  0  0  0  0  0
  -33.6575  -30.9311   16.6527 C   0  0  0  0  0  0  0  0  0  0  0  0
  -32.9328  -32.3350   18.5949 C   0  0  0  0  0  0  0  0  0  0  0  0
  -32.1541  -32.8970   16.2926 C   0  0  0  0  0  0  0  0  0  0  0  0
  -32.0707  -23.7784   24.2247 C   0  0  0  0  0  0  0  0  0  0  0  0
  -31.9644  -21.7178   25.6502 C   0  0  0  0  0  0  0  0  0  0  0  0
  -29.8770  -22.8963   24.9839 C   0  0  0  0  0  0  0  0  0  0  0  0
  -26.6746  -30.2714   19.4475 C   0  0  0  0  0  0  0  0  0  0  0  0
  -30.4293  -22.2340   19.3710 C   0  0  0  0  0  0  0  0  0  1  0  0
  -31.2060  -30.8648   17.4602 C   0  0  1  0  0  0  0  0  0  0  0  0
  -28.3050  -32.1620   19.5269 C   0  0  2  0  0  0  0  0  0  0  0  0
  -30.4278  -22.1406   21.9555 C   0  0  1  0  0  0  0  0  0  0  0  0
  -31.1193  -21.5533   23.2303 C   0  0  1  0  0  0  0  0  0  0  0  0
  -30.9102  -21.4987   20.6207 C   0  0  2  0  0  0  0  0  0  0  0  0
  -32.4809  -31.7293   17.2489 C   0  0  0  0  0  0  0  0  0  0  0  0
  -31.2874  -22.4770   24.4929 C   0  0  0  0  0  0  0  0  0  0  0  0
  -31.7163  -17.4791   21.6115 N   0  0  0  0  0  0  0  0  0  0  0  0
  -25.8133  -11.5430   20.3233 N   0  0  0  0  0  0  0  0  0  0  0  0
  -26.2028  -12.8202   20.1707 N   0  0  0  0  0  0  0  0  0  0  0  0
  -30.6813  -28.8218   16.1661 N   0  0  0  0  0  0  0  0  0  0  0  0
  -29.9369  -13.5819   20.4151 N   0  0  0  0  0  0  0  0  0  0  0  0
  -25.4516  -15.0590   20.3551 N   0  0  0  0  0  0  0  0  0  0  0  0
  -21.8285  -12.6424   21.5508 N   0  0  0  0  0  0  0  0  0  0  0  0
  -30.4984  -20.2972   23.6160 N   0  0  0  0  0  0  0  0  0  0  0  0
  -30.0489  -15.6856   21.4756 N   0  0  0  0  0  0  0  0  0  0  0  0
  -31.7897  -27.8100   12.9292 N   0  0  0  0  0  0  0  0  0  0  0  0
  -30.0673  -31.6009   17.9985 N   0  0  0  0  0  0  0  0  0  0  0  0
  -27.2292  -31.4067   20.2290 N   0  3  0  0  0  0  0  0  0  0  0  0
  -22.6263  -14.7687   21.2328 O   0  0  0  0  0  0  0  0  0  0  0  0
  -32.6896  -27.5014   15.0546 O   0  0  0  0  0  0  0  0  0  0  0  0
  -30.3994  -30.9388   15.2308 O   0  0  0  0  0  0  0  0  0  0  0  0
  -29.7906  -30.2920   19.8925 O   0  0  0  0  0  0  0  0  0  0  0  0
  -31.8378  -14.8850   20.2344 O   0  0  0  0  0  0  0  0  0  0  0  0
  -32.3359  -21.4240   20.5942 O   0  0  0  0  0  0  0  0  0  0  0  0
  -21.5068   -7.0857   21.7846 O   0  0  0  0  0  0  0  0  0  0  0  0
  -30.8836  -23.5833   19.4315 O   0  0  0  0  0  0  0  0  0  1  0  0
  -23.8587   -3.0866   24.7646 F   0  0  0  0  0  0  0  0  0  0  0  0
  -23.8084   -5.8301   20.9077 F   0  0  0  0  0  0  0  0  0  0  0  0
  -29.4884  -17.8874   22.8575 S   0  0  0  0  0  0  0  0  0  0  0  0
  1  2  1  0  0  0  0
  1  5  2  0  0  0  0
  2  6  2  0  0  0  0
  3  8  2  0  0  0  0
  3 16  1  0  0  0  0
  4  9  1  0  0  0  0
  4 16  2  0  0  0  0
  5 18  1  0  0  0  0
  6 20  1  0  0  0  0
  7 10  2  0  0  0  0
  7 19  1  0  0  0  0
  8 22  1  0  0  0  0
  9 22  2  0  0  0  0
 10 23  1  0  0  0  0
 11 12  2  0  0  0  0
 11 24  1  0  0  0  0
 12 25  1  0  0  0  0
 13 21  1  0  0  0  0
 13 23  2  0  0  0  0
 14 25  2  0  0  0  0
 14 26  1  0  0  0  0
 15 29  2  0  0  0  0
 15 65  1  0  0  0  0
 16 27  1  0  0  0  0
 17 27  1  0  0  0  0
 17 28  2  0  0  0  0
 17 31  1  0  0  0  0
 18 20  2  0  0  0  0
 18 36  1  0  0  0  0
 19 21  2  0  0  0  0
 19 37  1  0  0  0  0
 20 45  1  0  0  0  0
 21 38  1  0  0  0  0
 22 83  1  0  0  0  0
 23 84  1  0  0  0  0
 24 26  2  0  0  0  0
 24 83  1  0  0  0  0
 25 85  1  0  0  0  0
 26 86  1  0  0  0  0
 27 66  2  0  0  0  0
 28 67  1  0  0  0  0
 28 70  1  0  0  0  0
 29 72  1  0  0  0  0
 29 87  1  0  0  0  0
 30 65  2  0  0  0  0
 30 73  1  0  0  0  0
 30 87  1  0  0  0  0
 31 71  1  0  0  0  0
 31 77  2  0  0  0  0
 32 46  1  0  0  0  0
 32 74  1  0  0  0  0
 32 78  2  0  0  0  0
 33 58  1  0  0  0  0
 33 68  1  0  0  0  0
 33 79  2  0  0  0  0
 34 59  1  0  0  0  0
 34 75  1  0  0  0  0
 34 80  2  0  0  0  0
 35 69  1  0  0  0  0
 35 73  1  0  0  0  0
 35 81  2  0  0  0  0
 36 39  1  0  0  0  0
 37 46  1  0  0  0  0
 38 68  1  0  0  0  0
 39 41  1  0  0  0  0
 40 42  1  0  0  0  0
 40 43  1  0  0  0  0
 41 45  1  0  0  0  0
 42 47  1  0  0  0  0
 43 69  1  0  0  0  0
 44 47  1  0  0  0  0
 44 69  1  0  0  0  0
 45 74  1  0  0  0  0
 46 68  1  0  0  0  0
 47 67  1  0  0  0  0
 48 59  1  0  0  0  0
 49 60  1  0  0  0  0
 50 63  1  0  0  0  0
 51 63  1  0  0  0  0
 52 63  1  0  0  0  0
 53 64  1  0  0  0  0
 54 64  1  0  0  0  0
 55 64  1  0  0  0  0
 56 76  1  0  0  0  0
 57 62  1  0  0  0  0
 57 84  1  0  0  0  0
 58 63  1  0  0  0  0
 58 75  1  0  0  0  0
 59 76  1  0  0  0  0
 60 61  1  0  0  0  0
 60 62  1  0  0  0  0
 61 64  1  0  0  0  0
 61 72  1  0  0  0  0
 62 82  1  0  0  0  0
 66 67  1  0  0  0  0
M  CHG  1  76   1
M  ISO  4  35 100  57 101  73 100  84 101
M  END
> <Batch ID>
0191

> <Smiles>
CNC(C)C(=O)NC(C(=O)N1Cc2cc([101O:1][101CH2:1]C(O)C(C)C(Nc3cnc([100NH:0][100C:0](=O)N4CCCC(n5nc(-c6ccc(Oc7ccc(F)cc7F)cc6)c(C(N)=O)c5N)C4)s3)C(C)(C)C)ccc2CC1C(=O)NC1CCCc2ccccc21)C(C)(C)C

> <Shape>
0.224

> <Color>
0.184

> <Negative vol penalty>
0.000

$$$$

  -OEChem-04052305243D

 84 92  0     1  0  0  0  0  0999 V2000
  -31.0347  -13.8506   16.0269 C   0  0  0  0  0  0  0  0  0  0  0  0
  -30.8745  -13.7930   17.4077 C   0  0  0  0  0  0  0  0  0  0  0  0
  -27.5082  -26.3760   18.9214 C   0  0  0  0  0  0  0  0  0  0  0  0
  -27.1983  -24.7559   20.6866 C   0  0  0  0  0  0  0  0  0  0  0  0
  -30.0139  -14.3653   15.2288 C   0  0  0  0  0  0  0  0  0  0  0  0
  -29.6938  -14.2511   17.9912 C   0  0  0  0  0  0  0  0  0  0  0  0
  -27.9245  -11.0935   21.5329 C   0  0  0  0  0  0  0  0  0  0  0  0
  -26.3917  -27.0803   19.3717 C   0  0  0  0  0  0  0  0  0  0  0  0
  -26.0818  -25.4602   21.1371 C   0  0  0  0  0  0  0  0  0  0  0  0
  -28.5450  -11.1246   22.7810 C   0  0  0  0  0  0  0  0  0  0  0  0
  -25.6530  -29.2562   21.8522 C   0  0  0  0  0  0  0  0  0  0  0  0
  -25.7582  -30.6436   21.9508 C   0  0  0  0  0  0  0  0  0  0  0  0
  -26.7505  -12.4938   23.6321 C   0  0  0  0  0  0  0  0  0  0  0  0
  -23.9426  -30.8930   20.3764 C   0  0  0  0  0  0  0  0  0  0  0  0
  -30.7903  -15.2560   22.1448 C   0  0  0  0  0  0  0  0  0  0  0  0
  -27.9115  -25.2137   19.5788 C   0  0  0  0  0  0  0  0  0  0  0  0
  -30.3861  -24.9598   19.0134 C   0  0  0  0  0  0  0  0  0  0  0  0
  -28.8163  -14.8211   15.8020 C   0  0  0  0  0  0  0  0  0  0  0  0
  -26.7159  -11.7724   21.3217 C   0  0  0  0  0  0  0  0  0  0  0  0
  -28.6566  -14.7737   17.2000 C   0  0  0  0  0  0  0  0  0  0  0  0
  -26.1154  -12.4676   22.3811 C   0  0  0  0  0  0  0  0  0  0  0  0
  -25.6785  -26.6225   20.4796 C   0  0  0  0  0  0  0  0  0  0  0  0
  -27.9595  -11.8273   23.8301 C   0  0  0  0  0  0  0  0  0  0  0  0
  -24.6927  -28.6872   21.0157 C   0  0  0  0  0  0  0  0  0  0  0  0
  -24.9030  -31.4620   21.2129 C   0  0  0  0  0  0  0  0  0  0  0  0
  -23.8375  -29.5056   20.2779 C   0  0  0  0  0  0  0  0  0  0  0  0
  -29.0645  -24.4854   19.1136 C   0  0  0  0  0  0  0  0  0  0  0  0
  -31.0977  -23.8926   18.5223 C   0  0  0  0  0  0  0  0  0  0  0  0
  -30.0562  -15.8446   23.1531 C   0  0  0  0  0  0  0  0  0  0  0  0
  -30.0598  -17.0056   21.0425 C   0  0  0  0  0  0  0  0  0  0  0  0
  -30.9226  -26.2497   19.3356 C   0  0  0  0  0  0  0  0  0  0  0  0
  -25.7813  -14.1552   19.4369 C   0  0  0  0  0  0  0  0  0  0  0  0
  -22.8537  -13.4363   20.6345 C   0  0  0  0  0  0  0  0  0  0  0  0
  -21.0136  -12.0642   23.1600 C   0  0  0  0  0  0  0  0  0  0  0  0
  -30.2525  -17.9808   18.7277 C   0  0  0  0  0  0  0  0  0  0  0  0
  -27.7601  -15.4129   14.9025 C   0  0  0  0  0  0  0  0  0  0  0  0
  -26.0457  -11.7068   19.9767 C   0  0  0  0  0  0  0  0  0  0  0  0
  -24.8082  -13.1961   22.2117 C   0  0  0  0  0  0  0  0  0  0  0  0
  -26.3908  -15.5312   15.5669 C   0  0  0  0  0  0  0  0  0  0  0  0
  -30.5866  -19.9838   15.8030 C   0  0  0  0  0  0  0  0  0  0  0  0
  -26.5248  -16.1319   16.9626 C   0  0  0  0  0  0  0  0  0  0  0  0
  -30.3605  -21.4092   16.3121 C   0  0  0  0  0  0  0  0  0  0  0  0
  -29.6906  -18.9763   16.5213 C   0  0  0  0  0  0  0  0  0  0  0  0
  -29.5374  -20.4406   18.4964 C   0  0  0  0  0  0  0  0  0  0  0  0
  -27.3806  -15.2380   17.8681 C   0  0  1  0  0  0  0  0  0  0  0  0
  -25.0781  -12.8611   19.7343 C   0  0  1  0  0  0  0  0  0  0  0  0
  -30.4641  -21.4821   17.8481 C   0  0  2  0  0  0  0  0  0  0  0  0
  -18.9782  -11.2487   24.3805 C   0  0  0  0  0  0  0  0  0  0  0  0
  -32.1813  -15.4554   26.3599 C   0  0  0  0  0  0  0  0  0  0  0  0
  -32.7446  -13.1201   25.6442 C   0  0  0  0  0  0  0  0  0  0  0  0
  -27.6266  -12.5858   27.1124 C   0  0  0  0  0  0  0  0  0  0  0  0
  -22.5884  -16.3748   21.4122 C   0  0  0  0  0  0  0  0  0  0  0  0
  -20.6968  -15.7325   22.9214 C   0  0  0  0  0  0  0  0  0  0  0  0
  -20.5115  -15.3554   20.4626 C   0  0  0  0  0  0  0  0  0  0  0  0
  -21.1998   -9.3846   21.9176 C   0  0  0  0  0  0  0  0  0  0  0  0
  -29.6959  -13.6891   26.1896 C   0  0  0  0  0  0  0  0  0  0  0  0
  -22.0479  -13.8849   21.8297 C   0  0  1  0  0  0  0  0  0  0  0  0
  -19.8490  -11.0906   23.1437 C   0  0  2  0  0  0  0  0  0  0  0  0
  -31.9885  -14.3979   25.2662 C   0  0  0  0  0  0  0  0  0  0  0  0
  -30.4853  -14.1759   24.9578 C   0  0  2  0  0  0  0  0  0  0  0  0
  -28.3529  -13.0240   25.8472 C   0  0  1  0  0  0  0  0  0  1  0  0
  -21.4868  -15.3249   21.6595 C   0  0  0  0  0  0  0  0  0  0  0  0
  -30.7932  -15.9200   20.9337 N   0  0  0  0  0  0  0  0  0  0  0  0
  -28.9410  -23.2157   18.7178 N   0  0  0  0  0  0  0  0  0  0  0  0
  -30.1941  -22.8832   18.3640 N   0  0  0  0  0  0  0  0  0  0  0  0
  -24.1951  -13.1076   20.8761 N   0  0  0  0  0  0  0  0  0  0  0  0
  -29.8449  -19.1006   17.9723 N   0  0  0  0  0  0  0  0  0  0  0  0
  -32.4018  -23.7285   18.2146 N   0  0  0  0  0  0  0  0  0  0  0  0
  -31.3964  -26.4705   20.6361 N   0  0  0  0  0  0  0  0  0  0  0  0
  -29.8862  -15.3948   24.4488 N   0  0  0  0  0  0  0  0  0  0  0  0
  -29.7919  -17.9745   20.0439 N   0  0  0  0  0  0  0  0  0  0  0  0
  -26.6104  -14.1041   18.3325 N   0  0  0  0  0  0  0  0  0  0  0  0
  -21.0250  -12.8658   22.0381 N   0  0  0  0  0  0  0  0  0  0  0  0
  -20.3478   -9.6871   23.0964 N   0  3  0  0  0  0  0  0  0  0  0  0
  -30.9651  -27.1842   18.4999 O   0  0  0  0  0  0  0  0  0  0  0  0
  -25.5851  -15.1285   20.1552 O   0  0  0  0  0  0  0  0  0  0  0  0
  -22.3109  -13.3729   19.5286 O   0  0  0  0  0  0  0  0  0  0  0  0
  -21.8294  -12.1116   24.0781 O   0  0  0  0  0  0  0  0  0  0  0  0
  -30.9806  -17.1065   18.2508 O   0  0  0  0  0  0  0  0  0  0  0  0
  -24.5891  -27.3096   20.9195 O   0  0  0  0  0  0  0  0  0  0  0  0
  -28.5633  -11.8599   25.0492 O   0  0  0  0  0  0  0  0  0  1  0  0
  -25.0030  -32.7943   21.3089 F   0  0  0  0  0  0  0  0  0  0  0  0
  -22.9121  -28.9648   19.4735 F   0  0  0  0  0  0  0  0  0  0  0  0
  -29.3376  -17.2898   22.5731 S   0  0  0  0  0  0  0  0  0  0  0  0
  1  2  1  0  0  0  0
  1  5  2  0  0  0  0
  2  6  2  0  0  0  0
  3  8  2  0  0  0  0
  3 16  1  0  0  0  0
  4  9  1  0  0  0  0
  4 16  2  0  0  0  0
  5 18  1  0  0  0  0
  6 20  1  0  0  0  0
  7 10  2  0  0  0  0
  7 19  1  0  0  0  0
  8 22  1  0  0  0  0
  9 22  2  0  0  0  0
 10 23  1  0  0  0  0
 11 12  2  0  0  0  0
 11 24  1  0  0  0  0
 12 25  1  0  0  0  0
 13 21  1  0  0  0  0
 13 23  2  0  0  0  0
 14 25  2  0  0  0  0
 14 26  1  0  0  0  0
 15 29  2  0  0  0  0
 15 63  1  0  0  0  0
 16 27  1  0  0  0  0
 17 27  1  0  0  0  0
 17 28  2  0  0  0  0
 17 31  1  0  0  0  0
 18 20  2  0  0  0  0
 18 36  1  0  0  0  0
 19 21  2  0  0  0  0
 19 37  1  0  0  0  0
 20 45  1  0  0  0  0
 21 38  1  0  0  0  0
 22 80  1  0  0  0  0
 23 81  1  0  0  0  0
 24 26  2  0  0  0  0
 24 80  1  0  0  0  0
 25 82  1  0  0  0  0
 26 83  1  0  0  0  0
 27 64  2  0  0  0  0
 28 65  1  0  0  0  0
 28 68  1  0  0  0  0
 29 70  1  0  0  0  0
 29 84  1  0  0  0  0
 30 63  2  0  0  0  0
 30 71  1  0  0  0  0
 30 84  1  0  0  0  0
 31 69  1  0  0  0  0
 31 75  2  0  0  0  0
 32 46  1  0  0  0  0
 32 72  1  0  0  0  0
 32 76  2  0  0  0  0
 33 57  1  0  0  0  0
 33 66  1  0  0  0  0
 33 77  2  0  0  0  0
 34 58  1  0  0  0  0
 34 73  1  0  0  0  0
 34 78  2  0  0  0  0
 35 67  1  0  0  0  0
 35 71  1  0  0  0  0
 35 79  2  0  0  0  0
 36 39  1  0  0  0  0
 37 46  1  0  0  0  0
 38 66  1  0  0  0  0
 39 41  1  0  0  0  0
 40 42  1  0  0  0  0
 40 43  1  0  0  0  0
 41 45  1  0  0  0  0
 42 47  1  0  0  0  0
 43 67  1  0  0  0  0
 44 47  1  0  0  0  0
 44 67  1  0  0  0  0
 45 72  1  0  0  0  0
 46 66  1  0  0  0  0
 47 65  1  0  0  0  0
 48 58  1  0  0  0  0
 49 59  1  0  0  0  0
 50 59  1  0  0  0  0
 51 61  1  0  0  0  0
 52 62  1  0  0  0  0
 53 62  1  0  0  0  0
 54 62  1  0  0  0  0
 55 74  1  0  0  0  0
 56 60  1  0  0  0  0
 56 61  1  0  0  0  0
 57 62  1  0  0  0  0
 57 73  1  0  0  0  0
 58 74  1  0  0  0  0
 59 60  1  0  0  0  0
 60 70  1  0  0  0  0
 61 81  1  0  0  0  0
 64 65  1  0  0  0  0
M  CHG  1  74   1
M  ISO  4  35 100  61 101  71 100  81 101
M  END
> <Batch ID>
0191

> <Smiles>
CNC(C)C(=O)NC(C(=O)N1Cc2cc([101O:1][101CH:1](C)CC(Nc3cnc([100NH:0][100C:0](=O)N4CCCC(n5nc(-c6ccc(Oc7ccc(F)cc7F)cc6)c(C(N)=O)c5N)C4)s3)C(C)C)ccc2CC1C(=O)NC1CCCc2ccccc21)C(C)(C)C

> <Shape>
0.217

> <Color>
0.077

> <Negative vol penalty>
0.000

$$$$

  -OEChem-04052305243D

 84 92  0     1  0  0  0  0  0999 V2000
  -38.0969  -26.7455   22.8186 C   0  0  0  0  0  0  0  0  0  0  0  0
  -37.2524  -26.0942   21.9253 C   0  0  0  0  0  0  0  0  0  0  0  0
  -23.0907   -9.9247   19.9346 C   0  0  0  0  0  0  0  0  0  0  0  0
  -23.8838   -9.8939   22.2165 C   0  0  0  0  0  0  0  0  0  0  0  0
  -38.0959  -26.3857   24.1656 C   0  0  0  0  0  0  0  0  0  0  0  0
  -36.4072  -25.0819   22.3783 C   0  0  0  0  0  0  0  0  0  0  0  0
  -31.7143  -25.4926   20.5201 C   0  0  0  0  0  0  0  0  0  0  0  0
  -22.3458   -8.7708   20.1779 C   0  0  0  0  0  0  0  0  0  0  0  0
  -23.1388   -8.7400   22.4598 C   0  0  0  0  0  0  0  0  0  0  0  0
  -31.5093  -25.0668   19.2084 C   0  0  0  0  0  0  0  0  0  0  0  0
  -19.4156   -7.9638   21.6598 C   0  0  0  0  0  0  0  0  0  0  0  0
  -18.1017   -7.9300   21.1930 C   0  0  0  0  0  0  0  0  0  0  0  0
  -30.6040  -22.9877   20.0312 C   0  0  0  0  0  0  0  0  0  0  0  0
  -18.6341   -6.0051   19.8335 C   0  0  0  0  0  0  0  0  0  0  0  0
  -23.8597  -10.4863   20.9539 C   0  0  0  0  0  0  0  0  0  0  0  0
  -24.2102  -13.0116   20.8671 C   0  0  0  0  0  0  0  0  0  0  0  0
  -37.2433  -25.3751   24.6372 C   0  0  0  0  0  0  0  0  0  0  0  0
  -31.3752  -24.6633   21.5989 C   0  0  0  0  0  0  0  0  0  0  0  0
  -36.3958  -24.7073   23.7327 C   0  0  0  0  0  0  0  0  0  0  0  0
  -30.8033  -23.4064   21.3557 C   0  0  0  0  0  0  0  0  0  0  0  0
  -22.3698   -8.1785   21.4405 C   0  0  0  0  0  0  0  0  0  0  0  0
  -30.9568  -23.8131   18.9638 C   0  0  0  0  0  0  0  0  0  0  0  0
  -20.3389   -7.0182   21.2134 C   0  0  0  0  0  0  0  0  0  0  0  0
  -17.7109   -6.9507   20.2798 C   0  0  0  0  0  0  0  0  0  0  0  0
  -19.9481   -6.0389   20.3002 C   0  0  0  0  0  0  0  0  0  0  0  0
  -24.6299  -11.6779   20.7030 C   0  0  0  0  0  0  0  0  0  0  0  0
  -25.3000  -13.7622   20.4993 C   0  0  0  0  0  0  0  0  0  0  0  0
  -29.4999  -16.7680   21.0070 C   0  0  0  0  0  0  0  0  0  0  0  0
  -28.7740  -18.2725   19.7867 C   0  0  0  0  0  0  0  0  0  0  0  0
  -22.9480  -13.5259   21.3122 C   0  0  0  0  0  0  0  0  0  0  0  0
  -32.9899  -23.2943   23.9699 C   0  0  0  0  0  0  0  0  0  0  0  0
  -30.8121  -14.6889   20.7188 C   0  0  0  0  0  0  0  0  0  0  0  0
  -30.0264  -22.4381   24.9733 C   0  0  0  0  0  0  0  0  0  0  0  0
  -26.7635  -21.8271   24.1813 C   0  0  0  0  0  0  0  0  0  0  0  0
  -37.3117  -24.9885   26.0934 C   0  0  0  0  0  0  0  0  0  0  0  0
  -31.5778  -25.1482   23.0082 C   0  0  0  0  0  0  0  0  0  0  0  0
  -30.4032  -22.4864   22.4791 C   0  0  0  0  0  0  0  0  0  0  0  0
  -36.1162  -24.1625   26.5611 C   0  0  0  0  0  0  0  0  0  0  0  0
  -29.6017  -12.4350   18.2098 C   0  0  0  0  0  0  0  0  0  0  0  0
  -35.8147  -23.0479   25.5642 C   0  0  0  0  0  0  0  0  0  0  0  0
  -28.1766  -12.1232   18.6647 C   0  0  0  0  0  0  0  0  0  0  0  0
  -30.5404  -12.6158   19.3987 C   0  0  0  0  0  0  0  0  0  0  0  0
  -28.6606  -13.3366   20.8369 C   0  0  0  0  0  0  0  0  0  0  0  0
  -35.4466  -23.6212   24.1904 C   0  0  1  0  0  0  0  0  0  0  0  0
  -31.6714  -24.0129   24.0230 C   0  0  1  0  0  0  0  0  0  0  0  0
  -27.6734  -13.1768   19.6672 C   0  0  2  0  0  0  0  0  0  0  0  0
  -31.3065  -16.1374   22.6595 C   0  0  0  0  0  0  0  0  0  0  0  0
  -24.5890  -21.1074   25.2065 C   0  0  0  0  0  0  0  0  0  0  0  0
  -27.9544  -19.7948   15.9191 C   0  0  0  0  0  0  0  0  0  0  0  0
  -31.9658  -21.7310   16.4587 C   0  0  0  0  0  0  0  0  0  0  0  0
  -31.0271  -19.5572   25.0676 C   0  0  0  0  0  0  0  0  0  0  0  0
  -28.6409  -18.8048   25.1586 C   0  0  0  0  0  0  0  0  0  0  0  0
  -29.5715  -20.2194   26.9904 C   0  0  0  0  0  0  0  0  0  0  0  0
  -25.4406  -24.3695   23.4430 C   0  0  0  0  0  0  0  0  0  0  0  0
  -29.4609  -21.5432   16.9191 C   0  0  0  0  0  0  0  0  0  0  0  0
  -29.6935  -19.0640   17.6065 C   0  0  0  0  0  0  0  0  0  0  0  0
  -30.2019  -15.6710   21.6869 C   0  0  1  0  0  0  0  0  0  0  0  0
  -29.1149  -21.2592   24.7316 C   0  0  1  0  0  0  0  0  0  0  0  0
  -25.4677  -22.2882   24.8236 C   0  0  2  0  0  0  0  0  0  0  0  0
  -29.3515  -20.0655   16.4920 C   0  0  1  0  0  0  0  0  0  0  0  0
  -30.8315  -21.9907   17.4409 C   0  0  2  0  0  0  0  0  0  1  0  0
  -29.5978  -19.9764   25.4657 C   0  0  0  0  0  0  0  0  0  0  0  0
  -25.8881  -11.5835   20.2649 N   0  0  0  0  0  0  0  0  0  0  0  0
  -29.7784  -17.3526   19.8692 N   0  0  0  0  0  0  0  0  0  0  0  0
  -27.9075  -18.2794   20.8040 N   0  0  0  0  0  0  0  0  0  0  0  0
  -26.2684  -12.8674   20.1506 N   0  0  0  0  0  0  0  0  0  0  0  0
  -30.6270  -23.0031   23.8394 N   0  0  0  0  0  0  0  0  0  0  0  0
  -30.0161  -13.6082   20.3386 N   0  0  0  0  0  0  0  0  0  0  0  0
  -25.5148  -15.0938   20.4434 N   0  0  0  0  0  0  0  0  0  0  0  0
  -21.9374  -12.6157   21.6504 N   0  0  0  0  0  0  0  0  0  0  0  0
  -28.7317  -19.1085   18.6824 N   0  0  0  0  0  0  0  0  0  0  0  0
  -34.0838  -24.1082   24.1947 N   0  0  0  0  0  0  0  0  0  0  0  0
  -27.7749  -21.6951   25.1092 N   0  0  0  0  0  0  0  0  0  0  0  0
  -24.7042  -23.1569   23.8838 N   0  3  0  0  0  0  0  0  0  0  0  0
  -22.7177  -14.7564   21.3916 O   0  0  0  0  0  0  0  0  0  0  0  0
  -33.0130  -22.0902   23.7434 O   0  0  0  0  0  0  0  0  0  0  0  0
  -31.9609  -14.8799   20.3114 O   0  0  0  0  0  0  0  0  0  0  0  0
  -30.1935  -22.8472   26.1250 O   0  0  0  0  0  0  0  0  0  0  0  0
  -26.8672  -21.6025   22.9774 O   0  0  0  0  0  0  0  0  0  0  0  0
  -28.3980  -17.2609   21.6308 O   0  0  0  0  0  0  0  0  0  0  0  0
  -21.6429   -7.0526   21.6783 O   0  0  0  0  0  0  0  0  0  0  0  0
  -30.7562  -23.3947   17.6845 O   0  0  0  0  0  0  0  0  0  1  0  0
  -16.4486   -6.9174   19.8328 F   0  0  0  0  0  0  0  0  0  0  0  0
  -20.8303   -5.1271   19.8687 F   0  0  0  0  0  0  0  0  0  0  0  0
  1  2  1  0  0  0  0
  1  5  2  0  0  0  0
  2  6  2  0  0  0  0
  3  8  2  0  0  0  0
  3 15  1  0  0  0  0
  4  9  1  0  0  0  0
  4 15  2  0  0  0  0
  5 17  1  0  0  0  0
  6 19  1  0  0  0  0
  7 10  2  0  0  0  0
  7 18  1  0  0  0  0
  8 21  1  0  0  0  0
  9 21  2  0  0  0  0
 10 22  1  0  0  0  0
 11 12  2  0  0  0  0
 11 23  1  0  0  0  0
 12 24  1  0  0  0  0
 13 20  1  0  0  0  0
 13 22  2  0  0  0  0
 14 24  2  0  0  0  0
 14 25  1  0  0  0  0
 15 26  1  0  0  0  0
 16 26  1  0  0  0  0
 16 27  2  0  0  0  0
 16 30  1  0  0  0  0
 17 19  2  0  0  0  0
 17 35  1  0  0  0  0
 18 20  2  0  0  0  0
 18 36  1  0  0  0  0
 19 44  1  0  0  0  0
 20 37  1  0  0  0  0
 21 81  1  0  0  0  0
 22 82  1  0  0  0  0
 23 25  2  0  0  0  0
 23 81  1  0  0  0  0
 24 83  1  0  0  0  0
 25 84  1  0  0  0  0
 26 63  2  0  0  0  0
 27 66  1  0  0  0  0
 27 69  1  0  0  0  0
 28 57  1  0  0  0  0
 28 64  2  0  0  0  0
 28 80  1  0  0  0  0
 29 64  1  0  0  0  0
 29 65  2  0  0  0  0
 29 71  1  0  0  0  0
 30 70  1  0  0  0  0
 30 75  2  0  0  0  0
 31 45  1  0  0  0  0
 31 72  1  0  0  0  0
 31 76  2  0  0  0  0
 32 57  1  0  0  0  0
 32 68  1  0  0  0  0
 32 77  2  0  0  0  0
 33 58  1  0  0  0  0
 33 67  1  0  0  0  0
 33 78  2  0  0  0  0
 34 59  1  0  0  0  0
 34 73  1  0  0  0  0
 34 79  2  0  0  0  0
 35 38  1  0  0  0  0
 36 45  1  0  0  0  0
 37 67  1  0  0  0  0
 38 40  1  0  0  0  0
 39 41  1  0  0  0  0
 39 42  1  0  0  0  0
 40 44  1  0  0  0  0
 41 46  1  0  0  0  0
 42 68  1  0  0  0  0
 43 46  1  0  0  0  0
 43 68  1  0  0  0  0
 44 72  1  0  0  0  0
 45 67  1  0  0  0  0
 46 66  1  0  0  0  0
 47 57  1  0  0  0  0
 48 59  1  0  0  0  0
 49 60  1  0  0  0  0
 50 61  1  0  0  0  0
 51 62  1  0  0  0  0
 52 62  1  0  0  0  0
 53 62  1  0  0  0  0
 54 74  1  0  0  0  0
 55 60  1  0  0  0  0
 55 61  1  0  0  0  0
 56 60  1  0  0  0  0
 56 71  1  0  0  0  0
 58 62  1  0  0  0  0
 58 73  1  0  0  0  0
 59 74  1  0  0  0  0
 61 82  1  0  0  0  0
 63 66  1  0  0  0  0
 65 80  1  0  0  0  0
M  CHG  1  74   1
M  ISO  4  32 100  57 100  61 101  82 101
M  END
> <Batch ID>
0191

> <Smiles>
CNC(C)C(=O)NC(C(=O)N1Cc2cc([101O:1][101CH:1](C)CC(C)CNc3noc([100CH:0](C)[100C:0](=O)N4CCCC(n5nc(-c6ccc(Oc7ccc(F)cc7F)cc6)c(C(N)=O)c5N)C4)n3)ccc2CC1C(=O)NC1CCCc2ccccc21)C(C)(C)C

> <Shape>
0.209

> <Color>
0.198

> <Negative vol penalty>
0.000

$$$$

  -OEChem-04052305243D

 84 92  0     1  0  0  0  0  0999 V2000
  -23.2599  -23.0688   19.5221 C   0  0  0  0  0  0  0  0  0  0  0  0
  -24.2660  -22.1357   19.7510 C   0  0  0  0  0  0  0  0  0  0  0  0
  -23.3056  -28.8964   20.8019 C   0  0  0  0  0  0  0  0  0  0  0  0
  -24.6695  -28.3748   22.7266 C   0  0  0  0  0  0  0  0  0  0  0  0
  -21.9844  -22.8594   20.0448 C   0  0  0  0  0  0  0  0  0  0  0  0
  -23.9975  -20.9930   20.5037 C   0  0  0  0  0  0  0  0  0  0  0  0
  -25.9032  -16.7947   18.4090 C   0  0  0  0  0  0  0  0  0  0  0  0
  -22.1846  -29.0031   21.6251 C   0  0  0  0  0  0  0  0  0  0  0  0
  -23.5486  -28.4816   23.5499 C   0  0  0  0  0  0  0  0  0  0  0  0
  -27.2699  -16.5685   18.5665 C   0  0  0  0  0  0  0  0  0  0  0  0
  -20.0133  -26.9157   23.1587 C   0  0  0  0  0  0  0  0  0  0  0  0
  -18.8355  -26.3025   22.7314 C   0  0  0  0  0  0  0  0  0  0  0  0
  -26.8011  -15.0189   20.3549 C   0  0  0  0  0  0  0  0  0  0  0  0
  -30.6921  -20.1007   21.1289 C   0  0  0  0  0  0  0  0  0  0  0  0
  -17.7160  -28.4435   22.7451 C   0  0  0  0  0  0  0  0  0  0  0  0
  -24.5480  -28.5822   21.3526 C   0  0  0  0  0  0  0  0  0  0  0  0
  -26.6011  -29.4980   20.1470 C   0  0  0  0  0  0  0  0  0  0  0  0
  -21.6975  -21.7088   20.7961 C   0  0  0  0  0  0  0  0  0  0  0  0
  -24.9742  -16.1419   19.2319 C   0  0  0  0  0  0  0  0  0  0  0  0
  -22.7173  -20.7686   21.0380 C   0  0  0  0  0  0  0  0  0  0  0  0
  -25.4231  -15.2367   20.2041 C   0  0  0  0  0  0  0  0  0  0  0  0
  -30.3372  -21.4433   21.4478 C   0  0  0  0  0  0  0  0  0  0  0  0
  -22.3061  -28.7958   22.9991 C   0  0  0  0  0  0  0  0  0  0  0  0
  -27.7192  -15.6827   19.5415 C   0  0  0  0  0  0  0  0  0  0  0  0
  -20.0424  -28.2927   23.3793 C   0  0  0  0  0  0  0  0  0  0  0  0
  -17.6869  -27.0664   22.5246 C   0  0  0  0  0  0  0  0  0  0  0  0
  -18.8937  -29.0566   23.1724 C   0  0  0  0  0  0  0  0  0  0  0  0
  -25.7062  -28.4712   20.5027 C   0  0  0  0  0  0  0  0  0  0  0  0
  -29.4696  -21.5095   22.5156 C   0  0  0  0  0  0  0  0  0  0  0  0
  -27.5201  -28.8851   19.3307 C   0  0  0  0  0  0  0  0  0  0  0  0
  -30.0822  -19.1918   21.9655 C   0  0  0  0  0  0  0  0  0  0  0  0
  -26.6018  -30.8821   20.5211 C   0  0  0  0  0  0  0  0  0  0  0  0
  -22.7959  -17.0872   21.3450 C   0  0  0  0  0  0  0  0  0  0  0  0
  -22.0199  -13.9377   21.3699 C   0  0  0  0  0  0  0  0  0  0  0  0
  -22.9883  -10.7108   20.8256 C   0  0  0  0  0  0  0  0  0  0  0  0
  -29.3666  -23.2134   18.8077 C   0  0  0  0  0  0  0  0  0  0  0  0
  -20.3163  -21.5491   21.3804 C   0  0  0  0  0  0  0  0  0  0  0  0
  -23.5020  -16.3766   19.0315 C   0  0  0  0  0  0  0  0  0  0  0  0
  -24.4655  -14.4952   21.0996 C   0  0  0  0  0  0  0  0  0  0  0  0
  -20.0147  -20.1287   21.8514 C   0  0  0  0  0  0  0  0  0  0  0  0
  -27.9561  -25.2500   16.2506 C   0  0  0  0  0  0  0  0  0  0  0  0
  -21.1786  -19.5793   22.6701 C   0  0  0  0  0  0  0  0  0  0  0  0
  -27.3003  -26.3992   17.0183 C   0  0  0  0  0  0  0  0  0  0  0  0
  -27.8296  -23.9257   17.0003 C   0  0  0  0  0  0  0  0  0  0  0  0
  -27.6619  -25.1019   19.1595 C   0  0  0  0  0  0  0  0  0  0  0  0
  -22.4583  -19.5044   21.8286 C   0  0  1  0  0  0  0  0  0  0  0  0
  -22.6708  -16.0474   20.2676 C   0  0  1  0  0  0  0  0  0  0  0  0
  -27.8125  -26.4685   18.4695 C   0  0  2  0  0  0  0  0  0  0  0  0
  -27.4075  -22.9163   22.7501 C   0  0  0  0  0  0  0  0  0  0  0  0
  -22.1474   -8.3508   20.9694 C   0  0  0  0  0  0  0  0  0  0  0  0
  -22.3394  -14.0113   24.4034 C   0  0  0  0  0  0  0  0  0  0  0  0
  -22.4323  -11.5095   24.3846 C   0  0  0  0  0  0  0  0  0  0  0  0
  -20.3799  -12.6856   23.5927 C   0  0  0  0  0  0  0  0  0  0  0  0
  -23.3658  -10.2764   17.9225 C   0  0  0  0  0  0  0  0  0  0  0  0
  -30.8481  -22.6226   20.7091 C   0  0  0  0  0  0  0  0  0  0  0  0
  -28.8689  -22.7035   23.1524 C   0  0  0  0  0  0  0  0  0  0  0  0
  -31.0431  -17.1198   20.9608 C   0  0  0  0  0  0  0  0  0  0  0  0
  -29.5060  -15.1259   21.0088 C   0  0  0  0  0  0  0  0  0  1  0  0
  -22.4650  -12.7332   22.1637 C   0  0  1  0  0  0  0  0  0  0  0  0
  -22.3199   -9.5710   20.0782 C   0  0  2  0  0  0  0  0  0  0  0  0
  -30.9421  -15.6108   21.1752 C   0  0  1  0  0  0  0  0  0  0  0  0
  -21.9225  -12.7502   23.6207 C   0  0  0  0  0  0  0  0  0  0  0  0
  -26.0275  -27.2952   19.9570 N   0  0  0  0  0  0  0  0  0  0  0  0
  -27.1346  -27.5793   19.2500 N   0  0  0  0  0  0  0  0  0  0  0  0
  -23.0364  -14.7633   20.8690 N   0  0  0  0  0  0  0  0  0  0  0  0
  -28.3342  -24.0588   18.3691 N   0  0  0  0  0  0  0  0  0  0  0  0
  -28.6122  -29.3410   18.6813 N   0  0  0  0  0  0  0  0  0  0  0  0
  -25.5848  -31.3462   21.3665 N   0  0  0  0  0  0  0  0  0  0  0  0
  -30.2165  -17.8143   21.9224 N   0  0  0  0  0  0  0  0  0  0  0  0
  -22.4182  -18.3560   20.9488 N   0  0  0  0  0  0  0  0  0  0  0  0
  -22.0632  -11.5633   21.3901 N   0  0  0  0  0  0  0  0  0  0  0  0
  -29.7903  -23.4103   20.1163 N   0  0  0  0  0  0  0  0  0  0  0  0
  -23.1369   -9.1775   18.8956 N   0  3  0  0  0  0  0  0  0  0  0  0
  -27.4688  -31.6872   20.1043 O   0  0  0  0  0  0  0  0  0  0  0  0
  -23.2034  -16.7622   22.4540 O   0  0  0  0  0  0  0  0  0  0  0  0
  -20.8148  -14.1347   21.1945 O   0  0  0  0  0  0  0  0  0  0  0  0
  -24.2089  -10.8307   20.9040 O   0  0  0  0  0  0  0  0  0  0  0  0
  -29.8768  -22.3508   18.0848 O   0  0  0  0  0  0  0  0  0  0  0  0
  -31.7420  -14.9452   20.1958 O   0  0  0  0  0  0  0  0  0  0  0  0
  -21.2126  -28.9001   23.8027 O   0  0  0  0  0  0  0  0  0  0  0  0
  -29.0526  -15.4605   19.6978 O   0  0  0  0  0  0  0  0  0  1  0  0
  -16.5564  -26.4777   22.1127 F   0  0  0  0  0  0  0  0  0  0  0  0
  -18.9159  -30.3801   23.3815 F   0  0  0  0  0  0  0  0  0  0  0  0
  -29.0864  -19.9574   23.1292 S   0  0  0  0  0  0  0  0  0  0  0  0
  1  2  1  0  0  0  0
  1  5  2  0  0  0  0
  2  6  2  0  0  0  0
  3  8  2  0  0  0  0
  3 16  1  0  0  0  0
  4  9  1  0  0  0  0
  4 16  2  0  0  0  0
  5 18  1  0  0  0  0
  6 20  1  0  0  0  0
  7 10  2  0  0  0  0
  7 19  1  0  0  0  0
  8 23  1  0  0  0  0
  9 23  2  0  0  0  0
 10 24  1  0  0  0  0
 11 12  2  0  0  0  0
 11 25  1  0  0  0  0
 12 26  1  0  0  0  0
 13 21  1  0  0  0  0
 13 24  2  0  0  0  0
 14 22  1  0  0  0  0
 14 31  2  0  0  0  0
 15 26  2  0  0  0  0
 15 27  1  0  0  0  0
 16 28  1  0  0  0  0
 17 28  1  0  0  0  0
 17 30  2  0  0  0  0
 17 32  1  0  0  0  0
 18 20  2  0  0  0  0
 18 37  1  0  0  0  0
 19 21  2  0  0  0  0
 19 38  1  0  0  0  0
 20 46  1  0  0  0  0
 21 39  1  0  0  0  0
 22 29  2  0  0  0  0
 22 55  1  0  0  0  0
 23 80  1  0  0  0  0
 24 81  1  0  0  0  0
 25 27  2  0  0  0  0
 25 80  1  0  0  0  0
 26 82  1  0  0  0  0
 27 83  1  0  0  0  0
 28 63  2  0  0  0  0
 29 56  1  0  0  0  0
 29 84  1  0  0  0  0
 30 64  1  0  0  0  0
 30 67  1  0  0  0  0
 31 69  1  0  0  0  0
 31 84  1  0  0  0  0
 32 68  1  0  0  0  0
 32 74  2  0  0  0  0
 33 47  1  0  0  0  0
 33 70  1  0  0  0  0
 33 75  2  0  0  0  0
 34 59  1  0  0  0  0
 34 65  1  0  0  0  0
 34 76  2  0  0  0  0
 35 60  1  0  0  0  0
 35 71  1  0  0  0  0
 35 77  2  0  0  0  0
 36 66  1  0  0  0  0
 36 72  1  0  0  0  0
 36 78  2  0  0  0  0
 37 40  1  0  0  0  0
 38 47  1  0  0  0  0
 39 65  1  0  0  0  0
 40 42  1  0  0  0  0
 41 43  1  0  0  0  0
 41 44  1  0  0  0  0
 42 46  1  0  0  0  0
 43 48  1  0  0  0  0
 44 66  1  0  0  0  0
 45 48  1  0  0  0  0
 45 66  1  0  0  0  0
 46 70  1  0  0  0  0
 47 65  1  0  0  0  0
 48 64  1  0  0  0  0
 49 56  1  0  0  0  0
 50 60  1  0  0  0  0
 51 62  1  0  0  0  0
 52 62  1  0  0  0  0
 53 62  1  0  0  0  0
 54 73  1  0  0  0  0
 55 72  1  0  0  0  0
 57 61  1  0  0  0  0
 57 69  1  0  0  0  0
 58 61  1  0  0  0  0
 58 81  1  0  0  0  0
 59 62  1  0  0  0  0
 59 71  1  0  0  0  0
 60 73  1  0  0  0  0
 61 79  1  0  0  0  0
 63 64  1  0  0  0  0
M  CHG  1  73   1
M  ISO  4  36 100  58 101  72 100  81 101
M  END
> <Batch ID>
0191

> <Smiles>
CCc1sc(NCC(O)[101CH2:1][101O:1]c2ccc3c(c2)CN(C(=O)C(NC(=O)C(C)NC)C(C)(C)C)C(C(=O)NC2CCCc4ccccc42)C3)cc1C[100NH:0][100C:0](=O)N1CCCC(n2nc(-c3ccc(Oc4ccc(F)cc4F)cc3)c(C(N)=O)c2N)C1

> <Shape>
0.257

> <Color>
0.049

> <Negative vol penalty>
0.000

$$$$

  -OEChem-04052305243D

 83 91  0     1  0  0  0  0  0999 V2000
  -30.1134  -11.3768   19.5446 C   0  0  0  0  0  0  0  0  0  0  0  0
  -30.0411  -12.7422   19.2883 C   0  0  0  0  0  0  0  0  0  0  0  0
  -19.5211  -25.9889   21.1514 C   0  0  0  0  0  0  0  0  0  0  0  0
  -21.0844  -24.5222   22.2658 C   0  0  0  0  0  0  0  0  0  0  0  0
  -28.9640  -10.6743   19.9042 C   0  0  0  0  0  0  0  0  0  0  0  0
  -28.8190  -13.4059   19.3904 C   0  0  0  0  0  0  0  0  0  0  0  0
  -29.2008  -17.8115   21.8582 C   0  0  0  0  0  0  0  0  0  0  0  0
  -18.8238  -24.8805   20.6708 C   0  0  0  0  0  0  0  0  0  0  0  0
  -20.3871  -23.4138   21.7853 C   0  0  0  0  0  0  0  0  0  0  0  0
  -29.7216  -18.8943   21.1510 C   0  0  0  0  0  0  0  0  0  0  0  0
  -16.8413  -22.4329   18.8536 C   0  0  0  0  0  0  0  0  0  0  0  0
  -16.4531  -22.4399   17.5139 C   0  0  0  0  0  0  0  0  0  0  0  0
  -30.8810  -27.0674   20.4373 C   0  0  0  0  0  0  0  0  0  0  0  0
  -31.1885  -25.9189   19.6520 C   0  0  0  0  0  0  0  0  0  0  0  0
  -27.4855  -19.7196   20.7798 C   0  0  0  0  0  0  0  0  0  0  0  0
  -18.7676  -22.6194   16.8442 C   0  0  0  0  0  0  0  0  0  0  0  0
  -20.6515  -25.8097   21.9489 C   0  0  0  0  0  0  0  0  0  0  0  0
  -21.1520  -27.6385   23.6555 C   0  0  0  0  0  0  0  0  0  0  0  0
  -27.7290  -11.3316   20.0201 C   0  0  0  0  0  0  0  0  0  0  0  0
  -27.8156  -17.6685   22.0224 C   0  0  0  0  0  0  0  0  0  0  0  0
  -27.6517  -12.7113   19.7505 C   0  0  0  0  0  0  0  0  0  0  0  0
  -26.9498  -18.6354   21.4916 C   0  0  0  0  0  0  0  0  0  0  0  0
  -19.2568  -23.5930   20.9878 C   0  0  0  0  0  0  0  0  0  0  0  0
  -28.8638  -19.8470   20.6093 C   0  0  0  0  0  0  0  0  0  0  0  0
  -18.1926  -22.5192   19.1887 C   0  0  0  0  0  0  0  0  0  0  0  0
  -17.4162  -22.5331   16.5092 C   0  0  0  0  0  0  0  0  0  0  0  0
  -19.1557  -22.6124   18.1840 C   0  0  0  0  0  0  0  0  0  0  0  0
  -21.3725  -26.9542   22.4451 C   0  0  0  0  0  0  0  0  0  0  0  0
  -29.7486  -26.8847   21.2001 C   0  0  0  0  0  0  0  0  0  0  0  0
  -22.0911  -28.6408   23.6592 C   0  0  0  0  0  0  0  0  0  0  0  0
  -30.2794  -24.9019   19.8448 C   0  0  0  0  0  0  0  0  0  0  0  0
  -20.1849  -27.3903   24.6844 C   0  0  0  0  0  0  0  0  0  0  0  0
  -25.6661  -15.4945   21.1521 C   0  0  0  0  0  0  0  0  0  0  0  0
  -23.6727  -17.3119   22.9536 C   0  0  0  0  0  0  0  0  0  0  0  0
  -31.0731  -23.0327   18.3535 C   0  0  0  0  0  0  0  0  0  0  0  0
  -22.9725  -20.3591   24.3214 C   0  0  0  0  0  0  0  0  0  0  0  0
  -27.4186  -29.2468   20.9944 C   0  0  0  0  0  0  0  0  0  0  0  0
  -26.5049  -10.5210   20.3656 C   0  0  0  0  0  0  0  0  0  0  0  0
  -27.2711  -16.5090   22.8107 C   0  0  0  0  0  0  0  0  0  0  0  0
  -25.4559  -18.5387   21.6573 C   0  0  0  0  0  0  0  0  0  0  0  0
  -25.3194  -11.3703   20.8166 C   0  0  0  0  0  0  0  0  0  0  0  0
  -24.6140  -31.4192   20.6916 C   0  0  0  0  0  0  0  0  0  0  0  0
  -25.1208  -12.5531   19.8741 C   0  0  0  0  0  0  0  0  0  0  0  0
  -23.4453  -30.5830   21.2159 C   0  0  0  0  0  0  0  0  0  0  0  0
  -25.6175  -30.5652   19.9199 C   0  0  0  0  0  0  0  0  0  0  0  0
  -24.9527  -28.5520   21.1763 C   0  0  0  0  0  0  0  0  0  0  0  0
  -26.3490  -13.4713   19.8748 C   0  0  1  0  0  0  0  0  0  0  0  0
  -25.8175  -16.1889   22.4759 C   0  0  1  0  0  0  0  0  0  0  0  0
  -23.9426  -29.3596   22.0092 C   0  0  2  0  0  0  0  0  0  0  0  0
  -31.5974  -21.0353   16.9450 C   0  0  0  0  0  0  0  0  0  0  0  0
  -21.2532  -21.5463   25.7114 C   0  0  0  0  0  0  0  0  0  0  0  0
  -21.8183  -17.4532   20.5347 C   0  0  0  0  0  0  0  0  0  0  0  0
  -20.6451  -19.3725   21.6338 C   0  0  0  0  0  0  0  0  0  0  0  0
  -20.6541  -17.1289   22.7242 C   0  0  0  0  0  0  0  0  0  0  0  0
  -24.9371  -20.9519   26.4540 C   0  0  0  0  0  0  0  0  0  0  0  0
  -29.1071  -27.8320   22.1374 C   0  0  0  0  0  0  0  0  0  0  0  0
  -30.5976  -20.6979   19.2215 C   0  0  0  0  0  0  0  0  0  1  0  0
  -22.7784  -18.4994   22.6910 C   0  0  1  0  0  0  0  0  0  0  0  0
  -30.6393  -21.6059   17.9900 C   0  0  1  0  0  0  0  0  0  0  0  0
  -22.5558  -20.7617   25.7246 C   0  0  2  0  0  0  0  0  0  0  0  0
  -21.5019  -18.1146   21.8910 C   0  0  0  0  0  0  0  0  0  0  0  0
  -22.3730  -27.4777   21.7317 N   0  0  0  0  0  0  0  0  0  0  0  0
  -22.7895  -28.5016   22.4960 N   0  0  0  0  0  0  0  0  0  0  0  0
  -24.9717  -17.3833   22.4307 N   0  0  0  0  0  0  0  0  0  0  0  0
  -26.0507  -29.4230   20.7284 N   0  0  0  0  0  0  0  0  0  0  0  0
  -22.3792  -29.6190   24.5439 N   0  0  0  0  0  0  0  0  0  0  0  0
  -19.2955  -26.3195   24.5212 N   0  0  0  0  0  0  0  0  0  0  0  0
  -30.2044  -23.6074   19.2775 N   0  0  0  0  0  0  0  0  0  0  0  0
  -26.3583  -14.3021   21.0599 N   0  0  0  0  0  0  0  0  0  0  0  0
  -22.5090  -19.1031   23.9916 N   0  0  0  0  0  0  0  0  0  0  0  0
  -27.7426  -28.1428   21.7734 N   0  0  0  0  0  0  0  0  0  0  0  0
  -23.6081  -21.6083   26.3546 N   0  3  0  0  0  0  0  0  0  0  0  0
  -20.1009  -28.1072   25.7104 O   0  0  0  0  0  0  0  0  0  0  0  0
  -24.9716  -16.0022   20.2794 O   0  0  0  0  0  0  0  0  0  0  0  0
  -23.2372  -16.3592   23.6050 O   0  0  0  0  0  0  0  0  0  0  0  0
  -32.0661  -23.5521   17.8522 O   0  0  0  0  0  0  0  0  0  0  0  0
  -23.6390  -21.0877   23.5897 O   0  0  0  0  0  0  0  0  0  0  0  0
  -28.2864  -30.0194   20.5736 O   0  0  0  0  0  0  0  0  0  0  0  0
  -18.5765  -22.5113   20.5192 O   0  0  0  0  0  0  0  0  0  0  0  0
  -29.3694  -20.9046   19.9180 O   0  0  0  0  0  0  0  0  0  1  0  0
  -17.0434  -22.5383   15.2227 F   0  0  0  0  0  0  0  0  0  0  0  0
  -20.4555  -22.6943   18.4997 F   0  0  0  0  0  0  0  0  0  0  0  0
  -29.0613  -25.3335   20.9683 S   0  0  0  0  0  0  0  0  0  0  0  0
  1  2  1  0  0  0  0
  1  5  2  0  0  0  0
  2  6  2  0  0  0  0
  3  8  2  0  0  0  0
  3 17  1  0  0  0  0
  4  9  1  0  0  0  0
  4 17  2  0  0  0  0
  5 19  1  0  0  0  0
  6 21  1  0  0  0  0
  7 10  2  0  0  0  0
  7 20  1  0  0  0  0
  8 23  1  0  0  0  0
  9 23  2  0  0  0  0
 10 24  1  0  0  0  0
 11 12  2  0  0  0  0
 11 25  1  0  0  0  0
 12 26  1  0  0  0  0
 13 14  1  0  0  0  0
 13 29  2  0  0  0  0
 14 31  2  0  0  0  0
 15 22  1  0  0  0  0
 15 24  2  0  0  0  0
 16 26  2  0  0  0  0
 16 27  1  0  0  0  0
 17 28  1  0  0  0  0
 18 28  1  0  0  0  0
 18 30  2  0  0  0  0
 18 32  1  0  0  0  0
 19 21  2  0  0  0  0
 19 38  1  0  0  0  0
 20 22  2  0  0  0  0
 20 39  1  0  0  0  0
 21 47  1  0  0  0  0
 22 40  1  0  0  0  0
 23 79  1  0  0  0  0
 24 80  1  0  0  0  0
 25 27  2  0  0  0  0
 25 79  1  0  0  0  0
 26 81  1  0  0  0  0
 27 82  1  0  0  0  0
 28 62  2  0  0  0  0
 29 56  1  0  0  0  0
 29 83  1  0  0  0  0
 30 63  1  0  0  0  0
 30 66  1  0  0  0  0
 31 68  1  0  0  0  0
 31 83  1  0  0  0  0
 32 67  1  0  0  0  0
 32 73  2  0  0  0  0
 33 48  1  0  0  0  0
 33 69  1  0  0  0  0
 33 74  2  0  0  0  0
 34 58  1  0  0  0  0
 34 64  1  0  0  0  0
 34 75  2  0  0  0  0
 35 59  1  0  0  0  0
 35 68  1  0  0  0  0
 35 76  2  0  0  0  0
 36 60  1  0  0  0  0
 36 70  1  0  0  0  0
 36 77  2  0  0  0  0
 37 65  1  0  0  0  0
 37 71  1  0  0  0  0
 37 78  2  0  0  0  0
 38 41  1  0  0  0  0
 39 48  1  0  0  0  0
 40 64  1  0  0  0  0
 41 43  1  0  0  0  0
 42 44  1  0  0  0  0
 42 45  1  0  0  0  0
 43 47  1  0  0  0  0
 44 49  1  0  0  0  0
 45 65  1  0  0  0  0
 46 49  1  0  0  0  0
 46 65  1  0  0  0  0
 47 69  1  0  0  0  0
 48 64  1  0  0  0  0
 49 63  1  0  0  0  0
 50 59  1  0  0  0  0
 51 60  1  0  0  0  0
 52 61  1  0  0  0  0
 53 61  1  0  0  0  0
 54 61  1  0  0  0  0
 55 72  1  0  0  0  0
 56 71  1  0  0  0  0
 57 59  1  0  0  0  0
 57 80  1  0  0  0  0
 58 61  1  0  0  0  0
 58 70  1  0  0  0  0
 60 72  1  0  0  0  0
 62 63  1  0  0  0  0
M  CHG  1  72   1
M  ISO  4  37 100  57 101  71 100  80 101
M  END
> <Batch ID>
0191

> <Smiles>
CNC(C)C(=O)NC(C(=O)N1Cc2cc([101O:1][101CH2:1]C(C)C(=O)Nc3ccc(C[100NH:0][100C:0](=O)N4CCCC(n5nc(-c6ccc(Oc7ccc(F)cc7F)cc6)c(C(N)=O)c5N)C4)s3)ccc2CC1C(=O)NC1CCCc2ccccc21)C(C)(C)C

> <Shape>
0.227

> <Color>
0.057

> <Negative vol penalty>
0.000

$$$$

  -OEChem-04052305243D

 87 95  0     1  0  0  0  0  0999 V2000
  -22.5655  -31.3714   14.2275 C   0  0  0  0  0  0  0  0  0  0  0  0
  -23.6497  -30.7822   14.8699 C   0  0  0  0  0  0  0  0  0  0  0  0
  -24.2250   -9.6253   21.4962 C   0  0  0  0  0  0  0  0  0  0  0  0
  -22.1251  -10.6843   20.9434 C   0  0  0  0  0  0  0  0  0  0  0  0
  -21.9216  -32.4632   14.8084 C   0  0  0  0  0  0  0  0  0  0  0  0
  -24.0914  -31.2851   16.0931 C   0  0  0  0  0  0  0  0  0  0  0  0
  -25.0465  -27.6301   19.4656 C   0  0  0  0  0  0  0  0  0  0  0  0
  -23.5762   -8.3954   21.6048 C   0  0  0  0  0  0  0  0  0  0  0  0
  -21.4762   -9.4543   21.0519 C   0  0  0  0  0  0  0  0  0  0  0  0
  -26.2462  -26.9335   19.3270 C   0  0  0  0  0  0  0  0  0  0  0  0
  -21.6538   -6.7853   23.8712 C   0  0  0  0  0  0  0  0  0  0  0  0
  -21.9649   -5.9841   24.9698 C   0  0  0  0  0  0  0  0  0  0  0  0
  -27.2255  -28.2856   21.0682 C   0  0  0  0  0  0  0  0  0  0  0  0
  -22.7224   -4.2379   23.4818 C   0  0  0  0  0  0  0  0  0  0  0  0
  -23.4994  -10.7698   21.1656 C   0  0  0  0  0  0  0  0  0  0  0  0
  -24.7526  -12.5956   19.8991 C   0  0  0  0  0  0  0  0  0  0  0  0
  -22.3496  -32.9737   16.0440 C   0  0  0  0  0  0  0  0  0  0  0  0
  -24.9305  -28.6687   20.4006 C   0  0  0  0  0  0  0  0  0  0  0  0
  -23.4536  -32.3856   16.6904 C   0  0  0  0  0  0  0  0  0  0  0  0
  -26.0225  -28.9921   21.2185 C   0  0  0  0  0  0  0  0  0  0  0  0
  -22.2018   -8.3098   21.3826 C   0  0  0  0  0  0  0  0  0  0  0  0
  -27.3369  -27.2631   20.1263 C   0  0  0  0  0  0  0  0  0  0  0  0
  -21.8770   -6.3128   22.5779 C   0  0  0  0  0  0  0  0  0  0  0  0
  -22.4992   -4.7104   24.7751 C   0  0  0  0  0  0  0  0  0  0  0  0
  -22.4113   -5.0391   22.3832 C   0  0  0  0  0  0  0  0  0  0  0  0
  -24.1690  -12.0408   21.0539 C   0  0  0  0  0  0  0  0  0  0  0  0
  -25.2525  -13.8056   20.3145 C   0  0  0  0  0  0  0  0  0  0  0  0
  -25.0518  -22.1891   20.6046 C   0  0  0  0  0  0  0  0  0  0  0  0
  -24.7221  -20.1059   21.1406 C   0  0  0  0  0  0  0  0  0  0  0  0
  -24.8353  -12.0647   18.5698 C   0  0  0  0  0  0  0  0  0  0  0  0
  -24.3388  -31.7870   20.2275 C   0  0  0  0  0  0  0  0  0  0  0  0
  -28.0632  -22.2937   19.9349 C   0  0  0  0  0  0  0  0  0  0  0  0
  -24.2956  -31.5626   23.4633 C   0  0  0  0  0  0  0  0  0  0  0  0
  -25.2837  -29.8820   26.2643 C   0  0  0  0  0  0  0  0  0  0  0  0
  -24.7413  -18.5753   23.1414 C   0  0  0  0  0  0  0  0  0  0  0  0
  -21.6519  -34.1851   16.6099 C   0  0  0  0  0  0  0  0  0  0  0  0
  -23.6213  -29.3927   20.5564 C   0  0  0  0  0  0  0  0  0  0  0  0
  -25.9433  -30.0854   22.2515 C   0  0  0  0  0  0  0  0  0  0  0  0
  -21.9466  -34.4224   18.0888 C   0  0  0  0  0  0  0  0  0  0  0  0
  -25.8153  -15.7144   24.9686 C   0  0  0  0  0  0  0  0  0  0  0  0
  -23.4421  -34.2965   18.3620 C   0  0  0  0  0  0  0  0  0  0  0  0
  -25.5308  -14.5493   24.0181 C   0  0  0  0  0  0  0  0  0  0  0  0
  -24.7411  -16.7967   24.8767 C   0  0  0  0  0  0  0  0  0  0  0  0
  -24.1905  -16.1287   22.5703 C   0  0  0  0  0  0  0  0  0  0  0  0
  -23.9467  -32.8869   18.0304 C   0  0  1  0  0  0  0  0  0  0  0  0
  -23.7738  -30.7750   21.1836 C   0  0  1  0  0  0  0  0  0  0  0  0
  -25.2797  -15.0437   22.5800 C   0  0  2  0  0  0  0  0  0  0  0  0
  -28.5782  -20.5527   18.1747 C   0  0  0  0  0  0  0  0  0  0  0  0
  -24.4379  -24.2756   21.8939 C   0  0  0  0  0  0  0  0  0  0  0  0
  -25.1244  -29.9602   28.7675 C   0  0  0  0  0  0  0  0  0  0  0  0
  -30.3432  -26.4771   21.5379 C   0  0  0  0  0  0  0  0  0  0  0  0
  -26.3567  -33.8118   23.5218 C   0  0  0  0  0  0  0  0  0  0  0  0
  -26.8523  -33.2016   25.8988 C   0  0  0  0  0  0  0  0  0  0  0  0
  -24.5714  -33.9873   25.2642 C   0  0  0  0  0  0  0  0  0  0  0  0
  -23.9074  -27.2643   26.3744 C   0  0  0  0  0  0  0  0  0  0  0  0
  -28.3803  -22.0286   18.4714 C   0  0  0  0  0  0  0  0  0  0  0  0
  -29.1144  -24.3981   20.8148 C   0  0  0  0  0  0  0  0  0  0  0  0
  -25.3887  -23.6353   20.8856 C   0  0  1  0  0  0  0  0  0  0  0  0
  -27.8183  -23.7473   20.3170 C   0  0  2  0  0  0  0  0  0  0  0  0
  -25.3294  -31.6813   24.5570 C   0  0  1  0  0  0  0  0  0  0  0  0
  -24.5110  -29.4182   27.4859 C   0  0  2  0  0  0  0  0  0  0  0  0
  -28.9932  -25.8917   21.1420 C   0  0  2  0  0  0  0  0  0  1  0  0
  -25.7799  -33.1511   24.7898 C   0  0  0  0  0  0  0  0  0  0  0  0
  -24.2867  -12.8332   22.1226 N   0  0  0  0  0  0  0  0  0  0  0  0
  -25.0399  -21.2773   21.6465 N   0  0  0  0  0  0  0  0  0  0  0  0
  -24.7691  -21.8063   19.3595 N   0  0  0  0  0  0  0  0  0  0  0  0
  -24.9500  -13.8982   21.6412 N   0  0  0  0  0  0  0  0  0  0  0  0
  -24.6436  -30.7683   22.3616 N   0  0  0  0  0  0  0  0  0  0  0  0
  -24.5608  -17.2191   23.4861 N   0  0  0  0  0  0  0  0  0  0  0  0
  -25.9169  -14.7886   19.6707 N   0  0  0  0  0  0  0  0  0  0  0  0
  -24.2693  -10.8080   18.3159 N   0  0  0  0  0  0  0  0  0  0  0  0
  -24.5755  -18.8524   21.7848 N   0  0  0  0  0  0  0  0  0  0  0  0
  -23.5857  -31.9605   19.0820 N   0  0  0  0  0  0  0  0  0  0  0  0
  -24.7539  -31.0393   25.7339 N   0  0  0  0  0  0  0  0  0  0  0  0
  -24.5050  -27.9298   27.5606 N   0  3  0  0  0  0  0  0  0  0  0  0
  -26.7769  -23.8143   21.3823 N   0  3  0  0  0  0  0  0  0  0  0  0
  -25.4090  -12.6791   17.6388 O   0  0  0  0  0  0  0  0  0  0  0  0
  -25.3801  -32.3686   20.5089 O   0  0  0  0  0  0  0  0  0  0  0  0
  -28.0231  -21.3900   20.7700 O   0  0  0  0  0  0  0  0  0  0  0  0
  -23.2163  -32.1472   23.5853 O   0  0  0  0  0  0  0  0  0  0  0  0
  -26.2620  -29.2802   25.8268 O   0  0  0  0  0  0  0  0  0  0  0  0
  -25.0490  -19.4234   23.9829 O   0  0  0  0  0  0  0  0  0  0  0  0
  -21.5684   -7.1098   21.4883 O   0  0  0  0  0  0  0  0  0  0  0  0
  -28.5092  -26.5852   19.9926 O   0  0  0  0  0  0  0  0  0  1  0  0
  -22.7993   -3.9417   25.8302 F   0  0  0  0  0  0  0  0  0  0  0  0
  -22.6291   -4.5802   21.1431 F   0  0  0  0  0  0  0  0  0  0  0  0
  -24.4547  -20.1649   19.4466 S   0  0  0  0  0  0  0  0  0  0  0  0
  1  2  1  0  0  0  0
  1  5  2  0  0  0  0
  2  6  2  0  0  0  0
  3  8  2  0  0  0  0
  3 15  1  0  0  0  0
  4  9  1  0  0  0  0
  4 15  2  0  0  0  0
  5 17  1  0  0  0  0
  6 19  1  0  0  0  0
  7 10  2  0  0  0  0
  7 18  1  0  0  0  0
  8 21  1  0  0  0  0
  9 21  2  0  0  0  0
 10 22  1  0  0  0  0
 11 12  2  0  0  0  0
 11 23  1  0  0  0  0
 12 24  1  0  0  0  0
 13 20  1  0  0  0  0
 13 22  2  0  0  0  0
 14 24  2  0  0  0  0
 14 25  1  0  0  0  0
 15 26  1  0  0  0  0
 16 26  1  0  0  0  0
 16 27  2  0  0  0  0
 16 30  1  0  0  0  0
 17 19  2  0  0  0  0
 17 36  1  0  0  0  0
 18 20  2  0  0  0  0
 18 37  1  0  0  0  0
 19 45  1  0  0  0  0
 20 38  1  0  0  0  0
 21 83  1  0  0  0  0
 22 84  1  0  0  0  0
 23 25  2  0  0  0  0
 23 83  1  0  0  0  0
 24 85  1  0  0  0  0
 25 86  1  0  0  0  0
 26 64  2  0  0  0  0
 27 67  1  0  0  0  0
 27 70  1  0  0  0  0
 28 58  1  0  0  0  0
 28 65  1  0  0  0  0
 28 66  2  0  0  0  0
 29 65  2  0  0  0  0
 29 72  1  0  0  0  0
 29 87  1  0  0  0  0
 30 71  1  0  0  0  0
 30 77  2  0  0  0  0
 31 46  1  0  0  0  0
 31 73  1  0  0  0  0
 31 78  2  0  0  0  0
 32 56  1  0  0  0  0
 32 59  1  0  0  0  0
 32 79  2  0  0  0  0
 33 60  1  0  0  0  0
 33 68  1  0  0  0  0
 33 80  2  0  0  0  0
 34 61  1  0  0  0  0
 34 74  1  0  0  0  0
 34 81  2  0  0  0  0
 35 69  1  0  0  0  0
 35 72  1  0  0  0  0
 35 82  2  0  0  0  0
 36 39  1  0  0  0  0
 37 46  1  0  0  0  0
 38 68  1  0  0  0  0
 39 41  1  0  0  0  0
 40 42  1  0  0  0  0
 40 43  1  0  0  0  0
 41 45  1  0  0  0  0
 42 47  1  0  0  0  0
 43 69  1  0  0  0  0
 44 47  1  0  0  0  0
 44 69  1  0  0  0  0
 45 73  1  0  0  0  0
 46 68  1  0  0  0  0
 47 67  1  0  0  0  0
 48 56  1  0  0  0  0
 49 58  1  0  0  0  0
 50 61  1  0  0  0  0
 51 62  1  0  0  0  0
 52 63  1  0  0  0  0
 53 63  1  0  0  0  0
 54 63  1  0  0  0  0
 55 75  1  0  0  0  0
 57 59  1  0  0  0  0
 57 62  1  0  0  0  0
 58 76  1  0  0  0  0
 59 76  1  0  0  0  0
 60 63  1  0  0  0  0
 60 74  1  0  0  0  0
 61 75  1  0  0  0  0
 62 84  1  0  0  0  0
 64 67  1  0  0  0  0
 66 87  1  0  0  0  0
M  CHG  2  75   1  76   1
M  ISO  4  35 100  62 101  72 100  84 101
M  END
> <Batch ID>
0191

> <Smiles>
CCC(=O)C(C[101CH:1](C)[101O:1]c1ccc2c(c1)CN(C(=O)C(NC(=O)C(C)NC)C(C)(C)C)C(C(=O)NC1CCCc3ccccc31)C2)NC(C)c1nsc([100NH:0][100C:0](=O)N2CCCC(n3nc(-c4ccc(Oc5ccc(F)cc5F)cc4)c(C(N)=O)c3N)C2)n1

> <Shape>
0.254

> <Color>
0.139

> <Negative vol penalty>
0.000

$$$$

  -OEChem-04052305243D

 82 90  0     1  0  0  0  0  0999 V2000
  -30.7083  -35.3512   19.2142 C   0  0  0  0  0  0  0  0  0  0  0  0
  -30.6130  -33.9636   19.2449 C   0  0  0  0  0  0  0  0  0  0  0  0
  -24.7256   -8.8875   21.4775 C   0  0  0  0  0  0  0  0  0  0  0  0
  -23.0024  -10.5498   21.1539 C   0  0  0  0  0  0  0  0  0  0  0  0
  -29.9310  -36.1215   20.0781 C   0  0  0  0  0  0  0  0  0  0  0  0
  -29.7410  -33.3454   20.1403 C   0  0  0  0  0  0  0  0  0  0  0  0
  -26.5548  -28.1975   19.2164 C   0  0  0  0  0  0  0  0  0  0  0  0
  -23.9155   -8.2277   22.4017 C   0  0  0  0  0  0  0  0  0  0  0  0
  -22.1923   -9.8899   22.0780 C   0  0  0  0  0  0  0  0  0  0  0  0
  -26.7808  -26.8742   19.5928 C   0  0  0  0  0  0  0  0  0  0  0  0
  -21.2693   -6.1237   22.3396 C   0  0  0  0  0  0  0  0  0  0  0  0
  -21.1712   -4.7358   22.2411 C   0  0  0  0  0  0  0  0  0  0  0  0
  -25.3668  -27.1877   21.5218 C   0  0  0  0  0  0  0  0  0  0  0  0
  -22.0586   -4.5145   24.4773 C   0  0  0  0  0  0  0  0  0  0  0  0
  -24.9383  -18.6048   19.4716 C   0  0  0  0  0  0  0  0  0  0  0  0
  -24.2691  -10.0486   20.8537 C   0  0  0  0  0  0  0  0  0  0  0  0
  -25.1592  -10.5161   18.5092 C   0  0  0  0  0  0  0  0  0  0  0  0
  -29.0419  -35.5127   20.9779 C   0  0  0  0  0  0  0  0  0  0  0  0
  -25.7405  -29.0304   19.9972 C   0  0  0  0  0  0  0  0  0  0  0  0
  -28.9520  -34.1082   21.0180 C   0  0  0  0  0  0  0  0  0  0  0  0
  -25.1300  -28.5204   21.1519 C   0  0  0  0  0  0  0  0  0  0  0  0
  -22.6489   -8.7289   22.7019 C   0  0  0  0  0  0  0  0  0  0  0  0
  -26.1891  -26.3700   20.7472 C   0  0  0  0  0  0  0  0  0  0  0  0
  -21.7621   -6.7070   23.5069 C   0  0  0  0  0  0  0  0  0  0  0  0
  -21.5659   -3.9312   23.3100 C   0  0  0  0  0  0  0  0  0  0  0  0
  -22.1567   -5.9024   24.5758 C   0  0  0  0  0  0  0  0  0  0  0  0
  -25.1056  -10.7310   19.8994 C   0  0  0  0  0  0  0  0  0  0  0  0
  -26.2829  -18.2800   19.6991 C   0  0  0  0  0  0  0  0  0  0  0  0
  -26.1025  -11.4077   18.0601 C   0  0  0  0  0  0  0  0  0  0  0  0
  -24.4221   -9.5932   17.6964 C   0  0  0  0  0  0  0  0  0  0  0  0
  -26.1902  -31.7278   21.6175 C   0  0  0  0  0  0  0  0  0  0  0  0
  -22.9775  -31.5570   22.0318 C   0  0  0  0  0  0  0  0  0  0  0  0
  -20.1691  -29.6211   22.1398 C   0  0  0  0  0  0  0  0  0  0  0  0
  -28.1211  -16.6221   20.1672 C   0  0  0  0  0  0  0  0  0  0  0  0
  -28.2569  -36.3853   21.9251 C   0  0  0  0  0  0  0  0  0  0  0  0
  -25.4852  -30.4477   19.5631 C   0  0  0  0  0  0  0  0  0  0  0  0
  -24.2310  -29.3676   22.0136 C   0  0  0  0  0  0  0  0  0  0  0  0
  -27.0825  -35.6663   22.5839 C   0  0  0  0  0  0  0  0  0  0  0  0
  -30.0534  -13.7116   19.4801 C   0  0  0  0  0  0  0  0  0  0  0  0
  -27.5169  -34.2995   23.1036 C   0  0  0  0  0  0  0  0  0  0  0  0
  -29.0082  -12.5985   19.3771 C   0  0  0  0  0  0  0  0  0  0  0  0
  -29.6892  -14.7339   20.5553 C   0  0  0  0  0  0  0  0  0  0  0  0
  -27.2961  -14.1917   20.3349 C   0  0  0  0  0  0  0  0  0  0  0  0
  -27.9994  -33.4016   21.9580 C   0  0  1  0  0  0  0  0  0  0  0  0
  -25.0518  -31.3551   20.7104 C   0  0  1  0  0  0  0  0  0  0  0  0
  -27.5866  -13.1730   19.2207 C   0  0  2  0  0  0  0  0  0  0  0  0
  -28.4186  -22.1214   21.7003 C   0  0  0  0  0  0  0  0  0  0  0  0
  -17.6952  -29.7595   22.5373 C   0  0  0  0  0  0  0  0  0  0  0  0
  -23.4763  -31.8166   25.0308 C   0  0  0  0  0  0  0  0  0  0  0  0
  -21.1394  -31.0065   25.4190 C   0  0  0  0  0  0  0  0  0  0  0  0
  -21.5296  -33.1355   24.1790 C   0  0  0  0  0  0  0  0  0  0  0  0
  -24.6718  -22.7698   20.7791 C   0  0  0  0  0  0  0  0  0  0  0  0
  -19.5592  -28.6249   19.4205 C   0  0  0  0  0  0  0  0  0  0  0  0
  -26.9017  -22.2454   21.7832 C   0  0  0  0  0  0  0  0  0  0  0  0
  -26.4698  -21.7738   19.2639 C   0  0  0  0  0  0  0  0  0  0  0  0
  -26.6511  -24.1365   20.0734 C   0  0  0  0  0  0  0  0  0  1  0  0
  -22.0636  -30.9329   23.0586 C   0  0  1  0  0  0  0  0  0  0  0  0
  -18.8042  -29.7896   21.4971 C   0  0  2  0  0  0  0  0  0  0  0  0
  -22.0707  -31.7072   24.4068 C   0  0  0  0  0  0  0  0  0  0  0  0
  -26.1885  -22.7113   20.4805 C   0  0  1  0  0  0  0  0  0  0  0  0
  -24.8159  -19.9218   19.2834 N   0  0  0  0  0  0  0  0  0  0  0  0
  -25.9480  -11.6842   20.3067 N   0  0  0  0  0  0  0  0  0  0  0  0
  -27.0297  -19.3869   19.6565 N   0  0  0  0  0  0  0  0  0  0  0  0
  -26.5398  -12.0761   19.1656 N   0  0  0  0  0  0  0  0  0  0  0  0
  -26.0935  -20.3163   19.4069 N   0  0  0  0  0  0  0  0  0  0  0  0
  -24.0172  -30.7487   21.5508 N   0  0  0  0  0  0  0  0  0  0  0  0
  -28.3309  -15.2376   20.3404 N   0  0  0  0  0  0  0  0  0  0  0  0
  -26.5923  -11.6772   16.8313 N   0  0  0  0  0  0  0  0  0  0  0  0
  -23.4922   -8.7494   18.3192 N   0  0  0  0  0  0  0  0  0  0  0  0
  -26.7929  -16.9797   19.9378 N   0  0  0  0  0  0  0  0  0  0  0  0
  -26.8715  -32.8649   21.2271 N   0  0  0  0  0  0  0  0  0  0  0  0
  -20.7499  -30.8371   22.4314 N   0  0  0  0  0  0  0  0  0  0  0  0
  -18.5562  -28.6973   20.5140 N   0  3  0  0  0  0  0  0  0  0  0  0
  -24.5951   -9.5075   16.4570 O   0  0  0  0  0  0  0  0  0  0  0  0
  -26.4316  -31.0360   22.5997 O   0  0  0  0  0  0  0  0  0  0  0  0
  -22.7719  -32.7166   21.6646 O   0  0  0  0  0  0  0  0  0  0  0  0
  -20.6683  -28.5207   22.3644 O   0  0  0  0  0  0  0  0  0  0  0  0
  -29.0548  -17.4281   20.1915 O   0  0  0  0  0  0  0  0  0  0  0  0
  -21.8581   -8.0851   23.6034 O   0  0  0  0  0  0  0  0  0  0  0  0
  -26.4085  -25.0789   21.1171 O   0  0  0  0  0  0  0  0  0  1  0  0
  -21.4702   -2.5985   23.2159 F   0  0  0  0  0  0  0  0  0  0  0  0
  -22.6297   -6.4571   25.7002 F   0  0  0  0  0  0  0  0  0  0  0  0
  1  2  1  0  0  0  0
  1  5  2  0  0  0  0
  2  6  2  0  0  0  0
  3  8  2  0  0  0  0
  3 16  1  0  0  0  0
  4  9  1  0  0  0  0
  4 16  2  0  0  0  0
  5 18  1  0  0  0  0
  6 20  1  0  0  0  0
  7 10  2  0  0  0  0
  7 19  1  0  0  0  0
  8 22  1  0  0  0  0
  9 22  2  0  0  0  0
 10 23  1  0  0  0  0
 11 12  2  0  0  0  0
 11 24  1  0  0  0  0
 12 25  1  0  0  0  0
 13 21  1  0  0  0  0
 13 23  2  0  0  0  0
 14 25  2  0  0  0  0
 14 26  1  0  0  0  0
 15 28  1  0  0  0  0
 15 61  2  0  0  0  0
 16 27  1  0  0  0  0
 17 27  1  0  0  0  0
 17 29  2  0  0  0  0
 17 30  1  0  0  0  0
 18 20  2  0  0  0  0
 18 35  1  0  0  0  0
 19 21  2  0  0  0  0
 19 36  1  0  0  0  0
 20 44  1  0  0  0  0
 21 37  1  0  0  0  0
 22 79  1  0  0  0  0
 23 80  1  0  0  0  0
 24 26  2  0  0  0  0
 24 79  1  0  0  0  0
 25 81  1  0  0  0  0
 26 82  1  0  0  0  0
 27 62  2  0  0  0  0
 28 63  2  0  0  0  0
 28 70  1  0  0  0  0
 29 64  1  0  0  0  0
 29 68  1  0  0  0  0
 30 69  1  0  0  0  0
 30 74  2  0  0  0  0
 31 45  1  0  0  0  0
 31 71  1  0  0  0  0
 31 75  2  0  0  0  0
 32 57  1  0  0  0  0
 32 66  1  0  0  0  0
 32 76  2  0  0  0  0
 33 58  1  0  0  0  0
 33 72  1  0  0  0  0
 33 77  2  0  0  0  0
 34 67  1  0  0  0  0
 34 70  1  0  0  0  0
 34 78  2  0  0  0  0
 35 38  1  0  0  0  0
 36 45  1  0  0  0  0
 37 66  1  0  0  0  0
 38 40  1  0  0  0  0
 39 41  1  0  0  0  0
 39 42  1  0  0  0  0
 40 44  1  0  0  0  0
 41 46  1  0  0  0  0
 42 67  1  0  0  0  0
 43 46  1  0  0  0  0
 43 67  1  0  0  0  0
 44 71  1  0  0  0  0
 45 66  1  0  0  0  0
 46 64  1  0  0  0  0
 47 54  1  0  0  0  0
 48 58  1  0  0  0  0
 49 59  1  0  0  0  0
 50 59  1  0  0  0  0
 51 59  1  0  0  0  0
 52 60  1  0  0  0  0
 53 73  1  0  0  0  0
 54 60  1  0  0  0  0
 55 60  1  0  0  0  0
 55 65  1  0  0  0  0
 56 60  1  0  0  0  0
 56 80  1  0  0  0  0
 57 59  1  0  0  0  0
 57 72  1  0  0  0  0
 58 73  1  0  0  0  0
 61 65  1  0  0  0  0
 62 64  1  0  0  0  0
 63 65  1  0  0  0  0
M  CHG  1  73   1
M  ISO  4  34 100  56 101  70 100  80 101
M  END
> <Batch ID>
0191

> <Smiles>
CCC(C)(Cn1ncc([100NH:0][100C:0](=O)N2CCCC(n3nc(-c4ccc(Oc5ccc(F)cc5F)cc4)c(C(N)=O)c3N)C2)n1)[101CH2:1][101O:1]c1ccc2c(c1)CN(C(=O)C(NC(=O)C(C)NC)C(C)(C)C)C(C(=O)NC1CCCc3ccccc31)C2

> <Shape>
0.242

> <Color>
0.085

> <Negative vol penalty>
0.000

$$$$

  -OEChem-04052305243D

 88 96  0     1  0  0  0  0  0999 V2000
  -20.4507  -19.6749   18.3008 C   0  0  0  0  0  0  0  0  0  0  0  0
  -21.8122  -19.8419   18.0688 C   0  0  0  0  0  0  0  0  0  0  0  0
  -23.0640   -9.8784   19.9173 C   0  0  0  0  0  0  0  0  0  0  0  0
  -23.8330   -9.8389   22.2073 C   0  0  0  0  0  0  0  0  0  0  0  0
  -19.6591  -20.7768   18.6216 C   0  0  0  0  0  0  0  0  0  0  0  0
  -22.3827  -21.1113   18.1564 C   0  0  0  0  0  0  0  0  0  0  0  0
  -26.7530  -21.1048   20.7149 C   0  0  0  0  0  0  0  0  0  0  0  0
  -22.3210   -8.7204   20.1468 C   0  0  0  0  0  0  0  0  0  0  0  0
  -23.0899   -8.6810   22.4369 C   0  0  0  0  0  0  0  0  0  0  0  0
  -27.8852  -20.6504   20.0400 C   0  0  0  0  0  0  0  0  0  0  0  0
  -19.3785   -7.8946   21.5934 C   0  0  0  0  0  0  0  0  0  0  0  0
  -18.0697   -7.8583   21.1125 C   0  0  0  0  0  0  0  0  0  0  0  0
  -28.5525  -22.9330   19.6352 C   0  0  0  0  0  0  0  0  0  0  0  0
  -18.6239   -5.9424   19.7490 C   0  0  0  0  0  0  0  0  0  0  0  0
  -23.8200  -10.4376   20.9476 C   0  0  0  0  0  0  0  0  0  0  0  0
  -24.1616  -12.9647   20.8773 C   0  0  0  0  0  0  0  0  0  0  0  0
  -20.2219  -22.0589   18.7226 C   0  0  0  0  0  0  0  0  0  0  0  0
  -26.5059  -22.4789   20.8457 C   0  0  0  0  0  0  0  0  0  0  0  0
  -21.5976  -22.2316   18.4775 C   0  0  0  0  0  0  0  0  0  0  0  0
  -27.4177  -23.4022   20.3144 C   0  0  0  0  0  0  0  0  0  0  0  0
  -22.3340   -8.1217   21.4066 C   0  0  0  0  0  0  0  0  0  0  0  0
  -28.7836  -21.5646   19.4975 C   0  0  0  0  0  0  0  0  0  0  0  0
  -20.3101   -6.9549   21.1520 C   0  0  0  0  0  0  0  0  0  0  0  0
  -17.6924   -6.8821   20.1903 C   0  0  0  0  0  0  0  0  0  0  0  0
  -19.9328   -5.9788   20.2299 C   0  0  0  0  0  0  0  0  0  0  0  0
  -24.5882  -11.6335   20.7109 C   0  0  0  0  0  0  0  0  0  0  0  0
  -31.6734  -18.6567   22.4231 C   0  0  0  0  0  0  0  0  0  0  0  0
  -30.4753  -18.7560   23.0858 C   0  0  0  0  0  0  0  0  0  0  0  0
  -25.2524  -13.7214   20.5250 C   0  0  0  0  0  0  0  0  0  0  0  0
  -30.5700  -16.9183   21.9949 C   0  0  0  0  0  0  0  0  0  0  0  0
  -22.8928  -13.4719   21.3117 C   0  0  0  0  0  0  0  0  0  0  0  0
  -24.1992  -24.4446   19.8873 C   0  0  0  0  0  0  0  0  0  0  0  0
  -25.8290  -26.6028   21.6784 C   0  0  0  0  0  0  0  0  0  0  0  0
  -28.7883  -27.5528   23.0878 C   0  0  0  0  0  0  0  0  0  0  0  0
  -30.7193  -14.7630   20.6991 C   0  0  0  0  0  0  0  0  0  0  0  0
  -19.3173  -23.2270   19.0256 C   0  0  0  0  0  0  0  0  0  0  0  0
  -25.2939  -22.9530   21.5998 C   0  0  0  0  0  0  0  0  0  0  0  0
  -27.2089  -24.8881   20.4452 C   0  0  0  0  0  0  0  0  0  0  0  0
  -20.0684  -24.4808   19.4663 C   0  0  0  0  0  0  0  0  0  0  0  0
  -29.5952  -12.3979   18.2868 C   0  0  0  0  0  0  0  0  0  0  0  0
  -21.2526  -24.7461   18.5422 C   0  0  0  0  0  0  0  0  0  0  0  0
  -28.1573  -12.0977   18.7161 C   0  0  0  0  0  0  0  0  0  0  0  0
  -30.5151  -12.6022   19.4892 C   0  0  0  0  0  0  0  0  0  0  0  0
  -28.6138  -13.2985   20.8925 C   0  0  0  0  0  0  0  0  0  0  0  0
  -22.2578  -23.5889   18.5874 C   0  0  1  0  0  0  0  0  0  0  0  0
  -24.8755  -24.3720   21.2270 C   0  0  1  0  0  0  0  0  0  0  0  0
  -27.6363  -13.1492   19.7153 C   0  0  2  0  0  0  0  0  0  0  0  0
  -29.8562  -19.7528   23.9659 C   0  0  0  0  0  0  0  0  0  0  0  0
  -29.8182  -29.3829   24.4617 C   0  0  0  0  0  0  0  0  0  0  0  0
  -35.1398  -19.4051   24.4812 C   0  0  0  0  0  0  0  0  0  0  0  0
  -36.2903  -17.7094   23.0744 C   0  0  0  0  0  0  0  0  0  0  0  0
  -34.0362  -17.2072   24.0496 C   0  0  0  0  0  0  0  0  0  0  0  0
  -25.8841  -28.4123   19.2223 C   0  0  0  0  0  0  0  0  0  0  0  0
  -27.6897  -29.7456   20.3313 C   0  0  0  0  0  0  0  0  0  0  0  0
  -25.4309  -29.5945   21.3790 C   0  0  0  0  0  0  0  0  0  0  0  0
  -29.4791  -25.6814   25.2740 C   0  0  0  0  0  0  0  0  0  0  0  0
  -32.6228  -20.7010   21.2782 C   0  0  0  0  0  0  0  0  0  0  0  0
  -32.5287  -20.0940   19.8680 C   0  0  0  0  0  0  0  0  0  0  0  0
  -34.2203  -18.9641   22.1951 C   0  0  0  0  0  0  0  0  0  0  0  0
  -31.0469  -21.9512   18.8776 C   0  0  0  0  0  0  0  0  0  1  0  0
  -32.8330  -19.6371   22.3918 C   0  0  2  0  0  0  0  0  0  0  0  0
  -26.9532  -27.5763   21.4187 C   0  0  1  0  0  0  0  0  0  0  0  0
  -29.1306  -28.0267   24.4888 C   0  0  2  0  0  0  0  0  0  0  0  0
  -32.3287  -21.1310   18.7523 C   0  0  2  0  0  0  0  0  0  0  0  0
  -34.9155  -18.3011   23.4231 C   0  0  0  0  0  0  0  0  0  0  0  0
  -26.4927  -28.8042   20.5835 C   0  0  0  0  0  0  0  0  0  0  0  0
  -25.8513  -11.5461   20.2858 N   0  0  0  0  0  0  0  0  0  0  0  0
  -31.7284  -17.4769   21.7260 N   0  0  0  0  0  0  0  0  0  0  0  0
  -26.2279  -12.8320   20.1820 N   0  0  0  0  0  0  0  0  0  0  0  0
  -26.0057  -25.3021   21.1858 N   0  0  0  0  0  0  0  0  0  0  0  0
  -29.9598  -13.6150   20.3895 N   0  0  0  0  0  0  0  0  0  0  0  0
  -25.4626  -15.0540   20.4781 N   0  0  0  0  0  0  0  0  0  0  0  0
  -21.8822  -12.5561   21.6345 N   0  0  0  0  0  0  0  0  0  0  0  0
  -30.0753  -15.6713   21.5388 N   0  0  0  0  0  0  0  0  0  0  0  0
  -23.0625  -23.6651   19.7878 N   0  0  0  0  0  0  0  0  0  0  0  0
  -27.5088  -27.9159   22.7242 N   0  0  0  0  0  0  0  0  0  0  0  0
  -30.0387  -27.0527   25.1577 N   0  3  0  0  0  0  0  0  0  0  0  0
  -22.6569  -14.7011   21.3949 O   0  0  0  0  0  0  0  0  0  0  0  0
  -24.6726  -25.1564   19.0093 O   0  0  0  0  0  0  0  0  0  0  0  0
  -24.8339  -26.9805   22.3019 O   0  0  0  0  0  0  0  0  0  0  0  0
  -29.5784  -26.9266   22.3849 O   0  0  0  0  0  0  0  0  0  0  0  0
  -31.8466  -14.9412   20.2305 O   0  0  0  0  0  0  0  0  0  0  0  0
  -29.7523  -17.6337   22.8148 O   0  0  0  0  0  0  0  0  0  0  0  0
  -32.3432  -20.4700   17.4906 O   0  0  0  0  0  0  0  0  0  0  0  0
  -21.6089   -6.9919   21.6310 O   0  0  0  0  0  0  0  0  0  0  0  0
  -29.8982  -21.1202   18.8324 O   0  0  0  0  0  0  0  0  0  1  0  0
  -16.4351   -6.8463   19.7298 F   0  0  0  0  0  0  0  0  0  0  0  0
  -20.8230   -5.0726   19.8030 F   0  0  0  0  0  0  0  0  0  0  0  0
  1  2  1  0  0  0  0
  1  5  2  0  0  0  0
  2  6  2  0  0  0  0
  3  8  2  0  0  0  0
  3 15  1  0  0  0  0
  4  9  1  0  0  0  0
  4 15  2  0  0  0  0
  5 17  1  0  0  0  0
  6 19  1  0  0  0  0
  7 10  2  0  0  0  0
  7 18  1  0  0  0  0
  8 21  1  0  0  0  0
  9 21  2  0  0  0  0
 10 22  1  0  0  0  0
 11 12  2  0  0  0  0
 11 23  1  0  0  0  0
 12 24  1  0  0  0  0
 13 20  1  0  0  0  0
 13 22  2  0  0  0  0
 14 24  2  0  0  0  0
 14 25  1  0  0  0  0
 15 26  1  0  0  0  0
 16 26  1  0  0  0  0
 16 29  2  0  0  0  0
 16 31  1  0  0  0  0
 17 19  2  0  0  0  0
 17 36  1  0  0  0  0
 18 20  2  0  0  0  0
 18 37  1  0  0  0  0
 19 45  1  0  0  0  0
 20 38  1  0  0  0  0
 21 85  1  0  0  0  0
 22 86  1  0  0  0  0
 23 25  2  0  0  0  0
 23 85  1  0  0  0  0
 24 87  1  0  0  0  0
 25 88  1  0  0  0  0
 26 67  2  0  0  0  0
 27 28  2  0  0  0  0
 27 61  1  0  0  0  0
 27 68  1  0  0  0  0
 28 48  1  0  0  0  0
 28 83  1  0  0  0  0
 29 69  1  0  0  0  0
 29 72  1  0  0  0  0
 30 68  2  0  0  0  0
 30 74  1  0  0  0  0
 30 83  1  0  0  0  0
 31 73  1  0  0  0  0
 31 78  2  0  0  0  0
 32 46  1  0  0  0  0
 32 75  1  0  0  0  0
 32 79  2  0  0  0  0
 33 62  1  0  0  0  0
 33 70  1  0  0  0  0
 33 80  2  0  0  0  0
 34 63  1  0  0  0  0
 34 76  1  0  0  0  0
 34 81  2  0  0  0  0
 35 71  1  0  0  0  0
 35 74  1  0  0  0  0
 35 82  2  0  0  0  0
 36 39  1  0  0  0  0
 37 46  1  0  0  0  0
 38 70  1  0  0  0  0
 39 41  1  0  0  0  0
 40 42  1  0  0  0  0
 40 43  1  0  0  0  0
 41 45  1  0  0  0  0
 42 47  1  0  0  0  0
 43 71  1  0  0  0  0
 44 47  1  0  0  0  0
 44 71  1  0  0  0  0
 45 75  1  0  0  0  0
 46 70  1  0  0  0  0
 47 69  1  0  0  0  0
 49 63  1  0  0  0  0
 50 65  1  0  0  0  0
 51 65  1  0  0  0  0
 52 65  1  0  0  0  0
 53 66  1  0  0  0  0
 54 66  1  0  0  0  0
 55 66  1  0  0  0  0
 56 77  1  0  0  0  0
 57 58  1  0  0  0  0
 57 61  1  0  0  0  0
 58 64  1  0  0  0  0
 59 61  1  0  0  0  0
 59 65  1  0  0  0  0
 60 64  1  0  0  0  0
 60 86  1  0  0  0  0
 62 66  1  0  0  0  0
 62 76  1  0  0  0  0
 63 77  1  0  0  0  0
 64 84  1  0  0  0  0
 67 69  1  0  0  0  0
M  CHG  1  77   1
M  ISO  4  35 100  60 101  74 100  86 101
M  END
> <Batch ID>
0191

> <Smiles>
CNC(C)C(=O)NC(C(=O)N1Cc2cc([101O:1][101CH2:1]C(O)CCC(CC(C)(C)C)c3nc([100NH:0][100C:0](=O)N4CCCC(n5nc(-c6ccc(Oc7ccc(F)cc7F)cc6)c(C(N)=O)c5N)C4)oc3C)ccc2CC1C(=O)NC1CCCc2ccccc21)C(C)(C)C

> <Shape>
0.218

> <Color>
0.183

> <Negative vol penalty>
0.000

$$$$

  -OEChem-04052305243D

 85 93  0     1  0  0  0  0  0999 V2000
  -39.3416  -27.9625   14.5325 C   0  0  0  0  0  0  0  0  0  0  0  0
  -39.2349  -27.3217   15.7627 C   0  0  0  0  0  0  0  0  0  0  0  0
  -22.9870   -9.8634   20.0171 C   0  0  0  0  0  0  0  0  0  0  0  0
  -23.6880   -9.9873   22.3259 C   0  0  0  0  0  0  0  0  0  0  0  0
  -38.2852  -28.7392   14.0584 C   0  0  0  0  0  0  0  0  0  0  0  0
  -38.0720  -27.4580   16.5200 C   0  0  0  0  0  0  0  0  0  0  0  0
  -35.5055  -23.2205   20.1203 C   0  0  0  0  0  0  0  0  0  0  0  0
  -22.2142   -8.7404   20.3120 C   0  0  0  0  0  0  0  0  0  0  0  0
  -22.9151   -8.8643   22.6208 C   0  0  0  0  0  0  0  0  0  0  0  0
  -35.5531  -23.0057   21.4971 C   0  0  0  0  0  0  0  0  0  0  0  0
  -23.1538   -5.5110   22.2604 C   0  0  0  0  0  0  0  0  0  0  0  0
  -23.7302   -4.5172   23.0514 C   0  0  0  0  0  0  0  0  0  0  0  0
  -33.4813  -24.2148   21.7513 C   0  0  0  0  0  0  0  0  0  0  0  0
  -21.9895   -4.8194   24.6993 C   0  0  0  0  0  0  0  0  0  0  0  0
  -23.7240  -10.4869   21.0240 C   0  0  0  0  0  0  0  0  0  0  0  0
  -24.1191  -12.9943   20.7704 C   0  0  0  0  0  0  0  0  0  0  0  0
  -37.1050  -28.8772   14.8059 C   0  0  0  0  0  0  0  0  0  0  0  0
  -34.4492  -23.9446   19.5491 C   0  0  0  0  0  0  0  0  0  0  0  0
  -36.9993  -28.2383   16.0561 C   0  0  0  0  0  0  0  0  0  0  0  0
  -33.4212  -24.4352   20.3668 C   0  0  0  0  0  0  0  0  0  0  0  0
  -22.1782   -8.2408   21.6139 C   0  0  0  0  0  0  0  0  0  0  0  0
  -34.5424  -23.5054   22.3131 C   0  0  0  0  0  0  0  0  0  0  0  0
  -21.9953   -6.1591   22.6889 C   0  0  0  0  0  0  0  0  0  0  0  0
  -23.1480   -4.1714   24.2708 C   0  0  0  0  0  0  0  0  0  0  0  0
  -21.4132   -5.8133   23.9083 C   0  0  0  0  0  0  0  0  0  0  0  0
  -24.5230  -11.6467   20.7199 C   0  0  0  0  0  0  0  0  0  0  0  0
  -31.8367  -18.6759   22.0523 C   0  0  0  0  0  0  0  0  0  0  0  0
  -30.7241  -19.1063   22.7443 C   0  0  0  0  0  0  0  0  0  0  0  0
  -25.2349  -13.7015   20.3946 C   0  0  0  0  0  0  0  0  0  0  0  0
  -30.5718  -16.9056   21.7768 C   0  0  0  0  0  0  0  0  0  0  0  0
  -22.8489  -13.5566   21.1255 C   0  0  0  0  0  0  0  0  0  0  0  0
  -34.2189  -26.6545   17.9038 C   0  0  0  0  0  0  0  0  0  0  0  0
  -31.1124  -25.7644   17.6225 C   0  0  0  0  0  0  0  0  0  0  0  0
  -28.4903  -23.9656   18.8620 C   0  0  0  0  0  0  0  0  0  0  0  0
  -30.7147  -14.6542   20.6556 C   0  0  0  0  0  0  0  0  0  0  0  0
  -36.0085  -29.7656   14.2739 C   0  0  0  0  0  0  0  0  0  0  0  0
  -34.3986  -24.1446   18.0592 C   0  0  0  0  0  0  0  0  0  0  0  0
  -32.2548  -25.2015   19.8005 C   0  0  0  0  0  0  0  0  0  0  0  0
  -34.6642  -29.5549   14.9659 C   0  0  0  0  0  0  0  0  0  0  0  0
  -29.6132  -12.1302   18.3987 C   0  0  0  0  0  0  0  0  0  0  0  0
  -34.8443  -29.5118   16.4800 C   0  0  0  0  0  0  0  0  0  0  0  0
  -28.1575  -11.8903   18.8055 C   0  0  0  0  0  0  0  0  0  0  0  0
  -30.5017  -12.4102   19.6094 C   0  0  0  0  0  0  0  0  0  0  0  0
  -28.5749  -13.2474   20.8962 C   0  0  0  0  0  0  0  0  0  0  0  0
  -35.7444  -28.3419   16.8955 C   0  0  1  0  0  0  0  0  0  0  0  0
  -33.5428  -25.3379   17.6453 C   0  0  1  0  0  0  0  0  0  0  0  0
  -27.6292  -13.0253   19.7046 C   0  0  2  0  0  0  0  0  0  0  0  0
  -33.0884  -19.4360   21.8588 C   0  0  0  0  0  0  0  0  0  0  0  0
  -26.0678  -23.4670   18.4376 C   0  0  0  0  0  0  0  0  0  0  0  0
  -32.4193  -21.1039   27.5141 C   0  0  0  0  0  0  0  0  0  0  0  0
  -29.6724  -21.7169   26.2265 C   0  0  0  0  0  0  0  0  0  0  0  0
  -30.3568  -28.5059   18.7285 C   0  0  0  0  0  0  0  0  0  0  0  0
  -28.0585  -27.6169   19.1706 C   0  0  0  0  0  0  0  0  0  0  0  0
  -28.9278  -27.7151   16.8345 C   0  0  0  0  0  0  0  0  0  0  0  0
  -29.0274  -21.0770   18.5069 C   0  0  0  0  0  0  0  0  0  0  0  0
  -30.4733  -20.3987   23.4639 C   0  0  0  0  0  0  0  0  0  0  0  0
  -33.4979  -22.2701   25.5323 C   0  0  0  0  0  0  0  0  0  0  0  0
  -33.3382  -23.2116   24.3428 C   0  0  0  0  0  0  0  0  0  1  0  0
  -29.8581  -25.9901   18.4318 C   0  0  1  0  0  0  0  0  0  0  0  0
  -27.5029  -23.0297   18.1885 C   0  0  2  0  0  0  0  0  0  0  0  0
  -32.2138  -22.1125   26.3762 C   0  0  1  0  0  0  0  0  0  0  0  0
  -30.9971  -21.7855   25.4742 C   0  0  1  0  0  0  0  0  0  0  0  0
  -29.3231  -27.4443   18.3026 C   0  0  0  0  0  0  0  0  0  0  0  0
  -25.7960  -11.5038   20.3416 N   0  0  0  0  0  0  0  0  0  0  0  0
  -31.7514  -17.4140   21.4971 N   0  0  0  0  0  0  0  0  0  0  0  0
  -26.2016  -12.7708   20.1509 N   0  0  0  0  0  0  0  0  0  0  0  0
  -32.2536  -25.3764   18.3386 N   0  0  0  0  0  0  0  0  0  0  0  0
  -29.9412  -13.4996   20.4119 N   0  0  0  0  0  0  0  0  0  0  0  0
  -25.4737  -15.0225   20.2519 N   0  0  0  0  0  0  0  0  0  0  0  0
  -21.8107  -12.6870   21.4866 N   0  0  0  0  0  0  0  0  0  0  0  0
  -30.0652  -15.6362   21.4028 N   0  0  0  0  0  0  0  0  0  0  0  0
  -35.0058  -27.0979   16.8580 N   0  0  0  0  0  0  0  0  0  0  0  0
  -28.9099  -24.9649   18.0096 N   0  0  0  0  0  0  0  0  0  0  0  0
  -27.6682  -21.6423   18.7067 N   0  3  0  0  0  0  0  0  0  0  0  0
  -31.1874  -20.4895   24.7634 N   0  3  0  0  0  0  0  0  0  0  0  0
  -22.6358  -14.7926   21.1067 O   0  0  0  0  0  0  0  0  0  0  0  0
  -34.0388  -27.2267   18.9724 O   0  0  0  0  0  0  0  0  0  0  0  0
  -31.0788  -25.9194   16.3992 O   0  0  0  0  0  0  0  0  0  0  0  0
  -28.8504  -23.8265   20.0289 O   0  0  0  0  0  0  0  0  0  0  0  0
  -31.8585  -14.7750   20.2094 O   0  0  0  0  0  0  0  0  0  0  0  0
  -21.4239   -7.1451   21.9021 O   0  0  0  0  0  0  0  0  0  0  0  0
  -34.5868  -23.2977   23.6573 O   0  0  0  0  0  0  0  0  0  1  0  0
  -23.7008   -3.2159   25.0296 F   0  0  0  0  0  0  0  0  0  0  0  0
  -20.2995   -6.4315   24.3247 F   0  0  0  0  0  0  0  0  0  0  0  0
  -29.5151  -17.8905   22.7032 S   0  0  0  0  0  0  0  0  0  0  0  0
  1  2  1  0  0  0  0
  1  5  2  0  0  0  0
  2  6  2  0  0  0  0
  3  8  2  0  0  0  0
  3 15  1  0  0  0  0
  4  9  1  0  0  0  0
  4 15  2  0  0  0  0
  5 17  1  0  0  0  0
  6 19  1  0  0  0  0
  7 10  2  0  0  0  0
  7 18  1  0  0  0  0
  8 21  1  0  0  0  0
  9 21  2  0  0  0  0
 10 22  1  0  0  0  0
 11 12  2  0  0  0  0
 11 23  1  0  0  0  0
 12 24  1  0  0  0  0
 13 20  1  0  0  0  0
 13 22  2  0  0  0  0
 14 24  2  0  0  0  0
 14 25  1  0  0  0  0
 15 26  1  0  0  0  0
 16 26  1  0  0  0  0
 16 29  2  0  0  0  0
 16 31  1  0  0  0  0
 17 19  2  0  0  0  0
 17 36  1  0  0  0  0
 18 20  2  0  0  0  0
 18 37  1  0  0  0  0
 19 45  1  0  0  0  0
 20 38  1  0  0  0  0
 21 81  1  0  0  0  0
 22 82  1  0  0  0  0
 23 25  2  0  0  0  0
 23 81  1  0  0  0  0
 24 83  1  0  0  0  0
 25 84  1  0  0  0  0
 26 64  2  0  0  0  0
 27 28  2  0  0  0  0
 27 48  1  0  0  0  0
 27 65  1  0  0  0  0
 28 56  1  0  0  0  0
 28 85  1  0  0  0  0
 29 66  1  0  0  0  0
 29 69  1  0  0  0  0
 30 65  2  0  0  0  0
 30 71  1  0  0  0  0
 30 85  1  0  0  0  0
 31 70  1  0  0  0  0
 31 76  2  0  0  0  0
 32 46  1  0  0  0  0
 32 72  1  0  0  0  0
 32 77  2  0  0  0  0
 33 59  1  0  0  0  0
 33 67  1  0  0  0  0
 33 78  2  0  0  0  0
 34 60  1  0  0  0  0
 34 73  1  0  0  0  0
 34 79  2  0  0  0  0
 35 68  1  0  0  0  0
 35 71  1  0  0  0  0
 35 80  2  0  0  0  0
 36 39  1  0  0  0  0
 37 46  1  0  0  0  0
 38 67  1  0  0  0  0
 39 41  1  0  0  0  0
 40 42  1  0  0  0  0
 40 43  1  0  0  0  0
 41 45  1  0  0  0  0
 42 47  1  0  0  0  0
 43 68  1  0  0  0  0
 44 47  1  0  0  0  0
 44 68  1  0  0  0  0
 45 72  1  0  0  0  0
 46 67  1  0  0  0  0
 47 66  1  0  0  0  0
 49 60  1  0  0  0  0
 50 61  1  0  0  0  0
 51 62  1  0  0  0  0
 52 63  1  0  0  0  0
 53 63  1  0  0  0  0
 54 63  1  0  0  0  0
 55 74  1  0  0  0  0
 56 75  1  0  0  0  0
 57 58  1  0  0  0  0
 57 61  1  0  0  0  0
 58 82  1  0  0  0  0
 59 63  1  0  0  0  0
 59 73  1  0  0  0  0
 60 74  1  0  0  0  0
 61 62  1  0  0  0  0
 62 75  1  0  0  0  0
 64 66  1  0  0  0  0
M  CHG  2  74   1  75   1
M  ISO  4  35 100  58 101  71 100  82 101
M  END
> <Batch ID>
0191

> <Smiles>
CNC(C)C(=O)NC(C(=O)N1Cc2cc([101O:1][101CH2:1]CC(C)C(C)NCc3sc([100NH:0][100C:0](=O)N4CCCC(n5nc(-c6ccc(Oc7ccc(F)cc7F)cc6)c(C(N)=O)c5N)C4)nc3C)ccc2CC1C(=O)NC1CCCc2ccccc21)C(C)(C)C

> <Shape>
0.225

> <Color>
0.191

> <Negative vol penalty>
0.000

$$$$

  -OEChem-04052305243D

 86 94  0     1  0  0  0  0  0999 V2000
  -23.4388  -33.3438   15.4672 C   0  0  0  0  0  0  0  0  0  0  0  0
  -23.7681  -32.1716   14.7943 C   0  0  0  0  0  0  0  0  0  0  0  0
  -23.1829   -9.9480   19.9213 C   0  0  0  0  0  0  0  0  0  0  0  0
  -23.6515  -10.0346   22.2899 C   0  0  0  0  0  0  0  0  0  0  0  0
  -24.1872  -33.7453   16.5730 C   0  0  0  0  0  0  0  0  0  0  0  0
  -24.8468  -31.4006   15.2261 C   0  0  0  0  0  0  0  0  0  0  0  0
  -23.7702  -26.4541   15.3575 C   0  0  0  0  0  0  0  0  0  0  0  0
  -22.3746   -8.8292   20.1221 C   0  0  0  0  0  0  0  0  0  0  0  0
  -22.8431   -8.9157   22.4907 C   0  0  0  0  0  0  0  0  0  0  0  0
  -23.7757  -25.7688   14.1434 C   0  0  0  0  0  0  0  0  0  0  0  0
  -19.2431   -8.1836   21.2221 C   0  0  0  0  0  0  0  0  0  0  0  0
  -18.0059   -8.1539   20.5787 C   0  0  0  0  0  0  0  0  0  0  0  0
  -25.9810  -24.9247   14.6368 C   0  0  0  0  0  0  0  0  0  0  0  0
  -18.6587   -6.1387   19.4168 C   0  0  0  0  0  0  0  0  0  0  0  0
  -23.8214  -10.5507   21.0052 C   0  0  0  0  0  0  0  0  0  0  0  0
  -24.2621  -13.0571   20.8274 C   0  0  0  0  0  0  0  0  0  0  0  0
  -25.2696  -32.9738   17.0244 C   0  0  0  0  0  0  0  0  0  0  0  0
  -24.8763  -26.3885   16.2169 C   0  0  0  0  0  0  0  0  0  0  0  0
  -25.6112  -31.7928   16.3381 C   0  0  0  0  0  0  0  0  0  0  0  0
  -25.9860  -25.6080   15.8624 C   0  0  0  0  0  0  0  0  0  0  0  0
  -22.2046   -8.3130   21.4068 C   0  0  0  0  0  0  0  0  0  0  0  0
  -24.8824  -25.0063   13.7815 C   0  0  0  0  0  0  0  0  0  0  0  0
  -20.1882   -7.1909   20.9629 C   0  0  0  0  0  0  0  0  0  0  0  0
  -17.7137   -7.1314   19.6760 C   0  0  0  0  0  0  0  0  0  0  0  0
  -19.8959   -6.1685   20.0602 C   0  0  0  0  0  0  0  0  0  0  0  0
  -24.6571  -11.7062   20.7984 C   0  0  0  0  0  0  0  0  0  0  0  0
  -28.3576  -16.8376   15.3646 C   0  0  0  0  0  0  0  0  0  0  0  0
  -27.1251  -17.2515   15.8247 C   0  0  0  0  0  0  0  0  0  0  0  0
  -25.4160  -13.7577   20.5744 C   0  0  0  0  0  0  0  0  0  0  0  0
  -27.1922  -18.4168   13.9680 C   0  0  0  0  0  0  0  0  0  0  0  0
  -29.3306  -15.8976   15.9491 C   0  0  0  0  0  0  0  0  0  0  0  0
  -22.9678  -13.6276   21.0621 C   0  0  0  0  0  0  0  0  0  0  0  0
  -26.9384  -28.5070   17.3845 C   0  0  0  0  0  0  0  0  0  0  0  0
  -27.9772  -25.9632   19.1085 C   0  0  0  0  0  0  0  0  0  0  0  0
  -25.7413  -20.0576   12.7241 C   0  0  0  0  0  0  0  0  0  0  0  0
  -28.2338  -22.5728   19.4025 C   0  0  0  0  0  0  0  0  0  0  0  0
  -30.0668  -14.4337   17.5635 C   0  0  0  0  0  0  0  0  0  0  0  0
  -26.0784  -33.4729   18.1955 C   0  0  0  0  0  0  0  0  0  0  0  0
  -24.8438  -27.1120   17.5352 C   0  0  0  0  0  0  0  0  0  0  0  0
  -27.1904  -25.4885   16.7588 C   0  0  0  0  0  0  0  0  0  0  0  0
  -26.9746  -32.4045   18.8164 C   0  0  0  0  0  0  0  0  0  0  0  0
  -30.2342  -12.2483   20.4272 C   0  0  0  0  0  0  0  0  0  0  0  0
  -27.7288  -31.6435   17.7307 C   0  0  0  0  0  0  0  0  0  0  0  0
  -28.7632  -11.9965   20.7580 C   0  0  0  0  0  0  0  0  0  0  0  0
  -30.4555  -12.3786   18.9233 C   0  0  0  0  0  0  0  0  0  0  0  0
  -28.1278  -13.1719   18.6053 C   0  0  0  0  0  0  0  0  0  0  0  0
  -26.7589  -30.9167   16.7912 C   0  0  1  0  0  0  0  0  0  0  0  0
  -26.2340  -27.3887   18.0993 C   0  0  1  0  0  0  0  0  0  0  0  0
  -27.8613  -13.0661   20.1166 C   0  0  1  0  0  0  0  0  0  0  0  0
  -26.4725  -16.8157   17.0765 C   0  0  0  0  0  0  0  0  0  0  0  0
  -29.1702  -20.7907   20.9008 C   0  0  0  0  0  0  0  0  0  0  0  0
  -30.7786  -26.5494   18.0509 C   0  0  0  0  0  0  0  0  0  0  0  0
  -31.4593  -24.2535   18.7815 C   0  0  0  0  0  0  0  0  0  0  0  0
  -30.6872  -25.9199   20.4696 C   0  0  0  0  0  0  0  0  0  0  0  0
  -25.5526  -21.4263   19.9081 C   0  0  0  0  0  0  0  0  0  0  0  0
  -25.0311  -22.1850   11.5064 C   0  0  0  0  0  0  0  0  0  0  0  0
  -25.2746  -19.9772   10.2504 C   0  0  0  0  0  0  0  0  0  0  0  0
  -25.6453  -23.1271   12.5395 C   0  0  0  0  0  0  0  0  0  1  0  0
  -29.0038  -24.8765   18.8981 C   0  0  1  0  0  0  0  0  0  0  0  0
  -25.7863  -20.8484   11.4071 C   0  0  2  0  0  0  0  0  0  0  0  0
  -27.9530  -21.6385   20.5655 C   0  0  2  0  0  0  0  0  0  0  0  0
  -30.4605  -25.4034   19.0320 C   0  0  0  0  0  0  0  0  0  0  0  0
  -25.9601  -11.5552   20.5467 N   0  0  0  0  0  0  0  0  0  0  0  0
  -26.4555  -18.1573   15.0254 N   0  0  0  0  0  0  0  0  0  0  0  0
  -29.1090  -15.3015   17.0747 N   0  0  0  0  0  0  0  0  0  0  0  0
  -26.3939  -12.8203   20.4151 N   0  0  0  0  0  0  0  0  0  0  0  0
  -27.1133  -26.2196   18.0344 N   0  0  0  0  0  0  0  0  0  0  0  0
  -29.5583  -13.3795   18.3444 N   0  0  0  0  0  0  0  0  0  0  0  0
  -25.6795  -15.0779   20.4747 N   0  0  0  0  0  0  0  0  0  0  0  0
  -21.8912  -12.7641   21.3059 N   0  0  0  0  0  0  0  0  0  0  0  0
  -26.8880  -19.2868   12.8941 N   0  0  0  0  0  0  0  0  0  0  0  0
  -26.2595  -29.7102   17.4152 N   0  0  0  0  0  0  0  0  0  0  0  0
  -28.6661  -23.8092   19.8335 N   0  0  0  0  0  0  0  0  0  0  0  0
  -23.8831  -19.5192   10.4890 N   0  3  0  0  0  0  0  0  0  0  0  0
  -26.8214  -20.7264   20.2356 N   0  3  0  0  0  0  0  0  0  0  0  0
  -22.7687  -14.8659   21.0396 O   0  0  0  0  0  0  0  0  0  0  0  0
  -28.0186  -28.2944   16.8463 O   0  0  0  0  0  0  0  0  0  0  0  0
  -27.9384  -26.5575   20.1887 O   0  0  0  0  0  0  0  0  0  0  0  0
  -24.7770  -20.1236   13.4810 O   0  0  0  0  0  0  0  0  0  0  0  0
  -28.0882  -22.2381   18.2289 O   0  0  0  0  0  0  0  0  0  0  0  0
  -31.2748  -14.5481   17.3430 O   0  0  0  0  0  0  0  0  0  0  0  0
  -21.4157   -7.2214   21.6031 O   0  0  0  0  0  0  0  0  0  0  0  0
  -24.8906  -24.3369   12.5967 O   0  0  0  0  0  0  0  0  0  1  0  0
  -16.5250   -7.1021   19.0593 F   0  0  0  0  0  0  0  0  0  0  0  0
  -20.7993   -5.2114   19.8080 F   0  0  0  0  0  0  0  0  0  0  0  0
  -28.7015  -17.6059   13.8704 S   0  0  0  0  0  0  0  0  0  0  0  0
  1  2  1  0  0  0  0
  1  5  2  0  0  0  0
  2  6  2  0  0  0  0
  3  8  2  0  0  0  0
  3 15  1  0  0  0  0
  4  9  1  0  0  0  0
  4 15  2  0  0  0  0
  5 17  1  0  0  0  0
  6 19  1  0  0  0  0
  7 10  2  0  0  0  0
  7 18  1  0  0  0  0
  8 21  1  0  0  0  0
  9 21  2  0  0  0  0
 10 22  1  0  0  0  0
 11 12  2  0  0  0  0
 11 23  1  0  0  0  0
 12 24  1  0  0  0  0
 13 20  1  0  0  0  0
 13 22  2  0  0  0  0
 14 24  2  0  0  0  0
 14 25  1  0  0  0  0
 15 26  1  0  0  0  0
 16 26  1  0  0  0  0
 16 29  2  0  0  0  0
 16 32  1  0  0  0  0
 17 19  2  0  0  0  0
 17 38  1  0  0  0  0
 18 20  2  0  0  0  0
 18 39  1  0  0  0  0
 19 47  1  0  0  0  0
 20 40  1  0  0  0  0
 21 82  1  0  0  0  0
 22 83  1  0  0  0  0
 23 25  2  0  0  0  0
 23 82  1  0  0  0  0
 24 84  1  0  0  0  0
 25 85  1  0  0  0  0
 26 63  2  0  0  0  0
 27 28  2  0  0  0  0
 27 31  1  0  0  0  0
 27 86  1  0  0  0  0
 28 50  1  0  0  0  0
 28 64  1  0  0  0  0
 29 66  1  0  0  0  0
 29 69  1  0  0  0  0
 30 64  2  0  0  0  0
 30 71  1  0  0  0  0
 30 86  1  0  0  0  0
 31 65  2  0  0  0  0
 32 70  1  0  0  0  0
 32 76  2  0  0  0  0
 33 48  1  0  0  0  0
 33 72  1  0  0  0  0
 33 77  2  0  0  0  0
 34 59  1  0  0  0  0
 34 67  1  0  0  0  0
 34 78  2  0  0  0  0
 35 60  1  0  0  0  0
 35 71  1  0  0  0  0
 35 79  2  0  0  0  0
 36 61  1  0  0  0  0
 36 73  1  0  0  0  0
 36 80  2  0  0  0  0
 37 65  1  0  0  0  0
 37 68  1  0  0  0  0
 37 81  2  0  0  0  0
 38 41  1  0  0  0  0
 39 48  1  0  0  0  0
 40 67  1  0  0  0  0
 41 43  1  0  0  0  0
 42 44  1  0  0  0  0
 42 45  1  0  0  0  0
 43 47  1  0  0  0  0
 44 49  1  0  0  0  0
 45 68  1  0  0  0  0
 46 49  1  0  0  0  0
 46 68  1  0  0  0  0
 47 72  1  0  0  0  0
 48 67  1  0  0  0  0
 49 66  1  0  0  0  0
 51 61  1  0  0  0  0
 52 62  1  0  0  0  0
 53 62  1  0  0  0  0
 54 62  1  0  0  0  0
 55 75  1  0  0  0  0
 56 58  1  0  0  0  0
 56 60  1  0  0  0  0
 57 60  1  0  0  0  0
 57 74  1  0  0  0  0
 58 83  1  0  0  0  0
 59 62  1  0  0  0  0
 59 73  1  0  0  0  0
 61 75  1  0  0  0  0
 63 66  1  0  0  0  0
M  CHG  2  74   1  75   1
M  ISO  4  37 100  58 101  65 100  83 101
M  END
> <Batch ID>
0191

> <Smiles>
CNC(C)C(=O)NC(C(=O)N1Cc2cc([101O:1][101CH2:1]CC(CN)C(=O)Nc3nc(C)c(C=[100N:0][100C:0](=O)N4CCCC(n5nc(-c6ccc(Oc7ccc(F)cc7F)cc6)c(C(N)=O)c5N)C4)s3)ccc2CC1C(=O)NC1CCCc2ccccc21)C(C)(C)C

> <Shape>
0.183

> <Color>
0.171

> <Negative vol penalty>
0.000

$$$$

  -OEChem-04052305243D

 86 94  0     1  0  0  0  0  0999 V2000
  -28.7669  -24.7795   16.6821 C   0  0  0  0  0  0  0  0  0  0  0  0
  -27.5799  -24.8521   17.4039 C   0  0  0  0  0  0  0  0  0  0  0  0
  -28.0854  -13.5219   19.7457 C   0  0  0  0  0  0  0  0  0  0  0  0
  -27.6125  -15.1368   18.0120 C   0  0  0  0  0  0  0  0  0  0  0  0
  -29.9118  -25.4162   17.1594 C   0  0  0  0  0  0  0  0  0  0  0  0
  -27.5373  -25.5606   18.6042 C   0  0  0  0  0  0  0  0  0  0  0  0
  -23.4331  -28.5035   18.9784 C   0  0  0  0  0  0  0  0  0  0  0  0
  -28.8274  -12.7654   18.8386 C   0  0  0  0  0  0  0  0  0  0  0  0
  -28.3546  -14.3804   17.1050 C   0  0  0  0  0  0  0  0  0  0  0  0
  -22.2312  -27.8806   19.3118 C   0  0  0  0  0  0  0  0  0  0  0  0
  -28.2185  -10.5726   16.3397 C   0  0  0  0  0  0  0  0  0  0  0  0
  -28.0134   -9.1930   16.3270 C   0  0  0  0  0  0  0  0  0  0  0  0
  -22.5003  -28.5990   21.5989 C   0  0  0  0  0  0  0  0  0  0  0  0
  -20.4037  -21.9279   20.0489 C   0  0  0  0  0  0  0  0  0  0  0  0
  -30.3400   -8.8420   16.8752 C   0  0  0  0  0  0  0  0  0  0  0  0
  -18.4493  -20.0486   20.3558 C   0  0  0  0  0  0  0  0  0  0  0  0
  -27.4779  -14.7076   19.3324 C   0  0  0  0  0  0  0  0  0  0  0  0
  -27.1824  -16.5216   21.1015 C   0  0  0  0  0  0  0  0  0  0  0  0
  -29.8807  -26.1409   18.3613 C   0  0  0  0  0  0  0  0  0  0  0  0
  -24.1843  -29.1706   19.9567 C   0  0  0  0  0  0  0  0  0  0  0  0
  -28.6831  -26.2064   19.0988 C   0  0  0  0  0  0  0  0  0  0  0  0
  -23.7101  -29.2317   21.2748 C   0  0  0  0  0  0  0  0  0  0  0  0
  -20.5290  -20.7020   19.4048 C   0  0  0  0  0  0  0  0  0  0  0  0
  -19.5375  -19.7390   19.5560 C   0  0  0  0  0  0  0  0  0  0  0  0
  -28.9620  -13.1947   17.5183 C   0  0  0  0  0  0  0  0  0  0  0  0
  -21.7660  -27.9258   20.6228 C   0  0  0  0  0  0  0  0  0  0  0  0
  -29.4844  -11.0869   16.6200 C   0  0  0  0  0  0  0  0  0  0  0  0
  -29.0741   -8.3277   16.5948 C   0  0  0  0  0  0  0  0  0  0  0  0
  -30.5452  -10.2217   16.8878 C   0  0  0  0  0  0  0  0  0  0  0  0
  -26.7108  -15.4892   20.2687 C   0  0  0  0  0  0  0  0  0  0  0  0
  -19.2766  -22.1395   20.8265 C   0  0  0  0  0  0  0  0  0  0  0  0
  -26.0716  -16.9396   21.7928 C   0  0  0  0  0  0  0  0  0  0  0  0
  -28.5062  -17.0550   21.2380 C   0  0  0  0  0  0  0  0  0  0  0  0
  -27.0924  -28.8065   21.1873 C   0  0  0  0  0  0  0  0  0  0  0  0
  -26.3679  -31.5746   22.7155 C   0  0  0  0  0  0  0  0  0  0  0  0
  -20.0515  -24.4572   21.4365 C   0  0  0  0  0  0  0  0  0  0  0  0
  -23.9628  -33.6882   23.8966 C   0  0  0  0  0  0  0  0  0  0  0  0
  -20.2071  -16.7160   20.6058 C   0  0  0  0  0  0  0  0  0  0  0  0
  -31.1557  -26.7729   18.8610 C   0  0  0  0  0  0  0  0  0  0  0  0
  -25.4655  -29.8604   19.5753 C   0  0  0  0  0  0  0  0  0  0  0  0
  -24.4689  -29.9525   22.3580 C   0  0  0  0  0  0  0  0  0  0  0  0
  -30.9311  -27.8168   19.9520 C   0  0  0  0  0  0  0  0  0  0  0  0
  -21.8707  -15.3517   23.4426 C   0  0  0  0  0  0  0  0  0  0  0  0
  -29.9634  -27.2879   21.0059 C   0  0  0  0  0  0  0  0  0  0  0  0
  -23.3424  -15.3253   23.0260 C   0  0  0  0  0  0  0  0  0  0  0  0
  -20.9462  -15.0356   22.2690 C   0  0  0  0  0  0  0  0  0  0  0  0
  -22.6242  -15.8492   20.6577 C   0  0  0  0  0  0  0  0  0  0  0  0
  -28.5908  -26.9861   20.3925 C   0  0  1  0  0  0  0  0  0  0  0  0
  -26.4052  -30.0720   20.7583 C   0  0  1  0  0  0  0  0  0  0  0  0
  -23.5927  -16.2170   21.7949 C   0  0  2  0  0  0  0  0  0  0  0  0
  -23.0395  -20.4789   19.3699 C   0  0  0  0  0  0  0  0  0  0  0  0
  -21.8286  -21.4088   17.3639 C   0  0  0  0  0  0  0  0  0  0  0  0
  -23.6774  -35.8525   25.1341 C   0  0  0  0  0  0  0  0  0  0  0  0
  -27.0743  -30.1698   25.3303 C   0  0  0  0  0  0  0  0  0  0  0  0
  -25.8892  -32.0040   26.5549 C   0  0  0  0  0  0  0  0  0  0  0  0
  -27.8896  -32.5279   25.1597 C   0  0  0  0  0  0  0  0  0  0  0  0
  -22.5510  -34.9398   21.6164 C   0  0  0  0  0  0  0  0  0  0  0  0
  -19.6217  -18.4099   18.8890 C   0  0  0  0  0  0  0  0  0  0  0  0
  -19.5396  -25.6150   22.2859 C   0  0  0  0  0  0  0  0  0  0  0  0
  -20.4719  -26.8170   22.2816 C   0  0  0  0  0  0  0  0  0  1  0  0
  -21.7311  -20.4422   18.5587 C   0  0  0  0  0  0  0  0  0  0  0  0
  -25.7097  -31.9314   24.0263 C   0  0  1  0  0  0  0  0  0  0  0  0
  -23.7920  -35.1912   23.7695 C   0  0  2  0  0  0  0  0  0  0  0  0
  -26.6271  -31.6430   25.2480 C   0  0  0  0  0  0  0  0  0  0  0  0
  -18.2927  -21.2282   20.9973 N   0  0  0  0  0  0  0  0  0  0  0  0
  -25.4023  -15.2650   20.4161 N   0  0  0  0  0  0  0  0  0  0  0  0
  -25.0423  -16.1623   21.3495 N   0  0  0  0  0  0  0  0  0  0  0  0
  -25.7191  -30.6058   21.9367 N   0  0  0  0  0  0  0  0  0  0  0  0
  -21.2341  -15.9171   21.1349 N   0  0  0  0  0  0  0  0  0  0  0  0
  -25.8847  -17.8926   22.7305 N   0  0  0  0  0  0  0  0  0  0  0  0
  -29.5305  -16.5100   20.4519 N   0  0  0  0  0  0  0  0  0  0  0  0
  -19.1588  -23.3896   21.4794 N   0  0  0  0  0  0  0  0  0  0  0  0
  -27.8457  -28.2108   20.1938 N   0  0  0  0  0  0  0  0  0  0  0  0
  -25.2928  -33.3245   23.9079 N   0  0  0  0  0  0  0  0  0  0  0  0
  -20.5664  -17.5270   19.5362 N   0  0  0  0  0  0  0  0  0  0  0  0
  -22.5629  -35.5086   22.9888 N   0  3  0  0  0  0  0  0  0  0  0  0
  -28.7761  -17.9764   22.0454 O   0  0  0  0  0  0  0  0  0  0  0  0
  -26.9508  -28.4014   22.3352 O   0  0  0  0  0  0  0  0  0  0  0  0
  -27.4152  -32.1398   22.3910 O   0  0  0  0  0  0  0  0  0  0  0  0
  -21.1118  -24.5164   20.8231 O   0  0  0  0  0  0  0  0  0  0  0  0
  -23.0117  -32.9145   23.9815 O   0  0  0  0  0  0  0  0  0  0  0  0
  -19.0567  -16.7112   21.0567 O   0  0  0  0  0  0  0  0  0  0  0  0
  -29.6862  -12.4569   16.6330 O   0  0  0  0  0  0  0  0  0  0  0  0
  -20.5935  -27.3180   20.9510 O   0  0  0  0  0  0  0  0  0  1  0  0
  -28.8766   -7.0029   16.5841 F   0  0  0  0  0  0  0  0  0  0  0  0
  -31.7633  -10.7099   17.1590 F   0  0  0  0  0  0  0  0  0  0  0  0
  1  2  1  0  0  0  0
  1  5  2  0  0  0  0
  2  6  2  0  0  0  0
  3  8  2  0  0  0  0
  3 17  1  0  0  0  0
  4  9  1  0  0  0  0
  4 17  2  0  0  0  0
  5 19  1  0  0  0  0
  6 21  1  0  0  0  0
  7 10  2  0  0  0  0
  7 20  1  0  0  0  0
  8 25  1  0  0  0  0
  9 25  2  0  0  0  0
 10 26  1  0  0  0  0
 11 12  2  0  0  0  0
 11 27  1  0  0  0  0
 12 28  1  0  0  0  0
 13 22  1  0  0  0  0
 13 26  2  0  0  0  0
 14 23  2  0  0  0  0
 14 31  1  0  0  0  0
 15 28  2  0  0  0  0
 15 29  1  0  0  0  0
 16 24  2  0  0  0  0
 16 65  1  0  0  0  0
 17 30  1  0  0  0  0
 18 30  1  0  0  0  0
 18 32  2  0  0  0  0
 18 33  1  0  0  0  0
 19 21  2  0  0  0  0
 19 39  1  0  0  0  0
 20 22  2  0  0  0  0
 20 40  1  0  0  0  0
 21 48  1  0  0  0  0
 22 41  1  0  0  0  0
 23 24  1  0  0  0  0
 23 61  1  0  0  0  0
 24 58  1  0  0  0  0
 25 83  1  0  0  0  0
 26 84  1  0  0  0  0
 27 29  2  0  0  0  0
 27 83  1  0  0  0  0
 28 85  1  0  0  0  0
 29 86  1  0  0  0  0
 30 66  2  0  0  0  0
 31 65  2  0  0  0  0
 31 72  1  0  0  0  0
 32 67  1  0  0  0  0
 32 70  1  0  0  0  0
 33 71  1  0  0  0  0
 33 77  2  0  0  0  0
 34 49  1  0  0  0  0
 34 73  1  0  0  0  0
 34 78  2  0  0  0  0
 35 62  1  0  0  0  0
 35 68  1  0  0  0  0
 35 79  2  0  0  0  0
 36 59  1  0  0  0  0
 36 72  1  0  0  0  0
 36 80  2  0  0  0  0
 37 63  1  0  0  0  0
 37 74  1  0  0  0  0
 37 81  2  0  0  0  0
 38 69  1  0  0  0  0
 38 75  1  0  0  0  0
 38 82  2  0  0  0  0
 39 42  1  0  0  0  0
 40 49  1  0  0  0  0
 41 68  1  0  0  0  0
 42 44  1  0  0  0  0
 43 45  1  0  0  0  0
 43 46  1  0  0  0  0
 44 48  1  0  0  0  0
 45 50  1  0  0  0  0
 46 69  1  0  0  0  0
 47 50  1  0  0  0  0
 47 69  1  0  0  0  0
 48 73  1  0  0  0  0
 49 68  1  0  0  0  0
 50 67  1  0  0  0  0
 51 61  1  0  0  0  0
 52 61  1  0  0  0  0
 53 63  1  0  0  0  0
 54 64  1  0  0  0  0
 55 64  1  0  0  0  0
 56 64  1  0  0  0  0
 57 76  1  0  0  0  0
 58 75  1  0  0  0  0
 59 60  1  0  0  0  0
 60 84  1  0  0  0  0
 62 64  1  0  0  0  0
 62 74  1  0  0  0  0
 63 76  1  0  0  0  0
 66 67  1  0  0  0  0
M  CHG  1  76   1
M  ISO  4  38 100  60 101  75 100  84 101
M  END
> <Batch ID>
0191

> <Smiles>
CNC(C)C(=O)NC(C(=O)N1Cc2cc([101O:1][101CH2:1]CC(=O)Nc3cc(C(C)C)c(C[100NH:0][100C:0](=O)N4CCCC(n5nc(-c6ccc(Oc7ccc(F)cc7F)cc6)c(C(N)=O)c5N)C4)cn3)ccc2CC1C(=O)NC1CCCc2ccccc21)C(C)(C)C

> <Shape>
0.247

> <Color>
0.070

> <Negative vol penalty>
0.000

$$$$

  -OEChem-04052305243D

 86 94  0     1  0  0  0  0  0999 V2000
  -17.5375  -27.0132   25.7062 C   0  0  0  0  0  0  0  0  0  0  0  0
  -18.8786  -26.8165   26.0196 C   0  0  0  0  0  0  0  0  0  0  0  0
  -24.3177  -10.1881   22.2657 C   0  0  0  0  0  0  0  0  0  0  0  0
  -24.5267  -11.6109   24.2071 C   0  0  0  0  0  0  0  0  0  0  0  0
  -17.1718  -27.3799   24.4117 C   0  0  0  0  0  0  0  0  0  0  0  0
  -19.8547  -26.9855   25.0382 C   0  0  0  0  0  0  0  0  0  0  0  0
  -26.6371  -29.1422   24.2232 C   0  0  0  0  0  0  0  0  0  0  0  0
  -23.8887   -9.1401   23.0800 C   0  0  0  0  0  0  0  0  0  0  0  0
  -24.0976  -10.5629   25.0214 C   0  0  0  0  0  0  0  0  0  0  0  0
  -27.8454  -28.7130   23.6759 C   0  0  0  0  0  0  0  0  0  0  0  0
  -21.0365   -8.1997   24.6337 C   0  0  0  0  0  0  0  0  0  0  0  0
  -19.9328   -7.4596   24.2099 C   0  0  0  0  0  0  0  0  0  0  0  0
  -27.1030  -29.4251   21.4939 C   0  0  0  0  0  0  0  0  0  0  0  0
  -21.2857   -5.4582   24.1813 C   0  0  0  0  0  0  0  0  0  0  0  0
  -29.5178  -21.4238   19.6513 C   0  0  0  0  0  0  0  0  0  0  0  0
  -24.6368  -11.4236   22.8293 C   0  0  0  0  0  0  0  0  0  0  0  0
  -24.2794  -13.4795   21.3620 C   0  0  0  0  0  0  0  0  0  0  0  0
  -18.1447  -27.5628   23.4165 C   0  0  0  0  0  0  0  0  0  0  0  0
  -25.6467  -29.7070   23.4068 C   0  0  0  0  0  0  0  0  0  0  0  0
  -19.5016  -27.3537   23.7289 C   0  0  0  0  0  0  0  0  0  0  0  0
  -25.8841  -29.8630   22.0337 C   0  0  0  0  0  0  0  0  0  0  0  0
  -23.7786   -9.3274   24.4578 C   0  0  0  0  0  0  0  0  0  0  0  0
  -28.0774  -28.8517   22.3106 C   0  0  0  0  0  0  0  0  0  0  0  0
  -22.2650   -7.5690   24.8312 C   0  0  0  0  0  0  0  0  0  0  0  0
  -20.0573   -6.0889   23.9838 C   0  0  0  0  0  0  0  0  0  0  0  0
  -22.3895   -6.1983   24.6050 C   0  0  0  0  0  0  0  0  0  0  0  0
  -25.0807  -12.5064   21.9887 C   0  0  0  0  0  0  0  0  0  0  0  0
  -25.1713  -14.2744   20.6845 C   0  0  0  0  0  0  0  0  0  0  0  0
  -28.2228  -21.6987   20.0381 C   0  0  0  0  0  0  0  0  0  0  0  0
  -28.9302  -19.4100   20.2913 C   0  0  0  0  0  0  0  0  0  0  0  0
  -22.8560  -13.6498   21.3899 C   0  0  0  0  0  0  0  0  0  0  0  0
  -22.6600  -28.9334   22.6419 C   0  0  0  0  0  0  0  0  0  0  0  0
  -22.7143  -31.8066   21.1373 C   0  0  0  0  0  0  0  0  0  0  0  0
  -24.5603  -34.2787   19.6786 C   0  0  0  0  0  0  0  0  0  0  0  0
  -29.9550  -17.1134   20.4388 C   0  0  0  0  0  0  0  0  0  0  0  0
  -17.6972  -27.9134   22.0195 C   0  0  0  0  0  0  0  0  0  0  0  0
  -24.3593  -30.1895   24.0169 C   0  0  0  0  0  0  0  0  0  0  0  0
  -24.8613  -30.4816   21.1174 C   0  0  0  0  0  0  0  0  0  0  0  0
  -18.8237  -28.4374   21.1325 C   0  0  0  0  0  0  0  0  0  0  0  0
  -30.1011  -13.6260   19.7362 C   0  0  0  0  0  0  0  0  0  0  0  0
  -20.0593  -27.5520   21.2600 C   0  0  0  0  0  0  0  0  0  0  0  0
  -28.7420  -13.1038   20.2081 C   0  0  0  0  0  0  0  0  0  0  0  0
  -30.6314  -14.7314   20.6475 C   0  0  0  0  0  0  0  0  0  0  0  0
  -28.3449  -15.3249   21.3467 C   0  0  0  0  0  0  0  0  0  0  0  0
  -20.5917  -27.5515   22.6980 C   0  0  1  0  0  0  0  0  0  0  0  0
  -23.2174  -30.2795   23.0093 C   0  0  1  0  0  0  0  0  0  0  0  0
  -27.7399  -14.2549   20.4231 C   0  0  2  0  0  0  0  0  0  0  0  0
  -24.3216  -36.4839   18.5049 C   0  0  0  0  0  0  0  0  0  0  0  0
  -26.1880  -24.5474   17.9892 C   0  0  0  0  0  0  0  0  0  0  0  0
  -26.2234  -25.6623   20.2365 C   0  0  0  0  0  0  0  0  0  0  0  0
  -30.7875  -25.7951   18.9956 C   0  0  0  0  0  0  0  0  0  0  0  0
  -21.7994  -30.3604   18.6112 C   0  0  0  0  0  0  0  0  0  0  0  0
  -22.4885  -32.3740   17.2926 C   0  0  0  0  0  0  0  0  0  0  0  0
  -20.6899  -32.5658   19.0104 C   0  0  0  0  0  0  0  0  0  0  0  0
  -26.1308  -35.6857   21.7554 C   0  0  0  0  0  0  0  0  0  0  0  0
  -30.7111  -26.5643   21.3718 C   0  0  0  0  0  0  0  0  0  0  0  0
  -29.1046  -24.7266   20.6130 C   0  0  0  0  0  0  0  0  0  0  0  0
  -29.9070  -27.3358   22.4120 C   0  0  0  0  0  0  0  0  0  1  0  0
  -23.0895  -32.2824   19.7546 C   0  0  1  0  0  0  0  0  0  0  0  0
  -24.5299  -35.7878   19.8409 C   0  0  2  0  0  0  0  0  0  0  0  0
  -27.0848  -25.1426   19.0809 C   0  0  0  0  0  0  0  0  0  0  0  0
  -29.8693  -26.0091   20.2031 C   0  0  2  0  0  0  0  0  0  0  0  0
  -28.1837  -24.1396   19.5222 C   0  0  2  0  0  0  0  0  0  0  0  0
  -22.0355  -31.8822   18.6839 C   0  0  0  0  0  0  0  0  0  0  0  0
  -29.9253  -20.1120   19.7962 N   0  0  0  0  0  0  0  0  0  0  0  0
  -26.3816  -12.6664   21.7320 N   0  0  0  0  0  0  0  0  0  0  0  0
  -26.4046  -13.7493   20.9365 N   0  0  0  0  0  0  0  0  0  0  0  0
  -23.6158  -30.9320   21.7604 N   0  0  0  0  0  0  0  0  0  0  0  0
  -29.6302  -15.7891   20.8015 N   0  0  0  0  0  0  0  0  0  0  0  0
  -25.0132  -15.3642   19.9037 N   0  0  0  0  0  0  0  0  0  0  0  0
  -22.0892  -12.7439   22.1354 N   0  0  0  0  0  0  0  0  0  0  0  0
  -27.5686  -22.9154   19.9989 N   0  0  0  0  0  0  0  0  0  0  0  0
  -28.9134  -18.0268   20.5982 N   0  0  0  0  0  0  0  0  0  0  0  0
  -21.3266  -28.7692   22.9653 N   0  0  0  0  0  0  0  0  0  0  0  0
  -23.3136  -33.7198   19.8643 N   0  0  0  0  0  0  0  0  0  0  0  0
  -25.8113  -36.2716   20.4281 N   0  3  0  0  0  0  0  0  0  0  0  0
  -22.2798  -14.5680   20.7587 O   0  0  0  0  0  0  0  0  0  0  0  0
  -23.3856  -28.1055   22.1035 O   0  0  0  0  0  0  0  0  0  0  0  0
  -21.6638  -32.2022   21.6486 O   0  0  0  0  0  0  0  0  0  0  0  0
  -25.5867  -33.6583   19.4100 O   0  0  0  0  0  0  0  0  0  0  0  0
  -31.0660  -17.4100   19.9920 O   0  0  0  0  0  0  0  0  0  0  0  0
  -23.3597   -8.3050   25.2526 O   0  0  0  0  0  0  0  0  0  0  0  0
  -29.2637  -28.4302   21.7700 O   0  0  0  0  0  0  0  0  0  1  0  0
  -18.9969   -5.3780   23.5783 F   0  0  0  0  0  0  0  0  0  0  0  0
  -23.5668   -5.5866   24.7942 F   0  0  0  0  0  0  0  0  0  0  0  0
  -27.4751  -20.2635   20.6061 S   0  0  0  0  0  0  0  0  0  0  0  0
  1  2  1  0  0  0  0
  1  5  2  0  0  0  0
  2  6  2  0  0  0  0
  3  8  2  0  0  0  0
  3 16  1  0  0  0  0
  4  9  1  0  0  0  0
  4 16  2  0  0  0  0
  5 18  1  0  0  0  0
  6 20  1  0  0  0  0
  7 10  2  0  0  0  0
  7 19  1  0  0  0  0
  8 22  1  0  0  0  0
  9 22  2  0  0  0  0
 10 23  1  0  0  0  0
 11 12  2  0  0  0  0
 11 24  1  0  0  0  0
 12 25  1  0  0  0  0
 13 21  1  0  0  0  0
 13 23  2  0  0  0  0
 14 25  2  0  0  0  0
 14 26  1  0  0  0  0
 15 29  2  0  0  0  0
 15 65  1  0  0  0  0
 16 27  1  0  0  0  0
 17 27  1  0  0  0  0
 17 28  2  0  0  0  0
 17 31  1  0  0  0  0
 18 20  2  0  0  0  0
 18 36  1  0  0  0  0
 19 21  2  0  0  0  0
 19 37  1  0  0  0  0
 20 45  1  0  0  0  0
 21 38  1  0  0  0  0
 22 82  1  0  0  0  0
 23 83  1  0  0  0  0
 24 26  2  0  0  0  0
 24 82  1  0  0  0  0
 25 84  1  0  0  0  0
 26 85  1  0  0  0  0
 27 66  2  0  0  0  0
 28 67  1  0  0  0  0
 28 70  1  0  0  0  0
 29 72  1  0  0  0  0
 29 86  1  0  0  0  0
 30 65  2  0  0  0  0
 30 73  1  0  0  0  0
 30 86  1  0  0  0  0
 31 71  1  0  0  0  0
 31 77  2  0  0  0  0
 32 46  1  0  0  0  0
 32 74  1  0  0  0  0
 32 78  2  0  0  0  0
 33 59  1  0  0  0  0
 33 68  1  0  0  0  0
 33 79  2  0  0  0  0
 34 60  1  0  0  0  0
 34 75  1  0  0  0  0
 34 80  2  0  0  0  0
 35 69  1  0  0  0  0
 35 73  1  0  0  0  0
 35 81  2  0  0  0  0
 36 39  1  0  0  0  0
 37 46  1  0  0  0  0
 38 68  1  0  0  0  0
 39 41  1  0  0  0  0
 40 42  1  0  0  0  0
 40 43  1  0  0  0  0
 41 45  1  0  0  0  0
 42 47  1  0  0  0  0
 43 69  1  0  0  0  0
 44 47  1  0  0  0  0
 44 69  1  0  0  0  0
 45 74  1  0  0  0  0
 46 68  1  0  0  0  0
 47 67  1  0  0  0  0
 48 60  1  0  0  0  0
 49 61  1  0  0  0  0
 50 61  1  0  0  0  0
 51 62  1  0  0  0  0
 52 64  1  0  0  0  0
 53 64  1  0  0  0  0
 54 64  1  0  0  0  0
 55 76  1  0  0  0  0
 56 58  1  0  0  0  0
 56 62  1  0  0  0  0
 57 62  1  0  0  0  0
 57 63  1  0  0  0  0
 58 83  1  0  0  0  0
 59 64  1  0  0  0  0
 59 75  1  0  0  0  0
 60 76  1  0  0  0  0
 61 63  1  0  0  0  0
 63 72  1  0  0  0  0
 66 67  1  0  0  0  0
M  CHG  1  76   1
M  ISO  4  35 100  58 101  73 100  83 101
M  END
> <Batch ID>
0191

> <Smiles>
CNC(C)C(=O)NC(C(=O)N1Cc2cc([101O:1][101CH2:1]CC(C)CC(Nc3cnc([100NH:0][100C:0](=O)N4CCCC(n5nc(-c6ccc(Oc7ccc(F)cc7F)cc6)c(C(N)=O)c5N)C4)s3)C(C)C)ccc2CC1C(=O)NC1CCCc2ccccc21)C(C)(C)C

> <Shape>
0.299

> <Color>
0.128

> <Negative vol penalty>
0.000

$$$$

  -OEChem-04052305243D

 88 96  0     1  0  0  0  0  0999 V2000
  -19.7662   -9.1230   22.9302 C   0  0  0  0  0  0  0  0  0  0  0  0
  -20.6435  -10.0133   23.5410 C   0  0  0  0  0  0  0  0  0  0  0  0
  -25.7739  -29.6418   19.6830 C   0  0  0  0  0  0  0  0  0  0  0  0
  -26.0695  -28.9846   21.9891 C   0  0  0  0  0  0  0  0  0  0  0  0
  -20.1705   -8.4117   21.8012 C   0  0  0  0  0  0  0  0  0  0  0  0
  -21.9261  -10.1920   23.0238 C   0  0  0  0  0  0  0  0  0  0  0  0
  -23.2559  -15.0717   22.7693 C   0  0  0  0  0  0  0  0  0  0  0  0
  -24.5796  -30.2797   20.0179 C   0  0  0  0  0  0  0  0  0  0  0  0
  -24.8751  -29.6226   22.3239 C   0  0  0  0  0  0  0  0  0  0  0  0
  -23.6565  -15.6852   23.9554 C   0  0  0  0  0  0  0  0  0  0  0  0
  -23.8143  -32.7804   22.8929 C   0  0  0  0  0  0  0  0  0  0  0  0
  -23.8065  -33.5791   24.0364 C   0  0  0  0  0  0  0  0  0  0  0  0
  -25.9649  -15.4050   23.3136 C   0  0  0  0  0  0  0  0  0  0  0  0
  -22.0807  -32.1873   24.9965 C   0  0  0  0  0  0  0  0  0  0  0  0
  -29.7411  -21.8299   23.9515 C   0  0  0  0  0  0  0  0  0  0  0  0
  -30.5864  -19.3501   23.4384 C   0  0  0  0  0  0  0  0  0  0  0  0
  -26.5189  -28.9942   20.6686 C   0  0  0  0  0  0  0  0  0  0  0  0
  -29.0437  -28.8952   20.3177 C   0  0  0  0  0  0  0  0  0  0  0  0
  -21.4554   -8.5889   21.2643 C   0  0  0  0  0  0  0  0  0  0  0  0
  -24.2085  -14.6097   21.8499 C   0  0  0  0  0  0  0  0  0  0  0  0
  -22.3484   -9.4813   21.8875 C   0  0  0  0  0  0  0  0  0  0  0  0
  -25.5737  -14.7883   22.1153 C   0  0  0  0  0  0  0  0  0  0  0  0
  -24.1302  -30.2702   21.3383 C   0  0  0  0  0  0  0  0  0  0  0  0
  -25.0112  -15.8493   24.2291 C   0  0  0  0  0  0  0  0  0  0  0  0
  -22.9553  -31.6852   22.8011 C   0  0  0  0  0  0  0  0  0  0  0  0
  -22.9397  -33.2825   25.0882 C   0  0  0  0  0  0  0  0  0  0  0  0
  -22.0886  -31.3886   23.8529 C   0  0  0  0  0  0  0  0  0  0  0  0
  -27.7524  -28.3345   20.3232 C   0  0  0  0  0  0  0  0  0  0  0  0
  -29.8021  -21.3526   22.6608 C   0  0  0  0  0  0  0  0  0  0  0  0
  -30.5261  -19.8277   24.7290 C   0  0  0  0  0  0  0  0  0  0  0  0
  -29.8629  -27.8668   19.9205 C   0  0  0  0  0  0  0  0  0  0  0  0
  -29.4650  -30.2266   20.6427 C   0  0  0  0  0  0  0  0  0  0  0  0
  -24.9752  -11.7672   20.6515 C   0  0  0  0  0  0  0  0  0  0  0  0
  -26.9598  -13.5248   18.7821 C   0  0  0  0  0  0  0  0  0  0  0  0
  -28.7372  -16.4060   18.3506 C   0  0  0  0  0  0  0  0  0  0  0  0
  -29.3945  -21.9184   20.2400 C   0  0  0  0  0  0  0  0  0  0  0  0
  -21.8635   -7.7625   20.0704 C   0  0  0  0  0  0  0  0  0  0  0  0
  -23.7596  -13.9741   20.5626 C   0  0  0  0  0  0  0  0  0  0  0  0
  -26.6358  -14.3282   21.1517 C   0  0  0  0  0  0  0  0  0  0  0  0
  -23.1103   -8.2880   19.3635 C   0  0  0  0  0  0  0  0  0  0  0  0
  -29.8417  -23.8639   17.2918 C   0  0  0  0  0  0  0  0  0  0  0  0
  -24.1996   -8.6199   20.3785 C   0  0  0  0  0  0  0  0  0  0  0  0
  -29.4800  -25.2832   17.7356 C   0  0  0  0  0  0  0  0  0  0  0  0
  -28.9565  -22.8163   17.9647 C   0  0  0  0  0  0  0  0  0  0  0  0
  -28.5411  -24.3170   19.8738 C   0  0  0  0  0  0  0  0  0  0  0  0
  -23.7394   -9.7209   21.3415 C   0  0  1  0  0  0  0  0  0  0  0  0
  -24.8240  -13.0793   19.9351 C   0  0  1  0  0  0  0  0  0  0  0  0
  -29.4485  -25.4023   19.2720 C   0  0  2  0  0  0  0  0  0  0  0  0
  -33.5875  -18.7427   29.4127 C   0  0  0  0  0  0  0  0  0  0  0  0
  -30.2931  -17.5383   16.7398 C   0  0  0  0  0  0  0  0  0  0  0  0
  -31.6203  -16.9349   27.9060 C   0  0  0  0  0  0  0  0  0  0  0  0
  -27.5755  -20.4998   27.1510 C   0  0  0  0  0  0  0  0  0  0  0  0
  -29.2333  -11.7128   19.7083 C   0  0  0  0  0  0  0  0  0  0  0  0
  -30.8506  -13.4246   18.8584 C   0  0  0  0  0  0  0  0  0  0  0  0
  -29.2875  -12.2946   17.2766 C   0  0  0  0  0  0  0  0  0  0  0  0
  -26.8650  -18.6626   17.9482 C   0  0  0  0  0  0  0  0  0  0  0  0
  -32.6360  -19.2311   28.3307 C   0  0  0  0  0  0  0  0  0  0  0  0
  -26.5733  -18.2947   26.3848 C   0  0  0  0  0  0  0  0  0  0  0  0
  -28.9823  -18.3716   27.1047 C   0  0  0  0  0  0  0  0  0  0  0  0
  -26.6356  -17.1686   25.3591 C   0  0  0  0  0  0  0  0  0  1  0  0
  -28.3840  -14.0121   18.8970 C   0  0  1  0  0  0  0  0  0  0  0  0
  -28.8463  -17.3552   17.1709 C   0  0  2  0  0  0  0  0  0  0  0  0
  -31.3313  -18.4233   28.1370 C   0  0  1  0  0  0  0  0  0  0  0  0
  -27.8405  -19.1745   26.4306 C   0  0  2  0  0  0  0  0  0  0  0  0
  -30.3661  -19.0555   27.0963 C   0  0  1  0  0  0  0  0  0  0  0  0
  -29.4191  -12.8680   18.7043 C   0  0  0  0  0  0  0  0  0  0  0  0
  -30.2256  -20.1040   22.3810 N   0  0  0  0  0  0  0  0  0  0  0  0
  -30.1023  -21.0762   25.0087 N   0  0  0  0  0  0  0  0  0  0  0  0
  -27.7466  -27.0497   19.9583 N   0  0  0  0  0  0  0  0  0  0  0  0
  -29.0443  -26.7945   19.7198 N   0  0  0  0  0  0  0  0  0  0  0  0
  -26.1468  -13.7069   19.9098 N   0  0  0  0  0  0  0  0  0  0  0  0
  -28.9792  -22.9881   19.4190 N   0  0  0  0  0  0  0  0  0  0  0  0
  -31.1963  -27.7842   19.7268 N   0  0  0  0  0  0  0  0  0  0  0  0
  -28.4933  -31.1586   21.0320 N   0  0  0  0  0  0  0  0  0  0  0  0
  -29.4063  -22.2092   21.6038 N   0  0  0  0  0  0  0  0  0  0  0  0
  -30.9159  -18.9896   25.7585 N   0  0  0  0  0  0  0  0  0  0  0  0
  -23.8161  -11.0166   20.7015 N   0  0  0  0  0  0  0  0  0  0  0  0
  -28.5191  -15.1071   17.9425 N   0  0  0  0  0  0  0  0  0  0  0  0
  -28.2895  -18.6908   17.5275 N   0  3  0  0  0  0  0  0  0  0  0  0
  -30.6655  -30.5839   20.5735 O   0  0  0  0  0  0  0  0  0  0  0  0
  -26.0634  -11.4580   21.1226 O   0  0  0  0  0  0  0  0  0  0  0  0
  -26.5806  -13.0084   17.7280 O   0  0  0  0  0  0  0  0  0  0  0  0
  -28.8393  -16.7789   19.5172 O   0  0  0  0  0  0  0  0  0  0  0  0
  -29.7420  -20.8336   19.7662 O   0  0  0  0  0  0  0  0  0  0  0  0
  -22.9649  -30.8928   21.6655 O   0  0  0  0  0  0  0  0  0  0  0  0
  -25.4077  -16.4513   25.3943 O   0  0  0  0  0  0  0  0  0  1  0  0
  -22.9333  -34.0486   26.1869 F   0  0  0  0  0  0  0  0  0  0  0  0
  -21.2619  -30.3371   23.7711 F   0  0  0  0  0  0  0  0  0  0  0  0
  1  2  1  0  0  0  0
  1  5  2  0  0  0  0
  2  6  2  0  0  0  0
  3  8  2  0  0  0  0
  3 17  1  0  0  0  0
  4  9  1  0  0  0  0
  4 17  2  0  0  0  0
  5 19  1  0  0  0  0
  6 21  1  0  0  0  0
  7 10  2  0  0  0  0
  7 20  1  0  0  0  0
  8 23  1  0  0  0  0
  9 23  2  0  0  0  0
 10 24  1  0  0  0  0
 11 12  2  0  0  0  0
 11 25  1  0  0  0  0
 12 26  1  0  0  0  0
 13 22  1  0  0  0  0
 13 24  2  0  0  0  0
 14 26  2  0  0  0  0
 14 27  1  0  0  0  0
 15 29  2  0  0  0  0
 15 68  1  0  0  0  0
 16 30  1  0  0  0  0
 16 67  2  0  0  0  0
 17 28  1  0  0  0  0
 18 28  1  0  0  0  0
 18 31  2  0  0  0  0
 18 32  1  0  0  0  0
 19 21  2  0  0  0  0
 19 37  1  0  0  0  0
 20 22  2  0  0  0  0
 20 38  1  0  0  0  0
 21 46  1  0  0  0  0
 22 39  1  0  0  0  0
 23 85  1  0  0  0  0
 24 86  1  0  0  0  0
 25 27  2  0  0  0  0
 25 85  1  0  0  0  0
 26 87  1  0  0  0  0
 27 88  1  0  0  0  0
 28 69  2  0  0  0  0
 29 67  1  0  0  0  0
 29 75  1  0  0  0  0
 30 68  2  0  0  0  0
 30 76  1  0  0  0  0
 31 70  1  0  0  0  0
 31 73  1  0  0  0  0
 32 74  1  0  0  0  0
 32 80  2  0  0  0  0
 33 47  1  0  0  0  0
 33 77  1  0  0  0  0
 33 81  2  0  0  0  0
 34 61  1  0  0  0  0
 34 71  1  0  0  0  0
 34 82  2  0  0  0  0
 35 62  1  0  0  0  0
 35 78  1  0  0  0  0
 35 83  2  0  0  0  0
 36 72  1  0  0  0  0
 36 75  1  0  0  0  0
 36 84  2  0  0  0  0
 37 40  1  0  0  0  0
 38 47  1  0  0  0  0
 39 71  1  0  0  0  0
 40 42  1  0  0  0  0
 41 43  1  0  0  0  0
 41 44  1  0  0  0  0
 42 46  1  0  0  0  0
 43 48  1  0  0  0  0
 44 72  1  0  0  0  0
 45 48  1  0  0  0  0
 45 72  1  0  0  0  0
 46 77  1  0  0  0  0
 47 71  1  0  0  0  0
 48 70  1  0  0  0  0
 49 57  1  0  0  0  0
 50 62  1  0  0  0  0
 51 63  1  0  0  0  0
 52 64  1  0  0  0  0
 53 66  1  0  0  0  0
 54 66  1  0  0  0  0
 55 66  1  0  0  0  0
 56 79  1  0  0  0  0
 57 63  1  0  0  0  0
 58 60  1  0  0  0  0
 58 64  1  0  0  0  0
 59 64  1  0  0  0  0
 59 65  1  0  0  0  0
 60 86  1  0  0  0  0
 61 66  1  0  0  0  0
 61 78  1  0  0  0  0
 62 79  1  0  0  0  0
 63 65  1  0  0  0  0
 65 76  1  0  0  0  0
 69 70  1  0  0  0  0
M  CHG  1  79   1
M  ISO  4  36 100  60 101  75 100  86 101
M  END
> <Batch ID>
0191

> <Smiles>
CCC(C)C(CC(C)C[101CH2:1][101O:1]c1ccc2c(c1)CN(C(=O)C(NC(=O)C(C)NC)C(C)(C)C)C(C(=O)NC1CCCc3ccccc31)C2)Nc1cnc([100NH:0][100C:0](=O)N2CCCC(n3nc(-c4ccc(Oc5ccc(F)cc5F)cc4)c(C(N)=O)c3N)C2)cn1

> <Shape>
0.249

> <Color>
0.058

> <Negative vol penalty>
0.000

$$$$

  -OEChem-04052305243D

 83 91  0     1  0  0  0  0  0999 V2000
  -21.3018  -23.5033   20.6174 C   0  0  0  0  0  0  0  0  0  0  0  0
  -22.4521  -22.7215   20.6483 C   0  0  0  0  0  0  0  0  0  0  0  0
  -20.1707  -28.2536   23.5547 C   0  0  0  0  0  0  0  0  0  0  0  0
  -19.9970  -26.9867   21.5048 C   0  0  0  0  0  0  0  0  0  0  0  0
  -20.1653  -23.0971   21.3155 C   0  0  0  0  0  0  0  0  0  0  0  0
  -22.4669  -21.5335   21.3781 C   0  0  0  0  0  0  0  0  0  0  0  0
  -24.5936  -17.7116   18.8255 C   0  0  0  0  0  0  0  0  0  0  0  0
  -18.8104  -28.5539   23.4844 C   0  0  0  0  0  0  0  0  0  0  0  0
  -18.6366  -27.2870   21.4345 C   0  0  0  0  0  0  0  0  0  0  0  0
  -25.9862  -17.6834   18.7649 C   0  0  0  0  0  0  0  0  0  0  0  0
  -15.4581  -29.9531   23.6523 C   0  0  0  0  0  0  0  0  0  0  0  0
  -15.0693  -31.2693   23.9012 C   0  0  0  0  0  0  0  0  0  0  0  0
  -26.0235  -16.0379   20.5285 C   0  0  0  0  0  0  0  0  0  0  0  0
  -16.4270  -32.0207   22.0493 C   0  0  0  0  0  0  0  0  0  0  0  0
  -20.7640  -27.4700   22.5649 C   0  0  0  0  0  0  0  0  0  0  0  0
  -22.7642  -26.0525   23.2704 C   0  0  0  0  0  0  0  0  0  0  0  0
  -20.1631  -21.8986   22.0464 C   0  0  0  0  0  0  0  0  0  0  0  0
  -23.9048  -16.9100   19.7471 C   0  0  0  0  0  0  0  0  0  0  0  0
  -21.3298  -21.1115   22.0877 C   0  0  0  0  0  0  0  0  0  0  0  0
  -24.6220  -16.0560   20.5971 C   0  0  0  0  0  0  0  0  0  0  0  0
  -18.0433  -28.0706   22.4243 C   0  0  0  0  0  0  0  0  0  0  0  0
  -26.7015  -16.8486   19.6184 C   0  0  0  0  0  0  0  0  0  0  0  0
  -16.3314  -29.6707   22.6019 C   0  0  0  0  0  0  0  0  0  0  0  0
  -15.5537  -32.3031   23.0998 C   0  0  0  0  0  0  0  0  0  0  0  0
  -16.8158  -30.7044   21.8004 C   0  0  0  0  0  0  0  0  0  0  0  0
  -22.1693  -27.1599   22.6367 C   0  0  0  0  0  0  0  0  0  0  0  0
  -31.3624  -24.2120   19.2505 C   0  0  0  0  0  0  0  0  0  0  0  0
  -24.1107  -26.2157   23.0544 C   0  0  0  0  0  0  0  0  0  0  0  0
  -30.6644  -23.0717   19.5889 C   0  0  0  0  0  0  0  0  0  0  0  0
  -29.4230  -25.1331   19.6980 C   0  0  0  0  0  0  0  0  0  0  0  0
  -22.1541  -24.9728   23.9899 C   0  0  0  0  0  0  0  0  0  0  0  0
  -21.9709  -17.4745   22.2058 C   0  0  0  0  0  0  0  0  0  0  0  0
  -21.6580  -14.2458   22.1989 C   0  0  0  0  0  0  0  0  0  0  0  0
  -22.9730  -11.2093   21.3639 C   0  0  0  0  0  0  0  0  0  0  0  0
  -28.3955  -27.4332   19.7136 C   0  0  0  0  0  0  0  0  0  0  0  0
  -18.9259  -21.5246   22.8236 C   0  0  0  0  0  0  0  0  0  0  0  0
  -22.4012  -16.9323   19.7816 C   0  0  0  0  0  0  0  0  0  0  0  0
  -23.9291  -15.1607   21.5904 C   0  0  0  0  0  0  0  0  0  0  0  0
  -18.9035  -20.0641   23.2672 C   0  0  0  0  0  0  0  0  0  0  0  0
  -26.7001  -30.1678   21.2384 C   0  0  0  0  0  0  0  0  0  0  0  0
  -20.2461  -19.6701   23.8749 C   0  0  0  0  0  0  0  0  0  0  0  0
  -25.4192  -29.5379   21.7902 C   0  0  0  0  0  0  0  0  0  0  0  0
  -27.1062  -29.5491   19.9019 C   0  0  0  0  0  0  0  0  0  0  0  0
  -25.9326  -27.4547   20.4547 C   0  0  0  0  0  0  0  0  0  0  0  0
  -21.3770  -19.8038   22.8479 C   0  0  1  0  0  0  0  0  0  0  0  0
  -21.8269  -16.4546   21.1118 C   0  0  1  0  0  0  0  0  0  0  0  0
  -25.5196  -28.0004   21.8314 C   0  0  2  0  0  0  0  0  0  0  0  0
  -32.7793  -24.2780   18.8341 C   0  0  0  0  0  0  0  0  0  0  0  0
  -22.5043   -8.7490   21.5214 C   0  0  0  0  0  0  0  0  0  0  0  0
  -22.4320  -14.2897   25.1500 C   0  0  0  0  0  0  0  0  0  0  0  0
  -22.8710  -11.8294   24.9997 C   0  0  0  0  0  0  0  0  0  0  0  0
  -20.5759  -12.7128   24.5817 C   0  0  0  0  0  0  0  0  0  0  0  0
  -22.9515  -10.9070   18.4199 C   0  0  0  0  0  0  0  0  0  0  0  0
  -30.0949  -18.0626   19.8106 C   0  0  0  0  0  0  0  0  0  0  0  0
  -30.3029  -20.6350   19.9861 C   0  0  0  0  0  0  0  0  0  0  0  0
  -28.7200  -18.0198   19.1604 C   0  0  0  0  0  0  0  0  0  1  0  0
  -22.3857  -13.0997   22.8592 C   0  0  1  0  0  0  0  0  0  0  0  0
  -22.3631  -10.0031   20.6728 C   0  0  2  0  0  0  0  0  0  0  0  0
  -30.8993  -19.3227   19.4746 C   0  0  1  0  0  0  0  0  0  0  0  0
  -22.0796  -13.0011   24.3804 C   0  0  0  0  0  0  0  0  0  0  0  0
  -23.0645  -27.9671   22.0614 N   0  0  0  0  0  0  0  0  0  0  0  0
  -30.6520  -25.3950   19.3120 N   0  0  0  0  0  0  0  0  0  0  0  0
  -24.2357  -27.3664   22.3329 N   0  0  0  0  0  0  0  0  0  0  0  0
  -22.4582  -15.2231   21.5903 N   0  0  0  0  0  0  0  0  0  0  0  0
  -27.1852  -28.0913   20.0181 N   0  0  0  0  0  0  0  0  0  0  0  0
  -25.1882  -25.4859   23.4133 N   0  0  0  0  0  0  0  0  0  0  0  0
  -20.7584  -24.9591   24.1175 N   0  0  0  0  0  0  0  0  0  0  0  0
  -31.1230  -21.7650   19.6138 N   0  0  0  0  0  0  0  0  0  0  0  0
  -28.3608  -26.0506   19.8921 N   0  0  0  0  0  0  0  0  0  0  0  0
  -21.3620  -18.6841   21.9311 N   0  0  0  0  0  0  0  0  0  0  0  0
  -22.0367  -11.9034   22.1006 N   0  0  0  0  0  0  0  0  0  0  0  0
  -23.0332   -9.7626   19.3636 N   0  3  0  0  0  0  0  0  0  0  0  0
  -22.8279  -24.0562   24.5185 O   0  0  0  0  0  0  0  0  0  0  0  0
  -22.5875  -17.1848   23.2245 O   0  0  0  0  0  0  0  0  0  0  0  0
  -20.4248  -14.2692   22.2161 O   0  0  0  0  0  0  0  0  0  0  0  0
  -24.1620  -11.5040   21.2635 O   0  0  0  0  0  0  0  0  0  0  0  0
  -29.3977  -28.0536   19.3493 O   0  0  0  0  0  0  0  0  0  0  0  0
  -32.2165  -19.1905   20.0124 O   0  0  0  0  0  0  0  0  0  0  0  0
  -16.7159  -28.3633   22.3555 O   0  0  0  0  0  0  0  0  0  0  0  0
  -28.0608  -16.8195   19.5618 O   0  0  0  0  0  0  0  0  0  1  0  0
  -15.1790  -33.5669   23.3380 F   0  0  0  0  0  0  0  0  0  0  0  0
  -17.6541  -30.4391   20.7891 F   0  0  0  0  0  0  0  0  0  0  0  0
  -29.0528  -23.4857   20.0046 S   0  0  0  0  0  0  0  0  0  0  0  0
  1  2  1  0  0  0  0
  1  5  2  0  0  0  0
  2  6  2  0  0  0  0
  3  8  2  0  0  0  0
  3 15  1  0  0  0  0
  4  9  1  0  0  0  0
  4 15  2  0  0  0  0
  5 17  1  0  0  0  0
  6 19  1  0  0  0  0
  7 10  2  0  0  0  0
  7 18  1  0  0  0  0
  8 21  1  0  0  0  0
  9 21  2  0  0  0  0
 10 22  1  0  0  0  0
 11 12  2  0  0  0  0
 11 23  1  0  0  0  0
 12 24  1  0  0  0  0
 13 20  1  0  0  0  0
 13 22  2  0  0  0  0
 14 24  2  0  0  0  0
 14 25  1  0  0  0  0
 15 26  1  0  0  0  0
 16 26  1  0  0  0  0
 16 28  2  0  0  0  0
 16 31  1  0  0  0  0
 17 19  2  0  0  0  0
 17 36  1  0  0  0  0
 18 20  2  0  0  0  0
 18 37  1  0  0  0  0
 19 45  1  0  0  0  0
 20 38  1  0  0  0  0
 21 79  1  0  0  0  0
 22 80  1  0  0  0  0
 23 25  2  0  0  0  0
 23 79  1  0  0  0  0
 24 81  1  0  0  0  0
 25 82  1  0  0  0  0
 26 61  2  0  0  0  0
 27 29  2  0  0  0  0
 27 48  1  0  0  0  0
 27 62  1  0  0  0  0
 28 63  1  0  0  0  0
 28 66  1  0  0  0  0
 29 68  1  0  0  0  0
 29 83  1  0  0  0  0
 30 62  2  0  0  0  0
 30 69  1  0  0  0  0
 30 83  1  0  0  0  0
 31 67  1  0  0  0  0
 31 73  2  0  0  0  0
 32 46  1  0  0  0  0
 32 70  1  0  0  0  0
 32 74  2  0  0  0  0
 33 57  1  0  0  0  0
 33 64  1  0  0  0  0
 33 75  2  0  0  0  0
 34 58  1  0  0  0  0
 34 71  1  0  0  0  0
 34 76  2  0  0  0  0
 35 65  1  0  0  0  0
 35 69  1  0  0  0  0
 35 77  2  0  0  0  0
 36 39  1  0  0  0  0
 37 46  1  0  0  0  0
 38 64  1  0  0  0  0
 39 41  1  0  0  0  0
 40 42  1  0  0  0  0
 40 43  1  0  0  0  0
 41 45  1  0  0  0  0
 42 47  1  0  0  0  0
 43 65  1  0  0  0  0
 44 47  1  0  0  0  0
 44 65  1  0  0  0  0
 45 70  1  0  0  0  0
 46 64  1  0  0  0  0
 47 63  1  0  0  0  0
 49 58  1  0  0  0  0
 50 60  1  0  0  0  0
 51 60  1  0  0  0  0
 52 60  1  0  0  0  0
 53 72  1  0  0  0  0
 54 56  1  0  0  0  0
 54 59  1  0  0  0  0
 55 59  1  0  0  0  0
 55 68  1  0  0  0  0
 56 80  1  0  0  0  0
 57 60  1  0  0  0  0
 57 71  1  0  0  0  0
 58 72  1  0  0  0  0
 59 78  1  0  0  0  0
 61 63  1  0  0  0  0
M  CHG  1  72   1
M  ISO  4  35 100  56 101  69 100  80 101
M  END
> <Batch ID>
0191

> <Smiles>
CNC(C)C(=O)NC(C(=O)N1Cc2cc([101O:1][101CH2:1]CC(O)CNc3sc([100NH:0][100C:0](=O)N4CCCC(n5nc(-c6ccc(Oc7ccc(F)cc7F)cc6)c(C(N)=O)c5N)C4)nc3C)ccc2CC1C(=O)NC1CCCc2ccccc21)C(C)(C)C

> <Shape>
0.208

> <Color>
0.054

> <Negative vol penalty>
0.000

$$$$

  -OEChem-04052305243D

 87 95  0     1  0  0  0  0  0999 V2000
  -22.6835   -7.6762   22.3715 C   0  0  0  0  0  0  0  0  0  0  0  0
  -23.7512   -8.5669   22.3271 C   0  0  0  0  0  0  0  0  0  0  0  0
  -25.0066  -31.0326   21.1087 C   0  0  0  0  0  0  0  0  0  0  0  0
  -24.9000  -29.6422   23.0816 C   0  0  0  0  0  0  0  0  0  0  0  0
  -21.4462   -8.0461   21.8461 C   0  0  0  0  0  0  0  0  0  0  0  0
  -23.5825   -9.8278   21.7561 C   0  0  0  0  0  0  0  0  0  0  0  0
  -25.6372  -13.5169   24.5514 C   0  0  0  0  0  0  0  0  0  0  0  0
  -24.4076  -32.0773   21.8125 C   0  0  0  0  0  0  0  0  0  0  0  0
  -24.3010  -30.6870   23.7855 C   0  0  0  0  0  0  0  0  0  0  0  0
  -27.0202  -13.6765   24.4777 C   0  0  0  0  0  0  0  0  0  0  0  0
  -25.3406  -34.4215   24.0635 C   0  0  0  0  0  0  0  0  0  0  0  0
  -25.8898  -35.6960   23.9238 C   0  0  0  0  0  0  0  0  0  0  0  0
  -26.7204  -15.5127   22.9422 C   0  0  0  0  0  0  0  0  0  0  0  0
  -23.7870  -36.5067   23.0532 C   0  0  0  0  0  0  0  0  0  0  0  0
  -25.2528  -29.8150   21.7432 C   0  0  0  0  0  0  0  0  0  0  0  0
  -27.2481  -28.4665   20.9018 C   0  0  0  0  0  0  0  0  0  0  0  0
  -21.2596   -9.3158   21.2771 C   0  0  0  0  0  0  0  0  0  0  0  0
  -24.7843  -14.3484   23.8114 C   0  0  0  0  0  0  0  0  0  0  0  0
  -22.3419  -10.2146   21.2213 C   0  0  0  0  0  0  0  0  0  0  0  0
  -25.3268  -15.3633   23.0103 C   0  0  0  0  0  0  0  0  0  0  0  0
  -24.0549  -31.9045   23.1509 C   0  0  0  0  0  0  0  0  0  0  0  0
  -27.5622  -14.6727   23.6707 C   0  0  0  0  0  0  0  0  0  0  0  0
  -24.0146  -34.1895   23.6980 C   0  0  0  0  0  0  0  0  0  0  0  0
  -25.1130  -36.7386   23.4186 C   0  0  0  0  0  0  0  0  0  0  0  0
  -23.2378  -35.2321   23.1929 C   0  0  0  0  0  0  0  0  0  0  0  0
  -25.8710  -28.7353   21.0165 C   0  0  0  0  0  0  0  0  0  0  0  0
  -27.3143  -27.3430   20.1146 C   0  0  0  0  0  0  0  0  0  0  0  0
  -27.6404  -21.0166   19.3882 C   0  0  0  0  0  0  0  0  0  0  0  0
  -28.3833  -19.1395   18.8570 C   0  0  0  0  0  0  0  0  0  0  0  0
  -28.3674  -29.1696   21.4572 C   0  0  0  0  0  0  0  0  0  0  0  0
  -22.6481  -13.8861   21.5034 C   0  0  0  0  0  0  0  0  0  0  0  0
  -22.0587  -17.0443   21.9510 C   0  0  0  0  0  0  0  0  0  0  0  0
  -23.1891  -20.0779   23.0312 C   0  0  0  0  0  0  0  0  0  0  0  0
  -25.5402  -22.2474   18.7398 C   0  0  0  0  0  0  0  0  0  0  0  0
  -19.9166   -9.6532   20.6793 C   0  0  0  0  0  0  0  0  0  0  0  0
  -23.2937  -14.1806   23.9226 C   0  0  0  0  0  0  0  0  0  0  0  0
  -24.4538  -16.2953   22.2117 C   0  0  0  0  0  0  0  0  0  0  0  0
  -19.7190  -11.1460   20.4291 C   0  0  0  0  0  0  0  0  0  0  0  0
  -23.7373  -25.0090   17.3981 C   0  0  0  0  0  0  0  0  0  0  0  0
  -20.9473  -11.7402   19.7471 C   0  0  0  0  0  0  0  0  0  0  0  0
  -24.2449  -26.2025   18.2104 C   0  0  0  0  0  0  0  0  0  0  0  0
  -23.6207  -23.7489   18.2539 C   0  0  0  0  0  0  0  0  0  0  0  0
  -25.3439  -24.5798   19.8061 C   0  0  0  0  0  0  0  0  0  0  0  0
  -22.1915  -11.6005   20.6324 C   0  0  1  0  0  0  0  0  0  0  0  0
  -22.5373  -14.7512   22.7269 C   0  0  1  0  0  0  0  0  0  0  0  0
  -25.5396  -25.8562   18.9718 C   0  0  2  0  0  0  0  0  0  0  0  0
  -32.4781  -20.5689   23.1428 C   0  0  0  0  0  0  0  0  0  0  0  0
  -22.4941  -22.4806   23.2343 C   0  0  0  0  0  0  0  0  0  0  0  0
  -22.5044  -17.4239   18.9565 C   0  0  0  0  0  0  0  0  0  0  0  0
  -22.7421  -19.8810   19.3740 C   0  0  0  0  0  0  0  0  0  0  0  0
  -20.5923  -18.7304   19.9004 C   0  0  0  0  0  0  0  0  0  0  0  0
  -32.2392  -17.0176   21.5262 C   0  0  0  0  0  0  0  0  0  0  0  0
  -23.4653  -20.0294   25.9774 C   0  0  0  0  0  0  0  0  0  0  0  0
  -32.7974  -19.3018   22.3579 C   0  0  0  0  0  0  0  0  0  0  0  0
  -30.4085  -18.7600   21.7057 C   0  0  0  0  0  0  0  0  0  0  0  0
  -31.3661  -17.7181   23.8247 C   0  0  0  0  0  0  0  0  0  0  0  0
  -30.5571  -19.2515   20.2577 C   0  0  0  0  0  0  0  0  0  0  0  0
  -29.3968  -16.1507   23.3462 C   0  0  0  0  0  0  0  0  0  1  0  0
  -22.6072  -18.3266   21.3732 C   0  0  1  0  0  0  0  0  0  0  0  0
  -22.5565  -21.1280   23.9265 C   0  0  2  0  0  0  0  0  0  0  0  0
  -30.7697  -16.3085   23.9962 C   0  0  2  0  0  0  0  0  0  0  0  0
  -22.1283  -18.5718   19.9144 C   0  0  0  0  0  0  0  0  0  0  0  0
  -31.7025  -18.1874   22.3753 C   0  0  1  0  0  0  0  0  0  0  0  0
  -25.1167  -27.8535   20.3550 N   0  0  0  0  0  0  0  0  0  0  0  0
  -27.3509  -19.9182   18.6303 N   0  0  0  0  0  0  0  0  0  0  0  0
  -28.7870  -20.9665   20.0696 N   0  0  0  0  0  0  0  0  0  0  0  0
  -26.0231  -27.0198   19.8170 N   0  0  0  0  0  0  0  0  0  0  0  0
  -29.2424  -19.7560   19.7124 N   0  0  0  0  0  0  0  0  0  0  0  0
  -23.0028  -16.0871   22.3488 N   0  0  0  0  0  0  0  0  0  0  0  0
  -24.8857  -23.4810   18.9415 N   0  0  0  0  0  0  0  0  0  0  0  0
  -28.3504  -26.6098   19.6548 N   0  0  0  0  0  0  0  0  0  0  0  0
  -28.6621  -17.9069   18.3772 N   0  0  0  0  0  0  0  0  0  0  0  0
  -28.1210  -30.3041   22.2425 N   0  0  0  0  0  0  0  0  0  0  0  0
  -26.7508  -22.1190   19.4199 N   0  0  0  0  0  0  0  0  0  0  0  0
  -22.1804  -12.5980   21.6810 N   0  0  0  0  0  0  0  0  0  0  0  0
  -22.2412  -19.3851   22.3082 N   0  0  0  0  0  0  0  0  0  0  0  0
  -23.3431  -21.2790   25.1833 N   0  3  0  0  0  0  0  0  0  0  0  0
  -29.5517  -28.8123   21.2494 O   0  0  0  0  0  0  0  0  0  0  0  0
  -23.1214  -14.3531   20.4741 O   0  0  0  0  0  0  0  0  0  0  0  0
  -20.8378  -16.9003   22.0525 O   0  0  0  0  0  0  0  0  0  0  0  0
  -24.4029  -19.8934   22.9758 O   0  0  0  0  0  0  0  0  0  0  0  0
  -25.0754  -21.3802   17.9955 O   0  0  0  0  0  0  0  0  0  0  0  0
  -30.5742  -16.0818   25.4000 O   0  0  0  0  0  0  0  0  0  0  0  0
  -23.4706  -32.9238   23.8381 O   0  0  0  0  0  0  0  0  0  0  0  0
  -28.9198  -14.8311   23.5960 O   0  0  0  0  0  0  0  0  0  1  0  0
  -25.6401  -37.9629   23.2860 F   0  0  0  0  0  0  0  0  0  0  0  0
  -21.9629  -35.0157   22.8411 F   0  0  0  0  0  0  0  0  0  0  0  0
  1  2  1  0  0  0  0
  1  5  2  0  0  0  0
  2  6  2  0  0  0  0
  3  8  2  0  0  0  0
  3 15  1  0  0  0  0
  4  9  1  0  0  0  0
  4 15  2  0  0  0  0
  5 17  1  0  0  0  0
  6 19  1  0  0  0  0
  7 10  2  0  0  0  0
  7 18  1  0  0  0  0
  8 21  1  0  0  0  0
  9 21  2  0  0  0  0
 10 22  1  0  0  0  0
 11 12  2  0  0  0  0
 11 23  1  0  0  0  0
 12 24  1  0  0  0  0
 13 20  1  0  0  0  0
 13 22  2  0  0  0  0
 14 24  2  0  0  0  0
 14 25  1  0  0  0  0
 15 26  1  0  0  0  0
 16 26  1  0  0  0  0
 16 27  2  0  0  0  0
 16 30  1  0  0  0  0
 17 19  2  0  0  0  0
 17 35  1  0  0  0  0
 18 20  2  0  0  0  0
 18 36  1  0  0  0  0
 19 44  1  0  0  0  0
 20 37  1  0  0  0  0
 21 84  1  0  0  0  0
 22 85  1  0  0  0  0
 23 25  2  0  0  0  0
 23 84  1  0  0  0  0
 24 86  1  0  0  0  0
 25 87  1  0  0  0  0
 26 64  2  0  0  0  0
 27 67  1  0  0  0  0
 27 71  1  0  0  0  0
 28 65  1  0  0  0  0
 28 66  2  0  0  0  0
 28 74  1  0  0  0  0
 29 65  2  0  0  0  0
 29 68  1  0  0  0  0
 29 72  1  0  0  0  0
 30 73  1  0  0  0  0
 30 78  2  0  0  0  0
 31 45  1  0  0  0  0
 31 75  1  0  0  0  0
 31 79  2  0  0  0  0
 32 59  1  0  0  0  0
 32 69  1  0  0  0  0
 32 80  2  0  0  0  0
 33 60  1  0  0  0  0
 33 76  1  0  0  0  0
 33 81  2  0  0  0  0
 34 70  1  0  0  0  0
 34 74  1  0  0  0  0
 34 82  2  0  0  0  0
 35 38  1  0  0  0  0
 36 45  1  0  0  0  0
 37 69  1  0  0  0  0
 38 40  1  0  0  0  0
 39 41  1  0  0  0  0
 39 42  1  0  0  0  0
 40 44  1  0  0  0  0
 41 46  1  0  0  0  0
 42 70  1  0  0  0  0
 43 46  1  0  0  0  0
 43 70  1  0  0  0  0
 44 75  1  0  0  0  0
 45 69  1  0  0  0  0
 46 67  1  0  0  0  0
 47 54  1  0  0  0  0
 48 60  1  0  0  0  0
 49 62  1  0  0  0  0
 50 62  1  0  0  0  0
 51 62  1  0  0  0  0
 52 63  1  0  0  0  0
 53 77  1  0  0  0  0
 54 63  1  0  0  0  0
 55 57  1  0  0  0  0
 55 63  1  0  0  0  0
 56 61  1  0  0  0  0
 56 63  1  0  0  0  0
 57 68  1  0  0  0  0
 58 61  1  0  0  0  0
 58 85  1  0  0  0  0
 59 62  1  0  0  0  0
 59 76  1  0  0  0  0
 60 77  1  0  0  0  0
 61 83  1  0  0  0  0
 64 67  1  0  0  0  0
 66 68  1  0  0  0  0
M  CHG  1  77   1
M  ISO  4  34 100  58 101  74 100  85 101
M  END
> <Batch ID>
0191

> <Smiles>
CCC(C)(CCn1nc([100NH:0][100C:0](=O)N2CCCC(n3nc(-c4ccc(Oc5ccc(F)cc5F)cc4)c(C(N)=O)c3N)C2)nc1N)CC(O)[101CH2:1][101O:1]c1ccc2c(c1)CN(C(=O)C(NC(=O)C(C)NC)C(C)(C)C)C(C(=O)NC1CCCc3ccccc31)C2

> <Shape>
0.216

> <Color>
0.078

> <Negative vol penalty>
0.000

$$$$

  -OEChem-04052305243D

 89 97  0     1  0  0  0  0  0999 V2000
  -30.0591  -35.9018   23.4291 C   0  0  0  0  0  0  0  0  0  0  0  0
  -30.2203  -34.6466   22.8513 C   0  0  0  0  0  0  0  0  0  0  0  0
  -24.0022   -9.2702   22.3511 C   0  0  0  0  0  0  0  0  0  0  0  0
  -23.9808  -10.1642   20.1067 C   0  0  0  0  0  0  0  0  0  0  0  0
  -29.0385  -36.1162   24.3544 C   0  0  0  0  0  0  0  0  0  0  0  0
  -29.3615  -33.6046   23.1995 C   0  0  0  0  0  0  0  0  0  0  0  0
  -27.3510  -29.1159   19.5505 C   0  0  0  0  0  0  0  0  0  0  0  0
  -22.6533   -8.9361   22.2310 C   0  0  0  0  0  0  0  0  0  0  0  0
  -22.6318   -9.8301   19.9865 C   0  0  0  0  0  0  0  0  0  0  0  0
  -27.7641  -27.7963   19.3718 C   0  0  0  0  0  0  0  0  0  0  0  0
  -20.8109   -6.4926   20.7929 C   0  0  0  0  0  0  0  0  0  0  0  0
  -20.4143   -5.2295   21.2320 C   0  0  0  0  0  0  0  0  0  0  0  0
  -26.0597  -27.0605   20.9122 C   0  0  0  0  0  0  0  0  0  0  0  0
  -18.9114   -6.2541   22.8222 C   0  0  0  0  0  0  0  0  0  0  0  0
  -28.7656  -16.7415   18.0096 C   0  0  0  0  0  0  0  0  0  0  0  0
  -24.6659   -9.8843   21.2890 C   0  0  0  0  0  0  0  0  0  0  0  0
  -27.1671   -9.4271   21.0820 C   0  0  0  0  0  0  0  0  0  0  0  0
  -28.1607  -35.0789   24.7068 C   0  0  0  0  0  0  0  0  0  0  0  0
  -26.2944  -29.4192   20.4212 C   0  0  0  0  0  0  0  0  0  0  0  0
  -28.3290  -33.8049   24.1314 C   0  0  0  0  0  0  0  0  0  0  0  0
  -25.6334  -28.3844   21.0982 C   0  0  0  0  0  0  0  0  0  0  0  0
  -21.9681   -9.2160   21.0487 C   0  0  0  0  0  0  0  0  0  0  0  0
  -27.1203  -26.7687   20.0549 C   0  0  0  0  0  0  0  0  0  0  0  0
  -20.2578   -7.6366   21.3685 C   0  0  0  0  0  0  0  0  0  0  0  0
  -19.4646   -5.1102   22.2466 C   0  0  0  0  0  0  0  0  0  0  0  0
  -19.3080   -7.5173   22.3831 C   0  0  0  0  0  0  0  0  0  0  0  0
  -26.0592  -10.2302   21.4128 C   0  0  0  0  0  0  0  0  0  0  0  0
  -29.1263  -16.9136   19.3296 C   0  0  0  0  0  0  0  0  0  0  0  0
  -28.2577  -10.2066   21.3812 C   0  0  0  0  0  0  0  0  0  0  0  0
  -30.0810  -18.7012   18.4911 C   0  0  0  0  0  0  0  0  0  0  0  0
  -27.2068   -8.0956   20.5517 C   0  0  0  0  0  0  0  0  0  0  0  0
  -26.0021  -31.1334   23.0820 C   0  0  0  0  0  0  0  0  0  0  0  0
  -22.8515  -30.4586   22.7068 C   0  0  0  0  0  0  0  0  0  0  0  0
  -20.4656  -28.3970   21.4013 C   0  0  0  0  0  0  0  0  0  0  0  0
  -29.0835  -16.1150   21.7185 C   0  0  0  0  0  0  0  0  0  0  0  0
  -27.1020  -35.3458   25.7472 C   0  0  0  0  0  0  0  0  0  0  0  0
  -25.8434  -30.8450   20.5825 C   0  0  0  0  0  0  0  0  0  0  0  0
  -24.4804  -28.6552   22.0287 C   0  0  0  0  0  0  0  0  0  0  0  0
  -26.0011  -34.2888   25.7811 C   0  0  0  0  0  0  0  0  0  0  0  0
  -29.6502  -13.7346   24.3050 C   0  0  0  0  0  0  0  0  0  0  0  0
  -26.6049  -32.8882   25.7540 C   0  0  0  0  0  0  0  0  0  0  0  0
  -28.8995  -12.4908   23.8238 C   0  0  0  0  0  0  0  0  0  0  0  0
  -28.9088  -15.0202   23.9424 C   0  0  0  0  0  0  0  0  0  0  0  0
  -27.8019  -13.9086   22.0428 C   0  0  0  0  0  0  0  0  0  0  0  0
  -27.4022  -32.6561   24.4648 C   0  0  1  0  0  0  0  0  0  0  0  0
  -25.0919  -31.0900   21.8873 C   0  0  1  0  0  0  0  0  0  0  0  0
  -28.5423  -12.5917   22.3279 C   0  0  2  0  0  0  0  0  0  0  0  0
  -34.3974  -18.5324   15.7280 C   0  0  0  0  0  0  0  0  0  0  0  0
  -17.9783  -28.0818   21.2955 C   0  0  0  0  0  0  0  0  0  0  0  0
  -34.4543  -18.4615   18.7699 C   0  0  0  0  0  0  0  0  0  0  0  0
  -25.8282  -22.1494   19.3151 C   0  0  0  0  0  0  0  0  0  0  0  0
  -22.8669  -29.3957   25.5669 C   0  0  0  0  0  0  0  0  0  0  0  0
  -20.6907  -28.2571   25.0815 C   0  0  0  0  0  0  0  0  0  0  0  0
  -20.8482  -30.7440   24.9659 C   0  0  0  0  0  0  0  0  0  0  0  0
  -20.4399  -28.6690   18.4544 C   0  0  0  0  0  0  0  0  0  0  0  0
  -33.5554  -19.4494   16.6056 C   0  0  0  0  0  0  0  0  0  0  0  0
  -32.3467  -19.8152   18.8322 C   0  0  0  0  0  0  0  0  0  0  0  0
  -30.2202  -21.1350   19.2200 C   0  0  0  0  0  0  0  0  0  0  0  0
  -28.3001  -22.7442   19.5489 C   0  0  0  0  0  0  0  0  0  0  0  0
  -26.5299  -24.4651   20.0233 C   0  0  0  0  0  0  0  0  0  1  0  0
  -30.8715  -19.9959   18.3904 C   0  0  2  0  0  0  0  0  0  0  0  0
  -21.9348  -29.3479   23.1597 C   0  0  1  0  0  0  0  0  0  0  0  0
  -19.1973  -28.6916   20.6210 C   0  0  2  0  0  0  0  0  0  0  0  0
  -33.1971  -18.8428   17.9770 C   0  0  2  0  0  0  0  0  0  0  0  0
  -26.8909  -23.2431   19.1653 C   0  0  2  0  0  0  0  0  0  0  0  0
  -28.8185  -21.5478   18.7345 C   0  0  1  0  0  0  0  0  0  0  0  0
  -21.6081  -29.4309   24.6775 C   0  0  0  0  0  0  0  0  0  0  0  0
  -26.4135  -11.4280   21.8860 N   0  0  0  0  0  0  0  0  0  0  0  0
  -29.8810  -18.0365   19.6075 N   0  0  0  0  0  0  0  0  0  0  0  0
  -27.7563  -11.3832   21.8548 N   0  0  0  0  0  0  0  0  0  0  0  0
  -24.0806  -30.0662   22.1580 N   0  0  0  0  0  0  0  0  0  0  0  0
  -28.6075  -15.0480   22.5095 N   0  0  0  0  0  0  0  0  0  0  0  0
  -29.5871   -9.9934   21.2828 N   0  0  0  0  0  0  0  0  0  0  0  0
  -25.9939   -7.4392   20.3026 N   0  0  0  0  0  0  0  0  0  0  0  0
  -28.7628  -16.0171   20.3649 N   0  0  0  0  0  0  0  0  0  0  0  0
  -26.5080  -32.3892   23.3586 N   0  0  0  0  0  0  0  0  0  0  0  0
  -20.7632  -29.4065   22.2923 N   0  0  0  0  0  0  0  0  0  0  0  0
  -19.2975  -28.1374   19.2412 N   0  3  0  0  0  0  0  0  0  0  0  0
  -28.2862   -7.4994   20.3215 O   0  0  0  0  0  0  0  0  0  0  0  0
  -26.2276  -30.1040   23.7075 O   0  0  0  0  0  0  0  0  0  0  0  0
  -22.4875  -31.6308   22.8288 O   0  0  0  0  0  0  0  0  0  0  0  0
  -21.1243  -27.3721   21.2396 O   0  0  0  0  0  0  0  0  0  0  0  0
  -29.7514  -17.0330   22.2013 O   0  0  0  0  0  0  0  0  0  0  0  0
  -28.9005  -21.8981   17.3564 O   0  0  0  0  0  0  0  0  0  0  0  0
  -20.6520   -8.8899   20.9310 O   0  0  0  0  0  0  0  0  0  0  0  0
  -27.5248  -25.4708   19.8816 O   0  0  0  0  0  0  0  0  0  1  0  0
  -19.0827   -3.8972   22.6671 F   0  0  0  0  0  0  0  0  0  0  0  0
  -18.7723   -8.6126   22.9391 F   0  0  0  0  0  0  0  0  0  0  0  0
  -29.3895  -18.0332   17.0697 S   0  0  0  0  0  0  0  0  0  0  0  0
  1  2  1  0  0  0  0
  1  5  2  0  0  0  0
  2  6  2  0  0  0  0
  3  8  2  0  0  0  0
  3 16  1  0  0  0  0
  4  9  1  0  0  0  0
  4 16  2  0  0  0  0
  5 18  1  0  0  0  0
  6 20  1  0  0  0  0
  7 10  2  0  0  0  0
  7 19  1  0  0  0  0
  8 22  1  0  0  0  0
  9 22  2  0  0  0  0
 10 23  1  0  0  0  0
 11 12  2  0  0  0  0
 11 24  1  0  0  0  0
 12 25  1  0  0  0  0
 13 21  1  0  0  0  0
 13 23  2  0  0  0  0
 14 25  2  0  0  0  0
 14 26  1  0  0  0  0
 15 28  2  0  0  0  0
 15 89  1  0  0  0  0
 16 27  1  0  0  0  0
 17 27  1  0  0  0  0
 17 29  2  0  0  0  0
 17 31  1  0  0  0  0
 18 20  2  0  0  0  0
 18 36  1  0  0  0  0
 19 21  2  0  0  0  0
 19 37  1  0  0  0  0
 20 45  1  0  0  0  0
 21 38  1  0  0  0  0
 22 85  1  0  0  0  0
 23 86  1  0  0  0  0
 24 26  2  0  0  0  0
 24 85  1  0  0  0  0
 25 87  1  0  0  0  0
 26 88  1  0  0  0  0
 27 68  2  0  0  0  0
 28 69  1  0  0  0  0
 28 75  1  0  0  0  0
 29 70  1  0  0  0  0
 29 73  1  0  0  0  0
 30 61  1  0  0  0  0
 30 69  2  0  0  0  0
 30 89  1  0  0  0  0
 31 74  1  0  0  0  0
 31 79  2  0  0  0  0
 32 46  1  0  0  0  0
 32 76  1  0  0  0  0
 32 80  2  0  0  0  0
 33 62  1  0  0  0  0
 33 71  1  0  0  0  0
 33 81  2  0  0  0  0
 34 63  1  0  0  0  0
 34 77  1  0  0  0  0
 34 82  2  0  0  0  0
 35 72  1  0  0  0  0
 35 75  1  0  0  0  0
 35 83  2  0  0  0  0
 36 39  1  0  0  0  0
 37 46  1  0  0  0  0
 38 71  1  0  0  0  0
 39 41  1  0  0  0  0
 40 42  1  0  0  0  0
 40 43  1  0  0  0  0
 41 45  1  0  0  0  0
 42 47  1  0  0  0  0
 43 72  1  0  0  0  0
 44 47  1  0  0  0  0
 44 72  1  0  0  0  0
 45 76  1  0  0  0  0
 46 71  1  0  0  0  0
 47 70  1  0  0  0  0
 48 56  1  0  0  0  0
 49 63  1  0  0  0  0
 50 64  1  0  0  0  0
 51 65  1  0  0  0  0
 52 67  1  0  0  0  0
 53 67  1  0  0  0  0
 54 67  1  0  0  0  0
 55 78  1  0  0  0  0
 56 64  1  0  0  0  0
 57 61  1  0  0  0  0
 57 64  1  0  0  0  0
 58 61  1  0  0  0  0
 58 66  1  0  0  0  0
 59 65  1  0  0  0  0
 59 66  1  0  0  0  0
 60 65  1  0  0  0  0
 60 86  1  0  0  0  0
 62 67  1  0  0  0  0
 62 77  1  0  0  0  0
 63 78  1  0  0  0  0
 66 84  1  0  0  0  0
 68 70  1  0  0  0  0
M  CHG  1  78   1
M  ISO  4  35 100  60 101  75 100  86 101
M  END
> <Batch ID>
0191

> <Smiles>
CCC(C)CC(CC(O)CC(C)[101CH2:1][101O:1]c1ccc2c(c1)CN(C(=O)C(NC(=O)C(C)NC)C(C)(C)C)C(C(=O)NC1CCCc3ccccc31)C2)c1nc([100NH:0][100C:0](=O)N2CCCC(n3nc(-c4ccc(Oc5ccc(F)cc5F)cc4)c(C(N)=O)c3N)C2)cs1

> <Shape>
0.238

> <Color>
0.066

> <Negative vol penalty>
0.000

$$$$

  -OEChem-04052305243D

 91 99  0     1  0  0  0  0  0999 V2000
  -14.1620  -28.4761   23.4931 C   0  0  0  0  0  0  0  0  0  0  0  0
  -14.8042  -27.3191   23.0636 C   0  0  0  0  0  0  0  0  0  0  0  0
  -27.4041  -25.1208   18.6257 C   0  0  0  0  0  0  0  0  0  0  0  0
  -27.8532  -24.6464   20.9517 C   0  0  0  0  0  0  0  0  0  0  0  0
  -14.9057  -29.6215   23.7739 C   0  0  0  0  0  0  0  0  0  0  0  0
  -16.1905  -27.3073   22.9137 C   0  0  0  0  0  0  0  0  0  0  0  0
  -19.9669  -22.6017   23.9635 C   0  0  0  0  0  0  0  0  0  0  0  0
  -26.5088  -26.1217   19.0027 C   0  0  0  0  0  0  0  0  0  0  0  0
  -26.9580  -25.6474   21.3287 C   0  0  0  0  0  0  0  0  0  0  0  0
  -20.5582  -21.6662   23.1155 C   0  0  0  0  0  0  0  0  0  0  0  0
  -23.3261  -26.3238   20.1223 C   0  0  0  0  0  0  0  0  0  0  0  0
  -22.0978  -26.3755   19.4633 C   0  0  0  0  0  0  0  0  0  0  0  0
  -22.5563  -23.0151   23.0307 C   0  0  0  0  0  0  0  0  0  0  0  0
  -22.6036  -28.6099   18.6961 C   0  0  0  0  0  0  0  0  0  0  0  0
  -28.0763  -24.3830   19.6002 C   0  0  0  0  0  0  0  0  0  0  0  0
  -30.3813  -23.4876   18.9734 C   0  0  0  0  0  0  0  0  0  0  0  0
  -16.3028  -29.6208   23.6366 C   0  0  0  0  0  0  0  0  0  0  0  0
  -20.6630  -23.7582   24.3434 C   0  0  0  0  0  0  0  0  0  0  0  0
  -16.9535  -28.4541   23.1917 C   0  0  0  0  0  0  0  0  0  0  0  0
  -21.9726  -23.9624   23.8857 C   0  0  0  0  0  0  0  0  0  0  0  0
  -23.9043  -12.6376   20.7540 C   0  0  0  0  0  0  0  0  0  0  0  0
  -26.2858  -26.3851   20.3542 C   0  0  0  0  0  0  0  0  0  0  0  0
  -21.8520  -21.8743   22.6466 C   0  0  0  0  0  0  0  0  0  0  0  0
  -24.1931  -27.4152   20.0683 C   0  0  0  0  0  0  0  0  0  0  0  0
  -21.7366  -27.5185   18.7501 C   0  0  0  0  0  0  0  0  0  0  0  0
  -23.8318  -28.5582   19.3551 C   0  0  0  0  0  0  0  0  0  0  0  0
  -29.0007  -23.3485   19.2114 C   0  0  0  0  0  0  0  0  0  0  0  0
  -24.7888  -11.6335   20.4164 C   0  0  0  0  0  0  0  0  0  0  0  0
  -24.4705  -13.8682   21.0175 C   0  0  0  0  0  0  0  0  0  0  0  0
  -30.8005  -22.2240   18.6356 C   0  0  0  0  0  0  0  0  0  0  0  0
  -26.5539  -13.0514   20.6185 C   0  0  0  0  0  0  0  0  0  0  0  0
  -31.2105  -24.6546   19.0509 C   0  0  0  0  0  0  0  0  0  0  0  0
  -20.2084  -26.8798   23.9533 C   0  0  0  0  0  0  0  0  0  0  0  0
  -28.5608  -16.8900   19.9800 C   0  0  0  0  0  0  0  0  0  0  0  0
  -22.7865  -27.1044   25.9090 C   0  0  0  0  0  0  0  0  0  0  0  0
  -25.6091  -25.6505   27.1604 C   0  0  0  0  0  0  0  0  0  0  0  0
  -17.0594  -30.8972   23.9066 C   0  0  0  0  0  0  0  0  0  0  0  0
  -20.0210  -24.7444   25.2802 C   0  0  0  0  0  0  0  0  0  0  0  0
  -22.7700  -25.1777   24.2803 C   0  0  0  0  0  0  0  0  0  0  0  0
  -18.5615  -30.6894   24.0818 C   0  0  0  0  0  0  0  0  0  0  0  0
  -29.2558  -18.1648   16.6455 C   0  0  0  0  0  0  0  0  0  0  0  0
  -19.1068  -29.7828   22.9830 C   0  0  0  0  0  0  0  0  0  0  0  0
  -29.3667  -19.6659   16.9092 C   0  0  0  0  0  0  0  0  0  0  0  0
  -28.2054  -17.5136   17.5415 C   0  0  0  0  0  0  0  0  0  0  0  0
  -28.5332  -19.2586   19.2655 C   0  0  0  0  0  0  0  0  0  0  0  0
  -18.4581  -28.3945   23.0407 C   0  0  1  0  0  0  0  0  0  0  0  0
  -20.6322  -26.1392   25.1900 C   0  0  1  0  0  0  0  0  0  0  0  0
  -29.6038  -19.9478   18.4031 C   0  0  2  0  0  0  0  0  0  0  0  0
  -22.4366  -12.3985   20.8264 C   0  0  0  0  0  0  0  0  0  0  0  0
  -24.8296   -9.2070   21.0977 C   0  0  0  0  0  0  0  0  0  0  0  0
  -24.6077   -9.8297   18.6650 C   0  0  0  0  0  0  0  0  0  0  0  0
  -27.5318  -26.0938   28.7109 C   0  0  0  0  0  0  0  0  0  0  0  0
  -30.0128  -14.3243   21.1826 C   0  0  0  0  0  0  0  0  0  0  0  0
  -24.0804  -28.8811   23.7927 C   0  0  0  0  0  0  0  0  0  0  0  0
  -26.2818  -28.5081   24.9254 C   0  0  0  0  0  0  0  0  0  0  0  0
  -24.4280  -29.6433   26.1491 C   0  0  0  0  0  0  0  0  0  0  0  0
  -24.8526  -23.4012   28.9288 C   0  0  0  0  0  0  0  0  0  0  0  0
  -28.4173  -15.4407   19.5890 C   0  0  0  0  0  0  0  0  0  0  0  0
  -24.0093  -16.3085   21.2574 C   0  0  0  0  0  0  0  0  0  0  0  0
  -22.0293  -19.6021   21.9672 C   0  0  0  0  0  0  0  0  0  1  0  0
  -24.2926  -10.2587   20.1097 C   0  0  0  0  0  0  0  0  0  0  0  0
  -24.2814  -27.1586   25.7054 C   0  0  1  0  0  0  0  0  0  0  0  0
  -26.1299  -25.5192   28.5803 C   0  0  2  0  0  0  0  0  0  0  0  0
  -28.5483  -14.5378   20.8152 C   0  0  1  0  0  0  0  0  0  0  0  0
  -22.8434  -17.2068   21.6868 C   0  0  2  0  0  0  0  0  0  0  0  0
  -23.2025  -18.6972   21.5895 C   0  0  1  0  0  0  0  0  0  0  0  0
  -24.7524  -28.5258   25.1340 C   0  0  0  0  0  0  0  0  0  0  0  0
  -28.5715  -22.0954   19.0392 N   0  0  0  0  0  0  0  0  0  0  0  0
  -26.1246  -11.8060   20.3389 N   0  0  0  0  0  0  0  0  0  0  0  0
  -25.7963  -14.1114   20.9591 N   0  0  0  0  0  0  0  0  0  0  0  0
  -29.6888  -21.4357   18.6894 N   0  0  0  0  0  0  0  0  0  0  0  0
  -22.0964  -26.1160   25.1931 N   0  0  0  0  0  0  0  0  0  0  0  0
  -28.4507  -17.8287   18.9539 N   0  0  0  0  0  0  0  0  0  0  0  0
  -32.0079  -21.7215   18.3008 N   0  0  0  0  0  0  0  0  0  0  0  0
  -30.6183  -25.8723   19.4128 N   0  0  0  0  0  0  0  0  0  0  0  0
  -23.6336  -14.9155   21.3619 N   0  0  0  0  0  0  0  0  0  0  0  0
  -27.9471  -13.2691   20.5471 N   0  0  0  0  0  0  0  0  0  0  0  0
  -19.0432  -27.6070   24.1046 N   0  0  0  0  0  0  0  0  0  0  0  0
  -24.8811  -26.8088   26.9885 N   0  0  0  0  0  0  0  0  0  0  0  0
  -26.1697  -24.0860   28.9869 N   0  3  0  0  0  0  0  0  0  0  0  0
  -32.4372  -24.6220   18.7904 O   0  0  0  0  0  0  0  0  0  0  0  0
  -20.8889  -26.7987   22.9374 O   0  0  0  0  0  0  0  0  0  0  0  0
  -28.7674  -17.1770   21.1620 O   0  0  0  0  0  0  0  0  0  0  0  0
  -22.2519  -27.9047   26.6806 O   0  0  0  0  0  0  0  0  0  0  0  0
  -25.8295  -24.8115   26.2898 O   0  0  0  0  0  0  0  0  0  0  0  0
  -22.5071  -16.9120   23.0419 O   0  0  0  0  0  0  0  0  0  0  0  0
  -23.5863  -18.9936   20.2467 O   0  0  0  0  0  0  0  0  0  0  0  0
  -25.4125  -27.3620   20.7224 O   0  0  0  0  0  0  0  0  0  0  0  0
  -22.4313  -20.9632   21.8183 O   0  0  0  0  0  0  0  0  0  1  0  0
  -20.5577  -27.5675   18.1161 F   0  0  0  0  0  0  0  0  0  0  0  0
  -24.6611  -29.6094   19.2987 F   0  0  0  0  0  0  0  0  0  0  0  0
  1  2  1  0  0  0  0
  1  5  2  0  0  0  0
  2  6  2  0  0  0  0
  3  8  2  0  0  0  0
  3 15  1  0  0  0  0
  4  9  1  0  0  0  0
  4 15  2  0  0  0  0
  5 17  1  0  0  0  0
  6 19  1  0  0  0  0
  7 10  2  0  0  0  0
  7 18  1  0  0  0  0
  8 22  1  0  0  0  0
  9 22  2  0  0  0  0
 10 23  1  0  0  0  0
 11 12  2  0  0  0  0
 11 24  1  0  0  0  0
 12 25  1  0  0  0  0
 13 20  1  0  0  0  0
 13 23  2  0  0  0  0
 14 25  2  0  0  0  0
 14 26  1  0  0  0  0
 15 27  1  0  0  0  0
 16 27  1  0  0  0  0
 16 30  2  0  0  0  0
 16 32  1  0  0  0  0
 17 19  2  0  0  0  0
 17 37  1  0  0  0  0
 18 20  2  0  0  0  0
 18 38  1  0  0  0  0
 19 46  1  0  0  0  0
 20 39  1  0  0  0  0
 21 28  1  0  0  0  0
 21 29  2  0  0  0  0
 21 49  1  0  0  0  0
 22 88  1  0  0  0  0
 23 89  1  0  0  0  0
 24 26  2  0  0  0  0
 24 88  1  0  0  0  0
 25 90  1  0  0  0  0
 26 91  1  0  0  0  0
 27 68  2  0  0  0  0
 28 61  1  0  0  0  0
 28 69  2  0  0  0  0
 29 70  1  0  0  0  0
 29 76  1  0  0  0  0
 30 71  1  0  0  0  0
 30 74  1  0  0  0  0
 31 69  1  0  0  0  0
 31 70  2  0  0  0  0
 31 77  1  0  0  0  0
 32 75  1  0  0  0  0
 32 81  2  0  0  0  0
 33 47  1  0  0  0  0
 33 78  1  0  0  0  0
 33 82  2  0  0  0  0
 34 58  1  0  0  0  0
 34 73  1  0  0  0  0
 34 83  2  0  0  0  0
 35 62  1  0  0  0  0
 35 72  1  0  0  0  0
 35 84  2  0  0  0  0
 36 63  1  0  0  0  0
 36 79  1  0  0  0  0
 36 85  2  0  0  0  0
 37 40  1  0  0  0  0
 38 47  1  0  0  0  0
 39 72  1  0  0  0  0
 40 42  1  0  0  0  0
 41 43  1  0  0  0  0
 41 44  1  0  0  0  0
 42 46  1  0  0  0  0
 43 48  1  0  0  0  0
 44 73  1  0  0  0  0
 45 48  1  0  0  0  0
 45 73  1  0  0  0  0
 46 78  1  0  0  0  0
 47 72  1  0  0  0  0
 48 71  1  0  0  0  0
 50 61  1  0  0  0  0
 51 61  1  0  0  0  0
 52 63  1  0  0  0  0
 53 64  1  0  0  0  0
 54 67  1  0  0  0  0
 55 67  1  0  0  0  0
 56 67  1  0  0  0  0
 57 80  1  0  0  0  0
 58 64  1  0  0  0  0
 59 65  1  0  0  0  0
 59 76  1  0  0  0  0
 60 66  1  0  0  0  0
 60 89  1  0  0  0  0
 62 67  1  0  0  0  0
 62 79  1  0  0  0  0
 63 80  1  0  0  0  0
 64 77  1  0  0  0  0
 65 66  1  0  0  0  0
 65 86  1  0  0  0  0
 66 87  1  0  0  0  0
 68 71  1  0  0  0  0
M  CHG  1  80   1
M  ISO  4  34 100  58 100  60 101  89 101
M  END
> <Batch ID>
0191

> <Smiles>
CNC(C)C(=O)NC(C(=O)N1Cc2cc([101O:1][101CH2:1]C(O)C(O)CNc3nc(NC(C)[100CH2:0][100C:0](=O)N4CCCC(n5nc(-c6ccc(Oc7ccc(F)cc7F)cc6)c(C(N)=O)c5N)C4)nc(C(C)C)c3C)ccc2CC1C(=O)NC1CCCc2ccccc21)C(C)(C)C

> <Shape>
0.229

> <Color>
0.058

> <Negative vol penalty>
0.000

$$$$

  -OEChem-04052305243D

 87 95  0     1  0  0  0  0  0999 V2000
  -18.1979  -27.6373   18.9364 C   0  0  0  0  0  0  0  0  0  0  0  0
  -19.5063  -28.0807   18.7726 C   0  0  0  0  0  0  0  0  0  0  0  0
  -25.6534  -13.5307   21.6542 C   0  0  0  0  0  0  0  0  0  0  0  0
  -27.0485  -13.1139   19.7263 C   0  0  0  0  0  0  0  0  0  0  0  0
  -17.6740  -27.4731   20.2180 C   0  0  0  0  0  0  0  0  0  0  0  0
  -20.2913  -28.3612   19.8905 C   0  0  0  0  0  0  0  0  0  0  0  0
  -24.9746  -26.4750   19.4984 C   0  0  0  0  0  0  0  0  0  0  0  0
  -24.7154  -12.6174   21.1730 C   0  0  0  0  0  0  0  0  0  0  0  0
  -26.1106  -12.2004   19.2451 C   0  0  0  0  0  0  0  0  0  0  0  0
  -25.8774  -27.1736   18.6980 C   0  0  0  0  0  0  0  0  0  0  0  0
  -24.3373   -9.2591   21.0641 C   0  0  0  0  0  0  0  0  0  0  0  0
  -23.8031   -8.3413   21.9684 C   0  0  0  0  0  0  0  0  0  0  0  0
  -26.8433  -28.1726   20.6700 C   0  0  0  0  0  0  0  0  0  0  0  0
  -21.5887   -9.2064   21.5382 C   0  0  0  0  0  0  0  0  0  0  0  0
  -26.8199  -13.7791   20.9308 C   0  0  0  0  0  0  0  0  0  0  0  0
  -28.8804  -14.4544   22.2747 C   0  0  0  0  0  0  0  0  0  0  0  0
  -18.4561  -27.7424   21.3522 C   0  0  0  0  0  0  0  0  0  0  0  0
  -24.9922  -26.6286   20.8921 C   0  0  0  0  0  0  0  0  0  0  0  0
  -19.7769  -28.2017   21.1884 C   0  0  0  0  0  0  0  0  0  0  0  0
  -25.9412  -27.4728   21.4860 C   0  0  0  0  0  0  0  0  0  0  0  0
  -24.9440  -11.9522   19.9685 C   0  0  0  0  0  0  0  0  0  0  0  0
  -26.8101  -28.0248   19.2836 C   0  0  0  0  0  0  0  0  0  0  0  0
  -23.4973  -10.1506   20.3968 C   0  0  0  0  0  0  0  0  0  0  0  0
  -22.4288   -8.3150   22.2055 C   0  0  0  0  0  0  0  0  0  0  0  0
  -22.1230  -10.1243   20.6339 C   0  0  0  0  0  0  0  0  0  0  0  0
  -27.7889  -14.7229   21.4271 C   0  0  0  0  0  0  0  0  0  0  0  0
  -31.2353  -23.9864   15.7410 C   0  0  0  0  0  0  0  0  0  0  0  0
  -30.8800  -24.6083   16.9104 C   0  0  0  0  0  0  0  0  0  0  0  0
  -29.4876  -15.6740   22.4494 C   0  0  0  0  0  0  0  0  0  0  0  0
  -30.2208  -22.6118   17.7346 C   0  0  0  0  0  0  0  0  0  0  0  0
  -29.3072  -13.2136   22.8525 C   0  0  0  0  0  0  0  0  0  0  0  0
  -31.8028  -24.6851   14.6003 C   0  0  0  0  0  0  0  0  0  0  0  0
  -22.9231  -27.6926   23.0579 C   0  0  0  0  0  0  0  0  0  0  0  0
  -25.1841  -26.6735   25.1488 C   0  0  0  0  0  0  0  0  0  0  0  0
  -28.4619  -25.9251   25.7343 C   0  0  0  0  0  0  0  0  0  0  0  0
  -29.4399  -20.4677   18.8198 C   0  0  0  0  0  0  0  0  0  0  0  0
  -17.8308  -27.5953   22.7168 C   0  0  0  0  0  0  0  0  0  0  0  0
  -24.0291  -25.8474   21.7434 C   0  0  0  0  0  0  0  0  0  0  0  0
  -26.0149  -27.6570   22.9790 C   0  0  0  0  0  0  0  0  0  0  0  0
  -18.8499  -27.5558   23.8526 C   0  0  0  0  0  0  0  0  0  0  0  0
  -27.7357  -20.1800   22.2457 C   0  0  0  0  0  0  0  0  0  0  0  0
  -19.8825  -28.6655   23.6823 C   0  0  0  0  0  0  0  0  0  0  0  0
  -28.3350  -18.8569   22.7166 C   0  0  0  0  0  0  0  0  0  0  0  0
  -28.6005  -20.8640   21.1944 C   0  0  0  0  0  0  0  0  0  0  0  0
  -28.5909  -18.5734   20.1899 C   0  0  0  0  0  0  0  0  0  0  0  0
  -20.6678  -28.4927   22.3766 C   0  0  1  0  0  0  0  0  0  0  0  0
  -23.8003  -26.4740   23.1154 C   0  0  1  0  0  0  0  0  0  0  0  0
  -28.9965  -18.0549   21.5784 C   0  0  2  0  0  0  0  0  0  0  0  0
  -32.7458  -23.9207   13.7163 C   0  0  0  0  0  0  0  0  0  0  0  0
  -30.0123  -25.1538   27.5505 C   0  0  0  0  0  0  0  0  0  0  0  0
  -31.8055  -26.4937   19.2737 C   0  0  0  0  0  0  0  0  0  0  0  0
  -25.1179  -29.4618   26.3861 C   0  0  0  0  0  0  0  0  0  0  0  0
  -27.2898  -28.9364   27.5153 C   0  0  0  0  0  0  0  0  0  0  0  0
  -25.2561  -27.5901   28.0389 C   0  0  0  0  0  0  0  0  0  0  0  0
  -29.1939  -23.4826   24.2319 C   0  0  0  0  0  0  0  0  0  0  0  0
  -30.5898  -28.2150   17.8933 C   0  0  0  0  0  0  0  0  0  0  0  0
  -28.0857  -28.0953   17.2776 C   0  0  0  0  0  0  0  0  0  1  0  0
  -26.3951  -27.2956   25.8011 C   0  0  1  0  0  0  0  0  0  0  0  0
  -29.1189  -24.7273   26.3961 C   0  0  2  0  0  0  0  0  0  0  0  0
  -30.7210  -26.7231   18.2250 C   0  0  1  0  0  0  0  0  0  0  0  0
  -29.4859  -28.5551   16.8786 C   0  0  1  0  0  0  0  0  0  0  0  0
  -26.0123  -28.3192   26.9071 C   0  0  0  0  0  0  0  0  0  0  0  0
  -27.7050  -16.0118   21.0870 N   0  0  0  0  0  0  0  0  0  0  0  0
  -31.0722  -22.6597   15.5886 N   0  0  0  0  0  0  0  0  0  0  0  0
  -30.3598  -23.9294   17.9441 N   0  0  0  0  0  0  0  0  0  0  0  0
  -30.5512  -21.9478   16.6095 N   0  0  0  0  0  0  0  0  0  0  0  0
  -28.7514  -16.5642   21.7243 N   0  0  0  0  0  0  0  0  0  0  0  0
  -25.0478  -26.8763   23.7682 N   0  0  0  0  0  0  0  0  0  0  0  0
  -28.9025  -19.9999   20.0439 N   0  0  0  0  0  0  0  0  0  0  0  0
  -30.5740  -16.0610   23.1510 N   0  0  0  0  0  0  0  0  0  0  0  0
  -28.5693  -12.0561   22.5697 N   0  0  0  0  0  0  0  0  0  0  0  0
  -31.0631  -25.9741   17.0343 N   0  0  0  0  0  0  0  0  0  0  0  0
  -29.6795  -21.8442   18.7961 N   0  0  0  0  0  0  0  0  0  0  0  0
  -21.6706  -27.4595   22.5229 N   0  0  0  0  0  0  0  0  0  0  0  0
  -27.2195  -26.1878   26.2717 N   0  0  0  0  0  0  0  0  0  0  0  0
  -29.9501  -23.9815   25.4093 N   0  3  0  0  0  0  0  0  0  0  0  0
  -30.3036  -13.1365   23.6106 O   0  0  0  0  0  0  0  0  0  0  0  0
  -31.5731  -25.8604   14.3045 O   0  0  0  0  0  0  0  0  0  0  0  0
  -23.3506  -28.7647   23.4699 O   0  0  0  0  0  0  0  0  0  0  0  0
  -24.3922  -26.0253   25.8375 O   0  0  0  0  0  0  0  0  0  0  0  0
  -28.9988  -26.5660   24.8335 O   0  0  0  0  0  0  0  0  0  0  0  0
  -29.6767  -19.7032   17.8820 O   0  0  0  0  0  0  0  0  0  0  0  0
  -29.4451  -29.9762   16.7209 O   0  0  0  0  0  0  0  0  0  0  0  0
  -24.0291  -11.0607   19.4987 O   0  0  0  0  0  0  0  0  0  0  0  0
  -27.6920  -28.7084   18.5046 O   0  0  0  0  0  0  0  0  0  1  0  0
  -21.9157   -7.4325   23.0728 F   0  0  0  0  0  0  0  0  0  0  0  0
  -21.3108  -10.9775   19.9950 F   0  0  0  0  0  0  0  0  0  0  0  0
  1  2  1  0  0  0  0
  1  5  2  0  0  0  0
  2  6  2  0  0  0  0
  3  8  2  0  0  0  0
  3 15  1  0  0  0  0
  4  9  1  0  0  0  0
  4 15  2  0  0  0  0
  5 17  1  0  0  0  0
  6 19  1  0  0  0  0
  7 10  2  0  0  0  0
  7 18  1  0  0  0  0
  8 21  1  0  0  0  0
  9 21  2  0  0  0  0
 10 22  1  0  0  0  0
 11 12  2  0  0  0  0
 11 23  1  0  0  0  0
 12 24  1  0  0  0  0
 13 20  1  0  0  0  0
 13 22  2  0  0  0  0
 14 24  2  0  0  0  0
 14 25  1  0  0  0  0
 15 26  1  0  0  0  0
 16 26  1  0  0  0  0
 16 29  2  0  0  0  0
 16 31  1  0  0  0  0
 17 19  2  0  0  0  0
 17 37  1  0  0  0  0
 18 20  2  0  0  0  0
 18 38  1  0  0  0  0
 19 46  1  0  0  0  0
 20 39  1  0  0  0  0
 21 84  1  0  0  0  0
 22 85  1  0  0  0  0
 23 25  2  0  0  0  0
 23 84  1  0  0  0  0
 24 86  1  0  0  0  0
 25 87  1  0  0  0  0
 26 63  2  0  0  0  0
 27 28  2  0  0  0  0
 27 32  1  0  0  0  0
 27 64  1  0  0  0  0
 28 65  1  0  0  0  0
 28 72  1  0  0  0  0
 29 67  1  0  0  0  0
 29 70  1  0  0  0  0
 30 65  2  0  0  0  0
 30 66  1  0  0  0  0
 30 73  1  0  0  0  0
 31 71  1  0  0  0  0
 31 77  2  0  0  0  0
 32 49  1  0  0  0  0
 32 78  2  0  0  0  0
 33 47  1  0  0  0  0
 33 74  1  0  0  0  0
 33 79  2  0  0  0  0
 34 58  1  0  0  0  0
 34 68  1  0  0  0  0
 34 80  2  0  0  0  0
 35 59  1  0  0  0  0
 35 75  1  0  0  0  0
 35 81  2  0  0  0  0
 36 69  1  0  0  0  0
 36 73  1  0  0  0  0
 36 82  2  0  0  0  0
 37 40  1  0  0  0  0
 38 47  1  0  0  0  0
 39 68  1  0  0  0  0
 40 42  1  0  0  0  0
 41 43  1  0  0  0  0
 41 44  1  0  0  0  0
 42 46  1  0  0  0  0
 43 48  1  0  0  0  0
 44 69  1  0  0  0  0
 45 48  1  0  0  0  0
 45 69  1  0  0  0  0
 46 74  1  0  0  0  0
 47 68  1  0  0  0  0
 48 67  1  0  0  0  0
 50 59  1  0  0  0  0
 51 60  1  0  0  0  0
 52 62  1  0  0  0  0
 53 62  1  0  0  0  0
 54 62  1  0  0  0  0
 55 76  1  0  0  0  0
 56 60  1  0  0  0  0
 56 61  1  0  0  0  0
 57 61  1  0  0  0  0
 57 85  1  0  0  0  0
 58 62  1  0  0  0  0
 58 75  1  0  0  0  0
 59 76  1  0  0  0  0
 60 72  1  0  0  0  0
 61 83  1  0  0  0  0
 63 67  1  0  0  0  0
 64 66  2  0  0  0  0
M  CHG  1  76   1
M  ISO  4  36 100  57 101  73 100  85 101
M  END
> <Batch ID>
0191

> <Smiles>
CNC(C)C(=O)NC(C(=O)N1Cc2cc([101O:1][101CH2:1]C(O)CC(C)Nc3nc([100NH:0][100C:0](=O)N4CCCC(n5nc(-c6ccc(Oc7ccc(F)cc7F)cc6)c(C(N)=O)c5N)C4)nnc3C(C)=O)ccc2CC1C(=O)NC1CCCc2ccccc21)C(C)(C)C

> <Shape>
0.236

> <Color>
0.067

> <Negative vol penalty>
0.000

$$$$

  -OEChem-04052305243D

 87 95  0     1  0  0  0  0  0999 V2000
  -27.9505  -32.8856   15.7791 C   0  0  0  0  0  0  0  0  0  0  0  0
  -28.2828  -32.2195   16.9544 C   0  0  0  0  0  0  0  0  0  0  0  0
  -23.0760   -9.8664   19.9399 C   0  0  0  0  0  0  0  0  0  0  0  0
  -23.8351   -9.8730   22.2335 C   0  0  0  0  0  0  0  0  0  0  0  0
  -27.8424  -32.1760   14.5838 C   0  0  0  0  0  0  0  0  0  0  0  0
  -28.5061  -30.8432   16.9353 C   0  0  0  0  0  0  0  0  0  0  0  0
  -32.5243  -27.7179   20.3400 C   0  0  0  0  0  0  0  0  0  0  0  0
  -22.3325   -8.7129   20.1893 C   0  0  0  0  0  0  0  0  0  0  0  0
  -23.0915   -8.7195   22.4829 C   0  0  0  0  0  0  0  0  0  0  0  0
  -32.3853  -26.9829   21.5166 C   0  0  0  0  0  0  0  0  0  0  0  0
  -21.1071   -5.9814   23.8181 C   0  0  0  0  0  0  0  0  0  0  0  0
  -20.3505   -5.9372   24.9891 C   0  0  0  0  0  0  0  0  0  0  0  0
  -32.1844  -24.9581   20.2208 C   0  0  0  0  0  0  0  0  0  0  0  0
  -19.1055   -7.8742   24.2576 C   0  0  0  0  0  0  0  0  0  0  0  0
  -31.7851  -17.5797   21.7301 C   0  0  0  0  0  0  0  0  0  0  0  0
  -23.8274  -10.4464   20.9620 C   0  0  0  0  0  0  0  0  0  0  0  0
  -24.1684  -12.9717   20.8427 C   0  0  0  0  0  0  0  0  0  0  0  0
  -28.0740  -30.7919   14.5482 C   0  0  0  0  0  0  0  0  0  0  0  0
  -32.4834  -27.0788   19.0925 C   0  0  0  0  0  0  0  0  0  0  0  0
  -28.3997  -30.1143   15.7386 C   0  0  0  0  0  0  0  0  0  0  0  0
  -32.3257  -25.6869   19.0301 C   0  0  0  0  0  0  0  0  0  0  0  0
  -22.3402   -8.1395   21.4608 C   0  0  0  0  0  0  0  0  0  0  0  0
  -32.2124  -25.6032   21.4570 C   0  0  0  0  0  0  0  0  0  0  0  0
  -20.8630   -6.9720   22.8669 C   0  0  0  0  0  0  0  0  0  0  0  0
  -19.3496   -6.8836   25.2088 C   0  0  0  0  0  0  0  0  0  0  0  0
  -19.8622   -7.9184   23.0867 C   0  0  0  0  0  0  0  0  0  0  0  0
  -24.5962  -11.6376   20.7048 C   0  0  0  0  0  0  0  0  0  0  0  0
  -25.2604  -13.7217   20.4800 C   0  0  0  0  0  0  0  0  0  0  0  0
  -30.5823  -16.9363   21.9331 C   0  0  0  0  0  0  0  0  0  0  0  0
  -30.8240  -19.0751   23.0147 C   0  0  0  0  0  0  0  0  0  0  0  0
  -22.8976  -13.4870   21.2614 C   0  0  0  0  0  0  0  0  0  0  0  0
  -30.5888  -27.2491   16.5459 C   0  0  0  0  0  0  0  0  0  0  0  0
  -32.7887  -25.2421   15.2596 C   0  0  0  0  0  0  0  0  0  0  0  0
  -35.2304  -22.9120   15.7650 C   0  0  0  0  0  0  0  0  0  0  0  0
  -30.7262  -14.7690   20.6569 C   0  0  0  0  0  0  0  0  0  0  0  0
  -27.8991  -30.0600   13.2411 C   0  0  0  0  0  0  0  0  0  0  0  0
  -32.6616  -27.8825   17.8337 C   0  0  0  0  0  0  0  0  0  0  0  0
  -32.2952  -24.9504   17.7166 C   0  0  0  0  0  0  0  0  0  0  0  0
  -28.5186  -28.6649   13.2366 C   0  0  0  0  0  0  0  0  0  0  0  0
  -29.6134  -12.3556   18.2875 C   0  0  0  0  0  0  0  0  0  0  0  0
  -28.1416  -27.9092   14.5069 C   0  0  0  0  0  0  0  0  0  0  0  0
  -28.1737  -12.0634   18.7165 C   0  0  0  0  0  0  0  0  0  0  0  0
  -30.5280  -12.5843   19.4895 C   0  0  0  0  0  0  0  0  0  0  0  0
  -28.6204  -13.3077   20.8704 C   0  0  0  0  0  0  0  0  0  0  0  0
  -28.6738  -28.6261   15.7537 C   0  0  1  0  0  0  0  0  0  0  0  0
  -32.0894  -27.1933   16.5988 C   0  0  1  0  0  0  0  0  0  0  0  0
  -27.6480  -13.1345   19.6922 C   0  0  2  0  0  0  0  0  0  0  0  0
  -27.5831  -23.9789   25.9905 C   0  0  0  0  0  0  0  0  0  0  0  0
  -36.8211  -21.4235   14.5194 C   0  0  0  0  0  0  0  0  0  0  0  0
  -30.4871  -23.3597   14.5748 C   0  0  0  0  0  0  0  0  0  0  0  0
  -32.1713  -21.5406   14.2240 C   0  0  0  0  0  0  0  0  0  0  0  0
  -32.2223  -23.5792   12.7873 C   0  0  0  0  0  0  0  0  0  0  0  0
  -28.0619  -23.7602   22.1201 C   0  0  0  0  0  0  0  0  0  0  0  0
  -26.9300  -22.1016   23.5883 C   0  0  0  0  0  0  0  0  0  0  0  0
  -37.5896  -24.2131   16.9900 C   0  0  0  0  0  0  0  0  0  0  0  0
  -30.5989  -20.3232   23.8163 C   0  0  0  0  0  0  0  0  0  0  0  0
  -27.6575  -24.3347   24.5103 C   0  0  0  0  0  0  0  0  0  0  0  0
  -31.2845  -23.6948   22.5308 C   0  0  0  0  0  0  0  0  0  1  0  0
  -32.9628  -23.7438   15.1991 C   0  0  1  0  0  0  0  0  0  0  0  0
  -36.6278  -22.7758   15.1878 C   0  0  2  0  0  0  0  0  0  0  0  0
  -29.4218  -22.5219   23.9544 C   0  0  1  0  0  0  0  0  0  0  0  0
  -30.6766  -23.4250   23.9085 C   0  0  1  0  0  0  0  0  0  0  0  0
  -31.9595  -23.0697   14.2212 C   0  0  0  0  0  0  0  0  0  0  0  0
  -28.0515  -23.1703   23.5462 C   0  0  0  0  0  0  0  0  0  0  0  0
  -31.9254  -18.8065   22.3491 N   0  0  0  0  0  0  0  0  0  0  0  0
  -25.8612  -11.5423   20.2869 N   0  0  0  0  0  0  0  0  0  0  0  0
  -26.2377  -12.8261   20.1591 N   0  0  0  0  0  0  0  0  0  0  0  0
  -32.4674  -25.7812   16.5134 N   0  0  0  0  0  0  0  0  0  0  0  0
  -29.9684  -13.6147   20.3671 N   0  0  0  0  0  0  0  0  0  0  0  0
  -25.4704  -15.0532   20.4074 N   0  0  0  0  0  0  0  0  0  0  0  0
  -21.8859  -12.5773   21.5980 N   0  0  0  0  0  0  0  0  0  0  0  0
  -30.0783  -15.6936   21.4754 N   0  0  0  0  0  0  0  0  0  0  0  0
  -30.0895  -28.3733   15.9164 N   0  0  0  0  0  0  0  0  0  0  0  0
  -34.3651  -23.5086   14.8726 N   0  0  0  0  0  0  0  0  0  0  0  0
  -37.6489  -22.9184   16.2639 N   0  3  0  0  0  0  0  0  0  0  0  0
  -29.6908  -21.2857   23.1493 N   0  3  0  0  0  0  0  0  0  0  0  0
  -22.6609  -14.7175   21.3189 O   0  0  0  0  0  0  0  0  0  0  0  0
  -29.9326  -26.3389   17.0385 O   0  0  0  0  0  0  0  0  0  0  0  0
  -32.9396  -25.9104   14.2338 O   0  0  0  0  0  0  0  0  0  0  0  0
  -34.9351  -22.5243   16.8933 O   0  0  0  0  0  0  0  0  0  0  0  0
  -31.8554  -14.9383   20.1897 O   0  0  0  0  0  0  0  0  0  0  0  0
  -31.6884  -22.7675   24.6920 O   0  0  0  0  0  0  0  0  0  0  0  0
  -21.6146   -7.0140   21.7046 O   0  0  0  0  0  0  0  0  0  0  0  0
  -32.0751  -24.8795   22.6102 O   0  0  0  0  0  0  0  0  0  1  0  0
  -18.6221   -6.8401   26.3326 F   0  0  0  0  0  0  0  0  0  0  0  0
  -19.6222   -8.8717   22.1760 F   0  0  0  0  0  0  0  0  0  0  0  0
  -29.5792  -17.8961   22.9401 S   0  0  0  0  0  0  0  0  0  0  0  0
  1  2  1  0  0  0  0
  1  5  2  0  0  0  0
  2  6  2  0  0  0  0
  3  8  2  0  0  0  0
  3 16  1  0  0  0  0
  4  9  1  0  0  0  0
  4 16  2  0  0  0  0
  5 18  1  0  0  0  0
  6 20  1  0  0  0  0
  7 10  2  0  0  0  0
  7 19  1  0  0  0  0
  8 22  1  0  0  0  0
  9 22  2  0  0  0  0
 10 23  1  0  0  0  0
 11 12  2  0  0  0  0
 11 24  1  0  0  0  0
 12 25  1  0  0  0  0
 13 21  1  0  0  0  0
 13 23  2  0  0  0  0
 14 25  2  0  0  0  0
 14 26  1  0  0  0  0
 15 29  2  0  0  0  0
 15 65  1  0  0  0  0
 16 27  1  0  0  0  0
 17 27  1  0  0  0  0
 17 28  2  0  0  0  0
 17 31  1  0  0  0  0
 18 20  2  0  0  0  0
 18 36  1  0  0  0  0
 19 21  2  0  0  0  0
 19 37  1  0  0  0  0
 20 45  1  0  0  0  0
 21 38  1  0  0  0  0
 22 83  1  0  0  0  0
 23 84  1  0  0  0  0
 24 26  2  0  0  0  0
 24 83  1  0  0  0  0
 25 85  1  0  0  0  0
 26 86  1  0  0  0  0
 27 66  2  0  0  0  0
 28 67  1  0  0  0  0
 28 70  1  0  0  0  0
 29 72  1  0  0  0  0
 29 87  1  0  0  0  0
 30 56  1  0  0  0  0
 30 65  2  0  0  0  0
 30 87  1  0  0  0  0
 31 71  1  0  0  0  0
 31 77  2  0  0  0  0
 32 46  1  0  0  0  0
 32 73  1  0  0  0  0
 32 78  2  0  0  0  0
 33 59  1  0  0  0  0
 33 68  1  0  0  0  0
 33 79  2  0  0  0  0
 34 60  1  0  0  0  0
 34 74  1  0  0  0  0
 34 80  2  0  0  0  0
 35 69  1  0  0  0  0
 35 72  1  0  0  0  0
 35 81  2  0  0  0  0
 36 39  1  0  0  0  0
 37 46  1  0  0  0  0
 38 68  1  0  0  0  0
 39 41  1  0  0  0  0
 40 42  1  0  0  0  0
 40 43  1  0  0  0  0
 41 45  1  0  0  0  0
 42 47  1  0  0  0  0
 43 69  1  0  0  0  0
 44 47  1  0  0  0  0
 44 69  1  0  0  0  0
 45 73  1  0  0  0  0
 46 68  1  0  0  0  0
 47 67  1  0  0  0  0
 48 57  1  0  0  0  0
 49 60  1  0  0  0  0
 50 63  1  0  0  0  0
 51 63  1  0  0  0  0
 52 63  1  0  0  0  0
 53 64  1  0  0  0  0
 54 64  1  0  0  0  0
 55 75  1  0  0  0  0
 56 76  1  0  0  0  0
 57 64  1  0  0  0  0
 58 62  1  0  0  0  0
 58 84  1  0  0  0  0
 59 63  1  0  0  0  0
 59 74  1  0  0  0  0
 60 75  1  0  0  0  0
 61 62  1  0  0  0  0
 61 64  1  0  0  0  0
 61 76  1  0  0  0  0
 62 82  1  0  0  0  0
 66 67  1  0  0  0  0
M  CHG  2  75   1  76   1
M  ISO  4  35 100  58 101  72 100  84 101
M  END
> <Batch ID>
0191

> <Smiles>
CCC(C)(C)C(NCc1ncc([100NH:0][100C:0](=O)N2CCCC(n3nc(-c4ccc(Oc5ccc(F)cc5F)cc4)c(C(N)=O)c3N)C2)s1)C(O)[101CH2:1][101O:1]c1ccc2c(c1)CN(C(=O)C(NC(=O)C(C)NC)C(C)(C)C)C(C(=O)NC1CCCc3ccccc31)C2

> <Shape>
0.182

> <Color>
0.173

> <Negative vol penalty>
0.000

$$$$

  -OEChem-04052305243D

 83 91  0     1  0  0  0  0  0999 V2000
  -32.1487  -25.1495   16.6262 C   0  0  0  0  0  0  0  0  0  0  0  0
  -30.7670  -25.1684   16.4648 C   0  0  0  0  0  0  0  0  0  0  0  0
  -27.0734  -12.7503   21.3530 C   0  0  0  0  0  0  0  0  0  0  0  0
  -26.6587  -13.6677   19.1567 C   0  0  0  0  0  0  0  0  0  0  0  0
  -32.7037  -25.3231   17.8933 C   0  0  0  0  0  0  0  0  0  0  0  0
  -29.9395  -25.3599   17.5707 C   0  0  0  0  0  0  0  0  0  0  0  0
  -24.5965  -28.3502   17.6971 C   0  0  0  0  0  0  0  0  0  0  0  0
  -26.3331  -11.6163   21.0192 C   0  0  0  0  0  0  0  0  0  0  0  0
  -25.9184  -12.5336   18.8228 C   0  0  0  0  0  0  0  0  0  0  0  0
  -23.2743  -27.9107   17.6501 C   0  0  0  0  0  0  0  0  0  0  0  0
  -23.0745  -10.7504   20.7815 C   0  0  0  0  0  0  0  0  0  0  0  0
  -22.1551  -10.2786   21.7183 C   0  0  0  0  0  0  0  0  0  0  0  0
  -23.1684  -27.9907   20.0587 C   0  0  0  0  0  0  0  0  0  0  0  0
  -23.3284   -8.1685   21.8071 C   0  0  0  0  0  0  0  0  0  0  0  0
  -26.1570  -23.3919   19.1771 C   0  0  0  0  0  0  0  0  0  0  0  0
  -27.2362  -13.7760   20.4218 C   0  0  0  0  0  0  0  0  0  0  0  0
  -29.3827  -15.1445   20.5871 C   0  0  0  0  0  0  0  0  0  0  0  0
  -31.8830  -25.5265   19.0139 C   0  0  0  0  0  0  0  0  0  0  0  0
  -25.2191  -28.6033   18.9278 C   0  0  0  0  0  0  0  0  0  0  0  0
  -30.4841  -25.5351   18.8542 C   0  0  0  0  0  0  0  0  0  0  0  0
  -24.4978  -28.4359   20.1185 C   0  0  0  0  0  0  0  0  0  0  0  0
  -25.7556  -11.5079   19.7541 C   0  0  0  0  0  0  0  0  0  0  0  0
  -22.5609  -27.7281   18.8311 C   0  0  0  0  0  0  0  0  0  0  0  0
  -24.1209   -9.9312   20.3574 C   0  0  0  0  0  0  0  0  0  0  0  0
  -22.2820   -8.9876   22.2312 C   0  0  0  0  0  0  0  0  0  0  0  0
  -24.2478   -8.6403   20.8703 C   0  0  0  0  0  0  0  0  0  0  0  0
  -28.0003  -14.9480   20.7663 C   0  0  0  0  0  0  0  0  0  0  0  0
  -25.3843  -22.3377   19.6172 C   0  0  0  0  0  0  0  0  0  0  0  0
  -29.6153  -16.4089   21.0704 C   0  0  0  0  0  0  0  0  0  0  0  0
  -23.7760  -23.6609   18.9299 C   0  0  0  0  0  0  0  0  0  0  0  0
  -30.3684  -14.2628   20.0332 C   0  0  0  0  0  0  0  0  0  0  0  0
  -27.7273  -27.3965   20.4629 C   0  0  0  0  0  0  0  0  0  0  0  0
  -26.0224  -21.1827   21.7136 C   0  0  0  0  0  0  0  0  0  0  0  0
  -27.1138  -29.8013   22.5517 C   0  0  0  0  0  0  0  0  0  0  0  0
  -21.2604  -23.6560   18.8014 C   0  0  0  0  0  0  0  0  0  0  0  0
  -24.8503  -31.9932   23.8627 C   0  0  0  0  0  0  0  0  0  0  0  0
  -32.5274  -25.6622   20.3707 C   0  0  0  0  0  0  0  0  0  0  0  0
  -26.6376  -29.1026   18.9603 C   0  0  0  0  0  0  0  0  0  0  0  0
  -25.1139  -28.7131   21.4646 C   0  0  0  0  0  0  0  0  0  0  0  0
  -31.5933  -26.2337   21.4342 C   0  0  0  0  0  0  0  0  0  0  0  0
  -27.9724  -19.5712   24.2514 C   0  0  0  0  0  0  0  0  0  0  0  0
  -30.2358  -25.5400   21.3809 C   0  0  0  0  0  0  0  0  0  0  0  0
  -28.3021  -18.2099   23.6405 C   0  0  0  0  0  0  0  0  0  0  0  0
  -26.5835  -20.0474   23.8373 C   0  0  0  0  0  0  0  0  0  0  0  0
  -26.7014  -18.7313   21.7455 C   0  0  0  0  0  0  0  0  0  0  0  0
  -29.5542  -25.7649   20.0258 C   0  0  1  0  0  0  0  0  0  0  0  0
  -27.3343  -28.8366   20.2912 C   0  0  1  0  0  0  0  0  0  0  0  0
  -28.1081  -18.2275   22.1139 C   0  0  2  0  0  0  0  0  0  0  0  0
  -18.9619  -23.7977   17.7569 C   0  0  0  0  0  0  0  0  0  0  0  0
  -24.6339  -33.8087   25.5816 C   0  0  0  0  0  0  0  0  0  0  0  0
  -27.0554  -27.6984   24.7619 C   0  0  0  0  0  0  0  0  0  0  0  0
  -25.9229  -29.3776   26.2337 C   0  0  0  0  0  0  0  0  0  0  0  0
  -28.2220  -29.8239   25.3748 C   0  0  0  0  0  0  0  0  0  0  0  0
  -24.1350  -34.0066   21.8149 C   0  0  0  0  0  0  0  0  0  0  0  0
  -25.8923  -21.0866   20.2143 C   0  0  0  0  0  0  0  0  0  0  0  0
  -19.7120  -25.5693   19.4252 C   0  0  0  0  0  0  0  0  0  0  0  0
  -20.8061  -26.5251   19.8939 C   0  0  0  0  0  0  0  0  0  1  0  0
  -26.2589  -29.9525   23.7868 C   0  0  1  0  0  0  0  0  0  0  0  0
  -20.1420  -24.5894   18.3202 C   0  0  1  0  0  0  0  0  0  0  0  0
  -24.9294  -33.4863   24.1251 C   0  0  2  0  0  0  0  0  0  0  0  0
  -26.8535  -29.2059   25.0142 C   0  0  0  0  0  0  0  0  0  0  0  0
  -27.3971  -16.0031   21.3203 N   0  0  0  0  0  0  0  0  0  0  0  0
  -24.0187  -22.4903   19.4766 N   0  0  0  0  0  0  0  0  0  0  0  0
  -28.4053  -16.8747   21.4935 N   0  0  0  0  0  0  0  0  0  0  0  0
  -26.5055  -29.1935   21.4443 N   0  0  0  0  0  0  0  0  0  0  0  0
  -26.4316  -20.0283   22.3814 N   0  0  0  0  0  0  0  0  0  0  0  0
  -30.7349  -17.1566   21.1705 N   0  0  0  0  0  0  0  0  0  0  0  0
  -29.9585  -13.0001   19.5841 N   0  0  0  0  0  0  0  0  0  0  0  0
  -22.5171  -24.2220   18.6084 N   0  0  0  0  0  0  0  0  0  0  0  0
  -28.9790  -27.0915   19.9634 N   0  0  0  0  0  0  0  0  0  0  0  0
  -26.0823  -31.3867   23.9878 N   0  0  0  0  0  0  0  0  0  0  0  0
  -23.9467  -34.2146   23.2737 N   0  3  0  0  0  0  0  0  0  0  0  0
  -31.5798  -14.5790   19.9545 O   0  0  0  0  0  0  0  0  0  0  0  0
  -26.9528  -26.6200   21.0096 O   0  0  0  0  0  0  0  0  0  0  0  0
  -25.7703  -22.2534   22.2724 O   0  0  0  0  0  0  0  0  0  0  0  0
  -28.2762  -30.2138   22.5666 O   0  0  0  0  0  0  0  0  0  0  0  0
  -21.0130  -22.5570   19.2900 O   0  0  0  0  0  0  0  0  0  0  0  0
  -23.8000  -31.4215   23.5791 O   0  0  0  0  0  0  0  0  0  0  0  0
  -25.0333  -10.4013   19.4279 O   0  0  0  0  0  0  0  0  0  0  0  0
  -21.2704  -27.2985   18.7881 O   0  0  0  0  0  0  0  0  0  1  0  0
  -21.3999   -8.5353   23.1319 F   0  0  0  0  0  0  0  0  0  0  0  0
  -25.2516   -7.8491   20.4676 F   0  0  0  0  0  0  0  0  0  0  0  0
  -25.1432  -24.6292   18.5584 S   0  0  0  0  0  0  0  0  0  0  0  0
  1  2  1  0  0  0  0
  1  5  2  0  0  0  0
  2  6  2  0  0  0  0
  3  8  2  0  0  0  0
  3 16  1  0  0  0  0
  4  9  1  0  0  0  0
  4 16  2  0  0  0  0
  5 18  1  0  0  0  0
  6 20  1  0  0  0  0
  7 10  2  0  0  0  0
  7 19  1  0  0  0  0
  8 22  1  0  0  0  0
  9 22  2  0  0  0  0
 10 23  1  0  0  0  0
 11 12  2  0  0  0  0
 11 24  1  0  0  0  0
 12 25  1  0  0  0  0
 13 21  1  0  0  0  0
 13 23  2  0  0  0  0
 14 25  2  0  0  0  0
 14 26  1  0  0  0  0
 15 28  2  0  0  0  0
 15 83  1  0  0  0  0
 16 27  1  0  0  0  0
 17 27  1  0  0  0  0
 17 29  2  0  0  0  0
 17 31  1  0  0  0  0
 18 20  2  0  0  0  0
 18 37  1  0  0  0  0
 19 21  2  0  0  0  0
 19 38  1  0  0  0  0
 20 46  1  0  0  0  0
 21 39  1  0  0  0  0
 22 79  1  0  0  0  0
 23 80  1  0  0  0  0
 24 26  2  0  0  0  0
 24 79  1  0  0  0  0
 25 81  1  0  0  0  0
 26 82  1  0  0  0  0
 27 62  2  0  0  0  0
 28 55  1  0  0  0  0
 28 63  1  0  0  0  0
 29 64  1  0  0  0  0
 29 67  1  0  0  0  0
 30 63  2  0  0  0  0
 30 69  1  0  0  0  0
 30 83  1  0  0  0  0
 31 68  1  0  0  0  0
 31 73  2  0  0  0  0
 32 47  1  0  0  0  0
 32 70  1  0  0  0  0
 32 74  2  0  0  0  0
 33 55  1  0  0  0  0
 33 66  1  0  0  0  0
 33 75  2  0  0  0  0
 34 58  1  0  0  0  0
 34 65  1  0  0  0  0
 34 76  2  0  0  0  0
 35 59  1  0  0  0  0
 35 69  1  0  0  0  0
 35 77  2  0  0  0  0
 36 60  1  0  0  0  0
 36 71  1  0  0  0  0
 36 78  2  0  0  0  0
 37 40  1  0  0  0  0
 38 47  1  0  0  0  0
 39 65  1  0  0  0  0
 40 42  1  0  0  0  0
 41 43  1  0  0  0  0
 41 44  1  0  0  0  0
 42 46  1  0  0  0  0
 43 48  1  0  0  0  0
 44 66  1  0  0  0  0
 45 48  1  0  0  0  0
 45 66  1  0  0  0  0
 46 70  1  0  0  0  0
 47 65  1  0  0  0  0
 48 64  1  0  0  0  0
 49 59  1  0  0  0  0
 50 60  1  0  0  0  0
 51 61  1  0  0  0  0
 52 61  1  0  0  0  0
 53 61  1  0  0  0  0
 54 72  1  0  0  0  0
 56 57  1  0  0  0  0
 56 59  1  0  0  0  0
 57 80  1  0  0  0  0
 58 61  1  0  0  0  0
 58 71  1  0  0  0  0
 60 72  1  0  0  0  0
 62 64  1  0  0  0  0
M  CHG  1  72   1
M  ISO  4  33 100  55 100  57 101  80 101
M  END
> <Batch ID>
0191

> <Smiles>
CNC(C)C(=O)NC(C(=O)N1Cc2cc([101O:1][101CH2:1]CC(C)C(=O)Nc3nc([100CH2:0][100C:0](=O)N4CCCC(n5nc(-c6ccc(Oc7ccc(F)cc7F)cc6)c(C(N)=O)c5N)C4)cs3)ccc2CC1C(=O)NC1CCCc2ccccc21)C(C)(C)C

> <Shape>
0.244

> <Color>
0.066

> <Negative vol penalty>
0.000

$$$$

  -OEChem-04052305243D

 83 91  0     1  0  0  0  0  0999 V2000
  -19.9520  -28.8897   26.6349 C   0  0  0  0  0  0  0  0  0  0  0  0
  -21.2976  -28.8044   26.2920 C   0  0  0  0  0  0  0  0  0  0  0  0
  -25.5236  -14.5633   21.7132 C   0  0  0  0  0  0  0  0  0  0  0  0
  -27.2607  -14.3752   20.0446 C   0  0  0  0  0  0  0  0  0  0  0  0
  -18.9722  -28.6069   25.6841 C   0  0  0  0  0  0  0  0  0  0  0  0
  -21.6642  -28.4351   24.9983 C   0  0  0  0  0  0  0  0  0  0  0  0
  -25.3496  -31.3536   23.1155 C   0  0  0  0  0  0  0  0  0  0  0  0
  -25.3040  -13.1879   21.6398 C   0  0  0  0  0  0  0  0  0  0  0  0
  -27.0411  -12.9997   19.9711 C   0  0  0  0  0  0  0  0  0  0  0  0
  -26.6495  -31.0968   23.5494 C   0  0  0  0  0  0  0  0  0  0  0  0
  -23.7158  -11.0258   19.5837 C   0  0  0  0  0  0  0  0  0  0  0  0
  -22.3944  -10.5837   19.5218 C   0  0  0  0  0  0  0  0  0  0  0  0
  -27.0816  -29.8771   21.5135 C   0  0  0  0  0  0  0  0  0  0  0  0
  -22.7160   -9.3365   21.5659 C   0  0  0  0  0  0  0  0  0  0  0  0
  -28.1474  -26.0649   19.1879 C   0  0  0  0  0  0  0  0  0  0  0  0
  -26.5019  -15.1570   20.9156 C   0  0  0  0  0  0  0  0  0  0  0  0
  -27.6223  -17.2522   21.8443 C   0  0  0  0  0  0  0  0  0  0  0  0
  -19.3269  -28.2433   24.3754 C   0  0  0  0  0  0  0  0  0  0  0  0
  -24.9018  -30.8639   21.8801 C   0  0  0  0  0  0  0  0  0  0  0  0
  -20.6882  -28.1458   24.0295 C   0  0  0  0  0  0  0  0  0  0  0  0
  -25.7764  -30.1311   21.0651 C   0  0  0  0  0  0  0  0  0  0  0  0
  -26.0628  -12.4060   20.7687 C   0  0  0  0  0  0  0  0  0  0  0  0
  -27.5148  -30.3560   22.7496 C   0  0  0  0  0  0  0  0  0  0  0  0
  -24.5374  -10.6233   20.6366 C   0  0  0  0  0  0  0  0  0  0  0  0
  -21.8945   -9.7390   20.5129 C   0  0  0  0  0  0  0  0  0  0  0  0
  -24.0375   -9.7786   21.6277 C   0  0  0  0  0  0  0  0  0  0  0  0
  -26.7288  -16.5779   20.9906 C   0  0  0  0  0  0  0  0  0  0  0  0
  -28.8462  -24.8760   19.1706 C   0  0  0  0  0  0  0  0  0  0  0  0
  -27.4636  -18.5794   21.5283 C   0  0  0  0  0  0  0  0  0  0  0  0
  -28.8499  -26.0650   21.2655 C   0  0  0  0  0  0  0  0  0  0  0  0
  -28.5158  -16.7259   22.8344 C   0  0  0  0  0  0  0  0  0  0  0  0
  -22.6147  -28.8582   20.9580 C   0  0  0  0  0  0  0  0  0  0  0  0
  -23.5263  -29.7986   17.9903 C   0  0  0  0  0  0  0  0  0  0  0  0
  -25.9653  -31.0872   15.9810 C   0  0  0  0  0  0  0  0  0  0  0  0
  -26.9278  -22.6524   17.7509 C   0  0  0  0  0  0  0  0  0  0  0  0
  -18.2328  -27.9011   23.3953 C   0  0  0  0  0  0  0  0  0  0  0  0
  -23.5052  -31.1722   21.4146 C   0  0  0  0  0  0  0  0  0  0  0  0
  -25.3509  -29.6002   19.7214 C   0  0  0  0  0  0  0  0  0  0  0  0
  -18.7010  -27.8809   21.9425 C   0  0  0  0  0  0  0  0  0  0  0  0
  -23.9772  -20.8930   18.6861 C   0  0  0  0  0  0  0  0  0  0  0  0
  -20.0097  -27.1080   21.8140 C   0  0  0  0  0  0  0  0  0  0  0  0
  -24.5039  -19.6667   19.4335 C   0  0  0  0  0  0  0  0  0  0  0  0
  -24.8831  -21.2737   17.5172 C   0  0  0  0  0  0  0  0  0  0  0  0
  -26.8294  -20.2367   18.6174 C   0  0  0  0  0  0  0  0  0  0  0  0
  -21.1254  -27.7726   22.6296 C   0  0  1  0  0  0  0  0  0  0  0  0
  -22.9930  -30.1874   20.3681 C   0  0  1  0  0  0  0  0  0  0  0  0
  -25.9791  -19.8480   19.8389 C   0  0  2  0  0  0  0  0  0  0  0  0
  -31.6484  -30.0820   22.8420 C   0  0  0  0  0  0  0  0  0  0  0  0
  -26.4284  -31.7045   13.5932 C   0  0  0  0  0  0  0  0  0  0  0  0
  -28.4374  -27.5306   24.6534 C   0  0  0  0  0  0  0  0  0  0  0  0
  -23.8659  -26.8469   17.2956 C   0  0  0  0  0  0  0  0  0  0  0  0
  -25.2018  -27.5430   15.2959 C   0  0  0  0  0  0  0  0  0  0  0  0
  -22.8114  -28.2274   15.4966 C   0  0  0  0  0  0  0  0  0  0  0  0
  -26.4136  -33.9277   16.6808 C   0  0  0  0  0  0  0  0  0  0  0  0
  -29.0424  -23.9115   18.0711 C   0  0  0  0  0  0  0  0  0  0  0  0
  -30.8351  -28.8596   23.2333 C   0  0  0  0  0  0  0  0  0  0  0  0
  -24.5420  -29.3188   16.9817 C   0  0  1  0  0  0  0  0  0  0  0  0
  -25.9353  -32.1964   14.9451 C   0  0  2  0  0  0  0  0  0  0  0  0
  -28.5217  -27.6840   23.1355 C   0  0  1  0  0  0  0  0  0  0  0  0
  -29.3871  -28.8899   22.7243 C   0  0  1  0  0  0  0  0  0  1  0  0
  -24.1130  -27.9923   16.2936 C   0  0  0  0  0  0  0  0  0  0  0  0
  -28.1481  -26.7479   20.3884 N   0  0  0  0  0  0  0  0  0  0  0  0
  -26.0526  -17.4083   20.1923 N   0  0  0  0  0  0  0  0  0  0  0  0
  -26.5213  -18.6179   20.5431 N   0  0  0  0  0  0  0  0  0  0  0  0
  -23.9736  -29.9228   19.3133 N   0  0  0  0  0  0  0  0  0  0  0  0
  -26.2675  -21.4320   17.9692 N   0  0  0  0  0  0  0  0  0  0  0  0
  -28.0396  -19.7056   21.9999 N   0  0  0  0  0  0  0  0  0  0  0  0
  -28.5532  -15.3387   23.0308 N   0  0  0  0  0  0  0  0  0  0  0  0
  -29.0573  -26.4599   22.5743 N   0  0  0  0  0  0  0  0  0  0  0  0
  -21.6382  -28.9328   21.9328 N   0  0  0  0  0  0  0  0  0  0  0  0
  -24.7566  -30.4284   16.0591 N   0  0  0  0  0  0  0  0  0  0  0  0
  -28.2354  -22.7205   18.2160 N   0  0  0  0  0  0  0  0  0  0  0  0
  -26.7997  -33.3313   15.3761 N   0  3  0  0  0  0  0  0  0  0  0  0
  -29.2471  -17.4652   23.5360 O   0  0  0  0  0  0  0  0  0  0  0  0
  -23.1668  -27.8402   20.5573 O   0  0  0  0  0  0  0  0  0  0  0  0
  -22.3802  -30.0604   17.6167 O   0  0  0  0  0  0  0  0  0  0  0  0
  -26.9626  -30.8284   16.6511 O   0  0  0  0  0  0  0  0  0  0  0  0
  -26.3901  -23.6122   17.1883 O   0  0  0  0  0  0  0  0  0  0  0  0
  -25.8489  -11.0637   20.6970 O   0  0  0  0  0  0  0  0  0  0  0  0
  -28.7838  -30.1035   23.1710 O   0  0  0  0  0  0  0  0  0  1  0  0
  -20.6250   -9.3157   20.4543 F   0  0  0  0  0  0  0  0  0  0  0  0
  -24.8217   -9.3895   22.6423 F   0  0  0  0  0  0  0  0  0  0  0  0
  -29.5378  -24.5927   20.7142 S   0  0  0  0  0  0  0  0  0  0  0  0
  1  2  1  0  0  0  0
  1  5  2  0  0  0  0
  2  6  2  0  0  0  0
  3  8  2  0  0  0  0
  3 16  1  0  0  0  0
  4  9  1  0  0  0  0
  4 16  2  0  0  0  0
  5 18  1  0  0  0  0
  6 20  1  0  0  0  0
  7 10  2  0  0  0  0
  7 19  1  0  0  0  0
  8 22  1  0  0  0  0
  9 22  2  0  0  0  0
 10 23  1  0  0  0  0
 11 12  2  0  0  0  0
 11 24  1  0  0  0  0
 12 25  1  0  0  0  0
 13 21  1  0  0  0  0
 13 23  2  0  0  0  0
 14 25  2  0  0  0  0
 14 26  1  0  0  0  0
 15 28  2  0  0  0  0
 15 62  1  0  0  0  0
 16 27  1  0  0  0  0
 17 27  1  0  0  0  0
 17 29  2  0  0  0  0
 17 31  1  0  0  0  0
 18 20  2  0  0  0  0
 18 36  1  0  0  0  0
 19 21  2  0  0  0  0
 19 37  1  0  0  0  0
 20 45  1  0  0  0  0
 21 38  1  0  0  0  0
 22 79  1  0  0  0  0
 23 80  1  0  0  0  0
 24 26  2  0  0  0  0
 24 79  1  0  0  0  0
 25 81  1  0  0  0  0
 26 82  1  0  0  0  0
 27 63  2  0  0  0  0
 28 55  1  0  0  0  0
 28 83  1  0  0  0  0
 29 64  1  0  0  0  0
 29 67  1  0  0  0  0
 30 62  2  0  0  0  0
 30 69  1  0  0  0  0
 30 83  1  0  0  0  0
 31 68  1  0  0  0  0
 31 74  2  0  0  0  0
 32 46  1  0  0  0  0
 32 70  1  0  0  0  0
 32 75  2  0  0  0  0
 33 57  1  0  0  0  0
 33 65  1  0  0  0  0
 33 76  2  0  0  0  0
 34 58  1  0  0  0  0
 34 71  1  0  0  0  0
 34 77  2  0  0  0  0
 35 66  1  0  0  0  0
 35 72  1  0  0  0  0
 35 78  2  0  0  0  0
 36 39  1  0  0  0  0
 37 46  1  0  0  0  0
 38 65  1  0  0  0  0
 39 41  1  0  0  0  0
 40 42  1  0  0  0  0
 40 43  1  0  0  0  0
 41 45  1  0  0  0  0
 42 47  1  0  0  0  0
 43 66  1  0  0  0  0
 44 47  1  0  0  0  0
 44 66  1  0  0  0  0
 45 70  1  0  0  0  0
 46 65  1  0  0  0  0
 47 64  1  0  0  0  0
 48 56  1  0  0  0  0
 49 58  1  0  0  0  0
 50 59  1  0  0  0  0
 51 61  1  0  0  0  0
 52 61  1  0  0  0  0
 53 61  1  0  0  0  0
 54 73  1  0  0  0  0
 55 72  1  0  0  0  0
 56 60  1  0  0  0  0
 57 61  1  0  0  0  0
 57 71  1  0  0  0  0
 58 73  1  0  0  0  0
 59 60  1  0  0  0  0
 59 69  1  0  0  0  0
 60 80  1  0  0  0  0
 63 64  1  0  0  0  0
M  CHG  1  73   1
M  ISO  4  35 100  60 101  72 100  80 101
M  END
> <Batch ID>
0191

> <Smiles>
CC[101CH:1](C(C)Nc1ncc(C[100NH:0][100C:0](=O)N2CCCC(n3nc(-c4ccc(Oc5ccc(F)cc5F)cc4)c(C(N)=O)c3N)C2)s1)[101O:1]c1ccc2c(c1)CN(C(=O)C(NC(=O)C(C)NC)C(C)(C)C)C(C(=O)NC1CCCc3ccccc31)C2

> <Shape>
0.232

> <Color>
0.075

> <Negative vol penalty>
0.000

$$$$

  -OEChem-04052305243D

 85 93  0     1  0  0  0  0  0999 V2000
  -21.8771  -22.4429   24.4705 C   0  0  0  0  0  0  0  0  0  0  0  0
  -22.9659  -22.4397   23.6045 C   0  0  0  0  0  0  0  0  0  0  0  0
  -27.5012  -13.3699   22.5759 C   0  0  0  0  0  0  0  0  0  0  0  0
  -26.8743  -13.0744   20.2614 C   0  0  0  0  0  0  0  0  0  0  0  0
  -20.8507  -23.3700   24.2948 C   0  0  0  0  0  0  0  0  0  0  0  0
  -23.0283  -23.3631   22.5615 C   0  0  0  0  0  0  0  0  0  0  0  0
  -28.0561  -26.0355   20.3065 C   0  0  0  0  0  0  0  0  0  0  0  0
  -26.9150  -12.1441   22.8912 C   0  0  0  0  0  0  0  0  0  0  0  0
  -26.2881  -11.8486   20.5767 C   0  0  0  0  0  0  0  0  0  0  0  0
  -28.8451  -25.7593   19.1907 C   0  0  0  0  0  0  0  0  0  0  0  0
  -23.4081  -10.7479   21.9641 C   0  0  0  0  0  0  0  0  0  0  0  0
  -22.1489  -10.4752   21.4296 C   0  0  0  0  0  0  0  0  0  0  0  0
  -27.6214  -27.4083   17.9247 C   0  0  0  0  0  0  0  0  0  0  0  0
  -23.0479   -8.5376   20.3005 C   0  0  0  0  0  0  0  0  0  0  0  0
  -27.1134  -19.0367   16.5182 C   0  0  0  0  0  0  0  0  0  0  0  0
  -27.4808  -13.8351   21.2610 C   0  0  0  0  0  0  0  0  0  0  0  0
  -29.4186  -15.3315   20.5442 C   0  0  0  0  0  0  0  0  0  0  0  0
  -20.9053  -24.3114   23.2549 C   0  0  0  0  0  0  0  0  0  0  0  0
  -27.0350  -26.9941   20.2365 C   0  0  0  0  0  0  0  0  0  0  0  0
  -22.0010  -24.3028   22.3708 C   0  0  0  0  0  0  0  0  0  0  0  0
  -26.8226  -27.6967   19.0418 C   0  0  0  0  0  0  0  0  0  0  0  0
  -26.3084  -11.3835   21.8916 C   0  0  0  0  0  0  0  0  0  0  0  0
  -28.6259  -26.4436   17.9988 C   0  0  0  0  0  0  0  0  0  0  0  0
  -24.4872   -9.9156   21.6668 C   0  0  0  0  0  0  0  0  0  0  0  0
  -21.9688   -9.3700   20.5979 C   0  0  0  0  0  0  0  0  0  0  0  0
  -24.3071   -8.8104   20.8350 C   0  0  0  0  0  0  0  0  0  0  0  0
  -28.0858  -15.1015   20.9348 C   0  0  0  0  0  0  0  0  0  0  0  0
  -26.2797  -20.0733   16.8822 C   0  0  0  0  0  0  0  0  0  0  0  0
  -29.4902  -16.6893   20.3506 C   0  0  0  0  0  0  0  0  0  0  0  0
  -27.6394  -21.1885   15.5717 C   0  0  0  0  0  0  0  0  0  0  0  0
  -30.4955  -14.4008   20.3717 C   0  0  0  0  0  0  0  0  0  0  0  0
  -23.8754  -26.9348   20.5786 C   0  0  0  0  0  0  0  0  0  0  0  0
  -25.2903  -20.7827   19.0402 C   0  0  0  0  0  0  0  0  0  0  0  0
  -24.1757  -30.1529   20.3025 C   0  0  0  0  0  0  0  0  0  0  0  0
  -26.0007  -32.8060   19.1723 C   0  0  0  0  0  0  0  0  0  0  0  0
  -19.7491  -25.2633   23.0761 C   0  0  0  0  0  0  0  0  0  0  0  0
  -26.2103  -27.2996   21.4568 C   0  0  0  0  0  0  0  0  0  0  0  0
  -25.7525  -28.7496   18.9205 C   0  0  0  0  0  0  0  0  0  0  0  0
  -20.0722  -26.4512   22.1734 C   0  0  0  0  0  0  0  0  0  0  0  0
  -27.5472  -20.7972   21.8233 C   0  0  0  0  0  0  0  0  0  0  0  0
  -20.7825  -25.9820   20.9076 C   0  0  0  0  0  0  0  0  0  0  0  0
  -28.0405  -19.3525   21.8930 C   0  0  0  0  0  0  0  0  0  0  0  0
  -26.0898  -20.8687   21.3785 C   0  0  0  0  0  0  0  0  0  0  0  0
  -26.3079  -18.7322   20.1499 C   0  0  0  0  0  0  0  0  0  0  0  0
  -22.1168  -25.3047   21.2426 C   0  0  1  0  0  0  0  0  0  0  0  0
  -24.8612  -27.9291   21.1238 C   0  0  1  0  0  0  0  0  0  0  0  0
  -27.7851  -18.6166   20.5658 C   0  0  2  0  0  0  0  0  0  0  0  0
  -25.8596  -25.0944   14.0062 C   0  0  0  0  0  0  0  0  0  0  0  0
  -23.7802  -20.3664   17.1254 C   0  0  0  0  0  0  0  0  0  0  0  0
  -25.9718  -35.3129   19.0623 C   0  0  0  0  0  0  0  0  0  0  0  0
  -22.1053  -30.0284   18.0647 C   0  0  0  0  0  0  0  0  0  0  0  0
  -22.8128  -32.3294   17.3767 C   0  0  0  0  0  0  0  0  0  0  0  0
  -21.8273  -31.9531   19.6372 C   0  0  0  0  0  0  0  0  0  0  0  0
  -28.4987  -33.0195   20.7450 C   0  0  0  0  0  0  0  0  0  0  0  0
  -26.4785  -23.7017   13.9901 C   0  0  0  0  0  0  0  0  0  0  0  0
  -30.1074  -24.5111   15.3142 C   0  0  0  0  0  0  0  0  0  0  0  0
  -29.9071  -24.8495   16.7850 C   0  0  0  0  0  0  0  0  0  1  0  0
  -25.1152  -19.9674   17.7837 C   0  0  1  0  0  0  0  0  0  0  0  0
  -24.1693  -31.1326   19.1539 C   0  0  1  0  0  0  0  0  0  0  0  0
  -26.4298  -34.0950   19.8496 C   0  0  2  0  0  0  0  0  0  0  0  0
  -27.7109  -23.5917   14.9046 C   0  0  2  0  0  0  0  0  0  0  0  0
  -28.8217  -24.5743   14.4797 C   0  0  2  0  0  0  0  0  0  0  0  0
  -22.7476  -31.3397   18.5595 C   0  0  0  0  0  0  0  0  0  0  0  0
  -27.3628  -16.2234   20.9869 N   0  0  0  0  0  0  0  0  0  0  0  0
  -26.5800  -21.3080   16.3408 N   0  0  0  0  0  0  0  0  0  0  0  0
  -28.2446  -17.1714   20.6266 N   0  0  0  0  0  0  0  0  0  0  0  0
  -24.9683  -29.0079   20.1395 N   0  0  0  0  0  0  0  0  0  0  0  0
  -25.8841  -20.1391   20.1261 N   0  0  0  0  0  0  0  0  0  0  0  0
  -30.4965  -17.5061   19.9730 N   0  0  0  0  0  0  0  0  0  0  0  0
  -30.2496  -13.0422   20.6126 N   0  0  0  0  0  0  0  0  0  0  0  0
  -28.2150  -22.2320   14.8720 N   0  0  0  0  0  0  0  0  0  0  0  0
  -23.1249  -26.2972   21.5479 N   0  0  0  0  0  0  0  0  0  0  0  0
  -24.7911  -32.3534   19.6553 N   0  0  0  0  0  0  0  0  0  0  0  0
  -27.9141  -34.1461   19.9729 N   0  3  0  0  0  0  0  0  0  0  0  0
  -31.6463  -14.7653   20.0305 O   0  0  0  0  0  0  0  0  0  0  0  0
  -23.8002  -26.7602   19.3680 O   0  0  0  0  0  0  0  0  0  0  0  0
  -24.9127  -21.9572   19.0532 O   0  0  0  0  0  0  0  0  0  0  0  0
  -23.5078  -30.3981   21.3102 O   0  0  0  0  0  0  0  0  0  0  0  0
  -26.6696  -32.2576   18.2992 O   0  0  0  0  0  0  0  0  0  0  0  0
  -29.1688  -24.3624   13.1093 O   0  0  0  0  0  0  0  0  0  0  0  0
  -25.7365  -10.1872   22.1989 O   0  0  0  0  0  0  0  0  0  0  0  0
  -29.3941  -26.1754   16.9080 O   0  0  0  0  0  0  0  0  0  1  0  0
  -20.7592   -9.1074   20.0859 F   0  0  0  0  0  0  0  0  0  0  0  0
  -25.3398   -8.0064   20.5468 F   0  0  0  0  0  0  0  0  0  0  0  0
  -28.3249  -19.6197   15.4535 S   0  0  0  0  0  0  0  0  0  0  0  0
  1  2  1  0  0  0  0
  1  5  2  0  0  0  0
  2  6  2  0  0  0  0
  3  8  2  0  0  0  0
  3 16  1  0  0  0  0
  4  9  1  0  0  0  0
  4 16  2  0  0  0  0
  5 18  1  0  0  0  0
  6 20  1  0  0  0  0
  7 10  2  0  0  0  0
  7 19  1  0  0  0  0
  8 22  1  0  0  0  0
  9 22  2  0  0  0  0
 10 23  1  0  0  0  0
 11 12  2  0  0  0  0
 11 24  1  0  0  0  0
 12 25  1  0  0  0  0
 13 21  1  0  0  0  0
 13 23  2  0  0  0  0
 14 25  2  0  0  0  0
 14 26  1  0  0  0  0
 15 28  2  0  0  0  0
 15 85  1  0  0  0  0
 16 27  1  0  0  0  0
 17 27  1  0  0  0  0
 17 29  2  0  0  0  0
 17 31  1  0  0  0  0
 18 20  2  0  0  0  0
 18 36  1  0  0  0  0
 19 21  2  0  0  0  0
 19 37  1  0  0  0  0
 20 45  1  0  0  0  0
 21 38  1  0  0  0  0
 22 81  1  0  0  0  0
 23 82  1  0  0  0  0
 24 26  2  0  0  0  0
 24 81  1  0  0  0  0
 25 83  1  0  0  0  0
 26 84  1  0  0  0  0
 27 64  2  0  0  0  0
 28 58  1  0  0  0  0
 28 65  1  0  0  0  0
 29 66  1  0  0  0  0
 29 69  1  0  0  0  0
 30 65  2  0  0  0  0
 30 71  1  0  0  0  0
 30 85  1  0  0  0  0
 31 70  1  0  0  0  0
 31 75  2  0  0  0  0
 32 46  1  0  0  0  0
 32 72  1  0  0  0  0
 32 76  2  0  0  0  0
 33 58  1  0  0  0  0
 33 68  1  0  0  0  0
 33 77  2  0  0  0  0
 34 59  1  0  0  0  0
 34 67  1  0  0  0  0
 34 78  2  0  0  0  0
 35 60  1  0  0  0  0
 35 73  1  0  0  0  0
 35 79  2  0  0  0  0
 36 39  1  0  0  0  0
 37 46  1  0  0  0  0
 38 67  1  0  0  0  0
 39 41  1  0  0  0  0
 40 42  1  0  0  0  0
 40 43  1  0  0  0  0
 41 45  1  0  0  0  0
 42 47  1  0  0  0  0
 43 68  1  0  0  0  0
 44 47  1  0  0  0  0
 44 68  1  0  0  0  0
 45 72  1  0  0  0  0
 46 67  1  0  0  0  0
 47 66  1  0  0  0  0
 48 55  1  0  0  0  0
 49 58  1  0  0  0  0
 50 60  1  0  0  0  0
 51 63  1  0  0  0  0
 52 63  1  0  0  0  0
 53 63  1  0  0  0  0
 54 74  1  0  0  0  0
 55 61  1  0  0  0  0
 56 57  1  0  0  0  0
 56 62  1  0  0  0  0
 57 82  1  0  0  0  0
 59 63  1  0  0  0  0
 59 73  1  0  0  0  0
 60 74  1  0  0  0  0
 61 62  1  0  0  0  0
 61 71  1  0  0  0  0
 62 80  1  0  0  0  0
 64 66  1  0  0  0  0
M  CHG  1  74   1
M  ISO  4  33 100  57 101  58 100  82 101
M  END
> <Batch ID>
0191

> <Smiles>
CCC(Nc1nc([100CH:0](C)[100C:0](=O)N2CCCC(n3nc(-c4ccc(Oc5ccc(F)cc5F)cc4)c(C(N)=O)c3N)C2)cs1)C(O)C[101CH2:1][101O:1]c1ccc2c(c1)CN(C(=O)C(NC(=O)C(C)NC)C(C)(C)C)C(C(=O)NC1CCCc3ccccc31)C2

> <Shape>
0.185

> <Color>
0.067

> <Negative vol penalty>
0.000

$$$$

  -OEChem-04052305243D

 90 98  0     1  0  0  0  0  0999 V2000
  -28.1252  -11.0965   18.5108 C   0  0  0  0  0  0  0  0  0  0  0  0
  -28.3867  -12.4241   18.1873 C   0  0  0  0  0  0  0  0  0  0  0  0
  -16.8809  -21.5915   21.4273 C   0  0  0  0  0  0  0  0  0  0  0  0
  -17.0543  -22.8074   19.3468 C   0  0  0  0  0  0  0  0  0  0  0  0
  -27.0495  -10.7811   19.3399 C   0  0  0  0  0  0  0  0  0  0  0  0
  -27.5720  -13.4370   18.6920 C   0  0  0  0  0  0  0  0  0  0  0  0
  -29.2989  -19.0820   20.3221 C   0  0  0  0  0  0  0  0  0  0  0  0
  -15.6106  -21.1465   21.0615 C   0  0  0  0  0  0  0  0  0  0  0  0
  -15.7839  -22.3624   18.9809 C   0  0  0  0  0  0  0  0  0  0  0  0
  -29.2391  -20.3085   19.6619 C   0  0  0  0  0  0  0  0  0  0  0  0
  -14.3968  -19.5437   17.7355 C   0  0  0  0  0  0  0  0  0  0  0  0
  -14.2263  -19.0746   16.4330 C   0  0  0  0  0  0  0  0  0  0  0  0
  -27.1697  -20.8108   20.7954 C   0  0  0  0  0  0  0  0  0  0  0  0
  -12.5657  -20.7837   16.0348 C   0  0  0  0  0  0  0  0  0  0  0  0
  -17.6028  -22.4220   20.5700 C   0  0  0  0  0  0  0  0  0  0  0  0
  -20.1457  -22.2529   20.6821 C   0  0  0  0  0  0  0  0  0  0  0  0
  -26.2270  -11.7914   19.8628 C   0  0  0  0  0  0  0  0  0  0  0  0
  -28.2873  -18.7053   21.2171 C   0  0  0  0  0  0  0  0  0  0  0  0
  -26.4835  -13.1347   19.5278 C   0  0  0  0  0  0  0  0  0  0  0  0
  -27.2204  -19.5801   21.4675 C   0  0  0  0  0  0  0  0  0  0  0  0
  -15.0621  -21.5320   19.8383 C   0  0  0  0  0  0  0  0  0  0  0  0
  -28.1729  -21.1719   19.8963 C   0  0  0  0  0  0  0  0  0  0  0  0
  -13.6517  -20.6328   18.1877 C   0  0  0  0  0  0  0  0  0  0  0  0
  -13.3108  -19.6946   15.5827 C   0  0  0  0  0  0  0  0  0  0  0  0
  -12.7362  -21.2527   17.3373 C   0  0  0  0  0  0  0  0  0  0  0  0
  -18.9148  -22.8824   20.9476 C   0  0  0  0  0  0  0  0  0  0  0  0
  -27.2525  -28.8078   20.7416 C   0  0  0  0  0  0  0  0  0  0  0  0
  -21.0843  -23.0831   21.2445 C   0  0  0  0  0  0  0  0  0  0  0  0
  -27.4115  -27.8413   19.7708 C   0  0  0  0  0  0  0  0  0  0  0  0
  -25.2701  -27.8788   20.8733 C   0  0  0  0  0  0  0  0  0  0  0  0
  -20.4164  -21.0274   19.9889 C   0  0  0  0  0  0  0  0  0  0  0  0
  -26.1690  -16.3386   21.3413 C   0  0  0  0  0  0  0  0  0  0  0  0
  -29.6652  -26.9244   16.9824 C   0  0  0  0  0  0  0  0  0  0  0  0
  -25.5169  -17.5968   24.2592 C   0  0  0  0  0  0  0  0  0  0  0  0
  -25.5801  -20.3146   26.3222 C   0  0  0  0  0  0  0  0  0  0  0  0
  -23.1452  -28.1676   22.1952 C   0  0  0  0  0  0  0  0  0  0  0  0
  -25.0476  -11.3980   20.7165 C   0  0  0  0  0  0  0  0  0  0  0  0
  -28.3803  -17.3904   21.9414 C   0  0  0  0  0  0  0  0  0  0  0  0
  -26.1194  -19.2316   22.4344 C   0  0  0  0  0  0  0  0  0  0  0  0
  -24.4577  -12.5592   21.5127 C   0  0  0  0  0  0  0  0  0  0  0  0
  -20.5409  -27.0448   24.3479 C   0  0  0  0  0  0  0  0  0  0  0  0
  -24.2865  -13.7852   20.6213 C   0  0  0  0  0  0  0  0  0  0  0  0
  -19.9869  -25.8100   23.6333 C   0  0  0  0  0  0  0  0  0  0  0  0
  -20.9503  -28.1357   23.3600 C   0  0  0  0  0  0  0  0  0  0  0  0
  -21.3153  -26.4659   21.5858 C   0  0  0  0  0  0  0  0  0  0  0  0
  -25.6374  -14.2635   20.0756 C   0  0  1  0  0  0  0  0  0  0  0  0
  -27.0301  -16.8879   22.4433 C   0  0  1  0  0  0  0  0  0  0  0  0
  -20.9497  -25.3143   22.5366 C   0  0  2  0  0  0  0  0  0  0  0  0
  -29.3469  -29.2100   22.0600 C   0  0  0  0  0  0  0  0  0  0  0  0
  -30.7204  -25.3648   14.5831 C   0  0  0  0  0  0  0  0  0  0  0  0
  -28.8219  -28.6522   15.4154 C   0  0  0  0  0  0  0  0  0  0  0  0
  -24.9434  -21.0461   28.6367 C   0  0  0  0  0  0  0  0  0  0  0  0
  -22.5894  -17.7286   23.4095 C   0  0  0  0  0  0  0  0  0  0  0  0
  -22.1788  -19.2978   25.3167 C   0  0  0  0  0  0  0  0  0  0  0  0
  -22.9592  -16.9710   25.7640 C   0  0  0  0  0  0  0  0  0  0  0  0
  -28.3850  -20.9536   27.0173 C   0  0  0  0  0  0  0  0  0  0  0  0
  -28.2626  -29.8043   21.1563 C   0  0  0  0  0  0  0  0  0  0  0  0
  -30.2971  -26.8262   14.5159 C   0  0  0  0  0  0  0  0  0  0  0  0
  -28.9160  -24.0267   17.6787 C   0  0  0  0  0  0  0  0  0  0  0  0
  -29.1707  -22.6799   18.3515 C   0  0  0  0  0  0  0  0  0  1  0  0
  -29.2104  -27.1801   15.5437 C   0  0  1  0  0  0  0  0  0  0  0  0
  -28.5834  -26.5433   17.9910 C   0  0  1  0  0  0  0  0  0  0  0  0
  -24.5721  -18.6519   24.7816 C   0  0  1  0  0  0  0  0  0  0  0  0
  -26.0470  -20.4793   27.7572 C   0  0  2  0  0  0  0  0  0  0  0  0
  -28.8341  -25.1916   18.6780 C   0  0  2  0  0  0  0  0  0  0  0  0
  -23.0944  -18.1684   24.7982 C   0  0  0  0  0  0  0  0  0  0  0  0
  -19.0555  -24.0242   21.6261 N   0  0  0  0  0  0  0  0  0  0  0  0
  -26.0251  -28.8312   21.3746 N   0  0  0  0  0  0  0  0  0  0  0  0
  -20.3858  -24.1188   21.7917 N   0  0  0  0  0  0  0  0  0  0  0  0
  -26.2519  -17.9319   23.1132 N   0  0  0  0  0  0  0  0  0  0  0  0
  -21.8657  -27.5941   22.3532 N   0  0  0  0  0  0  0  0  0  0  0  0
  -22.4308  -23.0208   21.3194 N   0  0  0  0  0  0  0  0  0  0  0  0
  -19.3359  -20.2984   19.4737 N   0  0  0  0  0  0  0  0  0  0  0  0
  -28.5237  -27.5942   18.9874 N   0  0  0  0  0  0  0  0  0  0  0  0
  -23.9394  -27.5484   21.2306 N   0  0  0  0  0  0  0  0  0  0  0  0
  -26.3636  -14.9934   21.0926 N   0  0  0  0  0  0  0  0  0  0  0  0
  -25.0856  -19.0490   26.0881 N   0  0  0  0  0  0  0  0  0  0  0  0
  -27.2168  -21.4005   27.8188 N   0  3  0  0  0  0  0  0  0  0  0  0
  -21.5808  -20.5833   19.8453 O   0  0  0  0  0  0  0  0  0  0  0  0
  -25.3850  -17.0801   20.7605 O   0  0  0  0  0  0  0  0  0  0  0  0
  -30.8437  -27.0438   17.3218 O   0  0  0  0  0  0  0  0  0  0  0  0
  -25.6051  -16.5178   24.8504 O   0  0  0  0  0  0  0  0  0  0  0  0
  -25.6440  -21.2195   25.4930 O   0  0  0  0  0  0  0  0  0  0  0  0
  -23.5194  -29.1194   22.8852 O   0  0  0  0  0  0  0  0  0  0  0  0
  -30.0265  -25.2387   19.4612 O   0  0  0  0  0  0  0  0  0  0  0  0
  -13.8226  -21.0978   19.4808 O   0  0  0  0  0  0  0  0  0  0  0  0
  -28.1113  -22.3785   19.2479 O   0  0  0  0  0  0  0  0  0  1  0  0
  -13.1484  -19.2450   14.3314 F   0  0  0  0  0  0  0  0  0  0  0  0
  -12.0183  -22.3001   17.7657 F   0  0  0  0  0  0  0  0  0  0  0  0
  -25.9729  -26.9171   19.6379 S   0  0  0  0  0  0  0  0  0  0  0  0
  1  2  1  0  0  0  0
  1  5  2  0  0  0  0
  2  6  2  0  0  0  0
  3  8  2  0  0  0  0
  3 15  1  0  0  0  0
  4  9  1  0  0  0  0
  4 15  2  0  0  0  0
  5 17  1  0  0  0  0
  6 19  1  0  0  0  0
  7 10  2  0  0  0  0
  7 18  1  0  0  0  0
  8 21  1  0  0  0  0
  9 21  2  0  0  0  0
 10 22  1  0  0  0  0
 11 12  2  0  0  0  0
 11 23  1  0  0  0  0
 12 24  1  0  0  0  0
 13 20  1  0  0  0  0
 13 22  2  0  0  0  0
 14 24  2  0  0  0  0
 14 25  1  0  0  0  0
 15 26  1  0  0  0  0
 16 26  1  0  0  0  0
 16 28  2  0  0  0  0
 16 31  1  0  0  0  0
 17 19  2  0  0  0  0
 17 37  1  0  0  0  0
 18 20  2  0  0  0  0
 18 38  1  0  0  0  0
 19 46  1  0  0  0  0
 20 39  1  0  0  0  0
 21 86  1  0  0  0  0
 22 87  1  0  0  0  0
 23 25  2  0  0  0  0
 23 86  1  0  0  0  0
 24 88  1  0  0  0  0
 25 89  1  0  0  0  0
 26 67  2  0  0  0  0
 27 29  2  0  0  0  0
 27 57  1  0  0  0  0
 27 68  1  0  0  0  0
 28 69  1  0  0  0  0
 28 72  1  0  0  0  0
 29 74  1  0  0  0  0
 29 90  1  0  0  0  0
 30 68  2  0  0  0  0
 30 75  1  0  0  0  0
 30 90  1  0  0  0  0
 31 73  1  0  0  0  0
 31 79  2  0  0  0  0
 32 47  1  0  0  0  0
 32 76  1  0  0  0  0
 32 80  2  0  0  0  0
 33 61  1  0  0  0  0
 33 62  1  0  0  0  0
 33 81  2  0  0  0  0
 34 63  1  0  0  0  0
 34 70  1  0  0  0  0
 34 82  2  0  0  0  0
 35 64  1  0  0  0  0
 35 77  1  0  0  0  0
 35 83  2  0  0  0  0
 36 71  1  0  0  0  0
 36 75  1  0  0  0  0
 36 84  2  0  0  0  0
 37 40  1  0  0  0  0
 38 47  1  0  0  0  0
 39 70  1  0  0  0  0
 40 42  1  0  0  0  0
 41 43  1  0  0  0  0
 41 44  1  0  0  0  0
 42 46  1  0  0  0  0
 43 48  1  0  0  0  0
 44 71  1  0  0  0  0
 45 48  1  0  0  0  0
 45 71  1  0  0  0  0
 46 76  1  0  0  0  0
 47 70  1  0  0  0  0
 48 69  1  0  0  0  0
 49 57  1  0  0  0  0
 50 58  1  0  0  0  0
 51 61  1  0  0  0  0
 52 64  1  0  0  0  0
 53 66  1  0  0  0  0
 54 66  1  0  0  0  0
 55 66  1  0  0  0  0
 56 78  1  0  0  0  0
 58 61  1  0  0  0  0
 59 60  1  0  0  0  0
 59 65  1  0  0  0  0
 60 87  1  0  0  0  0
 62 65  1  0  0  0  0
 62 74  1  0  0  0  0
 63 66  1  0  0  0  0
 63 77  1  0  0  0  0
 64 78  1  0  0  0  0
 65 85  1  0  0  0  0
 67 69  1  0  0  0  0
M  CHG  1  78   1
M  ISO  4  36 100  60 101  75 100  87 101
M  END
> <Batch ID>
0191

> <Smiles>
CCc1nc([100NH:0][100C:0](=O)N2CCCC(n3nc(-c4ccc(Oc5ccc(F)cc5F)cc4)c(C(N)=O)c3N)C2)sc1NC(C(=O)C(C)CC)C(O)C[101CH2:1][101O:1]c1ccc2c(c1)CN(C(=O)C(NC(=O)C(C)NC)C(C)(C)C)C(C(=O)NC1CCCc3ccccc31)C2

> <Shape>
0.179

> <Color>
0.061

> <Negative vol penalty>
0.000

$$$$

  -OEChem-04052305243D

 84 92  0     1  0  0  0  0  0999 V2000
  -27.7782  -10.5445   21.1881 C   0  0  0  0  0  0  0  0  0  0  0  0
  -28.3969  -11.6555   20.6240 C   0  0  0  0  0  0  0  0  0  0  0  0
  -19.2649  -28.0808   21.4289 C   0  0  0  0  0  0  0  0  0  0  0  0
  -20.4330  -27.6308   23.4954 C   0  0  0  0  0  0  0  0  0  0  0  0
  -26.3900  -10.5095   21.3130 C   0  0  0  0  0  0  0  0  0  0  0  0
  -27.6275  -12.7319   20.1834 C   0  0  0  0  0  0  0  0  0  0  0  0
  -29.5483  -17.1997   21.5956 C   0  0  0  0  0  0  0  0  0  0  0  0
  -18.2374  -27.2239   21.8231 C   0  0  0  0  0  0  0  0  0  0  0  0
  -19.4054  -26.7739   23.8896 C   0  0  0  0  0  0  0  0  0  0  0  0
  -30.6327  -17.6856   20.8665 C   0  0  0  0  0  0  0  0  0  0  0  0
  -17.2632  -24.1896   25.2832 C   0  0  0  0  0  0  0  0  0  0  0  0
  -17.6206  -22.9598   25.8359 C   0  0  0  0  0  0  0  0  0  0  0  0
  -29.1474  -19.1317   19.6328 C   0  0  0  0  0  0  0  0  0  0  0  0
  -18.7719  -22.3765   23.7935 C   0  0  0  0  0  0  0  0  0  0  0  0
  -32.2659  -26.5131   17.2465 C   0  0  0  0  0  0  0  0  0  0  0  0
  -20.3628  -28.2842   22.2650 C   0  0  0  0  0  0  0  0  0  0  0  0
  -21.5211  -30.5514   22.1051 C   0  0  0  0  0  0  0  0  0  0  0  0
  -25.6039  -11.5900   20.8826 C   0  0  0  0  0  0  0  0  0  0  0  0
  -28.2516  -17.6689   21.3409 C   0  0  0  0  0  0  0  0  0  0  0  0
  -26.2274  -12.7107   20.3015 C   0  0  0  0  0  0  0  0  0  0  0  0
  -28.0486  -18.6520   20.3619 C   0  0  0  0  0  0  0  0  0  0  0  0
  -31.5001  -27.3388   18.0441 C   0  0  0  0  0  0  0  0  0  0  0  0
  -18.3076  -26.5704   23.0534 C   0  0  0  0  0  0  0  0  0  0  0  0
  -30.4320  -18.6497   19.8829 C   0  0  0  0  0  0  0  0  0  0  0  0
  -17.6600  -24.5128   23.9856 C   0  0  0  0  0  0  0  0  0  0  0  0
  -18.3750  -22.0533   25.0911 C   0  0  0  0  0  0  0  0  0  0  0  0
  -18.4144  -23.6062   23.2408 C   0  0  0  0  0  0  0  0  0  0  0  0
  -21.4248  -29.1689   21.8582 C   0  0  0  0  0  0  0  0  0  0  0  0
  -30.9264  -26.7394   19.1467 C   0  0  0  0  0  0  0  0  0  0  0  0
  -22.7056  -30.9235   21.5176 C   0  0  0  0  0  0  0  0  0  0  0  0
  -31.8511  -24.7357   18.6015 C   0  0  0  0  0  0  0  0  0  0  0  0
  -20.6205  -31.4216   22.8032 C   0  0  0  0  0  0  0  0  0  0  0  0
  -25.5410  -16.3411   20.3443 C   0  0  0  0  0  0  0  0  0  0  0  0
  -24.3255  -19.2830   20.9692 C   0  0  0  0  0  0  0  0  0  0  0  0
  -24.8813  -22.6309   21.3284 C   0  0  0  0  0  0  0  0  0  0  0  0
  -27.6341  -27.8940   20.3399 C   0  0  0  0  0  0  0  0  0  0  0  0
  -24.1035  -11.4865   20.9951 C   0  0  0  0  0  0  0  0  0  0  0  0
  -27.0960  -17.1541   22.1546 C   0  0  0  0  0  0  0  0  0  0  0  0
  -26.6791  -19.2034   20.0638 C   0  0  0  0  0  0  0  0  0  0  0  0
  -23.3876  -12.8265   20.8464 C   0  0  0  0  0  0  0  0  0  0  0  0
  -25.6466  -29.7288   17.9356 C   0  0  0  0  0  0  0  0  0  0  0  0
  -23.9388  -13.5964   19.6505 C   0  0  0  0  0  0  0  0  0  0  0  0
  -24.3393  -29.9224   18.7062 C   0  0  0  0  0  0  0  0  0  0  0  0
  -26.2598  -28.3613   18.2220 C   0  0  0  0  0  0  0  0  0  0  0  0
  -25.1870  -28.2735   20.4390 C   0  0  0  0  0  0  0  0  0  0  0  0
  -25.4289  -13.9084   19.8345 C   0  0  1  0  0  0  0  0  0  0  0  0
  -25.7501  -17.3282   21.4578 C   0  0  1  0  0  0  0  0  0  0  0  0
  -24.5289  -29.6462   20.2095 C   0  0  2  0  0  0  0  0  0  0  0  0
  -23.6867  -24.7866   21.8012 C   0  0  0  0  0  0  0  0  0  0  0  0
  -23.2314  -19.2985   18.1209 C   0  0  0  0  0  0  0  0  0  0  0  0
  -22.9033  -21.7713   18.3347 C   0  0  0  0  0  0  0  0  0  0  0  0
  -21.6681  -20.2159   19.8440 C   0  0  0  0  0  0  0  0  0  0  0  0
  -26.4646  -23.1046   23.7836 C   0  0  0  0  0  0  0  0  0  0  0  0
  -30.0756  -27.5325   20.0841 C   0  0  0  0  0  0  0  0  0  0  0  0
  -32.8265  -22.4996   18.0779 C   0  0  0  0  0  0  0  0  0  0  0  0
  -31.4007  -20.4686   18.6959 C   0  0  0  0  0  0  0  0  0  1  0  0
  -24.1506  -20.5574   20.1791 C   0  0  1  0  0  0  0  0  0  0  0  0
  -24.4483  -23.6146   22.4005 C   0  0  2  0  0  0  0  0  0  0  0  0
  -32.8016  -21.0689   18.6134 C   0  0  2  0  0  0  0  0  0  0  0  0
  -23.0140  -20.4492   19.1237 C   0  0  0  0  0  0  0  0  0  0  0  0
  -32.4634  -25.2020   17.4965 N   0  0  0  0  0  0  0  0  0  0  0  0
  -22.4651  -28.6947   21.1675 N   0  0  0  0  0  0  0  0  0  0  0  0
  -31.0813  -25.4355   19.4567 N   0  0  0  0  0  0  0  0  0  0  0  0
  -23.2263  -29.7855   20.9753 N   0  0  0  0  0  0  0  0  0  0  0  0
  -25.5804  -18.6638   20.8819 N   0  0  0  0  0  0  0  0  0  0  0  0
  -26.4309  -28.1690   19.6690 N   0  0  0  0  0  0  0  0  0  0  0  0
  -31.3294  -28.6940   17.7377 N   0  0  0  0  0  0  0  0  0  0  0  0
  -23.3420  -32.1098   21.4170 N   0  0  0  0  0  0  0  0  0  0  0  0
  -19.4492  -30.8752   23.3454 N   0  0  0  0  0  0  0  0  0  0  0  0
  -32.0322  -23.3929   18.8894 N   0  0  0  0  0  0  0  0  0  0  0  0
  -25.6039  -15.0200   20.7445 N   0  0  0  0  0  0  0  0  0  0  0  0
  -23.9575  -21.6215   21.1583 N   0  0  0  0  0  0  0  0  0  0  0  0
  -28.7649  -27.8043   19.5373 N   0  0  0  0  0  0  0  0  0  0  0  0
  -33.4073  -21.0500   19.9783 N   0  3  0  0  0  0  0  0  0  0  0  0
  -25.6366  -24.1475   23.1250 N   0  3  0  0  0  0  0  0  0  0  0  0
  -20.8396  -32.6504   22.9278 O   0  0  0  0  0  0  0  0  0  0  0  0
  -25.3362  -16.7481   19.2067 O   0  0  0  0  0  0  0  0  0  0  0  0
  -23.3856  -18.8566   21.6448 O   0  0  0  0  0  0  0  0  0  0  0  0
  -25.9321  -22.7485   20.7018 O   0  0  0  0  0  0  0  0  0  0  0  0
  -27.6972  -27.7448   21.5650 O   0  0  0  0  0  0  0  0  0  0  0  0
  -17.3049  -25.7344   23.4385 O   0  0  0  0  0  0  0  0  0  0  0  0
  -31.4886  -19.1253   19.1693 O   0  0  0  0  0  0  0  0  0  1  0  0
  -18.7196  -20.8730   25.6226 F   0  0  0  0  0  0  0  0  0  0  0  0
  -18.7995  -23.9116   21.9941 F   0  0  0  0  0  0  0  0  0  0  0  0
  1  2  1  0  0  0  0
  1  5  2  0  0  0  0
  2  6  2  0  0  0  0
  3  8  2  0  0  0  0
  3 16  1  0  0  0  0
  4  9  1  0  0  0  0
  4 16  2  0  0  0  0
  5 18  1  0  0  0  0
  6 20  1  0  0  0  0
  7 10  2  0  0  0  0
  7 19  1  0  0  0  0
  8 23  1  0  0  0  0
  9 23  2  0  0  0  0
 10 24  1  0  0  0  0
 11 12  2  0  0  0  0
 11 25  1  0  0  0  0
 12 26  1  0  0  0  0
 13 21  1  0  0  0  0
 13 24  2  0  0  0  0
 14 26  2  0  0  0  0
 14 27  1  0  0  0  0
 15 22  1  0  0  0  0
 15 61  2  0  0  0  0
 16 28  1  0  0  0  0
 17 28  1  0  0  0  0
 17 30  2  0  0  0  0
 17 32  1  0  0  0  0
 18 20  2  0  0  0  0
 18 37  1  0  0  0  0
 19 21  2  0  0  0  0
 19 38  1  0  0  0  0
 20 46  1  0  0  0  0
 21 39  1  0  0  0  0
 22 29  2  0  0  0  0
 22 67  1  0  0  0  0
 23 81  1  0  0  0  0
 24 82  1  0  0  0  0
 25 27  2  0  0  0  0
 25 81  1  0  0  0  0
 26 83  1  0  0  0  0
 27 84  1  0  0  0  0
 28 62  2  0  0  0  0
 29 54  1  0  0  0  0
 29 63  1  0  0  0  0
 30 64  1  0  0  0  0
 30 68  1  0  0  0  0
 31 61  1  0  0  0  0
 31 63  2  0  0  0  0
 31 70  1  0  0  0  0
 32 69  1  0  0  0  0
 32 76  2  0  0  0  0
 33 47  1  0  0  0  0
 33 71  1  0  0  0  0
 33 77  2  0  0  0  0
 34 57  1  0  0  0  0
 34 65  1  0  0  0  0
 34 78  2  0  0  0  0
 35 58  1  0  0  0  0
 35 72  1  0  0  0  0
 35 79  2  0  0  0  0
 36 66  1  0  0  0  0
 36 73  1  0  0  0  0
 36 80  2  0  0  0  0
 37 40  1  0  0  0  0
 38 47  1  0  0  0  0
 39 65  1  0  0  0  0
 40 42  1  0  0  0  0
 41 43  1  0  0  0  0
 41 44  1  0  0  0  0
 42 46  1  0  0  0  0
 43 48  1  0  0  0  0
 44 66  1  0  0  0  0
 45 48  1  0  0  0  0
 45 66  1  0  0  0  0
 46 71  1  0  0  0  0
 47 65  1  0  0  0  0
 48 64  1  0  0  0  0
 49 58  1  0  0  0  0
 50 60  1  0  0  0  0
 51 60  1  0  0  0  0
 52 60  1  0  0  0  0
 53 75  1  0  0  0  0
 54 73  1  0  0  0  0
 55 59  1  0  0  0  0
 55 70  1  0  0  0  0
 56 59  1  0  0  0  0
 56 82  1  0  0  0  0
 57 60  1  0  0  0  0
 57 72  1  0  0  0  0
 58 75  1  0  0  0  0
 59 74  1  0  0  0  0
 62 64  1  0  0  0  0
M  CHG  2  74   1  75   1
M  ISO  4  36 100  56 101  73 100  82 101
M  END
> <Batch ID>
0191

> <Smiles>
CNC(C)C(=O)NC(C(=O)N1Cc2cc([101O:1][101CH2:1]C(N)CNc3ncc(N)c(C[100NH:0][100C:0](=O)N4CCCC(n5nc(-c6ccc(Oc7ccc(F)cc7F)cc6)c(C(N)=O)c5N)C4)n3)ccc2CC1C(=O)NC1CCCc2ccccc21)C(C)(C)C

> <Shape>
0.232

> <Color>
0.064

> <Negative vol penalty>
0.000

$$$$

  -OEChem-04052305243D

 85 93  0     1  0  0  0  0  0999 V2000
  -34.3648  -28.9457   11.6712 C   0  0  0  0  0  0  0  0  0  0  0  0
  -34.1297  -28.4073   12.9322 C   0  0  0  0  0  0  0  0  0  0  0  0
  -24.3276   -9.5574   21.4390 C   0  0  0  0  0  0  0  0  0  0  0  0
  -24.8494  -10.6484   23.5306 C   0  0  0  0  0  0  0  0  0  0  0  0
  -34.0123  -30.2675   11.4021 C   0  0  0  0  0  0  0  0  0  0  0  0
  -33.5429  -29.1908   13.9253 C   0  0  0  0  0  0  0  0  0  0  0  0
  -29.9023  -26.7308   16.4430 C   0  0  0  0  0  0  0  0  0  0  0  0
  -23.9903   -8.3937   22.1301 C   0  0  0  0  0  0  0  0  0  0  0  0
  -24.5120   -9.4847   24.2217 C   0  0  0  0  0  0  0  0  0  0  0  0
  -30.3065  -25.8156   17.4141 C   0  0  0  0  0  0  0  0  0  0  0  0
  -22.6471   -5.2513   23.3695 C   0  0  0  0  0  0  0  0  0  0  0  0
  -21.4765   -4.5913   22.9958 C   0  0  0  0  0  0  0  0  0  0  0  0
  -29.8734  -27.4546   19.1303 C   0  0  0  0  0  0  0  0  0  0  0  0
  -20.1916   -6.5649   23.5356 C   0  0  0  0  0  0  0  0  0  0  0  0
  -24.7572  -10.6847   22.1392 C   0  0  0  0  0  0  0  0  0  0  0  0
  -24.2509  -12.9515   21.0841 C   0  0  0  0  0  0  0  0  0  0  0  0
  -33.4121  -31.0647   12.3894 C   0  0  0  0  0  0  0  0  0  0  0  0
  -29.4902  -28.0205   16.8081 C   0  0  0  0  0  0  0  0  0  0  0  0
  -33.1833  -30.5250   13.6695 C   0  0  0  0  0  0  0  0  0  0  0  0
  -29.4620  -28.3833   18.1622 C   0  0  0  0  0  0  0  0  0  0  0  0
  -24.0825   -8.3574   23.5215 C   0  0  0  0  0  0  0  0  0  0  0  0
  -30.2949  -26.1784   18.7577 C   0  0  0  0  0  0  0  0  0  0  0  0
  -22.5900   -6.5680   23.8263 C   0  0  0  0  0  0  0  0  0  0  0  0
  -20.2487   -5.2481   23.0788 C   0  0  0  0  0  0  0  0  0  0  0  0
  -21.3622   -7.2248   23.9094 C   0  0  0  0  0  0  0  0  0  0  0  0
  -25.1064  -11.8869   21.4258 C   0  0  0  0  0  0  0  0  0  0  0  0
  -25.0588  -13.8414   20.4194 C   0  0  0  0  0  0  0  0  0  0  0  0
  -28.8622  -18.9579   20.3059 C   0  0  0  0  0  0  0  0  0  0  0  0
  -28.2677  -21.2348   20.4768 C   0  0  0  0  0  0  0  0  0  0  0  0
  -22.8512  -13.1208   21.3445 C   0  0  0  0  0  0  0  0  0  0  0  0
  -30.5308  -30.9627   16.2044 C   0  0  0  0  0  0  0  0  0  0  0  0
  -27.8310  -31.8221   17.7840 C   0  0  0  0  0  0  0  0  0  0  0  0
  -25.4085  -30.9975   20.0418 C   0  0  0  0  0  0  0  0  0  0  0  0
  -29.8345  -16.6633   19.9371 C   0  0  0  0  0  0  0  0  0  0  0  0
  -33.0918  -32.5026   12.0659 C   0  0  0  0  0  0  0  0  0  0  0  0
  -29.0318  -28.9870   15.7508 C   0  0  0  0  0  0  0  0  0  0  0  0
  -29.0091  -29.7488   18.6080 C   0  0  0  0  0  0  0  0  0  0  0  0
  -32.1317  -33.1512   13.0597 C   0  0  0  0  0  0  0  0  0  0  0  0
  -29.7839  -13.3338   18.6766 C   0  0  0  0  0  0  0  0  0  0  0  0
  -32.5579  -32.8442   14.4918 C   0  0  0  0  0  0  0  0  0  0  0  0
  -28.4921  -12.7482   19.2514 C   0  0  0  0  0  0  0  0  0  0  0  0
  -30.4685  -14.2761   19.6652 C   0  0  0  0  0  0  0  0  0  0  0  0
  -28.3217  -14.7586   20.7732 C   0  0  0  0  0  0  0  0  0  0  0  0
  -32.5261  -31.3356   14.7654 C   0  0  1  0  0  0  0  0  0  0  0  0
  -29.1206  -30.4441   16.1942 C   0  0  1  0  0  0  0  0  0  0  0  0
  -27.5625  -13.8537   19.7891 C   0  0  2  0  0  0  0  0  0  0  0  0
  -25.1109  -25.5287   18.8088 C   0  0  0  0  0  0  0  0  0  0  0  0
  -23.3565  -31.9191   21.1543 C   0  0  0  0  0  0  0  0  0  0  0  0
  -26.3853  -25.0838   21.5277 C   0  0  0  0  0  0  0  0  0  0  0  0
  -31.1700  -25.7252   22.0143 C   0  0  0  0  0  0  0  0  0  0  0  0
  -29.5869  -33.5386   19.5952 C   0  0  0  0  0  0  0  0  0  0  0  0
  -27.6799  -33.6588   21.2130 C   0  0  0  0  0  0  0  0  0  0  0  0
  -27.4285  -34.6057   18.9189 C   0  0  0  0  0  0  0  0  0  0  0  0
  -23.6956  -28.8666   18.9085 C   0  0  0  0  0  0  0  0  0  0  0  0
  -26.1670  -24.4624   19.0672 C   0  0  0  0  0  0  0  0  0  0  0  0
  -29.3355  -24.1109   21.3676 C   0  0  0  0  0  0  0  0  0  0  0  0
  -27.4774  -32.0966   19.2257 C   0  0  1  0  0  0  0  0  0  0  0  0
  -23.8959  -31.1123   19.9834 C   0  0  2  0  0  0  0  0  0  0  0  0
  -27.1377  -24.8150   20.2176 C   0  0  2  0  0  0  0  0  0  0  0  0
  -28.2408  -23.7267   20.3513 C   0  0  2  0  0  0  0  0  0  0  0  0
  -30.0842  -25.4016   20.9956 C   0  0  2  0  0  0  0  0  0  1  0  0
  -28.0536  -33.4497   19.7300 C   0  0  0  0  0  0  0  0  0  0  0  0
  -26.3615  -12.0808   21.0122 N   0  0  0  0  0  0  0  0  0  0  0  0
  -29.7859  -19.7430   19.7936 N   0  0  0  0  0  0  0  0  0  0  0  0
  -29.4376  -21.0786   19.8948 N   0  0  0  0  0  0  0  0  0  0  0  0
  -26.3006  -13.2775   20.4036 N   0  0  0  0  0  0  0  0  0  0  0  0
  -28.5763  -30.6606   17.5362 N   0  0  0  0  0  0  0  0  0  0  0  0
  -29.5286  -15.2993   20.1284 N   0  0  0  0  0  0  0  0  0  0  0  0
  -24.8210  -15.0433   19.8526 N   0  0  0  0  0  0  0  0  0  0  0  0
  -22.1738  -12.1099   22.0399 N   0  0  0  0  0  0  0  0  0  0  0  0
  -28.8515  -17.5434   20.3886 N   0  0  0  0  0  0  0  0  0  0  0  0
  -27.6560  -22.4507   20.7169 N   0  0  0  0  0  0  0  0  0  0  0  0
  -31.1661  -30.8894   14.9795 N   0  0  0  0  0  0  0  0  0  0  0  0
  -26.0248  -31.9948   19.3162 N   0  0  0  0  0  0  0  0  0  0  0  0
  -23.2720  -29.7594   20.0178 N   0  3  0  0  0  0  0  0  0  0  0  0
  -22.2163  -14.1309   20.9571 O   0  0  0  0  0  0  0  0  0  0  0  0
  -31.0067  -31.3985   17.2462 O   0  0  0  0  0  0  0  0  0  0  0  0
  -27.4536  -32.6055   16.9090 O   0  0  0  0  0  0  0  0  0  0  0  0
  -25.9856  -30.1137   20.6715 O   0  0  0  0  0  0  0  0  0  0  0  0
  -30.8783  -17.0234   19.3870 O   0  0  0  0  0  0  0  0  0  0  0  0
  -23.7532   -7.2221   24.1962 O   0  0  0  0  0  0  0  0  0  0  0  0
  -30.6921  -25.2817   19.7135 O   0  0  0  0  0  0  0  0  0  1  0  0
  -19.1248   -4.6148   22.7185 F   0  0  0  0  0  0  0  0  0  0  0  0
  -21.3012   -8.4901   24.3464 F   0  0  0  0  0  0  0  0  0  0  0  0
  -27.4984  -19.7762   20.9480 S   0  0  0  0  0  0  0  0  0  0  0  0
  1  2  1  0  0  0  0
  1  5  2  0  0  0  0
  2  6  2  0  0  0  0
  3  8  2  0  0  0  0
  3 15  1  0  0  0  0
  4  9  1  0  0  0  0
  4 15  2  0  0  0  0
  5 17  1  0  0  0  0
  6 19  1  0  0  0  0
  7 10  2  0  0  0  0
  7 18  1  0  0  0  0
  8 21  1  0  0  0  0
  9 21  2  0  0  0  0
 10 22  1  0  0  0  0
 11 12  2  0  0  0  0
 11 23  1  0  0  0  0
 12 24  1  0  0  0  0
 13 20  1  0  0  0  0
 13 22  2  0  0  0  0
 14 24  2  0  0  0  0
 14 25  1  0  0  0  0
 15 26  1  0  0  0  0
 16 26  1  0  0  0  0
 16 27  2  0  0  0  0
 16 30  1  0  0  0  0
 17 19  2  0  0  0  0
 17 35  1  0  0  0  0
 18 20  2  0  0  0  0
 18 36  1  0  0  0  0
 19 44  1  0  0  0  0
 20 37  1  0  0  0  0
 21 81  1  0  0  0  0
 22 82  1  0  0  0  0
 23 25  2  0  0  0  0
 23 81  1  0  0  0  0
 24 83  1  0  0  0  0
 25 84  1  0  0  0  0
 26 63  2  0  0  0  0
 27 66  1  0  0  0  0
 27 69  1  0  0  0  0
 28 64  2  0  0  0  0
 28 71  1  0  0  0  0
 28 85  1  0  0  0  0
 29 65  2  0  0  0  0
 29 72  1  0  0  0  0
 29 85  1  0  0  0  0
 30 70  1  0  0  0  0
 30 76  2  0  0  0  0
 31 45  1  0  0  0  0
 31 73  1  0  0  0  0
 31 77  2  0  0  0  0
 32 57  1  0  0  0  0
 32 67  1  0  0  0  0
 32 78  2  0  0  0  0
 33 58  1  0  0  0  0
 33 74  1  0  0  0  0
 33 79  2  0  0  0  0
 34 68  1  0  0  0  0
 34 71  1  0  0  0  0
 34 80  2  0  0  0  0
 35 38  1  0  0  0  0
 36 45  1  0  0  0  0
 37 67  1  0  0  0  0
 38 40  1  0  0  0  0
 39 41  1  0  0  0  0
 39 42  1  0  0  0  0
 40 44  1  0  0  0  0
 41 46  1  0  0  0  0
 42 68  1  0  0  0  0
 43 46  1  0  0  0  0
 43 68  1  0  0  0  0
 44 73  1  0  0  0  0
 45 67  1  0  0  0  0
 46 66  1  0  0  0  0
 47 55  1  0  0  0  0
 48 58  1  0  0  0  0
 49 59  1  0  0  0  0
 50 61  1  0  0  0  0
 51 62  1  0  0  0  0
 52 62  1  0  0  0  0
 53 62  1  0  0  0  0
 54 75  1  0  0  0  0
 55 59  1  0  0  0  0
 56 60  1  0  0  0  0
 56 61  1  0  0  0  0
 57 62  1  0  0  0  0
 57 74  1  0  0  0  0
 58 75  1  0  0  0  0
 59 60  1  0  0  0  0
 60 72  1  0  0  0  0
 61 82  1  0  0  0  0
 63 66  1  0  0  0  0
 64 65  1  0  0  0  0
M  CHG  1  75   1
M  ISO  4  34 100  61 101  71 100  82 101
M  END
> <Batch ID>
0191

> <Smiles>
CCC(C)C(C[101CH:1](C)[101O:1]c1ccc2c(c1)CN(C(=O)C(NC(=O)C(C)NC)C(C)(C)C)C(C(=O)NC1CCCc3ccccc31)C2)Nc1nnc([100NH:0][100C:0](=O)N2CCCC(n3nc(-c4ccc(Oc5ccc(F)cc5F)cc4)c(C(N)=O)c3N)C2)s1

> <Shape>
0.242

> <Color>
0.135

> <Negative vol penalty>
0.000

$$$$

  -OEChem-04052305243D

 85 93  0     1  0  0  0  0  0999 V2000
  -17.6879  -25.8437   22.9722 C   0  0  0  0  0  0  0  0  0  0  0  0
  -18.9552  -25.5084   22.5064 C   0  0  0  0  0  0  0  0  0  0  0  0
  -31.6840   -8.6611   18.9127 C   0  0  0  0  0  0  0  0  0  0  0  0
  -32.1686   -9.8777   16.8824 C   0  0  0  0  0  0  0  0  0  0  0  0
  -17.2722  -27.1745   22.9616 C   0  0  0  0  0  0  0  0  0  0  0  0
  -19.8071  -26.5036   22.0286 C   0  0  0  0  0  0  0  0  0  0  0  0
  -25.9055  -26.6949   22.5559 C   0  0  0  0  0  0  0  0  0  0  0  0
  -31.9520   -7.4596   18.2568 C   0  0  0  0  0  0  0  0  0  0  0  0
  -32.4366   -8.6762   16.2265 C   0  0  0  0  0  0  0  0  0  0  0  0
  -26.9340  -26.3557   21.6779 C   0  0  0  0  0  0  0  0  0  0  0  0
  -30.6723   -6.1545   14.8266 C   0  0  0  0  0  0  0  0  0  0  0  0
  -30.1315   -5.9767   13.5533 C   0  0  0  0  0  0  0  0  0  0  0  0
  -27.1027  -28.6627   20.9936 C   0  0  0  0  0  0  0  0  0  0  0  0
  -32.3558   -5.7277   12.6434 C   0  0  0  0  0  0  0  0  0  0  0  0
  -31.7923   -9.8701   18.2255 C   0  0  0  0  0  0  0  0  0  0  0  0
  -32.4293  -11.9196   19.6045 C   0  0  0  0  0  0  0  0  0  0  0  0
  -18.1230  -28.1877   22.4924 C   0  0  0  0  0  0  0  0  0  0  0  0
  -25.4598  -28.0211   22.6515 C   0  0  0  0  0  0  0  0  0  0  0  0
  -19.4018  -27.8490   22.0104 C   0  0  0  0  0  0  0  0  0  0  0  0
  -26.0702  -29.0166   21.8754 C   0  0  0  0  0  0  0  0  0  0  0  0
  -32.3283   -7.4671   16.9137 C   0  0  0  0  0  0  0  0  0  0  0  0
  -27.5308  -27.3391   20.8945 C   0  0  0  0  0  0  0  0  0  0  0  0
  -32.0548   -6.1190   15.0084 C   0  0  0  0  0  0  0  0  0  0  0  0
  -30.9732   -5.7633   12.4617 C   0  0  0  0  0  0  0  0  0  0  0  0
  -32.8966   -5.9056   13.9168 C   0  0  0  0  0  0  0  0  0  0  0  0
  -31.5150  -11.1116   18.9023 C   0  0  0  0  0  0  0  0  0  0  0  0
  -31.6769  -12.9759   20.0568 C   0  0  0  0  0  0  0  0  0  0  0  0
  -29.3685  -18.8875   19.4382 C   0  0  0  0  0  0  0  0  0  0  0  0
  -30.5015  -20.9414   19.6924 C   0  0  0  0  0  0  0  0  0  0  0  0
  -33.8331  -11.7322   19.8277 C   0  0  0  0  0  0  0  0  0  0  0  0
  -22.7031  -29.5059   22.1037 C   0  0  0  0  0  0  0  0  0  0  0  0
  -24.2751  -32.0538   23.3525 C   0  0  0  0  0  0  0  0  0  0  0  0
  -27.2553  -33.5803   24.0124 C   0  0  0  0  0  0  0  0  0  0  0  0
  -27.8202  -16.9095   19.2465 C   0  0  0  0  0  0  0  0  0  0  0  0
  -17.6117  -29.6062   22.4564 C   0  0  0  0  0  0  0  0  0  0  0  0
  -24.3674  -28.3753   23.6229 C   0  0  0  0  0  0  0  0  0  0  0  0
  -25.6420  -30.4584   21.9554 C   0  0  0  0  0  0  0  0  0  0  0  0
  -18.7147  -30.6470   22.2826 C   0  0  0  0  0  0  0  0  0  0  0  0
  -26.6618  -13.6588   20.1230 C   0  0  0  0  0  0  0  0  0  0  0  0
  -19.6720  -30.2297   21.1707 C   0  0  0  0  0  0  0  0  0  0  0  0
  -27.8964  -12.7728   19.9413 C   0  0  0  0  0  0  0  0  0  0  0  0
  -26.5914  -14.7574   19.0638 C   0  0  0  0  0  0  0  0  0  0  0  0
  -29.0354  -14.6952   18.7608 C   0  0  0  0  0  0  0  0  0  0  0  0
  -20.3639  -28.9033   21.5074 C   0  0  1  0  0  0  0  0  0  0  0  0
  -23.6446  -29.6697   23.2633 C   0  0  1  0  0  0  0  0  0  0  0  0
  -29.1842  -13.6139   19.8435 C   0  0  2  0  0  0  0  0  0  0  0  0
  -28.2190  -35.6726   25.0077 C   0  0  0  0  0  0  0  0  0  0  0  0
  -33.4519  -24.1133   19.6297 C   0  0  0  0  0  0  0  0  0  0  0  0
  -32.8153  -23.4129   21.9363 C   0  0  0  0  0  0  0  0  0  0  0  0
  -23.5101  -33.6005   20.8360 C   0  0  0  0  0  0  0  0  0  0  0  0
  -25.2512  -35.2974   21.4338 C   0  0  0  0  0  0  0  0  0  0  0  0
  -23.3182  -34.9050   22.9610 C   0  0  0  0  0  0  0  0  0  0  0  0
  -28.6935  -32.0607   26.1055 C   0  0  0  0  0  0  0  0  0  0  0  0
  -30.0101  -25.4415   18.9376 C   0  0  0  0  0  0  0  0  0  0  0  0
  -28.9261  -25.6391   19.9894 C   0  0  0  0  0  0  0  0  0  1  0  0
  -25.1378  -33.1580   22.7907 C   0  0  1  0  0  0  0  0  0  0  0  0
  -27.7941  -34.2363   25.2708 C   0  0  2  0  0  0  0  0  0  0  0  0
  -32.3046  -24.0714   20.6504 C   0  0  0  0  0  0  0  0  0  0  0  0
  -31.0624  -23.3441   20.0643 C   0  0  1  0  0  0  0  0  0  0  0  0
  -30.4977  -23.9892   18.7777 C   0  0  1  0  0  0  0  0  0  0  0  0
  -24.3113  -34.2128   22.0022 C   0  0  0  0  0  0  0  0  0  0  0  0
  -30.2765  -11.6116   18.9058 N   0  0  0  0  0  0  0  0  0  0  0  0
  -28.5374  -19.8739   19.6994 N   0  0  0  0  0  0  0  0  0  0  0  0
  -29.2019  -21.0788   19.8475 N   0  0  0  0  0  0  0  0  0  0  0  0
  -30.4072  -12.7452   19.6157 N   0  0  0  0  0  0  0  0  0  0  0  0
  -24.5657  -30.7536   22.9156 N   0  0  0  0  0  0  0  0  0  0  0  0
  -27.8442  -15.5152   19.0314 N   0  0  0  0  0  0  0  0  0  0  0  0
  -31.9843  -14.0703   20.7851 N   0  0  0  0  0  0  0  0  0  0  0  0
  -34.4484  -10.5923   19.2924 N   0  0  0  0  0  0  0  0  0  0  0  0
  -29.0749  -17.5178   19.2250 N   0  0  0  0  0  0  0  0  0  0  0  0
  -31.4236  -21.9644   19.7829 N   0  0  0  0  0  0  0  0  0  0  0  0
  -21.4275  -29.1169   22.4653 N   0  0  0  0  0  0  0  0  0  0  0  0
  -25.8854  -33.7053   23.9176 N   0  0  0  0  0  0  0  0  0  0  0  0
  -28.9739  -33.4834   25.7829 N   0  3  0  0  0  0  0  0  0  0  0  0
  -34.5181  -12.5429   20.4963 O   0  0  0  0  0  0  0  0  0  0  0  0
  -23.1040  -29.7182   20.9653 O   0  0  0  0  0  0  0  0  0  0  0  0
  -23.3811  -32.3338   24.1550 O   0  0  0  0  0  0  0  0  0  0  0  0
  -27.9778  -33.0167   23.1933 O   0  0  0  0  0  0  0  0  0  0  0  0
  -26.7672  -17.5147   19.4630 O   0  0  0  0  0  0  0  0  0  0  0  0
  -29.4081  -23.1984   18.2969 O   0  0  0  0  0  0  0  0  0  0  0  0
  -32.5901   -6.2950   16.2734 O   0  0  0  0  0  0  0  0  0  0  0  0
  -28.5345  -27.0105   20.0362 O   0  0  0  0  0  0  0  0  0  1  0  0
  -30.4537   -5.5910   11.2391 F   0  0  0  0  0  0  0  0  0  0  0  0
  -34.2255   -5.8693   14.0855 F   0  0  0  0  0  0  0  0  0  0  0  0
  -31.0201  -19.3421   19.3540 S   0  0  0  0  0  0  0  0  0  0  0  0
  1  2  1  0  0  0  0
  1  5  2  0  0  0  0
  2  6  2  0  0  0  0
  3  8  2  0  0  0  0
  3 15  1  0  0  0  0
  4  9  1  0  0  0  0
  4 15  2  0  0  0  0
  5 17  1  0  0  0  0
  6 19  1  0  0  0  0
  7 10  2  0  0  0  0
  7 18  1  0  0  0  0
  8 21  1  0  0  0  0
  9 21  2  0  0  0  0
 10 22  1  0  0  0  0
 11 12  2  0  0  0  0
 11 23  1  0  0  0  0
 12 24  1  0  0  0  0
 13 20  1  0  0  0  0
 13 22  2  0  0  0  0
 14 24  2  0  0  0  0
 14 25  1  0  0  0  0
 15 26  1  0  0  0  0
 16 26  1  0  0  0  0
 16 27  2  0  0  0  0
 16 30  1  0  0  0  0
 17 19  2  0  0  0  0
 17 35  1  0  0  0  0
 18 20  2  0  0  0  0
 18 36  1  0  0  0  0
 19 44  1  0  0  0  0
 20 37  1  0  0  0  0
 21 81  1  0  0  0  0
 22 82  1  0  0  0  0
 23 25  2  0  0  0  0
 23 81  1  0  0  0  0
 24 83  1  0  0  0  0
 25 84  1  0  0  0  0
 26 62  2  0  0  0  0
 27 65  1  0  0  0  0
 27 68  1  0  0  0  0
 28 63  2  0  0  0  0
 28 70  1  0  0  0  0
 28 85  1  0  0  0  0
 29 64  2  0  0  0  0
 29 71  1  0  0  0  0
 29 85  1  0  0  0  0
 30 69  1  0  0  0  0
 30 75  2  0  0  0  0
 31 45  1  0  0  0  0
 31 72  1  0  0  0  0
 31 76  2  0  0  0  0
 32 56  1  0  0  0  0
 32 66  1  0  0  0  0
 32 77  2  0  0  0  0
 33 57  1  0  0  0  0
 33 73  1  0  0  0  0
 33 78  2  0  0  0  0
 34 67  1  0  0  0  0
 34 70  1  0  0  0  0
 34 79  2  0  0  0  0
 35 38  1  0  0  0  0
 36 45  1  0  0  0  0
 37 66  1  0  0  0  0
 38 40  1  0  0  0  0
 39 41  1  0  0  0  0
 39 42  1  0  0  0  0
 40 44  1  0  0  0  0
 41 46  1  0  0  0  0
 42 67  1  0  0  0  0
 43 46  1  0  0  0  0
 43 67  1  0  0  0  0
 44 72  1  0  0  0  0
 45 66  1  0  0  0  0
 46 65  1  0  0  0  0
 47 57  1  0  0  0  0
 48 58  1  0  0  0  0
 49 58  1  0  0  0  0
 50 61  1  0  0  0  0
 51 61  1  0  0  0  0
 52 61  1  0  0  0  0
 53 74  1  0  0  0  0
 54 55  1  0  0  0  0
 54 60  1  0  0  0  0
 55 82  1  0  0  0  0
 56 61  1  0  0  0  0
 56 73  1  0  0  0  0
 57 74  1  0  0  0  0
 58 59  1  0  0  0  0
 59 60  1  0  0  0  0
 59 71  1  0  0  0  0
 60 80  1  0  0  0  0
 62 65  1  0  0  0  0
 63 64  1  0  0  0  0
M  CHG  1  74   1
M  ISO  4  34 100  55 101  70 100  82 101
M  END
> <Batch ID>
0191

> <Smiles>
CNC(C)C(=O)NC(C(=O)N1Cc2cc([101O:1][101CH2:1]CC(O)C(Nc3nnc([100NH:0][100C:0](=O)N4CCCC(n5nc(-c6ccc(Oc7ccc(F)cc7F)cc6)c(C(N)=O)c5N)C4)s3)C(C)C)ccc2CC1C(=O)NC1CCCc2ccccc21)C(C)(C)C

> <Shape>
0.268

> <Color>
0.109

> <Negative vol penalty>
0.000

$$$$

  -OEChem-04052305243D

 84 92  0     1  0  0  0  0  0999 V2000
  -35.8005  -20.8745   21.8706 C   0  0  0  0  0  0  0  0  0  0  0  0
  -34.4781  -20.6991   22.2654 C   0  0  0  0  0  0  0  0  0  0  0  0
  -23.0012   -9.8923   19.9832 C   0  0  0  0  0  0  0  0  0  0  0  0
  -23.7282   -9.9477   22.2865 C   0  0  0  0  0  0  0  0  0  0  0  0
  -36.6303  -21.7399   22.5822 C   0  0  0  0  0  0  0  0  0  0  0  0
  -33.9850  -21.3881   23.3729 C   0  0  0  0  0  0  0  0  0  0  0  0
  -29.4163  -23.4036   22.5309 C   0  0  0  0  0  0  0  0  0  0  0  0
  -22.2363   -8.7572   20.2519 C   0  0  0  0  0  0  0  0  0  0  0  0
  -22.9633   -8.8126   22.5553 C   0  0  0  0  0  0  0  0  0  0  0  0
  -28.3206  -22.5434   22.5875 C   0  0  0  0  0  0  0  0  0  0  0  0
  -23.2115   -5.4733   22.0883 C   0  0  0  0  0  0  0  0  0  0  0  0
  -23.8009   -4.4580   22.8414 C   0  0  0  0  0  0  0  0  0  0  0  0
  -27.8396  -23.3125   24.8227 C   0  0  0  0  0  0  0  0  0  0  0  0
  -22.0781   -4.7013   24.5177 C   0  0  0  0  0  0  0  0  0  0  0  0
  -31.1757  -17.4695   24.3164 C   0  0  0  0  0  0  0  0  0  0  0  0
  -23.7472  -10.4875   21.0005 C   0  0  0  0  0  0  0  0  0  0  0  0
  -24.1291  -13.0033   20.8203 C   0  0  0  0  0  0  0  0  0  0  0  0
  -36.1445  -22.4473   23.6932 C   0  0  0  0  0  0  0  0  0  0  0  0
  -29.7388  -24.2183   23.6258 C   0  0  0  0  0  0  0  0  0  0  0  0
  -34.8095  -22.2628   24.1009 C   0  0  0  0  0  0  0  0  0  0  0  0
  -28.9384  -24.1842   24.7766 C   0  0  0  0  0  0  0  0  0  0  0  0
  -22.2173   -8.2174   21.5379 C   0  0  0  0  0  0  0  0  0  0  0  0
  -27.5338  -22.4956   23.7345 C   0  0  0  0  0  0  0  0  0  0  0  0
  -22.0554   -6.1027   22.5498 C   0  0  0  0  0  0  0  0  0  0  0  0
  -23.2343   -4.0720   24.0561 C   0  0  0  0  0  0  0  0  0  0  0  0
  -21.4887   -5.7166   23.7645 C   0  0  0  0  0  0  0  0  0  0  0  0
  -24.5379  -11.6597   20.7234 C   0  0  0  0  0  0  0  0  0  0  0  0
  -30.3804  -17.3561   23.1954 C   0  0  0  0  0  0  0  0  0  0  0  0
  -25.2377  -13.7267   20.4539 C   0  0  0  0  0  0  0  0  0  0  0  0
  -28.8878  -18.1767   24.5771 C   0  0  0  0  0  0  0  0  0  0  0  0
  -22.8608  -13.5487   21.2070 C   0  0  0  0  0  0  0  0  0  0  0  0
  -32.2424  -24.4794   25.5669 C   0  0  0  0  0  0  0  0  0  0  0  0
  -30.6043  -27.0400   26.6993 C   0  0  0  0  0  0  0  0  0  0  0  0
  -27.6003  -28.6058   27.1124 C   0  0  0  0  0  0  0  0  0  0  0  0
  -30.7330  -14.6687   20.6964 C   0  0  0  0  0  0  0  0  0  0  0  0
  -37.0924  -23.3355   24.4594 C   0  0  0  0  0  0  0  0  0  0  0  0
  -30.9082  -25.1603   23.5390 C   0  0  0  0  0  0  0  0  0  0  0  0
  -29.2302  -25.0532   25.9716 C   0  0  0  0  0  0  0  0  0  0  0  0
  -36.3879  -24.3137   25.3959 C   0  0  0  0  0  0  0  0  0  0  0  0
  -29.5935  -12.2400   18.3556 C   0  0  0  0  0  0  0  0  0  0  0  0
  -35.3086  -23.5979   26.2019 C   0  0  0  0  0  0  0  0  0  0  0  0
  -28.1457  -11.9791   18.7748 C   0  0  0  0  0  0  0  0  0  0  0  0
  -30.4966  -12.4784   19.5637 C   0  0  0  0  0  0  0  0  0  0  0  0
  -28.5866  -13.2735   20.9029 C   0  0  0  0  0  0  0  0  0  0  0  0
  -34.2310  -23.0114   25.2820 C   0  0  1  0  0  0  0  0  0  0  0  0
  -31.4481  -25.5701   24.9057 C   0  0  1  0  0  0  0  0  0  0  0  0
  -27.6268  -13.0828   19.7159 C   0  0  2  0  0  0  0  0  0  0  0  0
  -30.6622  -17.8837   20.7452 C   0  0  0  0  0  0  0  0  0  0  0  0
  -26.5740  -30.6673   28.1097 C   0  0  0  0  0  0  0  0  0  0  0  0
  -25.8673  -17.3571   24.1521 C   0  0  0  0  0  0  0  0  0  0  0  0
  -30.8810  -25.8270   29.4853 C   0  0  0  0  0  0  0  0  0  0  0  0
  -29.0748  -27.3764   30.2633 C   0  0  0  0  0  0  0  0  0  0  0  0
  -31.2188  -28.3031   29.3873 C   0  0  0  0  0  0  0  0  0  0  0  0
  -26.6017  -29.5222   24.4815 C   0  0  0  0  0  0  0  0  0  0  0  0
  -26.1072  -21.1469   25.0769 C   0  0  0  0  0  0  0  0  0  1  0  0
  -30.8140  -16.8495   21.8782 C   0  0  2  0  0  0  0  0  0  0  0  0
  -29.5722  -27.2564   27.7795 C   0  0  1  0  0  0  0  0  0  0  0  0
  -27.1679  -30.0387   26.8587 C   0  0  2  0  0  0  0  0  0  0  0  0
  -26.4781  -18.7506   24.2777 C   0  0  1  0  0  0  0  0  0  0  0  0
  -25.4977  -19.7569   24.9024 C   0  0  1  0  0  0  0  0  0  0  0  0
  -30.1821  -27.1728   29.2073 C   0  0  0  0  0  0  0  0  0  0  0  0
  -25.8070  -11.5342   20.3264 N   0  0  0  0  0  0  0  0  0  0  0  0
  -29.0680  -17.7607   23.3431 N   0  0  0  0  0  0  0  0  0  0  0  0
  -26.2052  -12.8082   20.1705 N   0  0  0  0  0  0  0  0  0  0  0  0
  -30.3880  -25.9530   25.8405 N   0  0  0  0  0  0  0  0  0  0  0  0
  -29.9492  -13.5377   20.4146 N   0  0  0  0  0  0  0  0  0  0  0  0
  -25.4694  -15.0526   20.3496 N   0  0  0  0  0  0  0  0  0  0  0  0
  -21.8304  -12.6637   21.5528 N   0  0  0  0  0  0  0  0  0  0  0  0
  -27.6874  -18.6526   25.0709 N   0  0  0  0  0  0  0  0  0  0  0  0
  -33.3308  -24.0510   24.8312 N   0  0  0  0  0  0  0  0  0  0  0  0
  -28.9274  -28.5300   27.4788 N   0  0  0  0  0  0  0  0  0  0  0  0
  -30.1361  -15.6279   21.5053 N   0  0  0  0  0  0  0  0  0  0  0  0
  -26.1439  -30.0870   25.7770 N   0  3  0  0  0  0  0  0  0  0  0  0
  -22.6425  -14.7837   21.2291 O   0  0  0  0  0  0  0  0  0  0  0  0
  -31.8944  -24.0588   26.6640 O   0  0  0  0  0  0  0  0  0  0  0  0
  -31.5633  -27.8115   26.6159 O   0  0  0  0  0  0  0  0  0  0  0  0
  -26.8361  -27.6497   27.0007 O   0  0  0  0  0  0  0  0  0  0  0  0
  -31.8779  -14.8154   20.2551 O   0  0  0  0  0  0  0  0  0  0  0  0
  -25.0604  -19.2763   26.1747 O   0  0  0  0  0  0  0  0  0  0  0  0
  -21.4709   -7.1099   21.8005 O   0  0  0  0  0  0  0  0  0  0  0  0
  -26.4641  -21.6563   23.7926 O   0  0  0  0  0  0  0  0  0  1  0  0
  -23.7996   -3.0959   24.7786 F   0  0  0  0  0  0  0  0  0  0  0  0
  -20.3774   -6.3168   24.2126 F   0  0  0  0  0  0  0  0  0  0  0  0
  -30.2540  -18.1094   25.6134 S   0  0  0  0  0  0  0  0  0  0  0  0
  1  2  1  0  0  0  0
  1  5  2  0  0  0  0
  2  6  2  0  0  0  0
  3  8  2  0  0  0  0
  3 16  1  0  0  0  0
  4  9  1  0  0  0  0
  4 16  2  0  0  0  0
  5 18  1  0  0  0  0
  6 20  1  0  0  0  0
  7 10  2  0  0  0  0
  7 19  1  0  0  0  0
  8 22  1  0  0  0  0
  9 22  2  0  0  0  0
 10 23  1  0  0  0  0
 11 12  2  0  0  0  0
 11 24  1  0  0  0  0
 12 25  1  0  0  0  0
 13 21  1  0  0  0  0
 13 23  2  0  0  0  0
 14 25  2  0  0  0  0
 14 26  1  0  0  0  0
 15 28  2  0  0  0  0
 15 84  1  0  0  0  0
 16 27  1  0  0  0  0
 17 27  1  0  0  0  0
 17 29  2  0  0  0  0
 17 31  1  0  0  0  0
 18 20  2  0  0  0  0
 18 36  1  0  0  0  0
 19 21  2  0  0  0  0
 19 37  1  0  0  0  0
 20 45  1  0  0  0  0
 21 38  1  0  0  0  0
 22 80  1  0  0  0  0
 23 81  1  0  0  0  0
 24 26  2  0  0  0  0
 24 80  1  0  0  0  0
 25 82  1  0  0  0  0
 26 83  1  0  0  0  0
 27 62  2  0  0  0  0
 28 56  1  0  0  0  0
 28 63  1  0  0  0  0
 29 64  1  0  0  0  0
 29 67  1  0  0  0  0
 30 63  2  0  0  0  0
 30 69  1  0  0  0  0
 30 84  1  0  0  0  0
 31 68  1  0  0  0  0
 31 74  2  0  0  0  0
 32 46  1  0  0  0  0
 32 70  1  0  0  0  0
 32 75  2  0  0  0  0
 33 57  1  0  0  0  0
 33 65  1  0  0  0  0
 33 76  2  0  0  0  0
 34 58  1  0  0  0  0
 34 71  1  0  0  0  0
 34 77  2  0  0  0  0
 35 66  1  0  0  0  0
 35 72  1  0  0  0  0
 35 78  2  0  0  0  0
 36 39  1  0  0  0  0
 37 46  1  0  0  0  0
 38 65  1  0  0  0  0
 39 41  1  0  0  0  0
 40 42  1  0  0  0  0
 40 43  1  0  0  0  0
 41 45  1  0  0  0  0
 42 47  1  0  0  0  0
 43 66  1  0  0  0  0
 44 47  1  0  0  0  0
 44 66  1  0  0  0  0
 45 70  1  0  0  0  0
 46 65  1  0  0  0  0
 47 64  1  0  0  0  0
 48 56  1  0  0  0  0
 49 58  1  0  0  0  0
 50 59  1  0  0  0  0
 51 61  1  0  0  0  0
 52 61  1  0  0  0  0
 53 61  1  0  0  0  0
 54 73  1  0  0  0  0
 55 60  1  0  0  0  0
 55 81  1  0  0  0  0
 56 72  1  0  0  0  0
 57 61  1  0  0  0  0
 57 71  1  0  0  0  0
 58 73  1  0  0  0  0
 59 60  1  0  0  0  0
 59 69  1  0  0  0  0
 60 79  1  0  0  0  0
 62 64  1  0  0  0  0
M  CHG  1  73   1
M  ISO  4  35 100  55 101  72 100  81 101
M  END
> <Batch ID>
0191

> <Smiles>
CNC(C)C(=O)NC(C(=O)N1Cc2cc([101O:1][101CH2:1]C(O)C(C)Nc3nc(C(C)[100NH:0][100C:0](=O)N4CCCC(n5nc(-c6ccc(Oc7ccc(F)cc7F)cc6)c(C(N)=O)c5N)C4)cs3)ccc2CC1C(=O)NC1CCCc2ccccc21)C(C)(C)C

> <Shape>
0.197

> <Color>
0.189

> <Negative vol penalty>
0.000

$$$$

  -OEChem-04052305243D

 85 93  0     1  0  0  0  0  0999 V2000
  -17.8544  -24.5688   27.2938 C   0  0  0  0  0  0  0  0  0  0  0  0
  -18.6848  -23.5926   26.7526 C   0  0  0  0  0  0  0  0  0  0  0  0
  -26.6594  -13.0349   20.4219 C   0  0  0  0  0  0  0  0  0  0  0  0
  -25.0766  -14.6684   19.6076 C   0  0  0  0  0  0  0  0  0  0  0  0
  -17.5630  -25.7188   26.5614 C   0  0  0  0  0  0  0  0  0  0  0  0
  -19.2235  -23.7655   25.4781 C   0  0  0  0  0  0  0  0  0  0  0  0
  -25.0804  -22.2537   21.6404 C   0  0  0  0  0  0  0  0  0  0  0  0
  -25.7181  -12.0246   20.2252 C   0  0  0  0  0  0  0  0  0  0  0  0
  -24.1352  -13.6581   19.4109 C   0  0  0  0  0  0  0  0  0  0  0  0
  -25.4543  -21.6723   20.4296 C   0  0  0  0  0  0  0  0  0  0  0  0
  -22.9838  -10.8255   21.8097 C   0  0  0  0  0  0  0  0  0  0  0  0
  -22.8220   -9.8846   22.8266 C   0  0  0  0  0  0  0  0  0  0  0  0
  -24.9454  -23.7358   19.2885 C   0  0  0  0  0  0  0  0  0  0  0  0
  -23.4451   -8.1227   21.2953 C   0  0  0  0  0  0  0  0  0  0  0  0
  -28.6711  -24.8593   20.3235 C   0  0  0  0  0  0  0  0  0  0  0  0
  -26.3387  -14.3568   20.1132 C   0  0  0  0  0  0  0  0  0  0  0  0
  -28.2652  -15.8656   19.3924 C   0  0  0  0  0  0  0  0  0  0  0  0
  -18.1061  -25.9103   25.2811 C   0  0  0  0  0  0  0  0  0  0  0  0
  -24.6250  -23.5793   21.6828 C   0  0  0  0  0  0  0  0  0  0  0  0
  -18.9380  -24.9185   24.7273 C   0  0  0  0  0  0  0  0  0  0  0  0
  -24.5687  -24.3325   20.5014 C   0  0  0  0  0  0  0  0  0  0  0  0
  -24.4559  -12.3362   19.7197 C   0  0  0  0  0  0  0  0  0  0  0  0
  -25.3841  -22.4124   19.2530 C   0  0  0  0  0  0  0  0  0  0  0  0
  -23.3762  -10.4151   20.5356 C   0  0  0  0  0  0  0  0  0  0  0  0
  -23.0527   -8.5331   22.5694 C   0  0  0  0  0  0  0  0  0  0  0  0
  -23.6069   -9.0637   20.2784 C   0  0  0  0  0  0  0  0  0  0  0  0
  -27.3105  -15.4010   20.3167 C   0  0  0  0  0  0  0  0  0  0  0  0
  -29.3390  -23.6682   20.5170 C   0  0  0  0  0  0  0  0  0  0  0  0
  -28.9400  -16.8556   20.0641 C   0  0  0  0  0  0  0  0  0  0  0  0
  -29.1984  -23.6159   18.3289 C   0  0  0  0  0  0  0  0  0  0  0  0
  -28.5194  -15.4405   18.0469 C   0  0  0  0  0  0  0  0  0  0  0  0
  -21.9043  -24.9906   22.5254 C   0  0  0  0  0  0  0  0  0  0  0  0
  -23.6133  -27.7037   22.0346 C   0  0  0  0  0  0  0  0  0  0  0  0
  -26.2459  -29.2299   20.4895 C   0  0  0  0  0  0  0  0  0  0  0  0
  -28.9598  -21.3462   23.3776 C   0  0  0  0  0  0  0  0  0  0  0  0
  -17.7244  -27.1479   24.5083 C   0  0  0  0  0  0  0  0  0  0  0  0
  -24.2507  -24.2003   23.0006 C   0  0  0  0  0  0  0  0  0  0  0  0
  -24.1060  -25.7658   20.4960 C   0  0  0  0  0  0  0  0  0  0  0  0
  -18.6364  -27.4272   23.3165 C   0  0  0  0  0  0  0  0  0  0  0  0
  -28.8702  -18.1542   24.9524 C   0  0  0  0  0  0  0  0  0  0  0  0
  -18.8661  -26.1530   22.5099 C   0  0  0  0  0  0  0  0  0  0  0  0
  -28.5292  -17.1932   23.8121 C   0  0  0  0  0  0  0  0  0  0  0  0
  -28.1451  -19.4896   24.8009 C   0  0  0  0  0  0  0  0  0  0  0  0
  -27.9972  -19.1940   22.3587 C   0  0  0  0  0  0  0  0  0  0  0  0
  -19.5614  -25.0811   23.3580 C   0  0  1  0  0  0  0  0  0  0  0  0
  -23.3137  -25.3952   22.8534 C   0  0  1  0  0  0  0  0  0  0  0  0
  -28.7481  -17.8538   22.4377 C   0  0  2  0  0  0  0  0  0  0  0  0
  -27.8764  -31.0518   19.9241 C   0  0  0  0  0  0  0  0  0  0  0  0
  -29.6933  -19.3938   16.5112 C   0  0  0  0  0  0  0  0  0  0  0  0
  -30.4920  -22.0671   15.2124 C   0  0  0  0  0  0  0  0  0  0  0  0
  -21.3839  -28.6207   20.1641 C   0  0  0  0  0  0  0  0  0  0  0  0
  -22.9536  -30.3443   19.2513 C   0  0  0  0  0  0  0  0  0  0  0  0
  -22.2950  -30.4088   21.6565 C   0  0  0  0  0  0  0  0  0  0  0  0
  -28.0666  -28.4409   22.6852 C   0  0  0  0  0  0  0  0  0  0  0  0
  -29.7486  -23.1112   21.8215 C   0  0  0  0  0  0  0  0  0  0  0  0
  -26.5602  -20.0240   16.7027 C   0  0  0  0  0  0  0  0  0  0  0  0
  -27.6977  -20.8556   16.0967 C   0  0  0  0  0  0  0  0  0  0  0  0
  -26.1920  -20.4915   18.1070 C   0  0  0  0  0  0  0  0  0  1  0  0
  -23.8726  -28.6046   20.8513 C   0  0  1  0  0  0  0  0  0  0  0  0
  -27.3294  -30.1510   21.0205 C   0  0  2  0  0  0  0  0  0  0  0  0
  -29.0377  -20.7379   16.8631 C   0  0  2  0  0  0  0  0  0  0  0  0
  -29.9825  -21.9469   16.6480 C   0  0  2  0  0  0  0  0  0  0  0  0
  -22.6332  -29.4670   20.4803 C   0  0  0  0  0  0  0  0  0  0  0  0
  -27.3703  -16.0428   21.4865 N   0  0  0  0  0  0  0  0  0  0  0  0
  -29.6418  -22.9536   19.3744 N   0  0  0  0  0  0  0  0  0  0  0  0
  -28.3708  -16.9209   21.3018 N   0  0  0  0  0  0  0  0  0  0  0  0
  -23.7449  -26.3262   21.8087 N   0  0  0  0  0  0  0  0  0  0  0  0
  -28.3951  -20.0639   23.4766 N   0  0  0  0  0  0  0  0  0  0  0  0
  -29.9588  -17.6678   19.7109 N   0  0  0  0  0  0  0  0  0  0  0  0
  -27.7333  -14.4109   17.5118 N   0  0  0  0  0  0  0  0  0  0  0  0
  -29.3316  -23.1866   17.0212 N   0  0  0  0  0  0  0  0  0  0  0  0
  -20.9750  -25.3681   23.4757 N   0  0  0  0  0  0  0  0  0  0  0  0
  -25.0630  -29.3804   21.1820 N   0  0  0  0  0  0  0  0  0  0  0  0
  -29.1696  -21.8129   22.0857 N   0  0  0  0  0  0  0  0  0  0  0  0
  -28.4575  -29.3545   21.5808 N   0  3  0  0  0  0  0  0  0  0  0  0
  -29.4278  -15.9470   17.3457 O   0  0  0  0  0  0  0  0  0  0  0  0
  -21.6767  -24.3824   21.4862 O   0  0  0  0  0  0  0  0  0  0  0  0
  -23.3124  -28.2041   23.1212 O   0  0  0  0  0  0  0  0  0  0  0  0
  -26.4292  -28.4571   19.5515 O   0  0  0  0  0  0  0  0  0  0  0  0
  -29.2600  -22.0227   24.3671 O   0  0  0  0  0  0  0  0  0  0  0  0
  -23.5372  -11.3506   19.5274 O   0  0  0  0  0  0  0  0  0  0  0  0
  -25.7479  -21.8472   18.0698 O   0  0  0  0  0  0  0  0  0  1  0  0
  -22.8988   -7.6298   23.5464 F   0  0  0  0  0  0  0  0  0  0  0  0
  -23.9851   -8.6635   19.0567 F   0  0  0  0  0  0  0  0  0  0  0  0
  -28.4081  -25.1056   18.6468 S   0  0  0  0  0  0  0  0  0  0  0  0
  1  2  1  0  0  0  0
  1  5  2  0  0  0  0
  2  6  2  0  0  0  0
  3  8  2  0  0  0  0
  3 16  1  0  0  0  0
  4  9  1  0  0  0  0
  4 16  2  0  0  0  0
  5 18  1  0  0  0  0
  6 20  1  0  0  0  0
  7 10  2  0  0  0  0
  7 19  1  0  0  0  0
  8 22  1  0  0  0  0
  9 22  2  0  0  0  0
 10 23  1  0  0  0  0
 11 12  2  0  0  0  0
 11 24  1  0  0  0  0
 12 25  1  0  0  0  0
 13 21  1  0  0  0  0
 13 23  2  0  0  0  0
 14 25  2  0  0  0  0
 14 26  1  0  0  0  0
 15 28  2  0  0  0  0
 15 85  1  0  0  0  0
 16 27  1  0  0  0  0
 17 27  1  0  0  0  0
 17 29  2  0  0  0  0
 17 31  1  0  0  0  0
 18 20  2  0  0  0  0
 18 36  1  0  0  0  0
 19 21  2  0  0  0  0
 19 37  1  0  0  0  0
 20 45  1  0  0  0  0
 21 38  1  0  0  0  0
 22 81  1  0  0  0  0
 23 82  1  0  0  0  0
 24 26  2  0  0  0  0
 24 81  1  0  0  0  0
 25 83  1  0  0  0  0
 26 84  1  0  0  0  0
 27 64  2  0  0  0  0
 28 55  1  0  0  0  0
 28 65  1  0  0  0  0
 29 66  1  0  0  0  0
 29 69  1  0  0  0  0
 30 65  2  0  0  0  0
 30 71  1  0  0  0  0
 30 85  1  0  0  0  0
 31 70  1  0  0  0  0
 31 76  2  0  0  0  0
 32 46  1  0  0  0  0
 32 72  1  0  0  0  0
 32 77  2  0  0  0  0
 33 59  1  0  0  0  0
 33 67  1  0  0  0  0
 33 78  2  0  0  0  0
 34 60  1  0  0  0  0
 34 73  1  0  0  0  0
 34 79  2  0  0  0  0
 35 68  1  0  0  0  0
 35 74  1  0  0  0  0
 35 80  2  0  0  0  0
 36 39  1  0  0  0  0
 37 46  1  0  0  0  0
 38 67  1  0  0  0  0
 39 41  1  0  0  0  0
 40 42  1  0  0  0  0
 40 43  1  0  0  0  0
 41 45  1  0  0  0  0
 42 47  1  0  0  0  0
 43 68  1  0  0  0  0
 44 47  1  0  0  0  0
 44 68  1  0  0  0  0
 45 72  1  0  0  0  0
 46 67  1  0  0  0  0
 47 66  1  0  0  0  0
 48 60  1  0  0  0  0
 49 61  1  0  0  0  0
 50 62  1  0  0  0  0
 51 63  1  0  0  0  0
 52 63  1  0  0  0  0
 53 63  1  0  0  0  0
 54 75  1  0  0  0  0
 55 74  1  0  0  0  0
 56 57  1  0  0  0  0
 56 58  1  0  0  0  0
 57 61  1  0  0  0  0
 58 82  1  0  0  0  0
 59 63  1  0  0  0  0
 59 73  1  0  0  0  0
 60 75  1  0  0  0  0
 61 62  1  0  0  0  0
 62 71  1  0  0  0  0
 64 66  1  0  0  0  0
M  CHG  1  75   1
M  ISO  4  35 100  58 101  74 100  82 101
M  END
> <Batch ID>
0191

> <Smiles>
CNC(C)C(=O)NC(C(=O)N1Cc2cc([101O:1][101CH2:1]CCC(C)C(C)Nc3nc(C[100NH:0][100C:0](=O)N4CCCC(n5nc(-c6ccc(Oc7ccc(F)cc7F)cc6)c(C(N)=O)c5N)C4)cs3)ccc2CC1C(=O)NC1CCCc2ccccc21)C(C)(C)C

> <Shape>
0.201

> <Color>
0.058

> <Negative vol penalty>
0.000

$$$$

  -OEChem-04052305243D

 85 93  0     1  0  0  0  0  0999 V2000
  -28.3683  -37.4835   21.7943 C   0  0  0  0  0  0  0  0  0  0  0  0
  -28.7437  -36.1492   21.6752 C   0  0  0  0  0  0  0  0  0  0  0  0
  -24.5916   -8.2259   21.3594 C   0  0  0  0  0  0  0  0  0  0  0  0
  -23.3268  -10.1965   21.9546 C   0  0  0  0  0  0  0  0  0  0  0  0
  -27.1270  -37.8113   22.3381 C   0  0  0  0  0  0  0  0  0  0  0  0
  -27.8784  -35.1420   22.1008 C   0  0  0  0  0  0  0  0  0  0  0  0
  -27.1573  -29.6034   19.5889 C   0  0  0  0  0  0  0  0  0  0  0  0
  -23.9814   -7.5209   22.3969 C   0  0  0  0  0  0  0  0  0  0  0  0
  -22.7167   -9.4915   22.9921 C   0  0  0  0  0  0  0  0  0  0  0  0
  -27.6713  -28.3499   19.9182 C   0  0  0  0  0  0  0  0  0  0  0  0
  -22.4905   -5.0999   24.6620 C   0  0  0  0  0  0  0  0  0  0  0  0
  -22.0269   -3.8134   24.3871 C   0  0  0  0  0  0  0  0  0  0  0  0
  -25.6567  -27.8538   21.1488 C   0  0  0  0  0  0  0  0  0  0  0  0
  -20.5550   -4.7061   22.6919 C   0  0  0  0  0  0  0  0  0  0  0  0
  -28.5299  -19.5048   20.6852 C   0  0  0  0  0  0  0  0  0  0  0  0
  -26.5212  -17.7724   20.9874 C   0  0  0  0  0  0  0  0  0  0  0  0
  -24.2643   -9.5637   21.1383 C   0  0  0  0  0  0  0  0  0  0  0  0
  -24.4464  -10.4067   18.7375 C   0  0  0  0  0  0  0  0  0  0  0  0
  -26.2421  -36.8073   22.7617 C   0  0  0  0  0  0  0  0  0  0  0  0
  -25.8916  -29.9963   20.0469 C   0  0  0  0  0  0  0  0  0  0  0  0
  -26.6247  -35.4567   22.6520 C   0  0  0  0  0  0  0  0  0  0  0  0
  -25.1279  -29.1118   20.8218 C   0  0  0  0  0  0  0  0  0  0  0  0
  -23.0440   -8.1537   23.2132 C   0  0  0  0  0  0  0  0  0  0  0  0
  -26.9222  -27.4760   20.7007 C   0  0  0  0  0  0  0  0  0  0  0  0
  -21.9863   -6.1895   23.9520 C   0  0  0  0  0  0  0  0  0  0  0  0
  -21.0591   -3.6165   23.4021 C   0  0  0  0  0  0  0  0  0  0  0  0
  -21.0186   -5.9926   22.9669 C   0  0  0  0  0  0  0  0  0  0  0  0
  -24.8946  -10.2926   20.0671 C   0  0  0  0  0  0  0  0  0  0  0  0
  -27.2629  -19.9355   21.0119 C   0  0  0  0  0  0  0  0  0  0  0  0
  -27.7880  -17.3417   20.6600 C   0  0  0  0  0  0  0  0  0  0  0  0
  -25.3877  -11.1970   18.1244 C   0  0  0  0  0  0  0  0  0  0  0  0
  -23.2831   -9.8483   18.1125 C   0  0  0  0  0  0  0  0  0  0  0  0
  -24.8071  -32.3240   21.9203 C   0  0  0  0  0  0  0  0  0  0  0  0
  -21.9123  -31.1737   21.0152 C   0  0  0  0  0  0  0  0  0  0  0  0
  -20.0749  -28.5442   19.8504 C   0  0  0  0  0  0  0  0  0  0  0  0
  -29.2051  -15.3208   20.1561 C   0  0  0  0  0  0  0  0  0  0  0  0
  -24.9306  -37.2119   23.3868 C   0  0  0  0  0  0  0  0  0  0  0  0
  -25.3402  -31.3414   19.6606 C   0  0  0  0  0  0  0  0  0  0  0  0
  -23.7550  -29.4778   21.3216 C   0  0  0  0  0  0  0  0  0  0  0  0
  -23.9176  -36.0729   23.4684 C   0  0  0  0  0  0  0  0  0  0  0  0
  -30.0275  -12.3599   18.3578 C   0  0  0  0  0  0  0  0  0  0  0  0
  -24.5785  -34.8084   24.0079 C   0  0  0  0  0  0  0  0  0  0  0  0
  -28.7616  -11.5066   18.4659 C   0  0  0  0  0  0  0  0  0  0  0  0
  -30.2923  -13.1466   19.6402 C   0  0  0  0  0  0  0  0  0  0  0  0
  -27.8988  -13.1060   20.2222 C   0  0  0  0  0  0  0  0  0  0  0  0
  -25.7035  -34.3348   23.0796 C   0  0  1  0  0  0  0  0  0  0  0  0
  -24.2544  -31.8373   20.6106 C   0  0  1  0  0  0  0  0  0  0  0  0
  -27.5549  -12.3451   18.9313 C   0  0  2  0  0  0  0  0  0  0  0  0
  -17.7272  -27.8956   19.2464 C   0  0  0  0  0  0  0  0  0  0  0  0
  -25.0980  -21.8470   19.4946 C   0  0  0  0  0  0  0  0  0  0  0  0
  -21.2149  -30.9496   23.9771 C   0  0  0  0  0  0  0  0  0  0  0  0
  -19.3110  -29.4520   23.3441 C   0  0  0  0  0  0  0  0  0  0  0  0
  -19.3642  -31.8100   22.5318 C   0  0  0  0  0  0  0  0  0  0  0  0
  -20.8270  -27.9895   17.0422 C   0  0  0  0  0  0  0  0  0  0  0  0
  -26.7626  -23.6699   19.9209 C   0  0  0  0  0  0  0  0  0  0  0  0
  -28.3166  -25.6486   20.0907 C   0  0  0  0  0  0  0  0  0  1  0  0
  -26.9781  -21.4147   21.2094 C   0  0  1  0  0  0  0  0  0  0  0  0
  -20.9667  -30.1224   21.5440 C   0  0  1  0  0  0  0  0  0  0  0  0
  -19.0490  -28.4476   18.7356 C   0  0  2  0  0  0  0  0  0  0  0  0
  -26.5551  -22.1329   19.8961 C   0  0  1  0  0  0  0  0  0  0  0  0
  -28.1975  -24.1307   20.2027 C   0  0  2  0  0  0  0  0  0  0  0  0
  -20.2408  -30.5771   22.8416 C   0  0  0  0  0  0  0  0  0  0  0  0
  -26.2359  -19.0771   21.1692 N   0  0  0  0  0  0  0  0  0  0  0  0
  -28.8151  -18.2002   20.5031 N   0  0  0  0  0  0  0  0  0  0  0  0
  -26.0323  -10.9571   20.2865 N   0  0  0  0  0  0  0  0  0  0  0  0
  -26.3069  -11.4963   19.0865 N   0  0  0  0  0  0  0  0  0  0  0  0
  -23.2623  -30.8065   20.9225 N   0  0  0  0  0  0  0  0  0  0  0  0
  -29.1073  -13.9200   20.0176 N   0  0  0  0  0  0  0  0  0  0  0  0
  -25.5105  -11.6581   16.8616 N   0  0  0  0  0  0  0  0  0  0  0  0
  -22.4214   -9.0603   18.8876 N   0  0  0  0  0  0  0  0  0  0  0  0
  -28.0065  -15.9526   20.4859 N   0  0  0  0  0  0  0  0  0  0  0  0
  -25.1541  -33.6616   21.9223 N   0  0  0  0  0  0  0  0  0  0  0  0
  -20.0696  -29.7893   20.4429 N   0  0  0  0  0  0  0  0  0  0  0  0
  -26.0012  -21.7116   22.3043 N   0  3  0  0  0  0  0  0  0  0  0  0
  -19.5445  -27.5528   17.6518 N   0  3  0  0  0  0  0  0  0  0  0  0
  -23.0243  -10.0289   16.8984 O   0  0  0  0  0  0  0  0  0  0  0  0
  -24.9097  -31.5441   22.8600 O   0  0  0  0  0  0  0  0  0  0  0  0
  -21.4684  -32.2775   20.6894 O   0  0  0  0  0  0  0  0  0  0  0  0
  -20.8053  -27.6076   20.1665 O   0  0  0  0  0  0  0  0  0  0  0  0
  -30.2674  -15.9189   19.9673 O   0  0  0  0  0  0  0  0  0  0  0  0
  -29.0727  -23.5300   19.2496 O   0  0  0  0  0  0  0  0  0  0  0  0
  -22.4482   -7.4660   24.2255 O   0  0  0  0  0  0  0  0  0  0  0  0
  -27.4218  -26.2523   21.0242 O   0  0  0  0  0  0  0  0  0  1  0  0
  -20.6151   -2.3809   23.1371 F   0  0  0  0  0  0  0  0  0  0  0  0
  -20.5314   -7.0354   22.2806 F   0  0  0  0  0  0  0  0  0  0  0  0
  1  2  1  0  0  0  0
  1  5  2  0  0  0  0
  2  6  2  0  0  0  0
  3  8  2  0  0  0  0
  3 17  1  0  0  0  0
  4  9  1  0  0  0  0
  4 17  2  0  0  0  0
  5 19  1  0  0  0  0
  6 21  1  0  0  0  0
  7 10  2  0  0  0  0
  7 20  1  0  0  0  0
  8 23  1  0  0  0  0
  9 23  2  0  0  0  0
 10 24  1  0  0  0  0
 11 12  2  0  0  0  0
 11 25  1  0  0  0  0
 12 26  1  0  0  0  0
 13 22  1  0  0  0  0
 13 24  2  0  0  0  0
 14 26  2  0  0  0  0
 14 27  1  0  0  0  0
 15 29  1  0  0  0  0
 15 64  2  0  0  0  0
 16 30  2  0  0  0  0
 16 63  1  0  0  0  0
 17 28  1  0  0  0  0
 18 28  1  0  0  0  0
 18 31  2  0  0  0  0
 18 32  1  0  0  0  0
 19 21  2  0  0  0  0
 19 37  1  0  0  0  0
 20 22  2  0  0  0  0
 20 38  1  0  0  0  0
 21 46  1  0  0  0  0
 22 39  1  0  0  0  0
 23 82  1  0  0  0  0
 24 83  1  0  0  0  0
 25 27  2  0  0  0  0
 25 82  1  0  0  0  0
 26 84  1  0  0  0  0
 27 85  1  0  0  0  0
 28 65  2  0  0  0  0
 29 57  1  0  0  0  0
 29 63  2  0  0  0  0
 30 64  1  0  0  0  0
 30 71  1  0  0  0  0
 31 66  1  0  0  0  0
 31 69  1  0  0  0  0
 32 70  1  0  0  0  0
 32 76  2  0  0  0  0
 33 47  1  0  0  0  0
 33 72  1  0  0  0  0
 33 77  2  0  0  0  0
 34 58  1  0  0  0  0
 34 67  1  0  0  0  0
 34 78  2  0  0  0  0
 35 59  1  0  0  0  0
 35 73  1  0  0  0  0
 35 79  2  0  0  0  0
 36 68  1  0  0  0  0
 36 71  1  0  0  0  0
 36 80  2  0  0  0  0
 37 40  1  0  0  0  0
 38 47  1  0  0  0  0
 39 67  1  0  0  0  0
 40 42  1  0  0  0  0
 41 43  1  0  0  0  0
 41 44  1  0  0  0  0
 42 46  1  0  0  0  0
 43 48  1  0  0  0  0
 44 68  1  0  0  0  0
 45 48  1  0  0  0  0
 45 68  1  0  0  0  0
 46 72  1  0  0  0  0
 47 67  1  0  0  0  0
 48 66  1  0  0  0  0
 49 59  1  0  0  0  0
 50 60  1  0  0  0  0
 51 62  1  0  0  0  0
 52 62  1  0  0  0  0
 53 62  1  0  0  0  0
 54 75  1  0  0  0  0
 55 60  1  0  0  0  0
 55 61  1  0  0  0  0
 56 61  1  0  0  0  0
 56 83  1  0  0  0  0
 57 60  1  0  0  0  0
 57 74  1  0  0  0  0
 58 62  1  0  0  0  0
 58 73  1  0  0  0  0
 59 75  1  0  0  0  0
 61 81  1  0  0  0  0
 65 66  1  0  0  0  0
M  CHG  2  74   1  75   1
M  ISO  4  36 100  56 101  71 100  83 101
M  END
> <Batch ID>
0191

> <Smiles>
CNC(C)C(=O)NC(C(=O)N1Cc2cc([101O:1][101CH2:1]C(O)CC(C)C(N)c3cnc([100NH:0][100C:0](=O)N4CCCC(n5nc(-c6ccc(Oc7ccc(F)cc7F)cc6)c(C(N)=O)c5N)C4)cn3)ccc2CC1C(=O)NC1CCCc2ccccc21)C(C)(C)C

> <Shape>
0.290

> <Color>
0.088

> <Negative vol penalty>
0.000

$$$$

  -OEChem-04052305243D

 87 95  0     1  0  0  0  0  0999 V2000
  -17.9904  -25.9202   20.3956 C   0  0  0  0  0  0  0  0  0  0  0  0
  -19.2703  -26.0989   19.8805 C   0  0  0  0  0  0  0  0  0  0  0  0
  -24.7402  -10.4579   23.3927 C   0  0  0  0  0  0  0  0  0  0  0  0
  -23.9898  -12.1156   24.9820 C   0  0  0  0  0  0  0  0  0  0  0  0
  -17.6028  -26.6016   21.5486 C   0  0  0  0  0  0  0  0  0  0  0  0
  -20.1630  -26.9601   20.5175 C   0  0  0  0  0  0  0  0  0  0  0  0
  -24.8009  -24.9742   20.9552 C   0  0  0  0  0  0  0  0  0  0  0  0
  -24.2558   -9.4451   24.2203 C   0  0  0  0  0  0  0  0  0  0  0  0
  -23.5053  -11.1027   25.8097 C   0  0  0  0  0  0  0  0  0  0  0  0
  -25.6093  -24.9881   19.8193 C   0  0  0  0  0  0  0  0  0  0  0  0
  -21.2675   -8.0427   24.9529 C   0  0  0  0  0  0  0  0  0  0  0  0
  -20.5391   -7.0126   24.3582 C   0  0  0  0  0  0  0  0  0  0  0  0
  -26.7620  -26.9285   20.6709 C   0  0  0  0  0  0  0  0  0  0  0  0
  -22.1626   -5.4078   25.1496 C   0  0  0  0  0  0  0  0  0  0  0  0
  -24.6073  -11.7932   23.7736 C   0  0  0  0  0  0  0  0  0  0  0  0
  -24.4109  -13.5073   21.8945 C   0  0  0  0  0  0  0  0  0  0  0  0
  -18.4945  -27.4641   22.2056 C   0  0  0  0  0  0  0  0  0  0  0  0
  -24.9600  -25.9456   21.9540 C   0  0  0  0  0  0  0  0  0  0  0  0
  -19.7865  -27.6547   21.6797 C   0  0  0  0  0  0  0  0  0  0  0  0
  -25.9561  -26.9232   21.8196 C   0  0  0  0  0  0  0  0  0  0  0  0
  -23.6383   -9.7674   25.4287 C   0  0  0  0  0  0  0  0  0  0  0  0
  -26.5881  -25.9671   19.6757 C   0  0  0  0  0  0  0  0  0  0  0  0
  -22.4435   -7.7555   25.6459 C   0  0  0  0  0  0  0  0  0  0  0  0
  -20.9866   -5.6951   24.4566 C   0  0  0  0  0  0  0  0  0  0  0  0
  -22.8911   -6.4380   25.7442 C   0  0  0  0  0  0  0  0  0  0  0  0
  -25.1081  -12.8399   22.9193 C   0  0  0  0  0  0  0  0  0  0  0  0
  -29.9782  -21.4874   22.3424 C   0  0  0  0  0  0  0  0  0  0  0  0
  -30.3870  -20.3423   21.6914 C   0  0  0  0  0  0  0  0  0  0  0  0
  -25.3196  -14.4046   21.3889 C   0  0  0  0  0  0  0  0  0  0  0  0
  -30.4631  -22.3708   20.3944 C   0  0  0  0  0  0  0  0  0  0  0  0
  -23.0624  -13.3318   21.4401 C   0  0  0  0  0  0  0  0  0  0  0  0
  -23.1135  -28.2218   23.1839 C   0  0  0  0  0  0  0  0  0  0  0  0
  -29.1120  -18.2956   22.2583 C   0  0  0  0  0  0  0  0  0  0  0  0
  -25.5880  -28.5695   25.2522 C   0  0  0  0  0  0  0  0  0  0  0  0
  -28.9164  -28.1563   25.8834 C   0  0  0  0  0  0  0  0  0  0  0  0
  -18.0144  -28.2152   23.4221 C   0  0  0  0  0  0  0  0  0  0  0  0
  -24.0979  -25.9008   23.1857 C   0  0  0  0  0  0  0  0  0  0  0  0
  -26.1809  -27.9763   22.8728 C   0  0  0  0  0  0  0  0  0  0  0  0
  -19.1452  -28.8217   24.2490 C   0  0  0  0  0  0  0  0  0  0  0  0
  -30.2910  -14.8567   22.1551 C   0  0  0  0  0  0  0  0  0  0  0  0
  -20.1430  -29.5380   23.3445 C   0  0  0  0  0  0  0  0  0  0  0  0
  -28.9818  -14.0805   22.2917 C   0  0  0  0  0  0  0  0  0  0  0  0
  -30.2667  -16.1463   22.9715 C   0  0  0  0  0  0  0  0  0  0  0  0
  -27.8016  -16.2652   22.7889 C   0  0  0  0  0  0  0  0  0  0  0  0
  -20.7917  -28.5613   22.3563 C   0  0  1  0  0  0  0  0  0  0  0  0
  -24.0047  -27.2461   23.8990 C   0  0  1  0  0  0  0  0  0  0  0  0
  -27.7738  -14.9726   21.9563 C   0  0  2  0  0  0  0  0  0  0  0  0
  -28.0440  -22.0550   23.8558 C   0  0  0  0  0  0  0  0  0  0  0  0
  -30.4094  -22.4605   24.6274 C   0  0  0  0  0  0  0  0  0  0  0  0
  -31.0541  -28.1517   27.1978 C   0  0  0  0  0  0  0  0  0  0  0  0
  -28.9625  -25.4549   15.9305 C   0  0  0  0  0  0  0  0  0  0  0  0
  -31.4604  -25.3584   20.3607 C   0  0  0  0  0  0  0  0  0  0  0  0
  -25.6199  -31.5315   24.5207 C   0  0  0  0  0  0  0  0  0  0  0  0
  -27.9018  -31.6870   25.5391 C   0  0  0  0  0  0  0  0  0  0  0  0
  -25.9470  -31.0543   26.9538 C   0  0  0  0  0  0  0  0  0  0  0  0
  -28.4491  -25.3999   26.8544 C   0  0  0  0  0  0  0  0  0  0  0  0
  -30.4681  -18.9501   22.1763 C   0  0  0  0  0  0  0  0  0  0  0  0
  -27.6499  -24.7283   17.9454 C   0  0  0  0  0  0  0  0  0  1  0  0
  -29.5079  -21.5717   23.7402 C   0  0  0  0  0  0  0  0  0  0  0  0
  -26.8530  -29.3930   25.2771 C   0  0  1  0  0  0  0  0  0  0  0  0
  -29.6506  -27.5781   27.0797 C   0  0  2  0  0  0  0  0  0  0  0  0
  -29.0374  -24.7371   17.2887 C   0  0  2  0  0  0  0  0  0  0  0  0
  -30.3364  -24.7150   19.5493 C   0  0  1  0  0  0  0  0  0  0  0  0
  -30.1381  -25.3828   18.1719 C   0  0  1  0  0  0  0  0  0  0  0  0
  -26.5752  -30.8979   25.5517 C   0  0  0  0  0  0  0  0  0  0  0  0
  -26.3630  -13.2759   23.0579 N   0  0  0  0  0  0  0  0  0  0  0  0
  -30.0215  -22.6516   21.6003 N   0  0  0  0  0  0  0  0  0  0  0  0
  -26.4615  -14.2268   22.1133 N   0  0  0  0  0  0  0  0  0  0  0  0
  -25.3084  -27.8942   24.0557 N   0  0  0  0  0  0  0  0  0  0  0  0
  -29.0867  -16.9548   22.6425 N   0  0  0  0  0  0  0  0  0  0  0  0
  -25.2453  -15.3204   20.3999 N   0  0  0  0  0  0  0  0  0  0  0  0
  -22.2655  -12.3661   22.0699 N   0  0  0  0  0  0  0  0  0  0  0  0
  -30.6315  -23.3051   19.3892 N   0  0  0  0  0  0  0  0  0  0  0  0
  -21.8151  -27.7795   23.0165 N   0  0  0  0  0  0  0  0  0  0  0  0
  -27.7331  -28.7600   26.2533 N   0  0  0  0  0  0  0  0  0  0  0  0
  -29.7572  -26.0968   26.9555 N   0  3  0  0  0  0  0  0  0  0  0  0
  -22.5837  -13.9999   20.4925 O   0  0  0  0  0  0  0  0  0  0  0  0
  -23.5696  -29.2969   22.8129 O   0  0  0  0  0  0  0  0  0  0  0  0
  -28.1069  -18.9572   21.9859 O   0  0  0  0  0  0  0  0  0  0  0  0
  -24.8780  -28.5212   26.2598 O   0  0  0  0  0  0  0  0  0  0  0  0
  -29.3510  -28.0833   24.7361 O   0  0  0  0  0  0  0  0  0  0  0  0
  -31.3677  -25.3543   17.4402 O   0  0  0  0  0  0  0  0  0  0  0  0
  -23.1652   -8.7793   26.2365 O   0  0  0  0  0  0  0  0  0  0  0  0
  -27.3780  -25.9834   18.5677 O   0  0  0  0  0  0  0  0  0  1  0  0
  -20.2862   -4.7057   23.8867 F   0  0  0  0  0  0  0  0  0  0  0  0
  -24.0195   -6.1558   26.4097 F   0  0  0  0  0  0  0  0  0  0  0  0
  -30.8446  -20.7267   20.0839 S   0  0  0  0  0  0  0  0  0  0  0  0
  1  2  1  0  0  0  0
  1  5  2  0  0  0  0
  2  6  2  0  0  0  0
  3  8  2  0  0  0  0
  3 15  1  0  0  0  0
  4  9  1  0  0  0  0
  4 15  2  0  0  0  0
  5 17  1  0  0  0  0
  6 19  1  0  0  0  0
  7 10  2  0  0  0  0
  7 18  1  0  0  0  0
  8 21  1  0  0  0  0
  9 21  2  0  0  0  0
 10 22  1  0  0  0  0
 11 12  2  0  0  0  0
 11 23  1  0  0  0  0
 12 24  1  0  0  0  0
 13 20  1  0  0  0  0
 13 22  2  0  0  0  0
 14 24  2  0  0  0  0
 14 25  1  0  0  0  0
 15 26  1  0  0  0  0
 16 26  1  0  0  0  0
 16 29  2  0  0  0  0
 16 31  1  0  0  0  0
 17 19  2  0  0  0  0
 17 36  1  0  0  0  0
 18 20  2  0  0  0  0
 18 37  1  0  0  0  0
 19 45  1  0  0  0  0
 20 38  1  0  0  0  0
 21 83  1  0  0  0  0
 22 84  1  0  0  0  0
 23 25  2  0  0  0  0
 23 83  1  0  0  0  0
 24 85  1  0  0  0  0
 25 86  1  0  0  0  0
 26 66  2  0  0  0  0
 27 28  2  0  0  0  0
 27 59  1  0  0  0  0
 27 67  1  0  0  0  0
 28 57  1  0  0  0  0
 28 87  1  0  0  0  0
 29 68  1  0  0  0  0
 29 71  1  0  0  0  0
 30 67  2  0  0  0  0
 30 73  1  0  0  0  0
 30 87  1  0  0  0  0
 31 72  1  0  0  0  0
 31 77  2  0  0  0  0
 32 46  1  0  0  0  0
 32 74  1  0  0  0  0
 32 78  2  0  0  0  0
 33 57  1  0  0  0  0
 33 70  1  0  0  0  0
 33 79  2  0  0  0  0
 34 60  1  0  0  0  0
 34 69  1  0  0  0  0
 34 80  2  0  0  0  0
 35 61  1  0  0  0  0
 35 75  1  0  0  0  0
 35 81  2  0  0  0  0
 36 39  1  0  0  0  0
 37 46  1  0  0  0  0
 38 69  1  0  0  0  0
 39 41  1  0  0  0  0
 40 42  1  0  0  0  0
 40 43  1  0  0  0  0
 41 45  1  0  0  0  0
 42 47  1  0  0  0  0
 43 70  1  0  0  0  0
 44 47  1  0  0  0  0
 44 70  1  0  0  0  0
 45 74  1  0  0  0  0
 46 69  1  0  0  0  0
 47 68  1  0  0  0  0
 48 59  1  0  0  0  0
 49 59  1  0  0  0  0
 50 61  1  0  0  0  0
 51 62  1  0  0  0  0
 52 63  1  0  0  0  0
 53 65  1  0  0  0  0
 54 65  1  0  0  0  0
 55 65  1  0  0  0  0
 56 76  1  0  0  0  0
 58 62  1  0  0  0  0
 58 84  1  0  0  0  0
 60 65  1  0  0  0  0
 60 75  1  0  0  0  0
 61 76  1  0  0  0  0
 62 64  1  0  0  0  0
 63 64  1  0  0  0  0
 63 73  1  0  0  0  0
 64 82  1  0  0  0  0
 66 68  1  0  0  0  0
M  CHG  1  76   1
M  ISO  4  33 100  57 100  58 101  84 101
M  END
> <Batch ID>
0191

> <Smiles>
CNC(C)C(=O)NC(C(=O)N1Cc2cc([101O:1][101CH2:1]C(C)C(O)C(C)Nc3nc(C(C)C)c([100CH2:0][100C:0](=O)N4CCCC(n5nc(-c6ccc(Oc7ccc(F)cc7F)cc6)c(C(N)=O)c5N)C4)s3)ccc2CC1C(=O)NC1CCCc2ccccc21)C(C)(C)C

> <Shape>
0.239

> <Color>
0.105

> <Negative vol penalty>
0.000

$$$$

  -OEChem-04052305243D

 84 92  0     1  0  0  0  0  0999 V2000
  -16.6104  -28.4716   20.7564 C   0  0  0  0  0  0  0  0  0  0  0  0
  -17.6134  -29.1934   20.1173 C   0  0  0  0  0  0  0  0  0  0  0  0
  -24.4552   -9.9022   21.4466 C   0  0  0  0  0  0  0  0  0  0  0  0
  -24.8348  -10.9783   23.5762 C   0  0  0  0  0  0  0  0  0  0  0  0
  -16.7577  -28.1108   22.0951 C   0  0  0  0  0  0  0  0  0  0  0  0
  -18.7639  -29.5558   20.8170 C   0  0  0  0  0  0  0  0  0  0  0  0
  -25.2809  -27.4554   18.5791 C   0  0  0  0  0  0  0  0  0  0  0  0
  -24.1336   -8.7148   22.1040 C   0  0  0  0  0  0  0  0  0  0  0  0
  -24.5132   -9.7909   24.2336 C   0  0  0  0  0  0  0  0  0  0  0  0
  -26.5773  -27.2704   18.0981 C   0  0  0  0  0  0  0  0  0  0  0  0
  -22.8627   -5.5013   23.2325 C   0  0  0  0  0  0  0  0  0  0  0  0
  -21.7383   -4.8017   22.7945 C   0  0  0  0  0  0  0  0  0  0  0  0
  -27.4735  -28.3507   20.0673 C   0  0  0  0  0  0  0  0  0  0  0  0
  -29.9290  -21.6861   21.5122 C   0  0  0  0  0  0  0  0  0  0  0  0
  -20.3509   -6.7133   23.3023 C   0  0  0  0  0  0  0  0  0  0  0  0
  -24.8059  -11.0340   22.1827 C   0  0  0  0  0  0  0  0  0  0  0  0
  -24.2577  -13.2960   21.1384 C   0  0  0  0  0  0  0  0  0  0  0  0
  -17.9148  -28.4606   22.8088 C   0  0  0  0  0  0  0  0  0  0  0  0
  -25.0764  -28.0757   19.8148 C   0  0  0  0  0  0  0  0  0  0  0  0
  -18.9262  -29.2005   22.1668 C   0  0  0  0  0  0  0  0  0  0  0  0
  -26.1779  -28.5276   20.5600 C   0  0  0  0  0  0  0  0  0  0  0  0
  -29.5747  -20.3795   21.9565 C   0  0  0  0  0  0  0  0  0  0  0  0
  -24.1626   -8.6591   23.4974 C   0  0  0  0  0  0  0  0  0  0  0  0
  -27.6708  -27.7172   18.8403 C   0  0  0  0  0  0  0  0  0  0  0  0
  -22.7312   -6.8070   23.7055 C   0  0  0  0  0  0  0  0  0  0  0  0
  -20.4825   -5.4076   22.8294 C   0  0  0  0  0  0  0  0  0  0  0  0
  -21.4753   -7.4130   23.7403 C   0  0  0  0  0  0  0  0  0  0  0  0
  -25.1388  -12.2608   21.5043 C   0  0  0  0  0  0  0  0  0  0  0  0
  -29.1694  -19.5717   20.9169 C   0  0  0  0  0  0  0  0  0  0  0  0
  -25.0589  -14.2282   20.5255 C   0  0  0  0  0  0  0  0  0  0  0  0
  -29.7814  -21.8270   20.1497 C   0  0  0  0  0  0  0  0  0  0  0  0
  -22.8417  -13.4053   21.3351 C   0  0  0  0  0  0  0  0  0  0  0  0
  -22.6140  -29.2429   22.3935 C   0  0  0  0  0  0  0  0  0  0  0  0
  -29.7861  -17.2177   20.4469 C   0  0  0  0  0  0  0  0  0  0  0  0
  -24.9850  -28.0256   23.9123 C   0  0  0  0  0  0  0  0  0  0  0  0
  -30.4703  -24.2010   19.6670 C   0  0  0  0  0  0  0  0  0  0  0  0
  -27.5859  -26.2251   25.1892 C   0  0  0  0  0  0  0  0  0  0  0  0
  -18.0080  -28.0891   24.2675 C   0  0  0  0  0  0  0  0  0  0  0  0
  -23.6949  -28.3511   20.3434 C   0  0  0  0  0  0  0  0  0  0  0  0
  -25.9085  -29.2206   21.8678 C   0  0  0  0  0  0  0  0  0  0  0  0
  -19.4229  -28.1881   24.8320 C   0  0  0  0  0  0  0  0  0  0  0  0
  -29.8587  -13.9498   18.9787 C   0  0  0  0  0  0  0  0  0  0  0  0
  -20.0751  -29.5011   24.4108 C   0  0  0  0  0  0  0  0  0  0  0  0
  -28.5803  -13.2939   19.4992 C   0  0  0  0  0  0  0  0  0  0  0  0
  -30.4723  -14.8808   20.0197 C   0  0  0  0  0  0  0  0  0  0  0  0
  -28.2558  -15.2757   21.0458 C   0  0  0  0  0  0  0  0  0  0  0  0
  -20.1998  -29.5906   22.8851 C   0  0  1  0  0  0  0  0  0  0  0  0
  -23.6017  -28.2391   21.8757 C   0  0  1  0  0  0  0  0  0  0  0  0
  -27.5869  -14.3507   20.0138 C   0  0  2  0  0  0  0  0  0  0  0  0
  -29.6387  -19.9515   23.3742 C   0  0  0  0  0  0  0  0  0  0  0  0
  -28.5543  -25.4352   27.3654 C   0  0  0  0  0  0  0  0  0  0  0  0
  -31.6900  -27.1759   17.4983 C   0  0  0  0  0  0  0  0  0  0  0  0
  -26.0526  -30.8316   24.4513 C   0  0  0  0  0  0  0  0  0  0  0  0
  -27.7241  -29.8183   26.0158 C   0  0  0  0  0  0  0  0  0  0  0  0
  -25.2844  -29.5984   26.4869 C   0  0  0  0  0  0  0  0  0  0  0  0
  -27.2797  -23.3818   24.4268 C   0  0  0  0  0  0  0  0  0  0  0  0
  -28.7245  -18.1601   20.9559 C   0  0  0  0  0  0  0  0  0  0  0  0
  -30.5848  -25.1027   18.4420 C   0  0  0  0  0  0  0  0  0  0  0  0
  -29.9720  -27.3723   19.3334 C   0  0  0  0  0  0  0  0  0  1  0  0
  -26.3067  -28.2664   24.5968 C   0  0  1  0  0  0  0  0  0  0  0  0
  -27.6285  -25.0992   26.2066 C   0  0  2  0  0  0  0  0  0  0  0  0
  -31.1046  -26.5151   18.7530 C   0  0  2  0  0  0  0  0  0  0  0  0
  -26.3406  -29.6203   25.3605 C   0  0  0  0  0  0  0  0  0  0  0  0
  -26.4028  -12.5113   21.1530 N   0  0  0  0  0  0  0  0  0  0  0  0
  -26.3219  -13.7145   20.5599 N   0  0  0  0  0  0  0  0  0  0  0  0
  -24.8524  -28.5093   22.6050 N   0  0  0  0  0  0  0  0  0  0  0  0
  -29.4909  -15.8553   20.4998 N   0  0  0  0  0  0  0  0  0  0  0  0
  -24.7991  -15.4289   19.9659 N   0  0  0  0  0  0  0  0  0  0  0  0
  -22.1743  -12.3569   21.9830 N   0  0  0  0  0  0  0  0  0  0  0  0
  -30.0156  -22.9366   19.3029 N   0  0  0  0  0  0  0  0  0  0  0  0
  -21.3099  -28.7867   22.4206 N   0  0  0  0  0  0  0  0  0  0  0  0
  -26.5492  -27.0995   25.4381 N   0  0  0  0  0  0  0  0  0  0  0  0
  -28.1116  -23.8422   25.5683 N   0  3  0  0  0  0  0  0  0  0  0  0
  -22.1851  -14.3956   20.9332 O   0  0  0  0  0  0  0  0  0  0  0  0
  -23.0051  -30.3499   22.7444 O   0  0  0  0  0  0  0  0  0  0  0  0
  -30.8442  -17.6806   20.0130 O   0  0  0  0  0  0  0  0  0  0  0  0
  -24.0908  -27.4302   24.5198 O   0  0  0  0  0  0  0  0  0  0  0  0
  -30.7306  -24.5997   20.7973 O   0  0  0  0  0  0  0  0  0  0  0  0
  -28.3939  -26.3214   24.2681 O   0  0  0  0  0  0  0  0  0  0  0  0
  -23.8486   -7.5006   24.1392 O   0  0  0  0  0  0  0  0  0  0  0  0
  -28.9339  -27.5293   18.3669 O   0  0  0  0  0  0  0  0  0  1  0  0
  -19.4030   -4.7362   22.4073 F   0  0  0  0  0  0  0  0  0  0  0  0
  -21.3429   -8.6675   24.1925 F   0  0  0  0  0  0  0  0  0  0  0  0
  -29.2173  -20.3881   19.4124 S   0  0  0  0  0  0  0  0  0  0  0  0
  1  2  1  0  0  0  0
  1  5  2  0  0  0  0
  2  6  2  0  0  0  0
  3  8  2  0  0  0  0
  3 16  1  0  0  0  0
  4  9  1  0  0  0  0
  4 16  2  0  0  0  0
  5 18  1  0  0  0  0
  6 20  1  0  0  0  0
  7 10  2  0  0  0  0
  7 19  1  0  0  0  0
  8 23  1  0  0  0  0
  9 23  2  0  0  0  0
 10 24  1  0  0  0  0
 11 12  2  0  0  0  0
 11 25  1  0  0  0  0
 12 26  1  0  0  0  0
 13 21  1  0  0  0  0
 13 24  2  0  0  0  0
 14 22  1  0  0  0  0
 14 31  2  0  0  0  0
 15 26  2  0  0  0  0
 15 27  1  0  0  0  0
 16 28  1  0  0  0  0
 17 28  1  0  0  0  0
 17 30  2  0  0  0  0
 17 32  1  0  0  0  0
 18 20  2  0  0  0  0
 18 38  1  0  0  0  0
 19 21  2  0  0  0  0
 19 39  1  0  0  0  0
 20 47  1  0  0  0  0
 21 40  1  0  0  0  0
 22 29  2  0  0  0  0
 22 50  1  0  0  0  0
 23 80  1  0  0  0  0
 24 81  1  0  0  0  0
 25 27  2  0  0  0  0
 25 80  1  0  0  0  0
 26 82  1  0  0  0  0
 27 83  1  0  0  0  0
 28 64  2  0  0  0  0
 29 57  1  0  0  0  0
 29 84  1  0  0  0  0
 30 65  1  0  0  0  0
 30 68  1  0  0  0  0
 31 70  1  0  0  0  0
 31 84  1  0  0  0  0
 32 69  1  0  0  0  0
 32 74  2  0  0  0  0
 33 48  1  0  0  0  0
 33 71  1  0  0  0  0
 33 75  2  0  0  0  0
 34 57  1  0  0  0  0
 34 67  1  0  0  0  0
 34 76  2  0  0  0  0
 35 60  1  0  0  0  0
 35 66  1  0  0  0  0
 35 77  2  0  0  0  0
 36 58  1  0  0  0  0
 36 70  1  0  0  0  0
 36 78  2  0  0  0  0
 37 61  1  0  0  0  0
 37 72  1  0  0  0  0
 37 79  2  0  0  0  0
 38 41  1  0  0  0  0
 39 48  1  0  0  0  0
 40 66  1  0  0  0  0
 41 43  1  0  0  0  0
 42 44  1  0  0  0  0
 42 45  1  0  0  0  0
 43 47  1  0  0  0  0
 44 49  1  0  0  0  0
 45 67  1  0  0  0  0
 46 49  1  0  0  0  0
 46 67  1  0  0  0  0
 47 71  1  0  0  0  0
 48 66  1  0  0  0  0
 49 65  1  0  0  0  0
 51 61  1  0  0  0  0
 52 62  1  0  0  0  0
 53 63  1  0  0  0  0
 54 63  1  0  0  0  0
 55 63  1  0  0  0  0
 56 73  1  0  0  0  0
 58 62  1  0  0  0  0
 59 62  1  0  0  0  0
 59 81  1  0  0  0  0
 60 63  1  0  0  0  0
 60 72  1  0  0  0  0
 61 73  1  0  0  0  0
 64 65  1  0  0  0  0
M  CHG  1  73   1
M  ISO  4  34 100  57 100  59 101  81 101
M  END
> <Batch ID>
0191

> <Smiles>
CNC(C)C(=O)NC(C(=O)N1Cc2cc([101O:1][101CH2:1]C(C)CC(=O)Nc3cc(C)c([100CH2:0][100C:0](=O)N4CCCC(n5nc(-c6ccc(Oc7ccc(F)cc7F)cc6)c(C(N)=O)c5N)C4)s3)ccc2CC1C(=O)NC1CCCc2ccccc21)C(C)(C)C

> <Shape>
0.326

> <Color>
0.136

> <Negative vol penalty>
0.000

$$$$

  -OEChem-04052305243D

 91 99  0     1  0  0  0  0  0999 V2000
  -17.2187  -27.4122   23.3231 C   0  0  0  0  0  0  0  0  0  0  0  0
  -17.9584  -27.1600   22.1722 C   0  0  0  0  0  0  0  0  0  0  0  0
  -24.5301   -8.8124   20.6932 C   0  0  0  0  0  0  0  0  0  0  0  0
  -22.7570  -10.4522   20.7598 C   0  0  0  0  0  0  0  0  0  0  0  0
  -17.4915  -28.5429   24.0919 C   0  0  0  0  0  0  0  0  0  0  0  0
  -18.9706  -28.0391   21.7887 C   0  0  0  0  0  0  0  0  0  0  0  0
  -23.2000  -25.6364   20.3801 C   0  0  0  0  0  0  0  0  0  0  0  0
  -23.6193   -7.8135   21.0366 C   0  0  0  0  0  0  0  0  0  0  0  0
  -21.8461   -9.4532   21.1031 C   0  0  0  0  0  0  0  0  0  0  0  0
  -23.2172  -25.0719   19.1054 C   0  0  0  0  0  0  0  0  0  0  0  0
  -22.0838   -6.6975   23.8333 C   0  0  0  0  0  0  0  0  0  0  0  0
  -22.4651   -5.7837   24.8157 C   0  0  0  0  0  0  0  0  0  0  0  0
  -24.4640  -26.9688   18.2889 C   0  0  0  0  0  0  0  0  0  0  0  0
  -22.2101   -3.9760   23.2331 C   0  0  0  0  0  0  0  0  0  0  0  0
  -24.0990  -10.1318   20.5549 C   0  0  0  0  0  0  0  0  0  0  0  0
  -25.3854  -11.5911   18.9046 C   0  0  0  0  0  0  0  0  0  0  0  0
  -18.5140  -29.4312   23.7229 C   0  0  0  0  0  0  0  0  0  0  0  0
  -23.8063  -26.8785   20.6168 C   0  0  0  0  0  0  0  0  0  0  0  0
  -19.2564  -29.1835   22.5525 C   0  0  0  0  0  0  0  0  0  0  0  0
  -24.4554  -27.5456   19.5681 C   0  0  0  0  0  0  0  0  0  0  0  0
  -22.2772   -8.1338   21.2415 C   0  0  0  0  0  0  0  0  0  0  0  0
  -23.8467  -25.7395   18.0589 C   0  0  0  0  0  0  0  0  0  0  0  0
  -21.7656   -6.2506   22.5508 C   0  0  0  0  0  0  0  0  0  0  0  0
  -22.5282   -4.4229   24.5156 C   0  0  0  0  0  0  0  0  0  0  0  0
  -21.8288   -4.8899   22.2507 C   0  0  0  0  0  0  0  0  0  0  0  0
  -25.0396  -11.1643   20.2008 C   0  0  0  0  0  0  0  0  0  0  0  0
  -28.6784  -20.6758   19.2214 C   0  0  0  0  0  0  0  0  0  0  0  0
  -26.3113  -12.5854   19.1061 C   0  0  0  0  0  0  0  0  0  0  0  0
  -27.9044  -20.4158   18.1100 C   0  0  0  0  0  0  0  0  0  0  0  0
  -27.8812  -18.7237   19.8242 C   0  0  0  0  0  0  0  0  0  0  0  0
  -24.9119  -11.1301   17.6322 C   0  0  0  0  0  0  0  0  0  0  0  0
  -22.7804  -29.7274   21.5836 C   0  0  0  0  0  0  0  0  0  0  0  0
  -25.9462  -30.4344   21.5832 C   0  0  0  0  0  0  0  0  0  0  0  0
  -28.8209  -29.4048   20.8172 C   0  0  0  0  0  0  0  0  0  0  0  0
  -28.0568  -17.1464   21.7807 C   0  0  0  0  0  0  0  0  0  0  0  0
  -18.7405  -30.6652   24.5598 C   0  0  0  0  0  0  0  0  0  0  0  0
  -23.8022  -27.4612   22.0034 C   0  0  0  0  0  0  0  0  0  0  0  0
  -25.1386  -28.8719   19.7744 C   0  0  0  0  0  0  0  0  0  0  0  0
  -20.0788  -31.3478   24.2887 C   0  0  0  0  0  0  0  0  0  0  0  0
  -28.7596  -14.0053   23.3027 C   0  0  0  0  0  0  0  0  0  0  0  0
  -20.3172  -31.4781   22.7877 C   0  0  0  0  0  0  0  0  0  0  0  0
  -27.8829  -13.0213   22.5247 C   0  0  0  0  0  0  0  0  0  0  0  0
  -28.0645  -15.3514   23.4990 C   0  0  0  0  0  0  0  0  0  0  0  0
  -26.6836  -14.9910   21.4910 C   0  0  0  0  0  0  0  0  0  0  0  0
  -20.3789  -30.1003   22.1173 C   0  0  1  0  0  0  0  0  0  0  0  0
  -24.0056  -28.9731   22.0168 C   0  0  1  0  0  0  0  0  0  0  0  0
  -27.3670  -13.6424   21.2119 C   0  0  2  0  0  0  0  0  0  0  0  0
  -31.0081  -21.5000   19.5017 C   0  0  0  0  0  0  0  0  0  0  0  0
  -31.2474  -28.9513   20.3662 C   0  0  0  0  0  0  0  0  0  0  0  0
  -24.0557  -24.0319   14.1570 C   0  0  0  0  0  0  0  0  0  0  0  0
  -27.6422  -19.8147   15.0142 C   0  0  0  0  0  0  0  0  0  0  0  0
  -27.9193  -24.6079   21.9231 C   0  0  0  0  0  0  0  0  0  0  0  0
  -26.7066  -23.0298   20.4148 C   0  0  0  0  0  0  0  0  0  0  0  0
  -28.2243  -24.7417   19.4396 C   0  0  0  0  0  0  0  0  0  0  0  0
  -25.2838  -32.8277   19.8103 C   0  0  0  0  0  0  0  0  0  0  0  0
  -27.7148  -32.9840   19.2324 C   0  0  0  0  0  0  0  0  0  0  0  0
  -26.9742  -33.2877   21.5950 C   0  0  0  0  0  0  0  0  0  0  0  0
  -29.2822  -28.4770   23.5894 C   0  0  0  0  0  0  0  0  0  0  0  0
  -25.7159  -23.0976   15.8563 C   0  0  0  0  0  0  0  0  0  0  0  0
  -26.5203  -22.0733   15.0434 C   0  0  0  0  0  0  0  0  0  0  0  0
  -29.1714  -22.7232   20.7265 C   0  0  0  0  0  0  0  0  0  0  0  0
  -24.9841  -25.4990   15.9842 C   0  0  0  0  0  0  0  0  0  1  0  0
  -29.5052  -21.8802   19.4482 C   0  0  2  0  0  0  0  0  0  0  0  0
  -26.9199  -30.9789   20.5661 C   0  0  1  0  0  0  0  0  0  0  0  0
  -30.2096  -29.3008   21.4214 C   0  0  2  0  0  0  0  0  0  0  0  0
  -25.2758  -24.3265   15.0366 C   0  0  2  0  0  0  0  0  0  0  0  0
  -26.8914  -20.8317   15.8680 C   0  0  2  0  0  0  0  0  0  0  0  0
  -28.0364  -23.7869   20.6287 C   0  0  0  0  0  0  0  0  0  0  0  0
  -26.7087  -32.4955   20.2963 C   0  0  0  0  0  0  0  0  0  0  0  0
  -25.6928  -11.8326   21.1551 N   0  0  0  0  0  0  0  0  0  0  0  0
  -28.6660  -19.7068   20.2056 N   0  0  0  0  0  0  0  0  0  0  0  0
  -26.4584  -12.6894   20.4580 N   0  0  0  0  0  0  0  0  0  0  0  0
  -25.1019  -29.4036   21.1468 N   0  0  0  0  0  0  0  0  0  0  0  0
  -27.6065  -15.8810   22.2127 N   0  0  0  0  0  0  0  0  0  0  0  0
  -27.0059  -13.3721   18.2570 N   0  0  0  0  0  0  0  0  0  0  0  0
  -23.9605  -10.1013   17.6062 N   0  0  0  0  0  0  0  0  0  0  0  0
  -27.7324  -21.2043   16.9864 N   0  0  0  0  0  0  0  0  0  0  0  0
  -27.5806  -17.5310   20.5277 N   0  0  0  0  0  0  0  0  0  0  0  0
  -21.6633  -29.4783   22.3579 N   0  0  0  0  0  0  0  0  0  0  0  0
  -28.2522  -30.6385   21.0535 N   0  0  0  0  0  0  0  0  0  0  0  0
  -30.2382  -28.2478   22.4756 N   0  3  0  0  0  0  0  0  0  0  0  0
  -25.3325  -11.6049   16.5500 O   0  0  0  0  0  0  0  0  0  0  0  0
  -22.8442  -30.4808   20.6193 O   0  0  0  0  0  0  0  0  0  0  0  0
  -25.9401  -30.9013   22.7249 O   0  0  0  0  0  0  0  0  0  0  0  0
  -28.2948  -28.4851   20.1944 O   0  0  0  0  0  0  0  0  0  0  0  0
  -28.8312  -17.8261   22.4592 O   0  0  0  0  0  0  0  0  0  0  0  0
  -21.3881   -7.1592   21.5763 O   0  0  0  0  0  0  0  0  0  0  0  0
  -23.8644  -25.1911   16.8136 O   0  0  0  0  0  0  0  0  0  1  0  0
  -22.8959   -3.5457   25.4587 F   0  0  0  0  0  0  0  0  0  0  0  0
  -21.5255   -4.4547   21.0201 F   0  0  0  0  0  0  0  0  0  0  0  0
  -27.1265  -18.8984   18.2929 S   0  0  0  0  0  0  0  0  0  0  0  0
  1  2  1  0  0  0  0
  1  5  2  0  0  0  0
  2  6  2  0  0  0  0
  3  8  2  0  0  0  0
  3 15  1  0  0  0  0
  4  9  1  0  0  0  0
  4 15  2  0  0  0  0
  5 17  1  0  0  0  0
  6 19  1  0  0  0  0
  7 10  2  0  0  0  0
  7 18  1  0  0  0  0
  8 21  1  0  0  0  0
  9 21  2  0  0  0  0
 10 22  1  0  0  0  0
 11 12  2  0  0  0  0
 11 23  1  0  0  0  0
 12 24  1  0  0  0  0
 13 20  1  0  0  0  0
 13 22  2  0  0  0  0
 14 24  2  0  0  0  0
 14 25  1  0  0  0  0
 15 26  1  0  0  0  0
 16 26  1  0  0  0  0
 16 28  2  0  0  0  0
 16 31  1  0  0  0  0
 17 19  2  0  0  0  0
 17 36  1  0  0  0  0
 18 20  2  0  0  0  0
 18 37  1  0  0  0  0
 19 45  1  0  0  0  0
 20 38  1  0  0  0  0
 21 87  1  0  0  0  0
 22 88  1  0  0  0  0
 23 25  2  0  0  0  0
 23 87  1  0  0  0  0
 24 89  1  0  0  0  0
 25 90  1  0  0  0  0
 26 70  2  0  0  0  0
 27 29  2  0  0  0  0
 27 63  1  0  0  0  0
 27 71  1  0  0  0  0
 28 72  1  0  0  0  0
 28 75  1  0  0  0  0
 29 77  1  0  0  0  0
 29 91  1  0  0  0  0
 30 71  2  0  0  0  0
 30 78  1  0  0  0  0
 30 91  1  0  0  0  0
 31 76  1  0  0  0  0
 31 82  2  0  0  0  0
 32 46  1  0  0  0  0
 32 79  1  0  0  0  0
 32 83  2  0  0  0  0
 33 64  1  0  0  0  0
 33 73  1  0  0  0  0
 33 84  2  0  0  0  0
 34 65  1  0  0  0  0
 34 80  1  0  0  0  0
 34 85  2  0  0  0  0
 35 74  1  0  0  0  0
 35 78  1  0  0  0  0
 35 86  2  0  0  0  0
 36 39  1  0  0  0  0
 37 46  1  0  0  0  0
 38 73  1  0  0  0  0
 39 41  1  0  0  0  0
 40 42  1  0  0  0  0
 40 43  1  0  0  0  0
 41 45  1  0  0  0  0
 42 47  1  0  0  0  0
 43 74  1  0  0  0  0
 44 47  1  0  0  0  0
 44 74  1  0  0  0  0
 45 79  1  0  0  0  0
 46 73  1  0  0  0  0
 47 72  1  0  0  0  0
 48 63  1  0  0  0  0
 49 65  1  0  0  0  0
 50 66  1  0  0  0  0
 51 67  1  0  0  0  0
 52 68  1  0  0  0  0
 53 68  1  0  0  0  0
 54 68  1  0  0  0  0
 55 69  1  0  0  0  0
 56 69  1  0  0  0  0
 57 69  1  0  0  0  0
 58 81  1  0  0  0  0
 59 60  1  0  0  0  0
 59 66  1  0  0  0  0
 60 67  1  0  0  0  0
 61 63  1  0  0  0  0
 61 68  1  0  0  0  0
 62 66  1  0  0  0  0
 62 88  1  0  0  0  0
 64 69  1  0  0  0  0
 64 80  1  0  0  0  0
 65 81  1  0  0  0  0
 67 77  1  0  0  0  0
 70 72  1  0  0  0  0
M  CHG  1  81   1
M  ISO  4  35 100  62 101  78 100  88 101
M  END
> <Batch ID>
0191

> <Smiles>
CNC(C)C(=O)NC(C(=O)N1Cc2cc([101O:1][101CH2:1]C(C)CCC(C)Nc3sc([100NH:0][100C:0](=O)N4CCCC(n5nc(-c6ccc(Oc7ccc(F)cc7F)cc6)c(C(N)=O)c5N)C4)nc3C(C)CC(C)(C)C)ccc2CC1C(=O)NC1CCCc2ccccc21)C(C)(C)C

> <Shape>
0.293

> <Color>
0.097

> <Negative vol penalty>
0.000

$$$$

  -OEChem-04052305243D

 84 92  0     1  0  0  0  0  0999 V2000
  -16.5051  -27.3475   22.2192 C   0  0  0  0  0  0  0  0  0  0  0  0
  -17.6732  -26.5920   22.2059 C   0  0  0  0  0  0  0  0  0  0  0  0
  -26.9010  -25.8178   16.8493 C   0  0  0  0  0  0  0  0  0  0  0  0
  -24.3320  -13.5003   21.1412 C   0  0  0  0  0  0  0  0  0  0  0  0
  -26.4512  -12.9005   20.1481 C   0  0  0  0  0  0  0  0  0  0  0  0
  -16.5453  -28.6973   21.8721 C   0  0  0  0  0  0  0  0  0  0  0  0
  -18.8821  -27.1857   21.8445 C   0  0  0  0  0  0  0  0  0  0  0  0
  -24.4310  -25.9059   24.0980 C   0  0  0  0  0  0  0  0  0  0  0  0
  -23.8270  -12.2390   20.8253 C   0  0  0  0  0  0  0  0  0  0  0  0
  -25.9462  -11.6392   19.8322 C   0  0  0  0  0  0  0  0  0  0  0  0
  -25.4738  -25.1094   23.6270 C   0  0  0  0  0  0  0  0  0  0  0  0
  -24.0254   -9.0963   22.0568 C   0  0  0  0  0  0  0  0  0  0  0  0
  -23.3019   -8.4226   23.0408 C   0  0  0  0  0  0  0  0  0  0  0  0
  -27.7869  -26.9169   16.9685 C   0  0  0  0  0  0  0  0  0  0  0  0
  -26.5163  -27.0573   22.6585 C   0  0  0  0  0  0  0  0  0  0  0  0
  -21.3714   -8.3749   21.5889 C   0  0  0  0  0  0  0  0  0  0  0  0
  -27.3975  -24.8021   17.6363 C   0  0  0  0  0  0  0  0  0  0  0  0
  -25.6441  -13.8310   20.8026 C   0  0  0  0  0  0  0  0  0  0  0  0
  -26.8282  -15.5131   22.3113 C   0  0  0  0  0  0  0  0  0  0  0  0
  -17.7569  -29.3101   21.5156 C   0  0  0  0  0  0  0  0  0  0  0  0
  -24.4174  -27.2848   23.8430 C   0  0  0  0  0  0  0  0  0  0  0  0
  -18.9383  -28.5446   21.4910 C   0  0  0  0  0  0  0  0  0  0  0  0
  -25.4735  -27.8696   23.1295 C   0  0  0  0  0  0  0  0  0  0  0  0
  -24.6341  -11.3085   20.1708 C   0  0  0  0  0  0  0  0  0  0  0  0
  -26.5152  -25.6846   22.9047 C   0  0  0  0  0  0  0  0  0  0  0  0
  -23.4218   -9.4094   20.8388 C   0  0  0  0  0  0  0  0  0  0  0  0
  -21.9750   -8.0618   22.8068 C   0  0  0  0  0  0  0  0  0  0  0  0
  -22.0949   -9.0487   20.6048 C   0  0  0  0  0  0  0  0  0  0  0  0
  -26.1662  -15.1339   21.1282 C   0  0  0  0  0  0  0  0  0  0  0  0
  -28.7979  -26.5393   17.8245 C   0  0  0  0  0  0  0  0  0  0  0  0
  -27.1205  -16.8428   22.1301 C   0  0  0  0  0  0  0  0  0  0  0  0
  -27.1501  -14.7331   23.4705 C   0  0  0  0  0  0  0  0  0  0  0  0
  -22.4772  -29.2577   22.2787 C   0  0  0  0  0  0  0  0  0  0  0  0
  -24.4383  -31.5324   23.5041 C   0  0  0  0  0  0  0  0  0  0  0  0
  -27.5091  -32.3439   24.7526 C   0  0  0  0  0  0  0  0  0  0  0  0
  -29.0692  -20.9042   19.0228 C   0  0  0  0  0  0  0  0  0  0  0  0
  -17.7427  -30.7605   21.1024 C   0  0  0  0  0  0  0  0  0  0  0  0
  -23.2989  -28.1345   24.3809 C   0  0  0  0  0  0  0  0  0  0  0  0
  -25.5163  -29.3482   22.8464 C   0  0  0  0  0  0  0  0  0  0  0  0
  -19.1266  -31.4049   21.0936 C   0  0  0  0  0  0  0  0  0  0  0  0
  -25.5661  -20.1052   18.5900 C   0  0  0  0  0  0  0  0  0  0  0  0
  -20.1335  -30.4975   20.3940 C   0  0  0  0  0  0  0  0  0  0  0  0
  -25.4685  -18.7622   19.3161 C   0  0  0  0  0  0  0  0  0  0  0  0
  -26.8898  -20.2343   17.8421 C   0  0  0  0  0  0  0  0  0  0  0  0
  -28.0034  -18.7019   19.4185 C   0  0  0  0  0  0  0  0  0  0  0  0
  -20.2731  -29.1586   21.1285 C   0  0  1  0  0  0  0  0  0  0  0  0
  -23.1261  -29.4459   23.6208 C   0  0  1  0  0  0  0  0  0  0  0  0
  -26.6971  -18.5193   20.2125 C   0  0  2  0  0  0  0  0  0  0  0  0
  -29.9757  -27.2983   18.2928 C   0  0  0  0  0  0  0  0  0  0  0  0
  -28.8256  -34.2897   25.6347 C   0  0  0  0  0  0  0  0  0  0  0  0
  -31.3760  -22.0640   16.6473 C   0  0  0  0  0  0  0  0  0  0  0  0
  -31.9592  -24.3674   17.3779 C   0  0  0  0  0  0  0  0  0  0  0  0
  -24.8068  -32.5701   20.6585 C   0  0  0  0  0  0  0  0  0  0  0  0
  -26.8057  -33.8481   21.4577 C   0  0  0  0  0  0  0  0  0  0  0  0
  -24.5491  -34.3525   22.3937 C   0  0  0  0  0  0  0  0  0  0  0  0
  -27.8668  -31.0543   27.3923 C   0  0  0  0  0  0  0  0  0  0  0  0
  -28.6763  -24.0923   20.4959 C   0  0  0  0  0  0  0  0  0  0  0  0
  -28.1750  -25.3282   21.2392 C   0  0  0  0  0  0  0  0  0  1  0  0
  -25.7110  -32.2049   23.0491 C   0  0  1  0  0  0  0  0  0  0  0  0
  -27.9200  -33.1208   25.9903 C   0  0  2  0  0  0  0  0  0  0  0  0
  -30.8015  -23.3783   17.2011 C   0  0  0  0  0  0  0  0  0  0  0  0
  -29.4143  -24.4300   19.1755 C   0  0  1  0  0  0  0  0  0  0  0  0
  -30.0193  -23.1419   18.5258 C   0  0  1  0  0  0  0  0  0  0  0  0
  -25.4667  -33.2157   21.8933 C   0  0  0  0  0  0  0  0  0  0  0  0
  -26.0449  -16.1414   20.2597 N   0  0  0  0  0  0  0  0  0  0  0  0
  -28.5510  -25.2519   18.2240 N   0  0  0  0  0  0  0  0  0  0  0  0
  -26.6345  -17.1667   20.8976 N   0  0  0  0  0  0  0  0  0  0  0  0
  -24.3965  -30.1358   23.3879 N   0  0  0  0  0  0  0  0  0  0  0  0
  -28.0189  -20.0103   18.7558 N   0  0  0  0  0  0  0  0  0  0  0  0
  -27.7433  -17.7549   22.9064 N   0  0  0  0  0  0  0  0  0  0  0  0
  -26.7769  -13.3823   23.4916 N   0  0  0  0  0  0  0  0  0  0  0  0
  -21.0968  -29.3130   22.3084 N   0  0  0  0  0  0  0  0  0  0  0  0
  -26.3102  -32.7942   24.2416 N   0  0  0  0  0  0  0  0  0  0  0  0
  -29.0132  -22.1183   18.3495 N   0  0  0  0  0  0  0  0  0  0  0  0
  -28.6490  -32.2337   26.9405 N   0  3  0  0  0  0  0  0  0  0  0  0
  -27.7364  -15.2236   24.4650 O   0  0  0  0  0  0  0  0  0  0  0  0
  -23.1772  -29.0772   21.2891 O   0  0  0  0  0  0  0  0  0  0  0  0
  -23.5181  -32.2203   23.9530 O   0  0  0  0  0  0  0  0  0  0  0  0
  -28.1859  -31.4314   24.2837 O   0  0  0  0  0  0  0  0  0  0  0  0
  -29.9869  -20.6418   19.8078 O   0  0  0  0  0  0  0  0  0  0  0  0
  -24.1417  -10.0776   19.8626 O   0  0  0  0  0  0  0  0  0  0  0  0
  -27.5339  -24.9092   22.4433 O   0  0  0  0  0  0  0  0  0  1  0  0
  -21.2809   -7.4135   23.7513 F   0  0  0  0  0  0  0  0  0  0  0  0
  -21.5101   -9.3457   19.4363 F   0  0  0  0  0  0  0  0  0  0  0  0
  1  2  1  0  0  0  0
  1  6  2  0  0  0  0
  2  7  2  0  0  0  0
  3 14  1  0  0  0  0
  3 17  2  0  0  0  0
  4  9  2  0  0  0  0
  4 18  1  0  0  0  0
  5 10  1  0  0  0  0
  5 18  2  0  0  0  0
  6 20  1  0  0  0  0
  7 22  1  0  0  0  0
  8 11  2  0  0  0  0
  8 21  1  0  0  0  0
  9 24  1  0  0  0  0
 10 24  2  0  0  0  0
 11 25  1  0  0  0  0
 12 13  2  0  0  0  0
 12 26  1  0  0  0  0
 13 27  1  0  0  0  0
 14 30  2  0  0  0  0
 15 23  1  0  0  0  0
 15 25  2  0  0  0  0
 16 27  2  0  0  0  0
 16 28  1  0  0  0  0
 17 66  1  0  0  0  0
 18 29  1  0  0  0  0
 19 29  1  0  0  0  0
 19 31  2  0  0  0  0
 19 32  1  0  0  0  0
 20 22  2  0  0  0  0
 20 37  1  0  0  0  0
 21 23  2  0  0  0  0
 21 38  1  0  0  0  0
 22 46  1  0  0  0  0
 23 39  1  0  0  0  0
 24 81  1  0  0  0  0
 25 82  1  0  0  0  0
 26 28  2  0  0  0  0
 26 81  1  0  0  0  0
 27 83  1  0  0  0  0
 28 84  1  0  0  0  0
 29 65  2  0  0  0  0
 30 49  1  0  0  0  0
 30 66  1  0  0  0  0
 31 67  1  0  0  0  0
 31 70  1  0  0  0  0
 32 71  1  0  0  0  0
 32 76  2  0  0  0  0
 33 47  1  0  0  0  0
 33 72  1  0  0  0  0
 33 77  2  0  0  0  0
 34 59  1  0  0  0  0
 34 68  1  0  0  0  0
 34 78  2  0  0  0  0
 35 60  1  0  0  0  0
 35 73  1  0  0  0  0
 35 79  2  0  0  0  0
 36 69  1  0  0  0  0
 36 74  1  0  0  0  0
 36 80  2  0  0  0  0
 37 40  1  0  0  0  0
 38 47  1  0  0  0  0
 39 68  1  0  0  0  0
 40 42  1  0  0  0  0
 41 43  1  0  0  0  0
 41 44  1  0  0  0  0
 42 46  1  0  0  0  0
 43 48  1  0  0  0  0
 44 69  1  0  0  0  0
 45 48  1  0  0  0  0
 45 69  1  0  0  0  0
 46 72  1  0  0  0  0
 47 68  1  0  0  0  0
 48 67  1  0  0  0  0
 50 60  1  0  0  0  0
 51 61  1  0  0  0  0
 52 61  1  0  0  0  0
 53 64  1  0  0  0  0
 54 64  1  0  0  0  0
 55 64  1  0  0  0  0
 56 75  1  0  0  0  0
 57 58  1  0  0  0  0
 57 62  1  0  0  0  0
 58 82  1  0  0  0  0
 59 64  1  0  0  0  0
 59 73  1  0  0  0  0
 60 75  1  0  0  0  0
 61 63  1  0  0  0  0
 62 63  1  0  0  0  0
 62 66  1  0  0  0  0
 63 74  1  0  0  0  0
 65 67  1  0  0  0  0
M  CHG  1  75   1
M  ISO  4  36 100  58 101  74 100  82 101
M  END
> <Batch ID>
0191

> <Smiles>
CNC(C)C(=O)NC(C(=O)N1Cc2cc([101O:1][101CH2:1]CC(C([100NH:0][100C:0](=O)N3CCCC(n4nc(-c5ccc(Oc6ccc(F)cc6F)cc5)c(C(N)=O)c4N)C3)C(C)C)n3cccc3C)ccc2CC1C(=O)NC1CCCc2ccccc21)C(C)(C)C

> <Shape>
0.272

> <Color>
0.086

> <Negative vol penalty>
0.000

$$$$

  -OEChem-04052305243D

 85 93  0     1  0  0  0  0  0999 V2000
  -16.7164  -30.4706   23.4372 C   0  0  0  0  0  0  0  0  0  0  0  0
  -17.9064  -31.0885   23.0665 C   0  0  0  0  0  0  0  0  0  0  0  0
  -26.4538  -12.5716   21.5355 C   0  0  0  0  0  0  0  0  0  0  0  0
  -25.4319  -13.6691   19.6413 C   0  0  0  0  0  0  0  0  0  0  0  0
  -16.7182  -29.1300   23.8203 C   0  0  0  0  0  0  0  0  0  0  0  0
  -19.0992  -30.3664   23.0797 C   0  0  0  0  0  0  0  0  0  0  0  0
  -25.3594  -29.8637   19.6339 C   0  0  0  0  0  0  0  0  0  0  0  0
  -25.5892  -11.4889   21.3747 C   0  0  0  0  0  0  0  0  0  0  0  0
  -24.5673  -12.5864   19.4804 C   0  0  0  0  0  0  0  0  0  0  0  0
  -26.7305  -29.8564   19.8867 C   0  0  0  0  0  0  0  0  0  0  0  0
  -25.3376   -8.7786   19.3688 C   0  0  0  0  0  0  0  0  0  0  0  0
  -25.8828   -7.4970   19.4440 C   0  0  0  0  0  0  0  0  0  0  0  0
  -26.6006  -27.5244   20.4904 C   0  0  0  0  0  0  0  0  0  0  0  0
  -24.4388   -6.9926   21.3142 C   0  0  0  0  0  0  0  0  0  0  0  0
  -30.2832  -22.1941   18.9710 C   0  0  0  0  0  0  0  0  0  0  0  0
  -30.4817  -24.6150   20.2141 C   0  0  0  0  0  0  0  0  0  0  0  0
  -26.3751  -13.6617   20.6688 C   0  0  0  0  0  0  0  0  0  0  0  0
  -28.5361  -14.9505   20.2486 C   0  0  0  0  0  0  0  0  0  0  0  0
  -17.9102  -28.3885   23.8289 C   0  0  0  0  0  0  0  0  0  0  0  0
  -24.5955  -28.7023   19.8182 C   0  0  0  0  0  0  0  0  0  0  0  0
  -19.1173  -29.0150   23.4646 C   0  0  0  0  0  0  0  0  0  0  0  0
  -25.2205  -27.5190   20.2368 C   0  0  0  0  0  0  0  0  0  0  0  0
  -31.1797  -24.4250   19.0324 C   0  0  0  0  0  0  0  0  0  0  0  0
  -24.6460  -11.4963   20.3472 C   0  0  0  0  0  0  0  0  0  0  0  0
  -27.3508  -28.6874   20.3178 C   0  0  0  0  0  0  0  0  0  0  0  0
  -24.3431   -9.1673   20.2663 C   0  0  0  0  0  0  0  0  0  0  0  0
  -25.4334   -6.6039   20.4167 C   0  0  0  0  0  0  0  0  0  0  0  0
  -23.8937   -8.2743   21.2390 C   0  0  0  0  0  0  0  0  0  0  0  0
  -31.0732  -23.1886   18.4053 C   0  0  0  0  0  0  0  0  0  0  0  0
  -27.2675  -14.7807   20.8348 C   0  0  0  0  0  0  0  0  0  0  0  0
  -29.6254  -22.4839   20.1556 C   0  0  0  0  0  0  0  0  0  0  0  0
  -28.9710  -16.1661   20.7172 C   0  0  0  0  0  0  0  0  0  0  0  0
  -29.2569  -14.0867   19.3598 C   0  0  0  0  0  0  0  0  0  0  0  0
  -22.1606  -27.8934   21.6946 C   0  0  0  0  0  0  0  0  0  0  0  0
  -22.2191  -25.1673   19.9375 C   0  0  0  0  0  0  0  0  0  0  0  0
  -24.0057  -23.0263   17.9700 C   0  0  0  0  0  0  0  0  0  0  0  0
  -28.0772  -21.5330   21.9006 C   0  0  0  0  0  0  0  0  0  0  0  0
  -17.8699  -26.9550   24.2960 C   0  0  0  0  0  0  0  0  0  0  0  0
  -23.1222  -28.7197   19.5155 C   0  0  0  0  0  0  0  0  0  0  0  0
  -24.4487  -26.2402   20.4305 C   0  0  0  0  0  0  0  0  0  0  0  0
  -19.1172  -26.1577   23.9233 C   0  0  0  0  0  0  0  0  0  0  0  0
  -27.1133  -19.1474   24.3617 C   0  0  0  0  0  0  0  0  0  0  0  0
  -20.3768  -26.9545   24.2478 C   0  0  0  0  0  0  0  0  0  0  0  0
  -27.1718  -17.8127   23.6153 C   0  0  0  0  0  0  0  0  0  0  0  0
  -26.6104  -20.2772   23.4648 C   0  0  0  0  0  0  0  0  0  0  0  0
  -27.3913  -19.0956   21.4490 C   0  0  0  0  0  0  0  0  0  0  0  0
  -20.4276  -28.2584   23.4423 C   0  0  1  0  0  0  0  0  0  0  0  0
  -22.3522  -27.6139   20.2307 C   0  0  1  0  0  0  0  0  0  0  0  0
  -27.9535  -17.9402   22.2931 C   0  0  2  0  0  0  0  0  0  0  0  0
  -23.7939  -20.8650   16.7125 C   0  0  0  0  0  0  0  0  0  0  0  0
  -30.7160  -27.8612   17.3080 C   0  0  0  0  0  0  0  0  0  0  0  0
  -33.4188  -27.3632   18.6361 C   0  0  0  0  0  0  0  0  0  0  0  0
  -22.3811  -23.6253   22.5654 C   0  0  0  0  0  0  0  0  0  0  0  0
  -23.1142  -21.6176   21.2615 C   0  0  0  0  0  0  0  0  0  0  0  0
  -20.8637  -22.6136   20.8541 C   0  0  0  0  0  0  0  0  0  0  0  0
  -24.6039  -24.3374   15.3850 C   0  0  0  0  0  0  0  0  0  0  0  0
  -30.8830  -28.9652   19.5969 C   0  0  0  0  0  0  0  0  0  0  0  0
  -29.4974  -29.5723   19.8029 C   0  0  0  0  0  0  0  0  0  1  0  0
  -22.9248  -23.8375   20.0504 C   0  0  1  0  0  0  0  0  0  0  0  0
  -23.6845  -22.3799   16.6346 C   0  0  2  0  0  0  0  0  0  0  0  0
  -30.8680  -27.6322   18.8190 C   0  0  2  0  0  0  0  0  0  0  0  0
  -32.1050  -26.7411   19.1036 C   0  0  1  0  0  0  0  0  0  0  0  0
  -22.3354  -22.9479   21.1811 C   0  0  0  0  0  0  0  0  0  0  0  0
  -29.7045  -23.6730   20.7939 N   0  0  0  0  0  0  0  0  0  0  0  0
  -26.9192  -15.8063   21.6163 N   0  0  0  0  0  0  0  0  0  0  0  0
  -27.9754  -16.6322   21.5245 N   0  0  0  0  0  0  0  0  0  0  0  0
  -23.0096  -26.3095   20.1275 N   0  0  0  0  0  0  0  0  0  0  0  0
  -27.4006  -20.3404   22.2333 N   0  0  0  0  0  0  0  0  0  0  0  0
  -30.1041  -16.8711   20.5135 N   0  0  0  0  0  0  0  0  0  0  0  0
  -28.6641  -12.8752   18.9787 N   0  0  0  0  0  0  0  0  0  0  0  0
  -31.9570  -25.4343   18.4948 N   0  0  0  0  0  0  0  0  0  0  0  0
  -28.8226  -21.4641   20.7241 N   0  0  0  0  0  0  0  0  0  0  0  0
  -20.8373  -27.9949   22.0795 N   0  0  0  0  0  0  0  0  0  0  0  0
  -22.8699  -23.2324   18.7240 N   0  0  0  0  0  0  0  0  0  0  0  0
  -24.6242  -22.8655   15.5847 N   0  3  0  0  0  0  0  0  0  0  0  0
  -30.4000  -14.3728   18.9298 O   0  0  0  0  0  0  0  0  0  0  0  0
  -23.1407  -28.0069   22.4213 O   0  0  0  0  0  0  0  0  0  0  0  0
  -21.0124  -25.1918   19.6828 O   0  0  0  0  0  0  0  0  0  0  0  0
  -25.1503  -23.3159   18.3117 O   0  0  0  0  0  0  0  0  0  0  0  0
  -28.0230  -22.5327   22.6216 O   0  0  0  0  0  0  0  0  0  0  0  0
  -23.8023  -10.4399   20.1898 O   0  0  0  0  0  0  0  0  0  0  0  0
  -28.6888  -28.6777   20.5660 O   0  0  0  0  0  0  0  0  0  1  0  0
  -25.9560   -5.3726   20.4879 F   0  0  0  0  0  0  0  0  0  0  0  0
  -22.9377   -8.6416   22.1032 F   0  0  0  0  0  0  0  0  0  0  0  0
  -31.7256  -22.9463   17.2595 F   0  0  0  0  0  0  0  0  0  0  0  0
  1  2  1  0  0  0  0
  1  5  2  0  0  0  0
  2  6  2  0  0  0  0
  3  8  2  0  0  0  0
  3 17  1  0  0  0  0
  4  9  1  0  0  0  0
  4 17  2  0  0  0  0
  5 19  1  0  0  0  0
  6 21  1  0  0  0  0
  7 10  2  0  0  0  0
  7 20  1  0  0  0  0
  8 24  1  0  0  0  0
  9 24  2  0  0  0  0
 10 25  1  0  0  0  0
 11 12  2  0  0  0  0
 11 26  1  0  0  0  0
 12 27  1  0  0  0  0
 13 22  1  0  0  0  0
 13 25  2  0  0  0  0
 14 27  2  0  0  0  0
 14 28  1  0  0  0  0
 15 29  1  0  0  0  0
 15 31  2  0  0  0  0
 16 23  1  0  0  0  0
 16 64  2  0  0  0  0
 17 30  1  0  0  0  0
 18 30  1  0  0  0  0
 18 32  2  0  0  0  0
 18 33  1  0  0  0  0
 19 21  2  0  0  0  0
 19 38  1  0  0  0  0
 20 22  2  0  0  0  0
 20 39  1  0  0  0  0
 21 47  1  0  0  0  0
 22 40  1  0  0  0  0
 23 29  2  0  0  0  0
 23 71  1  0  0  0  0
 24 81  1  0  0  0  0
 25 82  1  0  0  0  0
 26 28  2  0  0  0  0
 26 81  1  0  0  0  0
 27 83  1  0  0  0  0
 28 84  1  0  0  0  0
 29 85  1  0  0  0  0
 30 65  2  0  0  0  0
 31 64  1  0  0  0  0
 31 72  1  0  0  0  0
 32 66  1  0  0  0  0
 32 69  1  0  0  0  0
 33 70  1  0  0  0  0
 33 76  2  0  0  0  0
 34 48  1  0  0  0  0
 34 73  1  0  0  0  0
 34 77  2  0  0  0  0
 35 59  1  0  0  0  0
 35 67  1  0  0  0  0
 35 78  2  0  0  0  0
 36 60  1  0  0  0  0
 36 74  1  0  0  0  0
 36 79  2  0  0  0  0
 37 68  1  0  0  0  0
 37 72  1  0  0  0  0
 37 80  2  0  0  0  0
 38 41  1  0  0  0  0
 39 48  1  0  0  0  0
 40 67  1  0  0  0  0
 41 43  1  0  0  0  0
 42 44  1  0  0  0  0
 42 45  1  0  0  0  0
 43 47  1  0  0  0  0
 44 49  1  0  0  0  0
 45 68  1  0  0  0  0
 46 49  1  0  0  0  0
 46 68  1  0  0  0  0
 47 73  1  0  0  0  0
 48 67  1  0  0  0  0
 49 66  1  0  0  0  0
 50 60  1  0  0  0  0
 51 61  1  0  0  0  0
 52 62  1  0  0  0  0
 53 63  1  0  0  0  0
 54 63  1  0  0  0  0
 55 63  1  0  0  0  0
 56 75  1  0  0  0  0
 57 58  1  0  0  0  0
 57 61  1  0  0  0  0
 58 82  1  0  0  0  0
 59 63  1  0  0  0  0
 59 74  1  0  0  0  0
 60 75  1  0  0  0  0
 61 62  1  0  0  0  0
 62 71  1  0  0  0  0
 65 66  1  0  0  0  0
M  CHG  1  75   1
M  ISO  4  37 100  58 101  72 100  82 101
M  END
> <Batch ID>
0191

> <Smiles>
CNC(C)C(=O)NC(C(=O)N1Cc2cc([101O:1][101CH2:1]CC(C)C(C)Nc3cnc([100NH:0][100C:0](=O)N4CCCC(n5nc(-c6ccc(Oc7ccc(F)cc7F)cc6)c(C(N)=O)c5N)C4)cc3F)ccc2CC1C(=O)NC1CCCc2ccccc21)C(C)(C)C

> <Shape>
0.248

> <Color>
0.067

> <Negative vol penalty>
0.000

$$$$

  -OEChem-04052305243D

 86 94  0     1  0  0  0  0  0999 V2000
  -18.8311  -26.4673   22.4627 C   0  0  0  0  0  0  0  0  0  0  0  0
  -20.1556  -26.1736   22.7706 C   0  0  0  0  0  0  0  0  0  0  0  0
  -23.1700   -9.7374   19.9493 C   0  0  0  0  0  0  0  0  0  0  0  0
  -23.7815   -9.9168   22.2797 C   0  0  0  0  0  0  0  0  0  0  0  0
  -18.4528  -27.7835   22.2012 C   0  0  0  0  0  0  0  0  0  0  0  0
  -21.1029  -27.1958   22.8160 C   0  0  0  0  0  0  0  0  0  0  0  0
  -24.1316  -26.8595   26.8606 C   0  0  0  0  0  0  0  0  0  0  0  0
  -22.4696   -8.5627   20.2234 C   0  0  0  0  0  0  0  0  0  0  0  0
  -23.0811   -8.7421   22.5539 C   0  0  0  0  0  0  0  0  0  0  0  0
  -25.1596  -25.9190   26.8099 C   0  0  0  0  0  0  0  0  0  0  0  0
  -23.5706   -5.4136   22.2182 C   0  0  0  0  0  0  0  0  0  0  0  0
  -24.1892   -4.4655   23.0330 C   0  0  0  0  0  0  0  0  0  0  0  0
  -26.7231  -27.6673   26.2458 C   0  0  0  0  0  0  0  0  0  0  0  0
  -22.3764   -4.6466   24.6199 C   0  0  0  0  0  0  0  0  0  0  0  0
  -30.9303  -19.7775   22.6582 C   0  0  0  0  0  0  0  0  0  0  0  0
  -23.8260  -10.4144   20.9774 C   0  0  0  0  0  0  0  0  0  0  0  0
  -24.0496  -12.9430   20.7249 C   0  0  0  0  0  0  0  0  0  0  0  0
  -19.3940  -28.8238   22.2530 C   0  0  0  0  0  0  0  0  0  0  0  0
  -24.3901  -28.2115   26.5932 C   0  0  0  0  0  0  0  0  0  0  0  0
  -20.7371  -28.5270   22.5537 C   0  0  0  0  0  0  0  0  0  0  0  0
  -25.6971  -28.6233   26.2963 C   0  0  0  0  0  0  0  0  0  0  0  0
  -22.4252   -8.0651   21.5258 C   0  0  0  0  0  0  0  0  0  0  0  0
  -26.4550  -26.3224   26.4996 C   0  0  0  0  0  0  0  0  0  0  0  0
  -22.3549   -5.9784   22.6042 C   0  0  0  0  0  0  0  0  0  0  0  0
  -23.5921   -4.0820   24.2339 C   0  0  0  0  0  0  0  0  0  0  0  0
  -21.7578   -5.5948   23.8050 C   0  0  0  0  0  0  0  0  0  0  0  0
  -24.5501  -11.6276   20.6947 C   0  0  0  0  0  0  0  0  0  0  0  0
  -29.6876  -19.2680   22.9750 C   0  0  0  0  0  0  0  0  0  0  0  0
  -31.7561  -18.9351   21.9422 C   0  0  0  0  0  0  0  0  0  0  0  0
  -25.1242  -13.7272   20.3834 C   0  0  0  0  0  0  0  0  0  0  0  0
  -30.1687  -17.3081   21.9288 C   0  0  0  0  0  0  0  0  0  0  0  0
  -22.7311  -13.4140   21.0342 C   0  0  0  0  0  0  0  0  0  0  0  0
  -23.4055  -30.2927   24.4016 C   0  0  0  0  0  0  0  0  0  0  0  0
  -25.0861  -32.3979   26.2088 C   0  0  0  0  0  0  0  0  0  0  0  0
  -27.5943  -32.9254   28.4622 C   0  0  0  0  0  0  0  0  0  0  0  0
  -30.5100  -15.0698   20.8243 C   0  0  0  0  0  0  0  0  0  0  0  0
  -18.9472  -30.2244   21.9164 C   0  0  0  0  0  0  0  0  0  0  0  0
  -23.2752  -29.2177   26.6783 C   0  0  0  0  0  0  0  0  0  0  0  0
  -26.0308  -30.0660   26.0211 C   0  0  0  0  0  0  0  0  0  0  0  0
  -19.9376  -31.3010   22.3526 C   0  0  0  0  0  0  0  0  0  0  0  0
  -29.6687  -12.4678   18.5441 C   0  0  0  0  0  0  0  0  0  0  0  0
  -21.3576  -30.9142   21.9517 C   0  0  0  0  0  0  0  0  0  0  0  0
  -28.2209  -12.1255   18.9028 C   0  0  0  0  0  0  0  0  0  0  0  0
  -30.4933  -12.8137   19.7827 C   0  0  0  0  0  0  0  0  0  0  0  0
  -28.4691  -13.5143   20.9996 C   0  0  0  0  0  0  0  0  0  0  0  0
  -21.7889  -29.6119   22.6370 C   0  0  1  0  0  0  0  0  0  0  0  0
  -23.5561  -30.4893   25.8836 C   0  0  1  0  0  0  0  0  0  0  0  0
  -27.5827  -13.2221   19.7779 C   0  0  2  0  0  0  0  0  0  0  0  0
  -28.7563  -34.7575   29.7234 C   0  0  0  0  0  0  0  0  0  0  0  0
  -26.5704  -33.2028   23.6673 C   0  0  0  0  0  0  0  0  0  0  0  0
  -28.3062  -34.2885   25.1083 C   0  0  0  0  0  0  0  0  0  0  0  0
  -25.9513  -35.1098   25.1622 C   0  0  0  0  0  0  0  0  0  0  0  0
  -26.8223  -31.7735   31.0768 C   0  0  0  0  0  0  0  0  0  0  0  0
  -33.8146  -18.4573   20.8512 C   0  0  0  0  0  0  0  0  0  0  0  0
  -29.1643  -21.4210   24.1223 C   0  0  0  0  0  0  0  0  0  0  0  0
  -27.1086  -24.0770   26.0671 C   0  0  0  0  0  0  0  0  0  1  0  0
  -26.5139  -32.8878   26.2293 C   0  0  1  0  0  0  0  0  0  0  0  0
  -27.6387  -33.7265   29.7508 C   0  0  2  0  0  0  0  0  0  0  0  0
  -28.0026  -22.0198   24.9051 C   0  0  1  0  0  0  0  0  0  0  0  0
  -28.3024  -23.4384   25.3758 C   0  0  1  0  0  0  0  0  0  0  0  0
  -26.8291  -33.8447   25.0450 C   0  0  0  0  0  0  0  0  0  0  0  0
  -25.8422  -11.5751   20.3602 N   0  0  0  0  0  0  0  0  0  0  0  0
  -29.2724  -18.0329   22.6250 N   0  0  0  0  0  0  0  0  0  0  0  0
  -31.4064  -17.6894   21.5596 N   0  0  0  0  0  0  0  0  0  0  0  0
  -26.1626  -12.8673   20.1771 N   0  0  0  0  0  0  0  0  0  0  0  0
  -24.9054  -31.0110   26.1102 N   0  0  0  0  0  0  0  0  0  0  0  0
  -29.8295  -13.8623   20.5604 N   0  0  0  0  0  0  0  0  0  0  0  0
  -25.2728  -15.0616   20.2424 N   0  0  0  0  0  0  0  0  0  0  0  0
  -21.7460  -12.4733   21.3643 N   0  0  0  0  0  0  0  0  0  0  0  0
  -28.8285  -20.0830   23.6939 N   0  0  0  0  0  0  0  0  0  0  0  0
  -29.7670  -16.0048   21.5443 N   0  0  0  0  0  0  0  0  0  0  0  0
  -22.1505  -29.8621   24.0158 N   0  0  0  0  0  0  0  0  0  0  0  0
  -26.7240  -33.4783   27.5467 N   0  0  0  0  0  0  0  0  0  0  0  0
  -27.8612  -32.8231   30.9150 N   0  3  0  0  0  0  0  0  0  0  0  0
  -22.4312  -14.6316   21.0022 O   0  0  0  0  0  0  0  0  0  0  0  0
  -24.3571  -30.5166   23.6627 O   0  0  0  0  0  0  0  0  0  0  0  0
  -24.1652  -33.2150   26.2850 O   0  0  0  0  0  0  0  0  0  0  0  0
  -28.2675  -31.9126   28.2839 O   0  0  0  0  0  0  0  0  0  0  0  0
  -31.6567  -15.2710   20.4163 O   0  0  0  0  0  0  0  0  0  0  0  0
  -21.7416   -6.9190   21.7937 O   0  0  0  0  0  0  0  0  0  0  0  0
  -27.4601  -25.4064   26.4487 O   0  0  0  0  0  0  0  0  0  1  0  0
  -33.0067  -19.3675   21.5885 O   0  0  0  0  0  0  0  0  0  0  0  0
  -24.1854   -3.1703   25.0155 F   0  0  0  0  0  0  0  0  0  0  0  0
  -20.5894   -6.1329   24.1806 F   0  0  0  0  0  0  0  0  0  0  0  0
  -26.9149  -22.0633   24.0826 F   0  0  0  0  0  0  0  0  0  0  0  0
  -28.6039  -24.1972   24.2818 F   0  0  0  0  0  0  0  0  0  0  0  0
  1  2  1  0  0  0  0
  1  5  2  0  0  0  0
  2  6  2  0  0  0  0
  3  8  2  0  0  0  0
  3 16  1  0  0  0  0
  4  9  1  0  0  0  0
  4 16  2  0  0  0  0
  5 18  1  0  0  0  0
  6 20  1  0  0  0  0
  7 10  2  0  0  0  0
  7 19  1  0  0  0  0
  8 22  1  0  0  0  0
  9 22  2  0  0  0  0
 10 23  1  0  0  0  0
 11 12  2  0  0  0  0
 11 24  1  0  0  0  0
 12 25  1  0  0  0  0
 13 21  1  0  0  0  0
 13 23  2  0  0  0  0
 14 25  2  0  0  0  0
 14 26  1  0  0  0  0
 15 28  1  0  0  0  0
 15 29  2  0  0  0  0
 16 27  1  0  0  0  0
 17 27  1  0  0  0  0
 17 30  2  0  0  0  0
 17 32  1  0  0  0  0
 18 20  2  0  0  0  0
 18 37  1  0  0  0  0
 19 21  2  0  0  0  0
 19 38  1  0  0  0  0
 20 46  1  0  0  0  0
 21 39  1  0  0  0  0
 22 80  1  0  0  0  0
 23 81  1  0  0  0  0
 24 26  2  0  0  0  0
 24 80  1  0  0  0  0
 25 83  1  0  0  0  0
 26 84  1  0  0  0  0
 27 62  2  0  0  0  0
 28 63  2  0  0  0  0
 28 70  1  0  0  0  0
 29 64  1  0  0  0  0
 29 82  1  0  0  0  0
 30 65  1  0  0  0  0
 30 68  1  0  0  0  0
 31 63  1  0  0  0  0
 31 64  2  0  0  0  0
 31 71  1  0  0  0  0
 32 69  1  0  0  0  0
 32 75  2  0  0  0  0
 33 47  1  0  0  0  0
 33 72  1  0  0  0  0
 33 76  2  0  0  0  0
 34 57  1  0  0  0  0
 34 66  1  0  0  0  0
 34 77  2  0  0  0  0
 35 58  1  0  0  0  0
 35 73  1  0  0  0  0
 35 78  2  0  0  0  0
 36 67  1  0  0  0  0
 36 71  1  0  0  0  0
 36 79  2  0  0  0  0
 37 40  1  0  0  0  0
 38 47  1  0  0  0  0
 39 66  1  0  0  0  0
 40 42  1  0  0  0  0
 41 43  1  0  0  0  0
 41 44  1  0  0  0  0
 42 46  1  0  0  0  0
 43 48  1  0  0  0  0
 44 67  1  0  0  0  0
 45 48  1  0  0  0  0
 45 67  1  0  0  0  0
 46 72  1  0  0  0  0
 47 66  1  0  0  0  0
 48 65  1  0  0  0  0
 49 58  1  0  0  0  0
 50 61  1  0  0  0  0
 51 61  1  0  0  0  0
 52 61  1  0  0  0  0
 53 74  1  0  0  0  0
 54 82  1  0  0  0  0
 55 59  1  0  0  0  0
 55 70  1  0  0  0  0
 56 60  1  0  0  0  0
 56 81  1  0  0  0  0
 57 61  1  0  0  0  0
 57 73  1  0  0  0  0
 58 74  1  0  0  0  0
 59 60  1  0  0  0  0
 59 85  1  0  0  0  0
 60 86  1  0  0  0  0
 62 65  1  0  0  0  0
M  CHG  1  74   1
M  ISO  4  36 100  56 101  71 100  81 101
M  END
> <Batch ID>
0191

> <Smiles>
CNC(C)C(=O)NC(C(=O)N1Cc2cc([101O:1][101CH2:1]C(F)C(F)CNc3cc(OC)nc([100NH:0][100C:0](=O)N4CCCC(n5nc(-c6ccc(Oc7ccc(F)cc7F)cc6)c(C(N)=O)c5N)C4)n3)ccc2CC1C(=O)NC1CCCc2ccccc21)C(C)(C)C

> <Shape>
0.299

> <Color>
0.200

> <Negative vol penalty>
0.000

$$$$

  -OEChem-04052305243D

 86 94  0     1  0  0  0  0  0999 V2000
  -17.2719  -26.3208   22.7304 C   0  0  0  0  0  0  0  0  0  0  0  0
  -18.5243  -25.7690   22.9806 C   0  0  0  0  0  0  0  0  0  0  0  0
  -22.2143  -11.8082   21.1481 C   0  0  0  0  0  0  0  0  0  0  0  0
  -24.3869  -12.5090   21.9390 C   0  0  0  0  0  0  0  0  0  0  0  0
  -17.1702  -27.5505   22.0813 C   0  0  0  0  0  0  0  0  0  0  0  0
  -19.6757  -26.4463   22.5807 C   0  0  0  0  0  0  0  0  0  0  0  0
  -25.0716  -26.5607   25.4750 C   0  0  0  0  0  0  0  0  0  0  0  0
  -22.6679  -10.4916   21.0683 C   0  0  0  0  0  0  0  0  0  0  0  0
  -24.8406  -11.1924   21.8593 C   0  0  0  0  0  0  0  0  0  0  0  0
  -26.2549  -25.8493   25.2818 C   0  0  0  0  0  0  0  0  0  0  0  0
  -23.1474   -6.8888   21.0003 C   0  0  0  0  0  0  0  0  0  0  0  0
  -22.3171   -5.8853   21.4996 C   0  0  0  0  0  0  0  0  0  0  0  0
  -27.1285  -27.6716   23.9645 C   0  0  0  0  0  0  0  0  0  0  0  0
  -22.3926   -6.9107   23.6859 C   0  0  0  0  0  0  0  0  0  0  0  0
  -27.4225  -19.9693   20.0281 C   0  0  0  0  0  0  0  0  0  0  0  0
  -27.5536  -22.2017   18.5699 C   0  0  0  0  0  0  0  0  0  0  0  0
  -23.0737  -12.8169   21.5833 C   0  0  0  0  0  0  0  0  0  0  0  0
  -22.0013  -14.8030   22.7720 C   0  0  0  0  0  0  0  0  0  0  0  0
  -18.3213  -28.2477   21.6819 C   0  0  0  0  0  0  0  0  0  0  0  0
  -24.9034  -27.8306   24.9043 C   0  0  0  0  0  0  0  0  0  0  0  0
  -19.5893  -27.6858   21.9244 C   0  0  0  0  0  0  0  0  0  0  0  0
  -25.9431  -28.3982   24.1540 C   0  0  0  0  0  0  0  0  0  0  0  0
  -23.9811  -10.1837   21.4240 C   0  0  0  0  0  0  0  0  0  0  0  0
  -27.2825  -26.4034   24.5240 C   0  0  0  0  0  0  0  0  0  0  0  0
  -23.6004   -7.9031   21.8439 C   0  0  0  0  0  0  0  0  0  0  0  0
  -21.9397   -5.8963   22.8424 C   0  0  0  0  0  0  0  0  0  0  0  0
  -23.2230   -7.9141   23.1867 C   0  0  0  0  0  0  0  0  0  0  0  0
  -22.6058  -14.1772   21.6654 C   0  0  0  0  0  0  0  0  0  0  0  0
  -26.4253  -20.2947   19.1352 C   0  0  0  0  0  0  0  0  0  0  0  0
  -28.5505  -21.8768   19.4633 C   0  0  0  0  0  0  0  0  0  0  0  0
  -21.7448  -16.0830   22.3450 C   0  0  0  0  0  0  0  0  0  0  0  0
  -21.6988  -14.2746   24.0701 C   0  0  0  0  0  0  0  0  0  0  0  0
  -22.8981  -29.0886   22.7830 C   0  0  0  0  0  0  0  0  0  0  0  0
  -24.3988  -31.8505   23.5841 C   0  0  0  0  0  0  0  0  0  0  0  0
  -27.1839  -33.3780   24.8318 C   0  0  0  0  0  0  0  0  0  0  0  0
  -24.2179  -19.5644   18.1654 C   0  0  0  0  0  0  0  0  0  0  0  0
  -18.1599  -29.5515   20.9411 C   0  0  0  0  0  0  0  0  0  0  0  0
  -23.6312  -28.5964   25.1444 C   0  0  0  0  0  0  0  0  0  0  0  0
  -25.8202  -29.7666   23.5369 C   0  0  0  0  0  0  0  0  0  0  0  0
  -19.4393  -30.3822   20.8843 C   0  0  0  0  0  0  0  0  0  0  0  0
  -20.8005  -18.5870   18.3735 C   0  0  0  0  0  0  0  0  0  0  0  0
  -20.6264  -29.5080   20.4926 C   0  0  0  0  0  0  0  0  0  0  0  0
  -20.8198  -17.4060   19.3467 C   0  0  0  0  0  0  0  0  0  0  0  0
  -22.0347  -18.6003   17.4733 C   0  0  0  0  0  0  0  0  0  0  0  0
  -23.3393  -17.3585   19.1541 C   0  0  0  0  0  0  0  0  0  0  0  0
  -20.8623  -28.4018   21.5281 C   0  0  1  0  0  0  0  0  0  0  0  0
  -23.3689  -29.6654   24.0881 C   0  0  1  0  0  0  0  0  0  0  0  0
  -22.1480  -17.3395   20.1258 C   0  0  2  0  0  0  0  0  0  0  0  0
  -28.1296  -35.6486   25.3293 C   0  0  0  0  0  0  0  0  0  0  0  0
  -30.9780  -24.3504   23.7808 C   0  0  0  0  0  0  0  0  0  0  0  0
  -31.6491  -21.4446   19.8874 C   0  0  0  0  0  0  0  0  0  0  0  0
  -24.9293  -32.2786   20.6100 C   0  0  0  0  0  0  0  0  0  0  0  0
  -26.6447  -33.9922   21.2338 C   0  0  0  0  0  0  0  0  0  0  0  0
  -24.2541  -34.3390   21.8564 C   0  0  0  0  0  0  0  0  0  0  0  0
  -27.4243  -32.7731   27.7189 C   0  0  0  0  0  0  0  0  0  0  0  0
  -30.6155  -24.9646   21.3333 C   0  0  0  0  0  0  0  0  0  0  0  0
  -29.1435  -25.9469   23.1154 C   0  0  0  0  0  0  0  0  0  1  0  0
  -25.6128  -32.5928   23.0799 C   0  0  1  0  0  0  0  0  0  0  0  0
  -27.3537  -34.4624   25.8805 C   0  0  2  0  0  0  0  0  0  0  0  0
  -29.9534  -24.7088   22.6996 C   0  0  2  0  0  0  0  0  0  0  0  0
  -30.7336  -22.5067   20.4943 C   0  0  1  0  0  0  0  0  0  0  0  0
  -31.4826  -23.8224   20.7758 C   0  0  1  0  0  0  0  0  0  0  0  0
  -25.3621  -33.2740   21.7049 C   0  0  0  0  0  0  0  0  0  0  0  0
  -26.4731  -21.4166   18.3899 N   0  0  0  0  0  0  0  0  0  0  0  0
  -28.5028  -20.7547   20.2084 N   0  0  0  0  0  0  0  0  0  0  0  0
  -22.7261  -14.9925   20.6142 N   0  0  0  0  0  0  0  0  0  0  0  0
  -22.1935  -16.1436   21.0584 N   0  0  0  0  0  0  0  0  0  0  0  0
  -24.5546  -30.4732   23.7949 N   0  0  0  0  0  0  0  0  0  0  0  0
  -23.2551  -18.5395   18.2806 N   0  0  0  0  0  0  0  0  0  0  0  0
  -21.1814  -17.1512   22.9481 N   0  0  0  0  0  0  0  0  0  0  0  0
  -22.0295  -12.9400   24.3419 N   0  0  0  0  0  0  0  0  0  0  0  0
  -25.3208  -19.4165   19.0058 N   0  0  0  0  0  0  0  0  0  0  0  0
  -29.6255  -22.7372   19.5891 N   0  0  0  0  0  0  0  0  0  0  0  0
  -21.5273  -28.9370   22.6968 N   0  0  0  0  0  0  0  0  0  0  0  0
  -25.9977  -33.5154   24.1425 N   0  0  0  0  0  0  0  0  0  0  0  0
  -28.0875  -33.9293   27.0629 N   0  3  0  0  0  0  0  0  0  0  0  0
  -21.1364  -14.9606   24.9571 O   0  0  0  0  0  0  0  0  0  0  0  0
  -23.7177  -28.8036   21.9176 O   0  0  0  0  0  0  0  0  0  0  0  0
  -23.3530  -32.4713   23.7904 O   0  0  0  0  0  0  0  0  0  0  0  0
  -28.0217  -32.4993   24.6406 O   0  0  0  0  0  0  0  0  0  0  0  0
  -24.0617  -20.5184   17.3989 O   0  0  0  0  0  0  0  0  0  0  0  0
  -32.1160  -24.2912   19.5815 O   0  0  0  0  0  0  0  0  0  0  0  0
  -24.4241   -8.8991   21.3465 O   0  0  0  0  0  0  0  0  0  0  0  0
  -28.4382  -25.7108   24.3333 O   0  0  0  0  0  0  0  0  0  1  0  0
  -21.1410   -4.9335   23.3213 F   0  0  0  0  0  0  0  0  0  0  0  0
  -23.6540   -8.8867   24.0016 F   0  0  0  0  0  0  0  0  0  0  0  0
  1  2  1  0  0  0  0
  1  5  2  0  0  0  0
  2  6  2  0  0  0  0
  3  8  2  0  0  0  0
  3 17  1  0  0  0  0
  4  9  1  0  0  0  0
  4 17  2  0  0  0  0
  5 19  1  0  0  0  0
  6 21  1  0  0  0  0
  7 10  2  0  0  0  0
  7 20  1  0  0  0  0
  8 23  1  0  0  0  0
  9 23  2  0  0  0  0
 10 24  1  0  0  0  0
 11 12  2  0  0  0  0
 11 25  1  0  0  0  0
 12 26  1  0  0  0  0
 13 22  1  0  0  0  0
 13 24  2  0  0  0  0
 14 26  2  0  0  0  0
 14 27  1  0  0  0  0
 15 29  2  0  0  0  0
 15 65  1  0  0  0  0
 16 30  1  0  0  0  0
 16 64  2  0  0  0  0
 17 28  1  0  0  0  0
 18 28  1  0  0  0  0
 18 31  2  0  0  0  0
 18 32  1  0  0  0  0
 19 21  2  0  0  0  0
 19 37  1  0  0  0  0
 20 22  2  0  0  0  0
 20 38  1  0  0  0  0
 21 46  1  0  0  0  0
 22 39  1  0  0  0  0
 23 83  1  0  0  0  0
 24 84  1  0  0  0  0
 25 27  2  0  0  0  0
 25 83  1  0  0  0  0
 26 85  1  0  0  0  0
 27 86  1  0  0  0  0
 28 66  2  0  0  0  0
 29 64  1  0  0  0  0
 29 72  1  0  0  0  0
 30 65  2  0  0  0  0
 30 73  1  0  0  0  0
 31 67  1  0  0  0  0
 31 70  1  0  0  0  0
 32 71  1  0  0  0  0
 32 77  2  0  0  0  0
 33 47  1  0  0  0  0
 33 74  1  0  0  0  0
 33 78  2  0  0  0  0
 34 58  1  0  0  0  0
 34 68  1  0  0  0  0
 34 79  2  0  0  0  0
 35 59  1  0  0  0  0
 35 75  1  0  0  0  0
 35 80  2  0  0  0  0
 36 69  1  0  0  0  0
 36 72  1  0  0  0  0
 36 81  2  0  0  0  0
 37 40  1  0  0  0  0
 38 47  1  0  0  0  0
 39 68  1  0  0  0  0
 40 42  1  0  0  0  0
 41 43  1  0  0  0  0
 41 44  1  0  0  0  0
 42 46  1  0  0  0  0
 43 48  1  0  0  0  0
 44 69  1  0  0  0  0
 45 48  1  0  0  0  0
 45 69  1  0  0  0  0
 46 74  1  0  0  0  0
 47 68  1  0  0  0  0
 48 67  1  0  0  0  0
 49 59  1  0  0  0  0
 50 60  1  0  0  0  0
 51 61  1  0  0  0  0
 52 63  1  0  0  0  0
 53 63  1  0  0  0  0
 54 63  1  0  0  0  0
 55 76  1  0  0  0  0
 56 60  1  0  0  0  0
 56 62  1  0  0  0  0
 57 60  1  0  0  0  0
 57 84  1  0  0  0  0
 58 63  1  0  0  0  0
 58 75  1  0  0  0  0
 59 76  1  0  0  0  0
 61 62  1  0  0  0  0
 61 73  1  0  0  0  0
 62 82  1  0  0  0  0
 66 67  1  0  0  0  0
M  CHG  1  76   1
M  ISO  4  36 100  57 101  72 100  84 101
M  END
> <Batch ID>
0191

> <Smiles>
CNC(C)C(=O)NC(C(=O)N1Cc2cc([101O:1][101CH2:1]C(C)CC(O)C(C)Nc3cnc([100NH:0][100C:0](=O)N4CCCC(n5nc(-c6ccc(Oc7ccc(F)cc7F)cc6)c(C(N)=O)c5N)C4)cn3)ccc2CC1C(=O)NC1CCCc2ccccc21)C(C)(C)C

> <Shape>
0.233

> <Color>
0.071

> <Negative vol penalty>
0.000

$$$$

  -OEChem-04052305243D

 88 96  0     1  0  0  0  0  0999 V2000
  -23.2748   -9.8546   26.8227 C   0  0  0  0  0  0  0  0  0  0  0  0
  -23.9992   -9.2227   25.8170 C   0  0  0  0  0  0  0  0  0  0  0  0
  -26.9483  -29.3955   19.4574 C   0  0  0  0  0  0  0  0  0  0  0  0
  -26.5209  -28.5711   21.6878 C   0  0  0  0  0  0  0  0  0  0  0  0
  -22.5106  -10.9825   26.5263 C   0  0  0  0  0  0  0  0  0  0  0  0
  -23.9589   -9.7177   24.5141 C   0  0  0  0  0  0  0  0  0  0  0  0
  -29.9818  -11.7793   21.1426 C   0  0  0  0  0  0  0  0  0  0  0  0
  -25.9252  -30.3317   19.6074 C   0  0  0  0  0  0  0  0  0  0  0  0
  -25.4978  -29.5073   21.8379 C   0  0  0  0  0  0  0  0  0  0  0  0
  -31.1127  -11.9962   20.3552 C   0  0  0  0  0  0  0  0  0  0  0  0
  -25.2224  -32.8054   22.5214 C   0  0  0  0  0  0  0  0  0  0  0  0
  -25.1678  -33.5169   23.7199 C   0  0  0  0  0  0  0  0  0  0  0  0
  -29.7084  -12.6669   18.5042 C   0  0  0  0  0  0  0  0  0  0  0  0
  -22.9597  -32.6327   24.1441 C   0  0  0  0  0  0  0  0  0  0  0  0
  -29.7186  -17.8820   22.0030 C   0  0  0  0  0  0  0  0  0  0  0  0
  -27.2461  -28.5151   20.4976 C   0  0  0  0  0  0  0  0  0  0  0  0
  -29.6624  -27.7147   20.6657 C   0  0  0  0  0  0  0  0  0  0  0  0
  -22.4686  -11.4973   25.2210 C   0  0  0  0  0  0  0  0  0  0  0  0
  -28.7089  -12.0205   20.6181 C   0  0  0  0  0  0  0  0  0  0  0  0
  -23.1924  -10.8528   24.1996 C   0  0  0  0  0  0  0  0  0  0  0  0
  -28.5724  -12.4634   19.2923 C   0  0  0  0  0  0  0  0  0  0  0  0
  -25.2000  -30.3876   20.7976 C   0  0  0  0  0  0  0  0  0  0  0  0
  -30.9763  -12.4387   19.0392 C   0  0  0  0  0  0  0  0  0  0  0  0
  -24.1457  -32.0076   22.1342 C   0  0  0  0  0  0  0  0  0  0  0  0
  -24.0365  -33.4305   24.5313 C   0  0  0  0  0  0  0  0  0  0  0  0
  -23.0144  -31.9212   22.9456 C   0  0  0  0  0  0  0  0  0  0  0  0
  -28.3024  -27.5475   20.3430 C   0  0  0  0  0  0  0  0  0  0  0  0
  -29.3692  -18.0690   20.6820 C   0  0  0  0  0  0  0  0  0  0  0  0
  -30.2439  -26.5153   20.3346 C   0  0  0  0  0  0  0  0  0  0  0  0
  -31.4096  -17.3232   20.3809 C   0  0  0  0  0  0  0  0  0  0  0  0
  -30.3396  -28.8526   21.2156 C   0  0  0  0  0  0  0  0  0  0  0  0
  -25.0026  -12.0281   21.2006 C   0  0  0  0  0  0  0  0  0  0  0  0
  -32.9921  -18.3694   17.9241 C   0  0  0  0  0  0  0  0  0  0  0  0
  -25.6527  -14.5402   19.5643 C   0  0  0  0  0  0  0  0  0  0  0  0
  -26.2974  -16.1297   16.3919 C   0  0  0  0  0  0  0  0  0  0  0  0
  -28.0533  -21.0435   19.9936 C   0  0  0  0  0  0  0  0  0  0  0  0
  -21.5908  -12.6909   24.9393 C   0  0  0  0  0  0  0  0  0  0  0  0
  -27.4604  -11.7417   21.4102 C   0  0  0  0  0  0  0  0  0  0  0  0
  -27.1820  -12.6765   18.7592 C   0  0  0  0  0  0  0  0  0  0  0  0
  -21.8993  -13.3735   23.6092 C   0  0  0  0  0  0  0  0  0  0  0  0
  -29.7535  -22.8170   17.3363 C   0  0  0  0  0  0  0  0  0  0  0  0
  -22.0352  -12.3385   22.4969 C   0  0  0  0  0  0  0  0  0  0  0  0
  -29.6990  -24.2575   17.8485 C   0  0  0  0  0  0  0  0  0  0  0  0
  -28.4716  -22.0614   17.6737 C   0  0  0  0  0  0  0  0  0  0  0  0
  -28.0669  -23.4960   19.6364 C   0  0  0  0  0  0  0  0  0  0  0  0
  -23.1938  -11.3743   22.7791 C   0  0  1  0  0  0  0  0  0  0  0  0
  -26.3230  -12.7355   21.1135 C   0  0  1  0  0  0  0  0  0  0  0  0
  -29.3432  -24.3064   19.3463 C   0  0  2  0  0  0  0  0  0  0  0  0
  -32.7735  -20.2450   16.2436 C   0  0  0  0  0  0  0  0  0  0  0  0
  -26.0600  -18.5272   15.6901 C   0  0  0  0  0  0  0  0  0  0  0  0
  -35.2352  -16.4699   18.5315 C   0  0  0  0  0  0  0  0  0  0  0  0
  -32.2602  -13.9331   16.2505 C   0  0  0  0  0  0  0  0  0  0  0  0
  -22.8871  -13.6825   18.6052 C   0  0  0  0  0  0  0  0  0  0  0  0
  -23.1865  -15.1838   16.6241 C   0  0  0  0  0  0  0  0  0  0  0  0
  -23.1628  -16.1476   18.9248 C   0  0  0  0  0  0  0  0  0  0  0  0
  -29.1118  -16.2643   15.4865 C   0  0  0  0  0  0  0  0  0  0  0  0
  -28.0681  -18.5705   20.1968 C   0  0  0  0  0  0  0  0  0  0  0  0
  -32.4607  -18.7953   16.5660 C   0  0  0  0  0  0  0  0  0  0  0  0
  -33.6177  -14.5235   18.2916 C   0  0  0  0  0  0  0  0  0  0  0  0
  -32.7482  -16.9152   18.3152 C   0  0  1  0  0  0  0  0  0  0  0  0
  -25.1676  -14.8092   18.1623 C   0  0  1  0  0  0  0  0  0  0  0  0
  -27.0184  -17.4461   16.1646 C   0  0  2  0  0  0  0  0  0  0  0  0
  -33.9198  -15.9932   17.8964 C   0  0  1  0  0  0  0  0  0  0  0  0
  -32.2815  -13.9744   17.7740 C   0  0  2  0  0  0  0  0  0  1  0  0
  -23.6198  -14.9352   18.0846 C   0  0  0  0  0  0  0  0  0  0  0  0
  -28.0357  -26.3371   19.8451 N   0  0  0  0  0  0  0  0  0  0  0  0
  -30.3377  -17.7495   19.7505 N   0  0  0  0  0  0  0  0  0  0  0  0
  -29.2361  -25.7330   19.8523 N   0  0  0  0  0  0  0  0  0  0  0  0
  -26.3522  -13.3454   19.7733 N   0  0  0  0  0  0  0  0  0  0  0  0
  -28.2001  -22.1310   19.1165 N   0  0  0  0  0  0  0  0  0  0  0  0
  -31.5138  -26.0639   20.4119 N   0  0  0  0  0  0  0  0  0  0  0  0
  -29.5913  -30.0038   21.4969 N   0  0  0  0  0  0  0  0  0  0  0  0
  -32.5736  -16.9183   19.7527 N   0  0  0  0  0  0  0  0  0  0  0  0
  -24.4607  -12.0028   22.4714 N   0  0  0  0  0  0  0  0  0  0  0  0
  -25.8872  -15.9914   17.7011 N   0  0  0  0  0  0  0  0  0  0  0  0
  -28.1871  -19.7847   19.4206 N   0  0  0  0  0  0  0  0  0  0  0  0
  -28.0864  -17.2812   15.1383 N   0  3  0  0  0  0  0  0  0  0  0  0
  -31.5746  -28.8543   21.4351 O   0  0  0  0  0  0  0  0  0  0  0  0
  -24.5098  -11.5420   20.1894 O   0  0  0  0  0  0  0  0  0  0  0  0
  -33.5652  -19.1522   18.6823 O   0  0  0  0  0  0  0  0  0  0  0  0
  -25.4144  -15.3627   20.4532 O   0  0  0  0  0  0  0  0  0  0  0  0
  -26.1130  -15.3079   15.4968 O   0  0  0  0  0  0  0  0  0  0  0  0
  -27.8250  -21.1839   21.1999 O   0  0  0  0  0  0  0  0  0  0  0  0
  -24.2018  -31.3012   20.9445 O   0  0  0  0  0  0  0  0  0  0  0  0
  -32.0917  -12.6540   18.2726 O   0  0  0  0  0  0  0  0  0  1  0  0
  -23.9847  -34.1126   25.6829 F   0  0  0  0  0  0  0  0  0  0  0  0
  -21.9774  -31.1555   22.5795 F   0  0  0  0  0  0  0  0  0  0  0  0
  -31.3220  -17.2802   22.0943 S   0  0  0  0  0  0  0  0  0  0  0  0
  1  2  1  0  0  0  0
  1  5  2  0  0  0  0
  2  6  2  0  0  0  0
  3  8  2  0  0  0  0
  3 16  1  0  0  0  0
  4  9  1  0  0  0  0
  4 16  2  0  0  0  0
  5 18  1  0  0  0  0
  6 20  1  0  0  0  0
  7 10  2  0  0  0  0
  7 19  1  0  0  0  0
  8 22  1  0  0  0  0
  9 22  2  0  0  0  0
 10 23  1  0  0  0  0
 11 12  2  0  0  0  0
 11 24  1  0  0  0  0
 12 25  1  0  0  0  0
 13 21  1  0  0  0  0
 13 23  2  0  0  0  0
 14 25  2  0  0  0  0
 14 26  1  0  0  0  0
 15 28  2  0  0  0  0
 15 88  1  0  0  0  0
 16 27  1  0  0  0  0
 17 27  1  0  0  0  0
 17 29  2  0  0  0  0
 17 31  1  0  0  0  0
 18 20  2  0  0  0  0
 18 37  1  0  0  0  0
 19 21  2  0  0  0  0
 19 38  1  0  0  0  0
 20 46  1  0  0  0  0
 21 39  1  0  0  0  0
 22 84  1  0  0  0  0
 23 85  1  0  0  0  0
 24 26  2  0  0  0  0
 24 84  1  0  0  0  0
 25 86  1  0  0  0  0
 26 87  1  0  0  0  0
 27 66  2  0  0  0  0
 28 57  1  0  0  0  0
 28 67  1  0  0  0  0
 29 68  1  0  0  0  0
 29 71  1  0  0  0  0
 30 67  2  0  0  0  0
 30 73  1  0  0  0  0
 30 88  1  0  0  0  0
 31 72  1  0  0  0  0
 31 78  2  0  0  0  0
 32 47  1  0  0  0  0
 32 74  1  0  0  0  0
 32 79  2  0  0  0  0
 33 58  1  0  0  0  0
 33 60  1  0  0  0  0
 33 80  2  0  0  0  0
 34 61  1  0  0  0  0
 34 69  1  0  0  0  0
 34 81  2  0  0  0  0
 35 62  1  0  0  0  0
 35 75  1  0  0  0  0
 35 82  2  0  0  0  0
 36 70  1  0  0  0  0
 36 76  1  0  0  0  0
 36 83  2  0  0  0  0
 37 40  1  0  0  0  0
 38 47  1  0  0  0  0
 39 69  1  0  0  0  0
 40 42  1  0  0  0  0
 41 43  1  0  0  0  0
 41 44  1  0  0  0  0
 42 46  1  0  0  0  0
 43 48  1  0  0  0  0
 44 70  1  0  0  0  0
 45 48  1  0  0  0  0
 45 70  1  0  0  0  0
 46 74  1  0  0  0  0
 47 69  1  0  0  0  0
 48 68  1  0  0  0  0
 49 58  1  0  0  0  0
 50 62  1  0  0  0  0
 51 63  1  0  0  0  0
 52 64  1  0  0  0  0
 53 65  1  0  0  0  0
 54 65  1  0  0  0  0
 55 65  1  0  0  0  0
 56 77  1  0  0  0  0
 57 76  1  0  0  0  0
 59 63  1  0  0  0  0
 59 64  1  0  0  0  0
 60 63  1  0  0  0  0
 60 73  1  0  0  0  0
 61 65  1  0  0  0  0
 61 75  1  0  0  0  0
 62 77  1  0  0  0  0
 64 85  1  0  0  0  0
 66 68  1  0  0  0  0
M  CHG  1  77   1
M  ISO  4  36 100  64 101  76 100  85 101
M  END
> <Batch ID>
0191

> <Smiles>
CCC(=O)C(Nc1nc(C[100NH:0][100C:0](=O)N2CCCC(n3nc(-c4ccc(Oc5ccc(F)cc5F)cc4)c(C(N)=O)c3N)C2)cs1)C(C)C[101CH:1](C)[101O:1]c1ccc2c(c1)CN(C(=O)C(NC(=O)C(C)NC)C(C)(C)C)C(C(=O)NC1CCCc3ccccc31)C2

> <Shape>
0.271

> <Color>
0.064

> <Negative vol penalty>
0.000

$$$$
