
  -OEChem-04052305273D

 87 95  0     1  0  0  0  0  0999 V2000
  -16.5960  -30.0274   23.2150 C   0  0  0  0  0  0  0  0  0  0  0  0
  -17.6564  -30.6341   22.5495 C   0  0  0  0  0  0  0  0  0  0  0  0
  -25.4995  -13.0515   19.6383 C   0  0  0  0  0  0  0  0  0  0  0  0
  -24.2957  -14.5069   21.1450 C   0  0  0  0  0  0  0  0  0  0  0  0
  -16.8419  -29.0011   24.1262 C   0  0  0  0  0  0  0  0  0  0  0  0
  -18.9636  -30.2155   22.7957 C   0  0  0  0  0  0  0  0  0  0  0  0
  -25.2881  -29.4425   19.5216 C   0  0  0  0  0  0  0  0  0  0  0  0
  -24.5386  -12.0587   19.8296 C   0  0  0  0  0  0  0  0  0  0  0  0
  -23.3348  -13.5141   21.3362 C   0  0  0  0  0  0  0  0  0  0  0  0
  -26.6292  -29.7920   19.6731 C   0  0  0  0  0  0  0  0  0  0  0  0
  -23.7804   -9.7454   22.1744 C   0  0  0  0  0  0  0  0  0  0  0  0
  -24.2297   -8.4429   22.3917 C   0  0  0  0  0  0  0  0  0  0  0  0
  -26.9278  -27.9560   21.2091 C   0  0  0  0  0  0  0  0  0  0  0  0
  -23.0442   -7.7051   20.4201 C   0  0  0  0  0  0  0  0  0  0  0  0
  -29.9023  -22.8195   21.4250 C   0  0  0  0  0  0  0  0  0  0  0  0
  -31.7720  -23.6767   22.2162 C   0  0  0  0  0  0  0  0  0  0  0  0
  -25.3781  -14.2756   20.2961 C   0  0  0  0  0  0  0  0  0  0  0  0
  -26.3660  -16.3122   19.1196 C   0  0  0  0  0  0  0  0  0  0  0  0
  -18.1520  -28.5632   24.3764 C   0  0  0  0  0  0  0  0  0  0  0  0
  -24.7532  -28.3519   20.2222 C   0  0  0  0  0  0  0  0  0  0  0  0
  -19.2274  -29.1833   23.7120 C   0  0  0  0  0  0  0  0  0  0  0  0
  -25.5802  -27.5932   21.0627 C   0  0  0  0  0  0  0  0  0  0  0  0
  -23.4563  -12.2900   20.6785 C   0  0  0  0  0  0  0  0  0  0  0  0
  -27.4486  -29.0505   20.5192 C   0  0  0  0  0  0  0  0  0  0  0  0
  -22.9629  -10.0277   21.0800 C   0  0  0  0  0  0  0  0  0  0  0  0
  -23.8617   -7.4228   21.5145 C   0  0  0  0  0  0  0  0  0  0  0  0
  -22.5949   -9.0076   20.2028 C   0  0  0  0  0  0  0  0  0  0  0  0
  -26.3707  -15.3014   20.0994 C   0  0  0  0  0  0  0  0  0  0  0  0
  -30.6656  -21.8655   22.0557 C   0  0  0  0  0  0  0  0  0  0  0  0
  -27.5174  -17.0232   19.3541 C   0  0  0  0  0  0  0  0  0  0  0  0
  -25.4064  -16.5842   18.0895 C   0  0  0  0  0  0  0  0  0  0  0  0
  -22.4701  -27.9890   22.4039 C   0  0  0  0  0  0  0  0  0  0  0  0
  -23.0858  -24.8356   21.9580 C   0  0  0  0  0  0  0  0  0  0  0  0
  -25.2924  -22.4253   20.9740 C   0  0  0  0  0  0  0  0  0  0  0  0
  -31.0853  -19.5064   22.8335 C   0  0  0  0  0  0  0  0  0  0  0  0
  -18.3721  -27.4825   25.4051 C   0  0  0  0  0  0  0  0  0  0  0  0
  -23.3110  -27.9716   20.0272 C   0  0  0  0  0  0  0  0  0  0  0  0
  -25.0596  -26.4010   21.8218 C   0  0  0  0  0  0  0  0  0  0  0  0
  -19.7563  -26.8433   25.3304 C   0  0  0  0  0  0  0  0  0  0  0  0
  -31.4682  -16.0000   22.3486 C   0  0  0  0  0  0  0  0  0  0  0  0
  -20.8343  -27.9163   25.2148 C   0  0  0  0  0  0  0  0  0  0  0  0
  -30.1757  -15.5888   21.6396 C   0  0  0  0  0  0  0  0  0  0  0  0
  -31.2213  -17.0887   23.3914 C   0  0  0  0  0  0  0  0  0  0  0  0
  -29.2164  -17.8620   22.1866 C   0  0  0  0  0  0  0  0  0  0  0  0
  -20.6573  -28.7403   23.9336 C   0  0  1  0  0  0  0  0  0  0  0  0
  -22.7467  -27.1545   21.1854 C   0  0  1  0  0  0  0  0  0  0  0  0
  -29.4249  -16.8137   21.0815 C   0  0  2  0  0  0  0  0  0  0  0  0
  -32.6386  -26.8870   15.7549 C   0  0  0  0  0  0  0  0  0  0  0  0
  -25.5236  -19.9359   20.7583 C   0  0  0  0  0  0  0  0  0  0  0  0
  -29.8409  -26.4968   16.7893 C   0  0  0  0  0  0  0  0  0  0  0  0
  -23.4723  -24.6124   24.9764 C   0  0  0  0  0  0  0  0  0  0  0  0
  -24.6032  -22.4110   24.5987 C   0  0  0  0  0  0  0  0  0  0  0  0
  -22.2157  -22.7134   23.9424 C   0  0  0  0  0  0  0  0  0  0  0  0
  -25.6948  -22.5997   18.0471 C   0  0  0  0  0  0  0  0  0  0  0  0
  -32.3298  -26.7651   17.2422 C   0  0  0  0  0  0  0  0  0  0  0  0
  -30.9868  -25.7483   19.7317 C   0  0  0  0  0  0  0  0  0  0  0  0
  -31.2617  -28.2700   19.9728 C   0  0  0  0  0  0  0  0  0  0  0  0
  -30.2293  -25.3289   21.0026 C   0  0  0  0  0  0  0  0  0  0  0  0
  -29.4017  -30.0061   19.5557 C   0  0  0  0  0  0  0  0  0  1  0  0
  -24.0272  -23.8319   22.5787 C   0  0  1  0  0  0  0  0  0  0  0  0
  -25.1318  -21.2267   20.0563 C   0  0  2  0  0  0  0  0  0  0  0  0
  -30.9077  -27.2350   17.6138 C   0  0  2  0  0  0  0  0  0  0  0  0
  -30.6032  -27.1358   19.1469 C   0  0  1  0  0  0  0  0  0  0  0  0
  -30.9001  -29.7067   19.5667 C   0  0  1  0  0  0  0  0  0  0  0  0
  -23.5892  -23.4158   24.0114 C   0  0  0  0  0  0  0  0  0  0  0  0
  -31.8280  -22.4056   22.5463 N   0  0  0  0  0  0  0  0  0  0  0  0
  -27.4404  -15.3614   20.8969 N   0  0  0  0  0  0  0  0  0  0  0  0
  -30.6238  -23.9746   21.5364 N   0  0  0  0  0  0  0  0  0  0  0  0
  -28.1187  -16.4184   20.4185 N   0  0  0  0  0  0  0  0  0  0  0  0
  -23.6412  -26.0729   21.6027 N   0  0  0  0  0  0  0  0  0  0  0  0
  -30.5101  -18.2188   22.7898 N   0  0  0  0  0  0  0  0  0  0  0  0
  -28.0643  -18.1004   18.7517 N   0  0  0  0  0  0  0  0  0  0  0  0
  -24.2806  -15.7554   17.9894 N   0  0  0  0  0  0  0  0  0  0  0  0
  -30.3334  -20.4957   22.2006 N   0  0  0  0  0  0  0  0  0  0  0  0
  -21.1425  -28.0025   22.7871 N   0  0  0  0  0  0  0  0  0  0  0  0
  -24.1200  -22.7221   21.6363 N   0  0  0  0  0  0  0  0  0  0  0  0
  -25.9880  -21.3823   18.8465 N   0  3  0  0  0  0  0  0  0  0  0  0
  -25.5516  -17.5240   17.2715 O   0  0  0  0  0  0  0  0  0  0  0  0
  -23.3931  -28.5760   22.9564 O   0  0  0  0  0  0  0  0  0  0  0  0
  -21.9028  -24.5303   21.7879 O   0  0  0  0  0  0  0  0  0  0  0  0
  -26.3528  -23.0348   21.0943 O   0  0  0  0  0  0  0  0  0  0  0  0
  -32.1784  -19.7111   23.3677 O   0  0  0  0  0  0  0  0  0  0  0  0
  -31.5341  -30.5807   20.5064 O   0  0  0  0  0  0  0  0  0  0  0  0
  -22.5183  -11.3215   20.8652 O   0  0  0  0  0  0  0  0  0  0  0  0
  -28.7669  -29.3922   20.6705 O   0  0  0  0  0  0  0  0  0  1  0  0
  -24.2945   -6.1723   21.7224 F   0  0  0  0  0  0  0  0  0  0  0  0
  -21.8107   -9.2729   19.1490 F   0  0  0  0  0  0  0  0  0  0  0  0
  1  2  1  0  0  0  0
  1  5  2  0  0  0  0
  2  6  2  0  0  0  0
  3  8  2  0  0  0  0
  3 17  1  0  0  0  0
  4  9  1  0  0  0  0
  4 17  2  0  0  0  0
  5 19  1  0  0  0  0
  6 21  1  0  0  0  0
  7 10  2  0  0  0  0
  7 20  1  0  0  0  0
  8 23  1  0  0  0  0
  9 23  2  0  0  0  0
 10 24  1  0  0  0  0
 11 12  2  0  0  0  0
 11 25  1  0  0  0  0
 12 26  1  0  0  0  0
 13 22  1  0  0  0  0
 13 24  2  0  0  0  0
 14 26  2  0  0  0  0
 14 27  1  0  0  0  0
 15 29  2  0  0  0  0
 15 68  1  0  0  0  0
 16 66  2  0  0  0  0
 16 68  1  0  0  0  0
 17 28  1  0  0  0  0
 18 28  1  0  0  0  0
 18 30  2  0  0  0  0
 18 31  1  0  0  0  0
 19 21  2  0  0  0  0
 19 36  1  0  0  0  0
 20 22  2  0  0  0  0
 20 37  1  0  0  0  0
 21 45  1  0  0  0  0
 22 38  1  0  0  0  0
 23 84  1  0  0  0  0
 24 85  1  0  0  0  0
 25 27  2  0  0  0  0
 25 84  1  0  0  0  0
 26 86  1  0  0  0  0
 27 87  1  0  0  0  0
 28 67  2  0  0  0  0
 29 66  1  0  0  0  0
 29 74  1  0  0  0  0
 30 69  1  0  0  0  0
 30 72  1  0  0  0  0
 31 73  1  0  0  0  0
 31 78  2  0  0  0  0
 32 46  1  0  0  0  0
 32 75  1  0  0  0  0
 32 79  2  0  0  0  0
 33 60  1  0  0  0  0
 33 70  1  0  0  0  0
 33 80  2  0  0  0  0
 34 61  1  0  0  0  0
 34 76  1  0  0  0  0
 34 81  2  0  0  0  0
 35 71  1  0  0  0  0
 35 74  1  0  0  0  0
 35 82  2  0  0  0  0
 36 39  1  0  0  0  0
 37 46  1  0  0  0  0
 38 70  1  0  0  0  0
 39 41  1  0  0  0  0
 40 42  1  0  0  0  0
 40 43  1  0  0  0  0
 41 45  1  0  0  0  0
 42 47  1  0  0  0  0
 43 71  1  0  0  0  0
 44 47  1  0  0  0  0
 44 71  1  0  0  0  0
 45 75  1  0  0  0  0
 46 70  1  0  0  0  0
 47 69  1  0  0  0  0
 48 55  1  0  0  0  0
 49 61  1  0  0  0  0
 50 62  1  0  0  0  0
 51 65  1  0  0  0  0
 52 65  1  0  0  0  0
 53 65  1  0  0  0  0
 54 77  1  0  0  0  0
 55 62  1  0  0  0  0
 56 58  1  0  0  0  0
 56 63  1  0  0  0  0
 57 63  1  0  0  0  0
 57 64  1  0  0  0  0
 58 68  1  0  0  0  0
 59 64  1  0  0  0  0
 59 85  1  0  0  0  0
 60 65  1  0  0  0  0
 60 76  1  0  0  0  0
 61 77  1  0  0  0  0
 62 63  1  0  0  0  0
 64 83  1  0  0  0  0
 67 69  1  0  0  0  0
M  CHG  1  77   1
M  ISO  4  35 100  59 101  74 100  85 101
M  END
> <Batch ID>
0192

> <Smiles>
CCC(C)C(CCn1cnc([100NH:0][100C:0](=O)N2CCCC(n3nc(-c4ccc(Oc5ccc(F)cc5F)cc4)c(C(N)=O)c3N)C2)c1)CC(O)[101CH2:1][101O:1]c1ccc2c(c1)CN(C(=O)C(NC(=O)C(C)NC)C(C)(C)C)C(C(=O)NC1CCCc3ccccc31)C2

> <Shape>
0.232

> <Color>
0.061

> <Negative vol penalty>
0.000

$$$$

  -OEChem-04052305273D

 83 91  0     1  0  0  0  0  0999 V2000
  -21.5873  -13.3205   38.0370 C   0  0  0  0  0  0  0  0  0  0  0  0
  -22.8019  -12.8796   37.5214 C   0  0  0  0  0  0  0  0  0  0  0  0
  -23.1870   -9.8201   19.9323 C   0  0  0  0  0  0  0  0  0  0  0  0
  -23.5694   -9.9988   22.3112 C   0  0  0  0  0  0  0  0  0  0  0  0
  -20.4531  -13.3401   37.2263 C   0  0  0  0  0  0  0  0  0  0  0  0
  -22.8827  -12.4570   36.1951 C   0  0  0  0  0  0  0  0  0  0  0  0
  -27.6304  -13.1586   32.3907 C   0  0  0  0  0  0  0  0  0  0  0  0
  -22.4208   -8.6736   20.1416 C   0  0  0  0  0  0  0  0  0  0  0  0
  -22.8031   -8.8522   22.5205 C   0  0  0  0  0  0  0  0  0  0  0  0
  -28.6582  -12.2992   32.0050 C   0  0  0  0  0  0  0  0  0  0  0  0
  -23.2029   -5.5056   22.2535 C   0  0  0  0  0  0  0  0  0  0  0  0
  -23.7024   -4.5436   23.1312 C   0  0  0  0  0  0  0  0  0  0  0  0
  -27.4037  -11.6924   30.0359 C   0  0  0  0  0  0  0  0  0  0  0  0
  -21.7483   -4.8032   24.5280 C   0  0  0  0  0  0  0  0  0  0  0  0
  -29.6308  -15.4141   26.0745 C   0  0  0  0  0  0  0  0  0  0  0  0
  -23.7614  -10.4828   21.0171 C   0  0  0  0  0  0  0  0  0  0  0  0
  -24.1003  -12.9995   20.7745 C   0  0  0  0  0  0  0  0  0  0  0  0
  -20.5223  -12.9266   35.8866 C   0  0  0  0  0  0  0  0  0  0  0  0
  -26.4748  -13.2833   31.6062 C   0  0  0  0  0  0  0  0  0  0  0  0
  -21.7481  -12.4698   35.3660 C   0  0  0  0  0  0  0  0  0  0  0  0
  -26.3638  -12.5560   30.4126 C   0  0  0  0  0  0  0  0  0  0  0  0
  -30.2293  -14.8856   24.9489 C   0  0  0  0  0  0  0  0  0  0  0  0
  -22.2288   -8.1896   21.4356 C   0  0  0  0  0  0  0  0  0  0  0  0
  -28.5438  -11.5638   30.8289 C   0  0  0  0  0  0  0  0  0  0  0  0
  -21.9760   -6.1165   22.5130 C   0  0  0  0  0  0  0  0  0  0  0  0
  -22.9752   -4.1923   24.2685 C   0  0  0  0  0  0  0  0  0  0  0  0
  -21.2487   -5.7653   23.6502 C   0  0  0  0  0  0  0  0  0  0  0  0
  -24.5535  -11.6669   20.8016 C   0  0  0  0  0  0  0  0  0  0  0  0
  -30.8585  -13.6698   25.1224 C   0  0  0  0  0  0  0  0  0  0  0  0
  -25.2313  -13.7420   20.5378 C   0  0  0  0  0  0  0  0  0  0  0  0
  -30.2853  -13.6300   27.3217 C   0  0  0  0  0  0  0  0  0  0  0  0
  -22.7756  -13.5196   20.9479 C   0  0  0  0  0  0  0  0  0  0  0  0
  -23.3822  -12.7063   32.0605 C   0  0  0  0  0  0  0  0  0  0  0  0
  -23.0957  -14.0774   29.1346 C   0  0  0  0  0  0  0  0  0  0  0  0
  -24.5503  -14.8670   26.1501 C   0  0  0  0  0  0  0  0  0  0  0  0
  -31.0476  -12.7498   21.5566 C   0  0  0  0  0  0  0  0  0  0  0  0
  -19.2591  -12.9210   35.0625 C   0  0  0  0  0  0  0  0  0  0  0  0
  -25.3867  -14.2348   32.0224 C   0  0  0  0  0  0  0  0  0  0  0  0
  -25.1526  -12.6694   29.5246 C   0  0  0  0  0  0  0  0  0  0  0  0
  -19.5119  -12.8105   33.5611 C   0  0  0  0  0  0  0  0  0  0  0  0
  -29.5151  -13.4697   18.4245 C   0  0  0  0  0  0  0  0  0  0  0  0
  -20.5307  -11.7130   33.2706 C   0  0  0  0  0  0  0  0  0  0  0  0
  -28.0289  -13.2096   18.6761 C   0  0  0  0  0  0  0  0  0  0  0  0
  -30.3974  -12.4796   19.1816 C   0  0  0  0  0  0  0  0  0  0  0  0
  -28.6467  -12.1362   20.8817 C   0  0  0  0  0  0  0  0  0  0  0  0
  -21.8815  -12.0269   33.9251 C   0  0  1  0  0  0  0  0  0  0  0  0
  -24.0307  -13.8960   31.4111 C   0  0  1  0  0  0  0  0  0  0  0  0
  -27.7183  -13.1447   20.1836 C   0  0  2  0  0  0  0  0  0  0  0  0
  -24.7813  -15.8926   23.8715 C   0  0  0  0  0  0  0  0  0  0  0  0
  -31.8761  -10.2660   30.6106 C   0  0  0  0  0  0  0  0  0  0  0  0
  -21.5607  -11.5904   28.2577 C   0  0  0  0  0  0  0  0  0  0  0  0
  -21.9243  -12.2891   25.8812 C   0  0  0  0  0  0  0  0  0  0  0  0
  -20.6142  -13.7492   27.4221 C   0  0  0  0  0  0  0  0  0  0  0  0
  -25.6064  -17.3956   27.2680 C   0  0  0  0  0  0  0  0  0  0  0  0
  -31.5419  -12.9993   23.9758 C   0  0  0  0  0  0  0  0  0  0  0  0
  -30.9631  -11.7091   28.7628 C   0  0  0  0  0  0  0  0  0  0  0  0
  -23.1197  -13.5746   27.7114 C   0  0  1  0  0  0  0  0  0  0  0  0
  -24.5806  -16.1598   25.3551 C   0  0  2  0  0  0  0  0  0  0  0  0
  -30.8303  -11.3034   30.2288 C   0  0  1  0  0  0  0  0  0  1  0  0
  -21.8269  -12.7970   27.3356 C   0  0  0  0  0  0  0  0  0  0  0  0
  -29.6395  -14.8110   27.2813 N   0  0  0  0  0  0  0  0  0  0  0  0
  -25.8697  -11.5656   20.5981 N   0  0  0  0  0  0  0  0  0  0  0  0
  -30.9063  -13.0116   26.2992 N   0  0  0  0  0  0  0  0  0  0  0  0
  -26.2533  -12.8440   20.4409 N   0  0  0  0  0  0  0  0  0  0  0  0
  -24.1129  -13.6081   29.9777 N   0  0  0  0  0  0  0  0  0  0  0  0
  -30.0533  -12.4676   20.6054 N   0  0  0  0  0  0  0  0  0  0  0  0
  -30.1889  -15.5547   23.7200 N   0  0  0  0  0  0  0  0  0  0  0  0
  -25.4414  -15.0689   20.4051 N   0  0  0  0  0  0  0  0  0  0  0  0
  -21.7290  -12.6175   21.1831 N   0  0  0  0  0  0  0  0  0  0  0  0
  -30.3141  -12.9821   28.5454 N   0  0  0  0  0  0  0  0  0  0  0  0
  -22.5980  -13.0201   33.1541 N   0  0  0  0  0  0  0  0  0  0  0  0
  -23.3824  -14.7384   26.8717 N   0  0  0  0  0  0  0  0  0  0  0  0
  -30.6356  -12.7237   22.8833 N   0  0  0  0  0  0  0  0  0  0  0  0
  -25.6904  -17.0339   25.8296 N   0  3  0  0  0  0  0  0  0  0  0  0
  -22.5246  -14.7468   20.8795 O   0  0  0  0  0  0  0  0  0  0  0  0
  -23.5775  -11.5867   31.6022 O   0  0  0  0  0  0  0  0  0  0  0  0
  -22.2112  -14.8632   29.4835 O   0  0  0  0  0  0  0  0  0  0  0  0
  -25.4691  -14.0509   26.1299 O   0  0  0  0  0  0  0  0  0  0  0  0
  -32.2147  -13.0114   21.2461 O   0  0  0  0  0  0  0  0  0  0  0  0
  -21.4810   -7.0709   21.6402 O   0  0  0  0  0  0  0  0  0  0  0  0
  -29.5452  -10.7238   30.4504 O   0  0  0  0  0  0  0  0  0  1  0  0
  -23.4543   -3.2673   25.1104 F   0  0  0  0  0  0  0  0  0  0  0  0
  -20.0689   -6.3478   23.9043 F   0  0  0  0  0  0  0  0  0  0  0  0
  1  2  1  0  0  0  0
  1  5  2  0  0  0  0
  2  6  2  0  0  0  0
  3  8  2  0  0  0  0
  3 16  1  0  0  0  0
  4  9  1  0  0  0  0
  4 16  2  0  0  0  0
  5 18  1  0  0  0  0
  6 20  1  0  0  0  0
  7 10  2  0  0  0  0
  7 19  1  0  0  0  0
  8 23  1  0  0  0  0
  9 23  2  0  0  0  0
 10 24  1  0  0  0  0
 11 12  2  0  0  0  0
 11 25  1  0  0  0  0
 12 26  1  0  0  0  0
 13 21  1  0  0  0  0
 13 24  2  0  0  0  0
 14 26  2  0  0  0  0
 14 27  1  0  0  0  0
 15 22  1  0  0  0  0
 15 61  2  0  0  0  0
 16 28  1  0  0  0  0
 17 28  1  0  0  0  0
 17 30  2  0  0  0  0
 17 32  1  0  0  0  0
 18 20  2  0  0  0  0
 18 37  1  0  0  0  0
 19 21  2  0  0  0  0
 19 38  1  0  0  0  0
 20 46  1  0  0  0  0
 21 39  1  0  0  0  0
 22 29  2  0  0  0  0
 22 67  1  0  0  0  0
 23 80  1  0  0  0  0
 24 81  1  0  0  0  0
 25 27  2  0  0  0  0
 25 80  1  0  0  0  0
 26 82  1  0  0  0  0
 27 83  1  0  0  0  0
 28 62  2  0  0  0  0
 29 55  1  0  0  0  0
 29 63  1  0  0  0  0
 30 64  1  0  0  0  0
 30 68  1  0  0  0  0
 31 61  1  0  0  0  0
 31 63  2  0  0  0  0
 31 70  1  0  0  0  0
 32 69  1  0  0  0  0
 32 75  2  0  0  0  0
 33 47  1  0  0  0  0
 33 71  1  0  0  0  0
 33 76  2  0  0  0  0
 34 57  1  0  0  0  0
 34 65  1  0  0  0  0
 34 77  2  0  0  0  0
 35 58  1  0  0  0  0
 35 72  1  0  0  0  0
 35 78  2  0  0  0  0
 36 66  1  0  0  0  0
 36 73  1  0  0  0  0
 36 79  2  0  0  0  0
 37 40  1  0  0  0  0
 38 47  1  0  0  0  0
 39 65  1  0  0  0  0
 40 42  1  0  0  0  0
 41 43  1  0  0  0  0
 41 44  1  0  0  0  0
 42 46  1  0  0  0  0
 43 48  1  0  0  0  0
 44 66  1  0  0  0  0
 45 48  1  0  0  0  0
 45 66  1  0  0  0  0
 46 71  1  0  0  0  0
 47 65  1  0  0  0  0
 48 64  1  0  0  0  0
 49 58  1  0  0  0  0
 50 59  1  0  0  0  0
 51 60  1  0  0  0  0
 52 60  1  0  0  0  0
 53 60  1  0  0  0  0
 54 74  1  0  0  0  0
 55 73  1  0  0  0  0
 56 59  1  0  0  0  0
 56 70  1  0  0  0  0
 57 60  1  0  0  0  0
 57 72  1  0  0  0  0
 58 74  1  0  0  0  0
 59 81  1  0  0  0  0
 62 64  1  0  0  0  0
M  CHG  1  74   1
M  ISO  4  36 100  59 101  73 100  81 101
M  END
> <Batch ID>
0192

> <Smiles>
CNC(C)C(=O)NC(C(=O)N1Cc2cc([101O:1][101CH:1](C)CNc3ncc(N)c(C[100NH:0][100C:0](=O)N4CCCC(n5nc(-c6ccc(Oc7ccc(F)cc7F)cc6)c(C(N)=O)c5N)C4)n3)ccc2CC1C(=O)NC1CCCc2ccccc21)C(C)(C)C

> <Shape>
0.142

> <Color>
0.171

> <Negative vol penalty>
0.000

$$$$

  -OEChem-04052305273D

 85 93  0     1  0  0  0  0  0999 V2000
  -18.4756  -33.3860   21.3899 C   0  0  0  0  0  0  0  0  0  0  0  0
  -19.7701  -33.2076   20.9125 C   0  0  0  0  0  0  0  0  0  0  0  0
  -24.0182  -12.7183   19.9065 C   0  0  0  0  0  0  0  0  0  0  0  0
  -26.0191  -13.6010   20.9333 C   0  0  0  0  0  0  0  0  0  0  0  0
  -18.0486  -32.6904   22.5202 C   0  0  0  0  0  0  0  0  0  0  0  0
  -20.6388  -32.3341   21.5660 C   0  0  0  0  0  0  0  0  0  0  0  0
  -24.9359  -28.8076   18.9960 C   0  0  0  0  0  0  0  0  0  0  0  0
  -24.4938  -11.4207   20.0950 C   0  0  0  0  0  0  0  0  0  0  0  0
  -26.4947  -12.3033   21.1219 C   0  0  0  0  0  0  0  0  0  0  0  0
  -26.3126  -28.9667   18.8445 C   0  0  0  0  0  0  0  0  0  0  0  0
  -24.7170   -9.1931   22.6289 C   0  0  0  0  0  0  0  0  0  0  0  0
  -23.8270   -8.2427   23.1290 C   0  0  0  0  0  0  0  0  0  0  0  0
  -26.6775  -27.6486   20.8317 C   0  0  0  0  0  0  0  0  0  0  0  0
  -24.1276   -6.9120   21.1350 C   0  0  0  0  0  0  0  0  0  0  0  0
  -28.2141  -21.8216   18.9282 C   0  0  0  0  0  0  0  0  0  0  0  0
  -24.7808  -13.8085   20.3256 C   0  0  0  0  0  0  0  0  0  0  0  0
  -23.5015  -15.9035   21.0198 C   0  0  0  0  0  0  0  0  0  0  0  0
  -18.9093  -31.8006   23.1821 C   0  0  0  0  0  0  0  0  0  0  0  0
  -24.4183  -28.0757   20.0744 C   0  0  0  0  0  0  0  0  0  0  0  0
  -20.2233  -31.6269   22.7070 C   0  0  0  0  0  0  0  0  0  0  0  0
  -25.2938  -27.4796   20.9931 C   0  0  0  0  0  0  0  0  0  0  0  0
  -25.7321  -11.2132   20.7027 C   0  0  0  0  0  0  0  0  0  0  0  0
  -27.1836  -28.3896   19.7640 C   0  0  0  0  0  0  0  0  0  0  0  0
  -25.3124   -9.0030   21.3818 C   0  0  0  0  0  0  0  0  0  0  0  0
  -23.5323   -7.1021   22.3820 C   0  0  0  0  0  0  0  0  0  0  0  0
  -25.0176   -7.8624   20.6349 C   0  0  0  0  0  0  0  0  0  0  0  0
  -24.2903  -15.1492   20.1306 C   0  0  0  0  0  0  0  0  0  0  0  0
  -27.8453  -21.5258   17.6344 C   0  0  0  0  0  0  0  0  0  0  0  0
  -29.6098  -23.4602   18.1559 C   0  0  0  0  0  0  0  0  0  0  0  0
  -29.2416  -23.1639   16.8619 C   0  0  0  0  0  0  0  0  0  0  0  0
  -23.3057  -17.1001   20.3746 C   0  0  0  0  0  0  0  0  0  0  0  0
  -22.9914  -15.5538   22.3133 C   0  0  0  0  0  0  0  0  0  0  0  0
  -22.5364  -28.7501   22.5457 C   0  0  0  0  0  0  0  0  0  0  0  0
  -22.7119  -25.5509   23.0529 C   0  0  0  0  0  0  0  0  0  0  0  0
  -24.4285  -22.6360   22.6021 C   0  0  0  0  0  0  0  0  0  0  0  0
  -26.4055  -20.0402   16.1970 C   0  0  0  0  0  0  0  0  0  0  0  0
  -18.4180  -31.1067   24.4278 C   0  0  0  0  0  0  0  0  0  0  0  0
  -22.9316  -27.8909   20.2087 C   0  0  0  0  0  0  0  0  0  0  0  0
  -24.7896  -26.6672   22.1568 C   0  0  0  0  0  0  0  0  0  0  0  0
  -19.2795  -29.9166   24.8421 C   0  0  0  0  0  0  0  0  0  0  0  0
  -23.0131  -18.9812   15.9802 C   0  0  0  0  0  0  0  0  0  0  0  0
  -20.7586  -30.2863   24.7955 C   0  0  0  0  0  0  0  0  0  0  0  0
  -22.8822  -17.9514   17.1048 C   0  0  0  0  0  0  0  0  0  0  0  0
  -24.3806  -18.9107   15.3030 C   0  0  0  0  0  0  0  0  0  0  0  0
  -25.3986  -17.9667   17.3382 C   0  0  0  0  0  0  0  0  0  0  0  0
  -21.1870  -30.6695   23.3738 C   0  0  1  0  0  0  0  0  0  0  0  0
  -22.4972  -27.5575   21.6326 C   0  0  1  0  0  0  0  0  0  0  0  0
  -24.0614  -18.0432   18.0930 C   0  0  2  0  0  0  0  0  0  0  0  0
  -24.3423  -20.1919   23.1649 C   0  0  0  0  0  0  0  0  0  0  0  0
  -31.9934  -23.8249   20.2009 C   0  0  0  0  0  0  0  0  0  0  0  0
  -23.6051  -26.1781   25.9023 C   0  0  0  0  0  0  0  0  0  0  0  0
  -24.4013  -23.8126   26.0990 C   0  0  0  0  0  0  0  0  0  0  0  0
  -21.9828  -24.2844   25.7105 C   0  0  0  0  0  0  0  0  0  0  0  0
  -24.3176  -21.8638   19.7472 C   0  0  0  0  0  0  0  0  0  0  0  0
  -31.5866  -26.2564   19.6830 C   0  0  0  0  0  0  0  0  0  0  0  0
  -29.3587  -27.4903   20.1047 C   0  0  0  0  0  0  0  0  0  1  0  0
  -23.6331  -24.6404   23.8284 C   0  0  1  0  0  0  0  0  0  0  0  0
  -23.9756  -21.2604   22.1467 C   0  0  2  0  0  0  0  0  0  0  0  0
  -30.9733  -24.8507   19.7156 C   0  0  1  0  0  0  0  0  0  0  0  0
  -30.6200  -27.3716   19.2523 C   0  0  1  0  0  0  0  0  0  0  0  0
  -23.4153  -24.7458   25.3643 C   0  0  0  0  0  0  0  0  0  0  0  0
  -29.1029  -22.7942   19.2122 N   0  0  0  0  0  0  0  0  0  0  0  0
  -24.5760  -15.8110   19.0062 N   0  0  0  0  0  0  0  0  0  0  0  0
  -28.3525  -22.1916   16.5780 N   0  0  0  0  0  0  0  0  0  0  0  0
  -23.9633  -16.9938   19.1844 N   0  0  0  0  0  0  0  0  0  0  0  0
  -23.3275  -26.5205   22.2486 N   0  0  0  0  0  0  0  0  0  0  0  0
  -25.4488  -19.0083   16.3002 N   0  0  0  0  0  0  0  0  0  0  0  0
  -29.8047  -23.8936   15.7901 N   0  0  0  0  0  0  0  0  0  0  0  0
  -22.6369  -18.2223   20.7148 N   0  0  0  0  0  0  0  0  0  0  0  0
  -23.2870  -14.2838   22.8271 N   0  0  0  0  0  0  0  0  0  0  0  0
  -26.9042  -20.4885   17.4196 N   0  0  0  0  0  0  0  0  0  0  0  0
  -30.5267  -24.4689   18.3926 N   0  0  0  0  0  0  0  0  0  0  0  0
  -21.3658  -29.4841   22.5631 N   0  0  0  0  0  0  0  0  0  0  0  0
  -23.4333  -23.3005   23.2871 N   0  0  0  0  0  0  0  0  0  0  0  0
  -24.6135  -20.9093   20.8464 N   0  3  0  0  0  0  0  0  0  0  0  0
  -22.2803  -16.3381   22.9862 O   0  0  0  0  0  0  0  0  0  0  0  0
  -23.5529  -28.9859   23.1882 O   0  0  0  0  0  0  0  0  0  0  0  0
  -21.4913  -25.4026   23.1514 O   0  0  0  0  0  0  0  0  0  0  0  0
  -25.5538  -23.0754   22.3762 O   0  0  0  0  0  0  0  0  0  0  0  0
  -26.7364  -20.5116   15.1060 O   0  0  0  0  0  0  0  0  0  0  0  0
  -31.3132  -28.6203   19.3310 O   0  0  0  0  0  0  0  0  0  0  0  0
  -26.1964   -9.9471   20.8871 O   0  0  0  0  0  0  0  0  0  0  0  0
  -28.5278  -28.5439   19.6189 O   0  0  0  0  0  0  0  0  0  1  0  0
  -22.6787   -6.1888   22.8631 F   0  0  0  0  0  0  0  0  0  0  0  0
  -25.5873   -7.6738   19.4367 F   0  0  0  0  0  0  0  0  0  0  0  0
  1  2  1  0  0  0  0
  1  5  2  0  0  0  0
  2  6  2  0  0  0  0
  3  8  2  0  0  0  0
  3 16  1  0  0  0  0
  4  9  1  0  0  0  0
  4 16  2  0  0  0  0
  5 18  1  0  0  0  0
  6 20  1  0  0  0  0
  7 10  2  0  0  0  0
  7 19  1  0  0  0  0
  8 22  1  0  0  0  0
  9 22  2  0  0  0  0
 10 23  1  0  0  0  0
 11 12  2  0  0  0  0
 11 24  1  0  0  0  0
 12 25  1  0  0  0  0
 13 21  1  0  0  0  0
 13 23  2  0  0  0  0
 14 25  2  0  0  0  0
 14 26  1  0  0  0  0
 15 28  1  0  0  0  0
 15 62  2  0  0  0  0
 16 27  1  0  0  0  0
 17 27  1  0  0  0  0
 17 31  2  0  0  0  0
 17 32  1  0  0  0  0
 18 20  2  0  0  0  0
 18 37  1  0  0  0  0
 19 21  2  0  0  0  0
 19 38  1  0  0  0  0
 20 46  1  0  0  0  0
 21 39  1  0  0  0  0
 22 82  1  0  0  0  0
 23 83  1  0  0  0  0
 24 26  2  0  0  0  0
 24 82  1  0  0  0  0
 25 84  1  0  0  0  0
 26 85  1  0  0  0  0
 27 63  2  0  0  0  0
 28 64  2  0  0  0  0
 28 71  1  0  0  0  0
 29 30  2  0  0  0  0
 29 62  1  0  0  0  0
 29 72  1  0  0  0  0
 30 64  1  0  0  0  0
 30 68  1  0  0  0  0
 31 65  1  0  0  0  0
 31 69  1  0  0  0  0
 32 70  1  0  0  0  0
 32 76  2  0  0  0  0
 33 47  1  0  0  0  0
 33 73  1  0  0  0  0
 33 77  2  0  0  0  0
 34 57  1  0  0  0  0
 34 66  1  0  0  0  0
 34 78  2  0  0  0  0
 35 58  1  0  0  0  0
 35 74  1  0  0  0  0
 35 79  2  0  0  0  0
 36 67  1  0  0  0  0
 36 71  1  0  0  0  0
 36 80  2  0  0  0  0
 37 40  1  0  0  0  0
 38 47  1  0  0  0  0
 39 66  1  0  0  0  0
 40 42  1  0  0  0  0
 41 43  1  0  0  0  0
 41 44  1  0  0  0  0
 42 46  1  0  0  0  0
 43 48  1  0  0  0  0
 44 67  1  0  0  0  0
 45 48  1  0  0  0  0
 45 67  1  0  0  0  0
 46 73  1  0  0  0  0
 47 66  1  0  0  0  0
 48 65  1  0  0  0  0
 49 58  1  0  0  0  0
 50 59  1  0  0  0  0
 51 61  1  0  0  0  0
 52 61  1  0  0  0  0
 53 61  1  0  0  0  0
 54 75  1  0  0  0  0
 55 59  1  0  0  0  0
 55 60  1  0  0  0  0
 56 60  1  0  0  0  0
 56 83  1  0  0  0  0
 57 61  1  0  0  0  0
 57 74  1  0  0  0  0
 58 75  1  0  0  0  0
 59 72  1  0  0  0  0
 60 81  1  0  0  0  0
 63 65  1  0  0  0  0
M  CHG  1  75   1
M  ISO  4  36 100  56 101  71 100  83 101
M  END
> <Batch ID>
0192

> <Smiles>
CNC(C)C(=O)NC(C(=O)N1Cc2cc([101O:1][101CH2:1]C(O)CC(C)Nc3ncc([100NH:0][100C:0](=O)N4CCCC(n5nc(-c6ccc(Oc7ccc(F)cc7F)cc6)c(C(N)=O)c5N)C4)nc3N)ccc2CC1C(=O)NC1CCCc2ccccc21)C(C)(C)C

> <Shape>
0.183

> <Color>
0.085

> <Negative vol penalty>
0.000

$$$$

  -OEChem-04052305273D

 84 92  0     1  0  0  0  0  0999 V2000
  -25.6654  -19.3524   25.1414 C   0  0  0  0  0  0  0  0  0  0  0  0
  -26.3267  -20.4036   24.5143 C   0  0  0  0  0  0  0  0  0  0  0  0
  -26.4729  -12.4997   21.5698 C   0  0  0  0  0  0  0  0  0  0  0  0
  -25.7200  -13.5901   19.5496 C   0  0  0  0  0  0  0  0  0  0  0  0
  -24.2876  -19.2057   24.9864 C   0  0  0  0  0  0  0  0  0  0  0  0
  -25.6106  -21.3081   23.7310 C   0  0  0  0  0  0  0  0  0  0  0  0
  -26.9179  -26.1171   24.6305 C   0  0  0  0  0  0  0  0  0  0  0  0
  -25.2589  -11.8180   21.6543 C   0  0  0  0  0  0  0  0  0  0  0  0
  -24.5060  -12.9084   19.6341 C   0  0  0  0  0  0  0  0  0  0  0  0
  -28.1049  -26.5720   24.0579 C   0  0  0  0  0  0  0  0  0  0  0  0
  -23.8063   -9.1287   20.2083 C   0  0  0  0  0  0  0  0  0  0  0  0
  -23.8475   -7.7653   20.4997 C   0  0  0  0  0  0  0  0  0  0  0  0
  -26.8421  -27.6326   22.2973 C   0  0  0  0  0  0  0  0  0  0  0  0
  -22.5387   -8.1519   22.4934 C   0  0  0  0  0  0  0  0  0  0  0  0
  -28.0019  -22.3115   16.9146 C   0  0  0  0  0  0  0  0  0  0  0  0
  -26.7034  -13.3858   20.5174 C   0  0  0  0  0  0  0  0  0  0  0  0
  -29.1249  -13.6690   19.7667 C   0  0  0  0  0  0  0  0  0  0  0  0
  -23.5528  -20.1144   24.2086 C   0  0  0  0  0  0  0  0  0  0  0  0
  -25.6826  -26.4078   24.0338 C   0  0  0  0  0  0  0  0  0  0  0  0
  -24.2219  -21.1726   23.5644 C   0  0  0  0  0  0  0  0  0  0  0  0
  -25.6407  -27.1824   22.8657 C   0  0  0  0  0  0  0  0  0  0  0  0
  -24.2755  -12.0223   20.6865 C   0  0  0  0  0  0  0  0  0  0  0  0
  -28.0673  -27.3274   22.8896 C   0  0  0  0  0  0  0  0  0  0  0  0
  -23.1315  -10.0038   21.0596 C   0  0  0  0  0  0  0  0  0  0  0  0
  -23.2136   -7.2768   21.6422 C   0  0  0  0  0  0  0  0  0  0  0  0
  -22.4976   -9.5154   22.2020 C   0  0  0  0  0  0  0  0  0  0  0  0
  -28.4838  -23.5751   17.1891 C   0  0  0  0  0  0  0  0  0  0  0  0
  -27.9570  -14.0907   20.4299 C   0  0  0  0  0  0  0  0  0  0  0  0
  -29.0871  -23.7295   18.4205 C   0  0  0  0  0  0  0  0  0  0  0  0
  -30.0255  -14.6843   19.9781 C   0  0  0  0  0  0  0  0  0  0  0  0
  -28.7058  -21.5489   18.9369 C   0  0  0  0  0  0  0  0  0  0  0  0
  -29.3736  -12.4669   19.0258 C   0  0  0  0  0  0  0  0  0  0  0  0
  -23.3343  -24.6721   22.7781 C   0  0  0  0  0  0  0  0  0  0  0  0
  -21.8445  -27.5464   22.5742 C   0  0  0  0  0  0  0  0  0  0  0  0
  -22.1151  -30.9438   22.3975 C   0  0  0  0  0  0  0  0  0  0  0  0
  -29.4075  -20.5159   21.1249 C   0  0  0  0  0  0  0  0  0  0  0  0
  -22.0723  -19.8875   24.0319 C   0  0  0  0  0  0  0  0  0  0  0  0
  -24.4096  -25.9323   24.6786 C   0  0  0  0  0  0  0  0  0  0  0  0
  -24.3392  -27.5390   22.1970 C   0  0  0  0  0  0  0  0  0  0  0  0
  -21.3297  -21.1061   23.4898 C   0  0  0  0  0  0  0  0  0  0  0  0
  -31.1219  -18.1221   23.1267 C   0  0  0  0  0  0  0  0  0  0  0  0
  -22.0821  -21.7070   22.3068 C   0  0  0  0  0  0  0  0  0  0  0  0
  -30.6158  -16.7781   22.5978 C   0  0  0  0  0  0  0  0  0  0  0  0
  -30.0213  -19.1814   23.1292 C   0  0  0  0  0  0  0  0  0  0  0  0
  -28.8244  -18.0182   21.3171 C   0  0  0  0  0  0  0  0  0  0  0  0
  -23.4762  -22.1886   22.7267 C   0  0  1  0  0  0  0  0  0  0  0  0
  -23.2394  -25.8524   23.7031 C   0  0  1  0  0  0  0  0  0  0  0  0
  -29.9143  -16.9370   21.2347 C   0  0  2  0  0  0  0  0  0  0  0  0
  -20.7240  -33.0231   22.2007 C   0  0  0  0  0  0  0  0  0  0  0  0
  -21.3961  -26.9632   19.6130 C   0  0  0  0  0  0  0  0  0  0  0  0
  -20.8873  -29.3923   19.2831 C   0  0  0  0  0  0  0  0  0  0  0  0
  -19.4457  -28.0096   20.7773 C   0  0  0  0  0  0  0  0  0  0  0  0
  -23.0974  -31.9857   24.9875 C   0  0  0  0  0  0  0  0  0  0  0  0
  -30.6288  -26.7717   20.0170 C   0  0  0  0  0  0  0  0  0  0  0  0
  -30.2396  -25.2938   19.9859 C   0  0  0  0  0  0  0  0  0  0  0  0
  -30.3893  -26.9704   22.5198 C   0  0  0  0  0  0  0  0  0  1  0  0
  -21.7723  -28.6420   21.5381 C   0  0  1  0  0  0  0  0  0  0  0  0
  -21.4036  -32.0516   23.1531 C   0  0  2  0  0  0  0  0  0  0  0  0
  -31.3203  -27.1598   21.3263 C   0  0  2  0  0  0  0  0  0  0  0  0
  -20.9001  -28.2436   20.3142 C   0  0  0  0  0  0  0  0  0  0  0  0
  -28.0962  -21.2713   17.7687 N   0  0  0  0  0  0  0  0  0  0  0  0
  -28.0997  -15.2811   21.0187 N   0  0  0  0  0  0  0  0  0  0  0  0
  -29.2156  -22.7342   19.3224 N   0  0  0  0  0  0  0  0  0  0  0  0
  -29.3679  -15.6160   20.7262 N   0  0  0  0  0  0  0  0  0  0  0  0
  -23.1220  -27.0455   22.8623 N   0  0  0  0  0  0  0  0  0  0  0  0
  -29.4050  -19.2793   21.8043 N   0  0  0  0  0  0  0  0  0  0  0  0
  -31.3077  -14.8620   19.5952 N   0  0  0  0  0  0  0  0  0  0  0  0
  -28.3386  -11.5295   18.9064 N   0  0  0  0  0  0  0  0  0  0  0  0
  -29.5844  -24.9834   18.7370 N   0  0  0  0  0  0  0  0  0  0  0  0
  -28.8223  -20.4798   19.8596 N   0  0  0  0  0  0  0  0  0  0  0  0
  -23.3849  -23.4525   23.4257 N   0  0  0  0  0  0  0  0  0  0  0  0
  -21.3101  -29.8357   22.2379 N   0  0  0  0  0  0  0  0  0  0  0  0
  -22.3734  -32.8140   23.9892 N   0  3  0  0  0  0  0  0  0  0  0  0
  -30.4859  -12.2237   18.4994 O   0  0  0  0  0  0  0  0  0  0  0  0
  -23.3583  -24.8544   21.5666 O   0  0  0  0  0  0  0  0  0  0  0  0
  -20.8066  -27.1546   23.1134 O   0  0  0  0  0  0  0  0  0  0  0  0
  -23.2683  -31.0521   21.9864 O   0  0  0  0  0  0  0  0  0  0  0  0
  -29.9173  -21.5258   21.6171 O   0  0  0  0  0  0  0  0  0  0  0  0
  -31.7014  -28.5337   21.2556 O   0  0  0  0  0  0  0  0  0  0  0  0
  -23.0909  -11.3571   20.7685 O   0  0  0  0  0  0  0  0  0  0  0  0
  -29.2245  -27.7722   22.3283 O   0  0  0  0  0  0  0  0  0  1  0  0
  -23.2519   -5.9673   21.9210 F   0  0  0  0  0  0  0  0  0  0  0  0
  -21.8467  -10.3510   23.0229 F   0  0  0  0  0  0  0  0  0  0  0  0
  -28.3665  -24.5757   16.3099 F   0  0  0  0  0  0  0  0  0  0  0  0
  1  2  1  0  0  0  0
  1  5  2  0  0  0  0
  2  6  2  0  0  0  0
  3  8  2  0  0  0  0
  3 16  1  0  0  0  0
  4  9  1  0  0  0  0
  4 16  2  0  0  0  0
  5 18  1  0  0  0  0
  6 20  1  0  0  0  0
  7 10  2  0  0  0  0
  7 19  1  0  0  0  0
  8 22  1  0  0  0  0
  9 22  2  0  0  0  0
 10 23  1  0  0  0  0
 11 12  2  0  0  0  0
 11 24  1  0  0  0  0
 12 25  1  0  0  0  0
 13 21  1  0  0  0  0
 13 23  2  0  0  0  0
 14 25  2  0  0  0  0
 14 26  1  0  0  0  0
 15 27  1  0  0  0  0
 15 61  2  0  0  0  0
 16 28  1  0  0  0  0
 17 28  1  0  0  0  0
 17 30  2  0  0  0  0
 17 32  1  0  0  0  0
 18 20  2  0  0  0  0
 18 37  1  0  0  0  0
 19 21  2  0  0  0  0
 19 38  1  0  0  0  0
 20 46  1  0  0  0  0
 21 39  1  0  0  0  0
 22 80  1  0  0  0  0
 23 81  1  0  0  0  0
 24 26  2  0  0  0  0
 24 80  1  0  0  0  0
 25 82  1  0  0  0  0
 26 83  1  0  0  0  0
 27 29  2  0  0  0  0
 27 84  1  0  0  0  0
 28 62  2  0  0  0  0
 29 63  1  0  0  0  0
 29 69  1  0  0  0  0
 30 64  1  0  0  0  0
 30 67  1  0  0  0  0
 31 61  1  0  0  0  0
 31 63  2  0  0  0  0
 31 70  1  0  0  0  0
 32 68  1  0  0  0  0
 32 74  2  0  0  0  0
 33 47  1  0  0  0  0
 33 71  1  0  0  0  0
 33 75  2  0  0  0  0
 34 57  1  0  0  0  0
 34 65  1  0  0  0  0
 34 76  2  0  0  0  0
 35 58  1  0  0  0  0
 35 72  1  0  0  0  0
 35 77  2  0  0  0  0
 36 66  1  0  0  0  0
 36 70  1  0  0  0  0
 36 78  2  0  0  0  0
 37 40  1  0  0  0  0
 38 47  1  0  0  0  0
 39 65  1  0  0  0  0
 40 42  1  0  0  0  0
 41 43  1  0  0  0  0
 41 44  1  0  0  0  0
 42 46  1  0  0  0  0
 43 48  1  0  0  0  0
 44 66  1  0  0  0  0
 45 48  1  0  0  0  0
 45 66  1  0  0  0  0
 46 71  1  0  0  0  0
 47 65  1  0  0  0  0
 48 64  1  0  0  0  0
 49 58  1  0  0  0  0
 50 60  1  0  0  0  0
 51 60  1  0  0  0  0
 52 60  1  0  0  0  0
 53 73  1  0  0  0  0
 54 55  1  0  0  0  0
 54 59  1  0  0  0  0
 55 69  1  0  0  0  0
 56 59  1  0  0  0  0
 56 81  1  0  0  0  0
 57 60  1  0  0  0  0
 57 72  1  0  0  0  0
 58 73  1  0  0  0  0
 59 79  1  0  0  0  0
 62 64  1  0  0  0  0
M  CHG  1  73   1
M  ISO  4  36 100  56 101  70 100  81 101
M  END
> <Batch ID>
0192

> <Smiles>
CNC(C)C(=O)NC(C(=O)N1Cc2cc([101O:1][101CH2:1]C(O)CCNc3nc([100NH:0][100C:0](=O)N4CCCC(n5nc(-c6ccc(Oc7ccc(F)cc7F)cc6)c(C(N)=O)c5N)C4)ncc3F)ccc2CC1C(=O)NC1CCCc2ccccc21)C(C)(C)C

> <Shape>
0.245

> <Color>
0.068

> <Negative vol penalty>
0.000

$$$$

  -OEChem-04052305273D

 83 91  0     1  0  0  0  0  0999 V2000
  -21.5573  -12.6479   19.7077 C   0  0  0  0  0  0  0  0  0  0  0  0
  -21.6051  -13.8626   20.3841 C   0  0  0  0  0  0  0  0  0  0  0  0
  -30.1841  -28.2844   21.5164 C   0  0  0  0  0  0  0  0  0  0  0  0
  -29.0008  -26.2255   21.9611 C   0  0  0  0  0  0  0  0  0  0  0  0
  -22.7185  -11.8923   19.5510 C   0  0  0  0  0  0  0  0  0  0  0  0
  -22.8142  -14.3220   20.9052 C   0  0  0  0  0  0  0  0  0  0  0  0
  -23.6012  -19.2323   19.9490 C   0  0  0  0  0  0  0  0  0  0  0  0
  -31.2525  -27.8384   22.2944 C   0  0  0  0  0  0  0  0  0  0  0  0
  -30.0692  -25.7795   22.7391 C   0  0  0  0  0  0  0  0  0  0  0  0
  -22.9178  -20.1530   20.7421 C   0  0  0  0  0  0  0  0  0  0  0  0
  -31.2629  -26.2922   25.8605 C   0  0  0  0  0  0  0  0  0  0  0  0
  -30.9679  -25.7040   27.0903 C   0  0  0  0  0  0  0  0  0  0  0  0
  -24.9050  -20.4734   22.0717 C   0  0  0  0  0  0  0  0  0  0  0  0
  -32.0364  -23.6606   26.3692 C   0  0  0  0  0  0  0  0  0  0  0  0
  -29.0582  -27.4780   21.3498 C   0  0  0  0  0  0  0  0  0  0  0  0
  -27.7696  -27.7456   19.1645 C   0  0  0  0  0  0  0  0  0  0  0  0
  -23.9443  -12.3473   20.0621 C   0  0  0  0  0  0  0  0  0  0  0  0
  -24.9407  -18.9166   20.2183 C   0  0  0  0  0  0  0  0  0  0  0  0
  -23.9927  -13.5712   20.7564 C   0  0  0  0  0  0  0  0  0  0  0  0
  -25.6039  -19.5503   21.2789 C   0  0  0  0  0  0  0  0  0  0  0  0
  -31.1950  -26.5860   22.9057 C   0  0  0  0  0  0  0  0  0  0  0  0
  -23.5688  -20.7715   21.8055 C   0  0  0  0  0  0  0  0  0  0  0  0
  -31.9446  -25.5647   24.8849 C   0  0  0  0  0  0  0  0  0  0  0  0
  -31.3547  -24.3882   27.3447 C   0  0  0  0  0  0  0  0  0  0  0  0
  -32.3314  -24.2489   25.1394 C   0  0  0  0  0  0  0  0  0  0  0  0
  -27.9540  -27.9383   20.5467 C   0  0  0  0  0  0  0  0  0  0  0  0
  -26.5780  -28.3695   18.8867 C   0  0  0  0  0  0  0  0  0  0  0  0
  -20.6087  -26.1358   22.6653 C   0  0  0  0  0  0  0  0  0  0  0  0
  -20.2768  -24.1459   21.6819 C   0  0  0  0  0  0  0  0  0  0  0  0
  -21.3192  -24.2569   23.6664 C   0  0  0  0  0  0  0  0  0  0  0  0
  -28.6012  -27.0634   18.2164 C   0  0  0  0  0  0  0  0  0  0  0  0
  -26.5015  -16.2698   21.0320 C   0  0  0  0  0  0  0  0  0  0  0  0
  -29.1113  -18.1589   20.6540 C   0  0  0  0  0  0  0  0  0  0  0  0
  -30.4277  -21.3073   20.6148 C   0  0  0  0  0  0  0  0  0  0  0  0
  -21.7835  -29.6754   22.2272 C   0  0  0  0  0  0  0  0  0  0  0  0
  -25.1638  -11.4732   19.9091 C   0  0  0  0  0  0  0  0  0  0  0  0
  -25.6716  -17.9413   19.3369 C   0  0  0  0  0  0  0  0  0  0  0  0
  -27.0473  -19.2613   21.5974 C   0  0  0  0  0  0  0  0  0  0  0  0
  -26.4766  -12.2091   20.1649 C   0  0  0  0  0  0  0  0  0  0  0  0
  -23.7946  -31.9620   20.3823 C   0  0  0  0  0  0  0  0  0  0  0  0
  -26.3810  -13.0445   21.4377 C   0  0  0  0  0  0  0  0  0  0  0  0
  -25.0720  -31.1727   20.0905 C   0  0  0  0  0  0  0  0  0  0  0  0
  -23.2300  -31.6319   21.7623 C   0  0  0  0  0  0  0  0  0  0  0  0
  -24.2873  -29.4061   21.7222 C   0  0  0  0  0  0  0  0  0  0  0  0
  -25.2900  -14.1150   21.3144 C   0  0  1  0  0  0  0  0  0  0  0  0
  -26.8825  -17.3115   20.0183 C   0  0  1  0  0  0  0  0  0  0  0  0
  -24.8632  -29.6636   20.3192 C   0  0  2  0  0  0  0  0  0  0  0  0
  -32.5980  -22.5314   20.3166 C   0  0  0  0  0  0  0  0  0  0  0  0
  -22.3457  -21.8121   26.2725 C   0  0  0  0  0  0  0  0  0  0  0  0
  -29.9581  -17.3382   23.4681 C   0  0  0  0  0  0  0  0  0  0  0  0
  -31.5545  -19.2668   23.4749 C   0  0  0  0  0  0  0  0  0  0  0  0
  -31.8225  -17.4341   21.8039 C   0  0  0  0  0  0  0  0  0  0  0  0
  -29.4138  -22.7651   18.2471 C   0  0  0  0  0  0  0  0  0  0  0  0
  -20.4624  -27.6194   22.6592 C   0  0  0  0  0  0  0  0  0  0  0  0
  -23.3080  -21.7738   23.9463 C   0  0  0  0  0  0  0  0  0  1  0  0
  -29.9110  -19.0699   21.5537 C   0  0  1  0  0  0  0  0  0  0  0  0
  -31.3497  -22.0014   19.6285 C   0  0  2  0  0  0  0  0  0  0  0  0
  -22.1237  -22.1929   24.8146 C   0  0  2  0  0  0  0  0  0  0  0  0
  -30.7837  -18.2815   22.5706 C   0  0  0  0  0  0  0  0  0  0  0  0
  -26.9592  -28.6307   21.1080 N   0  0  0  0  0  0  0  0  0  0  0  0
  -20.1102  -25.4761   21.6071 N   0  0  0  0  0  0  0  0  0  0  0  0
  -21.2246  -25.5949   23.7289 N   0  0  0  0  0  0  0  0  0  0  0  0
  -20.8699  -23.4675   22.6775 N   0  0  0  0  0  0  0  0  0  0  0  0
  -26.1383  -28.8785   20.0732 N   0  0  0  0  0  0  0  0  0  0  0  0
  -27.7170  -18.2957   20.7105 N   0  0  0  0  0  0  0  0  0  0  0  0
  -23.0542  -30.1856   21.9141 N   0  0  0  0  0  0  0  0  0  0  0  0
  -25.8739  -28.5269   17.7457 N   0  0  0  0  0  0  0  0  0  0  0  0
  -19.7787  -23.3832   20.6031 N   0  0  0  0  0  0  0  0  0  0  0  0
  -29.7911  -26.4785   18.6705 N   0  0  0  0  0  0  0  0  0  0  0  0
  -21.9428  -23.6283   24.7283 N   0  0  0  0  0  0  0  0  0  0  0  0
  -25.7597  -15.2254   20.5139 N   0  0  0  0  0  0  0  0  0  0  0  0
  -30.6695  -19.9510   20.6723 N   0  0  0  0  0  0  0  0  0  0  0  0
  -21.7029  -28.2934   22.3469 N   0  0  0  0  0  0  0  0  0  0  0  0
  -30.6482  -23.1458   18.9809 N   0  3  0  0  0  0  0  0  0  0  0  0
  -28.3061  -26.9894   16.9994 O   0  0  0  0  0  0  0  0  0  0  0  0
  -26.8557  -16.4030   22.1975 O   0  0  0  0  0  0  0  0  0  0  0  0
  -29.7021  -17.3605   19.9225 O   0  0  0  0  0  0  0  0  0  0  0  0
  -29.5806  -21.9087   21.2714 O   0  0  0  0  0  0  0  0  0  0  0  0
  -20.7930  -30.3976   22.3830 O   0  0  0  0  0  0  0  0  0  0  0  0
  -32.2375  -26.1504   23.6648 O   0  0  0  0  0  0  0  0  0  0  0  0
  -22.9040  -21.6700   22.5817 O   0  0  0  0  0  0  0  0  0  1  0  0
  -31.0726  -23.8240   28.5263 F   0  0  0  0  0  0  0  0  0  0  0  0
  -32.9877  -23.5453   24.2066 F   0  0  0  0  0  0  0  0  0  0  0  0
  1  2  1  0  0  0  0
  1  5  2  0  0  0  0
  2  6  2  0  0  0  0
  3  8  2  0  0  0  0
  3 15  1  0  0  0  0
  4  9  1  0  0  0  0
  4 15  2  0  0  0  0
  5 17  1  0  0  0  0
  6 19  1  0  0  0  0
  7 10  2  0  0  0  0
  7 18  1  0  0  0  0
  8 21  1  0  0  0  0
  9 21  2  0  0  0  0
 10 22  1  0  0  0  0
 11 12  2  0  0  0  0
 11 23  1  0  0  0  0
 12 24  1  0  0  0  0
 13 20  1  0  0  0  0
 13 22  2  0  0  0  0
 14 24  2  0  0  0  0
 14 25  1  0  0  0  0
 15 26  1  0  0  0  0
 16 26  1  0  0  0  0
 16 27  2  0  0  0  0
 16 31  1  0  0  0  0
 17 19  2  0  0  0  0
 17 36  1  0  0  0  0
 18 20  2  0  0  0  0
 18 37  1  0  0  0  0
 19 45  1  0  0  0  0
 20 38  1  0  0  0  0
 21 80  1  0  0  0  0
 22 81  1  0  0  0  0
 23 25  2  0  0  0  0
 23 80  1  0  0  0  0
 24 82  1  0  0  0  0
 25 83  1  0  0  0  0
 26 60  2  0  0  0  0
 27 64  1  0  0  0  0
 27 67  1  0  0  0  0
 28 54  1  0  0  0  0
 28 61  2  0  0  0  0
 28 62  1  0  0  0  0
 29 61  1  0  0  0  0
 29 63  2  0  0  0  0
 29 68  1  0  0  0  0
 30 62  2  0  0  0  0
 30 63  1  0  0  0  0
 30 70  1  0  0  0  0
 31 69  1  0  0  0  0
 31 75  2  0  0  0  0
 32 46  1  0  0  0  0
 32 71  1  0  0  0  0
 32 76  2  0  0  0  0
 33 56  1  0  0  0  0
 33 65  1  0  0  0  0
 33 77  2  0  0  0  0
 34 57  1  0  0  0  0
 34 72  1  0  0  0  0
 34 78  2  0  0  0  0
 35 66  1  0  0  0  0
 35 73  1  0  0  0  0
 35 79  2  0  0  0  0
 36 39  1  0  0  0  0
 37 46  1  0  0  0  0
 38 65  1  0  0  0  0
 39 41  1  0  0  0  0
 40 42  1  0  0  0  0
 40 43  1  0  0  0  0
 41 45  1  0  0  0  0
 42 47  1  0  0  0  0
 43 66  1  0  0  0  0
 44 47  1  0  0  0  0
 44 66  1  0  0  0  0
 45 71  1  0  0  0  0
 46 65  1  0  0  0  0
 47 64  1  0  0  0  0
 48 57  1  0  0  0  0
 49 58  1  0  0  0  0
 50 59  1  0  0  0  0
 51 59  1  0  0  0  0
 52 59  1  0  0  0  0
 53 74  1  0  0  0  0
 54 73  1  0  0  0  0
 55 58  1  0  0  0  0
 55 81  1  0  0  0  0
 56 59  1  0  0  0  0
 56 72  1  0  0  0  0
 57 74  1  0  0  0  0
 58 70  1  0  0  0  0
 60 64  1  0  0  0  0
M  CHG  1  74   1
M  ISO  4  35 100  55 101  73 100  81 101
M  END
> <Batch ID>
0192

> <Smiles>
CNC(C)C(=O)NC(C(=O)N1Cc2cc([101O:1][101CH2:1]C(C)Nc3nc(N)nc(C[100NH:0][100C:0](=O)N4CCCC(n5nc(-c6ccc(Oc7ccc(F)cc7F)cc6)c(C(N)=O)c5N)C4)n3)ccc2CC1C(=O)NC1CCCc2ccccc21)C(C)(C)C

> <Shape>
0.217

> <Color>
0.063

> <Negative vol penalty>
0.000

$$$$

  -OEChem-04052305273D

 82 90  0     1  0  0  0  0  0999 V2000
  -32.1056  -15.3839   19.2703 C   0  0  0  0  0  0  0  0  0  0  0  0
  -31.1660  -16.4074   19.2004 C   0  0  0  0  0  0  0  0  0  0  0  0
  -28.7444  -25.7399   19.5924 C   0  0  0  0  0  0  0  0  0  0  0  0
  -26.5649  -24.7247   19.3548 C   0  0  0  0  0  0  0  0  0  0  0  0
  -31.6880  -14.0676   19.4623 C   0  0  0  0  0  0  0  0  0  0  0  0
  -29.8079  -16.1150   19.3214 C   0  0  0  0  0  0  0  0  0  0  0  0
  -25.5120  -19.5988   21.9509 C   0  0  0  0  0  0  0  0  0  0  0  0
  -29.3382  -24.4792   19.5321 C   0  0  0  0  0  0  0  0  0  0  0  0
  -27.1587  -23.4640   19.2945 C   0  0  0  0  0  0  0  0  0  0  0  0
  -24.5697  -20.4820   21.4259 C   0  0  0  0  0  0  0  0  0  0  0  0
  -28.7790  -21.5828   17.0018 C   0  0  0  0  0  0  0  0  0  0  0  0
  -28.3284  -20.7023   16.0184 C   0  0  0  0  0  0  0  0  0  0  0  0
  -22.9134  -18.7286   21.4650 C   0  0  0  0  0  0  0  0  0  0  0  0
  -27.6742  -19.1266   17.7291 C   0  0  0  0  0  0  0  0  0  0  0  0
  -18.4825  -28.1556   22.8902 C   0  0  0  0  0  0  0  0  0  0  0  0
  -27.3577  -25.8627   19.5038 C   0  0  0  0  0  0  0  0  0  0  0  0
  -26.4607  -28.0240   18.4880 C   0  0  0  0  0  0  0  0  0  0  0  0
  -30.3248  -13.7601   19.5954 C   0  0  0  0  0  0  0  0  0  0  0  0
  -25.1645  -18.2686   22.2272 C   0  0  0  0  0  0  0  0  0  0  0  0
  -29.3716  -14.7932   19.5141 C   0  0  0  0  0  0  0  0  0  0  0  0
  -23.8525  -17.8312   21.9959 C   0  0  0  0  0  0  0  0  0  0  0  0
  -28.5454  -23.3413   19.3831 C   0  0  0  0  0  0  0  0  0  0  0  0
  -23.2710  -20.0462   21.1801 C   0  0  0  0  0  0  0  0  0  0  0  0
  -28.6774  -21.2353   18.3489 C   0  0  0  0  0  0  0  0  0  0  0  0
  -27.7759  -19.4742   16.3821 C   0  0  0  0  0  0  0  0  0  0  0  0
  -28.1249  -20.0072   18.7125 C   0  0  0  0  0  0  0  0  0  0  0  0
  -26.7437  -27.1646   19.5666 C   0  0  0  0  0  0  0  0  0  0  0  0
  -19.8219  -28.0393   23.1977 C   0  0  0  0  0  0  0  0  0  0  0  0
  -25.8830  -29.1261   19.0696 C   0  0  0  0  0  0  0  0  0  0  0  0
  -19.5966  -26.2101   22.0089 C   0  0  0  0  0  0  0  0  0  0  0  0
  -26.6987  -27.8423   17.0859 C   0  0  0  0  0  0  0  0  0  0  0  0
  -26.1291  -15.4316   21.1670 C   0  0  0  0  0  0  0  0  0  0  0  0
  -24.1607  -14.3267   23.4965 C   0  0  0  0  0  0  0  0  0  0  0  0
  -21.4657  -14.8798   25.5159 C   0  0  0  0  0  0  0  0  0  0  0  0
  -22.8955  -29.9373   24.1947 C   0  0  0  0  0  0  0  0  0  0  0  0
  -29.9184  -12.3164   19.7544 C   0  0  0  0  0  0  0  0  0  0  0  0
  -26.1855  -17.3356   22.8184 C   0  0  0  0  0  0  0  0  0  0  0  0
  -23.4234  -16.4186   22.2943 C   0  0  0  0  0  0  0  0  0  0  0  0
  -28.4849  -12.1380   20.2480 C   0  0  0  0  0  0  0  0  0  0  0  0
  -25.8524  -31.6233   23.1505 C   0  0  0  0  0  0  0  0  0  0  0  0
  -27.5351  -13.0407   19.4672 C   0  0  0  0  0  0  0  0  0  0  0  0
  -26.3906  -30.7493   22.0162 C   0  0  0  0  0  0  0  0  0  0  0  0
  -25.2227  -30.7837   24.2597 C   0  0  0  0  0  0  0  0  0  0  0  0
  -24.7222  -28.9651   22.6735 C   0  0  0  0  0  0  0  0  0  0  0  0
  -27.8910  -14.5191   19.6656 C   0  0  1  0  0  0  0  0  0  0  0  0
  -25.8593  -15.8645   22.5803 C   0  0  1  0  0  0  0  0  0  0  0  0
  -25.3169  -29.7700   21.5052 C   0  0  2  0  0  0  0  0  0  0  0  0
  -20.0734  -13.7773   27.2889 C   0  0  0  0  0  0  0  0  0  0  0  0
  -22.7988  -12.6220   21.3636 C   0  0  0  0  0  0  0  0  0  0  0  0
  -20.8837  -12.2994   22.9437 C   0  0  0  0  0  0  0  0  0  0  0  0
  -23.1547  -11.4661   23.5526 C   0  0  0  0  0  0  0  0  0  0  0  0
  -22.1424  -16.9629   27.5062 C   0  0  0  0  0  0  0  0  0  0  0  0
  -20.6077  -28.9945   24.0039 C   0  0  0  0  0  0  0  0  0  0  0  0
  -21.2163  -24.4227   21.3708 C   0  0  0  0  0  0  0  0  0  0  0  0
  -22.4962  -22.2870   20.9950 C   0  0  0  0  0  0  0  0  0  1  0  0
  -22.7001  -13.9530   23.5738 C   0  0  1  0  0  0  0  0  0  0  0  0
  -21.2661  -14.6778   27.0071 C   0  0  2  0  0  0  0  0  0  0  0  0
  -21.1207  -22.9451   20.9956 C   0  0  1  0  0  0  0  0  0  0  0  0
  -22.3926  -12.6113   22.8509 C   0  0  0  0  0  0  0  0  0  0  0  0
  -26.3761  -27.6768   20.7441 N   0  0  0  0  0  0  0  0  0  0  0  0
  -20.4623  -26.9241   22.6936 N   0  0  0  0  0  0  0  0  0  0  0  0
  -25.8564  -28.8700   20.4089 N   0  0  0  0  0  0  0  0  0  0  0  0
  -24.4595  -15.5426   22.8655 N   0  0  0  0  0  0  0  0  0  0  0  0
  -24.2120  -29.8776   23.7088 N   0  0  0  0  0  0  0  0  0  0  0  0
  -25.4004  -30.2796   18.5608 N   0  0  0  0  0  0  0  0  0  0  0  0
  -27.3011  -26.6508   16.6594 N   0  0  0  0  0  0  0  0  0  0  0  0
  -19.9008  -25.0224   21.3655 N   0  0  0  0  0  0  0  0  0  0  0  0
  -27.4188  -14.9843   20.9521 N   0  0  0  0  0  0  0  0  0  0  0  0
  -22.3507  -13.9624   24.9902 N   0  0  0  0  0  0  0  0  0  0  0  0
  -21.9991  -29.0484   23.6141 N   0  0  0  0  0  0  0  0  0  0  0  0
  -21.0361  -15.9870   27.6809 N   0  3  0  0  0  0  0  0  0  0  0  0
  -26.4015  -28.7177   16.2381 O   0  0  0  0  0  0  0  0  0  0  0  0
  -25.2332  -15.4970   20.3335 O   0  0  0  0  0  0  0  0  0  0  0  0
  -25.0048  -13.5711   23.9846 O   0  0  0  0  0  0  0  0  0  0  0  0
  -20.8910  -15.7607   24.8802 O   0  0  0  0  0  0  0  0  0  0  0  0
  -22.5436  -30.7282   25.0766 O   0  0  0  0  0  0  0  0  0  0  0  0
  -20.3154  -22.2685   21.9631 O   0  0  0  0  0  0  0  0  0  0  0  0
  -29.1245  -22.1110   19.3240 O   0  0  0  0  0  0  0  0  0  0  0  0
  -22.3494  -20.9060   20.6670 O   0  0  0  0  0  0  0  0  0  1  0  0
  -27.3418  -18.6293   15.4377 F   0  0  0  0  0  0  0  0  0  0  0  0
  -28.0236  -19.6683   20.0051 F   0  0  0  0  0  0  0  0  0  0  0  0
  -17.9949  -26.8211   21.9297 S   0  0  0  0  0  0  0  0  0  0  0  0
  1  2  1  0  0  0  0
  1  5  2  0  0  0  0
  2  6  2  0  0  0  0
  3  8  2  0  0  0  0
  3 16  1  0  0  0  0
  4  9  1  0  0  0  0
  4 16  2  0  0  0  0
  5 18  1  0  0  0  0
  6 20  1  0  0  0  0
  7 10  2  0  0  0  0
  7 19  1  0  0  0  0
  8 22  1  0  0  0  0
  9 22  2  0  0  0  0
 10 23  1  0  0  0  0
 11 12  2  0  0  0  0
 11 24  1  0  0  0  0
 12 25  1  0  0  0  0
 13 21  1  0  0  0  0
 13 23  2  0  0  0  0
 14 25  2  0  0  0  0
 14 26  1  0  0  0  0
 15 28  2  0  0  0  0
 15 82  1  0  0  0  0
 16 27  1  0  0  0  0
 17 27  1  0  0  0  0
 17 29  2  0  0  0  0
 17 31  1  0  0  0  0
 18 20  2  0  0  0  0
 18 36  1  0  0  0  0
 19 21  2  0  0  0  0
 19 37  1  0  0  0  0
 20 45  1  0  0  0  0
 21 38  1  0  0  0  0
 22 78  1  0  0  0  0
 23 79  1  0  0  0  0
 24 26  2  0  0  0  0
 24 78  1  0  0  0  0
 25 80  1  0  0  0  0
 26 81  1  0  0  0  0
 27 60  2  0  0  0  0
 28 53  1  0  0  0  0
 28 61  1  0  0  0  0
 29 62  1  0  0  0  0
 29 65  1  0  0  0  0
 30 61  2  0  0  0  0
 30 67  1  0  0  0  0
 30 82  1  0  0  0  0
 31 66  1  0  0  0  0
 31 72  2  0  0  0  0
 32 46  1  0  0  0  0
 32 68  1  0  0  0  0
 32 73  2  0  0  0  0
 33 56  1  0  0  0  0
 33 63  1  0  0  0  0
 33 74  2  0  0  0  0
 34 57  1  0  0  0  0
 34 69  1  0  0  0  0
 34 75  2  0  0  0  0
 35 64  1  0  0  0  0
 35 70  1  0  0  0  0
 35 76  2  0  0  0  0
 36 39  1  0  0  0  0
 37 46  1  0  0  0  0
 38 63  1  0  0  0  0
 39 41  1  0  0  0  0
 40 42  1  0  0  0  0
 40 43  1  0  0  0  0
 41 45  1  0  0  0  0
 42 47  1  0  0  0  0
 43 64  1  0  0  0  0
 44 47  1  0  0  0  0
 44 64  1  0  0  0  0
 45 68  1  0  0  0  0
 46 63  1  0  0  0  0
 47 62  1  0  0  0  0
 48 57  1  0  0  0  0
 49 59  1  0  0  0  0
 50 59  1  0  0  0  0
 51 59  1  0  0  0  0
 52 71  1  0  0  0  0
 53 70  1  0  0  0  0
 54 58  1  0  0  0  0
 54 67  1  0  0  0  0
 55 58  1  0  0  0  0
 55 79  1  0  0  0  0
 56 59  1  0  0  0  0
 56 69  1  0  0  0  0
 57 71  1  0  0  0  0
 58 77  1  0  0  0  0
 60 62  1  0  0  0  0
M  CHG  1  71   1
M  ISO  4  35 100  55 101  70 100  79 101
M  END
> <Batch ID>
0192

> <Smiles>
CNC(C)C(=O)NC(C(=O)N1Cc2cc([101O:1][101CH2:1]C(O)CNc3nc(C[100NH:0][100C:0](=O)N4CCCC(n5nc(-c6ccc(Oc7ccc(F)cc7F)cc6)c(C(N)=O)c5N)C4)cs3)ccc2CC1C(=O)NC1CCCc2ccccc21)C(C)(C)C

> <Shape>
0.216

> <Color>
0.068

> <Negative vol penalty>
0.000

$$$$

  -OEChem-04052305273D

 85 93  0     1  0  0  0  0  0999 V2000
  -18.2104  -31.9893   19.8454 C   0  0  0  0  0  0  0  0  0  0  0  0
  -19.4906  -31.6455   19.4229 C   0  0  0  0  0  0  0  0  0  0  0  0
  -24.7238  -13.6806   19.6812 C   0  0  0  0  0  0  0  0  0  0  0  0
  -26.7248  -13.6786   21.0350 C   0  0  0  0  0  0  0  0  0  0  0  0
  -17.8691  -31.8790   21.1927 C   0  0  0  0  0  0  0  0  0  0  0  0
  -20.4306  -31.1923   20.3478 C   0  0  0  0  0  0  0  0  0  0  0  0
  -24.7890  -26.9932   19.4111 C   0  0  0  0  0  0  0  0  0  0  0  0
  -24.6260  -12.2965   19.8237 C   0  0  0  0  0  0  0  0  0  0  0  0
  -26.6270  -12.2945   21.1775 C   0  0  0  0  0  0  0  0  0  0  0  0
  -26.1478  -27.1008   19.1185 C   0  0  0  0  0  0  0  0  0  0  0  0
  -23.6469   -8.8090   20.1304 C   0  0  0  0  0  0  0  0  0  0  0  0
  -22.3924   -8.2743   20.4235 C   0  0  0  0  0  0  0  0  0  0  0  0
  -26.6658  -26.8516   21.4613 C   0  0  0  0  0  0  0  0  0  0  0  0
  -29.4059  -23.1497   21.2763 C   0  0  0  0  0  0  0  0  0  0  0  0
  -22.3185   -9.5660   22.4639 C   0  0  0  0  0  0  0  0  0  0  0  0
  -25.7732  -14.3717   20.2869 C   0  0  0  0  0  0  0  0  0  0  0  0
  -25.3112  -16.7843   20.9749 C   0  0  0  0  0  0  0  0  0  0  0  0
  -18.8025  -31.4150   22.1331 C   0  0  0  0  0  0  0  0  0  0  0  0
  -24.3570  -26.8245   20.7345 C   0  0  0  0  0  0  0  0  0  0  0  0
  -20.1019  -31.0770   21.7092 C   0  0  0  0  0  0  0  0  0  0  0  0
  -25.3010  -26.7395   21.7677 C   0  0  0  0  0  0  0  0  0  0  0  0
  -29.7175  -24.3889   21.8076 C   0  0  0  0  0  0  0  0  0  0  0  0
  -25.5776  -11.6034   20.5718 C   0  0  0  0  0  0  0  0  0  0  0  0
  -27.0864  -27.0330   20.1440 C   0  0  0  0  0  0  0  0  0  0  0  0
  -24.2372   -9.7223   21.0041 C   0  0  0  0  0  0  0  0  0  0  0  0
  -21.7282   -8.6528   21.5903 C   0  0  0  0  0  0  0  0  0  0  0  0
  -23.5730  -10.1008   22.1708 C   0  0  0  0  0  0  0  0  0  0  0  0
  -25.8751  -15.8014   20.1396 C   0  0  0  0  0  0  0  0  0  0  0  0
  -29.6801  -22.9318   19.9411 C   0  0  0  0  0  0  0  0  0  0  0  0
  -30.2830  -25.3279   20.9685 C   0  0  0  0  0  0  0  0  0  0  0  0
  -25.6953  -17.9761   20.4104 C   0  0  0  0  0  0  0  0  0  0  0  0
  -24.5118  -16.6336   22.1555 C   0  0  0  0  0  0  0  0  0  0  0  0
  -22.5513  -28.5084   22.7365 C   0  0  0  0  0  0  0  0  0  0  0  0
  -22.9136  -25.9046   24.6368 C   0  0  0  0  0  0  0  0  0  0  0  0
  -24.7572  -23.1537   25.4615 C   0  0  0  0  0  0  0  0  0  0  0  0
  -29.5561  -21.2406   18.0780 C   0  0  0  0  0  0  0  0  0  0  0  0
  -18.4019  -31.3576   23.5860 C   0  0  0  0  0  0  0  0  0  0  0  0
  -22.8890  -26.6833   21.0303 C   0  0  0  0  0  0  0  0  0  0  0  0
  -24.8901  -26.5389   23.2028 C   0  0  0  0  0  0  0  0  0  0  0  0
  -19.3408  -30.5132   24.4437 C   0  0  0  0  0  0  0  0  0  0  0  0
  -27.8551  -18.9584   15.9391 C   0  0  0  0  0  0  0  0  0  0  0  0
  -20.7955  -30.8588   24.1417 C   0  0  0  0  0  0  0  0  0  0  0  0
  -27.1419  -18.0144   16.9100 C   0  0  0  0  0  0  0  0  0  0  0  0
  -29.2264  -19.3809   16.4632 C   0  0  0  0  0  0  0  0  0  0  0  0
  -28.5131  -19.0000   18.7903 C   0  0  0  0  0  0  0  0  0  0  0  0
  -21.1416  -30.5579   22.6784 C   0  0  1  0  0  0  0  0  0  0  0  0
  -22.5343  -27.0292   22.4732 C   0  0  1  0  0  0  0  0  0  0  0  0
  -27.1003  -18.5986   18.3357 C   0  0  2  0  0  0  0  0  0  0  0  0
  -25.3510  -21.0128   26.6283 C   0  0  0  0  0  0  0  0  0  0  0  0
  -32.9324  -28.3318   21.5235 C   0  0  0  0  0  0  0  0  0  0  0  0
  -30.9655  -29.3888   22.6647 C   0  0  0  0  0  0  0  0  0  0  0  0
  -28.9594  -29.4189   19.5504 C   0  0  0  0  0  0  0  0  0  0  0  0
  -23.8954  -27.7924   26.8235 C   0  0  0  0  0  0  0  0  0  0  0  0
  -24.8205  -25.8027   28.0291 C   0  0  0  0  0  0  0  0  0  0  0  0
  -22.3663  -25.9803   27.6189 C   0  0  0  0  0  0  0  0  0  0  0  0
  -23.3341  -21.5232   23.4428 C   0  0  0  0  0  0  0  0  0  0  0  0
  -23.9131  -25.4758   25.6837 C   0  0  1  0  0  0  0  0  0  0  0  0
  -24.3568  -21.7113   25.7138 C   0  0  2  0  0  0  0  0  0  0  0  0
  -31.5029  -28.8554   21.3330 C   0  0  0  0  0  0  0  0  0  0  0  0
  -30.5913  -27.7869   20.6784 C   0  0  2  0  0  0  0  0  0  0  0  0
  -29.1235  -28.2160   20.4704 C   0  0  2  0  0  0  0  0  0  1  0  0
  -23.7568  -26.2685   27.0121 C   0  0  0  0  0  0  0  0  0  0  0  0
  -26.5648  -16.3234   19.1218 N   0  0  0  0  0  0  0  0  0  0  0  0
  -30.2340  -23.8693   19.1433 N   0  0  0  0  0  0  0  0  0  0  0  0
  -30.5406  -25.0870   19.6656 N   0  0  0  0  0  0  0  0  0  0  0  0
  -26.4367  -17.6473   19.3138 N   0  0  0  0  0  0  0  0  0  0  0  0
  -23.4429  -26.4126   23.4420 N   0  0  0  0  0  0  0  0  0  0  0  0
  -29.1083  -19.9284   17.8164 N   0  0  0  0  0  0  0  0  0  0  0  0
  -29.4554  -24.6561   23.1643 N   0  0  0  0  0  0  0  0  0  0  0  0
  -25.4677  -19.2627   20.7499 N   0  0  0  0  0  0  0  0  0  0  0  0
  -24.2105  -15.3381   22.5975 N   0  0  0  0  0  0  0  0  0  0  0  0
  -29.3627  -21.6645   19.3923 N   0  0  0  0  0  0  0  0  0  0  0  0
  -30.6022  -26.5703   21.4763 N   0  0  0  0  0  0  0  0  0  0  0  0
  -21.3462  -29.1377   22.4893 N   0  0  0  0  0  0  0  0  0  0  0  0
  -23.7596  -24.0322   25.8277 N   0  0  0  0  0  0  0  0  0  0  0  0
  -24.2917  -20.9594   24.4287 N   0  3  0  0  0  0  0  0  0  0  0  0
  -24.0637  -17.6185   22.7901 O   0  0  0  0  0  0  0  0  0  0  0  0
  -23.5811  -29.0392   23.1357 O   0  0  0  0  0  0  0  0  0  0  0  0
  -21.7076  -25.7862   24.8677 O   0  0  0  0  0  0  0  0  0  0  0  0
  -25.8476  -23.4696   24.9904 O   0  0  0  0  0  0  0  0  0  0  0  0
  -30.0482  -21.9467   17.1941 O   0  0  0  0  0  0  0  0  0  0  0  0
  -25.4824  -10.2529   20.7113 O   0  0  0  0  0  0  0  0  0  0  0  0
  -28.4133  -27.1385   19.8613 O   0  0  0  0  0  0  0  0  0  1  0  0
  -20.5229   -8.1404   21.8708 F   0  0  0  0  0  0  0  0  0  0  0  0
  -24.1346  -10.9786   23.0133 F   0  0  0  0  0  0  0  0  0  0  0  0
  1  2  1  0  0  0  0
  1  5  2  0  0  0  0
  2  6  2  0  0  0  0
  3  8  2  0  0  0  0
  3 16  1  0  0  0  0
  4  9  1  0  0  0  0
  4 16  2  0  0  0  0
  5 18  1  0  0  0  0
  6 20  1  0  0  0  0
  7 10  2  0  0  0  0
  7 19  1  0  0  0  0
  8 23  1  0  0  0  0
  9 23  2  0  0  0  0
 10 24  1  0  0  0  0
 11 12  2  0  0  0  0
 11 25  1  0  0  0  0
 12 26  1  0  0  0  0
 13 21  1  0  0  0  0
 13 24  2  0  0  0  0
 14 22  1  0  0  0  0
 14 29  2  0  0  0  0
 15 26  2  0  0  0  0
 15 27  1  0  0  0  0
 16 28  1  0  0  0  0
 17 28  1  0  0  0  0
 17 31  2  0  0  0  0
 17 32  1  0  0  0  0
 18 20  2  0  0  0  0
 18 37  1  0  0  0  0
 19 21  2  0  0  0  0
 19 38  1  0  0  0  0
 20 46  1  0  0  0  0
 21 39  1  0  0  0  0
 22 30  2  0  0  0  0
 22 69  1  0  0  0  0
 23 82  1  0  0  0  0
 24 83  1  0  0  0  0
 25 27  2  0  0  0  0
 25 82  1  0  0  0  0
 26 84  1  0  0  0  0
 27 85  1  0  0  0  0
 28 63  2  0  0  0  0
 29 64  1  0  0  0  0
 29 72  1  0  0  0  0
 30 65  1  0  0  0  0
 30 73  1  0  0  0  0
 31 66  1  0  0  0  0
 31 70  1  0  0  0  0
 32 71  1  0  0  0  0
 32 77  2  0  0  0  0
 33 47  1  0  0  0  0
 33 74  1  0  0  0  0
 33 78  2  0  0  0  0
 34 57  1  0  0  0  0
 34 67  1  0  0  0  0
 34 79  2  0  0  0  0
 35 58  1  0  0  0  0
 35 75  1  0  0  0  0
 35 80  2  0  0  0  0
 36 68  1  0  0  0  0
 36 72  1  0  0  0  0
 36 81  2  0  0  0  0
 37 40  1  0  0  0  0
 38 47  1  0  0  0  0
 39 67  1  0  0  0  0
 40 42  1  0  0  0  0
 41 43  1  0  0  0  0
 41 44  1  0  0  0  0
 42 46  1  0  0  0  0
 43 48  1  0  0  0  0
 44 68  1  0  0  0  0
 45 48  1  0  0  0  0
 45 68  1  0  0  0  0
 46 74  1  0  0  0  0
 47 67  1  0  0  0  0
 48 66  1  0  0  0  0
 49 58  1  0  0  0  0
 50 59  1  0  0  0  0
 51 59  1  0  0  0  0
 52 61  1  0  0  0  0
 53 62  1  0  0  0  0
 54 62  1  0  0  0  0
 55 62  1  0  0  0  0
 56 76  1  0  0  0  0
 57 62  1  0  0  0  0
 57 75  1  0  0  0  0
 58 76  1  0  0  0  0
 59 60  1  0  0  0  0
 60 61  1  0  0  0  0
 60 73  1  0  0  0  0
 61 83  1  0  0  0  0
 63 66  1  0  0  0  0
 64 65  2  0  0  0  0
M  CHG  1  76   1
M  ISO  4  36 100  61 101  72 100  83 101
M  END
> <Batch ID>
0192

> <Smiles>
CNC(C)C(=O)NC(C(=O)N1Cc2cc([101O:1][101CH:1](C)C(Nc3nnc([100NH:0][100C:0](=O)N4CCCC(n5nc(-c6ccc(Oc7ccc(F)cc7F)cc6)c(C(N)=O)c5N)C4)cc3N)C(C)C)ccc2CC1C(=O)NC1CCCc2ccccc21)C(C)(C)C

> <Shape>
0.197

> <Color>
0.103

> <Negative vol penalty>
0.000

$$$$

  -OEChem-04052305273D

 88 96  0     1  0  0  0  0  0999 V2000
  -24.2969  -23.6889   19.1315 C   0  0  0  0  0  0  0  0  0  0  0  0
  -25.1158  -22.5764   18.9742 C   0  0  0  0  0  0  0  0  0  0  0  0
  -20.4438  -27.8437   23.5858 C   0  0  0  0  0  0  0  0  0  0  0  0
  -20.3586  -26.0886   21.9276 C   0  0  0  0  0  0  0  0  0  0  0  0
  -23.1841  -23.6180   19.9669 C   0  0  0  0  0  0  0  0  0  0  0  0
  -24.8155  -21.3892   19.6429 C   0  0  0  0  0  0  0  0  0  0  0  0
  -27.5400  -17.4468   18.5301 C   0  0  0  0  0  0  0  0  0  0  0  0
  -19.0510  -27.8417   23.6595 C   0  0  0  0  0  0  0  0  0  0  0  0
  -18.9657  -26.0867   22.0013 C   0  0  0  0  0  0  0  0  0  0  0  0
  -28.8689  -17.3118   18.9296 C   0  0  0  0  0  0  0  0  0  0  0  0
  -16.4602  -29.0541   21.8589 C   0  0  0  0  0  0  0  0  0  0  0  0
  -15.8101  -30.2882   21.8579 C   0  0  0  0  0  0  0  0  0  0  0  0
  -28.1869  -15.7717   20.6565 C   0  0  0  0  0  0  0  0  0  0  0  0
  -14.8520  -29.7851   24.0181 C   0  0  0  0  0  0  0  0  0  0  0  0
  -30.7154  -24.3306   20.7052 C   0  0  0  0  0  0  0  0  0  0  0  0
  -21.0977  -26.9672   22.7198 C   0  0  0  0  0  0  0  0  0  0  0  0
  -23.4300  -26.1992   23.4114 C   0  0  0  0  0  0  0  0  0  0  0  0
  -22.8778  -22.4327   20.6555 C   0  0  0  0  0  0  0  0  0  0  0  0
  -26.5216  -16.7525   19.1989 C   0  0  0  0  0  0  0  0  0  0  0  0
  -23.6834  -21.2904   20.4718 C   0  0  0  0  0  0  0  0  0  0  0  0
  -26.8462  -15.8976   20.2619 C   0  0  0  0  0  0  0  0  0  0  0  0
  -18.3119  -26.9632   22.8673 C   0  0  0  0  0  0  0  0  0  0  0  0
  -29.1922  -16.4764   19.9948 C   0  0  0  0  0  0  0  0  0  0  0  0
  -16.3061  -28.1854   22.9393 C   0  0  0  0  0  0  0  0  0  0  0  0
  -15.0061  -30.6537   22.9376 C   0  0  0  0  0  0  0  0  0  0  0  0
  -15.5020  -28.5510   24.0189 C   0  0  0  0  0  0  0  0  0  0  0  0
  -22.5365  -26.9691   22.6428 C   0  0  0  0  0  0  0  0  0  0  0  0
  -29.9379  -24.4917   19.5796 C   0  0  0  0  0  0  0  0  0  0  0  0
  -30.2105  -22.1005   20.7349 C   0  0  0  0  0  0  0  0  0  0  0  0
  -29.4324  -22.2616   19.6097 C   0  0  0  0  0  0  0  0  0  0  0  0
  -24.6745  -26.5646   22.9596 C   0  0  0  0  0  0  0  0  0  0  0  0
  -23.1592  -25.2396   24.4417 C   0  0  0  0  0  0  0  0  0  0  0  0
  -23.9541  -17.5985   20.8710 C   0  0  0  0  0  0  0  0  0  0  0  0
  -23.3748  -14.4069   20.8583 C   0  0  0  0  0  0  0  0  0  0  0  0
  -31.0763  -20.4799   22.4530 C   0  0  0  0  0  0  0  0  0  0  0  0
  -24.6143  -11.2384   20.5908 C   0  0  0  0  0  0  0  0  0  0  0  0
  -28.1903  -27.7170   18.7815 C   0  0  0  0  0  0  0  0  0  0  0  0
  -21.6568  -22.4090   21.5408 C   0  0  0  0  0  0  0  0  0  0  0  0
  -25.0961  -16.8882   18.7385 C   0  0  0  0  0  0  0  0  0  0  0  0
  -25.7924  -15.1145   20.9999 C   0  0  0  0  0  0  0  0  0  0  0  0
  -21.6720  -21.2600   22.5438 C   0  0  0  0  0  0  0  0  0  0  0  0
  -26.0939  -30.3566   19.9277 C   0  0  0  0  0  0  0  0  0  0  0  0
  -21.9913  -19.9535   21.8327 C   0  0  0  0  0  0  0  0  0  0  0  0
  -25.0522  -29.6465   20.7941 C   0  0  0  0  0  0  0  0  0  0  0  0
  -26.4881  -29.5155   18.7157 C   0  0  0  0  0  0  0  0  0  0  0  0
  -25.8943  -27.4360   19.8977 C   0  0  0  0  0  0  0  0  0  0  0  0
  -23.3937  -19.9977   21.2129 C   0  0  1  0  0  0  0  0  0  0  0  0
  -24.0821  -16.5313   19.8210 C   0  0  1  0  0  0  0  0  0  0  0  0
  -25.5067  -28.2213   21.1624 C   0  0  2  0  0  0  0  0  0  0  0  0
  -23.9033   -8.8328   20.6595 C   0  0  0  0  0  0  0  0  0  0  0  0
  -23.1525  -14.5619   23.8975 C   0  0  0  0  0  0  0  0  0  0  0  0
  -23.3962  -12.0712   23.9726 C   0  0  0  0  0  0  0  0  0  0  0  0
  -21.4481  -13.0972   22.8001 C   0  0  0  0  0  0  0  0  0  0  0  0
  -33.2125  -16.0863   21.3974 C   0  0  0  0  0  0  0  0  0  0  0  0
  -32.2905  -16.3033   23.7085 C   0  0  0  0  0  0  0  0  0  0  0  0
  -25.5202  -10.7708   17.8125 C   0  0  0  0  0  0  0  0  0  0  0  0
  -29.7952  -25.8311   18.9451 C   0  0  0  0  0  0  0  0  0  0  0  0
  -30.9784  -18.9957   22.7632 C   0  0  0  0  0  0  0  0  0  0  0  0
  -32.0901  -18.2238   22.0478 C   0  0  0  0  0  0  0  0  0  0  0  0
  -30.7240  -16.0650   21.7669 C   0  0  0  0  0  0  0  0  0  1  0  0
  -23.7448  -13.2496   21.7543 C   0  0  1  0  0  0  0  0  0  0  0  0
  -24.1564  -10.0433   19.7745 C   0  0  2  0  0  0  0  0  0  0  0  0
  -22.9553  -13.2611   23.0937 C   0  0  0  0  0  0  0  0  0  0  0  0
  -32.0598  -16.6815   22.2346 C   0  0  0  0  0  0  0  0  0  0  0  0
  -30.8657  -23.1321   21.3031 N   0  0  0  0  0  0  0  0  0  0  0  0
  -23.1604  -27.7637   21.7691 N   0  0  0  0  0  0  0  0  0  0  0  0
  -29.2824  -23.4601   19.0116 N   0  0  0  0  0  0  0  0  0  0  0  0
  -24.4592  -27.4951   21.9859 N   0  0  0  0  0  0  0  0  0  0  0  0
  -24.4124  -15.2857   20.5163 N   0  0  0  0  0  0  0  0  0  0  0  0
  -26.9106  -28.1765   19.1337 N   0  0  0  0  0  0  0  0  0  0  0  0
  -28.7660  -21.1454   19.0544 N   0  0  0  0  0  0  0  0  0  0  0  0
  -25.9210  -26.1775   23.3041 N   0  0  0  0  0  0  0  0  0  0  0  0
  -21.8239  -24.9837   24.7822 N   0  0  0  0  0  0  0  0  0  0  0  0
  -30.3391  -20.8213   21.3259 N   0  0  0  0  0  0  0  0  0  0  0  0
  -23.5769  -18.8323   20.3761 N   0  0  0  0  0  0  0  0  0  0  0  0
  -23.5554  -12.0411   20.9593 N   0  0  0  0  0  0  0  0  0  0  0  0
  -28.5133  -26.4396   19.2228 N   0  0  0  0  0  0  0  0  0  0  0  0
  -25.1901   -9.6792   18.7645 N   0  3  0  0  0  0  0  0  0  0  0  0
  -24.0748  -24.6392   25.0539 O   0  0  0  0  0  0  0  0  0  0  0  0
  -24.1795  -17.3226   22.0435 O   0  0  0  0  0  0  0  0  0  0  0  0
  -22.2097  -14.5227   20.4701 O   0  0  0  0  0  0  0  0  0  0  0  0
  -31.7597  -21.2182   23.1567 O   0  0  0  0  0  0  0  0  0  0  0  0
  -25.7929  -11.4379   20.8765 O   0  0  0  0  0  0  0  0  0  0  0  0
  -28.9880  -28.3968   18.1270 O   0  0  0  0  0  0  0  0  0  0  0  0
  -16.9527  -26.9609   22.9391 O   0  0  0  0  0  0  0  0  0  0  0  0
  -30.4884  -16.3434   20.3873 O   0  0  0  0  0  0  0  0  0  1  0  0
  -14.3832  -31.8396   22.9373 F   0  0  0  0  0  0  0  0  0  0  0  0
  -15.3511  -27.7212   25.0603 F   0  0  0  0  0  0  0  0  0  0  0  0
  1  2  1  0  0  0  0
  1  5  2  0  0  0  0
  2  6  2  0  0  0  0
  3  8  2  0  0  0  0
  3 16  1  0  0  0  0
  4  9  1  0  0  0  0
  4 16  2  0  0  0  0
  5 18  1  0  0  0  0
  6 20  1  0  0  0  0
  7 10  2  0  0  0  0
  7 19  1  0  0  0  0
  8 22  1  0  0  0  0
  9 22  2  0  0  0  0
 10 23  1  0  0  0  0
 11 12  2  0  0  0  0
 11 24  1  0  0  0  0
 12 25  1  0  0  0  0
 13 21  1  0  0  0  0
 13 23  2  0  0  0  0
 14 25  2  0  0  0  0
 14 26  1  0  0  0  0
 15 28  1  0  0  0  0
 15 65  2  0  0  0  0
 16 27  1  0  0  0  0
 17 27  1  0  0  0  0
 17 31  2  0  0  0  0
 17 32  1  0  0  0  0
 18 20  2  0  0  0  0
 18 38  1  0  0  0  0
 19 21  2  0  0  0  0
 19 39  1  0  0  0  0
 20 47  1  0  0  0  0
 21 40  1  0  0  0  0
 22 85  1  0  0  0  0
 23 86  1  0  0  0  0
 24 26  2  0  0  0  0
 24 85  1  0  0  0  0
 25 87  1  0  0  0  0
 26 88  1  0  0  0  0
 27 66  2  0  0  0  0
 28 57  1  0  0  0  0
 28 67  2  0  0  0  0
 29 30  2  0  0  0  0
 29 65  1  0  0  0  0
 29 74  1  0  0  0  0
 30 67  1  0  0  0  0
 30 71  1  0  0  0  0
 31 68  1  0  0  0  0
 31 72  1  0  0  0  0
 32 73  1  0  0  0  0
 32 79  2  0  0  0  0
 33 48  1  0  0  0  0
 33 75  1  0  0  0  0
 33 80  2  0  0  0  0
 34 61  1  0  0  0  0
 34 69  1  0  0  0  0
 34 81  2  0  0  0  0
 35 58  1  0  0  0  0
 35 74  1  0  0  0  0
 35 82  2  0  0  0  0
 36 62  1  0  0  0  0
 36 76  1  0  0  0  0
 36 83  2  0  0  0  0
 37 70  1  0  0  0  0
 37 77  1  0  0  0  0
 37 84  2  0  0  0  0
 38 41  1  0  0  0  0
 39 48  1  0  0  0  0
 40 69  1  0  0  0  0
 41 43  1  0  0  0  0
 42 44  1  0  0  0  0
 42 45  1  0  0  0  0
 43 47  1  0  0  0  0
 44 49  1  0  0  0  0
 45 70  1  0  0  0  0
 46 49  1  0  0  0  0
 46 70  1  0  0  0  0
 47 75  1  0  0  0  0
 48 69  1  0  0  0  0
 49 68  1  0  0  0  0
 50 62  1  0  0  0  0
 51 63  1  0  0  0  0
 52 63  1  0  0  0  0
 53 63  1  0  0  0  0
 54 64  1  0  0  0  0
 55 64  1  0  0  0  0
 56 78  1  0  0  0  0
 57 77  1  0  0  0  0
 58 59  1  0  0  0  0
 59 64  1  0  0  0  0
 60 64  1  0  0  0  0
 60 86  1  0  0  0  0
 61 63  1  0  0  0  0
 61 76  1  0  0  0  0
 62 78  1  0  0  0  0
 66 68  1  0  0  0  0
M  CHG  1  78   1
M  ISO  4  37 100  60 101  77 100  86 101
M  END
> <Batch ID>
0192

> <Smiles>
CNC(C)C(=O)NC(C(=O)N1Cc2cc([101O:1][101CH2:1]C(C)(C)CCC(=O)Nc3ncc(C[100NH:0][100C:0](=O)N4CCCC(n5nc(-c6ccc(Oc7ccc(F)cc7F)cc6)c(C(N)=O)c5N)C4)nc3N)ccc2CC1C(=O)NC1CCCc2ccccc21)C(C)(C)C

> <Shape>
0.227

> <Color>
0.072

> <Negative vol penalty>
0.000

$$$$

  -OEChem-04052305273D

 84 92  0     1  0  0  0  0  0999 V2000
  -26.3112  -35.3076   23.5007 C   0  0  0  0  0  0  0  0  0  0  0  0
  -26.8181  -34.0445   23.2126 C   0  0  0  0  0  0  0  0  0  0  0  0
  -26.1300  -13.8071   20.7646 C   0  0  0  0  0  0  0  0  0  0  0  0
  -23.8818  -13.5418   21.6086 C   0  0  0  0  0  0  0  0  0  0  0  0
  -25.0176  -35.4403   24.0036 C   0  0  0  0  0  0  0  0  0  0  0  0
  -26.0320  -32.9132   23.4282 C   0  0  0  0  0  0  0  0  0  0  0  0
  -26.2426  -29.6374   19.5721 C   0  0  0  0  0  0  0  0  0  0  0  0
  -26.0262  -12.5834   20.1032 C   0  0  0  0  0  0  0  0  0  0  0  0
  -23.7779  -12.3181   20.9471 C   0  0  0  0  0  0  0  0  0  0  0  0
  -27.3734  -28.8264   19.4865 C   0  0  0  0  0  0  0  0  0  0  0  0
  -24.8121   -9.1343   21.4210 C   0  0  0  0  0  0  0  0  0  0  0  0
  -24.2658   -8.0613   22.1251 C   0  0  0  0  0  0  0  0  0  0  0  0
  -26.1374  -27.0084   20.4796 C   0  0  0  0  0  0  0  0  0  0  0  0
  -22.5040   -7.8798   20.4818 C   0  0  0  0  0  0  0  0  0  0  0  0
  -25.0579  -14.2862   21.5174 C   0  0  0  0  0  0  0  0  0  0  0  0
  -26.0982  -15.9028   23.1944 C   0  0  0  0  0  0  0  0  0  0  0  0
  -24.2118  -34.3107   24.2165 C   0  0  0  0  0  0  0  0  0  0  0  0
  -25.0518  -29.1424   20.1230 C   0  0  0  0  0  0  0  0  0  0  0  0
  -24.7269  -33.0307   23.9357 C   0  0  0  0  0  0  0  0  0  0  0  0
  -24.9921  -27.8143   20.5687 C   0  0  0  0  0  0  0  0  0  0  0  0
  -24.8501  -11.8390   20.1944 C   0  0  0  0  0  0  0  0  0  0  0  0
  -27.3218  -27.5126   19.9430 C   0  0  0  0  0  0  0  0  0  0  0  0
  -24.2043   -9.5801   20.2473 C   0  0  0  0  0  0  0  0  0  0  0  0
  -23.1118   -7.4340   21.6555 C   0  0  0  0  0  0  0  0  0  0  0  0
  -23.0503   -8.9529   19.7777 C   0  0  0  0  0  0  0  0  0  0  0  0
  -25.1648  -15.5499   22.2014 C   0  0  0  0  0  0  0  0  0  0  0  0
  -26.2423  -23.4416   17.2471 C   0  0  0  0  0  0  0  0  0  0  0  0
  -25.2218  -24.2360   17.7265 C   0  0  0  0  0  0  0  0  0  0  0  0
  -25.7818  -17.1996   23.5178 C   0  0  0  0  0  0  0  0  0  0  0  0
  -24.7690  -22.4057   18.8467 C   0  0  0  0  0  0  0  0  0  0  0  0
  -27.1568  -15.1277   23.7726 C   0  0  0  0  0  0  0  0  0  0  0  0
  -23.2576  -29.8998   22.6351 C   0  0  0  0  0  0  0  0  0  0  0  0
  -21.2593  -27.6689   21.3893 C   0  0  0  0  0  0  0  0  0  0  0  0
  -20.9224  -25.4505   19.1813 C   0  0  0  0  0  0  0  0  0  0  0  0
  -23.0720  -21.6073   20.5287 C   0  0  0  0  0  0  0  0  0  0  0  0
  -22.8367  -34.5006   24.8062 C   0  0  0  0  0  0  0  0  0  0  0  0
  -23.8329  -30.0217   20.1836 C   0  0  0  0  0  0  0  0  0  0  0  0
  -23.7320  -27.2287   21.1497 C   0  0  0  0  0  0  0  0  0  0  0  0
  -21.9343  -33.2789   24.6532 C   0  0  0  0  0  0  0  0  0  0  0  0
  -22.0733  -20.2266   23.6549 C   0  0  0  0  0  0  0  0  0  0  0  0
  -22.6839  -32.0092   25.0442 C   0  0  0  0  0  0  0  0  0  0  0  0
  -22.8424  -18.9056   23.7301 C   0  0  0  0  0  0  0  0  0  0  0  0
  -21.6136  -20.5349   22.2311 C   0  0  0  0  0  0  0  0  0  0  0  0
  -23.4424  -19.1786   21.2903 C   0  0  0  0  0  0  0  0  0  0  0  0
  -23.8960  -31.7814   24.1328 C   0  0  1  0  0  0  0  0  0  0  0  0
  -22.8231  -29.5716   21.2347 C   0  0  1  0  0  0  0  0  0  0  0  0
  -23.9821  -18.8572   22.6936 C   0  0  2  0  0  0  0  0  0  0  0  0
  -26.7452  -24.0631   14.8694 C   0  0  0  0  0  0  0  0  0  0  0  0
  -20.2674  -23.6295   17.5836 C   0  0  0  0  0  0  0  0  0  0  0  0
  -21.2820  -26.3055   24.1189 C   0  0  0  0  0  0  0  0  0  0  0  0
  -20.3416  -24.2584   23.0266 C   0  0  0  0  0  0  0  0  0  0  0  0
  -19.0408  -26.3869   23.0120 C   0  0  0  0  0  0  0  0  0  0  0  0
  -19.4976  -27.3519   17.4168 C   0  0  0  0  0  0  0  0  0  0  0  0
  -28.2689  -24.9011   16.7020 C   0  0  0  0  0  0  0  0  0  0  0  0
  -29.0434  -24.5688   17.9829 C   0  0  0  0  0  0  0  0  0  0  0  0
  -29.3314  -26.9759   18.7900 C   0  0  0  0  0  0  0  0  0  1  0  0
  -27.3429  -23.7516   16.2470 C   0  0  1  0  0  0  0  0  0  0  0  0
  -21.0909  -26.1770   21.5473 C   0  0  1  0  0  0  0  0  0  0  0  0
  -19.9115  -24.9982   18.1431 C   0  0  2  0  0  0  0  0  0  0  0  0
  -30.0205  -25.6696   18.4072 C   0  0  1  0  0  0  0  0  0  0  0  0
  -20.4633  -25.7933   22.9171 C   0  0  0  0  0  0  0  0  0  0  0  0
  -24.3186  -16.5423   21.9131 N   0  0  0  0  0  0  0  0  0  0  0  0
  -24.3757  -23.6435   18.6435 N   0  0  0  0  0  0  0  0  0  0  0  0
  -24.7192  -17.5316   22.7298 N   0  0  0  0  0  0  0  0  0  0  0  0
  -22.5688  -28.1301   21.1934 N   0  0  0  0  0  0  0  0  0  0  0  0
  -22.7469  -20.4751   21.3054 N   0  0  0  0  0  0  0  0  0  0  0  0
  -25.0266  -25.5207   17.3449 N   0  0  0  0  0  0  0  0  0  0  0  0
  -26.3115  -18.0768   24.3965 N   0  0  0  0  0  0  0  0  0  0  0  0
  -26.8778  -14.3609   24.9121 N   0  0  0  0  0  0  0  0  0  0  0  0
  -24.1884  -21.4432   19.7094 N   0  0  0  0  0  0  0  0  0  0  0  0
  -23.4746  -31.2466   22.8557 N   0  0  0  0  0  0  0  0  0  0  0  0
  -20.3224  -25.7283   20.3913 N   0  0  0  0  0  0  0  0  0  0  0  0
  -19.8597  -25.9687   17.0133 N   0  3  0  0  0  0  0  0  0  0  0  0
  -28.3198  -15.1282   23.3026 O   0  0  0  0  0  0  0  0  0  0  0  0
  -23.3850  -28.9982   23.4552 O   0  0  0  0  0  0  0  0  0  0  0  0
  -20.2648  -28.3975   21.4308 O   0  0  0  0  0  0  0  0  0  0  0  0
  -22.1247  -25.5441   18.9438 O   0  0  0  0  0  0  0  0  0  0  0  0
  -22.4252  -22.6550   20.6063 O   0  0  0  0  0  0  0  0  0  0  0  0
  -30.7323  -25.1837   19.5492 O   0  0  0  0  0  0  0  0  0  0  0  0
  -24.7483  -10.6450   19.5489 O   0  0  0  0  0  0  0  0  0  0  0  0
  -28.4243  -26.7191   19.8613 O   0  0  0  0  0  0  0  0  0  1  0  0
  -22.5882   -6.4026   22.3310 F   0  0  0  0  0  0  0  0  0  0  0  0
  -22.4626   -9.3760   18.6501 F   0  0  0  0  0  0  0  0  0  0  0  0
  -26.1496  -21.8884   17.9684 S   0  0  0  0  0  0  0  0  0  0  0  0
  1  2  1  0  0  0  0
  1  5  2  0  0  0  0
  2  6  2  0  0  0  0
  3  8  2  0  0  0  0
  3 15  1  0  0  0  0
  4  9  1  0  0  0  0
  4 15  2  0  0  0  0
  5 17  1  0  0  0  0
  6 19  1  0  0  0  0
  7 10  2  0  0  0  0
  7 18  1  0  0  0  0
  8 21  1  0  0  0  0
  9 21  2  0  0  0  0
 10 22  1  0  0  0  0
 11 12  2  0  0  0  0
 11 23  1  0  0  0  0
 12 24  1  0  0  0  0
 13 20  1  0  0  0  0
 13 22  2  0  0  0  0
 14 24  2  0  0  0  0
 14 25  1  0  0  0  0
 15 26  1  0  0  0  0
 16 26  1  0  0  0  0
 16 29  2  0  0  0  0
 16 31  1  0  0  0  0
 17 19  2  0  0  0  0
 17 36  1  0  0  0  0
 18 20  2  0  0  0  0
 18 37  1  0  0  0  0
 19 45  1  0  0  0  0
 20 38  1  0  0  0  0
 21 80  1  0  0  0  0
 22 81  1  0  0  0  0
 23 25  2  0  0  0  0
 23 80  1  0  0  0  0
 24 82  1  0  0  0  0
 25 83  1  0  0  0  0
 26 62  2  0  0  0  0
 27 28  2  0  0  0  0
 27 57  1  0  0  0  0
 27 84  1  0  0  0  0
 28 63  1  0  0  0  0
 28 67  1  0  0  0  0
 29 64  1  0  0  0  0
 29 68  1  0  0  0  0
 30 63  2  0  0  0  0
 30 70  1  0  0  0  0
 30 84  1  0  0  0  0
 31 69  1  0  0  0  0
 31 74  2  0  0  0  0
 32 46  1  0  0  0  0
 32 71  1  0  0  0  0
 32 75  2  0  0  0  0
 33 58  1  0  0  0  0
 33 65  1  0  0  0  0
 33 76  2  0  0  0  0
 34 59  1  0  0  0  0
 34 72  1  0  0  0  0
 34 77  2  0  0  0  0
 35 66  1  0  0  0  0
 35 70  1  0  0  0  0
 35 78  2  0  0  0  0
 36 39  1  0  0  0  0
 37 46  1  0  0  0  0
 38 65  1  0  0  0  0
 39 41  1  0  0  0  0
 40 42  1  0  0  0  0
 40 43  1  0  0  0  0
 41 45  1  0  0  0  0
 42 47  1  0  0  0  0
 43 66  1  0  0  0  0
 44 47  1  0  0  0  0
 44 66  1  0  0  0  0
 45 71  1  0  0  0  0
 46 65  1  0  0  0  0
 47 64  1  0  0  0  0
 48 57  1  0  0  0  0
 49 59  1  0  0  0  0
 50 61  1  0  0  0  0
 51 61  1  0  0  0  0
 52 61  1  0  0  0  0
 53 73  1  0  0  0  0
 54 55  1  0  0  0  0
 54 57  1  0  0  0  0
 55 60  1  0  0  0  0
 56 60  1  0  0  0  0
 56 81  1  0  0  0  0
 58 61  1  0  0  0  0
 58 72  1  0  0  0  0
 59 73  1  0  0  0  0
 60 79  1  0  0  0  0
 62 64  1  0  0  0  0
M  CHG  1  73   1
M  ISO  4  35 100  56 101  70 100  81 101
M  END
> <Batch ID>
0192

> <Smiles>
CNC(C)C(=O)NC(C(=O)N1Cc2cc([101O:1][101CH2:1]C(O)CCC(C)c3sc([100NH:0][100C:0](=O)N4CCCC(n5nc(-c6ccc(Oc7ccc(F)cc7F)cc6)c(C(N)=O)c5N)C4)nc3N)ccc2CC1C(=O)NC1CCCc2ccccc21)C(C)(C)C

> <Shape>
0.226

> <Color>
0.093

> <Negative vol penalty>
0.000

$$$$

  -OEChem-04052305273D

 79 86  0     1  0  0  0  0  0999 V2000
  -23.1761  -14.6195   32.9528 C   0  0  0  0  0  0  0  0  0  0  0  0
  -23.6544  -14.5278   31.6497 C   0  0  0  0  0  0  0  0  0  0  0  0
  -23.1898   -9.8194   19.9305 C   0  0  0  0  0  0  0  0  0  0  0  0
  -23.5654  -10.0000   22.3103 C   0  0  0  0  0  0  0  0  0  0  0  0
  -23.7715  -13.8707   33.9671 C   0  0  0  0  0  0  0  0  0  0  0  0
  -24.7293  -13.6880   31.3602 C   0  0  0  0  0  0  0  0  0  0  0  0
  -27.3030   -9.5114   26.1402 C   0  0  0  0  0  0  0  0  0  0  0  0
  -22.4231   -8.6729   20.1385 C   0  0  0  0  0  0  0  0  0  0  0  0
  -22.7987   -8.8535   22.5183 C   0  0  0  0  0  0  0  0  0  0  0  0
  -28.4696   -9.2998   25.4067 C   0  0  0  0  0  0  0  0  0  0  0  0
  -21.2394   -5.7701   23.6458 C   0  0  0  0  0  0  0  0  0  0  0  0
  -21.7346   -4.8103   24.5285 C   0  0  0  0  0  0  0  0  0  0  0  0
  -29.3685   -7.9936   27.2246 C   0  0  0  0  0  0  0  0  0  0  0  0
  -23.6948   -4.5458   23.1411 C   0  0  0  0  0  0  0  0  0  0  0  0
  -23.7610  -10.4829   21.0164 C   0  0  0  0  0  0  0  0  0  0  0  0
  -24.1005  -12.9995   20.7727 C   0  0  0  0  0  0  0  0  0  0  0  0
  -24.8481  -13.0140   33.6881 C   0  0  0  0  0  0  0  0  0  0  0  0
  -27.1646   -8.9740   27.4280 C   0  0  0  0  0  0  0  0  0  0  0  0
  -25.3407  -12.9281   32.3719 C   0  0  0  0  0  0  0  0  0  0  0  0
  -28.1982   -8.1978   27.9714 C   0  0  0  0  0  0  0  0  0  0  0  0
  -22.2275   -8.1900   21.4324 C   0  0  0  0  0  0  0  0  0  0  0  0
  -29.5037   -8.5432   25.9500 C   0  0  0  0  0  0  0  0  0  0  0  0
  -21.9718   -6.1177   22.5107 C   0  0  0  0  0  0  0  0  0  0  0  0
  -22.9623   -4.1982   24.2762 C   0  0  0  0  0  0  0  0  0  0  0  0
  -23.1995   -5.5056   22.2584 C   0  0  0  0  0  0  0  0  0  0  0  0
  -24.5536  -11.6670   20.8021 C   0  0  0  0  0  0  0  0  0  0  0  0
  -25.2321  -13.7419   20.5386 C   0  0  0  0  0  0  0  0  0  0  0  0
  -22.7752  -13.5196   20.9419 C   0  0  0  0  0  0  0  0  0  0  0  0
  -26.7645  -10.1929   30.3362 C   0  0  0  0  0  0  0  0  0  0  0  0
  -26.4295   -7.0765   31.1719 C   0  0  0  0  0  0  0  0  0  0  0  0
  -27.0769   -3.8014   30.4639 C   0  0  0  0  0  0  0  0  0  0  0  0
  -31.0455  -12.7510   21.5745 C   0  0  0  0  0  0  0  0  0  0  0  0
  -25.4897  -12.2603   34.8260 C   0  0  0  0  0  0  0  0  0  0  0  0
  -25.8891   -9.1891   28.1957 C   0  0  0  0  0  0  0  0  0  0  0  0
  -28.0909   -7.5818   29.3417 C   0  0  0  0  0  0  0  0  0  0  0  0
  -26.3832  -11.1105   34.3679 C   0  0  0  0  0  0  0  0  0  0  0  0
  -29.5218  -13.4683   18.4375 C   0  0  0  0  0  0  0  0  0  0  0  0
  -27.3001  -11.5649   33.2367 C   0  0  0  0  0  0  0  0  0  0  0  0
  -28.0348  -13.2082   18.6852 C   0  0  0  0  0  0  0  0  0  0  0  0
  -30.4021  -12.4788   19.1979 C   0  0  0  0  0  0  0  0  0  0  0  0
  -28.6465  -12.1366   20.8934 C   0  0  0  0  0  0  0  0  0  0  0  0
  -26.4888  -12.0096   32.0138 C   0  0  1  0  0  0  0  0  0  0  0  0
  -26.0636   -9.0248   29.7023 C   0  0  1  0  0  0  0  0  0  0  0  0
  -27.7201  -13.1445   20.1919 C   0  0  2  0  0  0  0  0  0  0  0  0
  -34.2990  -13.0857   25.3245 C   0  0  0  0  0  0  0  0  0  0  0  0
  -26.7065   -1.4836   31.3517 C   0  0  0  0  0  0  0  0  0  0  0  0
  -28.5998   -7.5348   33.2671 C   0  0  0  0  0  0  0  0  0  0  0  0
  -28.8535   -5.0506   33.4467 C   0  0  0  0  0  0  0  0  0  0  0  0
  -26.6831   -6.1271   34.0412 C   0  0  0  0  0  0  0  0  0  0  0  0
  -32.8588   -8.8523   24.5083 C   0  0  0  0  0  0  0  0  0  0  0  0
  -32.1349   -9.2903   26.8671 C   0  0  0  0  0  0  0  0  0  0  0  0
  -25.5526   -2.9981   28.0576 C   0  0  0  0  0  0  0  0  0  0  0  0
  -33.2296  -12.0621   25.6850 C   0  0  0  0  0  0  0  0  0  0  0  0
  -31.1873  -10.6778   24.9307 C   0  0  0  0  0  0  0  0  0  0  0  0
  -31.5330  -13.0024   23.9949 C   0  0  0  0  0  0  0  0  0  0  0  0
  -27.3699   -5.9808   31.6124 C   0  0  1  0  0  0  0  0  0  0  0  0
  -26.1769   -2.5792   30.4395 C   0  0  2  0  0  0  0  0  0  0  0  0
  -32.2460  -11.7461   24.5387 C   0  0  1  0  0  0  0  0  0  0  0  0
  -27.8797   -6.1864   33.0668 C   0  0  0  0  0  0  0  0  0  0  0  0
  -31.6927   -9.2946   25.4028 C   0  0  0  0  0  0  0  0  0  1  0  0
  -25.8704  -11.5656   20.6025 N   0  0  0  0  0  0  0  0  0  0  0  0
  -26.2544  -12.8439   20.4453 N   0  0  0  0  0  0  0  0  0  0  0  0
  -26.8267   -7.8260   30.0555 N   0  0  0  0  0  0  0  0  0  0  0  0
  -30.0539  -12.4680   20.6208 N   0  0  0  0  0  0  0  0  0  0  0  0
  -25.4424  -15.0687   20.4054 N   0  0  0  0  0  0  0  0  0  0  0  0
  -21.7281  -12.6176   21.1749 N   0  0  0  0  0  0  0  0  0  0  0  0
  -26.0070  -10.8584   31.2811 N   0  0  0  0  0  0  0  0  0  0  0  0
  -26.6601   -4.7240   31.4001 N   0  0  0  0  0  0  0  0  0  0  0  0
  -30.6298  -12.7259   22.9001 N   0  0  0  0  0  0  0  0  0  0  0  0
  -26.0816   -2.0336   29.0560 N   0  3  0  0  0  0  0  0  0  0  0  0
  -22.5243  -14.7467   20.8718 O   0  0  0  0  0  0  0  0  0  0  0  0
  -27.9085  -10.4690   29.9946 O   0  0  0  0  0  0  0  0  0  0  0  0
  -25.3779   -7.2561   31.7911 O   0  0  0  0  0  0  0  0  0  0  0  0
  -28.0542   -3.9237   29.7288 O   0  0  0  0  0  0  0  0  0  0  0  0
  -32.2135  -13.0124   21.2671 O   0  0  0  0  0  0  0  0  0  0  0  0
  -21.4792   -7.0714   21.6358 O   0  0  0  0  0  0  0  0  0  0  0  0
  -30.6494   -8.3345   25.2328 O   0  0  0  0  0  0  0  0  0  1  0  0
  -23.4385   -3.2776   25.1247 F   0  0  0  0  0  0  0  0  0  0  0  0
  -23.9082   -5.8363   21.1702 F   0  0  0  0  0  0  0  0  0  0  0  0
  1  2  1  0  0  0  0
  1  5  2  0  0  0  0
  2  6  2  0  0  0  0
  3  8  2  0  0  0  0
  3 15  1  0  0  0  0
  4  9  1  0  0  0  0
  4 15  2  0  0  0  0
  5 17  1  0  0  0  0
  6 19  1  0  0  0  0
  7 10  2  0  0  0  0
  7 18  1  0  0  0  0
  8 21  1  0  0  0  0
  9 21  2  0  0  0  0
 10 22  1  0  0  0  0
 11 12  2  0  0  0  0
 11 23  1  0  0  0  0
 12 24  1  0  0  0  0
 13 20  1  0  0  0  0
 13 22  2  0  0  0  0
 14 24  2  0  0  0  0
 14 25  1  0  0  0  0
 15 26  1  0  0  0  0
 16 26  1  0  0  0  0
 16 27  2  0  0  0  0
 16 28  1  0  0  0  0
 17 19  2  0  0  0  0
 17 33  1  0  0  0  0
 18 20  2  0  0  0  0
 18 34  1  0  0  0  0
 19 42  1  0  0  0  0
 20 35  1  0  0  0  0
 21 76  1  0  0  0  0
 22 77  1  0  0  0  0
 23 25  2  0  0  0  0
 23 76  1  0  0  0  0
 24 78  1  0  0  0  0
 25 79  1  0  0  0  0
 26 61  2  0  0  0  0
 27 62  1  0  0  0  0
 27 65  1  0  0  0  0
 28 66  1  0  0  0  0
 28 71  2  0  0  0  0
 29 43  1  0  0  0  0
 29 67  1  0  0  0  0
 29 72  2  0  0  0  0
 30 56  1  0  0  0  0
 30 63  1  0  0  0  0
 30 73  2  0  0  0  0
 31 57  1  0  0  0  0
 31 68  1  0  0  0  0
 31 74  2  0  0  0  0
 32 64  1  0  0  0  0
 32 69  1  0  0  0  0
 32 75  2  0  0  0  0
 33 36  1  0  0  0  0
 34 43  1  0  0  0  0
 35 63  1  0  0  0  0
 36 38  1  0  0  0  0
 37 39  1  0  0  0  0
 37 40  1  0  0  0  0
 38 42  1  0  0  0  0
 39 44  1  0  0  0  0
 40 64  1  0  0  0  0
 41 44  1  0  0  0  0
 41 64  1  0  0  0  0
 42 67  1  0  0  0  0
 43 63  1  0  0  0  0
 44 62  1  0  0  0  0
 45 53  1  0  0  0  0
 46 57  1  0  0  0  0
 47 59  1  0  0  0  0
 48 59  1  0  0  0  0
 49 59  1  0  0  0  0
 50 60  1  0  0  0  0
 51 60  1  0  0  0  0
 52 70  1  0  0  0  0
 53 58  1  0  0  0  0
 54 58  1  0  0  0  0
 54 60  1  0  0  0  0
 55 58  1  0  0  0  0
 55 69  1  0  0  0  0
 56 59  1  0  0  0  0
 56 68  1  0  0  0  0
 57 70  1  0  0  0  0
 60 77  1  0  0  0  0
 61 62  1  0  0  0  0
M  CHG  1  70   1
M  ISO  4  32 100  60 101  69 100  77 101
M  END
> <Batch ID>
0192

> <Smiles>
CCC(C[100NH:0][100C:0](=O)N1CCCC(n2nc(-c3ccc(Oc4ccc(F)cc4F)cc3)c(C(N)=O)c2N)C1)C[101C:1](C)(C)[101O:1]c1ccc2c(c1)CN(C(=O)C(NC(=O)C(C)NC)C(C)(C)C)C(C(=O)NC1CCCc3ccccc31)C2

> <Shape>
0.141

> <Color>
0.186

> <Negative vol penalty>
0.000

$$$$

  -OEChem-04052305273D

 86 94  0     1  0  0  0  0  0999 V2000
  -23.5970  -30.6214   21.3002 C   0  0  0  0  0  0  0  0  0  0  0  0
  -23.4584  -29.8037   20.1832 C   0  0  0  0  0  0  0  0  0  0  0  0
  -24.1782  -12.8707   21.7709 C   0  0  0  0  0  0  0  0  0  0  0  0
  -24.8894  -14.3344   19.9851 C   0  0  0  0  0  0  0  0  0  0  0  0
  -24.7876  -30.6127   22.0256 C   0  0  0  0  0  0  0  0  0  0  0  0
  -24.5109  -28.9777   19.7903 C   0  0  0  0  0  0  0  0  0  0  0  0
  -22.9727  -24.2991   18.6113 C   0  0  0  0  0  0  0  0  0  0  0  0
  -25.1842  -11.9665   21.4305 C   0  0  0  0  0  0  0  0  0  0  0  0
  -25.8955  -13.4302   19.6448 C   0  0  0  0  0  0  0  0  0  0  0  0
  -22.3763  -24.1204   17.3638 C   0  0  0  0  0  0  0  0  0  0  0  0
  -28.8797  -11.6756   18.5339 C   0  0  0  0  0  0  0  0  0  0  0  0
  -30.1520  -12.1863   18.2772 C   0  0  0  0  0  0  0  0  0  0  0  0
  -17.1717  -18.8565   15.7878 C   0  0  0  0  0  0  0  0  0  0  0  0
  -24.4560  -23.2555   16.5002 C   0  0  0  0  0  0  0  0  0  0  0  0
  -30.2406  -13.0911   20.5156 C   0  0  0  0  0  0  0  0  0  0  0  0
  -24.0307  -14.0547   21.0482 C   0  0  0  0  0  0  0  0  0  0  0  0
  -17.4587  -19.7806   14.7418 C   0  0  0  0  0  0  0  0  0  0  0  0
  -23.0812  -16.0577   22.3106 C   0  0  0  0  0  0  0  0  0  0  0  0
  -25.8517  -29.7790   21.6471 C   0  0  0  0  0  0  0  0  0  0  0  0
  -24.3206  -23.9670   18.8099 C   0  0  0  0  0  0  0  0  0  0  0  0
  -25.7174  -28.9589   20.5106 C   0  0  0  0  0  0  0  0  0  0  0  0
  -25.0665  -23.4286   17.7518 C   0  0  0  0  0  0  0  0  0  0  0  0
  -26.0429  -12.2463   20.3674 C   0  0  0  0  0  0  0  0  0  0  0  0
  -23.1188  -23.6012   16.3072 C   0  0  0  0  0  0  0  0  0  0  0  0
  -28.2878  -11.8727   19.7815 C   0  0  0  0  0  0  0  0  0  0  0  0
  -30.8325  -12.8941   19.2680 C   0  0  0  0  0  0  0  0  0  0  0  0
  -28.9682  -12.5804   20.7724 C   0  0  0  0  0  0  0  0  0  0  0  0
  -22.9913  -14.9889   21.3989 C   0  0  0  0  0  0  0  0  0  0  0  0
  -21.8353  -16.6353   22.2866 C   0  0  0  0  0  0  0  0  0  0  0  0
  -18.3161  -18.4027   16.4057 C   0  0  0  0  0  0  0  0  0  0  0  0
  -18.8117  -19.9980   14.6004 C   0  0  0  0  0  0  0  0  0  0  0  0
  -16.4636  -20.4237   13.9211 C   0  0  0  0  0  0  0  0  0  0  0  0
  -24.1917  -16.4900   23.1079 C   0  0  0  0  0  0  0  0  0  0  0  0
  -26.9337  -25.5854   19.6198 C   0  0  0  0  0  0  0  0  0  0  0  0
  -28.2726  -22.6314   19.6788 C   0  0  0  0  0  0  0  0  0  0  0  0
  -28.1968  -19.3941   18.6014 C   0  0  0  0  0  0  0  0  0  0  0  0
  -17.4973  -16.8139   18.1811 C   0  0  0  0  0  0  0  0  0  0  0  0
  -27.1366  -29.8391   22.4346 C   0  0  0  0  0  0  0  0  0  0  0  0
  -24.9418  -24.1408   20.1687 C   0  0  0  0  0  0  0  0  0  0  0  0
  -26.5113  -23.0372   17.9186 C   0  0  0  0  0  0  0  0  0  0  0  0
  -28.0677  -28.6582   22.1720 C   0  0  0  0  0  0  0  0  0  0  0  0
  -17.2306  -15.5747   21.5083 C   0  0  0  0  0  0  0  0  0  0  0  0
  -28.1876  -28.3958   20.6741 C   0  0  0  0  0  0  0  0  0  0  0  0
  -18.6859  -15.3869   21.9429 C   0  0  0  0  0  0  0  0  0  0  0  0
  -17.0294  -15.2263   20.0345 C   0  0  0  0  0  0  0  0  0  0  0  0
  -19.3906  -15.7252   19.5396 C   0  0  0  0  0  0  0  0  0  0  0  0
  -26.8274  -28.0307   20.0674 C   0  0  1  0  0  0  0  0  0  0  0  0
  -26.4627  -24.2495   20.1209 C   0  0  1  0  0  0  0  0  0  0  0  0
  -19.6555  -16.1260   21.0000 C   0  0  2  0  0  0  0  0  0  0  0  0
  -15.0151  -20.1000   14.1829 C   0  0  0  0  0  0  0  0  0  0  0  0
  -28.8463  -16.9749   18.4491 C   0  0  0  0  0  0  0  0  0  0  0  0
  -21.4654  -19.7941   12.8937 C   0  0  0  0  0  0  0  0  0  0  0  0
  -30.4116  -23.7000   17.7833 C   0  0  0  0  0  0  0  0  0  0  0  0
  -31.0400  -21.3317   17.2690 C   0  0  0  0  0  0  0  0  0  0  0  0
  -31.2743  -22.2057   19.5936 C   0  0  0  0  0  0  0  0  0  0  0  0
  -26.3655  -18.6440   20.8020 C   0  0  0  0  0  0  0  0  0  0  0  0
  -21.2058  -22.2995   12.8597 C   0  0  0  0  0  0  0  0  0  0  0  0
  -21.1667  -23.7960   14.9628 C   0  0  0  0  0  0  0  0  0  1  0  0
  -28.9662  -21.7516   18.6669 C   0  0  1  0  0  0  0  0  0  0  0  0
  -28.3189  -18.0798   19.3512 C   0  0  2  0  0  0  0  0  0  0  0  0
  -20.8681  -21.0034   13.6073 C   0  0  1  0  0  0  0  0  0  0  0  0
  -20.6877  -23.5832   13.5287 C   0  0  1  0  0  0  0  0  0  0  0  0
  -30.3964  -22.2564   18.3242 C   0  0  0  0  0  0  0  0  0  0  0  0
  -21.7837  -14.8908   20.8368 N   0  0  0  0  0  0  0  0  0  0  0  0
  -21.1032  -15.9054   21.3969 N   0  0  0  0  0  0  0  0  0  0  0  0
  -27.0754  -23.2320   19.2644 N   0  0  0  0  0  0  0  0  0  0  0  0
  -17.9792  -15.9669   19.2014 N   0  0  0  0  0  0  0  0  0  0  0  0
  -21.3054  -17.6911   22.9400 N   0  0  0  0  0  0  0  0  0  0  0  0
  -25.3987  -15.7841   23.0110 N   0  0  0  0  0  0  0  0  0  0  0  0
  -18.4919  -17.4912   17.4762 N   0  0  0  0  0  0  0  0  0  0  0  0
  -19.4329  -20.8312   13.6871 N   0  0  0  0  0  0  0  0  0  0  0  0
  -26.4906  -26.6565   20.3721 N   0  0  0  0  0  0  0  0  0  0  0  0
  -28.9241  -20.3970   19.2068 N   0  0  0  0  0  0  0  0  0  0  0  0
  -26.9905  -17.6603   19.8808 N   0  3  0  0  0  0  0  0  0  0  0  0
  -16.6963  -21.2261   13.0043 O   0  0  0  0  0  0  0  0  0  0  0  0
  -24.1111  -17.4630   23.8954 O   0  0  0  0  0  0  0  0  0  0  0  0
  -27.6475  -25.6403   18.6253 O   0  0  0  0  0  0  0  0  0  0  0  0
  -28.7710  -22.7746   20.7981 O   0  0  0  0  0  0  0  0  0  0  0  0
  -27.5265  -19.5177   17.5787 O   0  0  0  0  0  0  0  0  0  0  0  0
  -16.2900  -16.9508   17.9675 O   0  0  0  0  0  0  0  0  0  0  0  0
  -21.1311  -24.7016   12.7551 O   0  0  0  0  0  0  0  0  0  0  0  0
  -27.0249  -11.3643   20.0352 O   0  0  0  0  0  0  0  0  0  0  0  0
  -22.5393  -23.4264   15.0884 O   0  0  0  0  0  0  0  0  0  1  0  0
  -32.0549  -13.3831   19.0218 F   0  0  0  0  0  0  0  0  0  0  0  0
  -28.4051  -12.7719   21.9733 F   0  0  0  0  0  0  0  0  0  0  0  0
  -19.7294  -19.0899   15.7254 S   0  0  0  0  0  0  0  0  0  0  0  0
  1  2  1  0  0  0  0
  1  5  2  0  0  0  0
  2  6  2  0  0  0  0
  3  8  2  0  0  0  0
  3 16  1  0  0  0  0
  4  9  1  0  0  0  0
  4 16  2  0  0  0  0
  5 19  1  0  0  0  0
  6 21  1  0  0  0  0
  7 10  2  0  0  0  0
  7 20  1  0  0  0  0
  8 23  1  0  0  0  0
  9 23  2  0  0  0  0
 10 24  1  0  0  0  0
 11 12  2  0  0  0  0
 11 25  1  0  0  0  0
 12 26  1  0  0  0  0
 13 17  1  0  0  0  0
 13 30  2  0  0  0  0
 14 22  1  0  0  0  0
 14 24  2  0  0  0  0
 15 26  2  0  0  0  0
 15 27  1  0  0  0  0
 16 28  1  0  0  0  0
 17 31  2  0  0  0  0
 17 32  1  0  0  0  0
 18 28  1  0  0  0  0
 18 29  2  0  0  0  0
 18 33  1  0  0  0  0
 19 21  2  0  0  0  0
 19 38  1  0  0  0  0
 20 22  2  0  0  0  0
 20 39  1  0  0  0  0
 21 47  1  0  0  0  0
 22 40  1  0  0  0  0
 23 82  1  0  0  0  0
 24 83  1  0  0  0  0
 25 27  2  0  0  0  0
 25 82  1  0  0  0  0
 26 84  1  0  0  0  0
 27 85  1  0  0  0  0
 28 64  2  0  0  0  0
 29 65  1  0  0  0  0
 29 68  1  0  0  0  0
 30 70  1  0  0  0  0
 30 86  1  0  0  0  0
 31 71  1  0  0  0  0
 31 86  1  0  0  0  0
 32 50  1  0  0  0  0
 32 75  2  0  0  0  0
 33 69  1  0  0  0  0
 33 76  2  0  0  0  0
 34 48  1  0  0  0  0
 34 72  1  0  0  0  0
 34 77  2  0  0  0  0
 35 59  1  0  0  0  0
 35 66  1  0  0  0  0
 35 78  2  0  0  0  0
 36 60  1  0  0  0  0
 36 73  1  0  0  0  0
 36 79  2  0  0  0  0
 37 67  1  0  0  0  0
 37 70  1  0  0  0  0
 37 80  2  0  0  0  0
 38 41  1  0  0  0  0
 39 48  1  0  0  0  0
 40 66  1  0  0  0  0
 41 43  1  0  0  0  0
 42 44  1  0  0  0  0
 42 45  1  0  0  0  0
 43 47  1  0  0  0  0
 44 49  1  0  0  0  0
 45 67  1  0  0  0  0
 46 49  1  0  0  0  0
 46 67  1  0  0  0  0
 47 72  1  0  0  0  0
 48 66  1  0  0  0  0
 49 65  1  0  0  0  0
 51 60  1  0  0  0  0
 52 61  1  0  0  0  0
 53 63  1  0  0  0  0
 54 63  1  0  0  0  0
 55 63  1  0  0  0  0
 56 74  1  0  0  0  0
 57 61  1  0  0  0  0
 57 62  1  0  0  0  0
 58 62  1  0  0  0  0
 58 83  1  0  0  0  0
 59 63  1  0  0  0  0
 59 73  1  0  0  0  0
 60 74  1  0  0  0  0
 61 71  1  0  0  0  0
 62 81  1  0  0  0  0
 64 65  1  0  0  0  0
M  CHG  1  74   1
M  ISO  4  37 100  58 101  70 100  83 101
M  END
> <Batch ID>
0192

> <Smiles>
CNC(C)C(=O)NC(C(=O)N1Cc2cc([101O:1][101CH2:1]C(O)CC(C)Nc3sc([100NH:0][100C:0](=O)N4CCCC(n5nc(-c6ccc(Oc7ccc(F)cc7F)cc6)c(C(N)=O)c5N)C4)cc3C(C)=O)ccc2CC1C(=O)NC1CCCc2ccccc21)C(C)(C)C

> <Shape>
0.199

> <Color>
0.059

> <Negative vol penalty>
0.000

$$$$

  -OEChem-04052305273D

 75 82  0     1  0  0  0  0  0999 V2000
  -16.8744  -27.0380   20.8115 C   0  0  0  0  0  0  0  0  0  0  0  0
  -18.1289  -27.0378   20.2100 C   0  0  0  0  0  0  0  0  0  0  0  0
  -25.6535  -15.9242   21.7397 C   0  0  0  0  0  0  0  0  0  0  0  0
  -25.0784  -16.6956   19.5236 C   0  0  0  0  0  0  0  0  0  0  0  0
  -16.6682  -27.7528   21.9907 C   0  0  0  0  0  0  0  0  0  0  0  0
  -19.1776  -27.7533   20.7868 C   0  0  0  0  0  0  0  0  0  0  0  0
  -23.4994  -25.1161   20.8973 C   0  0  0  0  0  0  0  0  0  0  0  0
  -24.3938  -15.3380   21.8626 C   0  0  0  0  0  0  0  0  0  0  0  0
  -23.8187  -16.1092   19.6464 C   0  0  0  0  0  0  0  0  0  0  0  0
  -24.2225  -25.0286   19.7085 C   0  0  0  0  0  0  0  0  0  0  0  0
  -21.4600  -13.3287   22.6182 C   0  0  0  0  0  0  0  0  0  0  0  0
  -21.3942  -12.0363   23.1386 C   0  0  0  0  0  0  0  0  0  0  0  0
  -25.6981  -26.7719   20.4848 C   0  0  0  0  0  0  0  0  0  0  0  0
  -22.7729  -11.2352   21.3235 C   0  0  0  0  0  0  0  0  0  0  0  0
  -25.9958  -16.6031   20.5702 C   0  0  0  0  0  0  0  0  0  0  0  0
  -28.4657  -16.6142   19.9322 C   0  0  0  0  0  0  0  0  0  0  0  0
  -17.7174  -28.4696   22.5874 C   0  0  0  0  0  0  0  0  0  0  0  0
  -23.8642  -26.0412   21.8859 C   0  0  0  0  0  0  0  0  0  0  0  0
  -18.9848  -28.4794   21.9743 C   0  0  0  0  0  0  0  0  0  0  0  0
  -24.9795  -26.8673   21.6864 C   0  0  0  0  0  0  0  0  0  0  0  0
  -23.4764  -15.4304   20.8159 C   0  0  0  0  0  0  0  0  0  0  0  0
  -25.3203  -25.8586   19.5009 C   0  0  0  0  0  0  0  0  0  0  0  0
  -22.1822  -13.5744   21.4503 C   0  0  0  0  0  0  0  0  0  0  0  0
  -22.0506  -10.9895   22.4913 C   0  0  0  0  0  0  0  0  0  0  0  0
  -22.8386  -12.5277   20.8030 C   0  0  0  0  0  0  0  0  0  0  0  0
  -27.2966  -17.2094   20.4430 C   0  0  0  0  0  0  0  0  0  0  0  0
  -29.4204  -17.5971   20.0257 C   0  0  0  0  0  0  0  0  0  0  0  0
  -28.6702  -15.2911   19.4192 C   0  0  0  0  0  0  0  0  0  0  0  0
  -22.4529  -28.5428   23.2475 C   0  0  0  0  0  0  0  0  0  0  0  0
  -25.0861  -28.5041   25.1415 C   0  0  0  0  0  0  0  0  0  0  0  0
  -28.3551  -27.6088   25.5404 C   0  0  0  0  0  0  0  0  0  0  0  0
  -29.1175  -23.5753   20.1680 C   0  0  0  0  0  0  0  0  0  0  0  0
  -17.4342  -29.2658   23.8366 C   0  0  0  0  0  0  0  0  0  0  0  0
  -23.0900  -26.1046   23.1739 C   0  0  0  0  0  0  0  0  0  0  0  0
  -25.4247  -27.8632   22.7249 C   0  0  0  0  0  0  0  0  0  0  0  0
  -18.6940  -29.6926   24.5855 C   0  0  0  0  0  0  0  0  0  0  0  0
  -30.5897  -21.4475   22.6137 C   0  0  0  0  0  0  0  0  0  0  0  0
  -19.7211  -30.2700   23.6167 C   0  0  0  0  0  0  0  0  0  0  0  0
  -30.0182  -20.0664   22.2887 C   0  0  0  0  0  0  0  0  0  0  0  0
  -29.5622  -22.5528   22.3800 C   0  0  0  0  0  0  0  0  0  0  0  0
  -28.3803  -21.1760   20.7123 C   0  0  0  0  0  0  0  0  0  0  0  0
  -20.1538  -29.2232   22.5830 C   0  0  1  0  0  0  0  0  0  0  0  0
  -23.2405  -27.4398   23.8964 C   0  0  1  0  0  0  0  0  0  0  0  0
  -29.3974  -20.0340   20.8791 C   0  0  2  0  0  0  0  0  0  0  0  0
  -30.2491  -27.7464   27.1809 C   0  0  0  0  0  0  0  0  0  0  0  0
  -29.9168  -24.3775   17.1147 C   0  0  0  0  0  0  0  0  0  0  0  0
  -25.4953  -31.4402   24.4191 C   0  0  0  0  0  0  0  0  0  0  0  0
  -27.8394  -31.2528   25.2783 C   0  0  0  0  0  0  0  0  0  0  0  0
  -25.9142  -30.8890   26.8222 C   0  0  0  0  0  0  0  0  0  0  0  0
  -28.5476  -24.6624   25.7422 C   0  0  0  0  0  0  0  0  0  0  0  0
  -27.4039  -24.3707   16.9650 C   0  0  0  0  0  0  0  0  0  0  0  0
  -26.0726  -24.5029   17.6975 C   0  0  0  0  0  0  0  0  0  1  0  0
  -26.4554  -29.1369   25.0817 C   0  0  1  0  0  0  0  0  0  0  0  0
  -29.0775  -26.9154   26.6814 C   0  0  2  0  0  0  0  0  0  0  0  0
  -28.6128  -24.4555   17.9031 C   0  0  1  0  0  0  0  0  0  0  0  0
  -26.4168  -30.6624   25.3798 C   0  0  0  0  0  0  0  0  0  0  0  0
  -27.4889  -18.4726   20.8322 N   0  0  0  0  0  0  0  0  0  0  0  0
  -28.7899  -18.6791   20.5660 N   0  0  0  0  0  0  0  0  0  0  0  0
  -24.6316  -27.8918   23.9649 N   0  0  0  0  0  0  0  0  0  0  0  0
  -29.0132  -22.4670   21.0246 N   0  0  0  0  0  0  0  0  0  0  0  0
  -30.7295  -17.6328   19.6977 N   0  0  0  0  0  0  0  0  0  0  0  0
  -27.5820  -14.4082   19.3951 N   0  0  0  0  0  0  0  0  0  0  0  0
  -21.0960  -28.2939   23.1686 N   0  0  0  0  0  0  0  0  0  0  0  0
  -27.2991  -28.3713   25.9929 N   0  0  0  0  0  0  0  0  0  0  0  0
  -28.5769  -23.4077   18.8990 N   0  0  0  0  0  0  0  0  0  0  0  0
  -29.5964  -25.5909   26.2370 N   0  3  0  0  0  0  0  0  0  0  0  0
  -29.7889  -14.8980   19.0099 O   0  0  0  0  0  0  0  0  0  0  0  0
  -23.0332  -29.5460   22.8494 O   0  0  0  0  0  0  0  0  0  0  0  0
  -24.4465  -28.5451   26.1954 O   0  0  0  0  0  0  0  0  0  0  0  0
  -28.6959  -27.4892   24.3657 O   0  0  0  0  0  0  0  0  0  0  0  0
  -29.6575  -24.6338   20.5071 O   0  0  0  0  0  0  0  0  0  0  0  0
  -22.2472  -14.8583   20.9354 O   0  0  0  0  0  0  0  0  0  0  0  0
  -26.0274  -25.7757   18.3412 O   0  0  0  0  0  0  0  0  0  1  0  0
  -21.9886   -9.7487   22.9920 F   0  0  0  0  0  0  0  0  0  0  0  0
  -23.5350  -12.7578   19.6814 F   0  0  0  0  0  0  0  0  0  0  0  0
  1  2  1  0  0  0  0
  1  5  2  0  0  0  0
  2  6  2  0  0  0  0
  3  8  2  0  0  0  0
  3 15  1  0  0  0  0
  4  9  1  0  0  0  0
  4 15  2  0  0  0  0
  5 17  1  0  0  0  0
  6 19  1  0  0  0  0
  7 10  2  0  0  0  0
  7 18  1  0  0  0  0
  8 21  1  0  0  0  0
  9 21  2  0  0  0  0
 10 22  1  0  0  0  0
 11 12  2  0  0  0  0
 11 23  1  0  0  0  0
 12 24  1  0  0  0  0
 13 20  1  0  0  0  0
 13 22  2  0  0  0  0
 14 24  2  0  0  0  0
 14 25  1  0  0  0  0
 15 26  1  0  0  0  0
 16 26  1  0  0  0  0
 16 27  2  0  0  0  0
 16 28  1  0  0  0  0
 17 19  2  0  0  0  0
 17 33  1  0  0  0  0
 18 20  2  0  0  0  0
 18 34  1  0  0  0  0
 19 42  1  0  0  0  0
 20 35  1  0  0  0  0
 21 72  1  0  0  0  0
 22 73  1  0  0  0  0
 23 25  2  0  0  0  0
 23 72  1  0  0  0  0
 24 74  1  0  0  0  0
 25 75  1  0  0  0  0
 26 57  2  0  0  0  0
 27 58  1  0  0  0  0
 27 61  1  0  0  0  0
 28 62  1  0  0  0  0
 28 67  2  0  0  0  0
 29 43  1  0  0  0  0
 29 63  1  0  0  0  0
 29 68  2  0  0  0  0
 30 53  1  0  0  0  0
 30 59  1  0  0  0  0
 30 69  2  0  0  0  0
 31 54  1  0  0  0  0
 31 64  1  0  0  0  0
 31 70  2  0  0  0  0
 32 60  1  0  0  0  0
 32 65  1  0  0  0  0
 32 71  2  0  0  0  0
 33 36  1  0  0  0  0
 34 43  1  0  0  0  0
 35 59  1  0  0  0  0
 36 38  1  0  0  0  0
 37 39  1  0  0  0  0
 37 40  1  0  0  0  0
 38 42  1  0  0  0  0
 39 44  1  0  0  0  0
 40 60  1  0  0  0  0
 41 44  1  0  0  0  0
 41 60  1  0  0  0  0
 42 63  1  0  0  0  0
 43 59  1  0  0  0  0
 44 58  1  0  0  0  0
 45 54  1  0  0  0  0
 46 55  1  0  0  0  0
 47 56  1  0  0  0  0
 48 56  1  0  0  0  0
 49 56  1  0  0  0  0
 50 66  1  0  0  0  0
 51 52  1  0  0  0  0
 51 55  1  0  0  0  0
 52 73  1  0  0  0  0
 53 56  1  0  0  0  0
 53 64  1  0  0  0  0
 54 66  1  0  0  0  0
 55 65  1  0  0  0  0
 57 58  1  0  0  0  0
M  CHG  1  66   1
M  ISO  4  32 100  52 101  65 100  73 101
M  END
> <Batch ID>
0192

> <Smiles>
CNC(C)C(=O)NC(C(=O)N1Cc2cc([101O:1][101CH2:1]CC(C)[100NH:0][100C:0](=O)N3CCCC(n4nc(-c5ccc(Oc6ccc(F)cc6F)cc5)c(C(N)=O)c4N)C3)ccc2CC1C(=O)NC1CCCc2ccccc21)C(C)(C)C

> <Shape>
0.243

> <Color>
0.072

> <Negative vol penalty>
0.000

$$$$

  -OEChem-04052305273D

 87 95  0     1  0  0  0  0  0999 V2000
  -26.0479  -37.8774   22.2199 C   0  0  0  0  0  0  0  0  0  0  0  0
  -26.7606  -36.7920   21.7203 C   0  0  0  0  0  0  0  0  0  0  0  0
  -24.5551   -8.5740   21.3925 C   0  0  0  0  0  0  0  0  0  0  0  0
  -23.1225  -10.4155   22.0196 C   0  0  0  0  0  0  0  0  0  0  0  0
  -25.1048  -37.6859   23.2288 C   0  0  0  0  0  0  0  0  0  0  0  0
  -26.5313  -35.5146   22.2302 C   0  0  0  0  0  0  0  0  0  0  0  0
  -26.7272  -30.2288   19.1435 C   0  0  0  0  0  0  0  0  0  0  0  0
  -23.9557   -7.7758   22.3668 C   0  0  0  0  0  0  0  0  0  0  0  0
  -22.5230   -9.6174   22.9939 C   0  0  0  0  0  0  0  0  0  0  0  0
  -27.7139  -29.2518   19.0182 C   0  0  0  0  0  0  0  0  0  0  0  0
  -21.0927   -6.0135   22.7276 C   0  0  0  0  0  0  0  0  0  0  0  0
  -20.7354   -4.7133   22.3707 C   0  0  0  0  0  0  0  0  0  0  0  0
  -26.6656  -27.9761   20.7768 C   0  0  0  0  0  0  0  0  0  0  0  0
  -22.1947   -3.8410   24.0872 C   0  0  0  0  0  0  0  0  0  0  0  0
  -24.1386   -9.8939   21.2189 C   0  0  0  0  0  0  0  0  0  0  0  0
  -24.3594  -10.8664   18.8709 C   0  0  0  0  0  0  0  0  0  0  0  0
  -24.8570  -36.4040   23.7446 C   0  0  0  0  0  0  0  0  0  0  0  0
  -25.7068  -30.0918   20.0955 C   0  0  0  0  0  0  0  0  0  0  0  0
  -25.5850  -35.3059   23.2479 C   0  0  0  0  0  0  0  0  0  0  0  0
  -25.6657  -28.9515   20.9105 C   0  0  0  0  0  0  0  0  0  0  0  0
  -22.9396   -8.2975   23.1674 C   0  0  0  0  0  0  0  0  0  0  0  0
  -27.6848  -28.1266   19.8369 C   0  0  0  0  0  0  0  0  0  0  0  0
  -22.0011   -6.2274   23.7643 C   0  0  0  0  0  0  0  0  0  0  0  0
  -21.2863   -3.6270   23.0505 C   0  0  0  0  0  0  0  0  0  0  0  0
  -22.5521   -5.1412   24.4441 C   0  0  0  0  0  0  0  0  0  0  0  0
  -24.7578  -10.7190   20.2131 C   0  0  0  0  0  0  0  0  0  0  0  0
  -25.8202  -19.9112   21.7493 C   0  0  0  0  0  0  0  0  0  0  0  0
  -27.1665  -20.0987   21.5159 C   0  0  0  0  0  0  0  0  0  0  0  0
  -25.2643  -11.7524   18.3395 C   0  0  0  0  0  0  0  0  0  0  0  0
  -27.0887  -17.9211   21.2665 C   0  0  0  0  0  0  0  0  0  0  0  0
  -23.2688  -10.2569   18.1676 C   0  0  0  0  0  0  0  0  0  0  0  0
  -24.7903  -20.8477   22.0583 C   0  0  0  0  0  0  0  0  0  0  0  0
  -24.7771  -31.7516   22.6420 C   0  0  0  0  0  0  0  0  0  0  0  0
  -22.3256  -29.6274   22.6470 C   0  0  0  0  0  0  0  0  0  0  0  0
  -21.1577  -26.5489   21.7493 C   0  0  0  0  0  0  0  0  0  0  0  0
  -28.6729  -16.0359   20.7350 C   0  0  0  0  0  0  0  0  0  0  0  0
  -23.8618  -36.2534   24.8677 C   0  0  0  0  0  0  0  0  0  0  0  0
  -24.6347  -31.1417   20.1999 C   0  0  0  0  0  0  0  0  0  0  0  0
  -24.5801  -28.7472   21.9343 C   0  0  0  0  0  0  0  0  0  0  0  0
  -23.4102  -34.8126   25.0923 C   0  0  0  0  0  0  0  0  0  0  0  0
  -29.7901  -13.2358   18.8407 C   0  0  0  0  0  0  0  0  0  0  0  0
  -24.6113  -33.8722   25.1032 C   0  0  0  0  0  0  0  0  0  0  0  0
  -28.5880  -12.2887   18.8504 C   0  0  0  0  0  0  0  0  0  0  0  0
  -29.9406  -13.9749   20.1692 C   0  0  0  0  0  0  0  0  0  0  0  0
  -27.5342  -13.7317   20.6375 C   0  0  0  0  0  0  0  0  0  0  0  0
  -25.3469  -33.9012   23.7580 C   0  0  1  0  0  0  0  0  0  0  0  0
  -23.9339  -31.1474   21.5550 C   0  0  1  0  0  0  0  0  0  0  0  0
  -27.3034  -13.0131   19.2981 C   0  0  2  0  0  0  0  0  0  0  0  0
  -23.3773  -20.5415   21.6077 C   0  0  0  0  0  0  0  0  0  0  0  0
  -19.1284  -25.0834   21.9264 C   0  0  0  0  0  0  0  0  0  0  0  0
  -28.8187  -25.0688   17.6933 C   0  0  0  0  0  0  0  0  0  0  0  0
  -29.9722  -21.1278   22.5566 C   0  0  0  0  0  0  0  0  0  0  0  0
  -23.0141  -29.0301   25.5589 C   0  0  0  0  0  0  0  0  0  0  0  0
  -21.6317  -26.9499   25.3863 C   0  0  0  0  0  0  0  0  0  0  0  0
  -20.5650  -29.1834   25.0763 C   0  0  0  0  0  0  0  0  0  0  0  0
  -20.8363  -26.4408   18.8092 C   0  0  0  0  0  0  0  0  0  0  0  0
  -28.7728  -23.4013   19.6257 C   0  0  0  0  0  0  0  0  0  0  0  0
  -29.4881  -22.9832   20.9183 C   0  0  0  0  0  0  0  0  0  0  0  0
  -28.2746  -25.8311   20.0334 C   0  0  0  0  0  0  0  0  0  1  0  0
  -22.0847  -28.2744   23.2718 C   0  0  1  0  0  0  0  0  0  0  0  0
  -19.8622  -26.1171   21.0863 C   0  0  2  0  0  0  0  0  0  0  0  0
  -29.0894  -24.8440   19.1852 C   0  0  2  0  0  0  0  0  0  0  0  0
  -29.2040  -21.5225   21.2992 C   0  0  2  0  0  0  0  0  0  0  0  0
  -21.8456  -28.3639   24.8055 C   0  0  0  0  0  0  0  0  0  0  0  0
  -25.8323  -11.4526   20.5155 N   0  0  0  0  0  0  0  0  0  0  0  0
  -27.8956  -18.9586   21.2393 N   0  0  0  0  0  0  0  0  0  0  0  0
  -26.1168  -12.0693   19.3559 N   0  0  0  0  0  0  0  0  0  0  0  0
  -23.5582  -29.8048   22.0026 N   0  0  0  0  0  0  0  0  0  0  0  0
  -28.6861  -14.6404   20.5271 N   0  0  0  0  0  0  0  0  0  0  0  0
  -25.4061  -12.2836   17.1065 N   0  0  0  0  0  0  0  0  0  0  0  0
  -22.4361   -9.3708   18.8646 N   0  0  0  0  0  0  0  0  0  0  0  0
  -27.7895  -21.3334   21.5454 N   0  0  0  0  0  0  0  0  0  0  0  0
  -27.4175  -16.5619   21.0382 N   0  0  0  0  0  0  0  0  0  0  0  0
  -24.6304  -33.1194   22.7732 N   0  0  0  0  0  0  0  0  0  0  0  0
  -20.9826  -27.6724   22.5293 N   0  0  0  0  0  0  0  0  0  0  0  0
  -20.1382  -25.5243   19.7471 N   0  3  0  0  0  0  0  0  0  0  0  0
  -23.0493  -10.4784   16.9526 O   0  0  0  0  0  0  0  0  0  0  0  0
  -24.9370  -21.9249   22.6740 O   0  0  0  0  0  0  0  0  0  0  0  0
  -25.5058  -31.0302   23.3130 O   0  0  0  0  0  0  0  0  0  0  0  0
  -21.4496  -30.4926   22.7216 O   0  0  0  0  0  0  0  0  0  0  0  0
  -22.2182  -25.9475   21.5939 O   0  0  0  0  0  0  0  0  0  0  0  0
  -29.6947  -16.7183   20.6236 O   0  0  0  0  0  0  0  0  0  0  0  0
  -22.3543   -7.5189   24.1180 O   0  0  0  0  0  0  0  0  0  0  0  0
  -28.6471  -27.1718   19.7170 O   0  0  0  0  0  0  0  0  0  1  0  0
  -20.9419   -2.3786   22.7086 F   0  0  0  0  0  0  0  0  0  0  0  0
  -23.4244   -5.3405   25.4417 F   0  0  0  0  0  0  0  0  0  0  0  0
  -25.4403  -18.2440   21.6179 S   0  0  0  0  0  0  0  0  0  0  0  0
  1  2  1  0  0  0  0
  1  5  2  0  0  0  0
  2  6  2  0  0  0  0
  3  8  2  0  0  0  0
  3 15  1  0  0  0  0
  4  9  1  0  0  0  0
  4 15  2  0  0  0  0
  5 17  1  0  0  0  0
  6 19  1  0  0  0  0
  7 10  2  0  0  0  0
  7 18  1  0  0  0  0
  8 21  1  0  0  0  0
  9 21  2  0  0  0  0
 10 22  1  0  0  0  0
 11 12  2  0  0  0  0
 11 23  1  0  0  0  0
 12 24  1  0  0  0  0
 13 20  1  0  0  0  0
 13 22  2  0  0  0  0
 14 24  2  0  0  0  0
 14 25  1  0  0  0  0
 15 26  1  0  0  0  0
 16 26  1  0  0  0  0
 16 29  2  0  0  0  0
 16 31  1  0  0  0  0
 17 19  2  0  0  0  0
 17 37  1  0  0  0  0
 18 20  2  0  0  0  0
 18 38  1  0  0  0  0
 19 46  1  0  0  0  0
 20 39  1  0  0  0  0
 21 83  1  0  0  0  0
 22 84  1  0  0  0  0
 23 25  2  0  0  0  0
 23 83  1  0  0  0  0
 24 85  1  0  0  0  0
 25 86  1  0  0  0  0
 26 65  2  0  0  0  0
 27 28  2  0  0  0  0
 27 32  1  0  0  0  0
 27 87  1  0  0  0  0
 28 66  1  0  0  0  0
 28 72  1  0  0  0  0
 29 67  1  0  0  0  0
 29 70  1  0  0  0  0
 30 66  2  0  0  0  0
 30 73  1  0  0  0  0
 30 87  1  0  0  0  0
 31 71  1  0  0  0  0
 31 77  2  0  0  0  0
 32 49  1  0  0  0  0
 32 78  2  0  0  0  0
 33 47  1  0  0  0  0
 33 74  1  0  0  0  0
 33 79  2  0  0  0  0
 34 60  1  0  0  0  0
 34 68  1  0  0  0  0
 34 80  2  0  0  0  0
 35 61  1  0  0  0  0
 35 75  1  0  0  0  0
 35 81  2  0  0  0  0
 36 69  1  0  0  0  0
 36 73  1  0  0  0  0
 36 82  2  0  0  0  0
 37 40  1  0  0  0  0
 38 47  1  0  0  0  0
 39 68  1  0  0  0  0
 40 42  1  0  0  0  0
 41 43  1  0  0  0  0
 41 44  1  0  0  0  0
 42 46  1  0  0  0  0
 43 48  1  0  0  0  0
 44 69  1  0  0  0  0
 45 48  1  0  0  0  0
 45 69  1  0  0  0  0
 46 74  1  0  0  0  0
 47 68  1  0  0  0  0
 48 67  1  0  0  0  0
 50 61  1  0  0  0  0
 51 62  1  0  0  0  0
 52 63  1  0  0  0  0
 53 64  1  0  0  0  0
 54 64  1  0  0  0  0
 55 64  1  0  0  0  0
 56 76  1  0  0  0  0
 57 58  1  0  0  0  0
 57 62  1  0  0  0  0
 58 63  1  0  0  0  0
 59 62  1  0  0  0  0
 59 84  1  0  0  0  0
 60 64  1  0  0  0  0
 60 75  1  0  0  0  0
 61 76  1  0  0  0  0
 63 72  1  0  0  0  0
 65 67  1  0  0  0  0
M  CHG  1  76   1
M  ISO  4  36 100  59 101  73 100  84 101
M  END
> <Batch ID>
0192

> <Smiles>
CNC(C)C(=O)NC(C(=O)N1Cc2cc([101O:1][101CH2:1]C(C)CCC(C)Nc3nc([100NH:0][100C:0](=O)N4CCCC(n5nc(-c6ccc(Oc7ccc(F)cc7F)cc6)c(C(N)=O)c5N)C4)sc3C(C)=O)ccc2CC1C(=O)NC1CCCc2ccccc21)C(C)(C)C

> <Shape>
0.338

> <Color>
0.093

> <Negative vol penalty>
0.000

$$$$

  -OEChem-04052305273D

 85 93  0     1  0  0  0  0  0999 V2000
  -27.9811  -12.6533   17.5690 C   0  0  0  0  0  0  0  0  0  0  0  0
  -27.2914  -13.8178   17.2470 C   0  0  0  0  0  0  0  0  0  0  0  0
  -30.3321  -24.6211   19.3652 C   0  0  0  0  0  0  0  0  0  0  0  0
  -28.2576  -23.3848   19.2934 C   0  0  0  0  0  0  0  0  0  0  0  0
  -27.6144  -11.9159   18.6940 C   0  0  0  0  0  0  0  0  0  0  0  0
  -26.2339  -14.2450   18.0493 C   0  0  0  0  0  0  0  0  0  0  0  0
  -24.6645  -20.0314   19.2982 C   0  0  0  0  0  0  0  0  0  0  0  0
  -31.0346  -23.4314   19.5562 C   0  0  0  0  0  0  0  0  0  0  0  0
  -28.9601  -22.1950   19.4844 C   0  0  0  0  0  0  0  0  0  0  0  0
  -23.6935  -20.8764   18.7625 C   0  0  0  0  0  0  0  0  0  0  0  0
  -30.3849  -20.5286   22.0581 C   0  0  0  0  0  0  0  0  0  0  0  0
  -29.8790  -19.6193   22.9869 C   0  0  0  0  0  0  0  0  0  0  0  0
  -22.1914  -20.2746   20.5515 C   0  0  0  0  0  0  0  0  0  0  0  0
  -29.6647  -17.9591   21.2447 C   0  0  0  0  0  0  0  0  0  0  0  0
  -19.4613  -28.5738   22.9055 C   0  0  0  0  0  0  0  0  0  0  0  0
  -28.9436  -24.5979   19.2339 C   0  0  0  0  0  0  0  0  0  0  0  0
  -27.8958  -26.4370   17.8100 C   0  0  0  0  0  0  0  0  0  0  0  0
  -26.5582  -12.3394   19.5160 C   0  0  0  0  0  0  0  0  0  0  0  0
  -24.4018  -19.2921   20.4605 C   0  0  0  0  0  0  0  0  0  0  0  0
  -25.8519  -13.5118   19.1856 C   0  0  0  0  0  0  0  0  0  0  0  0
  -23.1616  -19.4228   21.1014 C   0  0  0  0  0  0  0  0  0  0  0  0
  -30.3486  -22.2183   19.6157 C   0  0  0  0  0  0  0  0  0  0  0  0
  -22.4557  -20.9959   19.3875 C   0  0  0  0  0  0  0  0  0  0  0  0
  -30.5307  -20.1533   20.7226 C   0  0  0  0  0  0  0  0  0  0  0  0
  -29.5189  -18.3345   22.5802 C   0  0  0  0  0  0  0  0  0  0  0  0
  -30.1706  -18.8686   20.3159 C   0  0  0  0  0  0  0  0  0  0  0  0
  -28.2173  -25.8267   19.0372 C   0  0  0  0  0  0  0  0  0  0  0  0
  -20.3328  -28.2360   21.9001 C   0  0  0  0  0  0  0  0  0  0  0  0
  -27.2063  -27.5718   18.1611 C   0  0  0  0  0  0  0  0  0  0  0  0
  -19.4710  -26.4548   22.6125 C   0  0  0  0  0  0  0  0  0  0  0  0
  -28.1936  -26.0158   16.4723 C   0  0  0  0  0  0  0  0  0  0  0  0
  -24.2617  -16.1958   21.1656 C   0  0  0  0  0  0  0  0  0  0  0  0
  -23.9060  -17.3003   24.1947 C   0  0  0  0  0  0  0  0  0  0  0  0
  -22.9613  -19.8505   26.2564 C   0  0  0  0  0  0  0  0  0  0  0  0
  -23.4199  -29.4578   22.1134 C   0  0  0  0  0  0  0  0  0  0  0  0
  -26.1677  -11.4838   20.6950 C   0  0  0  0  0  0  0  0  0  0  0  0
  -25.4693  -18.4053   21.0406 C   0  0  0  0  0  0  0  0  0  0  0  0
  -22.8370  -18.6664   22.3627 C   0  0  0  0  0  0  0  0  0  0  0  0
  -25.2778  -12.2058   21.7035 C   0  0  0  0  0  0  0  0  0  0  0  0
  -26.8719  -30.3177   22.2588 C   0  0  0  0  0  0  0  0  0  0  0  0
  -24.1545  -12.9494   20.9879 C   0  0  0  0  0  0  0  0  0  0  0  0
  -27.5408  -29.3040   21.3288 C   0  0  0  0  0  0  0  0  0  0  0  0
  -25.7093  -29.6954   23.0291 C   0  0  0  0  0  0  0  0  0  0  0  0
  -25.3655  -28.0148   21.2596 C   0  0  0  0  0  0  0  0  0  0  0  0
  -24.7153  -14.0210   20.0451 C   0  0  1  0  0  0  0  0  0  0  0  0
  -24.9103  -17.3077   21.9406 C   0  0  1  0  0  0  0  0  0  0  0  0
  -26.5083  -28.6105   20.4197 C   0  0  2  0  0  0  0  0  0  0  0  0
  -22.7480  -20.4440   28.6854 C   0  0  0  0  0  0  0  0  0  0  0  0
  -17.3816  -23.6376   20.9559 C   0  0  0  0  0  0  0  0  0  0  0  0
  -19.4070  -22.7721   23.0736 C   0  0  0  0  0  0  0  0  0  0  0  0
  -21.3743  -24.2112   19.0223 C   0  0  0  0  0  0  0  0  0  0  0  0
  -21.3863  -15.5906   24.3888 C   0  0  0  0  0  0  0  0  0  0  0  0
  -20.7225  -16.9213   26.4029 C   0  0  0  0  0  0  0  0  0  0  0  0
  -22.8201  -15.5717   26.4378 C   0  0  0  0  0  0  0  0  0  0  0  0
  -24.8856  -22.0842   25.9990 C   0  0  0  0  0  0  0  0  0  0  0  0
  -21.1865  -29.1133   21.0877 C   0  0  0  0  0  0  0  0  0  0  0  0
  -19.5305  -22.7384   19.9134 C   0  0  0  0  0  0  0  0  0  0  0  0
  -22.7316  -17.6896   25.0597 C   0  0  1  0  0  0  0  0  0  0  0  0
  -23.6438  -20.4808   27.4570 C   0  0  2  0  0  0  0  0  0  0  0  0
  -18.8940  -23.8456   20.7902 C   0  0  2  0  0  0  0  0  0  0  0  0
  -19.5675  -23.9993   22.1802 C   0  0  1  0  0  0  0  0  0  0  0  0
  -21.0437  -22.8846   19.6960 C   0  0  1  0  0  0  0  0  0  1  0  0
  -21.9203  -16.4562   25.5475 C   0  0  0  0  0  0  0  0  0  0  0  0
  -27.7690  -26.5167   20.0893 N   0  0  0  0  0  0  0  0  0  0  0  0
  -20.3348  -26.8768   21.7171 N   0  0  0  0  0  0  0  0  0  0  0  0
  -27.1589  -27.5724   19.5242 N   0  0  0  0  0  0  0  0  0  0  0  0
  -23.9113  -17.8073   22.8875 N   0  0  0  0  0  0  0  0  0  0  0  0
  -24.7658  -29.0558   22.1090 N   0  0  0  0  0  0  0  0  0  0  0  0
  -26.6421  -28.5593   17.4338 N   0  0  0  0  0  0  0  0  0  0  0  0
  -28.9104  -24.8251   16.2907 N   0  0  0  0  0  0  0  0  0  0  0  0
  -19.0664  -25.1612   22.8864 N   0  0  0  0  0  0  0  0  0  0  0  0
  -25.1304  -15.1870   20.7952 N   0  0  0  0  0  0  0  0  0  0  0  0
  -23.2725  -18.5126   26.1360 N   0  0  0  0  0  0  0  0  0  0  0  0
  -22.5943  -28.8053   21.2060 N   0  0  0  0  0  0  0  0  0  0  0  0
  -23.9893  -21.9017   27.1696 N   0  3  0  0  0  0  0  0  0  0  0  0
  -27.8491  -26.6841   15.4682 O   0  0  0  0  0  0  0  0  0  0  0  0
  -23.0617  -16.2485   20.9228 O   0  0  0  0  0  0  0  0  0  0  0  0
  -24.7899  -16.5790   24.6639 O   0  0  0  0  0  0  0  0  0  0  0  0
  -22.2227  -20.4810   25.5031 O   0  0  0  0  0  0  0  0  0  0  0  0
  -22.9873  -30.3369   22.8663 O   0  0  0  0  0  0  0  0  0  0  0  0
  -18.8971  -27.4260   23.3743 O   0  0  0  0  0  0  0  0  0  0  0  0
  -31.0338  -21.0571   19.8018 O   0  0  0  0  0  0  0  0  0  0  0  0
  -21.5060  -21.8195   18.8664 O   0  0  0  0  0  0  0  0  0  1  0  0
  -29.0346  -17.4608   23.4725 F   0  0  0  0  0  0  0  0  0  0  0  0
  -30.3095  -18.5018   19.0345 F   0  0  0  0  0  0  0  0  0  0  0  0
  1  2  1  0  0  0  0
  1  5  2  0  0  0  0
  2  6  2  0  0  0  0
  3  8  2  0  0  0  0
  3 16  1  0  0  0  0
  4  9  1  0  0  0  0
  4 16  2  0  0  0  0
  5 18  1  0  0  0  0
  6 20  1  0  0  0  0
  7 10  2  0  0  0  0
  7 19  1  0  0  0  0
  8 22  1  0  0  0  0
  9 22  2  0  0  0  0
 10 23  1  0  0  0  0
 11 12  2  0  0  0  0
 11 24  1  0  0  0  0
 12 25  1  0  0  0  0
 13 21  1  0  0  0  0
 13 23  2  0  0  0  0
 14 25  2  0  0  0  0
 14 26  1  0  0  0  0
 15 28  2  0  0  0  0
 15 81  1  0  0  0  0
 16 27  1  0  0  0  0
 17 27  1  0  0  0  0
 17 29  2  0  0  0  0
 17 31  1  0  0  0  0
 18 20  2  0  0  0  0
 18 36  1  0  0  0  0
 19 21  2  0  0  0  0
 19 37  1  0  0  0  0
 20 45  1  0  0  0  0
 21 38  1  0  0  0  0
 22 82  1  0  0  0  0
 23 83  1  0  0  0  0
 24 26  2  0  0  0  0
 24 82  1  0  0  0  0
 25 84  1  0  0  0  0
 26 85  1  0  0  0  0
 27 64  2  0  0  0  0
 28 56  1  0  0  0  0
 28 65  1  0  0  0  0
 29 66  1  0  0  0  0
 29 69  1  0  0  0  0
 30 65  2  0  0  0  0
 30 71  1  0  0  0  0
 30 81  1  0  0  0  0
 31 70  1  0  0  0  0
 31 76  2  0  0  0  0
 32 46  1  0  0  0  0
 32 72  1  0  0  0  0
 32 77  2  0  0  0  0
 33 58  1  0  0  0  0
 33 67  1  0  0  0  0
 33 78  2  0  0  0  0
 34 59  1  0  0  0  0
 34 73  1  0  0  0  0
 34 79  2  0  0  0  0
 35 68  1  0  0  0  0
 35 74  1  0  0  0  0
 35 80  2  0  0  0  0
 36 39  1  0  0  0  0
 37 46  1  0  0  0  0
 38 67  1  0  0  0  0
 39 41  1  0  0  0  0
 40 42  1  0  0  0  0
 40 43  1  0  0  0  0
 41 45  1  0  0  0  0
 42 47  1  0  0  0  0
 43 68  1  0  0  0  0
 44 47  1  0  0  0  0
 44 68  1  0  0  0  0
 45 72  1  0  0  0  0
 46 67  1  0  0  0  0
 47 66  1  0  0  0  0
 48 59  1  0  0  0  0
 49 60  1  0  0  0  0
 50 61  1  0  0  0  0
 51 62  1  0  0  0  0
 52 63  1  0  0  0  0
 53 63  1  0  0  0  0
 54 63  1  0  0  0  0
 55 75  1  0  0  0  0
 56 74  1  0  0  0  0
 57 60  1  0  0  0  0
 57 62  1  0  0  0  0
 58 63  1  0  0  0  0
 58 73  1  0  0  0  0
 59 75  1  0  0  0  0
 60 61  1  0  0  0  0
 61 71  1  0  0  0  0
 62 83  1  0  0  0  0
 64 66  1  0  0  0  0
M  CHG  1  75   1
M  ISO  4  35 100  62 101  74 100  83 101
M  END
> <Batch ID>
0192

> <Smiles>
CNC(C)C(=O)NC(C(=O)N1Cc2cc([101O:1][101CH:1](C)CC(C)C(C)Nc3nc(C[100NH:0][100C:0](=O)N4CCCC(n5nc(-c6ccc(Oc7ccc(F)cc7F)cc6)c(C(N)=O)c5N)C4)co3)ccc2CC1C(=O)NC1CCCc2ccccc21)C(C)(C)C

> <Shape>
0.201

> <Color>
0.064

> <Negative vol penalty>
0.000

$$$$

  -OEChem-04052305273D

 87 95  0     1  0  0  0  0  0999 V2000
  -19.4304  -28.5674   23.5537 C   0  0  0  0  0  0  0  0  0  0  0  0
  -19.8321  -27.2752   23.8768 C   0  0  0  0  0  0  0  0  0  0  0  0
  -29.8729  -23.5800   21.0089 C   0  0  0  0  0  0  0  0  0  0  0  0
  -27.7131  -23.0714   20.0531 C   0  0  0  0  0  0  0  0  0  0  0  0
  -18.9509  -28.8479   22.2749 C   0  0  0  0  0  0  0  0  0  0  0  0
  -19.7535  -26.2625   22.9215 C   0  0  0  0  0  0  0  0  0  0  0  0
  -23.5965  -21.5440   22.2338 C   0  0  0  0  0  0  0  0  0  0  0  0
  -29.7043  -24.9238   20.6750 C   0  0  0  0  0  0  0  0  0  0  0  0
  -27.5444  -24.4152   19.7192 C   0  0  0  0  0  0  0  0  0  0  0  0
  -23.5319  -20.2138   22.6465 C   0  0  0  0  0  0  0  0  0  0  0  0
  -26.3875  -27.7722   18.9380 C   0  0  0  0  0  0  0  0  0  0  0  0
  -25.1516  -28.3586   19.2101 C   0  0  0  0  0  0  0  0  0  0  0  0
  -22.6681  -19.5906   20.4821 C   0  0  0  0  0  0  0  0  0  0  0  0
  -25.4361  -27.8684   21.5587 C   0  0  0  0  0  0  0  0  0  0  0  0
  -28.8773  -22.6538   20.6979 C   0  0  0  0  0  0  0  0  0  0  0  0
  -28.6698  -20.6325   22.2403 C   0  0  0  0  0  0  0  0  0  0  0  0
  -18.8755  -27.8402   21.3005 C   0  0  0  0  0  0  0  0  0  0  0  0
  -23.1864  -21.9097   20.9437 C   0  0  0  0  0  0  0  0  0  0  0  0
  -19.2713  -26.5295   21.6289 C   0  0  0  0  0  0  0  0  0  0  0  0
  -22.7309  -20.9257   20.0546 C   0  0  0  0  0  0  0  0  0  0  0  0
  -28.5400  -25.3414   20.0302 C   0  0  0  0  0  0  0  0  0  0  0  0
  -23.0650  -19.2374   21.7715 C   0  0  0  0  0  0  0  0  0  0  0  0
  -27.1478  -27.2337   19.9761 C   0  0  0  0  0  0  0  0  0  0  0  0
  -24.6759  -28.4068   20.5205 C   0  0  0  0  0  0  0  0  0  0  0  0
  -26.6721  -27.2819   21.2865 C   0  0  0  0  0  0  0  0  0  0  0  0
  -29.0512  -21.2655   21.0421 C   0  0  0  0  0  0  0  0  0  0  0  0
  -29.0509  -19.3235   22.0735 C   0  0  0  0  0  0  0  0  0  0  0  0
  -26.4156  -13.1873   20.4950 C   0  0  0  0  0  0  0  0  0  0  0  0
  -24.4009  -12.1998   20.4461 C   0  0  0  0  0  0  0  0  0  0  0  0
  -24.6405  -14.2135   21.4077 C   0  0  0  0  0  0  0  0  0  0  0  0
  -28.0283  -21.1789   23.4003 C   0  0  0  0  0  0  0  0  0  0  0  0
  -20.9221  -23.8016   19.7616 C   0  0  0  0  0  0  0  0  0  0  0  0
  -22.3664  -23.1147   16.9395 C   0  0  0  0  0  0  0  0  0  0  0  0
  -24.3146  -20.9783   15.1265 C   0  0  0  0  0  0  0  0  0  0  0  0
  -29.3878  -14.7135   18.9463 C   0  0  0  0  0  0  0  0  0  0  0  0
  -18.3061  -28.1811   19.9462 C   0  0  0  0  0  0  0  0  0  0  0  0
  -23.2874  -23.3449   20.5049 C   0  0  0  0  0  0  0  0  0  0  0  0
  -22.2978  -21.2633   18.6522 C   0  0  0  0  0  0  0  0  0  0  0  0
  -18.6063  -27.1329   18.8778 C   0  0  0  0  0  0  0  0  0  0  0  0
  -31.9388  -17.1617   18.5276 C   0  0  0  0  0  0  0  0  0  0  0  0
  -18.3269  -25.7315   19.4114 C   0  0  0  0  0  0  0  0  0  0  0  0
  -31.3809  -18.3965   19.2376 C   0  0  0  0  0  0  0  0  0  0  0  0
  -30.8397  -16.3737   17.8184 C   0  0  0  0  0  0  0  0  0  0  0  0
  -29.1397  -17.2324   19.3825 C   0  0  0  0  0  0  0  0  0  0  0  0
  -19.2244  -25.4094   20.6123 C   0  0  1  0  0  0  0  0  0  0  0  0
  -22.3596  -23.6807   19.3414 C   0  0  1  0  0  0  0  0  0  0  0  0
  -30.2023  -18.0287   20.1590 C   0  0  2  0  0  0  0  0  0  0  0  0
  -28.5869  -13.2306   22.6260 C   0  0  0  0  0  0  0  0  0  0  0  0
  -25.2913  -20.6659   12.8361 C   0  0  0  0  0  0  0  0  0  0  0  0
  -24.2094  -16.6921   25.5470 C   0  0  0  0  0  0  0  0  0  0  0  0
  -22.2894  -18.1710   24.9271 C   0  0  0  0  0  0  0  0  0  0  0  0
  -19.6336  -22.2484   15.8950 C   0  0  0  0  0  0  0  0  0  0  0  0
  -20.8002  -21.0876   14.0082 C   0  0  0  0  0  0  0  0  0  0  0  0
  -21.0049  -23.5603   14.2663 C   0  0  0  0  0  0  0  0  0  0  0  0
  -27.0830  -21.0497   16.1705 C   0  0  0  0  0  0  0  0  0  0  0  0
  -28.7254  -12.5307   21.2796 C   0  0  0  0  0  0  0  0  0  0  0  0
  -24.8565  -16.4520   22.4884 C   0  0  0  0  0  0  0  0  0  0  0  0
  -27.8688  -13.1732   20.1625 C   0  0  2  0  0  0  0  0  0  0  0  0
  -22.2071  -22.0408   15.8905 C   0  0  1  0  0  0  0  0  0  0  0  0
  -25.5168  -21.2240   14.2326 C   0  0  2  0  0  0  0  0  0  0  0  0
  -23.2325  -17.0670   24.4312 C   0  0  0  0  0  0  0  0  0  0  0  0
  -23.9576  -17.5084   23.1389 C   0  0  2  0  0  0  0  0  0  1  0  0
  -20.9177  -22.2279   15.0420 C   0  0  0  0  0  0  0  0  0  0  0  0
  -29.6303  -20.4277   20.1780 N   0  0  0  0  0  0  0  0  0  0  0  0
  -25.6994  -12.1168   20.1149 N   0  0  0  0  0  0  0  0  0  0  0  0
  -25.9557  -14.2698   21.1430 N   0  0  0  0  0  0  0  0  0  0  0  0
  -23.8018  -13.2139   21.0908 N   0  0  0  0  0  0  0  0  0  0  0  0
  -29.6158  -19.2548   20.8340 N   0  0  0  0  0  0  0  0  0  0  0  0
  -22.4093  -22.6813   18.2722 N   0  0  0  0  0  0  0  0  0  0  0  0
  -29.7531  -16.0552   18.7477 N   0  0  0  0  0  0  0  0  0  0  0  0
  -28.9548  -18.2362   22.8677 N   0  0  0  0  0  0  0  0  0  0  0  0
  -23.5826  -11.1089   20.0800 N   0  0  0  0  0  0  0  0  0  0  0  0
  -27.7057  -22.5428   23.4053 N   0  0  0  0  0  0  0  0  0  0  0  0
  -24.0935  -15.2966   22.0758 N   0  0  0  0  0  0  0  0  0  0  0  0
  -20.5599  -25.0714   20.1690 N   0  0  0  0  0  0  0  0  0  0  0  0
  -23.4407  -22.0447   15.1117 N   0  0  0  0  0  0  0  0  0  0  0  0
  -28.3528  -14.4990   19.8483 N   0  0  0  0  0  0  0  0  0  0  0  0
  -26.7302  -20.5770   14.8071 N   0  3  0  0  0  0  0  0  0  0  0  0
  -27.7642  -20.4818   24.4092 O   0  0  0  0  0  0  0  0  0  0  0  0
  -20.1949  -22.8162   19.7180 O   0  0  0  0  0  0  0  0  0  0  0  0
  -22.4569  -24.2939   16.5889 O   0  0  0  0  0  0  0  0  0  0  0  0
  -24.1639  -19.9422   15.7703 O   0  0  0  0  0  0  0  0  0  0  0  0
  -29.9464  -13.7758   18.3669 O   0  0  0  0  0  0  0  0  0  0  0  0
  -28.3750  -26.6526   19.7044 O   0  0  0  0  0  0  0  0  0  0  0  0
  -23.0003  -17.9384   22.1720 O   0  0  0  0  0  0  0  0  0  1  0  0
  -23.4897  -28.9714   20.7819 F   0  0  0  0  0  0  0  0  0  0  0  0
  -27.3985  -26.7673   22.2882 F   0  0  0  0  0  0  0  0  0  0  0  0
  1  2  1  0  0  0  0
  1  5  2  0  0  0  0
  2  6  2  0  0  0  0
  3  8  2  0  0  0  0
  3 15  1  0  0  0  0
  4  9  1  0  0  0  0
  4 15  2  0  0  0  0
  5 17  1  0  0  0  0
  6 19  1  0  0  0  0
  7 10  2  0  0  0  0
  7 18  1  0  0  0  0
  8 21  1  0  0  0  0
  9 21  2  0  0  0  0
 10 22  1  0  0  0  0
 11 12  2  0  0  0  0
 11 23  1  0  0  0  0
 12 24  1  0  0  0  0
 13 20  1  0  0  0  0
 13 22  2  0  0  0  0
 14 24  2  0  0  0  0
 14 25  1  0  0  0  0
 15 26  1  0  0  0  0
 16 26  1  0  0  0  0
 16 27  2  0  0  0  0
 16 31  1  0  0  0  0
 17 19  2  0  0  0  0
 17 36  1  0  0  0  0
 18 20  2  0  0  0  0
 18 37  1  0  0  0  0
 19 45  1  0  0  0  0
 20 38  1  0  0  0  0
 21 84  1  0  0  0  0
 22 85  1  0  0  0  0
 23 25  2  0  0  0  0
 23 84  1  0  0  0  0
 24 86  1  0  0  0  0
 25 87  1  0  0  0  0
 26 64  2  0  0  0  0
 27 68  1  0  0  0  0
 27 71  1  0  0  0  0
 28 58  1  0  0  0  0
 28 65  1  0  0  0  0
 28 66  2  0  0  0  0
 29 65  2  0  0  0  0
 29 67  1  0  0  0  0
 29 72  1  0  0  0  0
 30 66  1  0  0  0  0
 30 67  2  0  0  0  0
 30 74  1  0  0  0  0
 31 73  1  0  0  0  0
 31 79  2  0  0  0  0
 32 46  1  0  0  0  0
 32 75  1  0  0  0  0
 32 80  2  0  0  0  0
 33 59  1  0  0  0  0
 33 69  1  0  0  0  0
 33 81  2  0  0  0  0
 34 60  1  0  0  0  0
 34 76  1  0  0  0  0
 34 82  2  0  0  0  0
 35 70  1  0  0  0  0
 35 77  1  0  0  0  0
 35 83  2  0  0  0  0
 36 39  1  0  0  0  0
 37 46  1  0  0  0  0
 38 69  1  0  0  0  0
 39 41  1  0  0  0  0
 40 42  1  0  0  0  0
 40 43  1  0  0  0  0
 41 45  1  0  0  0  0
 42 47  1  0  0  0  0
 43 70  1  0  0  0  0
 44 47  1  0  0  0  0
 44 70  1  0  0  0  0
 45 75  1  0  0  0  0
 46 69  1  0  0  0  0
 47 68  1  0  0  0  0
 48 56  1  0  0  0  0
 49 60  1  0  0  0  0
 50 61  1  0  0  0  0
 51 61  1  0  0  0  0
 52 63  1  0  0  0  0
 53 63  1  0  0  0  0
 54 63  1  0  0  0  0
 55 78  1  0  0  0  0
 56 58  1  0  0  0  0
 57 62  1  0  0  0  0
 57 74  1  0  0  0  0
 58 77  1  0  0  0  0
 59 63  1  0  0  0  0
 59 76  1  0  0  0  0
 60 78  1  0  0  0  0
 61 62  1  0  0  0  0
 62 85  1  0  0  0  0
 64 68  1  0  0  0  0
M  CHG  1  78   1
M  ISO  4  35 100  62 101  77 100  85 101
M  END
> <Batch ID>
0192

> <Smiles>
CCC([100NH:0][100C:0](=O)N1CCCC(n2nc(-c3ccc(Oc4ccc(F)cc4F)cc3)c(C(N)=O)c2N)C1)c1nc(N)nc(NC[101CH:1](C(C)C)[101O:1]c2ccc3c(c2)CN(C(=O)C(NC(=O)C(C)NC)C(C)(C)C)C(C(=O)NC2CCCc4ccccc42)C3)n1

> <Shape>
0.197

> <Color>
0.091

> <Negative vol penalty>
0.000

$$$$

  -OEChem-04052305273D

 82 90  0     1  0  0  0  0  0999 V2000
  -18.5863  -29.0910   18.5127 C   0  0  0  0  0  0  0  0  0  0  0  0
  -19.9720  -28.9866   18.4454 C   0  0  0  0  0  0  0  0  0  0  0  0
  -26.7672  -12.4222   21.8364 C   0  0  0  0  0  0  0  0  0  0  0  0
  -26.1134  -14.0507   20.1758 C   0  0  0  0  0  0  0  0  0  0  0  0
  -17.9778  -29.5319   19.6871 C   0  0  0  0  0  0  0  0  0  0  0  0
  -20.7500  -29.3241   19.5524 C   0  0  0  0  0  0  0  0  0  0  0  0
  -24.4041  -25.9386   20.4635 C   0  0  0  0  0  0  0  0  0  0  0  0
  -25.4741  -11.8995   21.8331 C   0  0  0  0  0  0  0  0  0  0  0  0
  -24.8202  -13.5279   20.1724 C   0  0  0  0  0  0  0  0  0  0  0  0
  -25.5400  -25.9951   19.6570 C   0  0  0  0  0  0  0  0  0  0  0  0
  -23.6246   -9.8407   19.8905 C   0  0  0  0  0  0  0  0  0  0  0  0
  -23.4864   -8.4532   19.8527 C   0  0  0  0  0  0  0  0  0  0  0  0
  -26.7124  -27.1789   21.4015 C   0  0  0  0  0  0  0  0  0  0  0  0
  -22.3012   -8.5140   21.9572 C   0  0  0  0  0  0  0  0  0  0  0  0
  -30.7933  -23.6733   21.2054 C   0  0  0  0  0  0  0  0  0  0  0  0
  -27.0869  -13.4979   21.0079 C   0  0  0  0  0  0  0  0  0  0  0  0
  -29.5017  -13.6435   20.1985 C   0  0  0  0  0  0  0  0  0  0  0  0
  -18.7482  -29.8657   20.8121 C   0  0  0  0  0  0  0  0  0  0  0  0
  -24.4104  -26.5124   21.7430 C   0  0  0  0  0  0  0  0  0  0  0  0
  -20.1512  -29.7711   20.7425 C   0  0  0  0  0  0  0  0  0  0  0  0
  -25.5761  -27.1261   22.2233 C   0  0  0  0  0  0  0  0  0  0  0  0
  -24.5005  -12.4523   21.0011 C   0  0  0  0  0  0  0  0  0  0  0  0
  -26.6934  -26.6178   20.1249 C   0  0  0  0  0  0  0  0  0  0  0  0
  -23.1012  -10.5648   20.9617 C   0  0  0  0  0  0  0  0  0  0  0  0
  -22.8246   -7.7899   20.8860 C   0  0  0  0  0  0  0  0  0  0  0  0
  -22.4395   -9.9015   21.9950 C   0  0  0  0  0  0  0  0  0  0  0  0
  -28.4224  -14.0387   21.0113 C   0  0  0  0  0  0  0  0  0  0  0  0
  -30.1250  -23.8428   20.0129 C   0  0  0  0  0  0  0  0  0  0  0  0
  -30.1456  -21.4807   21.2567 C   0  0  0  0  0  0  0  0  0  0  0  0
  -29.4766  -21.6503   20.0646 C   0  0  0  0  0  0  0  0  0  0  0  0
  -30.5389  -14.4562   20.5859 C   0  0  0  0  0  0  0  0  0  0  0  0
  -29.5613  -12.6321   19.1839 C   0  0  0  0  0  0  0  0  0  0  0  0
  -22.7860  -28.8469   23.1625 C   0  0  0  0  0  0  0  0  0  0  0  0
  -24.3995  -27.8426   25.7913 C   0  0  0  0  0  0  0  0  0  0  0  0
  -27.1288  -26.2529   27.0838 C   0  0  0  0  0  0  0  0  0  0  0  0
  -30.7615  -19.8739   23.0967 C   0  0  0  0  0  0  0  0  0  0  0  0
  -18.0481  -30.3826   22.0439 C   0  0  0  0  0  0  0  0  0  0  0  0
  -23.1855  -26.4195   22.6110 C   0  0  0  0  0  0  0  0  0  0  0  0
  -25.6410  -27.7395   23.5973 C   0  0  0  0  0  0  0  0  0  0  0  0
  -18.9226  -30.3631   23.2949 C   0  0  0  0  0  0  0  0  0  0  0  0
  -32.1877  -16.8734   24.3771 C   0  0  0  0  0  0  0  0  0  0  0  0
  -20.3017  -30.9400   22.9912 C   0  0  0  0  0  0  0  0  0  0  0  0
  -31.4866  -15.7702   23.5810 C   0  0  0  0  0  0  0  0  0  0  0  0
  -31.2436  -18.0319   24.6934 C   0  0  0  0  0  0  0  0  0  0  0  0
  -29.8465  -17.4973   22.7360 C   0  0  0  0  0  0  0  0  0  0  0  0
  -21.0278  -30.1043   21.9302 C   0  0  1  0  0  0  0  0  0  0  0  0
  -23.1411  -27.4887   23.6983 C   0  0  1  0  0  0  0  0  0  0  0  0
  -30.7746  -16.3382   22.3376 C   0  0  2  0  0  0  0  0  0  0  0  0
  -28.1898  -25.6220   29.2686 C   0  0  0  0  0  0  0  0  0  0  0  0
  -30.1324  -26.6334   17.5563 C   0  0  0  0  0  0  0  0  0  0  0  0
  -25.3189  -30.7266   26.1749 C   0  0  0  0  0  0  0  0  0  0  0  0
  -27.0806  -29.8832   27.7413 C   0  0  0  0  0  0  0  0  0  0  0  0
  -24.6687  -29.5497   28.2836 C   0  0  0  0  0  0  0  0  0  0  0  0
  -26.9681  -23.3642   26.4604 C   0  0  0  0  0  0  0  0  0  0  0  0
  -27.9984  -25.6079   18.4123 C   0  0  0  0  0  0  0  0  0  1  0  0
  -25.7221  -28.1893   26.4311 C   0  0  1  0  0  0  0  0  0  0  0  0
  -27.2586  -25.1804   28.1503 C   0  0  2  0  0  0  0  0  0  0  0  0
  -29.4900  -25.3935   18.1642 C   0  0  2  0  0  0  0  0  0  0  0  0
  -25.6961  -29.5775   27.1310 C   0  0  0  0  0  0  0  0  0  0  0  0
  -30.8157  -22.4892   21.8487 N   0  0  0  0  0  0  0  0  0  0  0  0
  -28.7442  -15.0257   21.8517 N   0  0  0  0  0  0  0  0  0  0  0  0
  -29.4546  -22.8344   19.4211 N   0  0  0  0  0  0  0  0  0  0  0  0
  -30.0375  -15.2574   21.5691 N   0  0  0  0  0  0  0  0  0  0  0  0
  -24.4156  -27.6287   24.4057 N   0  0  0  0  0  0  0  0  0  0  0  0
  -30.6087  -18.5212   23.4677 N   0  0  0  0  0  0  0  0  0  0  0  0
  -28.7888  -20.5586   19.4871 N   0  0  0  0  0  0  0  0  0  0  0  0
  -31.8219  -14.5565   20.1780 N   0  0  0  0  0  0  0  0  0  0  0  0
  -28.4043  -11.8893   18.9121 N   0  0  0  0  0  0  0  0  0  0  0  0
  -30.1406  -20.2161   21.8958 N   0  0  0  0  0  0  0  0  0  0  0  0
  -30.1516  -25.0905   19.4175 N   0  0  0  0  0  0  0  0  0  0  0  0
  -21.5643  -28.8958   22.5187 N   0  0  0  0  0  0  0  0  0  0  0  0
  -26.0499  -27.0787   27.3186 N   0  0  0  0  0  0  0  0  0  0  0  0
  -27.7981  -23.9237   27.5581 N   0  3  0  0  0  0  0  0  0  0  0  0
  -30.6141  -12.3831   18.5489 O   0  0  0  0  0  0  0  0  0  0  0  0
  -23.5621  -29.7815   23.3229 O   0  0  0  0  0  0  0  0  0  0  0  0
  -23.3907  -27.7575   26.4960 O   0  0  0  0  0  0  0  0  0  0  0  0
  -27.9089  -26.3508   26.1391 O   0  0  0  0  0  0  0  0  0  0  0  0
  -31.4192  -20.6637   23.7790 O   0  0  0  0  0  0  0  0  0  0  0  0
  -23.2386  -11.9423   20.9973 O   0  0  0  0  0  0  0  0  0  0  0  0
  -27.8032  -26.6750   19.3394 O   0  0  0  0  0  0  0  0  0  1  0  0
  -22.6906   -6.4577   20.8489 F   0  0  0  0  0  0  0  0  0  0  0  0
  -21.9335  -10.5919   23.0260 F   0  0  0  0  0  0  0  0  0  0  0  0
  1  2  1  0  0  0  0
  1  5  2  0  0  0  0
  2  6  2  0  0  0  0
  3  8  2  0  0  0  0
  3 16  1  0  0  0  0
  4  9  1  0  0  0  0
  4 16  2  0  0  0  0
  5 18  1  0  0  0  0
  6 20  1  0  0  0  0
  7 10  2  0  0  0  0
  7 19  1  0  0  0  0
  8 22  1  0  0  0  0
  9 22  2  0  0  0  0
 10 23  1  0  0  0  0
 11 12  2  0  0  0  0
 11 24  1  0  0  0  0
 12 25  1  0  0  0  0
 13 21  1  0  0  0  0
 13 23  2  0  0  0  0
 14 25  2  0  0  0  0
 14 26  1  0  0  0  0
 15 28  1  0  0  0  0
 15 60  2  0  0  0  0
 16 27  1  0  0  0  0
 17 27  1  0  0  0  0
 17 31  2  0  0  0  0
 17 32  1  0  0  0  0
 18 20  2  0  0  0  0
 18 37  1  0  0  0  0
 19 21  2  0  0  0  0
 19 38  1  0  0  0  0
 20 46  1  0  0  0  0
 21 39  1  0  0  0  0
 22 79  1  0  0  0  0
 23 80  1  0  0  0  0
 24 26  2  0  0  0  0
 24 79  1  0  0  0  0
 25 81  1  0  0  0  0
 26 82  1  0  0  0  0
 27 61  2  0  0  0  0
 28 62  2  0  0  0  0
 28 70  1  0  0  0  0
 29 30  2  0  0  0  0
 29 60  1  0  0  0  0
 29 69  1  0  0  0  0
 30 62  1  0  0  0  0
 30 66  1  0  0  0  0
 31 63  1  0  0  0  0
 31 67  1  0  0  0  0
 32 68  1  0  0  0  0
 32 74  2  0  0  0  0
 33 47  1  0  0  0  0
 33 71  1  0  0  0  0
 33 75  2  0  0  0  0
 34 56  1  0  0  0  0
 34 64  1  0  0  0  0
 34 76  2  0  0  0  0
 35 57  1  0  0  0  0
 35 72  1  0  0  0  0
 35 77  2  0  0  0  0
 36 65  1  0  0  0  0
 36 69  1  0  0  0  0
 36 78  2  0  0  0  0
 37 40  1  0  0  0  0
 38 47  1  0  0  0  0
 39 64  1  0  0  0  0
 40 42  1  0  0  0  0
 41 43  1  0  0  0  0
 41 44  1  0  0  0  0
 42 46  1  0  0  0  0
 43 48  1  0  0  0  0
 44 65  1  0  0  0  0
 45 48  1  0  0  0  0
 45 65  1  0  0  0  0
 46 71  1  0  0  0  0
 47 64  1  0  0  0  0
 48 63  1  0  0  0  0
 49 57  1  0  0  0  0
 50 58  1  0  0  0  0
 51 59  1  0  0  0  0
 52 59  1  0  0  0  0
 53 59  1  0  0  0  0
 54 73  1  0  0  0  0
 55 58  1  0  0  0  0
 55 80  1  0  0  0  0
 56 59  1  0  0  0  0
 56 72  1  0  0  0  0
 57 73  1  0  0  0  0
 58 70  1  0  0  0  0
 61 63  1  0  0  0  0
M  CHG  1  73   1
M  ISO  4  36 100  55 101  69 100  80 101
M  END
> <Batch ID>
0192

> <Smiles>
CNC(C)C(=O)NC(C(=O)N1Cc2cc([101O:1][101CH2:1]C(C)Nc3cnc([100NH:0][100C:0](=O)N4CCCC(n5nc(-c6ccc(Oc7ccc(F)cc7F)cc6)c(C(N)=O)c5N)C4)c(N)n3)ccc2CC1C(=O)NC1CCCc2ccccc21)C(C)(C)C

> <Shape>
0.247

> <Color>
0.098

> <Negative vol penalty>
0.000

$$$$

  -OEChem-04052305273D

 87 95  0     1  0  0  0  0  0999 V2000
  -17.2663  -18.0574   13.2221 C   0  0  0  0  0  0  0  0  0  0  0  0
  -18.2921  -17.3250   13.8110 C   0  0  0  0  0  0  0  0  0  0  0  0
  -26.5334  -28.5251   18.9705 C   0  0  0  0  0  0  0  0  0  0  0  0
  -26.1470  -27.5831   21.1615 C   0  0  0  0  0  0  0  0  0  0  0  0
  -17.2078  -19.4392   13.3982 C   0  0  0  0  0  0  0  0  0  0  0  0
  -19.2606  -17.9743   14.5757 C   0  0  0  0  0  0  0  0  0  0  0  0
  -22.0815  -15.8036   19.5593 C   0  0  0  0  0  0  0  0  0  0  0  0
  -25.6503  -29.5647   19.2616 C   0  0  0  0  0  0  0  0  0  0  0  0
  -25.2639  -28.6228   21.4527 C   0  0  0  0  0  0  0  0  0  0  0  0
  -23.3258  -15.2030   19.7461 C   0  0  0  0  0  0  0  0  0  0  0  0
  -25.4569  -31.8643   22.3887 C   0  0  0  0  0  0  0  0  0  0  0  0
  -25.5702  -32.4787   23.6358 C   0  0  0  0  0  0  0  0  0  0  0  0
  -24.2560  -17.3388   20.3724 C   0  0  0  0  0  0  0  0  0  0  0  0
  -23.2987  -31.8411   24.1563 C   0  0  0  0  0  0  0  0  0  0  0  0
  -30.0261  -18.5821   22.7369 C   0  0  0  0  0  0  0  0  0  0  0  0
  -26.7818  -27.5342   19.9204 C   0  0  0  0  0  0  0  0  0  0  0  0
  -29.0816  -26.4324   19.8533 C   0  0  0  0  0  0  0  0  0  0  0  0
  -18.1707  -20.1045   14.1734 C   0  0  0  0  0  0  0  0  0  0  0  0
  -21.9174  -17.1806   19.7675 C   0  0  0  0  0  0  0  0  0  0  0  0
  -19.2157  -19.3666   14.7613 C   0  0  0  0  0  0  0  0  0  0  0  0
  -23.0081  -17.9540   20.1901 C   0  0  0  0  0  0  0  0  0  0  0  0
  -25.0155  -29.6136   20.5027 C   0  0  0  0  0  0  0  0  0  0  0  0
  -24.4139  -15.9711   20.1499 C   0  0  0  0  0  0  0  0  0  0  0  0
  -24.2645  -31.2383   22.0254 C   0  0  0  0  0  0  0  0  0  0  0  0
  -24.4912  -32.4671   24.5196 C   0  0  0  0  0  0  0  0  0  0  0  0
  -23.1854  -31.2267   22.9092 C   0  0  0  0  0  0  0  0  0  0  0  0
  -27.6935  -26.4597   19.6200 C   0  0  0  0  0  0  0  0  0  0  0  0
  -30.2539  -18.0614   21.4803 C   0  0  0  0  0  0  0  0  0  0  0  0
  -29.4825  -25.2010   19.3956 C   0  0  0  0  0  0  0  0  0  0  0  0
  -29.6701  -16.2112   22.5032 C   0  0  0  0  0  0  0  0  0  0  0  0
  -29.9324  -27.4308   20.4321 C   0  0  0  0  0  0  0  0  0  0  0  0
  -21.0833  -19.6422   17.9376 C   0  0  0  0  0  0  0  0  0  0  0  0
  -21.1650  -21.2584   20.7490 C   0  0  0  0  0  0  0  0  0  0  0  0
  -22.3714  -21.4716   23.9342 C   0  0  0  0  0  0  0  0  0  0  0  0
  -28.7512  -19.6828   18.9966 C   0  0  0  0  0  0  0  0  0  0  0  0
  -18.0928  -21.6057   14.2963 C   0  0  0  0  0  0  0  0  0  0  0  0
  -20.5625  -17.8085   19.5876 C   0  0  0  0  0  0  0  0  0  0  0  0
  -22.8797  -19.4325   20.4467 C   0  0  0  0  0  0  0  0  0  0  0  0
  -18.9451  -22.1690   15.4306 C   0  0  0  0  0  0  0  0  0  0  0  0
  -27.0037  -21.7348   16.6702 C   0  0  0  0  0  0  0  0  0  0  0  0
  -20.3387  -21.5493   15.4096 C   0  0  0  0  0  0  0  0  0  0  0  0
  -27.1366  -23.1430   17.2527 C   0  0  0  0  0  0  0  0  0  0  0  0
  -26.8479  -20.6831   17.7664 C   0  0  0  0  0  0  0  0  0  0  0  0
  -28.0298  -22.1169   19.3853 C   0  0  0  0  0  0  0  0  0  0  0  0
  -20.2709  -20.0316   15.6183 C   0  0  1  0  0  0  0  0  0  0  0  0
  -20.6295  -19.3109   19.3312 C   0  0  1  0  0  0  0  0  0  0  0  0
  -28.2454  -23.2058   18.3204 C   0  0  2  0  0  0  0  0  0  0  0  0
  -22.2897  -22.9249   25.9784 C   0  0  0  0  0  0  0  0  0  0  0  0
  -29.5893  -14.4856   17.9881 C   0  0  0  0  0  0  0  0  0  0  0  0
  -29.4453  -12.0278   17.5443 C   0  0  0  0  0  0  0  0  0  0  0  0
  -29.6781  -12.4994   22.3555 C   0  0  0  0  0  0  0  0  0  0  0  0
  -23.0486  -23.2483   19.4065 C   0  0  0  0  0  0  0  0  0  0  0  0
  -23.6682  -24.0902   21.6815 C   0  0  0  0  0  0  0  0  0  0  0  0
  -21.3139  -24.2848   20.8799 C   0  0  0  0  0  0  0  0  0  0  0  0
  -21.2039  -19.3011   25.5727 C   0  0  0  0  0  0  0  0  0  0  0  0
  -30.6859  -18.8277   20.2946 C   0  0  0  0  0  0  0  0  0  0  0  0
  -26.8976  -13.7311   21.5586 C   0  0  0  0  0  0  0  0  0  0  0  0
  -28.2889  -12.9624   19.5709 C   0  0  0  0  0  0  0  0  0  0  0  0
  -25.6387  -14.0209   20.7438 C   0  0  0  0  0  0  0  0  0  1  0  0
  -22.2223  -22.0132   21.5179 C   0  0  1  0  0  0  0  0  0  0  0  0
  -21.6774  -21.7333   25.2588 C   0  0  2  0  0  0  0  0  0  0  0  0
  -29.5074  -13.1025   18.6346 C   0  0  0  0  0  0  0  0  0  0  0  0
  -28.2169  -13.9432   20.7713 C   0  0  2  0  0  0  0  0  0  0  0  0
  -29.4637  -13.8593   21.6961 C   0  0  1  0  0  0  0  0  0  0  0  0
  -22.5665  -23.3816   20.8648 C   0  0  0  0  0  0  0  0  0  0  0  0
  -27.2429  -25.3351   19.0577 N   0  0  0  0  0  0  0  0  0  0  0  0
  -30.0507  -16.7019   21.3445 N   0  0  0  0  0  0  0  0  0  0  0  0
  -28.3542  -24.5896   18.9336 N   0  0  0  0  0  0  0  0  0  0  0  0
  -21.5360  -20.0014   20.2509 N   0  0  0  0  0  0  0  0  0  0  0  0
  -27.9316  -20.7956   18.7455 N   0  0  0  0  0  0  0  0  0  0  0  0
  -30.6865  -24.5925   19.3471 N   0  0  0  0  0  0  0  0  0  0  0  0
  -29.3571  -28.6388   20.8491 N   0  0  0  0  0  0  0  0  0  0  0  0
  -29.3810  -14.8796   22.7267 N   0  0  0  0  0  0  0  0  0  0  0  0
  -20.0570  -19.7227   17.0159 N   0  0  0  0  0  0  0  0  0  0  0  0
  -21.7372  -22.1113   22.8902 N   0  0  0  0  0  0  0  0  0  0  0  0
  -29.7582  -19.8766   19.9341 N   0  0  0  0  0  0  0  0  0  0  0  0
  -21.7879  -20.5410   26.1459 N   0  3  0  0  0  0  0  0  0  0  0  0
  -31.1690  -27.2632   20.5601 O   0  0  0  0  0  0  0  0  0  0  0  0
  -22.2762  -19.8137   17.7154 O   0  0  0  0  0  0  0  0  0  0  0  0
  -20.0487  -21.7623   20.6020 O   0  0  0  0  0  0  0  0  0  0  0  0
  -23.3777  -20.7729   23.8361 O   0  0  0  0  0  0  0  0  0  0  0  0
  -28.6001  -18.5984   18.4236 O   0  0  0  0  0  0  0  0  0  0  0  0
  -24.1538  -30.6280   20.7873 O   0  0  0  0  0  0  0  0  0  0  0  0
  -25.6377  -15.3836   20.3335 O   0  0  0  0  0  0  0  0  0  1  0  0
  -24.6006  -33.0559   25.7178 F   0  0  0  0  0  0  0  0  0  0  0  0
  -22.0377  -30.6259   22.5662 F   0  0  0  0  0  0  0  0  0  0  0  0
  -29.5353  -17.3282   23.7990 S   0  0  0  0  0  0  0  0  0  0  0  0
  1  2  1  0  0  0  0
  1  5  2  0  0  0  0
  2  6  2  0  0  0  0
  3  8  2  0  0  0  0
  3 16  1  0  0  0  0
  4  9  1  0  0  0  0
  4 16  2  0  0  0  0
  5 18  1  0  0  0  0
  6 20  1  0  0  0  0
  7 10  2  0  0  0  0
  7 19  1  0  0  0  0
  8 22  1  0  0  0  0
  9 22  2  0  0  0  0
 10 23  1  0  0  0  0
 11 12  2  0  0  0  0
 11 24  1  0  0  0  0
 12 25  1  0  0  0  0
 13 21  1  0  0  0  0
 13 23  2  0  0  0  0
 14 25  2  0  0  0  0
 14 26  1  0  0  0  0
 15 28  2  0  0  0  0
 15 87  1  0  0  0  0
 16 27  1  0  0  0  0
 17 27  1  0  0  0  0
 17 29  2  0  0  0  0
 17 31  1  0  0  0  0
 18 20  2  0  0  0  0
 18 36  1  0  0  0  0
 19 21  2  0  0  0  0
 19 37  1  0  0  0  0
 20 45  1  0  0  0  0
 21 38  1  0  0  0  0
 22 83  1  0  0  0  0
 23 84  1  0  0  0  0
 24 26  2  0  0  0  0
 24 83  1  0  0  0  0
 25 85  1  0  0  0  0
 26 86  1  0  0  0  0
 27 66  2  0  0  0  0
 28 56  1  0  0  0  0
 28 67  1  0  0  0  0
 29 68  1  0  0  0  0
 29 71  1  0  0  0  0
 30 67  2  0  0  0  0
 30 73  1  0  0  0  0
 30 87  1  0  0  0  0
 31 72  1  0  0  0  0
 31 78  2  0  0  0  0
 32 46  1  0  0  0  0
 32 74  1  0  0  0  0
 32 79  2  0  0  0  0
 33 60  1  0  0  0  0
 33 69  1  0  0  0  0
 33 80  2  0  0  0  0
 34 61  1  0  0  0  0
 34 75  1  0  0  0  0
 34 81  2  0  0  0  0
 35 70  1  0  0  0  0
 35 76  1  0  0  0  0
 35 82  2  0  0  0  0
 36 39  1  0  0  0  0
 37 46  1  0  0  0  0
 38 69  1  0  0  0  0
 39 41  1  0  0  0  0
 40 42  1  0  0  0  0
 40 43  1  0  0  0  0
 41 45  1  0  0  0  0
 42 47  1  0  0  0  0
 43 70  1  0  0  0  0
 44 47  1  0  0  0  0
 44 70  1  0  0  0  0
 45 74  1  0  0  0  0
 46 69  1  0  0  0  0
 47 68  1  0  0  0  0
 48 61  1  0  0  0  0
 49 62  1  0  0  0  0
 50 62  1  0  0  0  0
 51 64  1  0  0  0  0
 52 65  1  0  0  0  0
 53 65  1  0  0  0  0
 54 65  1  0  0  0  0
 55 77  1  0  0  0  0
 56 76  1  0  0  0  0
 57 59  1  0  0  0  0
 57 63  1  0  0  0  0
 58 62  1  0  0  0  0
 58 63  1  0  0  0  0
 59 84  1  0  0  0  0
 60 65  1  0  0  0  0
 60 75  1  0  0  0  0
 61 77  1  0  0  0  0
 63 64  1  0  0  0  0
 64 73  1  0  0  0  0
 66 68  1  0  0  0  0
M  CHG  1  77   1
M  ISO  4  35 100  59 101  76 100  84 101
M  END
> <Batch ID>
0192

> <Smiles>
CNC(C)C(=O)NC(C(=O)N1Cc2cc([101O:1][101CH2:1]CC(CC(C)C)C(C)Nc3nc(C[100NH:0][100C:0](=O)N4CCCC(n5nc(-c6ccc(Oc7ccc(F)cc7F)cc6)c(C(N)=O)c5N)C4)cs3)ccc2CC1C(=O)NC1CCCc2ccccc21)C(C)(C)C

> <Shape>
0.223

> <Color>
0.044

> <Negative vol penalty>
0.000

$$$$

  -OEChem-04052305273D

 88 96  0     1  0  0  0  0  0999 V2000
  -18.4897  -23.2438   26.2790 C   0  0  0  0  0  0  0  0  0  0  0  0
  -18.5057  -22.9922   24.9108 C   0  0  0  0  0  0  0  0  0  0  0  0
  -24.3560   -9.6340   20.6994 C   0  0  0  0  0  0  0  0  0  0  0  0
  -24.8768  -10.3819   22.9369 C   0  0  0  0  0  0  0  0  0  0  0  0
  -19.1185  -24.3807   26.7848 C   0  0  0  0  0  0  0  0  0  0  0  0
  -19.1496  -23.8779   24.0476 C   0  0  0  0  0  0  0  0  0  0  0  0
  -24.5325  -21.6653   19.8026 C   0  0  0  0  0  0  0  0  0  0  0  0
  -24.0710   -8.3603   21.1915 C   0  0  0  0  0  0  0  0  0  0  0  0
  -24.5917   -9.1082   23.4290 C   0  0  0  0  0  0  0  0  0  0  0  0
  -25.4283  -21.2727   18.8078 C   0  0  0  0  0  0  0  0  0  0  0  0
  -26.1265   -6.1003   23.5945 C   0  0  0  0  0  0  0  0  0  0  0  0
  -27.0172   -5.5465   24.5140 C   0  0  0  0  0  0  0  0  0  0  0  0
  -25.6437  -23.5690   18.0807 C   0  0  0  0  0  0  0  0  0  0  0  0
  -25.2423   -5.4031   26.1469 C   0  0  0  0  0  0  0  0  0  0  0  0
  -24.7590  -10.6448   21.5722 C   0  0  0  0  0  0  0  0  0  0  0  0
  -24.1568  -13.0348   20.9143 C   0  0  0  0  0  0  0  0  0  0  0  0
  -19.7788  -25.2758   25.9284 C   0  0  0  0  0  0  0  0  0  0  0  0
  -24.2004  -23.0148   19.9502 C   0  0  0  0  0  0  0  0  0  0  0  0
  -19.7868  -25.0286   24.5423 C   0  0  0  0  0  0  0  0  0  0  0  0
  -24.7566  -23.9698   19.0833 C   0  0  0  0  0  0  0  0  0  0  0  0
  -28.4708  -21.9208   21.3813 C   0  0  0  0  0  0  0  0  0  0  0  0
  -24.1888   -8.0974   22.5563 C   0  0  0  0  0  0  0  0  0  0  0  0
  -25.9823  -22.2223   17.9489 C   0  0  0  0  0  0  0  0  0  0  0  0
  -24.7937   -6.3056   23.9511 C   0  0  0  0  0  0  0  0  0  0  0  0
  -26.5751   -5.1979   25.7902 C   0  0  0  0  0  0  0  0  0  0  0  0
  -24.3516   -5.9570   25.2273 C   0  0  0  0  0  0  0  0  0  0  0  0
  -25.0541  -11.9605   21.0644 C   0  0  0  0  0  0  0  0  0  0  0  0
  -29.5239  -21.2778   20.7634 C   0  0  0  0  0  0  0  0  0  0  0  0
  -27.4583  -21.1031   21.8400 C   0  0  0  0  0  0  0  0  0  0  0  0
  -24.9219  -14.0516   20.3973 C   0  0  0  0  0  0  0  0  0  0  0  0
  -28.5451  -19.2525   21.0908 C   0  0  0  0  0  0  0  0  0  0  0  0
  -22.7569  -13.1072   21.2155 C   0  0  0  0  0  0  0  0  0  0  0  0
  -22.2486  -25.5977   21.8463 C   0  0  0  0  0  0  0  0  0  0  0  0
  -25.0061  -26.8113   21.2686 C   0  0  0  0  0  0  0  0  0  0  0  0
  -28.2872  -27.6176   20.7983 C   0  0  0  0  0  0  0  0  0  0  0  0
  -29.5888  -17.0879   20.3348 C   0  0  0  0  0  0  0  0  0  0  0  0
  -20.4038  -26.5160   26.5166 C   0  0  0  0  0  0  0  0  0  0  0  0
  -23.1927  -23.4754   20.9682 C   0  0  0  0  0  0  0  0  0  0  0  0
  -24.3437  -25.4058   19.2571 C   0  0  0  0  0  0  0  0  0  0  0  0
  -21.3855  -27.2086   25.5749 C   0  0  0  0  0  0  0  0  0  0  0  0
  -29.6303  -14.0135   18.5394 C   0  0  0  0  0  0  0  0  0  0  0  0
  -20.7870  -27.3333   24.1773 C   0  0  0  0  0  0  0  0  0  0  0  0
  -28.3696  -13.2937   19.0239 C   0  0  0  0  0  0  0  0  0  0  0  0
  -30.2994  -14.8035   19.6628 C   0  0  0  0  0  0  0  0  0  0  0  0
  -28.1571  -15.0167   20.8605 C   0  0  0  0  0  0  0  0  0  0  0  0
  -20.4961  -25.9528   23.5766 C   0  0  1  0  0  0  0  0  0  0  0  0
  -23.5220  -24.8572   21.5610 C   0  0  1  0  0  0  0  0  0  0  0  0
  -27.4122  -14.2600   19.7486 C   0  0  2  0  0  0  0  0  0  0  0  0
  -32.0232  -21.6518   20.8441 C   0  0  0  0  0  0  0  0  0  0  0  0
  -30.4102  -28.9417   20.9906 C   0  0  0  0  0  0  0  0  0  0  0  0
  -30.4278  -24.2050   17.9028 C   0  0  0  0  0  0  0  0  0  0  0  0
  -23.8024  -28.3900   18.9529 C   0  0  0  0  0  0  0  0  0  0  0  0
  -25.9581  -29.6522   18.7859 C   0  0  0  0  0  0  0  0  0  0  0  0
  -24.5934  -29.7883   20.8696 C   0  0  0  0  0  0  0  0  0  0  0  0
  -29.0430  -26.2590   23.3166 C   0  0  0  0  0  0  0  0  0  0  0  0
  -29.6419  -22.1981   16.5851 C   0  0  0  0  0  0  0  0  0  0  0  0
  -27.6634  -20.6868   17.2605 C   0  0  0  0  0  0  0  0  0  1  0  0
  -30.6933  -22.0649   20.2185 C   0  0  1  0  0  0  0  0  0  0  0  0
  -25.8482  -27.6565   20.3468 C   0  0  1  0  0  0  0  0  0  0  0  0
  -29.3325  -28.1789   21.7453 C   0  0  2  0  0  0  0  0  0  0  0  0
  -29.8598  -22.7934   17.9795 C   0  0  1  0  0  0  0  0  0  0  0  0
  -29.0104  -20.7977   16.5504 C   0  0  1  0  0  0  0  0  0  0  0  0
  -25.0502  -28.8434   19.7368 C   0  0  0  0  0  0  0  0  0  0  0  0
  -26.2943  -12.2662   20.6741 N   0  0  0  0  0  0  0  0  0  0  0  0
  -29.5938  -19.9403   20.6004 N   0  0  0  0  0  0  0  0  0  0  0  0
  -27.4628  -19.7601   21.7110 N   0  0  0  0  0  0  0  0  0  0  0  0
  -26.1818  -13.5441   20.2736 N   0  0  0  0  0  0  0  0  0  0  0  0
  -24.3048  -25.7478   20.6875 N   0  0  0  0  0  0  0  0  0  0  0  0
  -29.3333  -15.7007   20.3004 N   0  0  0  0  0  0  0  0  0  0  0  0
  -28.4394  -23.3157   21.5293 N   0  0  0  0  0  0  0  0  0  0  0  0
  -26.3467  -21.7008   22.4846 N   0  0  0  0  0  0  0  0  0  0  0  0
  -24.6331  -15.3212   20.0408 N   0  0  0  0  0  0  0  0  0  0  0  0
  -22.1269  -11.9710   21.7411 N   0  0  0  0  0  0  0  0  0  0  0  0
  -28.5843  -17.8444   20.9376 N   0  0  0  0  0  0  0  0  0  0  0  0
  -21.7176  -25.3430   23.0964 N   0  0  0  0  0  0  0  0  0  0  0  0
  -27.0201  -28.0578   21.1175 N   0  0  0  0  0  0  0  0  0  0  0  0
  -29.9839  -27.0775   22.5093 N   0  3  0  0  0  0  0  0  0  0  0  0
  -30.8227  -21.9519   18.7424 N   0  3  0  0  0  0  0  0  0  0  0  0
  -22.0810  -14.1436   21.0087 O   0  0  0  0  0  0  0  0  0  0  0  0
  -21.7818  -26.3467   20.9962 O   0  0  0  0  0  0  0  0  0  0  0  0
  -24.9648  -27.0876   22.4708 O   0  0  0  0  0  0  0  0  0  0  0  0
  -28.5672  -26.8671   19.8662 O   0  0  0  0  0  0  0  0  0  0  0  0
  -30.6099  -17.5722   19.8399 O   0  0  0  0  0  0  0  0  0  0  0  0
  -28.8088  -20.4317   15.1820 O   0  0  0  0  0  0  0  0  0  0  0  0
  -23.9105   -6.8548   23.0368 O   0  0  0  0  0  0  0  0  0  0  0  0
  -26.8597  -21.8327   16.9828 O   0  0  0  0  0  0  0  0  0  1  0  0
  -27.4302   -4.6646   26.6726 F   0  0  0  0  0  0  0  0  0  0  0  0
  -23.0721   -6.1508   25.5754 F   0  0  0  0  0  0  0  0  0  0  0  0
  1  2  1  0  0  0  0
  1  5  2  0  0  0  0
  2  6  2  0  0  0  0
  3  8  2  0  0  0  0
  3 15  1  0  0  0  0
  4  9  1  0  0  0  0
  4 15  2  0  0  0  0
  5 17  1  0  0  0  0
  6 19  1  0  0  0  0
  7 10  2  0  0  0  0
  7 18  1  0  0  0  0
  8 22  1  0  0  0  0
  9 22  2  0  0  0  0
 10 23  1  0  0  0  0
 11 12  2  0  0  0  0
 11 24  1  0  0  0  0
 12 25  1  0  0  0  0
 13 20  1  0  0  0  0
 13 23  2  0  0  0  0
 14 25  2  0  0  0  0
 14 26  1  0  0  0  0
 15 27  1  0  0  0  0
 16 27  1  0  0  0  0
 16 30  2  0  0  0  0
 16 32  1  0  0  0  0
 17 19  2  0  0  0  0
 17 37  1  0  0  0  0
 18 20  2  0  0  0  0
 18 38  1  0  0  0  0
 19 46  1  0  0  0  0
 20 39  1  0  0  0  0
 21 28  2  0  0  0  0
 21 29  1  0  0  0  0
 21 70  1  0  0  0  0
 22 85  1  0  0  0  0
 23 86  1  0  0  0  0
 24 26  2  0  0  0  0
 24 85  1  0  0  0  0
 25 87  1  0  0  0  0
 26 88  1  0  0  0  0
 27 64  2  0  0  0  0
 28 58  1  0  0  0  0
 28 65  1  0  0  0  0
 29 66  2  0  0  0  0
 29 71  1  0  0  0  0
 30 67  1  0  0  0  0
 30 72  1  0  0  0  0
 31 65  2  0  0  0  0
 31 66  1  0  0  0  0
 31 74  1  0  0  0  0
 32 73  1  0  0  0  0
 32 79  2  0  0  0  0
 33 47  1  0  0  0  0
 33 75  1  0  0  0  0
 33 80  2  0  0  0  0
 34 59  1  0  0  0  0
 34 68  1  0  0  0  0
 34 81  2  0  0  0  0
 35 60  1  0  0  0  0
 35 76  1  0  0  0  0
 35 82  2  0  0  0  0
 36 69  1  0  0  0  0
 36 74  1  0  0  0  0
 36 83  2  0  0  0  0
 37 40  1  0  0  0  0
 38 47  1  0  0  0  0
 39 68  1  0  0  0  0
 40 42  1  0  0  0  0
 41 43  1  0  0  0  0
 41 44  1  0  0  0  0
 42 46  1  0  0  0  0
 43 48  1  0  0  0  0
 44 69  1  0  0  0  0
 45 48  1  0  0  0  0
 45 69  1  0  0  0  0
 46 75  1  0  0  0  0
 47 68  1  0  0  0  0
 48 67  1  0  0  0  0
 49 58  1  0  0  0  0
 50 60  1  0  0  0  0
 51 61  1  0  0  0  0
 52 63  1  0  0  0  0
 53 63  1  0  0  0  0
 54 63  1  0  0  0  0
 55 77  1  0  0  0  0
 56 61  1  0  0  0  0
 56 62  1  0  0  0  0
 57 62  1  0  0  0  0
 57 86  1  0  0  0  0
 58 78  1  0  0  0  0
 59 63  1  0  0  0  0
 59 76  1  0  0  0  0
 60 77  1  0  0  0  0
 61 78  1  0  0  0  0
 62 84  1  0  0  0  0
 64 67  1  0  0  0  0
M  CHG  2  77   1  78   1
M  ISO  4  36 100  57 101  74 100  86 101
M  END
> <Batch ID>
0192

> <Smiles>
CNC(C)C(=O)NC(C(=O)N1Cc2cc([101O:1][101CH2:1]C(O)CC(C)NC(C)c3nc([100NH:0][100C:0](=O)N4CCCC(n5nc(-c6ccc(Oc7ccc(F)cc7F)cc6)c(C(N)=O)c5N)C4)nc(N)c3N)ccc2CC1C(=O)NC1CCCc2ccccc21)C(C)(C)C

> <Shape>
0.234

> <Color>
0.104

> <Negative vol penalty>
0.000

$$$$

  -OEChem-04052305273D

 90 98  0     1  0  0  0  0  0999 V2000
  -24.3915  -31.8728   26.0649 C   0  0  0  0  0  0  0  0  0  0  0  0
  -24.7723  -30.5348   26.0482 C   0  0  0  0  0  0  0  0  0  0  0  0
  -22.9772   -9.8875   20.0152 C   0  0  0  0  0  0  0  0  0  0  0  0
  -23.8042   -9.9290   22.2848 C   0  0  0  0  0  0  0  0  0  0  0  0
  -23.9408  -32.4827   24.8950 C   0  0  0  0  0  0  0  0  0  0  0  0
  -24.7014  -29.8056   24.8617 C   0  0  0  0  0  0  0  0  0  0  0  0
  -28.8331  -26.9886   24.0630 C   0  0  0  0  0  0  0  0  0  0  0  0
  -22.2277   -8.7484   20.3091 C   0  0  0  0  0  0  0  0  0  0  0  0
  -23.0547   -8.7899   22.5788 C   0  0  0  0  0  0  0  0  0  0  0  0
  -28.9402  -25.7977   24.7800 C   0  0  0  0  0  0  0  0  0  0  0  0
  -23.2907   -5.4546   22.0778 C   0  0  0  0  0  0  0  0  0  0  0  0
  -23.9151   -4.4358   22.7973 C   0  0  0  0  0  0  0  0  0  0  0  0
  -28.1820  -24.5719   22.8455 C   0  0  0  0  0  0  0  0  0  0  0  0
  -22.2668   -4.6626   24.5490 C   0  0  0  0  0  0  0  0  0  0  0  0
  -23.7655  -10.4778   21.0030 C   0  0  0  0  0  0  0  0  0  0  0  0
  -24.1328  -12.9958   20.8240 C   0  0  0  0  0  0  0  0  0  0  0  0
  -23.8735  -31.7633   23.6915 C   0  0  0  0  0  0  0  0  0  0  0  0
  -28.3886  -26.9812   22.7330 C   0  0  0  0  0  0  0  0  0  0  0  0
  -24.2481  -30.4062   23.6749 C   0  0  0  0  0  0  0  0  0  0  0  0
  -28.0727  -25.7638   22.1131 C   0  0  0  0  0  0  0  0  0  0  0  0
  -22.2664   -8.1996   21.5908 C   0  0  0  0  0  0  0  0  0  0  0  0
  -28.6118  -24.5894   24.1722 C   0  0  0  0  0  0  0  0  0  0  0  0
  -22.1543   -6.0775   22.5940 C   0  0  0  0  0  0  0  0  0  0  0  0
  -23.4032   -4.0398   24.0329 C   0  0  0  0  0  0  0  0  0  0  0  0
  -21.6423   -5.6814   23.8295 C   0  0  0  0  0  0  0  0  0  0  0  0
  -31.4142  -19.6465   21.3044 C   0  0  0  0  0  0  0  0  0  0  0  0
  -24.5403  -11.6541   20.6999 C   0  0  0  0  0  0  0  0  0  0  0  0
  -30.0619  -19.3763   21.2558 C   0  0  0  0  0  0  0  0  0  0  0  0
  -32.2468  -18.5636   21.1085 C   0  0  0  0  0  0  0  0  0  0  0  0
  -25.2223  -13.7250   20.4146 C   0  0  0  0  0  0  0  0  0  0  0  0
  -30.4648  -17.1749   20.8575 C   0  0  0  0  0  0  0  0  0  0  0  0
  -22.8812  -13.5349   21.2697 C   0  0  0  0  0  0  0  0  0  0  0  0
  -25.9051  -28.2296   21.1911 C   0  0  0  0  0  0  0  0  0  0  0  0
  -27.4486  -27.0840   18.5781 C   0  0  0  0  0  0  0  0  0  0  0  0
  -29.6737  -24.8478   17.2762 C   0  0  0  0  0  0  0  0  0  0  0  0
  -30.7030  -14.7074   20.4094 C   0  0  0  0  0  0  0  0  0  0  0  0
  -23.3350  -32.4527   22.4629 C   0  0  0  0  0  0  0  0  0  0  0  0
  -28.3041  -28.2717   21.9650 C   0  0  0  0  0  0  0  0  0  0  0  0
  -27.6099  -25.6997   20.6812 C   0  0  0  0  0  0  0  0  0  0  0  0
  -23.6447  -31.7126   21.1642 C   0  0  0  0  0  0  0  0  0  0  0  0
  -29.4917  -12.2625   18.1220 C   0  0  0  0  0  0  0  0  0  0  0  0
  -23.3391  -30.2254   21.3113 C   0  0  0  0  0  0  0  0  0  0  0  0
  -28.0620  -11.9966   18.5989 C   0  0  0  0  0  0  0  0  0  0  0  0
  -30.4443  -12.5031   19.2917 C   0  0  0  0  0  0  0  0  0  0  0  0
  -28.5873  -13.2768   20.7137 C   0  0  0  0  0  0  0  0  0  0  0  0
  -24.2089  -29.5887   22.4020 C   0  0  1  0  0  0  0  0  0  0  0  0
  -27.3493  -28.1988   20.7774 C   0  0  1  0  0  0  0  0  0  0  0  0
  -27.5783  -13.0929   19.5684 C   0  0  2  0  0  0  0  0  0  0  0  0
  -28.6589  -21.1659   20.1503 C   0  0  0  0  0  0  0  0  0  0  0  0
  -30.7004  -24.1288   15.1021 C   0  0  0  0  0  0  0  0  0  0  0  0
  -30.3452  -21.6847   24.6061 C   0  0  0  0  0  0  0  0  0  0  0  0
  -24.8608  -25.6492   17.8333 C   0  0  0  0  0  0  0  0  0  0  0  0
  -26.1839  -24.2339   16.2475 C   0  0  0  0  0  0  0  0  0  0  0  0
  -26.0610  -26.7022   15.9084 C   0  0  0  0  0  0  0  0  0  0  0  0
  -27.2337  -18.4757   25.6661 C   0  0  0  0  0  0  0  0  0  0  0  0
  -25.5515  -19.2196   23.9732 C   0  0  0  0  0  0  0  0  0  0  0  0
  -27.2182  -17.4749   23.3762 C   0  0  0  0  0  0  0  0  0  0  0  0
  -32.4007  -25.5219   18.2077 C   0  0  0  0  0  0  0  0  0  0  0  0
  -27.8398  -21.2748   24.2885 C   0  0  0  0  0  0  0  0  0  0  0  0
  -29.0681  -20.4965   21.4599 C   0  0  1  0  0  0  0  0  0  0  0  0
  -27.4393  -25.7804   17.8170 C   0  0  1  0  0  0  0  0  0  0  0  0
  -30.8401  -25.0271   16.3213 C   0  0  2  0  0  0  0  0  0  0  0  0
  -27.9970  -19.8880   23.6327 C   0  0  1  0  0  0  0  0  0  0  0  0
  -29.0181  -22.2468   24.1146 C   0  0  1  0  0  0  0  0  0  1  0  0
  -26.1431  -25.5925   16.9792 C   0  0  0  0  0  0  0  0  0  0  0  0
  -27.0218  -18.7843   24.1713 C   0  0  0  0  0  0  0  0  0  0  0  0
  -25.7912  -11.5350   20.2468 N   0  0  0  0  0  0  0  0  0  0  0  0
  -29.5504  -18.1477   21.0337 N   0  0  0  0  0  0  0  0  0  0  0  0
  -31.8046  -17.3093   20.8819 N   0  0  0  0  0  0  0  0  0  0  0  0
  -26.1789  -12.8112   20.0826 N   0  0  0  0  0  0  0  0  0  0  0  0
  -27.5376  -26.9891   19.9741 N   0  0  0  0  0  0  0  0  0  0  0  0
  -29.9233  -13.5572   20.1649 N   0  0  0  0  0  0  0  0  0  0  0  0
  -33.6433  -18.7949   21.1508 N   0  0  0  0  0  0  0  0  0  0  0  0
  -25.4459  -15.0521   20.3096 N   0  0  0  0  0  0  0  0  0  0  0  0
  -21.8692  -12.6447   21.6540 N   0  0  0  0  0  0  0  0  0  0  0  0
  -29.9639  -15.8709   20.6203 N   0  0  0  0  0  0  0  0  0  0  0  0
  -25.5491  -29.3560   21.9080 N   0  0  0  0  0  0  0  0  0  0  0  0
  -28.6677  -25.7583   17.0303 N   0  0  0  0  0  0  0  0  0  0  0  0
  -32.1234  -24.6972   17.0035 N   0  3  0  0  0  0  0  0  0  0  0  0
  -27.8360  -20.0492   22.1533 N   0  3  0  0  0  0  0  0  0  0  0  0
  -22.6610  -14.7692   21.3100 O   0  0  0  0  0  0  0  0  0  0  0  0
  -25.1680  -27.3008   20.8815 O   0  0  0  0  0  0  0  0  0  0  0  0
  -27.3865  -28.1477   17.9565 O   0  0  0  0  0  0  0  0  0  0  0  0
  -29.6550  -23.9839   18.1501 O   0  0  0  0  0  0  0  0  0  0  0  0
  -31.9361  -14.6689   20.4032 O   0  0  0  0  0  0  0  0  0  0  0  0
  -21.5350   -7.0883   21.8781 O   0  0  0  0  0  0  0  0  0  0  0  0
  -28.7153  -23.4205   24.8730 O   0  0  0  0  0  0  0  0  0  1  0  0
  -24.0020   -3.0603   24.7230 F   0  0  0  0  0  0  0  0  0  0  0  0
  -20.5502   -6.2753   24.3300 F   0  0  0  0  0  0  0  0  0  0  0  0
  -31.8842  -20.8794   21.5278 F   0  0  0  0  0  0  0  0  0  0  0  0
  1  2  1  0  0  0  0
  1  5  2  0  0  0  0
  2  6  2  0  0  0  0
  3  8  2  0  0  0  0
  3 15  1  0  0  0  0
  4  9  1  0  0  0  0
  4 15  2  0  0  0  0
  5 17  1  0  0  0  0
  6 19  1  0  0  0  0
  7 10  2  0  0  0  0
  7 18  1  0  0  0  0
  8 21  1  0  0  0  0
  9 21  2  0  0  0  0
 10 22  1  0  0  0  0
 11 12  2  0  0  0  0
 11 23  1  0  0  0  0
 12 24  1  0  0  0  0
 13 20  1  0  0  0  0
 13 22  2  0  0  0  0
 14 24  2  0  0  0  0
 14 25  1  0  0  0  0
 15 27  1  0  0  0  0
 16 27  1  0  0  0  0
 16 30  2  0  0  0  0
 16 32  1  0  0  0  0
 17 19  2  0  0  0  0
 17 37  1  0  0  0  0
 18 20  2  0  0  0  0
 18 38  1  0  0  0  0
 19 46  1  0  0  0  0
 20 39  1  0  0  0  0
 21 86  1  0  0  0  0
 22 87  1  0  0  0  0
 23 25  2  0  0  0  0
 23 86  1  0  0  0  0
 24 88  1  0  0  0  0
 25 89  1  0  0  0  0
 26 28  2  0  0  0  0
 26 29  1  0  0  0  0
 26 90  1  0  0  0  0
 27 67  2  0  0  0  0
 28 60  1  0  0  0  0
 28 68  1  0  0  0  0
 29 69  2  0  0  0  0
 29 73  1  0  0  0  0
 30 70  1  0  0  0  0
 30 74  1  0  0  0  0
 31 68  2  0  0  0  0
 31 69  1  0  0  0  0
 31 76  1  0  0  0  0
 32 75  1  0  0  0  0
 32 81  2  0  0  0  0
 33 47  1  0  0  0  0
 33 77  1  0  0  0  0
 33 82  2  0  0  0  0
 34 61  1  0  0  0  0
 34 71  1  0  0  0  0
 34 83  2  0  0  0  0
 35 62  1  0  0  0  0
 35 78  1  0  0  0  0
 35 84  2  0  0  0  0
 36 72  1  0  0  0  0
 36 76  1  0  0  0  0
 36 85  2  0  0  0  0
 37 40  1  0  0  0  0
 38 47  1  0  0  0  0
 39 71  1  0  0  0  0
 40 42  1  0  0  0  0
 41 43  1  0  0  0  0
 41 44  1  0  0  0  0
 42 46  1  0  0  0  0
 43 48  1  0  0  0  0
 44 72  1  0  0  0  0
 45 48  1  0  0  0  0
 45 72  1  0  0  0  0
 46 77  1  0  0  0  0
 47 71  1  0  0  0  0
 48 70  1  0  0  0  0
 49 60  1  0  0  0  0
 50 62  1  0  0  0  0
 51 64  1  0  0  0  0
 52 65  1  0  0  0  0
 53 65  1  0  0  0  0
 54 65  1  0  0  0  0
 55 66  1  0  0  0  0
 56 66  1  0  0  0  0
 57 66  1  0  0  0  0
 58 79  1  0  0  0  0
 59 63  1  0  0  0  0
 59 64  1  0  0  0  0
 60 80  1  0  0  0  0
 61 65  1  0  0  0  0
 61 78  1  0  0  0  0
 62 79  1  0  0  0  0
 63 66  1  0  0  0  0
 63 80  1  0  0  0  0
 64 87  1  0  0  0  0
 67 70  1  0  0  0  0
M  CHG  2  79   1  80   1
M  ISO  4  36 100  64 101  76 100  87 101
M  END
> <Batch ID>
0192

> <Smiles>
CNC(C)C(=O)NC(C(=O)N1Cc2cc([101O:1][101CH:1](C)CC(NC(C)c3nc([100NH:0][100C:0](=O)N4CCCC(n5nc(-c6ccc(Oc7ccc(F)cc7F)cc6)c(C(N)=O)c5N)C4)nc(N)c3F)C(C)(C)C)ccc2CC1C(=O)NC1CCCc2ccccc21)C(C)(C)C

> <Shape>
0.312

> <Color>
0.181

> <Negative vol penalty>
0.000

$$$$

  -OEChem-04052305273D

 84 92  0     1  0  0  0  0  0999 V2000
  -30.1448  -23.8179   17.6213 C   0  0  0  0  0  0  0  0  0  0  0  0
  -28.9121  -23.8520   18.2654 C   0  0  0  0  0  0  0  0  0  0  0  0
  -27.4649  -14.8620   19.2710 C   0  0  0  0  0  0  0  0  0  0  0  0
  -25.5822  -15.4729   20.6565 C   0  0  0  0  0  0  0  0  0  0  0  0
  -31.1900  -24.6208   18.0760 C   0  0  0  0  0  0  0  0  0  0  0  0
  -28.7243  -24.6882   19.3653 C   0  0  0  0  0  0  0  0  0  0  0  0
  -24.3411  -27.2159   19.1580 C   0  0  0  0  0  0  0  0  0  0  0  0
  -27.2177  -13.5138   19.5296 C   0  0  0  0  0  0  0  0  0  0  0  0
  -25.3350  -14.1247   20.9150 C   0  0  0  0  0  0  0  0  0  0  0  0
  -23.1855  -26.5159   19.5020 C   0  0  0  0  0  0  0  0  0  0  0  0
  -23.8934  -11.5102   19.3317 C   0  0  0  0  0  0  0  0  0  0  0  0
  -22.5726  -11.0686   19.2544 C   0  0  0  0  0  0  0  0  0  0  0  0
  -23.2361  -27.5216   21.6941 C   0  0  0  0  0  0  0  0  0  0  0  0
  -22.6648  -10.3871   21.5704 C   0  0  0  0  0  0  0  0  0  0  0  0
  -25.1645  -22.2078   26.4400 C   0  0  0  0  0  0  0  0  0  0  0  0
  -26.6472  -15.8416   19.8345 C   0  0  0  0  0  0  0  0  0  0  0  0
  -26.3787  -18.0086   18.5156 C   0  0  0  0  0  0  0  0  0  0  0  0
  -31.0120  -25.4745   19.1761 C   0  0  0  0  0  0  0  0  0  0  0  0
  -24.9601  -28.0671   20.0847 C   0  0  0  0  0  0  0  0  0  0  0  0
  -29.7686  -25.5023   19.8360 C   0  0  0  0  0  0  0  0  0  0  0  0
  -24.3980  -28.2333   21.3585 C   0  0  0  0  0  0  0  0  0  0  0  0
  -26.1527  -13.1451   20.3515 C   0  0  0  0  0  0  0  0  0  0  0  0
  -22.6345  -26.6665   20.7712 C   0  0  0  0  0  0  0  0  0  0  0  0
  -24.6000  -11.3901   20.5284 C   0  0  0  0  0  0  0  0  0  0  0  0
  -21.9582  -10.5071   20.3737 C   0  0  0  0  0  0  0  0  0  0  0  0
  -23.9857  -10.8286   21.6477 C   0  0  0  0  0  0  0  0  0  0  0  0
  -26.9024  -17.2344   19.5683 C   0  0  0  0  0  0  0  0  0  0  0  0
  -25.7136  -22.5664   25.2267 C   0  0  0  0  0  0  0  0  0  0  0  0
  -26.9211  -19.2562   18.7041 C   0  0  0  0  0  0  0  0  0  0  0  0
  -23.6176  -22.3983   24.6033 C   0  0  0  0  0  0  0  0  0  0  0  0
  -25.4819  -17.6334   17.4617 C   0  0  0  0  0  0  0  0  0  0  0  0
  -27.8041  -28.1516   21.5018 C   0  0  0  0  0  0  0  0  0  0  0  0
  -26.7201  -30.9904   22.6371 C   0  0  0  0  0  0  0  0  0  0  0  0
  -24.0521  -32.9688   23.4208 C   0  0  0  0  0  0  0  0  0  0  0  0
  -29.0247  -22.1005   23.5348 C   0  0  0  0  0  0  0  0  0  0  0  0
  -32.1855  -26.2888   19.6604 C   0  0  0  0  0  0  0  0  0  0  0  0
  -26.1910  -28.8357   19.6891 C   0  0  0  0  0  0  0  0  0  0  0  0
  -25.0126  -29.1505   22.3829 C   0  0  0  0  0  0  0  0  0  0  0  0
  -31.7918  -27.4247   20.6011 C   0  0  0  0  0  0  0  0  0  0  0  0
  -30.7826  -21.4261   20.5129 C   0  0  0  0  0  0  0  0  0  0  0  0
  -30.8133  -26.9263   21.6598 C   0  0  0  0  0  0  0  0  0  0  0  0
  -29.9402  -20.3452   19.8332 C   0  0  0  0  0  0  0  0  0  0  0  0
  -30.8020  -21.2554   22.0303 C   0  0  0  0  0  0  0  0  0  0  0  0
  -28.6291  -20.0935   21.9818 C   0  0  0  0  0  0  0  0  0  0  0  0
  -29.5185  -26.4147   21.0171 C   0  0  1  0  0  0  0  0  0  0  0  0
  -27.0277  -29.2804   20.8847 C   0  0  1  0  0  0  0  0  0  0  0  0
  -28.5336  -20.2567   20.4552 C   0  0  2  0  0  0  0  0  0  0  0  0
  -23.4810  -35.2224   24.3655 C   0  0  0  0  0  0  0  0  0  0  0  0
  -23.0167  -21.5260   21.6243 C   0  0  0  0  0  0  0  0  0  0  0  0
  -27.3878  -29.9825   25.4386 C   0  0  0  0  0  0  0  0  0  0  0  0
  -25.9555  -31.8158   26.3638 C   0  0  0  0  0  0  0  0  0  0  0  0
  -27.9823  -32.3757   25.0216 C   0  0  0  0  0  0  0  0  0  0  0  0
  -22.6769  -33.7919   20.9328 C   0  0  0  0  0  0  0  0  0  0  0  0
  -27.1424  -22.8391   24.9737 C   0  0  0  0  0  0  0  0  0  0  0  0
  -21.0936  -23.1247   21.9274 C   0  0  0  0  0  0  0  0  0  0  0  0
  -21.3484  -25.6326   22.4838 C   0  0  0  0  0  0  0  0  0  1  0  0
  -25.9474  -31.4289   23.8576 C   0  0  1  0  0  0  0  0  0  0  0  0
  -23.7463  -34.4208   23.1007 C   0  0  2  0  0  0  0  0  0  0  0  0
  -22.5010  -22.7361   22.3977 C   0  0  1  0  0  0  0  0  0  0  0  0
  -20.5042  -24.3671   22.6151 C   0  0  1  0  0  0  0  0  0  0  0  0
  -26.8075  -31.3819   25.1520 C   0  0  0  0  0  0  0  0  0  0  0  0
  -27.7153  -17.9319   20.3663 N   0  0  0  0  0  0  0  0  0  0  0  0
  -24.8282  -22.6757   24.1722 N   0  0  0  0  0  0  0  0  0  0  0  0
  -27.7065  -19.1573   19.8148 N   0  0  0  0  0  0  0  0  0  0  0  0
  -26.2190  -29.8753   21.9506 N   0  0  0  0  0  0  0  0  0  0  0  0
  -29.4373  -21.1799   22.5574 N   0  0  0  0  0  0  0  0  0  0  0  0
  -26.7983  -20.4173   18.0264 N   0  0  0  0  0  0  0  0  0  0  0  0
  -25.0203  -16.3109   17.4163 N   0  0  0  0  0  0  0  0  0  0  0  0
  -22.4853  -22.4113   23.8083 N   0  0  0  0  0  0  0  0  0  0  0  0
  -28.6737  -27.5242   20.6302 N   0  0  0  0  0  0  0  0  0  0  0  0
  -25.4073  -32.7480   23.5466 N   0  0  0  0  0  0  0  0  0  0  0  0
  -27.7142  -21.9630   23.9756 N   0  0  0  0  0  0  0  0  0  0  0  0
  -22.5454  -34.5160   22.2233 N   0  3  0  0  0  0  0  0  0  0  0  0
  -25.1142  -18.4427   16.5766 O   0  0  0  0  0  0  0  0  0  0  0  0
  -27.6283  -27.8716   22.6818 O   0  0  0  0  0  0  0  0  0  0  0  0
  -27.7271  -31.6186   22.3009 O   0  0  0  0  0  0  0  0  0  0  0  0
  -23.1761  -32.1165   23.5503 O   0  0  0  0  0  0  0  0  0  0  0  0
  -29.7675  -22.9831   23.9777 O   0  0  0  0  0  0  0  0  0  0  0  0
  -19.2266  -24.6379   22.0319 O   0  0  0  0  0  0  0  0  0  0  0  0
  -25.9110  -11.8296   20.6038 O   0  0  0  0  0  0  0  0  0  0  0  0
  -21.5070  -25.9839   21.1098 O   0  0  0  0  0  0  0  0  0  1  0  0
  -20.6893  -10.0846   20.2997 F   0  0  0  0  0  0  0  0  0  0  0  0
  -24.6590  -10.7117   22.8004 F   0  0  0  0  0  0  0  0  0  0  0  0
  -23.4712  -21.9983   26.2657 S   0  0  0  0  0  0  0  0  0  0  0  0
  1  2  1  0  0  0  0
  1  5  2  0  0  0  0
  2  6  2  0  0  0  0
  3  8  2  0  0  0  0
  3 16  1  0  0  0  0
  4  9  1  0  0  0  0
  4 16  2  0  0  0  0
  5 18  1  0  0  0  0
  6 20  1  0  0  0  0
  7 10  2  0  0  0  0
  7 19  1  0  0  0  0
  8 22  1  0  0  0  0
  9 22  2  0  0  0  0
 10 23  1  0  0  0  0
 11 12  2  0  0  0  0
 11 24  1  0  0  0  0
 12 25  1  0  0  0  0
 13 21  1  0  0  0  0
 13 23  2  0  0  0  0
 14 25  2  0  0  0  0
 14 26  1  0  0  0  0
 15 28  2  0  0  0  0
 15 84  1  0  0  0  0
 16 27  1  0  0  0  0
 17 27  1  0  0  0  0
 17 29  2  0  0  0  0
 17 31  1  0  0  0  0
 18 20  2  0  0  0  0
 18 36  1  0  0  0  0
 19 21  2  0  0  0  0
 19 37  1  0  0  0  0
 20 45  1  0  0  0  0
 21 38  1  0  0  0  0
 22 80  1  0  0  0  0
 23 81  1  0  0  0  0
 24 26  2  0  0  0  0
 24 80  1  0  0  0  0
 25 82  1  0  0  0  0
 26 83  1  0  0  0  0
 27 62  2  0  0  0  0
 28 54  1  0  0  0  0
 28 63  1  0  0  0  0
 29 64  1  0  0  0  0
 29 67  1  0  0  0  0
 30 63  2  0  0  0  0
 30 69  1  0  0  0  0
 30 84  1  0  0  0  0
 31 68  1  0  0  0  0
 31 74  2  0  0  0  0
 32 46  1  0  0  0  0
 32 70  1  0  0  0  0
 32 75  2  0  0  0  0
 33 57  1  0  0  0  0
 33 65  1  0  0  0  0
 33 76  2  0  0  0  0
 34 58  1  0  0  0  0
 34 71  1  0  0  0  0
 34 77  2  0  0  0  0
 35 66  1  0  0  0  0
 35 72  1  0  0  0  0
 35 78  2  0  0  0  0
 36 39  1  0  0  0  0
 37 46  1  0  0  0  0
 38 65  1  0  0  0  0
 39 41  1  0  0  0  0
 40 42  1  0  0  0  0
 40 43  1  0  0  0  0
 41 45  1  0  0  0  0
 42 47  1  0  0  0  0
 43 66  1  0  0  0  0
 44 47  1  0  0  0  0
 44 66  1  0  0  0  0
 45 70  1  0  0  0  0
 46 65  1  0  0  0  0
 47 64  1  0  0  0  0
 48 58  1  0  0  0  0
 49 59  1  0  0  0  0
 50 61  1  0  0  0  0
 51 61  1  0  0  0  0
 52 61  1  0  0  0  0
 53 73  1  0  0  0  0
 54 72  1  0  0  0  0
 55 59  1  0  0  0  0
 55 60  1  0  0  0  0
 56 60  1  0  0  0  0
 56 81  1  0  0  0  0
 57 61  1  0  0  0  0
 57 71  1  0  0  0  0
 58 73  1  0  0  0  0
 59 69  1  0  0  0  0
 60 79  1  0  0  0  0
 62 64  1  0  0  0  0
M  CHG  1  73   1
M  ISO  4  35 100  56 101  72 100  81 101
M  END
> <Batch ID>
0192

> <Smiles>
CNC(C)C(=O)NC(C(=O)N1Cc2cc([101O:1][101CH2:1]C(O)CC(C)Nc3nc(C[100NH:0][100C:0](=O)N4CCCC(n5nc(-c6ccc(Oc7ccc(F)cc7F)cc6)c(C(N)=O)c5N)C4)cs3)ccc2CC1C(=O)NC1CCCc2ccccc21)C(C)(C)C

> <Shape>
0.273

> <Color>
0.058

> <Negative vol penalty>
0.000

$$$$

  -OEChem-04052305273D

 85 93  0     1  0  0  0  0  0999 V2000
  -19.9023  -23.8684   21.8972 C   0  0  0  0  0  0  0  0  0  0  0  0
  -21.1013  -24.3036   21.3420 C   0  0  0  0  0  0  0  0  0  0  0  0
  -23.5913  -13.9085   20.8521 C   0  0  0  0  0  0  0  0  0  0  0  0
  -25.9987  -14.0418   21.0049 C   0  0  0  0  0  0  0  0  0  0  0  0
  -18.9637  -24.7981   22.3428 C   0  0  0  0  0  0  0  0  0  0  0  0
  -21.3620  -25.6690   21.2309 C   0  0  0  0  0  0  0  0  0  0  0  0
  -26.0623  -26.8738   22.6800 C   0  0  0  0  0  0  0  0  0  0  0  0
  -23.6865  -12.5544   20.5316 C   0  0  0  0  0  0  0  0  0  0  0  0
  -26.0940  -12.6876   20.6845 C   0  0  0  0  0  0  0  0  0  0  0  0
  -27.0934  -26.6110   21.7791 C   0  0  0  0  0  0  0  0  0  0  0  0
  -24.1939   -9.6377   22.1651 C   0  0  0  0  0  0  0  0  0  0  0  0
  -23.3268   -8.7562   22.8106 C   0  0  0  0  0  0  0  0  0  0  0  0
  -27.0993  -28.9311   21.1186 C   0  0  0  0  0  0  0  0  0  0  0  0
  -22.4104   -8.0940   20.6755 C   0  0  0  0  0  0  0  0  0  0  0  0
  -31.2773  -21.5283   18.7619 C   0  0  0  0  0  0  0  0  0  0  0  0
  -24.7474  -14.6523   21.0887 C   0  0  0  0  0  0  0  0  0  0  0  0
  -24.5370  -16.6154   22.7042 C   0  0  0  0  0  0  0  0  0  0  0  0
  -19.2170  -26.1754   22.2460 C   0  0  0  0  0  0  0  0  0  0  0  0
  -25.5337  -28.1671   22.7993 C   0  0  0  0  0  0  0  0  0  0  0  0
  -20.4252  -26.6180   21.6744 C   0  0  0  0  0  0  0  0  0  0  0  0
  -26.0633  -29.2082   22.0236 C   0  0  0  0  0  0  0  0  0  0  0  0
  -24.9379  -11.9439   20.4478 C   0  0  0  0  0  0  0  0  0  0  0  0
  -27.6101  -27.6392   20.9962 C   0  0  0  0  0  0  0  0  0  0  0  0
  -24.1692   -9.7474   20.7747 C   0  0  0  0  0  0  0  0  0  0  0  0
  -22.4351   -7.9843   22.0658 C   0  0  0  0  0  0  0  0  0  0  0  0
  -23.2775   -8.9755   20.0299 C   0  0  0  0  0  0  0  0  0  0  0  0
  -30.0283  -20.9317   18.8944 C   0  0  0  0  0  0  0  0  0  0  0  0
  -31.3914  -22.7525   18.1125 C   0  0  0  0  0  0  0  0  0  0  0  0
  -24.6496  -16.0513   21.4193 C   0  0  0  0  0  0  0  0  0  0  0  0
  -28.9333  -21.5948   18.3643 C   0  0  0  0  0  0  0  0  0  0  0  0
  -30.2354  -23.3340   17.6172 C   0  0  0  0  0  0  0  0  0  0  0  0
  -24.4771  -17.9692   22.4808 C   0  0  0  0  0  0  0  0  0  0  0  0
  -24.4908  -15.9729   23.9852 C   0  0  0  0  0  0  0  0  0  0  0  0
  -22.6768  -29.4757   22.3204 C   0  0  0  0  0  0  0  0  0  0  0  0
  -24.1046  -32.1070   23.5692 C   0  0  0  0  0  0  0  0  0  0  0  0
  -26.9921  -33.8166   24.1910 C   0  0  0  0  0  0  0  0  0  0  0  0
  -26.4372  -21.4661   18.0496 C   0  0  0  0  0  0  0  0  0  0  0  0
  -18.1520  -27.1430   22.6978 C   0  0  0  0  0  0  0  0  0  0  0  0
  -24.4397  -28.4396   23.7950 C   0  0  0  0  0  0  0  0  0  0  0  0
  -25.5445  -30.6183   22.1284 C   0  0  0  0  0  0  0  0  0  0  0  0
  -18.6647  -28.5683   22.8875 C   0  0  0  0  0  0  0  0  0  0  0  0
  -23.0807  -21.1649   19.1987 C   0  0  0  0  0  0  0  0  0  0  0  0
  -19.5210  -28.9903   21.6977 C   0  0  0  0  0  0  0  0  0  0  0  0
  -23.0933  -19.8739   20.0205 C   0  0  0  0  0  0  0  0  0  0  0  0
  -23.9860  -21.0653   17.9722 C   0  0  0  0  0  0  0  0  0  0  0  0
  -25.3786  -19.3573   19.0733 C   0  0  0  0  0  0  0  0  0  0  0  0
  -20.7550  -28.0905   21.5595 C   0  0  1  0  0  0  0  0  0  0  0  0
  -23.6279  -29.6881   23.4640 C   0  0  1  0  0  0  0  0  0  0  0  0
  -24.5318  -19.4324   20.3542 C   0  0  2  0  0  0  0  0  0  0  0  0
  -27.8377  -35.9566   25.1925 C   0  0  0  0  0  0  0  0  0  0  0  0
  -23.1926  -33.6269   21.0856 C   0  0  0  0  0  0  0  0  0  0  0  0
  -24.8316  -35.4268   21.6704 C   0  0  0  0  0  0  0  0  0  0  0  0
  -22.9580  -34.8941   23.2288 C   0  0  0  0  0  0  0  0  0  0  0  0
  -28.5658  -32.3718   26.2391 C   0  0  0  0  0  0  0  0  0  0  0  0
  -29.2954  -27.3766   17.8147 C   0  0  0  0  0  0  0  0  0  0  0  0
  -29.2482  -25.2786   16.4050 C   0  0  0  0  0  0  0  0  0  0  0  0
  -28.6698  -28.1931   18.9404 C   0  0  0  0  0  0  0  0  0  1  0  0
  -24.8831  -33.2706   23.0043 C   0  0  1  0  0  0  0  0  0  0  0  0
  -27.5117  -34.4931   25.4467 C   0  0  2  0  0  0  0  0  0  0  0  0
  -28.5303  -26.0918   17.4833 C   0  0  2  0  0  0  0  0  0  0  0  0
  -23.9750  -34.2777   22.2437 C   0  0  0  0  0  0  0  0  0  0  0  0
  -24.6606  -16.9716   20.4513 N   0  0  0  0  0  0  0  0  0  0  0  0
  -29.0049  -22.7848   17.7268 N   0  0  0  0  0  0  0  0  0  0  0  0
  -24.5541  -18.1276   21.1283 N   0  0  0  0  0  0  0  0  0  0  0  0
  -24.4701  -30.8330   23.1118 N   0  0  0  0  0  0  0  0  0  0  0  0
  -25.3330  -20.6465   18.3657 N   0  0  0  0  0  0  0  0  0  0  0  0
  -24.3665  -19.0278   23.3113 N   0  0  0  0  0  0  0  0  0  0  0  0
  -24.5644  -14.5742   24.0342 N   0  0  0  0  0  0  0  0  0  0  0  0
  -27.6636  -20.9813   18.5029 N   0  0  0  0  0  0  0  0  0  0  0  0
  -30.3616  -24.5532   16.9722 N   0  0  0  0  0  0  0  0  0  0  0  0
  -21.7622  -28.4613   22.5303 N   0  0  0  0  0  0  0  0  0  0  0  0
  -25.6154  -33.8536   24.1233 N   0  0  0  0  0  0  0  0  0  0  0  0
  -27.1673  -26.4402   16.9852 N   0  3  0  0  0  0  0  0  0  0  0  0
  -28.7474  -33.8131   25.9279 N   0  3  0  0  0  0  0  0  0  0  0  0
  -24.3708  -16.6192   25.0536 O   0  0  0  0  0  0  0  0  0  0  0  0
  -22.7651  -30.1809   21.3221 O   0  0  0  0  0  0  0  0  0  0  0  0
  -23.2102  -32.3201   24.3914 O   0  0  0  0  0  0  0  0  0  0  0  0
  -27.7335  -33.3097   23.3520 O   0  0  0  0  0  0  0  0  0  0  0  0
  -26.3012  -22.5339   17.4468 O   0  0  0  0  0  0  0  0  0  0  0  0
  -25.0312  -10.6225   20.1353 O   0  0  0  0  0  0  0  0  0  0  0  0
  -28.6161  -27.3853   20.1155 O   0  0  0  0  0  0  0  0  0  1  0  0
  -21.6036   -7.1367   22.6858 F   0  0  0  0  0  0  0  0  0  0  0  0
  -23.2500   -9.0757   18.6939 F   0  0  0  0  0  0  0  0  0  0  0  0
  -29.9037  -19.7529   19.5175 F   0  0  0  0  0  0  0  0  0  0  0  0
  -32.5878  -23.3386   17.9777 F   0  0  0  0  0  0  0  0  0  0  0  0
  1  2  1  0  0  0  0
  1  5  2  0  0  0  0
  2  6  2  0  0  0  0
  3  8  2  0  0  0  0
  3 16  1  0  0  0  0
  4  9  1  0  0  0  0
  4 16  2  0  0  0  0
  5 18  1  0  0  0  0
  6 20  1  0  0  0  0
  7 10  2  0  0  0  0
  7 19  1  0  0  0  0
  8 22  1  0  0  0  0
  9 22  2  0  0  0  0
 10 23  1  0  0  0  0
 11 12  2  0  0  0  0
 11 24  1  0  0  0  0
 12 25  1  0  0  0  0
 13 21  1  0  0  0  0
 13 23  2  0  0  0  0
 14 25  2  0  0  0  0
 14 26  1  0  0  0  0
 15 27  2  0  0  0  0
 15 28  1  0  0  0  0
 16 29  1  0  0  0  0
 17 29  1  0  0  0  0
 17 32  2  0  0  0  0
 17 33  1  0  0  0  0
 18 20  2  0  0  0  0
 18 38  1  0  0  0  0
 19 21  2  0  0  0  0
 19 39  1  0  0  0  0
 20 47  1  0  0  0  0
 21 40  1  0  0  0  0
 22 80  1  0  0  0  0
 23 81  1  0  0  0  0
 24 26  2  0  0  0  0
 24 80  1  0  0  0  0
 25 82  1  0  0  0  0
 26 83  1  0  0  0  0
 27 30  1  0  0  0  0
 27 84  1  0  0  0  0
 28 31  2  0  0  0  0
 28 85  1  0  0  0  0
 29 62  2  0  0  0  0
 30 63  2  0  0  0  0
 30 69  1  0  0  0  0
 31 63  1  0  0  0  0
 31 70  1  0  0  0  0
 32 64  1  0  0  0  0
 32 67  1  0  0  0  0
 33 68  1  0  0  0  0
 33 75  2  0  0  0  0
 34 48  1  0  0  0  0
 34 71  1  0  0  0  0
 34 76  2  0  0  0  0
 35 58  1  0  0  0  0
 35 65  1  0  0  0  0
 35 77  2  0  0  0  0
 36 59  1  0  0  0  0
 36 72  1  0  0  0  0
 36 78  2  0  0  0  0
 37 66  1  0  0  0  0
 37 69  1  0  0  0  0
 37 79  2  0  0  0  0
 38 41  1  0  0  0  0
 39 48  1  0  0  0  0
 40 65  1  0  0  0  0
 41 43  1  0  0  0  0
 42 44  1  0  0  0  0
 42 45  1  0  0  0  0
 43 47  1  0  0  0  0
 44 49  1  0  0  0  0
 45 66  1  0  0  0  0
 46 49  1  0  0  0  0
 46 66  1  0  0  0  0
 47 71  1  0  0  0  0
 48 65  1  0  0  0  0
 49 64  1  0  0  0  0
 50 59  1  0  0  0  0
 51 61  1  0  0  0  0
 52 61  1  0  0  0  0
 53 61  1  0  0  0  0
 54 74  1  0  0  0  0
 55 57  1  0  0  0  0
 55 60  1  0  0  0  0
 56 60  1  0  0  0  0
 56 70  1  0  0  0  0
 57 81  1  0  0  0  0
 58 61  1  0  0  0  0
 58 72  1  0  0  0  0
 59 74  1  0  0  0  0
 60 73  1  0  0  0  0
 62 64  1  0  0  0  0
M  CHG  2  73   1  74   1
M  ISO  4  37 100  57 101  69 100  81 101
M  END
> <Batch ID>
0192

> <Smiles>
CNC(C)C(=O)NC(C(=O)N1Cc2cc([101O:1][101CH2:1]CC(N)CNc3nc([100NH:0][100C:0](=O)N4CCCC(n5nc(-c6ccc(Oc7ccc(F)cc7F)cc6)c(C(N)=O)c5N)C4)c(F)cc3F)ccc2CC1C(=O)NC1CCCc2ccccc21)C(C)(C)C

> <Shape>
0.266

> <Color>
0.099

> <Negative vol penalty>
0.000

$$$$

  -OEChem-04052305273D

 84 92  0     1  0  0  0  0  0999 V2000
  -25.8175  -29.2568   26.0155 C   0  0  0  0  0  0  0  0  0  0  0  0
  -25.5256  -28.1536   25.2198 C   0  0  0  0  0  0  0  0  0  0  0  0
  -23.0006   -9.8940   19.9832 C   0  0  0  0  0  0  0  0  0  0  0  0
  -23.7295   -9.9468   22.2860 C   0  0  0  0  0  0  0  0  0  0  0  0
  -26.8071  -29.1673   26.9935 C   0  0  0  0  0  0  0  0  0  0  0  0
  -26.2240  -26.9604   25.4010 C   0  0  0  0  0  0  0  0  0  0  0  0
  -23.1839  -22.9104   25.4009 C   0  0  0  0  0  0  0  0  0  0  0  0
  -22.2355   -8.7590   20.2514 C   0  0  0  0  0  0  0  0  0  0  0  0
  -22.9644   -8.8118   22.5542 C   0  0  0  0  0  0  0  0  0  0  0  0
  -22.7349  -22.4513   24.1634 C   0  0  0  0  0  0  0  0  0  0  0  0
  -23.2107   -5.4728   22.0837 C   0  0  0  0  0  0  0  0  0  0  0  0
  -23.8003   -4.4565   22.8354 C   0  0  0  0  0  0  0  0  0  0  0  0
  -24.4201  -20.7256   24.1990 C   0  0  0  0  0  0  0  0  0  0  0  0
  -22.0790   -4.6989   24.5133 C   0  0  0  0  0  0  0  0  0  0  0  0
  -28.4094  -19.1267   21.2291 C   0  0  0  0  0  0  0  0  0  0  0  0
  -23.7477  -10.4879   21.0005 C   0  0  0  0  0  0  0  0  0  0  0  0
  -24.1306  -13.0037   20.8225 C   0  0  0  0  0  0  0  0  0  0  0  0
  -27.5114  -27.9695   27.1932 C   0  0  0  0  0  0  0  0  0  0  0  0
  -24.2632  -22.2863   26.0428 C   0  0  0  0  0  0  0  0  0  0  0  0
  -27.2250  -26.8551   26.3817 C   0  0  0  0  0  0  0  0  0  0  0  0
  -24.8792  -21.1771   25.4458 C   0  0  0  0  0  0  0  0  0  0  0  0
  -22.2173   -8.2179   21.5369 C   0  0  0  0  0  0  0  0  0  0  0  0
  -23.3549  -21.3605   23.5609 C   0  0  0  0  0  0  0  0  0  0  0  0
  -22.0553   -6.1023   22.5468 C   0  0  0  0  0  0  0  0  0  0  0  0
  -23.2345   -4.0695   24.0501 C   0  0  0  0  0  0  0  0  0  0  0  0
  -21.4894   -5.7153   23.7616 C   0  0  0  0  0  0  0  0  0  0  0  0
  -24.5388  -11.6600   20.7239 C   0  0  0  0  0  0  0  0  0  0  0  0
  -28.6655  -18.1468   22.1653 C   0  0  0  0  0  0  0  0  0  0  0  0
  -25.2392  -13.7270   20.4559 C   0  0  0  0  0  0  0  0  0  0  0  0
  -26.3626  -18.3874   21.5010 C   0  0  0  0  0  0  0  0  0  0  0  0
  -22.8628  -13.5493   21.2108 C   0  0  0  0  0  0  0  0  0  0  0  0
  -27.1648  -23.2059   26.9585 C   0  0  0  0  0  0  0  0  0  0  0  0
  -27.2517  -20.2539   28.3002 C   0  0  0  0  0  0  0  0  0  0  0  0
  -26.0866  -17.0463   28.3227 C   0  0  0  0  0  0  0  0  0  0  0  0
  -30.7352  -14.6664   20.6950 C   0  0  0  0  0  0  0  0  0  0  0  0
  -28.6052  -27.9349   28.2310 C   0  0  0  0  0  0  0  0  0  0  0  0
  -24.7182  -22.7770   27.3898 C   0  0  0  0  0  0  0  0  0  0  0  0
  -26.0287  -20.4593   26.1030 C   0  0  0  0  0  0  0  0  0  0  0  0
  -29.0399  -26.5218   28.6110 C   0  0  0  0  0  0  0  0  0  0  0  0
  -29.5927  -12.2405   18.3526 C   0  0  0  0  0  0  0  0  0  0  0  0
  -29.2470  -25.6726   27.3609 C   0  0  0  0  0  0  0  0  0  0  0  0
  -28.1451  -11.9798   18.7727 C   0  0  0  0  0  0  0  0  0  0  0  0
  -30.4969  -12.4773   19.5603 C   0  0  0  0  0  0  0  0  0  0  0  0
  -28.5883  -13.2719   20.9017 C   0  0  0  0  0  0  0  0  0  0  0  0
  -27.9437  -25.5359   26.5646 C   0  0  1  0  0  0  0  0  0  0  0  0
  -26.1569  -22.3862   27.7134 C   0  0  1  0  0  0  0  0  0  0  0  0
  -27.6275  -13.0828   19.7154 C   0  0  2  0  0  0  0  0  0  0  0  0
  -26.3736  -14.8545   29.5106 C   0  0  0  0  0  0  0  0  0  0  0  0
  -24.3760  -18.5526   19.0410 C   0  0  0  0  0  0  0  0  0  0  0  0
  -20.9658  -19.5431   22.6198 C   0  0  0  0  0  0  0  0  0  0  0  0
  -29.8669  -19.7858   26.7996 C   0  0  0  0  0  0  0  0  0  0  0  0
  -29.6037  -17.3364   27.2461 C   0  0  0  0  0  0  0  0  0  0  0  0
  -29.8451  -18.9305   29.1496 C   0  0  0  0  0  0  0  0  0  0  0  0
  -23.2674  -17.0330   29.2235 C   0  0  0  0  0  0  0  0  0  0  0  0
  -29.9434  -17.7377   22.7793 C   0  0  0  0  0  0  0  0  0  0  0  0
  -22.7160  -19.0036   20.8860 C   0  0  0  0  0  0  0  0  0  0  0  0
  -30.8180  -16.8460   21.8788 C   0  0  0  0  0  0  0  0  0  0  0  0
  -27.6832  -18.8825   27.8396 C   0  0  1  0  0  0  0  0  0  0  0  0
  -25.5965  -16.1605   29.4540 C   0  0  2  0  0  0  0  0  0  0  0  0
  -24.1943  -19.0631   20.4678 C   0  0  1  0  0  0  0  0  0  0  0  0
  -22.4531  -19.5634   22.2908 C   0  0  1  0  0  0  0  0  0  1  0  0
  -29.2293  -18.7483   27.7452 C   0  0  0  0  0  0  0  0  0  0  0  0
  -27.0895  -19.2658   20.8467 N   0  0  0  0  0  0  0  0  0  0  0  0
  -25.8075  -11.5344   20.3258 N   0  0  0  0  0  0  0  0  0  0  0  0
  -26.2061  -12.8084   20.1708 N   0  0  0  0  0  0  0  0  0  0  0  0
  -26.4412  -20.9807   27.4166 N   0  0  0  0  0  0  0  0  0  0  0  0
  -29.9506  -13.5360   20.4127 N   0  0  0  0  0  0  0  0  0  0  0  0
  -25.4714  -15.0529   20.3528 N   0  0  0  0  0  0  0  0  0  0  0  0
  -21.8324  -12.6644   21.5565 N   0  0  0  0  0  0  0  0  0  0  0  0
  -24.9934  -18.2489   21.3594 N   0  0  0  0  0  0  0  0  0  0  0  0
  -27.0699  -24.5652   27.1880 N   0  0  0  0  0  0  0  0  0  0  0  0
  -27.0552  -17.9301   28.7490 N   0  0  0  0  0  0  0  0  0  0  0  0
  -30.1393  -15.6251   21.5053 N   0  0  0  0  0  0  0  0  0  0  0  0
  -24.1523  -15.8406   29.2729 N   0  3  0  0  0  0  0  0  0  0  0  0
  -22.6451  -14.7844   21.2343 O   0  0  0  0  0  0  0  0  0  0  0  0
  -27.9700  -22.6465   26.2233 O   0  0  0  0  0  0  0  0  0  0  0  0
  -27.6143  -20.6622   29.4062 O   0  0  0  0  0  0  0  0  0  0  0  0
  -25.6560  -16.9600   27.1748 O   0  0  0  0  0  0  0  0  0  0  0  0
  -31.8797  -14.8130   20.2529 O   0  0  0  0  0  0  0  0  0  0  0  0
  -21.4706   -7.1105   21.7990 O   0  0  0  0  0  0  0  0  0  0  0  0
  -22.9191  -20.9108   22.3527 O   0  0  0  0  0  0  0  0  0  1  0  0
  -23.7999   -3.0925   24.7711 F   0  0  0  0  0  0  0  0  0  0  0  0
  -20.3787   -6.3154   24.2111 F   0  0  0  0  0  0  0  0  0  0  0  0
  -27.2012  -17.3628   22.5926 S   0  0  0  0  0  0  0  0  0  0  0  0
  1  2  1  0  0  0  0
  1  5  2  0  0  0  0
  2  6  2  0  0  0  0
  3  8  2  0  0  0  0
  3 16  1  0  0  0  0
  4  9  1  0  0  0  0
  4 16  2  0  0  0  0
  5 18  1  0  0  0  0
  6 20  1  0  0  0  0
  7 10  2  0  0  0  0
  7 19  1  0  0  0  0
  8 22  1  0  0  0  0
  9 22  2  0  0  0  0
 10 23  1  0  0  0  0
 11 12  2  0  0  0  0
 11 24  1  0  0  0  0
 12 25  1  0  0  0  0
 13 21  1  0  0  0  0
 13 23  2  0  0  0  0
 14 25  2  0  0  0  0
 14 26  1  0  0  0  0
 15 28  2  0  0  0  0
 15 63  1  0  0  0  0
 16 27  1  0  0  0  0
 17 27  1  0  0  0  0
 17 29  2  0  0  0  0
 17 31  1  0  0  0  0
 18 20  2  0  0  0  0
 18 36  1  0  0  0  0
 19 21  2  0  0  0  0
 19 37  1  0  0  0  0
 20 45  1  0  0  0  0
 21 38  1  0  0  0  0
 22 80  1  0  0  0  0
 23 81  1  0  0  0  0
 24 26  2  0  0  0  0
 24 80  1  0  0  0  0
 25 82  1  0  0  0  0
 26 83  1  0  0  0  0
 27 64  2  0  0  0  0
 28 55  1  0  0  0  0
 28 84  1  0  0  0  0
 29 65  1  0  0  0  0
 29 68  1  0  0  0  0
 30 63  2  0  0  0  0
 30 70  1  0  0  0  0
 30 84  1  0  0  0  0
 31 69  1  0  0  0  0
 31 75  2  0  0  0  0
 32 46  1  0  0  0  0
 32 71  1  0  0  0  0
 32 76  2  0  0  0  0
 33 58  1  0  0  0  0
 33 66  1  0  0  0  0
 33 77  2  0  0  0  0
 34 59  1  0  0  0  0
 34 72  1  0  0  0  0
 34 78  2  0  0  0  0
 35 67  1  0  0  0  0
 35 73  1  0  0  0  0
 35 79  2  0  0  0  0
 36 39  1  0  0  0  0
 37 46  1  0  0  0  0
 38 66  1  0  0  0  0
 39 41  1  0  0  0  0
 40 42  1  0  0  0  0
 40 43  1  0  0  0  0
 41 45  1  0  0  0  0
 42 47  1  0  0  0  0
 43 67  1  0  0  0  0
 44 47  1  0  0  0  0
 44 67  1  0  0  0  0
 45 71  1  0  0  0  0
 46 66  1  0  0  0  0
 47 65  1  0  0  0  0
 48 59  1  0  0  0  0
 49 60  1  0  0  0  0
 50 61  1  0  0  0  0
 51 62  1  0  0  0  0
 52 62  1  0  0  0  0
 53 62  1  0  0  0  0
 54 74  1  0  0  0  0
 55 57  1  0  0  0  0
 56 60  1  0  0  0  0
 56 61  1  0  0  0  0
 57 73  1  0  0  0  0
 58 62  1  0  0  0  0
 58 72  1  0  0  0  0
 59 74  1  0  0  0  0
 60 70  1  0  0  0  0
 61 81  1  0  0  0  0
 64 65  1  0  0  0  0
M  CHG  1  74   1
M  ISO  4  35 100  61 101  73 100  81 101
M  END
> <Batch ID>
0192

> <Smiles>
CNC(C)C(=O)NC(C(=O)N1Cc2cc([101O:1][101CH:1](C)CC(C)Nc3ncc(CC[100NH:0][100C:0](=O)N4CCCC(n5nc(-c6ccc(Oc7ccc(F)cc7F)cc6)c(C(N)=O)c5N)C4)s3)ccc2CC1C(=O)NC1CCCc2ccccc21)C(C)(C)C

> <Shape>
0.186

> <Color>
0.197

> <Negative vol penalty>
0.000

$$$$

  -OEChem-04052305273D

 83 91  0     1  0  0  0  0  0999 V2000
  -17.9722  -25.4167   22.4203 C   0  0  0  0  0  0  0  0  0  0  0  0
  -19.2829  -25.1427   22.0428 C   0  0  0  0  0  0  0  0  0  0  0  0
  -24.6366  -15.1810   21.3866 C   0  0  0  0  0  0  0  0  0  0  0  0
  -27.0345  -14.9940   21.6147 C   0  0  0  0  0  0  0  0  0  0  0  0
  -17.5013  -26.7288   22.3975 C   0  0  0  0  0  0  0  0  0  0  0  0
  -20.1231  -26.1806   21.6413 C   0  0  0  0  0  0  0  0  0  0  0  0
  -26.1541  -26.6194   22.6108 C   0  0  0  0  0  0  0  0  0  0  0  0
  -24.5643  -13.8319   21.0399 C   0  0  0  0  0  0  0  0  0  0  0  0
  -26.9623  -13.6448   21.2681 C   0  0  0  0  0  0  0  0  0  0  0  0
  -27.2566  -26.3382   21.8050 C   0  0  0  0  0  0  0  0  0  0  0  0
  -24.6320  -10.8457   22.6246 C   0  0  0  0  0  0  0  0  0  0  0  0
  -23.6364  -10.0747   23.2245 C   0  0  0  0  0  0  0  0  0  0  0  0
  -31.9937  -21.3335   19.7738 C   0  0  0  0  0  0  0  0  0  0  0  0
  -27.3743  -28.6613   21.1657 C   0  0  0  0  0  0  0  0  0  0  0  0
  -22.7117   -9.5761   21.0488 C   0  0  0  0  0  0  0  0  0  0  0  0
  -33.2863  -21.8046   19.6663 C   0  0  0  0  0  0  0  0  0  0  0  0
  -25.8717  -15.7621   21.6740 C   0  0  0  0  0  0  0  0  0  0  0  0
  -25.8672  -17.7073   23.3244 C   0  0  0  0  0  0  0  0  0  0  0  0
  -18.3390  -27.7845   22.0048 C   0  0  0  0  0  0  0  0  0  0  0  0
  -25.6459  -27.9238   22.6917 C   0  0  0  0  0  0  0  0  0  0  0  0
  -19.6625  -27.5079   21.6120 C   0  0  0  0  0  0  0  0  0  0  0  0
  -26.2668  -28.9569   21.9752 C   0  0  0  0  0  0  0  0  0  0  0  0
  -25.7271  -13.0638   20.9807 C   0  0  0  0  0  0  0  0  0  0  0  0
  -27.8650  -27.3586   21.0800 C   0  0  0  0  0  0  0  0  0  0  0  0
  -24.6674  -10.9820   21.2368 C   0  0  0  0  0  0  0  0  0  0  0  0
  -22.6763   -9.4398   22.4366 C   0  0  0  0  0  0  0  0  0  0  0  0
  -23.7073  -10.3471   20.4489 C   0  0  0  0  0  0  0  0  0  0  0  0
  -25.9470  -17.1558   22.0316 C   0  0  0  0  0  0  0  0  0  0  0  0
  -31.0168  -22.1407   19.2276 C   0  0  0  0  0  0  0  0  0  0  0  0
  -25.9923  -19.0610   23.1286 C   0  0  0  0  0  0  0  0  0  0  0  0
  -32.5703  -23.6683   18.5795 C   0  0  0  0  0  0  0  0  0  0  0  0
  -25.6955  -17.0542   24.5892 C   0  0  0  0  0  0  0  0  0  0  0  0
  -22.8742  -29.3003   21.9661 C   0  0  0  0  0  0  0  0  0  0  0  0
  -24.2413  -31.8911   23.3594 C   0  0  0  0  0  0  0  0  0  0  0  0
  -27.0978  -33.5303   24.2536 C   0  0  0  0  0  0  0  0  0  0  0  0
  -28.5369  -22.3467   18.8351 C   0  0  0  0  0  0  0  0  0  0  0  0
  -17.7709  -29.1806   21.9510 C   0  0  0  0  0  0  0  0  0  0  0  0
  -24.4724  -28.2157   23.5863 C   0  0  0  0  0  0  0  0  0  0  0  0
  -25.7723  -30.3779   22.0436 C   0  0  0  0  0  0  0  0  0  0  0  0
  -18.8377  -30.2696   21.8714 C   0  0  0  0  0  0  0  0  0  0  0  0
  -25.1340  -22.4693   19.8757 C   0  0  0  0  0  0  0  0  0  0  0  0
  -19.8893  -29.9114   20.8262 C   0  0  0  0  0  0  0  0  0  0  0  0
  -24.9508  -21.1737   20.6695 C   0  0  0  0  0  0  0  0  0  0  0  0
  -26.0582  -22.2730   18.6752 C   0  0  0  0  0  0  0  0  0  0  0  0
  -27.1786  -20.3778   19.7806 C   0  0  0  0  0  0  0  0  0  0  0  0
  -20.6118  -28.6098   21.1941 C   0  0  1  0  0  0  0  0  0  0  0  0
  -23.7221  -29.4844   23.1928 C   0  0  1  0  0  0  0  0  0  0  0  0
  -26.3074  -20.5411   21.0368 C   0  0  2  0  0  0  0  0  0  0  0  0
  -27.8966  -35.6446   25.3441 C   0  0  0  0  0  0  0  0  0  0  0  0
  -32.5471  -26.6451   16.3578 C   0  0  0  0  0  0  0  0  0  0  0  0
  -23.5926  -33.4456   20.8153 C   0  0  0  0  0  0  0  0  0  0  0  0
  -25.2116  -35.2041   21.5602 C   0  0  0  0  0  0  0  0  0  0  0  0
  -23.1928  -34.7056   22.9382 C   0  0  0  0  0  0  0  0  0  0  0  0
  -28.4465  -32.0381   26.4246 C   0  0  0  0  0  0  0  0  0  0  0  0
  -29.8062  -27.0973   18.0339 C   0  0  0  0  0  0  0  0  0  0  0  0
  -31.1790  -26.5700   18.4742 C   0  0  0  0  0  0  0  0  0  0  0  0
  -29.1190  -27.8998   19.1331 C   0  0  0  0  0  0  0  0  0  1  0  0
  -25.0936  -33.0396   22.8764 C   0  0  1  0  0  0  0  0  0  0  0  0
  -27.5163  -34.1875   25.5565 C   0  0  2  0  0  0  0  0  0  0  0  0
  -31.8673  -25.7407   17.3810 C   0  0  2  0  0  0  0  0  0  0  0  0
  -24.2810  -34.0717   22.0445 C   0  0  0  0  0  0  0  0  0  0  0  0
  -33.6118  -22.9720   19.0734 N   0  0  0  0  0  0  0  0  0  0  0  0
  -26.1100  -18.0835   21.0845 N   0  0  0  0  0  0  0  0  0  0  0  0
  -31.2704  -23.3188   18.6209 N   0  0  0  0  0  0  0  0  0  0  0  0
  -26.1335  -19.2315   21.7828 N   0  0  0  0  0  0  0  0  0  0  0  0
  -24.6182  -30.6116   22.9272 N   0  0  0  0  0  0  0  0  0  0  0  0
  -27.3253  -21.6739   19.1000 N   0  0  0  0  0  0  0  0  0  0  0  0
  -25.9940  -20.1102   23.9780 N   0  0  0  0  0  0  0  0  0  0  0  0
  -25.5838  -15.6573   24.6101 N   0  0  0  0  0  0  0  0  0  0  0  0
  -29.6738  -21.6971   19.3145 N   0  0  0  0  0  0  0  0  0  0  0  0
  -32.8675  -24.8716   17.9653 N   0  0  0  0  0  0  0  0  0  0  0  0
  -21.5938  -28.8521   22.2292 N   0  0  0  0  0  0  0  0  0  0  0  0
  -25.7341  -33.5992   24.0617 N   0  0  0  0  0  0  0  0  0  0  0  0
  -28.6878  -33.4766   26.1423 N   0  3  0  0  0  0  0  0  0  0  0  0
  -25.6262  -17.6919   25.6672 O   0  0  0  0  0  0  0  0  0  0  0  0
  -23.3461  -29.5481   20.8626 O   0  0  0  0  0  0  0  0  0  0  0  0
  -23.2808  -32.1199   24.0989 O   0  0  0  0  0  0  0  0  0  0  0  0
  -27.9008  -33.0113   23.4814 O   0  0  0  0  0  0  0  0  0  0  0  0
  -28.5616  -23.4335   18.2517 O   0  0  0  0  0  0  0  0  0  0  0  0
  -25.6570  -11.7472   20.6427 O   0  0  0  0  0  0  0  0  0  0  0  0
  -28.9409  -27.0868   20.2923 O   0  0  0  0  0  0  0  0  0  1  0  0
  -21.7212   -8.6982   23.0127 F   0  0  0  0  0  0  0  0  0  0  0  0
  -23.7369  -10.4734   19.1151 F   0  0  0  0  0  0  0  0  0  0  0  0
  1  2  1  0  0  0  0
  1  5  2  0  0  0  0
  2  6  2  0  0  0  0
  3  8  2  0  0  0  0
  3 17  1  0  0  0  0
  4  9  1  0  0  0  0
  4 17  2  0  0  0  0
  5 19  1  0  0  0  0
  6 21  1  0  0  0  0
  7 10  2  0  0  0  0
  7 20  1  0  0  0  0
  8 23  1  0  0  0  0
  9 23  2  0  0  0  0
 10 24  1  0  0  0  0
 11 12  2  0  0  0  0
 11 25  1  0  0  0  0
 12 26  1  0  0  0  0
 13 16  1  0  0  0  0
 13 29  2  0  0  0  0
 14 22  1  0  0  0  0
 14 24  2  0  0  0  0
 15 26  2  0  0  0  0
 15 27  1  0  0  0  0
 16 62  2  0  0  0  0
 17 28  1  0  0  0  0
 18 28  1  0  0  0  0
 18 30  2  0  0  0  0
 18 32  1  0  0  0  0
 19 21  2  0  0  0  0
 19 37  1  0  0  0  0
 20 22  2  0  0  0  0
 20 38  1  0  0  0  0
 21 46  1  0  0  0  0
 22 39  1  0  0  0  0
 23 80  1  0  0  0  0
 24 81  1  0  0  0  0
 25 27  2  0  0  0  0
 25 80  1  0  0  0  0
 26 82  1  0  0  0  0
 27 83  1  0  0  0  0
 28 63  2  0  0  0  0
 29 64  1  0  0  0  0
 29 70  1  0  0  0  0
 30 65  1  0  0  0  0
 30 68  1  0  0  0  0
 31 62  1  0  0  0  0
 31 64  2  0  0  0  0
 31 71  1  0  0  0  0
 32 69  1  0  0  0  0
 32 75  2  0  0  0  0
 33 47  1  0  0  0  0
 33 72  1  0  0  0  0
 33 76  2  0  0  0  0
 34 58  1  0  0  0  0
 34 66  1  0  0  0  0
 34 77  2  0  0  0  0
 35 59  1  0  0  0  0
 35 73  1  0  0  0  0
 35 78  2  0  0  0  0
 36 67  1  0  0  0  0
 36 70  1  0  0  0  0
 36 79  2  0  0  0  0
 37 40  1  0  0  0  0
 38 47  1  0  0  0  0
 39 66  1  0  0  0  0
 40 42  1  0  0  0  0
 41 43  1  0  0  0  0
 41 44  1  0  0  0  0
 42 46  1  0  0  0  0
 43 48  1  0  0  0  0
 44 67  1  0  0  0  0
 45 48  1  0  0  0  0
 45 67  1  0  0  0  0
 46 72  1  0  0  0  0
 47 66  1  0  0  0  0
 48 65  1  0  0  0  0
 49 59  1  0  0  0  0
 50 60  1  0  0  0  0
 51 61  1  0  0  0  0
 52 61  1  0  0  0  0
 53 61  1  0  0  0  0
 54 74  1  0  0  0  0
 55 56  1  0  0  0  0
 55 57  1  0  0  0  0
 56 60  1  0  0  0  0
 57 81  1  0  0  0  0
 58 61  1  0  0  0  0
 58 73  1  0  0  0  0
 59 74  1  0  0  0  0
 60 71  1  0  0  0  0
 63 65  1  0  0  0  0
M  CHG  1  74   1
M  ISO  4  36 100  57 101  70 100  81 101
M  END
> <Batch ID>
0192

> <Smiles>
CNC(C)C(=O)NC(C(=O)N1Cc2cc([101O:1][101CH2:1]CCC(C)Nc3nccc([100NH:0][100C:0](=O)N4CCCC(n5nc(-c6ccc(Oc7ccc(F)cc7F)cc6)c(C(N)=O)c5N)C4)n3)ccc2CC1C(=O)NC1CCCc2ccccc21)C(C)(C)C

> <Shape>
0.255

> <Color>
0.095

> <Negative vol penalty>
0.000

$$$$

  -OEChem-04052305273D

 88 96  0     1  0  0  0  0  0999 V2000
  -17.1193  -25.5480   22.8453 C   0  0  0  0  0  0  0  0  0  0  0  0
  -18.1293  -25.5993   21.8899 C   0  0  0  0  0  0  0  0  0  0  0  0
  -26.7779  -13.0907   20.5402 C   0  0  0  0  0  0  0  0  0  0  0  0
  -25.3097  -14.7200   19.5268 C   0  0  0  0  0  0  0  0  0  0  0  0
  -16.7941  -26.6899   23.5762 C   0  0  0  0  0  0  0  0  0  0  0  0
  -18.8140  -26.7929   21.6642 C   0  0  0  0  0  0  0  0  0  0  0  0
  -23.8216  -26.1241   21.3167 C   0  0  0  0  0  0  0  0  0  0  0  0
  -25.8429  -12.0881   20.2829 C   0  0  0  0  0  0  0  0  0  0  0  0
  -24.3747  -13.7174   19.2694 C   0  0  0  0  0  0  0  0  0  0  0  0
  -24.3149  -25.6219   20.1132 C   0  0  0  0  0  0  0  0  0  0  0  0
  -22.9477  -10.9782   21.6282 C   0  0  0  0  0  0  0  0  0  0  0  0
  -22.6718  -10.0720   22.6521 C   0  0  0  0  0  0  0  0  0  0  0  0
  -24.9392  -27.8540   19.4447 C   0  0  0  0  0  0  0  0  0  0  0  0
  -23.4104   -8.2543   21.2423 C   0  0  0  0  0  0  0  0  0  0  0  0
  -27.4424  -24.3277   23.6613 C   0  0  0  0  0  0  0  0  0  0  0  0
  -26.5113  -14.4067   20.1622 C   0  0  0  0  0  0  0  0  0  0  0  0
  -28.5242  -15.8648   19.5880 C   0  0  0  0  0  0  0  0  0  0  0  0
  -17.4817  -27.8956   23.3661 C   0  0  0  0  0  0  0  0  0  0  0  0
  -23.8736  -27.4987   21.5890 C   0  0  0  0  0  0  0  0  0  0  0  0
  -18.4968  -27.9523   22.3921 C   0  0  0  0  0  0  0  0  0  0  0  0
  -24.4483  -28.3708   20.6534 C   0  0  0  0  0  0  0  0  0  0  0  0
  -24.6413  -12.4015   19.6475 C   0  0  0  0  0  0  0  0  0  0  0  0
  -24.8712  -26.4872   19.1758 C   0  0  0  0  0  0  0  0  0  0  0  0
  -23.4548  -10.5224   20.4113 C   0  0  0  0  0  0  0  0  0  0  0  0
  -22.9032   -8.7101   22.4592 C   0  0  0  0  0  0  0  0  0  0  0  0
  -23.6862   -9.1604   20.2184 C   0  0  0  0  0  0  0  0  0  0  0  0
  -27.4765  -15.4429   20.4282 C   0  0  0  0  0  0  0  0  0  0  0  0
  -26.6980  -23.3826   22.9870 C   0  0  0  0  0  0  0  0  0  0  0  0
  -29.1475  -16.8657   20.2924 C   0  0  0  0  0  0  0  0  0  0  0  0
  -27.6035  -24.3838   21.2585 C   0  0  0  0  0  0  0  0  0  0  0  0
  -28.9005  -15.3940   18.2870 C   0  0  0  0  0  0  0  0  0  0  0  0
  -21.7081  -29.7613   22.1321 C   0  0  0  0  0  0  0  0  0  0  0  0
  -24.3272  -31.5782   22.7334 C   0  0  0  0  0  0  0  0  0  0  0  0
  -27.6648  -32.1001   22.2486 C   0  0  0  0  0  0  0  0  0  0  0  0
  -27.2835  -20.5999   24.5857 C   0  0  0  0  0  0  0  0  0  0  0  0
  -17.0627  -29.1158   24.1472 C   0  0  0  0  0  0  0  0  0  0  0  0
  -23.3615  -28.0212   22.9032 C   0  0  0  0  0  0  0  0  0  0  0  0
  -24.5463  -29.8523   20.9062 C   0  0  0  0  0  0  0  0  0  0  0  0
  -18.0899  -30.2444   24.1112 C   0  0  0  0  0  0  0  0  0  0  0  0
  -30.0093  -18.3166   24.7693 C   0  0  0  0  0  0  0  0  0  0  0  0
  -18.5825  -30.4727   22.6857 C   0  0  0  0  0  0  0  0  0  0  0  0
  -29.7638  -17.3593   23.6018 C   0  0  0  0  0  0  0  0  0  0  0  0
  -28.7015  -18.7513   25.4273 C   0  0  0  0  0  0  0  0  0  0  0  0
  -27.4571  -18.3629   23.3358 C   0  0  0  0  0  0  0  0  0  0  0  0
  -19.2791  -29.2221   22.1358 C   0  0  1  0  0  0  0  0  0  0  0  0
  -22.9987  -29.5023   22.8567 C   0  0  1  0  0  0  0  0  0  0  0  0
  -28.7431  -17.9407   22.6050 C   0  0  2  0  0  0  0  0  0  0  0  0
  -32.0196  -21.8192   18.6117 C   0  0  0  0  0  0  0  0  0  0  0  0
  -26.0642  -21.4194   17.6796 C   0  0  0  0  0  0  0  0  0  0  0  0
  -29.5161  -33.6887   22.8370 C   0  0  0  0  0  0  0  0  0  0  0  0
  -26.8575  -27.0823   16.4753 C   0  0  0  0  0  0  0  0  0  0  0  0
  -23.2455  -33.5858   20.7062 C   0  0  0  0  0  0  0  0  0  0  0  0
  -25.5203  -34.6289   20.6300 C   0  0  0  0  0  0  0  0  0  0  0  0
  -24.2300  -34.6093   22.7648 C   0  0  0  0  0  0  0  0  0  0  0  0
  -29.2000  -29.9813   23.6316 C   0  0  0  0  0  0  0  0  0  0  0  0
  -25.8328  -22.3613   23.6100 C   0  0  0  0  0  0  0  0  0  0  0  0
  -30.5389  -21.6099   18.8860 C   0  0  0  0  0  0  0  0  0  0  0  0
  -27.5504  -21.7217   17.5438 C   0  0  0  0  0  0  0  0  0  0  0  0
  -29.6602  -22.8002   18.4800 C   0  0  0  0  0  0  0  0  0  0  0  0
  -27.4674  -24.8786   17.5546 C   0  0  0  0  0  0  0  0  0  0  0  0
  -25.2338  -32.4547   21.9035 C   0  0  1  0  0  0  0  0  0  0  0  0
  -28.7876  -32.4104   23.2219 C   0  0  2  0  0  0  0  0  0  0  0  0
  -28.1301  -22.6161   18.6665 C   0  0  1  0  0  0  0  0  0  0  0  0
  -27.3892  -23.9812   18.8054 C   0  0  1  0  0  0  0  0  0  0  0  0
  -26.7376  -26.2209   17.7261 C   0  0  2  0  0  0  0  0  0  1  0  0
  -24.5539  -33.7920   21.4952 C   0  0  0  0  0  0  0  0  0  0  0  0
  -27.4334  -16.1203   21.5786 N   0  0  0  0  0  0  0  0  0  0  0  0
  -26.7888  -23.4135   21.6091 N   0  0  0  0  0  0  0  0  0  0  0  0
  -28.4620  -16.9779   21.4662 N   0  0  0  0  0  0  0  0  0  0  0  0
  -24.0260  -30.3157   22.2031 N   0  0  0  0  0  0  0  0  0  0  0  0
  -27.7783  -19.2947   24.4282 N   0  0  0  0  0  0  0  0  0  0  0  0
  -30.2095  -17.6519   20.0161 N   0  0  0  0  0  0  0  0  0  0  0  0
  -28.1525  -14.3593   17.7088 N   0  0  0  0  0  0  0  0  0  0  0  0
  -27.9225  -24.6973   19.9529 N   0  0  0  0  0  0  0  0  0  0  0  0
  -20.6172  -29.1103   22.6758 N   0  0  0  0  0  0  0  0  0  0  0  0
  -26.4608  -32.6194   22.6753 N   0  0  0  0  0  0  0  0  0  0  0  0
  -26.4191  -21.0396   23.5907 N   0  0  0  0  0  0  0  0  0  0  0  0
  -29.7758  -31.2951   23.2454 N   0  3  0  0  0  0  0  0  0  0  0  0
  -29.8812  -15.8654   17.6629 O   0  0  0  0  0  0  0  0  0  0  0  0
  -21.7023  -30.4983   21.1531 O   0  0  0  0  0  0  0  0  0  0  0  0
  -23.9077  -31.9954   23.8158 O   0  0  0  0  0  0  0  0  0  0  0  0
  -27.8390  -31.4640   21.2115 O   0  0  0  0  0  0  0  0  0  0  0  0
  -27.5936  -21.3218   25.5395 O   0  0  0  0  0  0  0  0  0  0  0  0
  -23.7289  -11.4234   19.3960 O   0  0  0  0  0  0  0  0  0  0  0  0
  -25.3557  -25.9969   17.9931 O   0  0  0  0  0  0  0  0  0  1  0  0
  -22.6398   -7.8402   23.4431 F   0  0  0  0  0  0  0  0  0  0  0  0
  -24.1744   -8.7167   19.0520 F   0  0  0  0  0  0  0  0  0  0  0  0
  -28.2962  -25.2986   22.5345 S   0  0  0  0  0  0  0  0  0  0  0  0
  1  2  1  0  0  0  0
  1  5  2  0  0  0  0
  2  6  2  0  0  0  0
  3  8  2  0  0  0  0
  3 16  1  0  0  0  0
  4  9  1  0  0  0  0
  4 16  2  0  0  0  0
  5 18  1  0  0  0  0
  6 20  1  0  0  0  0
  7 10  2  0  0  0  0
  7 19  1  0  0  0  0
  8 22  1  0  0  0  0
  9 22  2  0  0  0  0
 10 23  1  0  0  0  0
 11 12  2  0  0  0  0
 11 24  1  0  0  0  0
 12 25  1  0  0  0  0
 13 21  1  0  0  0  0
 13 23  2  0  0  0  0
 14 25  2  0  0  0  0
 14 26  1  0  0  0  0
 15 28  2  0  0  0  0
 15 88  1  0  0  0  0
 16 27  1  0  0  0  0
 17 27  1  0  0  0  0
 17 29  2  0  0  0  0
 17 31  1  0  0  0  0
 18 20  2  0  0  0  0
 18 36  1  0  0  0  0
 19 21  2  0  0  0  0
 19 37  1  0  0  0  0
 20 45  1  0  0  0  0
 21 38  1  0  0  0  0
 22 84  1  0  0  0  0
 23 85  1  0  0  0  0
 24 26  2  0  0  0  0
 24 84  1  0  0  0  0
 25 86  1  0  0  0  0
 26 87  1  0  0  0  0
 27 67  2  0  0  0  0
 28 56  1  0  0  0  0
 28 68  1  0  0  0  0
 29 69  1  0  0  0  0
 29 72  1  0  0  0  0
 30 68  2  0  0  0  0
 30 74  1  0  0  0  0
 30 88  1  0  0  0  0
 31 73  1  0  0  0  0
 31 79  2  0  0  0  0
 32 46  1  0  0  0  0
 32 75  1  0  0  0  0
 32 80  2  0  0  0  0
 33 61  1  0  0  0  0
 33 70  1  0  0  0  0
 33 81  2  0  0  0  0
 34 62  1  0  0  0  0
 34 76  1  0  0  0  0
 34 82  2  0  0  0  0
 35 71  1  0  0  0  0
 35 77  1  0  0  0  0
 35 83  2  0  0  0  0
 36 39  1  0  0  0  0
 37 46  1  0  0  0  0
 38 70  1  0  0  0  0
 39 41  1  0  0  0  0
 40 42  1  0  0  0  0
 40 43  1  0  0  0  0
 41 45  1  0  0  0  0
 42 47  1  0  0  0  0
 43 71  1  0  0  0  0
 44 47  1  0  0  0  0
 44 71  1  0  0  0  0
 45 75  1  0  0  0  0
 46 70  1  0  0  0  0
 47 69  1  0  0  0  0
 48 57  1  0  0  0  0
 49 58  1  0  0  0  0
 50 62  1  0  0  0  0
 51 65  1  0  0  0  0
 52 66  1  0  0  0  0
 53 66  1  0  0  0  0
 54 66  1  0  0  0  0
 55 78  1  0  0  0  0
 56 77  1  0  0  0  0
 57 59  1  0  0  0  0
 58 63  1  0  0  0  0
 59 63  1  0  0  0  0
 60 64  1  0  0  0  0
 60 65  1  0  0  0  0
 61 66  1  0  0  0  0
 61 76  1  0  0  0  0
 62 78  1  0  0  0  0
 63 64  1  0  0  0  0
 64 74  1  0  0  0  0
 65 85  1  0  0  0  0
 67 69  1  0  0  0  0
M  CHG  1  78   1
M  ISO  4  35 100  65 101  77 100  85 101
M  END
> <Batch ID>
0192

> <Smiles>
CCCC(CC)C(C[101CH:1](C)[101O:1]c1ccc2c(c1)CN(C(=O)C(NC(=O)C(C)NC)C(C)(C)C)C(C(=O)NC1CCCc3ccccc31)C2)Nc1nc(C[100NH:0][100C:0](=O)N2CCCC(n3nc(-c4ccc(Oc5ccc(F)cc5F)cc4)c(C(N)=O)c3N)C2)cs1

> <Shape>
0.248

> <Color>
0.078

> <Negative vol penalty>
0.000

$$$$

  -OEChem-04052305273D

 87 95  0     1  0  0  0  0  0999 V2000
  -24.3155  -33.3016   26.6879 C   0  0  0  0  0  0  0  0  0  0  0  0
  -24.9233  -32.1673   27.2167 C   0  0  0  0  0  0  0  0  0  0  0  0
  -23.0000   -9.8908   19.9818 C   0  0  0  0  0  0  0  0  0  0  0  0
  -23.7251   -9.9451   22.2857 C   0  0  0  0  0  0  0  0  0  0  0  0
  -24.4997  -33.6278   25.3449 C   0  0  0  0  0  0  0  0  0  0  0  0
  -25.7147  -31.3580   26.4024 C   0  0  0  0  0  0  0  0  0  0  0  0
  -30.7478  -28.2812   28.0476 C   0  0  0  0  0  0  0  0  0  0  0  0
  -22.2341   -8.7562   20.2496 C   0  0  0  0  0  0  0  0  0  0  0  0
  -22.9591   -8.8106   22.5536 C   0  0  0  0  0  0  0  0  0  0  0  0
  -30.9594  -26.9492   28.4008 C   0  0  0  0  0  0  0  0  0  0  0  0
  -23.2053   -5.4712   22.0860 C   0  0  0  0  0  0  0  0  0  0  0  0
  -23.7934   -4.4553   22.8394 C   0  0  0  0  0  0  0  0  0  0  0  0
  -31.6216  -26.4595   26.1334 C   0  0  0  0  0  0  0  0  0  0  0  0
  -22.0694   -4.6994   24.5143 C   0  0  0  0  0  0  0  0  0  0  0  0
  -23.7455  -10.4852   20.9999 C   0  0  0  0  0  0  0  0  0  0  0  0
  -24.1295  -13.0008   20.8206 C   0  0  0  0  0  0  0  0  0  0  0  0
  -25.3015  -32.8273   24.5161 C   0  0  0  0  0  0  0  0  0  0  0  0
  -30.9614  -28.7108   26.7300 C   0  0  0  0  0  0  0  0  0  0  0  0
  -25.9086  -31.6730   25.0467 C   0  0  0  0  0  0  0  0  0  0  0  0
  -31.4145  -27.7981   25.7667 C   0  0  0  0  0  0  0  0  0  0  0  0
  -22.2136   -8.2161   21.5354 C   0  0  0  0  0  0  0  0  0  0  0  0
  -31.3936  -26.0375   27.4430 C   0  0  0  0  0  0  0  0  0  0  0  0
  -22.0493   -6.1013   22.5467 C   0  0  0  0  0  0  0  0  0  0  0  0
  -23.2254   -4.0693   24.0535 C   0  0  0  0  0  0  0  0  0  0  0  0
  -21.4813   -5.7154   23.7608 C   0  0  0  0  0  0  0  0  0  0  0  0
  -24.5374  -11.6569   20.7237 C   0  0  0  0  0  0  0  0  0  0  0  0
  -31.8398  -18.6686   22.2006 C   0  0  0  0  0  0  0  0  0  0  0  0
  -25.2388  -13.7235   20.4553 C   0  0  0  0  0  0  0  0  0  0  0  0
  -30.7328  -19.0712   22.9180 C   0  0  0  0  0  0  0  0  0  0  0  0
  -30.5793  -16.9026   21.8806 C   0  0  0  0  0  0  0  0  0  0  0  0
  -22.8612  -13.5470   21.2064 C   0  0  0  0  0  0  0  0  0  0  0  0
  -29.1293  -29.9618   24.4536 C   0  0  0  0  0  0  0  0  0  0  0  0
  -31.9526  -30.2522   22.8830 C   0  0  0  0  0  0  0  0  0  0  0  0
  -35.1665  -29.1781   22.4780 C   0  0  0  0  0  0  0  0  0  0  0  0
  -30.7178  -14.6878   20.6881 C   0  0  0  0  0  0  0  0  0  0  0  0
  -25.4327  -33.1943   23.0591 C   0  0  0  0  0  0  0  0  0  0  0  0
  -30.7542  -30.1567   26.3713 C   0  0  0  0  0  0  0  0  0  0  0  0
  -31.6780  -28.2131   24.3431 C   0  0  0  0  0  0  0  0  0  0  0  0
  -26.5903  -32.4905   22.3556 C   0  0  0  0  0  0  0  0  0  0  0  0
  -29.6008  -12.2315   18.3652 C   0  0  0  0  0  0  0  0  0  0  0  0
  -26.5976  -31.0037   22.6966 C   0  0  0  0  0  0  0  0  0  0  0  0
  -28.1504  -11.9736   18.7797 C   0  0  0  0  0  0  0  0  0  0  0  0
  -30.5012  -12.4768   19.5747 C   0  0  0  0  0  0  0  0  0  0  0  0
  -28.5854  -13.2663   20.9072 C   0  0  0  0  0  0  0  0  0  0  0  0
  -26.7944  -30.7837   24.2014 C   0  0  1  0  0  0  0  0  0  0  0  0
  -30.5096  -30.3736   24.8812 C   0  0  1  0  0  0  0  0  0  0  0  0
  -27.6279  -13.0780   19.7193 C   0  0  2  0  0  0  0  0  0  0  0  0
  -33.3667  -19.7898   20.5378 C   0  0  0  0  0  0  0  0  0  0  0  0
  -34.3257  -18.7284   22.6135 C   0  0  0  0  0  0  0  0  0  0  0  0
  -37.2180  -29.5809   21.0900 C   0  0  0  0  0  0  0  0  0  0  0  0
  -28.2727  -21.0155   23.3293 C   0  0  0  0  0  0  0  0  0  0  0  0
  -30.6678  -28.7567   20.5544 C   0  0  0  0  0  0  0  0  0  0  0  0
  -32.9623  -28.3593   19.6346 C   0  0  0  0  0  0  0  0  0  0  0  0
  -32.1075  -30.6893   19.8858 C   0  0  0  0  0  0  0  0  0  0  0  0
  -36.7626  -29.9427   24.8501 C   0  0  0  0  0  0  0  0  0  0  0  0
  -30.9667  -22.4410   27.4017 C   0  0  0  0  0  0  0  0  0  0  0  0
  -29.6124  -21.6932   25.3572 C   0  0  0  0  0  0  0  0  0  0  0  0
  -31.3952  -23.7572   26.7675 C   0  0  0  0  0  0  0  0  0  1  0  0
  -33.0889  -19.4374   22.0167 C   0  0  0  0  0  0  0  0  0  0  0  0
  -32.7510  -29.3761   21.9482 C   0  0  1  0  0  0  0  0  0  0  0  0
  -36.4762  -29.9377   22.3688 C   0  0  2  0  0  0  0  0  0  0  0  0
  -29.3363  -20.5791   24.3327 C   0  0  2  0  0  0  0  0  0  0  0  0
  -30.6899  -21.3236   26.3903 C   0  0  2  0  0  0  0  0  0  0  0  0
  -32.1154  -29.2868   20.5320 C   0  0  0  0  0  0  0  0  0  0  0  0
  -25.8067  -11.5306   20.3277 N   0  0  0  0  0  0  0  0  0  0  0  0
  -31.7537  -17.4252   21.6054 N   0  0  0  0  0  0  0  0  0  0  0  0
  -26.2060  -12.8044   20.1725 N   0  0  0  0  0  0  0  0  0  0  0  0
  -31.4548  -29.6364   24.0401 N   0  0  0  0  0  0  0  0  0  0  0  0
  -29.9456  -13.5385   20.4167 N   0  0  0  0  0  0  0  0  0  0  0  0
  -25.4716  -15.0492   20.3515 N   0  0  0  0  0  0  0  0  0  0  0  0
  -21.8299  -12.6628   21.5511 N   0  0  0  0  0  0  0  0  0  0  0  0
  -30.5482  -20.2551   23.6092 N   0  0  0  0  0  0  0  0  0  0  0  0
  -30.0730  -15.6436   21.4725 N   0  0  0  0  0  0  0  0  0  0  0  0
  -28.1845  -30.9645   24.5610 N   0  0  0  0  0  0  0  0  0  0  0  0
  -34.1124  -29.9005   21.9602 N   0  0  0  0  0  0  0  0  0  0  0  0
  -37.3576  -29.6198   23.5277 N   0  3  0  0  0  0  0  0  0  0  0  0
  -22.6438  -14.7822   21.2286 O   0  0  0  0  0  0  0  0  0  0  0  0
  -28.9360  -28.8195   24.0544 O   0  0  0  0  0  0  0  0  0  0  0  0
  -31.7831  -31.4410   22.6007 O   0  0  0  0  0  0  0  0  0  0  0  0
  -35.0871  -28.0545   22.9698 O   0  0  0  0  0  0  0  0  0  0  0  0
  -31.8564  -14.8268   20.2339 O   0  0  0  0  0  0  0  0  0  0  0  0
  -30.2731  -20.1672   27.1183 O   0  0  0  0  0  0  0  0  0  0  0  0
  -21.4662   -7.1092   21.7972 O   0  0  0  0  0  0  0  0  0  0  0  0
  -31.6003  -24.7366   27.7849 O   0  0  0  0  0  0  0  0  0  1  0  0
  -23.7894   -3.0927   24.7762 F   0  0  0  0  0  0  0  0  0  0  0  0
  -20.3701   -6.3162   24.2081 F   0  0  0  0  0  0  0  0  0  0  0  0
  -29.5285  -17.8520   22.8498 S   0  0  0  0  0  0  0  0  0  0  0  0
  1  2  1  0  0  0  0
  1  5  2  0  0  0  0
  2  6  2  0  0  0  0
  3  8  2  0  0  0  0
  3 15  1  0  0  0  0
  4  9  1  0  0  0  0
  4 15  2  0  0  0  0
  5 17  1  0  0  0  0
  6 19  1  0  0  0  0
  7 10  2  0  0  0  0
  7 18  1  0  0  0  0
  8 21  1  0  0  0  0
  9 21  2  0  0  0  0
 10 22  1  0  0  0  0
 11 12  2  0  0  0  0
 11 23  1  0  0  0  0
 12 24  1  0  0  0  0
 13 20  1  0  0  0  0
 13 22  2  0  0  0  0
 14 24  2  0  0  0  0
 14 25  1  0  0  0  0
 15 26  1  0  0  0  0
 16 26  1  0  0  0  0
 16 28  2  0  0  0  0
 16 31  1  0  0  0  0
 17 19  2  0  0  0  0
 17 36  1  0  0  0  0
 18 20  2  0  0  0  0
 18 37  1  0  0  0  0
 19 45  1  0  0  0  0
 20 38  1  0  0  0  0
 21 83  1  0  0  0  0
 22 84  1  0  0  0  0
 23 25  2  0  0  0  0
 23 83  1  0  0  0  0
 24 85  1  0  0  0  0
 25 86  1  0  0  0  0
 26 65  2  0  0  0  0
 27 29  2  0  0  0  0
 27 59  1  0  0  0  0
 27 66  1  0  0  0  0
 28 67  1  0  0  0  0
 28 70  1  0  0  0  0
 29 72  1  0  0  0  0
 29 87  1  0  0  0  0
 30 66  2  0  0  0  0
 30 73  1  0  0  0  0
 30 87  1  0  0  0  0
 31 71  1  0  0  0  0
 31 77  2  0  0  0  0
 32 46  1  0  0  0  0
 32 74  1  0  0  0  0
 32 78  2  0  0  0  0
 33 60  1  0  0  0  0
 33 68  1  0  0  0  0
 33 79  2  0  0  0  0
 34 61  1  0  0  0  0
 34 75  1  0  0  0  0
 34 80  2  0  0  0  0
 35 69  1  0  0  0  0
 35 73  1  0  0  0  0
 35 81  2  0  0  0  0
 36 39  1  0  0  0  0
 37 46  1  0  0  0  0
 38 68  1  0  0  0  0
 39 41  1  0  0  0  0
 40 42  1  0  0  0  0
 40 43  1  0  0  0  0
 41 45  1  0  0  0  0
 42 47  1  0  0  0  0
 43 69  1  0  0  0  0
 44 47  1  0  0  0  0
 44 69  1  0  0  0  0
 45 74  1  0  0  0  0
 46 68  1  0  0  0  0
 47 67  1  0  0  0  0
 48 59  1  0  0  0  0
 49 59  1  0  0  0  0
 50 61  1  0  0  0  0
 51 62  1  0  0  0  0
 52 64  1  0  0  0  0
 53 64  1  0  0  0  0
 54 64  1  0  0  0  0
 55 76  1  0  0  0  0
 56 58  1  0  0  0  0
 56 63  1  0  0  0  0
 57 62  1  0  0  0  0
 57 63  1  0  0  0  0
 58 84  1  0  0  0  0
 60 64  1  0  0  0  0
 60 75  1  0  0  0  0
 61 76  1  0  0  0  0
 62 72  1  0  0  0  0
 63 82  1  0  0  0  0
 65 67  1  0  0  0  0
M  CHG  1  76   1
M  ISO  4  35 100  58 101  73 100  84 101
M  END
> <Batch ID>
0192

> <Smiles>
CNC(C)C(=O)NC(C(=O)N1Cc2cc([101O:1][101CH2:1]CC(O)CC(C)Nc3sc([100NH:0][100C:0](=O)N4CCCC(n5nc(-c6ccc(Oc7ccc(F)cc7F)cc6)c(C(N)=O)c5N)C4)nc3C(C)C)ccc2CC1C(=O)NC1CCCc2ccccc21)C(C)(C)C

> <Shape>
0.248

> <Color>
0.186

> <Negative vol penalty>
0.000

$$$$

  -OEChem-04052305273D

 85 93  0     1  0  0  0  0  0999 V2000
  -25.5412  -11.4300   20.6375 C   0  0  0  0  0  0  0  0  0  0  0  0
  -26.4187  -12.5084   20.6882 C   0  0  0  0  0  0  0  0  0  0  0  0
  -24.5266  -29.9947   20.4467 C   0  0  0  0  0  0  0  0  0  0  0  0
  -24.3354  -28.4189   22.2681 C   0  0  0  0  0  0  0  0  0  0  0  0
  -24.1649  -11.6524   20.6293 C   0  0  0  0  0  0  0  0  0  0  0  0
  -25.9202  -13.8100   20.7297 C   0  0  0  0  0  0  0  0  0  0  0  0
  -28.2876  -16.6886   24.1581 C   0  0  0  0  0  0  0  0  0  0  0  0
  -24.2133  -31.0387   21.3171 C   0  0  0  0  0  0  0  0  0  0  0  0
  -24.0221  -29.4629   23.1385 C   0  0  0  0  0  0  0  0  0  0  0  0
  -29.5426  -17.1880   23.8127 C   0  0  0  0  0  0  0  0  0  0  0  0
  -23.8179  -34.1623   23.1341 C   0  0  0  0  0  0  0  0  0  0  0  0
  -24.5884  -35.3225   23.0590 C   0  0  0  0  0  0  0  0  0  0  0  0
  -28.5399  -19.3126   23.2654 C   0  0  0  0  0  0  0  0  0  0  0  0
  -26.5669  -34.0432   23.5939 C   0  0  0  0  0  0  0  0  0  0  0  0
  -27.9544  -20.3916   19.0545 C   0  0  0  0  0  0  0  0  0  0  0  0
  -24.5876  -28.6847   20.9222 C   0  0  0  0  0  0  0  0  0  0  0  0
  -26.1912  -27.1036   19.7238 C   0  0  0  0  0  0  0  0  0  0  0  0
  -23.6491  -12.9570   20.6805 C   0  0  0  0  0  0  0  0  0  0  0  0
  -27.1459  -17.4955   24.0492 C   0  0  0  0  0  0  0  0  0  0  0  0
  -24.5356  -14.0502   20.7209 C   0  0  0  0  0  0  0  0  0  0  0  0
  -27.2719  -18.8219   23.6125 C   0  0  0  0  0  0  0  0  0  0  0  0
  -23.9611  -30.7728   22.6629 C   0  0  0  0  0  0  0  0  0  0  0  0
  -29.6686  -18.4993   23.3635 C   0  0  0  0  0  0  0  0  0  0  0  0
  -24.4218  -32.9425   23.4391 C   0  0  0  0  0  0  0  0  0  0  0  0
  -25.9629  -35.2630   23.2889 C   0  0  0  0  0  0  0  0  0  0  0  0
  -25.7963  -32.8829   23.6690 C   0  0  0  0  0  0  0  0  0  0  0  0
  -24.9107  -27.6058   20.0236 C   0  0  0  0  0  0  0  0  0  0  0  0
  -26.0975  -19.5539   18.0155 C   0  0  0  0  0  0  0  0  0  0  0  0
  -28.4800  -19.1212   19.1395 C   0  0  0  0  0  0  0  0  0  0  0  0
  -26.6234  -18.2835   18.0997 C   0  0  0  0  0  0  0  0  0  0  0  0
  -25.9611  -26.0911   18.8247 C   0  0  0  0  0  0  0  0  0  0  0  0
  -27.4740  -27.5155   20.2142 C   0  0  0  0  0  0  0  0  0  0  0  0
  -24.4570  -17.3610   22.3594 C   0  0  0  0  0  0  0  0  0  0  0  0
  -23.6545  -19.9358   24.1620 C   0  0  0  0  0  0  0  0  0  0  0  0
  -30.5645  -19.9400   20.2923 C   0  0  0  0  0  0  0  0  0  0  0  0
  -24.6851  -22.5888   26.0451 C   0  0  0  0  0  0  0  0  0  0  0  0
  -23.0705  -21.6115   17.1746 C   0  0  0  0  0  0  0  0  0  0  0  0
  -22.1544  -13.1496   20.6218 C   0  0  0  0  0  0  0  0  0  0  0  0
  -25.8030  -16.9502   24.4512 C   0  0  0  0  0  0  0  0  0  0  0  0
  -26.0800  -19.7355   23.4971 C   0  0  0  0  0  0  0  0  0  0  0  0
  -21.7029  -14.5447   21.0462 C   0  0  0  0  0  0  0  0  0  0  0  0
  -21.7612  -24.8087   16.3142 C   0  0  0  0  0  0  0  0  0  0  0  0
  -22.5633  -15.6112   20.3760 C   0  0  0  0  0  0  0  0  0  0  0  0
  -22.5649  -25.7787   17.1821 C   0  0  0  0  0  0  0  0  0  0  0  0
  -21.4733  -23.5007   17.0480 C   0  0  0  0  0  0  0  0  0  0  0  0
  -23.4664  -23.7952   18.4673 C   0  0  0  0  0  0  0  0  0  0  0  0
  -24.0330  -15.4758   20.7919 C   0  0  1  0  0  0  0  0  0  0  0  0
  -24.6381  -17.6998   23.8121 C   0  0  1  0  0  0  0  0  0  0  0  0
  -23.8294  -25.1069   17.7503 C   0  0  2  0  0  0  0  0  0  0  0  0
  -23.7990  -24.5362   27.3565 C   0  0  0  0  0  0  0  0  0  0  0  0
  -32.8982  -17.7762   22.5295 C   0  0  0  0  0  0  0  0  0  0  0  0
  -23.0646  -21.4164   21.5601 C   0  0  0  0  0  0  0  0  0  0  0  0
  -23.1161  -23.5613   22.8504 C   0  0  0  0  0  0  0  0  0  0  0  0
  -21.4097  -21.8237   23.3904 C   0  0  0  0  0  0  0  0  0  0  0  0
  -25.8962  -21.5973   28.5569 C   0  0  0  0  0  0  0  0  0  0  0  0
  -24.7683  -19.8143   17.3911 C   0  0  0  0  0  0  0  0  0  0  0  0
  -31.8456  -19.3249   20.8472 C   0  0  0  0  0  0  0  0  0  0  0  0
  -23.8245  -21.4298   24.0275 C   0  0  1  0  0  0  0  0  0  0  0  0
  -24.2480  -23.0843   27.4118 C   0  0  2  0  0  0  0  0  0  0  0  0
  -31.5901  -18.3232   21.9733 C   0  0  2  0  0  0  0  0  0  1  0  0
  -22.8761  -22.0402   22.9573 C   0  0  0  0  0  0  0  0  0  0  0  0
  -26.7536  -20.6308   18.4910 N   0  0  0  0  0  0  0  0  0  0  0  0
  -23.9391  -26.9652   19.3680 N   0  0  0  0  0  0  0  0  0  0  0  0
  -27.8239  -18.0443   18.6636 N   0  0  0  0  0  0  0  0  0  0  0  0
  -24.6094  -26.0501   18.6473 N   0  0  0  0  0  0  0  0  0  0  0  0
  -24.7876  -19.1540   23.8960 N   0  0  0  0  0  0  0  0  0  0  0  0
  -22.7139  -22.9141   17.5605 N   0  0  0  0  0  0  0  0  0  0  0  0
  -25.8870  -17.1949   17.5813 N   0  0  0  0  0  0  0  0  0  0  0  0
  -26.7852  -25.2407   18.1765 N   0  0  0  0  0  0  0  0  0  0  0  0
  -27.5300  -28.5722   21.1333 N   0  0  0  0  0  0  0  0  0  0  0  0
  -29.7466  -18.9533   19.7481 N   0  0  0  0  0  0  0  0  0  0  0  0
  -24.2350  -16.0186   22.1182 N   0  0  0  0  0  0  0  0  0  0  0  0
  -23.6493  -21.9826   25.3662 N   0  0  0  0  0  0  0  0  0  0  0  0
  -24.2647  -21.1339   17.7006 N   0  0  0  0  0  0  0  0  0  0  0  0
  -25.3711  -22.9764   28.3854 N   0  3  0  0  0  0  0  0  0  0  0  0
  -28.5402  -26.9738   19.8358 O   0  0  0  0  0  0  0  0  0  0  0  0
  -24.5129  -18.2518   21.5198 O   0  0  0  0  0  0  0  0  0  0  0  0
  -22.5587  -19.4796   24.4978 O   0  0  0  0  0  0  0  0  0  0  0  0
  -30.3408  -21.1446   20.3471 O   0  0  0  0  0  0  0  0  0  0  0  0
  -25.8300  -22.7290   25.6205 O   0  0  0  0  0  0  0  0  0  0  0  0
  -22.3788  -20.9269   16.4131 O   0  0  0  0  0  0  0  0  0  0  0  0
  -23.6556  -31.7913   23.5125 O   0  0  0  0  0  0  0  0  0  0  0  0
  -30.8923  -18.9890   23.0250 O   0  0  0  0  0  0  0  0  0  1  0  0
  -26.7030  -36.3771   23.2153 F   0  0  0  0  0  0  0  0  0  0  0  0
  -26.3823  -31.7138   23.9613 F   0  0  0  0  0  0  0  0  0  0  0  0
  1  2  1  0  0  0  0
  1  5  2  0  0  0  0
  2  6  2  0  0  0  0
  3  8  2  0  0  0  0
  3 16  1  0  0  0  0
  4  9  1  0  0  0  0
  4 16  2  0  0  0  0
  5 18  1  0  0  0  0
  6 20  1  0  0  0  0
  7 10  2  0  0  0  0
  7 19  1  0  0  0  0
  8 22  1  0  0  0  0
  9 22  2  0  0  0  0
 10 23  1  0  0  0  0
 11 12  2  0  0  0  0
 11 24  1  0  0  0  0
 12 25  1  0  0  0  0
 13 21  1  0  0  0  0
 13 23  2  0  0  0  0
 14 25  2  0  0  0  0
 14 26  1  0  0  0  0
 15 29  1  0  0  0  0
 15 62  2  0  0  0  0
 16 27  1  0  0  0  0
 17 27  1  0  0  0  0
 17 31  2  0  0  0  0
 17 32  1  0  0  0  0
 18 20  2  0  0  0  0
 18 38  1  0  0  0  0
 19 21  2  0  0  0  0
 19 39  1  0  0  0  0
 20 47  1  0  0  0  0
 21 40  1  0  0  0  0
 22 82  1  0  0  0  0
 23 83  1  0  0  0  0
 24 26  2  0  0  0  0
 24 82  1  0  0  0  0
 25 84  1  0  0  0  0
 26 85  1  0  0  0  0
 27 63  2  0  0  0  0
 28 30  2  0  0  0  0
 28 56  1  0  0  0  0
 28 62  1  0  0  0  0
 29 64  2  0  0  0  0
 29 71  1  0  0  0  0
 30 64  1  0  0  0  0
 30 68  1  0  0  0  0
 31 65  1  0  0  0  0
 31 69  1  0  0  0  0
 32 70  1  0  0  0  0
 32 76  2  0  0  0  0
 33 48  1  0  0  0  0
 33 72  1  0  0  0  0
 33 77  2  0  0  0  0
 34 58  1  0  0  0  0
 34 66  1  0  0  0  0
 34 78  2  0  0  0  0
 35 57  1  0  0  0  0
 35 71  1  0  0  0  0
 35 79  2  0  0  0  0
 36 59  1  0  0  0  0
 36 73  1  0  0  0  0
 36 80  2  0  0  0  0
 37 67  1  0  0  0  0
 37 74  1  0  0  0  0
 37 81  2  0  0  0  0
 38 41  1  0  0  0  0
 39 48  1  0  0  0  0
 40 66  1  0  0  0  0
 41 43  1  0  0  0  0
 42 44  1  0  0  0  0
 42 45  1  0  0  0  0
 43 47  1  0  0  0  0
 44 49  1  0  0  0  0
 45 67  1  0  0  0  0
 46 49  1  0  0  0  0
 46 67  1  0  0  0  0
 47 72  1  0  0  0  0
 48 66  1  0  0  0  0
 49 65  1  0  0  0  0
 50 59  1  0  0  0  0
 51 60  1  0  0  0  0
 52 61  1  0  0  0  0
 53 61  1  0  0  0  0
 54 61  1  0  0  0  0
 55 75  1  0  0  0  0
 56 74  1  0  0  0  0
 57 60  1  0  0  0  0
 58 61  1  0  0  0  0
 58 73  1  0  0  0  0
 59 75  1  0  0  0  0
 60 83  1  0  0  0  0
 63 65  1  0  0  0  0
M  CHG  1  75   1
M  ISO  4  37 100  60 101  74 100  83 101
M  END
> <Batch ID>
0192

> <Smiles>
CNC(C)C(=O)NC(C(=O)N1Cc2cc([101O:1][101CH:1](C)CC(=O)Nc3cnc(C[100NH:0][100C:0](=O)N4CCCC(n5nc(-c6ccc(Oc7ccc(F)cc7F)cc6)c(C(N)=O)c5N)C4)c(N)n3)ccc2CC1C(=O)NC1CCCc2ccccc21)C(C)(C)C

> <Shape>
0.192

> <Color>
0.057

> <Negative vol penalty>
0.000

$$$$

  -OEChem-04052305273D

 83 91  0     1  0  0  0  0  0999 V2000
  -17.1560  -27.8717   29.7433 C   0  0  0  0  0  0  0  0  0  0  0  0
  -18.4079  -27.6262   29.1884 C   0  0  0  0  0  0  0  0  0  0  0  0
  -23.0758   -9.8660   19.9431 C   0  0  0  0  0  0  0  0  0  0  0  0
  -23.8359   -9.8759   22.2364 C   0  0  0  0  0  0  0  0  0  0  0  0
  -16.4445  -26.8331   30.3424 C   0  0  0  0  0  0  0  0  0  0  0  0
  -18.9495  -26.3421   29.2332 C   0  0  0  0  0  0  0  0  0  0  0  0
  -22.4719  -23.6819   24.9880 C   0  0  0  0  0  0  0  0  0  0  0  0
  -22.3325   -8.7128   20.1944 C   0  0  0  0  0  0  0  0  0  0  0  0
  -23.0926   -8.7227   22.4877 C   0  0  0  0  0  0  0  0  0  0  0  0
  -23.8522  -23.5144   24.8850 C   0  0  0  0  0  0  0  0  0  0  0  0
  -21.1092   -5.9861   23.8276 C   0  0  0  0  0  0  0  0  0  0  0  0
  -20.3531   -5.9434   24.9989 C   0  0  0  0  0  0  0  0  0  0  0  0
  -23.6495  -21.3078   25.8383 C   0  0  0  0  0  0  0  0  0  0  0  0
  -19.1075   -7.8792   24.2654 C   0  0  0  0  0  0  0  0  0  0  0  0
  -29.7552  -17.7154   22.7109 C   0  0  0  0  0  0  0  0  0  0  0  0
  -32.1923  -18.5447   21.9477 C   0  0  0  0  0  0  0  0  0  0  0  0
  -23.8275  -10.4476   20.9641 C   0  0  0  0  0  0  0  0  0  0  0  0
  -24.1681  -12.9728   20.8412 C   0  0  0  0  0  0  0  0  0  0  0  0
  -16.9735  -25.5335   30.3860 C   0  0  0  0  0  0  0  0  0  0  0  0
  -21.6700  -22.6661   25.5279 C   0  0  0  0  0  0  0  0  0  0  0  0
  -18.2450  -25.2853   29.8346 C   0  0  0  0  0  0  0  0  0  0  0  0
  -22.2590  -21.4638   25.9446 C   0  0  0  0  0  0  0  0  0  0  0  0
  -22.3409   -8.1411   21.4667 C   0  0  0  0  0  0  0  0  0  0  0  0
  -24.4415  -22.3284   25.3129 C   0  0  0  0  0  0  0  0  0  0  0  0
  -20.8645   -6.9753   22.8752 C   0  0  0  0  0  0  0  0  0  0  0  0
  -19.3522   -6.8899   25.2178 C   0  0  0  0  0  0  0  0  0  0  0  0
  -19.8636   -7.9219   23.0940 C   0  0  0  0  0  0  0  0  0  0  0  0
  -24.5960  -11.6385   20.7049 C   0  0  0  0  0  0  0  0  0  0  0  0
  -30.5700  -16.9533   21.8986 C   0  0  0  0  0  0  0  0  0  0  0  0
  -30.2747  -18.9314   23.1054 C   0  0  0  0  0  0  0  0  0  0  0  0
  -25.2598  -13.7224   20.4770 C   0  0  0  0  0  0  0  0  0  0  0  0
  -22.8974  -13.4884   21.2597 C   0  0  0  0  0  0  0  0  0  0  0  0
  -19.7583  -22.4221   28.0556 C   0  0  0  0  0  0  0  0  0  0  0  0
  -19.0617  -19.5304   26.7615 C   0  0  0  0  0  0  0  0  0  0  0  0
  -20.0240  -16.9514   24.7441 C   0  0  0  0  0  0  0  0  0  0  0  0
  -30.7255  -14.7709   20.6499 C   0  0  0  0  0  0  0  0  0  0  0  0
  -16.1878  -24.4531   31.0862 C   0  0  0  0  0  0  0  0  0  0  0  0
  -20.1795  -22.8518   25.6074 C   0  0  0  0  0  0  0  0  0  0  0  0
  -21.4400  -20.3346   26.5128 C   0  0  0  0  0  0  0  0  0  0  0  0
  -16.6689  -23.0416   30.7600 C   0  0  0  0  0  0  0  0  0  0  0  0
  -29.6121  -12.3539   18.2845 C   0  0  0  0  0  0  0  0  0  0  0  0
  -18.1893  -22.9607   30.8539 C   0  0  0  0  0  0  0  0  0  0  0  0
  -28.1726  -12.0621   18.7145 C   0  0  0  0  0  0  0  0  0  0  0  0
  -30.5272  -12.5845   19.4858 C   0  0  0  0  0  0  0  0  0  0  0  0
  -28.6200  -13.3095   20.8664 C   0  0  0  0  0  0  0  0  0  0  0  0
  -18.8552  -23.9006   29.8416 C   0  0  1  0  0  0  0  0  0  0  0  0
  -19.5200  -21.9525   26.6484 C   0  0  1  0  0  0  0  0  0  0  0  0
  -27.6471  -13.1345   19.6889 C   0  0  2  0  0  0  0  0  0  0  0  0
  -19.2607  -14.7100   23.9130 C   0  0  0  0  0  0  0  0  0  0  0  0
  -30.8610  -20.8178   25.5788 C   0  0  0  0  0  0  0  0  0  0  0  0
  -19.7634  -18.2931   29.4609 C   0  0  0  0  0  0  0  0  0  0  0  0
  -19.9085  -16.0670   28.3244 C   0  0  0  0  0  0  0  0  0  0  0  0
  -17.7464  -17.3108   28.3558 C   0  0  0  0  0  0  0  0  0  0  0  0
  -20.0381  -17.8615   21.9280 C   0  0  0  0  0  0  0  0  0  0  0  0
  -27.6736  -22.0500   23.7031 C   0  0  0  0  0  0  0  0  0  0  0  0
  -28.6772  -21.8428   24.8461 C   0  0  0  0  0  0  0  0  0  0  0  0
  -26.4504  -22.8433   24.1487 C   0  0  0  0  0  0  0  0  0  1  0  0
  -19.6308  -18.1378   26.8871 C   0  0  1  0  0  0  0  0  0  0  0  0
  -19.2912  -16.2064   23.6431 C   0  0  2  0  0  0  0  0  0  0  0  0
  -29.9010  -21.0243   24.4115 C   0  0  2  0  0  0  0  0  0  0  0  0
  -19.2782  -17.4740   28.2482 C   0  0  0  0  0  0  0  0  0  0  0  0
  -31.7988  -17.3386   21.4962 N   0  0  0  0  0  0  0  0  0  0  0  0
  -31.4942  -19.3792   22.7414 N   0  0  0  0  0  0  0  0  0  0  0  0
  -25.8608  -11.5429   20.2866 N   0  0  0  0  0  0  0  0  0  0  0  0
  -26.2371  -12.8265   20.1568 N   0  0  0  0  0  0  0  0  0  0  0  0
  -19.9876  -20.5667   26.5758 N   0  0  0  0  0  0  0  0  0  0  0  0
  -29.9678  -13.6160   20.3621 N   0  0  0  0  0  0  0  0  0  0  0  0
  -25.4695  -15.0539   20.4025 N   0  0  0  0  0  0  0  0  0  0  0  0
  -21.8860  -12.5791   21.5981 N   0  0  0  0  0  0  0  0  0  0  0  0
  -30.0777  -15.6965   21.4674 N   0  0  0  0  0  0  0  0  0  0  0  0
  -29.4877  -19.7268   23.9188 N   0  0  0  0  0  0  0  0  0  0  0  0
  -18.8169  -23.3234   28.5150 N   0  0  0  0  0  0  0  0  0  0  0  0
  -19.1598  -17.3976   25.7215 N   0  0  0  0  0  0  0  0  0  0  0  0
  -19.9594  -16.4336   22.3305 N   0  3  0  0  0  0  0  0  0  0  0  0
  -22.6605  -14.7190   21.3157 O   0  0  0  0  0  0  0  0  0  0  0  0
  -20.7239  -21.9971   28.6791 O   0  0  0  0  0  0  0  0  0  0  0  0
  -17.8401  -19.6918   26.8187 O   0  0  0  0  0  0  0  0  0  0  0  0
  -21.2418  -17.1176   24.7397 O   0  0  0  0  0  0  0  0  0  0  0  0
  -31.8545  -14.9397   20.1820 O   0  0  0  0  0  0  0  0  0  0  0  0
  -21.6156   -7.0159   21.7124 O   0  0  0  0  0  0  0  0  0  0  0  0
  -25.7886  -22.1626   25.2141 O   0  0  0  0  0  0  0  0  0  1  0  0
  -18.6251   -6.8479   26.3420 F   0  0  0  0  0  0  0  0  0  0  0  0
  -19.6232   -8.8740   22.1821 F   0  0  0  0  0  0  0  0  0  0  0  0
  1  2  1  0  0  0  0
  1  5  2  0  0  0  0
  2  6  2  0  0  0  0
  3  8  2  0  0  0  0
  3 17  1  0  0  0  0
  4  9  1  0  0  0  0
  4 17  2  0  0  0  0
  5 19  1  0  0  0  0
  6 21  1  0  0  0  0
  7 10  2  0  0  0  0
  7 20  1  0  0  0  0
  8 23  1  0  0  0  0
  9 23  2  0  0  0  0
 10 24  1  0  0  0  0
 11 12  2  0  0  0  0
 11 25  1  0  0  0  0
 12 26  1  0  0  0  0
 13 22  1  0  0  0  0
 13 24  2  0  0  0  0
 14 26  2  0  0  0  0
 14 27  1  0  0  0  0
 15 29  2  0  0  0  0
 15 30  1  0  0  0  0
 16 62  2  0  0  0  0
 16 63  1  0  0  0  0
 17 28  1  0  0  0  0
 18 28  1  0  0  0  0
 18 31  2  0  0  0  0
 18 32  1  0  0  0  0
 19 21  2  0  0  0  0
 19 37  1  0  0  0  0
 20 22  2  0  0  0  0
 20 38  1  0  0  0  0
 21 46  1  0  0  0  0
 22 39  1  0  0  0  0
 23 80  1  0  0  0  0
 24 81  1  0  0  0  0
 25 27  2  0  0  0  0
 25 80  1  0  0  0  0
 26 82  1  0  0  0  0
 27 83  1  0  0  0  0
 28 64  2  0  0  0  0
 29 62  1  0  0  0  0
 29 70  1  0  0  0  0
 30 63  2  0  0  0  0
 30 71  1  0  0  0  0
 31 65  1  0  0  0  0
 31 68  1  0  0  0  0
 32 69  1  0  0  0  0
 32 75  2  0  0  0  0
 33 47  1  0  0  0  0
 33 72  1  0  0  0  0
 33 76  2  0  0  0  0
 34 58  1  0  0  0  0
 34 66  1  0  0  0  0
 34 77  2  0  0  0  0
 35 59  1  0  0  0  0
 35 73  1  0  0  0  0
 35 78  2  0  0  0  0
 36 67  1  0  0  0  0
 36 70  1  0  0  0  0
 36 79  2  0  0  0  0
 37 40  1  0  0  0  0
 38 47  1  0  0  0  0
 39 66  1  0  0  0  0
 40 42  1  0  0  0  0
 41 43  1  0  0  0  0
 41 44  1  0  0  0  0
 42 46  1  0  0  0  0
 43 48  1  0  0  0  0
 44 67  1  0  0  0  0
 45 48  1  0  0  0  0
 45 67  1  0  0  0  0
 46 72  1  0  0  0  0
 47 66  1  0  0  0  0
 48 65  1  0  0  0  0
 49 59  1  0  0  0  0
 50 60  1  0  0  0  0
 51 61  1  0  0  0  0
 52 61  1  0  0  0  0
 53 61  1  0  0  0  0
 54 74  1  0  0  0  0
 55 56  1  0  0  0  0
 55 57  1  0  0  0  0
 56 60  1  0  0  0  0
 57 81  1  0  0  0  0
 58 61  1  0  0  0  0
 58 73  1  0  0  0  0
 59 74  1  0  0  0  0
 60 71  1  0  0  0  0
 64 65  1  0  0  0  0
M  CHG  1  74   1
M  ISO  4  36 100  57 101  70 100  81 101
M  END
> <Batch ID>
0192

> <Smiles>
CNC(C)C(=O)NC(C(=O)N1Cc2cc([101O:1][101CH2:1]CCC(C)Nc3cc([100NH:0][100C:0](=O)N4CCCC(n5nc(-c6ccc(Oc7ccc(F)cc7F)cc6)c(C(N)=O)c5N)C4)ncn3)ccc2CC1C(=O)NC1CCCc2ccccc21)C(C)(C)C

> <Shape>
0.165

> <Color>
0.188

> <Negative vol penalty>
0.000

$$$$

  -OEChem-04052305273D

 88 96  0     1  0  0  0  0  0999 V2000
  -31.9784  -18.2198   21.0470 C   0  0  0  0  0  0  0  0  0  0  0  0
  -30.7291  -18.8149   20.9040 C   0  0  0  0  0  0  0  0  0  0  0  0
  -29.4001  -28.1022   20.2100 C   0  0  0  0  0  0  0  0  0  0  0  0
  -27.5858  -26.8882   19.1748 C   0  0  0  0  0  0  0  0  0  0  0  0
  -32.1089  -16.8372   20.9232 C   0  0  0  0  0  0  0  0  0  0  0  0
  -29.6097  -18.0279   20.6360 C   0  0  0  0  0  0  0  0  0  0  0  0
  -23.8910  -18.9645   22.6173 C   0  0  0  0  0  0  0  0  0  0  0  0
  -30.2140  -26.9742   20.1067 C   0  0  0  0  0  0  0  0  0  0  0  0
  -28.3997  -25.7602   19.0714 C   0  0  0  0  0  0  0  0  0  0  0  0
  -22.7730  -19.5419   22.0168 C   0  0  0  0  0  0  0  0  0  0  0  0
  -30.8801  -24.6563   17.0590 C   0  0  0  0  0  0  0  0  0  0  0  0
  -30.8720  -23.9619   15.8493 C   0  0  0  0  0  0  0  0  0  0  0  0
  -21.9964  -17.3513   21.3706 C   0  0  0  0  0  0  0  0  0  0  0  0
  -30.1035  -21.9776   16.9934 C   0  0  0  0  0  0  0  0  0  0  0  0
  -19.6481  -26.1586   20.6351 C   0  0  0  0  0  0  0  0  0  0  0  0
  -28.0860  -28.0593   19.7442 C   0  0  0  0  0  0  0  0  0  0  0  0
  -27.0952  -30.2547   18.9040 C   0  0  0  0  0  0  0  0  0  0  0  0
  -30.9890  -16.0318   20.6632 C   0  0  0  0  0  0  0  0  0  0  0  0
  -24.0759  -17.5747   22.5894 C   0  0  0  0  0  0  0  0  0  0  0  0
  -29.7255  -16.6333   20.5073 C   0  0  0  0  0  0  0  0  0  0  0  0
  -23.1162  -16.7586   21.9737 C   0  0  0  0  0  0  0  0  0  0  0  0
  -29.7138  -25.8031   19.5373 C   0  0  0  0  0  0  0  0  0  0  0  0
  -21.8270  -18.7355   21.3908 C   0  0  0  0  0  0  0  0  0  0  0  0
  -30.4999  -24.0113   18.2360 C   0  0  0  0  0  0  0  0  0  0  0  0
  -30.4837  -22.6226   15.8165 C   0  0  0  0  0  0  0  0  0  0  0  0
  -30.1117  -22.6720   18.2032 C   0  0  0  0  0  0  0  0  0  0  0  0
  -27.2446  -29.2241   19.8512 C   0  0  0  0  0  0  0  0  0  0  0  0
  -26.1914  -31.1172   19.4747 C   0  0  0  0  0  0  0  0  0  0  0  0
  -19.1267  -25.5371   21.7505 C   0  0  0  0  0  0  0  0  0  0  0  0
  -19.7128  -27.8580   22.0199 C   0  0  0  0  0  0  0  0  0  0  0  0
  -27.7177  -30.4179   17.6228 C   0  0  0  0  0  0  0  0  0  0  0  0
  -26.2780  -15.6287   21.3780 C   0  0  0  0  0  0  0  0  0  0  0  0
  -24.5717  -13.3574   22.9439 C   0  0  0  0  0  0  0  0  0  0  0  0
  -18.6501  -23.1581   21.0741 C   0  0  0  0  0  0  0  0  0  0  0  0
  -21.5886  -12.3875   24.2882 C   0  0  0  0  0  0  0  0  0  0  0  0
  -21.8818  -30.3863   23.5668 C   0  0  0  0  0  0  0  0  0  0  0  0
  -31.1871  -14.5466   20.4909 C   0  0  0  0  0  0  0  0  0  0  0  0
  -25.2736  -16.9654   23.2650 C   0  0  0  0  0  0  0  0  0  0  0  0
  -23.2578  -15.2597   21.9338 C   0  0  0  0  0  0  0  0  0  0  0  0
  -29.8909  -13.7450   20.5780 C   0  0  0  0  0  0  0  0  0  0  0  0
  -24.6395  -32.6317   23.7396 C   0  0  0  0  0  0  0  0  0  0  0  0
  -28.8012  -14.3987   19.7342 C   0  0  0  0  0  0  0  0  0  0  0  0
  -25.6064  -32.1060   22.6772 C   0  0  0  0  0  0  0  0  0  0  0  0
  -23.9123  -31.4942   24.4533 C   0  0  0  0  0  0  0  0  0  0  0  0
  -24.1884  -30.0188   22.4986 C   0  0  0  0  0  0  0  0  0  0  0  0
  -28.4836  -15.8107   20.2409 C   0  0  1  0  0  0  0  0  0  0  0  0
  -25.6217  -15.5802   22.7288 C   0  0  1  0  0  0  0  0  0  0  0  0
  -24.9040  -31.1311   21.7130 C   0  0  2  0  0  0  0  0  0  0  0  0
  -16.5618  -21.8392   21.6162 C   0  0  0  0  0  0  0  0  0  0  0  0
  -20.4918  -10.4621   25.4660 C   0  0  0  0  0  0  0  0  0  0  0  0
  -17.0509  -31.4251   21.0448 C   0  0  0  0  0  0  0  0  0  0  0  0
  -17.0996  -30.2415   23.2474 C   0  0  0  0  0  0  0  0  0  0  0  0
  -24.4040  -11.8400   20.3021 C   0  0  0  0  0  0  0  0  0  0  0  0
  -22.5521  -10.4720   21.2855 C   0  0  0  0  0  0  0  0  0  0  0  0
  -24.8277  -10.4036   22.3050 C   0  0  0  0  0  0  0  0  0  0  0  0
  -21.0109  -14.0299   26.6815 C   0  0  0  0  0  0  0  0  0  0  0  0
  -18.7441  -20.6212   21.1276 C   0  0  0  0  0  0  0  0  0  0  0  0
  -19.1976  -30.3553   21.7959 C   0  0  0  0  0  0  0  0  0  0  0  0
  -20.2479  -20.5137   21.3668 C   0  0  0  0  0  0  0  0  0  1  0  0
  -19.9392  -29.2179   22.5566 C   0  0  2  0  0  0  0  0  0  0  0  0
  -23.4008  -12.4703   22.5960 C   0  0  1  0  0  0  0  0  0  0  0  0
  -18.0867  -21.8825   21.7136 C   0  0  1  0  0  0  0  0  0  0  0  0
  -21.2415  -11.7746   25.6330 C   0  0  2  0  0  0  0  0  0  0  0  0
  -17.6579  -30.2546   21.8238 C   0  0  0  0  0  0  0  0  0  0  0  0
  -23.7942  -11.3249   21.6210 C   0  0  0  0  0  0  0  0  0  0  0  0
  -19.9844  -27.4895   20.7876 N   0  0  0  0  0  0  0  0  0  0  0  0
  -26.4959  -29.4128   20.9410 N   0  0  0  0  0  0  0  0  0  0  0  0
  -25.8673  -30.5721   20.6822 N   0  0  0  0  0  0  0  0  0  0  0  0
  -24.4493  -14.7118   22.6029 N   0  0  0  0  0  0  0  0  0  0  0  0
  -23.2664  -30.6071   23.4828 N   0  0  0  0  0  0  0  0  0  0  0  0
  -25.6502  -32.2811   19.0565 N   0  0  0  0  0  0  0  0  0  0  0  0
  -28.6215  -29.4382   17.1894 N   0  0  0  0  0  0  0  0  0  0  0  0
  -18.6762  -24.2151   21.9790 N   0  0  0  0  0  0  0  0  0  0  0  0
  -27.6539  -15.7480   21.4250 N   0  0  0  0  0  0  0  0  0  0  0  0
  -22.8456  -12.0110   23.8646 N   0  0  0  0  0  0  0  0  0  0  0  0
  -21.3487  -29.5372   22.6047 N   0  0  0  0  0  0  0  0  0  0  0  0
  -20.3873  -12.7067   26.4220 N   0  3  0  0  0  0  0  0  0  0  0  0
  -27.4920  -31.4116   16.8912 O   0  0  0  0  0  0  0  0  0  0  0  0
  -25.5874  -15.5614   20.3680 O   0  0  0  0  0  0  0  0  0  0  0  0
  -25.5557  -12.8680   23.5043 O   0  0  0  0  0  0  0  0  0  0  0  0
  -19.0181  -23.1799   19.9029 O   0  0  0  0  0  0  0  0  0  0  0  0
  -20.8200  -13.1234   23.6733 O   0  0  0  0  0  0  0  0  0  0  0  0
  -21.1724  -30.9113   24.4316 O   0  0  0  0  0  0  0  0  0  0  0  0
  -30.5077  -24.7022   19.4361 O   0  0  0  0  0  0  0  0  0  0  0  0
  -20.7352  -19.2965   20.8034 O   0  0  0  0  0  0  0  0  0  1  0  0
  -30.4746  -21.9564   14.6545 F   0  0  0  0  0  0  0  0  0  0  0  0
  -29.7443  -22.0473   19.3304 F   0  0  0  0  0  0  0  0  0  0  0  0
  -19.0516  -26.6546   23.0493 S   0  0  0  0  0  0  0  0  0  0  0  0
  1  2  1  0  0  0  0
  1  5  2  0  0  0  0
  2  6  2  0  0  0  0
  3  8  2  0  0  0  0
  3 16  1  0  0  0  0
  4  9  1  0  0  0  0
  4 16  2  0  0  0  0
  5 18  1  0  0  0  0
  6 20  1  0  0  0  0
  7 10  2  0  0  0  0
  7 19  1  0  0  0  0
  8 22  1  0  0  0  0
  9 22  2  0  0  0  0
 10 23  1  0  0  0  0
 11 12  2  0  0  0  0
 11 24  1  0  0  0  0
 12 25  1  0  0  0  0
 13 21  1  0  0  0  0
 13 23  2  0  0  0  0
 14 25  2  0  0  0  0
 14 26  1  0  0  0  0
 15 29  2  0  0  0  0
 15 66  1  0  0  0  0
 16 27  1  0  0  0  0
 17 27  1  0  0  0  0
 17 28  2  0  0  0  0
 17 31  1  0  0  0  0
 18 20  2  0  0  0  0
 18 37  1  0  0  0  0
 19 21  2  0  0  0  0
 19 38  1  0  0  0  0
 20 46  1  0  0  0  0
 21 39  1  0  0  0  0
 22 84  1  0  0  0  0
 23 85  1  0  0  0  0
 24 26  2  0  0  0  0
 24 84  1  0  0  0  0
 25 86  1  0  0  0  0
 26 87  1  0  0  0  0
 27 67  2  0  0  0  0
 28 68  1  0  0  0  0
 28 71  1  0  0  0  0
 29 73  1  0  0  0  0
 29 88  1  0  0  0  0
 30 60  1  0  0  0  0
 30 66  2  0  0  0  0
 30 88  1  0  0  0  0
 31 72  1  0  0  0  0
 31 78  2  0  0  0  0
 32 47  1  0  0  0  0
 32 74  1  0  0  0  0
 32 79  2  0  0  0  0
 33 61  1  0  0  0  0
 33 69  1  0  0  0  0
 33 80  2  0  0  0  0
 34 62  1  0  0  0  0
 34 73  1  0  0  0  0
 34 81  2  0  0  0  0
 35 63  1  0  0  0  0
 35 75  1  0  0  0  0
 35 82  2  0  0  0  0
 36 70  1  0  0  0  0
 36 76  1  0  0  0  0
 36 83  2  0  0  0  0
 37 40  1  0  0  0  0
 38 47  1  0  0  0  0
 39 69  1  0  0  0  0
 40 42  1  0  0  0  0
 41 43  1  0  0  0  0
 41 44  1  0  0  0  0
 42 46  1  0  0  0  0
 43 48  1  0  0  0  0
 44 70  1  0  0  0  0
 45 48  1  0  0  0  0
 45 70  1  0  0  0  0
 46 74  1  0  0  0  0
 47 69  1  0  0  0  0
 48 68  1  0  0  0  0
 49 62  1  0  0  0  0
 50 63  1  0  0  0  0
 51 64  1  0  0  0  0
 52 64  1  0  0  0  0
 53 65  1  0  0  0  0
 54 65  1  0  0  0  0
 55 65  1  0  0  0  0
 56 77  1  0  0  0  0
 57 59  1  0  0  0  0
 57 62  1  0  0  0  0
 58 60  1  0  0  0  0
 58 64  1  0  0  0  0
 59 85  1  0  0  0  0
 60 76  1  0  0  0  0
 61 65  1  0  0  0  0
 61 75  1  0  0  0  0
 63 77  1  0  0  0  0
 67 68  1  0  0  0  0
M  CHG  1  77   1
M  ISO  4  36 100  59 101  76 100  85 101
M  END
> <Batch ID>
0192

> <Smiles>
CNC(C)C(=O)NC(C(=O)N1Cc2cc([101O:1][101CH2:1]CC(C)C(=O)Nc3cnc(C(CC(C)C)[100NH:0][100C:0](=O)N4CCCC(n5nc(-c6ccc(Oc7ccc(F)cc7F)cc6)c(C(N)=O)c5N)C4)s3)ccc2CC1C(=O)NC1CCCc2ccccc21)C(C)(C)C

> <Shape>
0.249

> <Color>
0.046

> <Negative vol penalty>
0.000

$$$$

  -OEChem-04052305272D

  0  0  0     0  0  0  0  0  0999 V2000
M  END
$$$$

  -OEChem-04052305273D

 82 90  0     1  0  0  0  0  0999 V2000
  -22.9868  -21.4210   27.3990 C   0  0  0  0  0  0  0  0  0  0  0  0
  -24.1902  -21.5930   26.7227 C   0  0  0  0  0  0  0  0  0  0  0  0
  -25.7065  -12.9788   21.9782 C   0  0  0  0  0  0  0  0  0  0  0  0
  -26.0678  -13.4738   19.6412 C   0  0  0  0  0  0  0  0  0  0  0  0
  -21.8313  -22.0474   26.9338 C   0  0  0  0  0  0  0  0  0  0  0  0
  -24.2387  -22.3906   25.5799 C   0  0  0  0  0  0  0  0  0  0  0  0
  -28.8781  -25.9569   23.7735 C   0  0  0  0  0  0  0  0  0  0  0  0
  -24.6328  -12.1561   21.6380 C   0  0  0  0  0  0  0  0  0  0  0  0
  -24.9941  -12.6510   19.3010 C   0  0  0  0  0  0  0  0  0  0  0  0
  -29.9013  -25.7666   22.8458 C   0  0  0  0  0  0  0  0  0  0  0  0
  -24.1737   -9.0272   20.4412 C   0  0  0  0  0  0  0  0  0  0  0  0
  -24.0872   -7.7829   21.0656 C   0  0  0  0  0  0  0  0  0  0  0  0
  -28.5990  -26.9283   21.1803 C   0  0  0  0  0  0  0  0  0  0  0  0
  -21.9374   -8.3932   21.9839 C   0  0  0  0  0  0  0  0  0  0  0  0
  -26.4240  -13.6378   20.9798 C   0  0  0  0  0  0  0  0  0  0  0  0
  -28.8838  -14.1138   21.4600 C   0  0  0  0  0  0  0  0  0  0  0  0
  -21.8676  -22.8608   25.7903 C   0  0  0  0  0  0  0  0  0  0  0  0
  -27.7011  -26.6258   23.4079 C   0  0  0  0  0  0  0  0  0  0  0  0
  -23.0823  -23.0273   25.0982 C   0  0  0  0  0  0  0  0  0  0  0  0
  -27.5634  -27.1279   22.1060 C   0  0  0  0  0  0  0  0  0  0  0  0
  -24.2766  -11.9921   20.2994 C   0  0  0  0  0  0  0  0  0  0  0  0
  -29.7607  -26.2498   21.5482 C   0  0  0  0  0  0  0  0  0  0  0  0
  -23.1421   -9.9545   20.5882 C   0  0  0  0  0  0  0  0  0  0  0  0
  -22.9691   -7.4659   21.8369 C   0  0  0  0  0  0  0  0  0  0  0  0
  -22.0239   -9.6375   21.3595 C   0  0  0  0  0  0  0  0  0  0  0  0
  -27.5329  -14.4883   21.3307 C   0  0  0  0  0  0  0  0  0  0  0  0
  -29.5305  -15.2753   21.8051 C   0  0  0  0  0  0  0  0  0  0  0  0
  -28.7923  -21.4643   18.4735 C   0  0  0  0  0  0  0  0  0  0  0  0
  -29.4990  -12.8308   21.2838 C   0  0  0  0  0  0  0  0  0  0  0  0
  -24.6259  -25.8358   23.2589 C   0  0  0  0  0  0  0  0  0  0  0  0
  -24.2518  -28.9838   22.5716 C   0  0  0  0  0  0  0  0  0  0  0  0
  -25.6207  -31.8692   21.3685 C   0  0  0  0  0  0  0  0  0  0  0  0
  -28.3001  -21.0537   20.9098 C   0  0  0  0  0  0  0  0  0  0  0  0
  -20.5830  -23.4792   25.2983 C   0  0  0  0  0  0  0  0  0  0  0  0
  -26.6179  -26.8463   24.4279 C   0  0  0  0  0  0  0  0  0  0  0  0
  -26.3282  -27.8707   21.6690 C   0  0  0  0  0  0  0  0  0  0  0  0
  -20.7964  -24.6098   24.2950 C   0  0  0  0  0  0  0  0  0  0  0  0
  -28.8004  -19.4441   24.0461 C   0  0  0  0  0  0  0  0  0  0  0  0
  -21.8148  -24.1989   23.2363 C   0  0  0  0  0  0  0  0  0  0  0  0
  -28.6611  -17.9562   23.7163 C   0  0  0  0  0  0  0  0  0  0  0  0
  -27.8318  -20.2989   23.2306 C   0  0  0  0  0  0  0  0  0  0  0  0
  -27.7495  -18.5997   21.4487 C   0  0  0  0  0  0  0  0  0  0  0  0
  -23.1803  -23.9048   23.8691 C   0  0  1  0  0  0  0  0  0  0  0  0
  -25.2484  -27.0909   23.8017 C   0  0  1  0  0  0  0  0  0  0  0  0
  -28.7500  -17.7047   22.1983 C   0  0  2  0  0  0  0  0  0  0  0  0
  -33.5622  -24.1933   16.5704 C   0  0  0  0  0  0  0  0  0  0  0  0
  -25.0582  -34.2685   20.8950 C   0  0  0  0  0  0  0  0  0  0  0  0
  -22.7115  -28.1285   20.0804 C   0  0  0  0  0  0  0  0  0  0  0  0
  -23.0067  -30.4483   19.1864 C   0  0  0  0  0  0  0  0  0  0  0  0
  -21.7278  -30.0800   21.2963 C   0  0  0  0  0  0  0  0  0  0  0  0
  -27.6737  -32.8455   23.2635 C   0  0  0  0  0  0  0  0  0  0  0  0
  -32.0959  -23.8195   16.4055 C   0  0  0  0  0  0  0  0  0  0  0  0
  -31.3671  -25.0354   18.5642 C   0  0  0  0  0  0  0  0  0  0  0  0
  -29.6666  -24.3841   16.7384 C   0  0  0  0  0  0  0  0  0  0  0  0
  -30.3757  -25.9537   19.2700 C   0  0  0  0  0  0  0  0  0  1  0  0
  -24.2414  -29.8081   21.3069 C   0  0  1  0  0  0  0  0  0  0  0  0
  -25.6206  -33.2869   21.9113 C   0  0  2  0  0  0  0  0  0  0  0  0
  -31.1171  -24.8228   17.0550 C   0  0  2  0  0  0  0  0  0  0  0  0
  -22.9444  -29.6006   20.4749 C   0  0  0  0  0  0  0  0  0  0  0  0
  -27.3320  -15.7861   21.5740 N   0  0  0  0  0  0  0  0  0  0  0  0
  -28.8973  -20.9388   17.2200 N   0  0  0  0  0  0  0  0  0  0  0  0
  -29.0443  -22.7741   18.5383 N   0  0  0  0  0  0  0  0  0  0  0  0
  -29.2333  -21.9488   16.4272 N   0  0  0  0  0  0  0  0  0  0  0  0
  -28.5653  -16.2373   21.8597 N   0  0  0  0  0  0  0  0  0  0  0  0
  -29.3090  -23.0078   17.2453 N   0  0  0  0  0  0  0  0  0  0  0  0
  -25.2944  -28.0554   22.7008 N   0  0  0  0  0  0  0  0  0  0  0  0
  -27.9757  -20.0099   21.8021 N   0  0  0  0  0  0  0  0  0  0  0  0
  -30.8250  -15.5574   22.0642 N   0  0  0  0  0  0  0  0  0  0  0  0
  -28.6882  -11.7440   20.9291 N   0  0  0  0  0  0  0  0  0  0  0  0
  -28.4428  -20.6533   19.5817 N   0  0  0  0  0  0  0  0  0  0  0  0
  -23.8690  -25.1388   24.1812 N   0  0  0  0  0  0  0  0  0  0  0  0
  -24.4734  -31.1887   21.7176 N   0  0  0  0  0  0  0  0  0  0  0  0
  -27.0075  -33.7099   22.2555 N   0  3  0  0  0  0  0  0  0  0  0  0
  -30.7288  -12.6499   21.4525 O   0  0  0  0  0  0  0  0  0  0  0  0
  -24.8168  -25.5236   22.0893 O   0  0  0  0  0  0  0  0  0  0  0  0
  -23.3714  -29.1623   23.4170 O   0  0  0  0  0  0  0  0  0  0  0  0
  -26.5443  -31.4125   20.6986 O   0  0  0  0  0  0  0  0  0  0  0  0
  -28.4677  -22.2121   21.2996 O   0  0  0  0  0  0  0  0  0  0  0  0
  -23.2290  -11.1891   19.9671 O   0  0  0  0  0  0  0  0  0  0  0  0
  -30.7576  -26.0649   20.6405 O   0  0  0  0  0  0  0  0  0  1  0  0
  -22.8855   -6.2704   22.4352 F   0  0  0  0  0  0  0  0  0  0  0  0
  -21.0292  -10.5238   21.5035 F   0  0  0  0  0  0  0  0  0  0  0  0
  1  2  1  0  0  0  0
  1  5  2  0  0  0  0
  2  6  2  0  0  0  0
  3  8  2  0  0  0  0
  3 15  1  0  0  0  0
  4  9  1  0  0  0  0
  4 15  2  0  0  0  0
  5 17  1  0  0  0  0
  6 19  1  0  0  0  0
  7 10  2  0  0  0  0
  7 18  1  0  0  0  0
  8 21  1  0  0  0  0
  9 21  2  0  0  0  0
 10 22  1  0  0  0  0
 11 12  2  0  0  0  0
 11 23  1  0  0  0  0
 12 24  1  0  0  0  0
 13 20  1  0  0  0  0
 13 22  2  0  0  0  0
 14 24  2  0  0  0  0
 14 25  1  0  0  0  0
 15 26  1  0  0  0  0
 16 26  1  0  0  0  0
 16 27  2  0  0  0  0
 16 29  1  0  0  0  0
 17 19  2  0  0  0  0
 17 34  1  0  0  0  0
 18 20  2  0  0  0  0
 18 35  1  0  0  0  0
 19 43  1  0  0  0  0
 20 36  1  0  0  0  0
 21 79  1  0  0  0  0
 22 80  1  0  0  0  0
 23 25  2  0  0  0  0
 23 79  1  0  0  0  0
 24 81  1  0  0  0  0
 25 82  1  0  0  0  0
 26 60  2  0  0  0  0
 27 64  1  0  0  0  0
 27 68  1  0  0  0  0
 28 61  1  0  0  0  0
 28 62  2  0  0  0  0
 28 70  1  0  0  0  0
 29 69  1  0  0  0  0
 29 74  2  0  0  0  0
 30 44  1  0  0  0  0
 30 71  1  0  0  0  0
 30 75  2  0  0  0  0
 31 56  1  0  0  0  0
 31 66  1  0  0  0  0
 31 76  2  0  0  0  0
 32 57  1  0  0  0  0
 32 72  1  0  0  0  0
 32 77  2  0  0  0  0
 33 67  1  0  0  0  0
 33 70  1  0  0  0  0
 33 78  2  0  0  0  0
 34 37  1  0  0  0  0
 35 44  1  0  0  0  0
 36 66  1  0  0  0  0
 37 39  1  0  0  0  0
 38 40  1  0  0  0  0
 38 41  1  0  0  0  0
 39 43  1  0  0  0  0
 40 45  1  0  0  0  0
 41 67  1  0  0  0  0
 42 45  1  0  0  0  0
 42 67  1  0  0  0  0
 43 71  1  0  0  0  0
 44 66  1  0  0  0  0
 45 64  1  0  0  0  0
 46 52  1  0  0  0  0
 47 57  1  0  0  0  0
 48 59  1  0  0  0  0
 49 59  1  0  0  0  0
 50 59  1  0  0  0  0
 51 73  1  0  0  0  0
 52 58  1  0  0  0  0
 53 55  1  0  0  0  0
 53 58  1  0  0  0  0
 54 58  1  0  0  0  0
 54 65  1  0  0  0  0
 55 80  1  0  0  0  0
 56 59  1  0  0  0  0
 56 72  1  0  0  0  0
 57 73  1  0  0  0  0
 60 64  1  0  0  0  0
 61 63  2  0  0  0  0
 62 65  1  0  0  0  0
 63 65  1  0  0  0  0
M  CHG  1  73   1
M  ISO  4  33 100  55 101  70 100  80 101
M  END
> <Batch ID>
0192

> <Smiles>
CCC(Cn1nnc([100NH:0][100C:0](=O)N2CCCC(n3nc(-c4ccc(Oc5ccc(F)cc5F)cc4)c(C(N)=O)c3N)C2)n1)C[101CH2:1][101O:1]c1ccc2c(c1)CN(C(=O)C(NC(=O)C(C)NC)C(C)(C)C)C(C(=O)NC1CCCc3ccccc31)C2

> <Shape>
0.243

> <Color>
0.066

> <Negative vol penalty>
0.000

$$$$

  -OEChem-04052305273D

 87 95  0     1  0  0  0  0  0999 V2000
  -28.9219  -35.3494   23.7196 C   0  0  0  0  0  0  0  0  0  0  0  0
  -28.9553  -33.9782   23.4872 C   0  0  0  0  0  0  0  0  0  0  0  0
  -22.3223  -10.1213   21.6851 C   0  0  0  0  0  0  0  0  0  0  0  0
  -24.4444   -9.6007   20.6543 C   0  0  0  0  0  0  0  0  0  0  0  0
  -27.7243  -35.9650   24.0812 C   0  0  0  0  0  0  0  0  0  0  0  0
  -27.7913  -33.2215   23.6174 C   0  0  0  0  0  0  0  0  0  0  0  0
  -27.1666  -29.9465   19.8057 C   0  0  0  0  0  0  0  0  0  0  0  0
  -21.9880   -8.7671   21.6808 C   0  0  0  0  0  0  0  0  0  0  0  0
  -24.1101   -8.2465   20.6500 C   0  0  0  0  0  0  0  0  0  0  0  0
  -27.9230  -28.7759   19.8416 C   0  0  0  0  0  0  0  0  0  0  0  0
  -20.7265   -5.4092   22.2709 C   0  0  0  0  0  0  0  0  0  0  0  0
  -20.1638   -4.8764   23.4307 C   0  0  0  0  0  0  0  0  0  0  0  0
  -26.0133  -27.5754   20.6966 C   0  0  0  0  0  0  0  0  0  0  0  0
  -22.1461   -5.4834   24.6713 C   0  0  0  0  0  0  0  0  0  0  0  0
  -23.5505  -10.5381   21.1718 C   0  0  0  0  0  0  0  0  0  0  0  0
  -24.5641  -12.6448   22.1925 C   0  0  0  0  0  0  0  0  0  0  0  0
  -26.5430  -35.2171   24.2065 C   0  0  0  0  0  0  0  0  0  0  0  0
  -25.8288  -29.9427   20.2260 C   0  0  0  0  0  0  0  0  0  0  0  0
  -26.5771  -33.8275   23.9824 C   0  0  0  0  0  0  0  0  0  0  0  0
  -25.2413  -28.7467   20.6626 C   0  0  0  0  0  0  0  0  0  0  0  0
  -22.8819   -7.8297   21.1633 C   0  0  0  0  0  0  0  0  0  0  0  0
  -27.3472  -27.5907   20.2898 C   0  0  0  0  0  0  0  0  0  0  0  0
  -21.9991   -5.9790   22.3113 C   0  0  0  0  0  0  0  0  0  0  0  0
  -20.8736   -4.9136   24.6309 C   0  0  0  0  0  0  0  0  0  0  0  0
  -22.7089   -6.0161   23.5115 C   0  0  0  0  0  0  0  0  0  0  0  0
  -23.8962  -11.9369   21.1755 C   0  0  0  0  0  0  0  0  0  0  0  0
  -28.9283  -20.4159   18.4454 C   0  0  0  0  0  0  0  0  0  0  0  0
  -24.6494  -13.9305   21.7169 C   0  0  0  0  0  0  0  0  0  0  0  0
  -29.6678  -19.7995   19.4330 C   0  0  0  0  0  0  0  0  0  0  0  0
  -27.7491  -18.5772   18.6413 C   0  0  0  0  0  0  0  0  0  0  0  0
  -25.0630  -12.1817   23.4544 C   0  0  0  0  0  0  0  0  0  0  0  0
  -24.1977  -31.4011   22.5318 C   0  0  0  0  0  0  0  0  0  0  0  0
  -21.6544  -30.0071   21.0791 C   0  0  0  0  0  0  0  0  0  0  0  0
  -20.4695  -27.4995   19.0903 C   0  0  0  0  0  0  0  0  0  0  0  0
  -25.6929  -17.5466   17.6135 C   0  0  0  0  0  0  0  0  0  0  0  0
  -25.2824  -35.9191   24.6457 C   0  0  0  0  0  0  0  0  0  0  0  0
  -25.0187  -31.2081   20.1559 C   0  0  0  0  0  0  0  0  0  0  0  0
  -23.8031  -28.6851   21.1055 C   0  0  0  0  0  0  0  0  0  0  0  0
  -24.0144  -35.1063   24.3970 C   0  0  0  0  0  0  0  0  0  0  0  0
  -22.4324  -16.1209   17.7283 C   0  0  0  0  0  0  0  0  0  0  0  0
  -24.2023  -33.6670   24.8658 C   0  0  0  0  0  0  0  0  0  0  0  0
  -22.5775  -14.9635   18.7190 C   0  0  0  0  0  0  0  0  0  0  0  0
  -23.6828  -16.2905   16.8673 C   0  0  0  0  0  0  0  0  0  0  0  0
  -25.0856  -15.2531   18.6066 C   0  0  0  0  0  0  0  0  0  0  0  0
  -25.3302  -32.9767   24.0893 C   0  0  1  0  0  0  0  0  0  0  0  0
  -23.8148  -31.1995   21.0929 C   0  0  1  0  0  0  0  0  0  0  0  0
  -23.8760  -15.0843   19.5405 C   0  0  2  0  0  0  0  0  0  0  0  0
  -30.0973  -21.6713   16.5880 C   0  0  0  0  0  0  0  0  0  0  0  0
  -18.3408  -26.6003   18.1120 C   0  0  0  0  0  0  0  0  0  0  0  0
  -25.4181  -24.2046   17.1561 C   0  0  0  0  0  0  0  0  0  0  0  0
  -25.1005  -21.9057   18.0957 C   0  0  0  0  0  0  0  0  0  0  0  0
  -27.5410  -24.3710   21.4004 C   0  0  0  0  0  0  0  0  0  0  0  0
  -20.9028  -28.8378   23.7953 C   0  0  0  0  0  0  0  0  0  0  0  0
  -19.3899  -27.2344   22.6085 C   0  0  0  0  0  0  0  0  0  0  0  0
  -18.9704  -29.6886   22.4550 C   0  0  0  0  0  0  0  0  0  0  0  0
  -21.4347  -27.9041   16.3220 C   0  0  0  0  0  0  0  0  0  0  0  0
  -27.9493  -24.4908   18.9143 C   0  0  0  0  0  0  0  0  0  0  0  0
  -29.2120  -21.7658   17.8280 C   0  0  1  0  0  0  0  0  0  0  0  0
  -20.9349  -28.6872   21.2180 C   0  0  1  0  0  0  0  0  0  0  0  0
  -19.5335  -27.5186   17.8954 C   0  0  2  0  0  0  0  0  0  0  0  0
  -25.7603  -23.2715   18.3218 C   0  0  0  0  0  0  0  0  0  0  0  0
  -27.2769  -23.1383   18.6094 C   0  0  1  0  0  0  0  0  0  0  0  0
  -27.3827  -25.2173   20.1429 C   0  0  2  0  0  0  0  0  0  1  0  0
  -20.0772  -28.6133   22.5128 C   0  0  0  0  0  0  0  0  0  0  0  0
  -23.5795  -12.7088   20.1325 N   0  0  0  0  0  0  0  0  0  0  0  0
  -27.8280  -19.7163   17.9899 N   0  0  0  0  0  0  0  0  0  0  0  0
  -24.0504  -13.9151   20.4917 N   0  0  0  0  0  0  0  0  0  0  0  0
  -23.0542  -29.9501   21.0245 N   0  0  0  0  0  0  0  0  0  0  0  0
  -24.8729  -16.4028   17.7135 N   0  0  0  0  0  0  0  0  0  0  0  0
  -25.1776  -15.0613   22.2313 N   0  0  0  0  0  0  0  0  0  0  0  0
  -30.7835  -20.2577   20.0511 N   0  0  0  0  0  0  0  0  0  0  0  0
  -24.8915  -10.8306   23.7855 N   0  0  0  0  0  0  0  0  0  0  0  0
  -26.7772  -17.5572   18.4903 N   0  0  0  0  0  0  0  0  0  0  0  0
  -24.8712  -32.5830   22.7745 N   0  0  0  0  0  0  0  0  0  0  0  0
  -20.1745  -28.5052   19.9864 N   0  0  0  0  0  0  0  0  0  0  0  0
  -20.2518  -27.0744   16.6675 N   0  3  0  0  0  0  0  0  0  0  0  0
  -27.9744  -22.4975   17.4566 N   0  3  0  0  0  0  0  0  0  0  0  0
  -25.6290  -12.9469   24.2715 O   0  0  0  0  0  0  0  0  0  0  0  0
  -23.9027  -30.5481   23.3607 O   0  0  0  0  0  0  0  0  0  0  0  0
  -20.9982  -31.0496   21.0140 O   0  0  0  0  0  0  0  0  0  0  0  0
  -21.3699  -26.6727   19.2180 O   0  0  0  0  0  0  0  0  0  0  0  0
  -25.4358  -18.4628   16.8283 O   0  0  0  0  0  0  0  0  0  0  0  0
  -22.5561   -6.5082   21.1591 O   0  0  0  0  0  0  0  0  0  0  0  0
  -28.0834  -26.4468   20.3265 O   0  0  0  0  0  0  0  0  0  1  0  0
  -20.3324   -4.4033   25.7449 F   0  0  0  0  0  0  0  0  0  0  0  0
  -23.9313   -6.5633   23.5567 F   0  0  0  0  0  0  0  0  0  0  0  0
  -28.9650  -18.2827   19.8160 S   0  0  0  0  0  0  0  0  0  0  0  0
  1  2  1  0  0  0  0
  1  5  2  0  0  0  0
  2  6  2  0  0  0  0
  3  8  2  0  0  0  0
  3 15  1  0  0  0  0
  4  9  1  0  0  0  0
  4 15  2  0  0  0  0
  5 17  1  0  0  0  0
  6 19  1  0  0  0  0
  7 10  2  0  0  0  0
  7 18  1  0  0  0  0
  8 21  1  0  0  0  0
  9 21  2  0  0  0  0
 10 22  1  0  0  0  0
 11 12  2  0  0  0  0
 11 23  1  0  0  0  0
 12 24  1  0  0  0  0
 13 20  1  0  0  0  0
 13 22  2  0  0  0  0
 14 24  2  0  0  0  0
 14 25  1  0  0  0  0
 15 26  1  0  0  0  0
 16 26  1  0  0  0  0
 16 28  2  0  0  0  0
 16 31  1  0  0  0  0
 17 19  2  0  0  0  0
 17 36  1  0  0  0  0
 18 20  2  0  0  0  0
 18 37  1  0  0  0  0
 19 45  1  0  0  0  0
 20 38  1  0  0  0  0
 21 83  1  0  0  0  0
 22 84  1  0  0  0  0
 23 25  2  0  0  0  0
 23 83  1  0  0  0  0
 24 85  1  0  0  0  0
 25 86  1  0  0  0  0
 26 65  2  0  0  0  0
 27 29  2  0  0  0  0
 27 58  1  0  0  0  0
 27 66  1  0  0  0  0
 28 67  1  0  0  0  0
 28 70  1  0  0  0  0
 29 71  1  0  0  0  0
 29 87  1  0  0  0  0
 30 66  2  0  0  0  0
 30 73  1  0  0  0  0
 30 87  1  0  0  0  0
 31 72  1  0  0  0  0
 31 78  2  0  0  0  0
 32 46  1  0  0  0  0
 32 74  1  0  0  0  0
 32 79  2  0  0  0  0
 33 59  1  0  0  0  0
 33 68  1  0  0  0  0
 33 80  2  0  0  0  0
 34 60  1  0  0  0  0
 34 75  1  0  0  0  0
 34 81  2  0  0  0  0
 35 69  1  0  0  0  0
 35 73  1  0  0  0  0
 35 82  2  0  0  0  0
 36 39  1  0  0  0  0
 37 46  1  0  0  0  0
 38 68  1  0  0  0  0
 39 41  1  0  0  0  0
 40 42  1  0  0  0  0
 40 43  1  0  0  0  0
 41 45  1  0  0  0  0
 42 47  1  0  0  0  0
 43 69  1  0  0  0  0
 44 47  1  0  0  0  0
 44 69  1  0  0  0  0
 45 74  1  0  0  0  0
 46 68  1  0  0  0  0
 47 67  1  0  0  0  0
 48 58  1  0  0  0  0
 49 60  1  0  0  0  0
 50 61  1  0  0  0  0
 51 61  1  0  0  0  0
 52 63  1  0  0  0  0
 53 64  1  0  0  0  0
 54 64  1  0  0  0  0
 55 64  1  0  0  0  0
 56 76  1  0  0  0  0
 57 62  1  0  0  0  0
 57 63  1  0  0  0  0
 58 77  1  0  0  0  0
 59 64  1  0  0  0  0
 59 75  1  0  0  0  0
 60 76  1  0  0  0  0
 61 62  1  0  0  0  0
 62 77  1  0  0  0  0
 63 84  1  0  0  0  0
 65 67  1  0  0  0  0
M  CHG  2  76   1  77   1
M  ISO  4  35 100  63 101  73 100  84 101
M  END
> <Batch ID>
0192

> <Smiles>
CNC(C)C(=O)NC(C(=O)N1Cc2cc([101O:1][101CH:1](C)CC(NC(C)c3nc([100NH:0][100C:0](=O)N4CCCC(n5nc(-c6ccc(Oc7ccc(F)cc7F)cc6)c(C(N)=O)c5N)C4)sc3N)C(C)C)ccc2CC1C(=O)NC1CCCc2ccccc21)C(C)(C)C

> <Shape>
0.277

> <Color>
0.089

> <Negative vol penalty>
0.000

$$$$

  -OEChem-04052305273D

 89 97  0     1  0  0  0  0  0999 V2000
  -26.2961  -15.3956   16.2849 C   0  0  0  0  0  0  0  0  0  0  0  0
  -26.3339  -16.3060   17.3362 C   0  0  0  0  0  0  0  0  0  0  0  0
  -23.0668   -9.8483   20.0056 C   0  0  0  0  0  0  0  0  0  0  0  0
  -23.9070   -9.9100   22.2700 C   0  0  0  0  0  0  0  0  0  0  0  0
  -27.3138  -15.3904   15.3319 C   0  0  0  0  0  0  0  0  0  0  0  0
  -27.3901  -17.2110   17.4357 C   0  0  0  0  0  0  0  0  0  0  0  0
  -27.1253  -22.9633   19.5206 C   0  0  0  0  0  0  0  0  0  0  0  0
  -22.3511   -8.6885   20.3027 C   0  0  0  0  0  0  0  0  0  0  0  0
  -23.1912   -8.7502   22.5671 C   0  0  0  0  0  0  0  0  0  0  0  0
  -27.4322  -23.5276   20.7580 C   0  0  0  0  0  0  0  0  0  0  0  0
  -20.0170   -5.9140   20.5655 C   0  0  0  0  0  0  0  0  0  0  0  0
  -18.6958   -5.8365   20.1249 C   0  0  0  0  0  0  0  0  0  0  0  0
  -29.6228  -24.1183   19.9384 C   0  0  0  0  0  0  0  0  0  0  0  0
  -18.1460   -7.7945   21.4291 C   0  0  0  0  0  0  0  0  0  0  0  0
  -29.4280  -18.3405   21.0033 C   0  0  0  0  0  0  0  0  0  0  0  0
  -23.8448  -10.4591   20.9892 C   0  0  0  0  0  0  0  0  0  0  0  0
  -24.1409  -12.9866   20.8114 C   0  0  0  0  0  0  0  0  0  0  0  0
  -28.3779  -16.3022   15.4144 C   0  0  0  0  0  0  0  0  0  0  0  0
  -28.0703  -22.9626   18.4845 C   0  0  0  0  0  0  0  0  0  0  0  0
  -28.4236  -17.2171   16.4836 C   0  0  0  0  0  0  0  0  0  0  0  0
  -29.3245  -23.5557   18.6880 C   0  0  0  0  0  0  0  0  0  0  0  0
  -22.4133   -8.1395   21.5834 C   0  0  0  0  0  0  0  0  0  0  0  0
  -28.6821  -24.1026   20.9680 C   0  0  0  0  0  0  0  0  0  0  0  0
  -20.4027   -6.9318   21.4379 C   0  0  0  0  0  0  0  0  0  0  0  0
  -17.7604   -6.7767   20.5567 C   0  0  0  0  0  0  0  0  0  0  0  0
  -19.4672   -7.8721   21.8697 C   0  0  0  0  0  0  0  0  0  0  0  0
  -24.5847  -11.6568   20.6827 C   0  0  0  0  0  0  0  0  0  0  0  0
  -31.1197  -19.8571   21.2627 C   0  0  0  0  0  0  0  0  0  0  0  0
  -30.3546  -17.3398   20.8102 C   0  0  0  0  0  0  0  0  0  0  0  0
  -32.0465  -18.8563   21.0704 C   0  0  0  0  0  0  0  0  0  0  0  0
  -25.2071  -13.7462   20.3960 C   0  0  0  0  0  0  0  0  0  0  0  0
  -22.8777  -13.4902   21.2659 C   0  0  0  0  0  0  0  0  0  0  0  0
  -31.4900  -21.2640   21.5160 C   0  0  0  0  0  0  0  0  0  0  0  0
  -29.5806  -20.7093   16.8277 C   0  0  0  0  0  0  0  0  0  0  0  0
  -32.7587  -23.1639   23.7283 C   0  0  0  0  0  0  0  0  0  0  0  0
  -30.6738  -23.2433   15.1229 C   0  0  0  0  0  0  0  0  0  0  0  0
  -31.3649  -26.5837   15.0185 C   0  0  0  0  0  0  0  0  0  0  0  0
  -30.6583  -14.8803   20.3570 C   0  0  0  0  0  0  0  0  0  0  0  0
  -29.4795  -16.2271   14.3870 C   0  0  0  0  0  0  0  0  0  0  0  0
  -27.7141  -22.3737   17.1471 C   0  0  0  0  0  0  0  0  0  0  0  0
  -30.3669  -23.5988   17.6018 C   0  0  0  0  0  0  0  0  0  0  0  0
  -30.3687  -17.4675   14.3555 C   0  0  0  0  0  0  0  0  0  0  0  0
  -29.5005  -12.4056   18.0740 C   0  0  0  0  0  0  0  0  0  0  0  0
  -30.7704  -17.8723   15.7703 C   0  0  0  0  0  0  0  0  0  0  0  0
  -28.0819  -12.0996   18.5597 C   0  0  0  0  0  0  0  0  0  0  0  0
  -30.4536  -12.6711   19.2379 C   0  0  0  0  0  0  0  0  0  0  0  0
  -28.5851  -13.3912   20.6729 C   0  0  0  0  0  0  0  0  0  0  0  0
  -29.5398  -18.2309   16.6120 C   0  0  1  0  0  0  0  0  0  0  0  0
  -28.9359  -21.9709   16.3271 C   0  0  1  0  0  0  0  0  0  0  0  0
  -27.5742  -13.1808   19.5338 C   0  0  2  0  0  0  0  0  0  0  0  0
  -34.9797  -24.2490   24.2646 C   0  0  0  0  0  0  0  0  0  0  0  0
  -32.2858  -28.3583   13.5019 C   0  0  0  0  0  0  0  0  0  0  0  0
  -27.8889  -24.3143   24.2831 C   0  0  0  0  0  0  0  0  0  0  0  0
  -33.4979  -22.2018   15.6229 C   0  0  0  0  0  0  0  0  0  0  0  0
  -34.3716  -24.4465   14.9402 C   0  0  0  0  0  0  0  0  0  0  0  0
  -33.0962  -23.0573   13.3074 C   0  0  0  0  0  0  0  0  0  0  0  0
  -28.8312  -28.1119   15.0770 C   0  0  0  0  0  0  0  0  0  0  0  0
  -33.6636  -24.3681   23.5169 C   0  0  0  0  0  0  0  0  0  0  0  0
  -30.3260  -23.7512   23.9650 C   0  0  0  0  0  0  0  0  0  0  0  0
  -31.4098  -23.2112   23.0323 C   0  0  2  0  0  0  0  0  0  0  0  0
  -31.8672  -24.1627   15.2205 C   0  0  1  0  0  0  0  0  0  0  0  0
  -31.0320  -27.6496   13.9901 C   0  0  2  0  0  0  0  0  0  0  0  0
  -28.9396  -23.7919   23.3117 C   0  0  2  0  0  0  0  0  0  1  0  0
  -33.1895  -23.4647   14.7940 C   0  0  0  0  0  0  0  0  0  0  0  0
  -29.7939  -19.6172   21.2329 N   0  0  0  0  0  0  0  0  0  0  0  0
  -25.8354  -11.5730   20.2215 N   0  0  0  0  0  0  0  0  0  0  0  0
  -31.6806  -17.5797   20.8403 N   0  0  0  0  0  0  0  0  0  0  0  0
  -26.1866  -12.8597   20.0566 N   0  0  0  0  0  0  0  0  0  0  0  0
  -29.9733  -23.0042   16.3137 N   0  0  0  0  0  0  0  0  0  0  0  0
  -29.9092  -13.7092   20.1159 N   0  0  0  0  0  0  0  0  0  0  0  0
  -33.4226  -19.1747   21.1143 N   0  0  0  0  0  0  0  0  0  0  0  0
  -25.3931  -15.0792   20.2914 N   0  0  0  0  0  0  0  0  0  0  0  0
  -21.8933  -12.5717   21.6554 N   0  0  0  0  0  0  0  0  0  0  0  0
  -29.8885  -16.0226   20.5743 N   0  0  0  0  0  0  0  0  0  0  0  0
  -31.0906  -21.8347   22.6615 N   0  0  0  0  0  0  0  0  0  0  0  0
  -29.0634  -19.5545   16.2723 N   0  0  0  0  0  0  0  0  0  0  0  0
  -31.5360  -25.3463   14.4346 N   0  0  0  0  0  0  0  0  0  0  0  0
  -32.2043  -21.9024   20.5889 N   0  3  0  0  0  0  0  0  0  0  0  0
  -30.1152  -28.6673   14.5772 N   0  3  0  0  0  0  0  0  0  0  0  0
  -22.6236  -14.7178   21.3093 O   0  0  0  0  0  0  0  0  0  0  0  0
  -30.4817  -20.7786   17.6553 O   0  0  0  0  0  0  0  0  0  0  0  0
  -33.0913  -22.2141   24.4375 O   0  0  0  0  0  0  0  0  0  0  0  0
  -30.3699  -22.7609   14.0290 O   0  0  0  0  0  0  0  0  0  0  0  0
  -31.4670  -26.8254   16.2192 O   0  0  0  0  0  0  0  0  0  0  0  0
  -31.8919  -14.8761   20.3428 O   0  0  0  0  0  0  0  0  0  0  0  0
  -21.7149   -7.0079   21.8738 O   0  0  0  0  0  0  0  0  0  0  0  0
  -28.9846  -24.6535   22.1750 O   0  0  0  0  0  0  0  0  0  1  0  0
  -16.4920   -6.7030   20.1323 F   0  0  0  0  0  0  0  0  0  0  0  0
  -19.8321   -8.8528   22.7068 F   0  0  0  0  0  0  0  0  0  0  0  0
  1  2  1  0  0  0  0
  1  5  2  0  0  0  0
  2  6  2  0  0  0  0
  3  8  2  0  0  0  0
  3 16  1  0  0  0  0
  4  9  1  0  0  0  0
  4 16  2  0  0  0  0
  5 18  1  0  0  0  0
  6 20  1  0  0  0  0
  7 10  2  0  0  0  0
  7 19  1  0  0  0  0
  8 22  1  0  0  0  0
  9 22  2  0  0  0  0
 10 23  1  0  0  0  0
 11 12  2  0  0  0  0
 11 24  1  0  0  0  0
 12 25  1  0  0  0  0
 13 21  1  0  0  0  0
 13 23  2  0  0  0  0
 14 25  2  0  0  0  0
 14 26  1  0  0  0  0
 15 29  1  0  0  0  0
 15 65  2  0  0  0  0
 16 27  1  0  0  0  0
 17 27  1  0  0  0  0
 17 31  2  0  0  0  0
 17 32  1  0  0  0  0
 18 20  2  0  0  0  0
 18 39  1  0  0  0  0
 19 21  2  0  0  0  0
 19 40  1  0  0  0  0
 20 48  1  0  0  0  0
 21 41  1  0  0  0  0
 22 86  1  0  0  0  0
 23 87  1  0  0  0  0
 24 26  2  0  0  0  0
 24 86  1  0  0  0  0
 25 88  1  0  0  0  0
 26 89  1  0  0  0  0
 27 66  2  0  0  0  0
 28 30  2  0  0  0  0
 28 33  1  0  0  0  0
 28 65  1  0  0  0  0
 29 67  2  0  0  0  0
 29 74  1  0  0  0  0
 30 67  1  0  0  0  0
 30 71  1  0  0  0  0
 31 68  1  0  0  0  0
 31 72  1  0  0  0  0
 32 73  1  0  0  0  0
 32 80  2  0  0  0  0
 33 75  1  0  0  0  0
 33 78  2  0  0  0  0
 34 49  1  0  0  0  0
 34 76  1  0  0  0  0
 34 81  2  0  0  0  0
 35 58  1  0  0  0  0
 35 60  1  0  0  0  0
 35 82  2  0  0  0  0
 36 61  1  0  0  0  0
 36 69  1  0  0  0  0
 36 83  2  0  0  0  0
 37 62  1  0  0  0  0
 37 77  1  0  0  0  0
 37 84  2  0  0  0  0
 38 70  1  0  0  0  0
 38 74  1  0  0  0  0
 38 85  2  0  0  0  0
 39 42  1  0  0  0  0
 40 49  1  0  0  0  0
 41 69  1  0  0  0  0
 42 44  1  0  0  0  0
 43 45  1  0  0  0  0
 43 46  1  0  0  0  0
 44 48  1  0  0  0  0
 45 50  1  0  0  0  0
 46 70  1  0  0  0  0
 47 50  1  0  0  0  0
 47 70  1  0  0  0  0
 48 76  1  0  0  0  0
 49 69  1  0  0  0  0
 50 68  1  0  0  0  0
 51 58  1  0  0  0  0
 52 62  1  0  0  0  0
 53 63  1  0  0  0  0
 54 64  1  0  0  0  0
 55 64  1  0  0  0  0
 56 64  1  0  0  0  0
 57 79  1  0  0  0  0
 59 60  1  0  0  0  0
 59 63  1  0  0  0  0
 60 75  1  0  0  0  0
 61 64  1  0  0  0  0
 61 77  1  0  0  0  0
 62 79  1  0  0  0  0
 63 87  1  0  0  0  0
 66 68  1  0  0  0  0
M  CHG  2  78   1  79   1
M  ISO  4  38 100  63 101  74 100  87 101
M  END
> <Batch ID>
0192

> <Smiles>
CCC(=O)C(C[101CH:1](C)[101O:1]c1ccc2c(c1)CN(C(=O)C(NC(=O)C(C)NC)C(C)(C)C)C(C(=O)NC1CCCc3ccccc31)C2)NC(=N)c1ncc([100NH:0][100C:0](=O)N2CCCC(n3nc(-c4ccc(Oc5ccc(F)cc5F)cc4)c(C(N)=O)c3N)C2)nc1N

> <Shape>
0.193

> <Color>
0.165

> <Negative vol penalty>
0.000

$$$$

  -OEChem-04052305273D

 85 93  0     1  0  0  0  0  0999 V2000
  -17.2120  -30.0919   23.5423 C   0  0  0  0  0  0  0  0  0  0  0  0
  -18.1876  -30.0736   24.5339 C   0  0  0  0  0  0  0  0  0  0  0  0
  -26.0240  -19.0718   19.7657 C   0  0  0  0  0  0  0  0  0  0  0  0
  -27.3723  -18.1897   21.5659 C   0  0  0  0  0  0  0  0  0  0  0  0
  -17.2937  -29.2055   22.4692 C   0  0  0  0  0  0  0  0  0  0  0  0
  -19.2450  -29.1682   24.4535 C   0  0  0  0  0  0  0  0  0  0  0  0
  -26.1882  -28.5329   26.0983 C   0  0  0  0  0  0  0  0  0  0  0  0
  -25.2984  -17.8813   19.7257 C   0  0  0  0  0  0  0  0  0  0  0  0
  -26.6467  -16.9991   21.5260 C   0  0  0  0  0  0  0  0  0  0  0  0
  -27.0624  -27.6785   26.7688 C   0  0  0  0  0  0  0  0  0  0  0  0
  -25.3856  -13.5929   21.6571 C   0  0  0  0  0  0  0  0  0  0  0  0
  -26.1001  -12.3960   21.7093 C   0  0  0  0  0  0  0  0  0  0  0  0
  -27.1434  -26.2481   24.8280 C   0  0  0  0  0  0  0  0  0  0  0  0
  -27.2659  -13.0035   19.6822 C   0  0  0  0  0  0  0  0  0  0  0  0
  -27.0611  -19.2260   20.6857 C   0  0  0  0  0  0  0  0  0  0  0  0
  -27.5288  -21.5982   21.4991 C   0  0  0  0  0  0  0  0  0  0  0  0
  -18.3579  -28.2953   22.3706 C   0  0  0  0  0  0  0  0  0  0  0  0
  -25.7757  -28.2451   24.7893 C   0  0  0  0  0  0  0  0  0  0  0  0
  -19.3403  -28.2679   23.3787 C   0  0  0  0  0  0  0  0  0  0  0  0
  -26.2659  -27.1018   24.1422 C   0  0  0  0  0  0  0  0  0  0  0  0
  -25.6096  -16.8449   20.6059 C   0  0  0  0  0  0  0  0  0  0  0  0
  -27.5379  -26.5344   26.1347 C   0  0  0  0  0  0  0  0  0  0  0  0
  -25.6112  -14.4950   20.6174 C   0  0  0  0  0  0  0  0  0  0  0  0
  -27.0402  -12.1014   20.7219 C   0  0  0  0  0  0  0  0  0  0  0  0
  -26.5513  -14.2003   19.6300 C   0  0  0  0  0  0  0  0  0  0  0  0
  -27.8114  -20.4554   20.7271 C   0  0  0  0  0  0  0  0  0  0  0  0
  -28.5310  -22.4826   21.1829 C   0  0  0  0  0  0  0  0  0  0  0  0
  -34.4522  -24.9201   23.6458 C   0  0  0  0  0  0  0  0  0  0  0  0
  -33.5355  -24.9350   25.6193 C   0  0  0  0  0  0  0  0  0  0  0  0
  -26.4563  -21.8389   22.4197 C   0  0  0  0  0  0  0  0  0  0  0  0
  -22.9816  -27.6406   23.3996 C   0  0  0  0  0  0  0  0  0  0  0  0
  -24.7549  -27.7272   20.6847 C   0  0  0  0  0  0  0  0  0  0  0  0
  -27.8162  -27.4009   19.2122 C   0  0  0  0  0  0  0  0  0  0  0  0
  -33.9189  -23.6036   20.2555 C   0  0  0  0  0  0  0  0  0  0  0  0
  -18.3782  -27.3245   21.2165 C   0  0  0  0  0  0  0  0  0  0  0  0
  -24.8533  -29.1908   24.0702 C   0  0  0  0  0  0  0  0  0  0  0  0
  -25.8696  -26.7584   22.7303 C   0  0  0  0  0  0  0  0  0  0  0  0
  -19.7325  -26.6509   21.0110 C   0  0  0  0  0  0  0  0  0  0  0  0
  -32.0209  -22.3328   17.5243 C   0  0  0  0  0  0  0  0  0  0  0  0
  -20.2888  -26.1536   22.3414 C   0  0  0  0  0  0  0  0  0  0  0  0
  -30.7367  -21.8200   18.1785 C   0  0  0  0  0  0  0  0  0  0  0  0
  -33.2404  -22.0945   18.4119 C   0  0  0  0  0  0  0  0  0  0  0  0
  -31.8369  -22.1107   20.4376 C   0  0  0  0  0  0  0  0  0  0  0  0
  -20.5161  -27.3173   23.3139 C   0  0  1  0  0  0  0  0  0  0  0  0
  -24.0953  -28.5296   22.9232 C   0  0  1  0  0  0  0  0  0  0  0  0
  -30.5719  -22.3791   19.6045 C   0  0  2  0  0  0  0  0  0  0  0  0
  -34.6290  -28.9308   21.5409 C   0  0  0  0  0  0  0  0  0  0  0  0
  -28.9446  -27.4915   16.9725 C   0  0  0  0  0  0  0  0  0  0  0  0
  -23.6183  -24.9788   20.0035 C   0  0  0  0  0  0  0  0  0  0  0  0
  -25.4479  -24.7178   18.3146 C   0  0  0  0  0  0  0  0  0  0  0  0
  -23.7756  -26.5520   18.0659 C   0  0  0  0  0  0  0  0  0  0  0  0
  -29.5512  -29.6482   20.0477 C   0  0  0  0  0  0  0  0  0  0  0  0
  -35.0122  -27.5775   22.1195 C   0  0  0  0  0  0  0  0  0  0  0  0
  -34.0514  -26.4792   21.6541 C   0  0  0  0  0  0  0  0  0  0  0  0
  -31.2424  -25.4018   26.4850 C   0  0  0  0  0  0  0  0  0  0  0  0
  -29.2571  -26.2832   27.7586 C   0  0  0  0  0  0  0  0  0  1  0  0
  -34.4616  -25.0726   22.1808 C   0  0  2  0  0  0  0  0  0  0  0  0
  -25.5289  -26.7109   19.8805 C   0  0  1  0  0  0  0  0  0  0  0  0
  -28.5526  -28.2767   18.2146 C   0  0  2  0  0  0  0  0  0  0  0  0
  -30.5384  -25.4604   27.8392 C   0  0  1  0  0  0  0  0  0  0  0  0
  -24.5988  -25.7450   19.0934 C   0  0  0  0  0  0  0  0  0  0  0  0
  -28.9072  -20.5980   19.9769 N   0  0  0  0  0  0  0  0  0  0  0  0
  -33.2762  -25.1318   24.3453 N   0  0  0  0  0  0  0  0  0  0  0  0
  -35.5729  -24.5795   24.2820 N   0  0  0  0  0  0  0  0  0  0  0  0
  -29.3220  -21.8408   20.2759 N   0  0  0  0  0  0  0  0  0  0  0  0
  -24.9606  -27.7110   22.0715 N   0  0  0  0  0  0  0  0  0  0  0  0
  -33.0202  -22.6500   19.7494 N   0  0  0  0  0  0  0  0  0  0  0  0
  -28.8040  -23.7388   21.5950 N   0  0  0  0  0  0  0  0  0  0  0  0
  -25.5133  -20.8230   22.6271 N   0  0  0  0  0  0  0  0  0  0  0  0
  -32.6321  -25.0451   26.6628 N   0  0  0  0  0  0  0  0  0  0  0  0
  -21.7272  -28.0322   22.9723 N   0  0  0  0  0  0  0  0  0  0  0  0
  -26.4497  -27.4700   19.0412 N   0  0  0  0  0  0  0  0  0  0  0  0
  -33.6333  -24.0834   21.5279 N   0  0  0  0  0  0  0  0  0  0  0  0
  -29.7910  -28.8331   18.8291 N   0  3  0  0  0  0  0  0  0  0  0  0
  -26.3285  -22.9287   23.0275 O   0  0  0  0  0  0  0  0  0  0  0  0
  -23.2414  -26.6703   24.1015 O   0  0  0  0  0  0  0  0  0  0  0  0
  -24.0010  -28.5115   20.1031 O   0  0  0  0  0  0  0  0  0  0  0  0
  -28.3954  -26.7205   20.0560 O   0  0  0  0  0  0  0  0  0  0  0  0
  -34.8998  -24.0020   19.6184 O   0  0  0  0  0  0  0  0  0  0  0  0
  -30.1799  -24.1355   28.2373 O   0  0  0  0  0  0  0  0  0  0  0  0
  -24.9016  -15.6831   20.5673 O   0  0  0  0  0  0  0  0  0  0  0  0
  -28.3908  -25.6985   26.7871 O   0  0  0  0  0  0  0  0  0  1  0  0
  -27.7274  -10.9527   20.7731 F   0  0  0  0  0  0  0  0  0  0  0  0
  -26.7733  -15.0637   18.6293 F   0  0  0  0  0  0  0  0  0  0  0  0
  -35.1724  -24.5065   25.9053 S   0  0  0  0  0  0  0  0  0  0  0  0
  1  2  1  0  0  0  0
  1  5  2  0  0  0  0
  2  6  2  0  0  0  0
  3  8  2  0  0  0  0
  3 15  1  0  0  0  0
  4  9  1  0  0  0  0
  4 15  2  0  0  0  0
  5 17  1  0  0  0  0
  6 19  1  0  0  0  0
  7 10  2  0  0  0  0
  7 18  1  0  0  0  0
  8 21  1  0  0  0  0
  9 21  2  0  0  0  0
 10 22  1  0  0  0  0
 11 12  2  0  0  0  0
 11 23  1  0  0  0  0
 12 24  1  0  0  0  0
 13 20  1  0  0  0  0
 13 22  2  0  0  0  0
 14 24  2  0  0  0  0
 14 25  1  0  0  0  0
 15 26  1  0  0  0  0
 16 26  1  0  0  0  0
 16 27  2  0  0  0  0
 16 30  1  0  0  0  0
 17 19  2  0  0  0  0
 17 35  1  0  0  0  0
 18 20  2  0  0  0  0
 18 36  1  0  0  0  0
 19 44  1  0  0  0  0
 20 37  1  0  0  0  0
 21 81  1  0  0  0  0
 22 82  1  0  0  0  0
 23 25  2  0  0  0  0
 23 81  1  0  0  0  0
 24 83  1  0  0  0  0
 25 84  1  0  0  0  0
 26 62  2  0  0  0  0
 27 65  1  0  0  0  0
 27 68  1  0  0  0  0
 28 57  1  0  0  0  0
 28 63  1  0  0  0  0
 28 64  2  0  0  0  0
 29 63  2  0  0  0  0
 29 70  1  0  0  0  0
 29 85  1  0  0  0  0
 30 69  1  0  0  0  0
 30 75  2  0  0  0  0
 31 45  1  0  0  0  0
 31 71  1  0  0  0  0
 31 76  2  0  0  0  0
 32 58  1  0  0  0  0
 32 66  1  0  0  0  0
 32 77  2  0  0  0  0
 33 59  1  0  0  0  0
 33 72  1  0  0  0  0
 33 78  2  0  0  0  0
 34 67  1  0  0  0  0
 34 73  1  0  0  0  0
 34 79  2  0  0  0  0
 35 38  1  0  0  0  0
 36 45  1  0  0  0  0
 37 66  1  0  0  0  0
 38 40  1  0  0  0  0
 39 41  1  0  0  0  0
 39 42  1  0  0  0  0
 40 44  1  0  0  0  0
 41 46  1  0  0  0  0
 42 67  1  0  0  0  0
 43 46  1  0  0  0  0
 43 67  1  0  0  0  0
 44 71  1  0  0  0  0
 45 66  1  0  0  0  0
 46 65  1  0  0  0  0
 47 53  1  0  0  0  0
 48 59  1  0  0  0  0
 49 61  1  0  0  0  0
 50 61  1  0  0  0  0
 51 61  1  0  0  0  0
 52 74  1  0  0  0  0
 53 54  1  0  0  0  0
 54 57  1  0  0  0  0
 55 60  1  0  0  0  0
 55 70  1  0  0  0  0
 56 60  1  0  0  0  0
 56 82  1  0  0  0  0
 57 73  1  0  0  0  0
 58 61  1  0  0  0  0
 58 72  1  0  0  0  0
 59 74  1  0  0  0  0
 60 80  1  0  0  0  0
 62 65  1  0  0  0  0
 64 85  1  0  0  0  0
M  CHG  1  74   1
M  ISO  4  34 100  56 101  73 100  82 101
M  END
> <Batch ID>
0192

> <Smiles>
CCCC([100NH:0][100C:0](=O)N1CCCC(n2nc(-c3ccc(Oc4ccc(F)cc4F)cc3)c(C(N)=O)c2N)C1)c1nsc(NCC(O)[101CH2:1][101O:1]c2ccc3c(c2)CN(C(=O)C(NC(=O)C(C)NC)C(C)(C)C)C(C(=O)NC2CCCc4ccccc42)C3)n1

> <Shape>
0.191

> <Color>
0.078

> <Negative vol penalty>
0.000

$$$$

  -OEChem-04052305273D

 85 93  0     1  0  0  0  0  0999 V2000
  -18.2038  -25.2956   23.8963 C   0  0  0  0  0  0  0  0  0  0  0  0
  -19.4849  -25.0330   23.4219 C   0  0  0  0  0  0  0  0  0  0  0  0
  -27.4173  -10.4622   21.7524 C   0  0  0  0  0  0  0  0  0  0  0  0
  -25.8103  -11.4422   20.2377 C   0  0  0  0  0  0  0  0  0  0  0  0
  -17.6433  -26.5605   23.7235 C   0  0  0  0  0  0  0  0  0  0  0  0
  -20.2060  -26.0350   22.7734 C   0  0  0  0  0  0  0  0  0  0  0  0
  -26.2595  -26.9384   22.9840 C   0  0  0  0  0  0  0  0  0  0  0  0
  -26.3853   -9.8045   22.4217 C   0  0  0  0  0  0  0  0  0  0  0  0
  -24.7783  -10.7845   20.9070 C   0  0  0  0  0  0  0  0  0  0  0  0
  -27.2909  -26.5889   22.1134 C   0  0  0  0  0  0  0  0  0  0  0  0
  -23.4595   -7.6746   21.0049 C   0  0  0  0  0  0  0  0  0  0  0  0
  -22.4886   -7.0391   20.2308 C   0  0  0  0  0  0  0  0  0  0  0  0
  -27.1817  -28.7814   21.1133 C   0  0  0  0  0  0  0  0  0  0  0  0
  -20.7855   -8.4412   21.2159 C   0  0  0  0  0  0  0  0  0  0  0  0
  -27.1298  -11.2811   20.6604 C   0  0  0  0  0  0  0  0  0  0  0  0
  -28.9378  -11.4840   18.8722 C   0  0  0  0  0  0  0  0  0  0  0  0
  -18.3616  -27.5813   23.0812 C   0  0  0  0  0  0  0  0  0  0  0  0
  -25.6731  -28.2105   22.9183 C   0  0  0  0  0  0  0  0  0  0  0  0
  -19.6541  -27.3144   22.5907 C   0  0  0  0  0  0  0  0  0  0  0  0
  -26.1448  -29.1455   21.9859 C   0  0  0  0  0  0  0  0  0  0  0  0
  -25.0658   -9.9656   21.9990 C   0  0  0  0  0  0  0  0  0  0  0  0
  -27.7502  -27.5094   21.1760 C   0  0  0  0  0  0  0  0  0  0  0  0
  -23.0934   -8.6933   21.8845 C   0  0  0  0  0  0  0  0  0  0  0  0
  -21.1516   -7.4224   20.3363 C   0  0  0  0  0  0  0  0  0  0  0  0
  -21.7564   -9.0767   21.9900 C   0  0  0  0  0  0  0  0  0  0  0  0
  -28.1954  -11.9612   19.9690 C   0  0  0  0  0  0  0  0  0  0  0  0
  -27.6860  -21.1957   16.8169 C   0  0  0  0  0  0  0  0  0  0  0  0
  -29.8213  -12.4967   18.5889 C   0  0  0  0  0  0  0  0  0  0  0  0
  -26.6637  -20.4449   16.2753 C   0  0  0  0  0  0  0  0  0  0  0  0
  -28.0760  -19.3064   17.8601 C   0  0  0  0  0  0  0  0  0  0  0  0
  -28.8377  -10.2367   18.1721 C   0  0  0  0  0  0  0  0  0  0  0  0
  -27.9500  -22.6194   16.4847 C   0  0  0  0  0  0  0  0  0  0  0  0
  -22.7533  -29.3055   22.3024 C   0  0  0  0  0  0  0  0  0  0  0  0
  -24.0727  -32.1548   23.1168 C   0  0  0  0  0  0  0  0  0  0  0  0
  -26.8852  -34.0635   23.4220 C   0  0  0  0  0  0  0  0  0  0  0  0
  -29.7132  -18.3943   19.5437 C   0  0  0  0  0  0  0  0  0  0  0  0
  -17.6957  -28.9189   22.8758 C   0  0  0  0  0  0  0  0  0  0  0  0
  -24.5796  -28.5812   23.8823 C   0  0  0  0  0  0  0  0  0  0  0  0
  -25.5627  -30.5311   21.8883 C   0  0  0  0  0  0  0  0  0  0  0  0
  -18.6708  -30.0349   22.5101 C   0  0  0  0  0  0  0  0  0  0  0  0
  -32.1855  -16.0981   20.6804 C   0  0  0  0  0  0  0  0  0  0  0  0
  -19.6327  -29.5682   21.4221 C   0  0  0  0  0  0  0  0  0  0  0  0
  -31.5127  -14.7328   20.5214 C   0  0  0  0  0  0  0  0  0  0  0  0
  -31.1926  -17.1717   21.1221 C   0  0  0  0  0  0  0  0  0  0  0  0
  -29.3171  -15.9211   20.1283 C   0  0  0  0  0  0  0  0  0  0  0  0
  -20.4773  -28.3825   21.9040 C   0  0  1  0  0  0  0  0  0  0  0  0
  -23.7071  -29.7289   23.3835 C   0  0  1  0  0  0  0  0  0  0  0  0
  -30.2642  -14.8211   19.6218 C   0  0  2  0  0  0  0  0  0  0  0  0
  -27.6428  -36.3647   24.0763 C   0  0  0  0  0  0  0  0  0  0  0  0
  -23.0621  -33.2427   20.4513 C   0  0  0  0  0  0  0  0  0  0  0  0
  -24.6229  -35.1803   20.7297 C   0  0  0  0  0  0  0  0  0  0  0  0
  -22.7945  -34.8060   22.3849 C   0  0  0  0  0  0  0  0  0  0  0  0
  -28.5482  -33.0134   25.6335 C   0  0  0  0  0  0  0  0  0  0  0  0
  -29.4080  -26.8469   18.0378 C   0  0  0  0  0  0  0  0  0  0  0  0
  -29.3950  -24.5852   16.9360 C   0  0  0  0  0  0  0  0  0  0  0  0
  -28.7587  -27.7941   19.0411 C   0  0  0  0  0  0  0  0  0  1  0  0
  -24.7898  -33.2533   22.3698 C   0  0  1  0  0  0  0  0  0  0  0  0
  -27.3878  -34.9431   24.5526 C   0  0  2  0  0  0  0  0  0  0  0  0
  -28.6843  -25.5014   17.9302 C   0  0  2  0  0  0  0  0  0  0  0  0
  -23.8272  -34.0939   21.4842 C   0  0  0  0  0  0  0  0  0  0  0  0
  -28.5743  -13.1821   20.3561 N   0  0  0  0  0  0  0  0  0  0  0  0
  -28.4966  -20.5446   17.7262 N   0  0  0  0  0  0  0  0  0  0  0  0
  -29.5646  -13.4805   19.4979 N   0  0  0  0  0  0  0  0  0  0  0  0
  -24.4913  -30.8438   22.8484 N   0  0  0  0  0  0  0  0  0  0  0  0
  -30.0383  -17.2002   20.2212 N   0  0  0  0  0  0  0  0  0  0  0  0
  -30.7850  -12.6327   17.6534 N   0  0  0  0  0  0  0  0  0  0  0  0
  -25.7294  -20.8269   15.3703 N   0  0  0  0  0  0  0  0  0  0  0  0
  -27.8755   -9.3091   18.5940 N   0  0  0  0  0  0  0  0  0  0  0  0
  -28.6157  -18.2921   18.6895 N   0  0  0  0  0  0  0  0  0  0  0  0
  -29.0278  -23.2076   17.1340 N   0  0  0  0  0  0  0  0  0  0  0  0
  -21.5405  -28.8394   22.7730 N   0  0  0  0  0  0  0  0  0  0  0  0
  -25.5076  -34.0294   23.3753 N   0  0  0  0  0  0  0  0  0  0  0  0
  -28.6593  -34.3981   25.1069 N   0  3  0  0  0  0  0  0  0  0  0  0
  -29.5906   -9.9466   17.2117 O   0  0  0  0  0  0  0  0  0  0  0  0
  -27.2119  -23.1972   15.6910 O   0  0  0  0  0  0  0  0  0  0  0  0
  -23.0920  -29.3964   21.1283 O   0  0  0  0  0  0  0  0  0  0  0  0
  -23.1791  -32.4494   23.9145 O   0  0  0  0  0  0  0  0  0  0  0  0
  -27.6393  -33.4694   22.6547 O   0  0  0  0  0  0  0  0  0  0  0  0
  -30.3773  -19.4239   19.6882 O   0  0  0  0  0  0  0  0  0  0  0  0
  -27.3519  -25.7072   17.4637 O   0  0  0  0  0  0  0  0  0  0  0  0
  -24.0585   -9.3238   22.6518 O   0  0  0  0  0  0  0  0  0  0  0  0
  -28.7563  -27.1706   20.3247 O   0  0  0  0  0  0  0  0  0  1  0  0
  -20.2196   -6.8132   19.5918 F   0  0  0  0  0  0  0  0  0  0  0  0
  -21.3988  -10.0556   22.8325 F   0  0  0  0  0  0  0  0  0  0  0  0
  -26.7110  -18.8572   16.9221 S   0  0  0  0  0  0  0  0  0  0  0  0
  1  2  1  0  0  0  0
  1  5  2  0  0  0  0
  2  6  2  0  0  0  0
  3  8  2  0  0  0  0
  3 15  1  0  0  0  0
  4  9  1  0  0  0  0
  4 15  2  0  0  0  0
  5 17  1  0  0  0  0
  6 19  1  0  0  0  0
  7 10  2  0  0  0  0
  7 18  1  0  0  0  0
  8 21  1  0  0  0  0
  9 21  2  0  0  0  0
 10 22  1  0  0  0  0
 11 12  2  0  0  0  0
 11 23  1  0  0  0  0
 12 24  1  0  0  0  0
 13 20  1  0  0  0  0
 13 22  2  0  0  0  0
 14 24  2  0  0  0  0
 14 25  1  0  0  0  0
 15 26  1  0  0  0  0
 16 26  1  0  0  0  0
 16 28  2  0  0  0  0
 16 31  1  0  0  0  0
 17 19  2  0  0  0  0
 17 37  1  0  0  0  0
 18 20  2  0  0  0  0
 18 38  1  0  0  0  0
 19 46  1  0  0  0  0
 20 39  1  0  0  0  0
 21 81  1  0  0  0  0
 22 82  1  0  0  0  0
 23 25  2  0  0  0  0
 23 81  1  0  0  0  0
 24 83  1  0  0  0  0
 25 84  1  0  0  0  0
 26 61  2  0  0  0  0
 27 29  2  0  0  0  0
 27 32  1  0  0  0  0
 27 62  1  0  0  0  0
 28 63  1  0  0  0  0
 28 66  1  0  0  0  0
 29 67  1  0  0  0  0
 29 85  1  0  0  0  0
 30 62  2  0  0  0  0
 30 69  1  0  0  0  0
 30 85  1  0  0  0  0
 31 68  1  0  0  0  0
 31 74  2  0  0  0  0
 32 70  1  0  0  0  0
 32 75  2  0  0  0  0
 33 47  1  0  0  0  0
 33 71  1  0  0  0  0
 33 76  2  0  0  0  0
 34 57  1  0  0  0  0
 34 64  1  0  0  0  0
 34 77  2  0  0  0  0
 35 58  1  0  0  0  0
 35 72  1  0  0  0  0
 35 78  2  0  0  0  0
 36 65  1  0  0  0  0
 36 69  1  0  0  0  0
 36 79  2  0  0  0  0
 37 40  1  0  0  0  0
 38 47  1  0  0  0  0
 39 64  1  0  0  0  0
 40 42  1  0  0  0  0
 41 43  1  0  0  0  0
 41 44  1  0  0  0  0
 42 46  1  0  0  0  0
 43 48  1  0  0  0  0
 44 65  1  0  0  0  0
 45 48  1  0  0  0  0
 45 65  1  0  0  0  0
 46 71  1  0  0  0  0
 47 64  1  0  0  0  0
 48 63  1  0  0  0  0
 49 58  1  0  0  0  0
 50 60  1  0  0  0  0
 51 60  1  0  0  0  0
 52 60  1  0  0  0  0
 53 73  1  0  0  0  0
 54 56  1  0  0  0  0
 54 59  1  0  0  0  0
 55 59  1  0  0  0  0
 55 70  1  0  0  0  0
 56 82  1  0  0  0  0
 57 60  1  0  0  0  0
 57 72  1  0  0  0  0
 58 73  1  0  0  0  0
 59 80  1  0  0  0  0
 61 63  1  0  0  0  0
M  CHG  1  73   1
M  ISO  4  36 100  56 101  69 100  82 101
M  END
> <Batch ID>
0192

> <Smiles>
CNC(C)C(=O)NC(C(=O)N1Cc2cc([101O:1][101CH2:1]CC(O)CNC(=O)c3nc([100NH:0][100C:0](=O)N4CCCC(n5nc(-c6ccc(Oc7ccc(F)cc7F)cc6)c(C(N)=O)c5N)C4)sc3N)ccc2CC1C(=O)NC1CCCc2ccccc21)C(C)(C)C

> <Shape>
0.307

> <Color>
0.076

> <Negative vol penalty>
0.000

$$$$

  -OEChem-04052305273D

 85 93  0     1  0  0  0  0  0999 V2000
  -27.5266  -17.4123   14.4458 C   0  0  0  0  0  0  0  0  0  0  0  0
  -28.0831  -17.1872   15.7008 C   0  0  0  0  0  0  0  0  0  0  0  0
  -27.5242  -28.7101   19.5308 C   0  0  0  0  0  0  0  0  0  0  0  0
  -25.9545  -27.4234   20.8413 C   0  0  0  0  0  0  0  0  0  0  0  0
  -26.1586  -17.2293   14.2481 C   0  0  0  0  0  0  0  0  0  0  0  0
  -27.2716  -16.7800   16.7592 C   0  0  0  0  0  0  0  0  0  0  0  0
  -28.7930  -12.9793   21.3139 C   0  0  0  0  0  0  0  0  0  0  0  0
  -26.6349  -29.7847   19.5207 C   0  0  0  0  0  0  0  0  0  0  0  0
  -25.0652  -28.4980   20.8313 C   0  0  0  0  0  0  0  0  0  0  0  0
  -29.2091  -13.2058   22.6252 C   0  0  0  0  0  0  0  0  0  0  0  0
  -22.5323  -31.0300   21.4569 C   0  0  0  0  0  0  0  0  0  0  0  0
  -21.9118  -31.3705   22.6588 C   0  0  0  0  0  0  0  0  0  0  0  0
  -26.9386  -12.9199   23.3885 C   0  0  0  0  0  0  0  0  0  0  0  0
  -24.0728  -31.7807   23.6583 C   0  0  0  0  0  0  0  0  0  0  0  0
  -27.1840  -27.5295   20.1911 C   0  0  0  0  0  0  0  0  0  0  0  0
  -29.1085  -26.1567   21.1500 C   0  0  0  0  0  0  0  0  0  0  0  0
  -25.3316  -16.8104   15.3021 C   0  0  0  0  0  0  0  0  0  0  0  0
  -27.4426  -12.7317   21.0284 C   0  0  0  0  0  0  0  0  0  0  0  0
  -25.8910  -16.5926   16.5757 C   0  0  0  0  0  0  0  0  0  0  0  0
  -26.5085  -12.6880   22.0731 C   0  0  0  0  0  0  0  0  0  0  0  0
  -29.1154  -18.1173   22.0075 C   0  0  0  0  0  0  0  0  0  0  0  0
  -25.4055  -29.6787   20.1709 C   0  0  0  0  0  0  0  0  0  0  0  0
  -28.2814  -13.1790   23.6624 C   0  0  0  0  0  0  0  0  0  0  0  0
  -23.9231  -31.0648   21.3557 C   0  0  0  0  0  0  0  0  0  0  0  0
  -22.6820  -31.7459   23.7595 C   0  0  0  0  0  0  0  0  0  0  0  0
  -24.6933  -31.4401   22.4563 C   0  0  0  0  0  0  0  0  0  0  0  0
  -28.1019  -26.4189   20.2014 C   0  0  0  0  0  0  0  0  0  0  0  0
  -29.5014  -18.2992   20.6952 C   0  0  0  0  0  0  0  0  0  0  0  0
  -29.5787  -16.9666   22.6121 C   0  0  0  0  0  0  0  0  0  0  0  0
  -29.6964  -24.9944   20.7144 C   0  0  0  0  0  0  0  0  0  0  0  0
  -30.6670  -16.3477   20.7148 C   0  0  0  0  0  0  0  0  0  0  0  0
  -29.4789  -26.8977   22.3202 C   0  0  0  0  0  0  0  0  0  0  0  0
  -25.2095  -14.1961   19.3043 C   0  0  0  0  0  0  0  0  0  0  0  0
  -23.4621  -11.5670   20.0504 C   0  0  0  0  0  0  0  0  0  0  0  0
  -22.9318   -8.9470   22.1721 C   0  0  0  0  0  0  0  0  0  0  0  0
  -29.3443  -19.8186   18.6919 C   0  0  0  0  0  0  0  0  0  0  0  0
  -23.8508  -16.6718   15.0519 C   0  0  0  0  0  0  0  0  0  0  0  0
  -27.0143  -12.4628   19.6118 C   0  0  0  0  0  0  0  0  0  0  0  0
  -25.0504  -12.4065   21.8219 C   0  0  0  0  0  0  0  0  0  0  0  0
  -23.1222  -15.8771   16.1326 C   0  0  0  0  0  0  0  0  0  0  0  0
  -29.2032  -22.4906   16.3430 C   0  0  0  0  0  0  0  0  0  0  0  0
  -23.5469  -16.3486   17.5198 C   0  0  0  0  0  0  0  0  0  0  0  0
  -28.9869  -23.7292   17.2154 C   0  0  0  0  0  0  0  0  0  0  0  0
  -28.4535  -21.2758   16.8869 C   0  0  0  0  0  0  0  0  0  0  0  0
  -28.5022  -22.2015   19.1694 C   0  0  0  0  0  0  0  0  0  0  0  0
  -25.0477  -16.1262   17.7425 C   0  0  1  0  0  0  0  0  0  0  0  0
  -25.5311  -12.7300   19.3751 C   0  0  1  0  0  0  0  0  0  0  0  0
  -29.2901  -23.4345   18.6976 C   0  0  2  0  0  0  0  0  0  0  0  0
  -21.4051   -6.9900   22.5425 C   0  0  0  0  0  0  0  0  0  0  0  0
  -31.1810  -16.9019   25.3422 C   0  0  0  0  0  0  0  0  0  0  0  0
  -27.3441  -13.9956   26.8420 C   0  0  0  0  0  0  0  0  0  0  0  0
  -21.3024  -13.4525   21.0946 C   0  0  0  0  0  0  0  0  0  0  0  0
  -20.2741  -11.5040   22.2838 C   0  0  0  0  0  0  0  0  0  0  0  0
  -20.4408  -11.4974   19.7948 C   0  0  0  0  0  0  0  0  0  0  0  0
  -25.1584   -7.0138   21.9193 C   0  0  0  0  0  0  0  0  0  0  0  0
  -29.2116  -15.4873   26.0373 C   0  0  0  0  0  0  0  0  0  0  0  0
  -22.5339  -11.1848   21.1780 C   0  0  1  0  0  0  0  0  0  0  0  0
  -22.7026   -7.4693   21.9103 C   0  0  2  0  0  0  0  0  0  0  0  0
  -30.0592  -15.9881   24.8565 C   0  0  1  0  0  0  0  0  0  0  0  0
  -28.1018  -14.5103   25.6248 C   0  0  1  0  0  0  0  0  0  1  0  0
  -21.1649  -11.9169   21.0926 C   0  0  0  0  0  0  0  0  0  0  0  0
  -28.0505  -25.4973   19.2360 N   0  0  0  0  0  0  0  0  0  0  0  0
  -30.2795  -17.4314   20.0156 N   0  0  0  0  0  0  0  0  0  0  0  0
  -30.3591  -16.0566   21.9931 N   0  0  0  0  0  0  0  0  0  0  0  0
  -29.0323  -24.6447   19.5756 N   0  0  0  0  0  0  0  0  0  0  0  0
  -24.6797  -12.1561   20.4192 N   0  0  0  0  0  0  0  0  0  0  0  0
  -28.7934  -21.0552   18.2943 N   0  0  0  0  0  0  0  0  0  0  0  0
  -28.3040  -19.0428   22.6837 N   0  0  0  0  0  0  0  0  0  0  0  0
  -30.7115  -24.2475   21.1983 N   0  0  0  0  0  0  0  0  0  0  0  0
  -31.4829  -15.4173   20.0351 N   0  0  0  0  0  0  0  0  0  0  0  0
  -28.7709  -28.0692   22.6211 N   0  0  0  0  0  0  0  0  0  0  0  0
  -29.0630  -19.4591   20.0096 N   0  0  0  0  0  0  0  0  0  0  0  0
  -29.2273  -16.7247   23.9281 N   0  0  0  0  0  0  0  0  0  0  0  0
  -25.3143  -14.7344   18.0359 N   0  0  0  0  0  0  0  0  0  0  0  0
  -22.4360   -9.7295   21.1507 N   0  0  0  0  0  0  0  0  0  0  0  0
  -23.8242   -6.6639   22.4709 N   0  3  0  0  0  0  0  0  0  0  0  0
  -30.4209  -26.5405   23.0676 O   0  0  0  0  0  0  0  0  0  0  0  0
  -24.8885  -14.7942   20.3245 O   0  0  0  0  0  0  0  0  0  0  0  0
  -23.1224  -11.3442   18.8857 O   0  0  0  0  0  0  0  0  0  0  0  0
  -23.4911   -9.3654   23.1833 O   0  0  0  0  0  0  0  0  0  0  0  0
  -30.0388  -19.1422   17.9290 O   0  0  0  0  0  0  0  0  0  0  0  0
  -24.5376  -30.7271   20.1615 O   0  0  0  0  0  0  0  0  0  0  0  0
  -28.6847  -13.4004   24.9431 O   0  0  0  0  0  0  0  0  0  1  0  0
  -22.0859  -32.0744   24.9131 F   0  0  0  0  0  0  0  0  0  0  0  0
  -26.0298  -31.4765   22.3648 F   0  0  0  0  0  0  0  0  0  0  0  0
  1  2  1  0  0  0  0
  1  5  2  0  0  0  0
  2  6  2  0  0  0  0
  3  8  2  0  0  0  0
  3 15  1  0  0  0  0
  4  9  1  0  0  0  0
  4 15  2  0  0  0  0
  5 17  1  0  0  0  0
  6 19  1  0  0  0  0
  7 10  2  0  0  0  0
  7 18  1  0  0  0  0
  8 22  1  0  0  0  0
  9 22  2  0  0  0  0
 10 23  1  0  0  0  0
 11 12  2  0  0  0  0
 11 24  1  0  0  0  0
 12 25  1  0  0  0  0
 13 20  1  0  0  0  0
 13 23  2  0  0  0  0
 14 25  2  0  0  0  0
 14 26  1  0  0  0  0
 15 27  1  0  0  0  0
 16 27  1  0  0  0  0
 16 30  2  0  0  0  0
 16 32  1  0  0  0  0
 17 19  2  0  0  0  0
 17 37  1  0  0  0  0
 18 20  2  0  0  0  0
 18 38  1  0  0  0  0
 19 46  1  0  0  0  0
 20 39  1  0  0  0  0
 21 28  1  0  0  0  0
 21 29  2  0  0  0  0
 21 68  1  0  0  0  0
 22 82  1  0  0  0  0
 23 83  1  0  0  0  0
 24 26  2  0  0  0  0
 24 82  1  0  0  0  0
 25 84  1  0  0  0  0
 26 85  1  0  0  0  0
 27 62  2  0  0  0  0
 28 63  2  0  0  0  0
 28 72  1  0  0  0  0
 29 64  1  0  0  0  0
 29 73  1  0  0  0  0
 30 65  1  0  0  0  0
 30 69  1  0  0  0  0
 31 63  1  0  0  0  0
 31 64  2  0  0  0  0
 31 70  1  0  0  0  0
 32 71  1  0  0  0  0
 32 77  2  0  0  0  0
 33 47  1  0  0  0  0
 33 74  1  0  0  0  0
 33 78  2  0  0  0  0
 34 57  1  0  0  0  0
 34 66  1  0  0  0  0
 34 79  2  0  0  0  0
 35 58  1  0  0  0  0
 35 75  1  0  0  0  0
 35 80  2  0  0  0  0
 36 67  1  0  0  0  0
 36 72  1  0  0  0  0
 36 81  2  0  0  0  0
 37 40  1  0  0  0  0
 38 47  1  0  0  0  0
 39 66  1  0  0  0  0
 40 42  1  0  0  0  0
 41 43  1  0  0  0  0
 41 44  1  0  0  0  0
 42 46  1  0  0  0  0
 43 48  1  0  0  0  0
 44 67  1  0  0  0  0
 45 48  1  0  0  0  0
 45 67  1  0  0  0  0
 46 74  1  0  0  0  0
 47 66  1  0  0  0  0
 48 65  1  0  0  0  0
 49 58  1  0  0  0  0
 50 59  1  0  0  0  0
 51 60  1  0  0  0  0
 52 61  1  0  0  0  0
 53 61  1  0  0  0  0
 54 61  1  0  0  0  0
 55 76  1  0  0  0  0
 56 59  1  0  0  0  0
 56 60  1  0  0  0  0
 57 61  1  0  0  0  0
 57 75  1  0  0  0  0
 58 76  1  0  0  0  0
 59 73  1  0  0  0  0
 60 83  1  0  0  0  0
 62 65  1  0  0  0  0
M  CHG  1  76   1
M  ISO  4  36 100  60 101  72 100  83 101
M  END
> <Batch ID>
0192

> <Smiles>
CNC(C)C(=O)NC(C(=O)N1Cc2cc([101O:1][101CH:1](C)CC(C)Nc3nc(N)nc([100NH:0][100C:0](=O)N4CCCC(n5nc(-c6ccc(Oc7ccc(F)cc7F)cc6)c(C(N)=O)c5N)C4)c3N)ccc2CC1C(=O)NC1CCCc2ccccc21)C(C)(C)C

> <Shape>
0.265

> <Color>
0.063

> <Negative vol penalty>
0.000

$$$$

  -OEChem-04052305273D

 89 97  0     1  0  0  0  0  0999 V2000
  -23.1513  -35.3471   15.6175 C   0  0  0  0  0  0  0  0  0  0  0  0
  -23.8469  -34.1439   15.6783 C   0  0  0  0  0  0  0  0  0  0  0  0
  -23.5308  -10.7502   22.0909 C   0  0  0  0  0  0  0  0  0  0  0  0
  -21.9120  -10.7357   20.2976 C   0  0  0  0  0  0  0  0  0  0  0  0
  -23.1294  -36.1951   16.7240 C   0  0  0  0  0  0  0  0  0  0  0  0
  -24.5221  -33.7884   16.8454 C   0  0  0  0  0  0  0  0  0  0  0  0
  -25.2265  -28.1450   19.1173 C   0  0  0  0  0  0  0  0  0  0  0  0
  -23.1240   -9.4706   22.4686 C   0  0  0  0  0  0  0  0  0  0  0  0
  -21.5052   -9.4560   20.6752 C   0  0  0  0  0  0  0  0  0  0  0  0
  -26.2781  -27.2319   19.0517 C   0  0  0  0  0  0  0  0  0  0  0  0
  -19.5481   -8.0650   23.0555 C   0  0  0  0  0  0  0  0  0  0  0  0
  -18.1777   -7.8132   23.1197 C   0  0  0  0  0  0  0  0  0  0  0  0
  -27.0694  -27.9981   21.1978 C   0  0  0  0  0  0  0  0  0  0  0  0
  -18.4183   -6.0794   21.4545 C   0  0  0  0  0  0  0  0  0  0  0  0
  -22.9248  -11.3828   21.0054 C   0  0  0  0  0  0  0  0  0  0  0  0
  -24.6311  -13.1023   20.2058 C   0  0  0  0  0  0  0  0  0  0  0  0
  -23.7966  -35.8453   17.9086 C   0  0  0  0  0  0  0  0  0  0  0  0
  -25.0945  -29.0005   20.2205 C   0  0  0  0  0  0  0  0  0  0  0  0
  -24.5103  -34.6330   17.9684 C   0  0  0  0  0  0  0  0  0  0  0  0
  -26.0138  -28.9194   21.2762 C   0  0  0  0  0  0  0  0  0  0  0  0
  -22.1112   -8.8235   21.7607 C   0  0  0  0  0  0  0  0  0  0  0  0
  -27.2014  -27.1604   20.0907 C   0  0  0  0  0  0  0  0  0  0  0  0
  -20.3536   -7.3241   22.1908 C   0  0  0  0  0  0  0  0  0  0  0  0
  -17.6128   -6.8204   22.3192 C   0  0  0  0  0  0  0  0  0  0  0  0
  -19.7887   -6.3312   21.3903 C   0  0  0  0  0  0  0  0  0  0  0  0
  -23.3442  -12.7049   20.6152 C   0  0  0  0  0  0  0  0  0  0  0  0
  -24.5096  -14.4457   19.9469 C   0  0  0  0  0  0  0  0  0  0  0  0
  -22.2642  -24.2603   21.7274 C   0  0  0  0  0  0  0  0  0  0  0  0
  -22.4828  -21.7990   21.9993 C   0  0  0  0  0  0  0  0  0  0  0  0
  -25.8293  -12.3264   20.0714 C   0  0  0  0  0  0  0  0  0  0  0  0
  -25.7159  -23.2394   22.8436 C   0  0  0  0  0  0  0  0  0  0  0  0
  -25.1387  -32.1519   20.6333 C   0  0  0  0  0  0  0  0  0  0  0  0
  -24.3253  -31.3732   23.6754 C   0  0  0  0  0  0  0  0  0  0  0  0
  -24.3301  -29.0442   26.1698 C   0  0  0  0  0  0  0  0  0  0  0  0
  -22.7456  -19.3919   21.6389 C   0  0  0  0  0  0  0  0  0  0  0  0
  -23.7839  -36.8161   19.0627 C   0  0  0  0  0  0  0  0  0  0  0  0
  -23.9393  -29.9613   20.2886 C   0  0  0  0  0  0  0  0  0  0  0  0
  -25.9049  -29.8015   22.4921 C   0  0  0  0  0  0  0  0  0  0  0  0
  -21.5560  -22.9487   21.9324 C   0  0  0  0  0  0  0  0  0  0  0  0
  -23.7667  -24.3075   21.7826 C   0  0  0  0  0  0  0  0  0  0  0  0
  -24.2132  -36.1923   20.3882 C   0  0  0  0  0  0  0  0  0  0  0  0
  -20.4376  -17.3844   19.5567 C   0  0  0  0  0  0  0  0  0  0  0  0
  -25.4766  -35.3583   20.2013 C   0  0  0  0  0  0  0  0  0  0  0  0
  -21.0709  -16.0023   19.6775 C   0  0  0  0  0  0  0  0  0  0  0  0
  -20.6280  -18.2181   20.8232 C   0  0  0  0  0  0  0  0  0  0  0  0
  -22.6900  -16.9475   21.3662 C   0  0  0  0  0  0  0  0  0  0  0  0
  -25.2343  -34.2009   19.2250 C   0  0  1  0  0  0  0  0  0  0  0  0
  -24.2476  -23.2998   22.8105 C   0  0  1  0  0  0  0  0  0  0  0  0
  -24.1968  -31.1401   21.2221 C   0  0  1  0  0  0  0  0  0  0  0  0
  -22.5482  -16.1202   20.0801 C   0  0  1  0  0  0  0  0  0  0  0  0
  -28.0718  -18.9395   21.8790 C   0  0  0  0  0  0  0  0  0  0  0  0
  -23.6265  -28.7114   28.5556 C   0  0  0  0  0  0  0  0  0  0  0  0
  -27.4617  -20.9872   19.7171 C   0  0  0  0  0  0  0  0  0  0  0  0
  -29.6171  -25.4772   21.8184 C   0  0  0  0  0  0  0  0  0  0  0  0
  -26.6961  -33.0533   24.6064 C   0  0  0  0  0  0  0  0  0  0  0  0
  -26.5215  -31.9359   26.8400 C   0  0  0  0  0  0  0  0  0  0  0  0
  -24.6264  -33.3149   25.9857 C   0  0  0  0  0  0  0  0  0  0  0  0
  -22.5088  -26.8268   25.4450 C   0  0  0  0  0  0  0  0  0  0  0  0
  -27.6979  -20.3851   22.1784 C   0  0  0  0  0  0  0  0  0  0  0  0
  -28.2057  -23.8836   20.4653 C   0  0  0  0  0  0  0  0  0  0  0  0
  -25.0890  -31.0602   24.9395 C   0  0  1  0  0  0  0  0  0  0  0  0
  -23.2298  -28.5573   27.0955 C   0  0  2  0  0  0  0  0  0  0  0  0
  -28.0944  -21.3740   21.0595 C   0  0  2  0  0  0  0  0  0  0  0  0
  -27.7574  -22.8245   21.4867 C   0  0  2  0  0  0  0  0  0  0  0  0
  -28.3043  -25.2933   21.0672 C   0  0  2  0  0  0  0  0  0  1  0  0
  -25.7367  -32.3257   25.5693 C   0  0  0  0  0  0  0  0  0  0  0  0
  -22.4694  -13.7142   20.6180 N   0  0  0  0  0  0  0  0  0  0  0  0
  -21.5998  -25.3449   21.4918 N   0  0  0  0  0  0  0  0  0  0  0  0
  -23.2080  -14.7591   20.2072 N   0  0  0  0  0  0  0  0  0  0  0  0
  -24.7617  -30.7290   22.5090 N   0  0  0  0  0  0  0  0  0  0  0  0
  -22.0338  -18.2544   21.2490 N   0  0  0  0  0  0  0  0  0  0  0  0
  -23.7318  -21.9778   22.4238 N   0  3  0  0  0  0  0  0  0  0  0  0
  -25.3902  -15.3775   19.5244 N   0  0  0  0  0  0  0  0  0  0  0  0
  -26.0934  -11.7129   18.8392 N   0  0  0  0  0  0  0  0  0  0  0  0
  -26.2959  -23.4906   24.0117 N   0  0  0  0  0  0  0  0  0  0  0  0
  -21.9935  -20.6211   21.6386 N   0  0  0  0  0  0  0  0  0  0  0  0
  -24.5160  -33.1289   19.8803 N   0  0  0  0  0  0  0  0  0  0  0  0
  -24.1550  -30.3662   25.8194 N   0  0  0  0  0  0  0  0  0  0  0  0
  -26.3058  -22.9388   21.6900 N   0  3  0  0  0  0  0  0  0  0  0  0
  -22.9346  -27.1195   26.8379 N   0  3  0  0  0  0  0  0  0  0  0  0
  -26.6335  -12.1679   21.0210 O   0  0  0  0  0  0  0  0  0  0  0  0
  -26.3413  -32.0542   20.8476 O   0  0  0  0  0  0  0  0  0  0  0  0
  -23.3722  -32.1548   23.7226 O   0  0  0  0  0  0  0  0  0  0  0  0
  -25.2546  -28.3247   25.7980 O   0  0  0  0  0  0  0  0  0  0  0  0
  -23.9198  -19.4159   21.9935 O   0  0  0  0  0  0  0  0  0  0  0  0
  -21.7142   -7.5747   22.1288 O   0  0  0  0  0  0  0  0  0  0  0  0
  -28.2356  -26.2649   20.0284 O   0  0  0  0  0  0  0  0  0  1  0  0
  -16.2970   -6.5777   22.3820 F   0  0  0  0  0  0  0  0  0  0  0  0
  -20.5577   -5.6153   20.5585 F   0  0  0  0  0  0  0  0  0  0  0  0
  1  2  1  0  0  0  0
  1  5  2  0  0  0  0
  2  6  2  0  0  0  0
  3  8  2  0  0  0  0
  3 15  1  0  0  0  0
  4  9  1  0  0  0  0
  4 15  2  0  0  0  0
  5 17  1  0  0  0  0
  6 19  1  0  0  0  0
  7 10  2  0  0  0  0
  7 18  1  0  0  0  0
  8 21  1  0  0  0  0
  9 21  2  0  0  0  0
 10 22  1  0  0  0  0
 11 12  2  0  0  0  0
 11 23  1  0  0  0  0
 12 24  1  0  0  0  0
 13 20  1  0  0  0  0
 13 22  2  0  0  0  0
 14 24  2  0  0  0  0
 14 25  1  0  0  0  0
 15 26  1  0  0  0  0
 16 26  1  0  0  0  0
 16 27  2  0  0  0  0
 16 30  1  0  0  0  0
 17 19  2  0  0  0  0
 17 36  1  0  0  0  0
 18 20  2  0  0  0  0
 18 37  1  0  0  0  0
 19 47  1  0  0  0  0
 20 38  1  0  0  0  0
 21 86  1  0  0  0  0
 22 87  1  0  0  0  0
 23 25  2  0  0  0  0
 23 86  1  0  0  0  0
 24 88  1  0  0  0  0
 25 89  1  0  0  0  0
 26 67  2  0  0  0  0
 27 69  1  0  0  0  0
 27 73  1  0  0  0  0
 28 39  1  0  0  0  0
 28 40  1  0  0  0  0
 28 68  2  0  0  0  0
 29 39  1  0  0  0  0
 29 72  2  0  0  0  0
 29 76  1  0  0  0  0
 30 74  1  0  0  0  0
 30 81  2  0  0  0  0
 31 48  1  0  0  0  0
 31 75  1  0  0  0  0
 31 79  2  0  0  0  0
 32 49  1  0  0  0  0
 32 77  1  0  0  0  0
 32 82  2  0  0  0  0
 33 61  1  0  0  0  0
 33 70  1  0  0  0  0
 33 83  2  0  0  0  0
 34 62  1  0  0  0  0
 34 78  1  0  0  0  0
 34 84  2  0  0  0  0
 35 71  1  0  0  0  0
 35 76  1  0  0  0  0
 35 85  2  0  0  0  0
 36 41  1  0  0  0  0
 37 49  1  0  0  0  0
 38 70  1  0  0  0  0
 40 48  1  0  0  0  0
 41 43  1  0  0  0  0
 42 44  1  0  0  0  0
 42 45  1  0  0  0  0
 43 47  1  0  0  0  0
 44 50  1  0  0  0  0
 45 71  1  0  0  0  0
 46 50  1  0  0  0  0
 46 71  1  0  0  0  0
 47 77  1  0  0  0  0
 48 72  1  0  0  0  0
 49 70  1  0  0  0  0
 50 69  1  0  0  0  0
 51 59  1  0  0  0  0
 52 62  1  0  0  0  0
 53 63  1  0  0  0  0
 54 65  1  0  0  0  0
 55 66  1  0  0  0  0
 56 66  1  0  0  0  0
 57 66  1  0  0  0  0
 58 80  1  0  0  0  0
 59 63  1  0  0  0  0
 60 64  1  0  0  0  0
 60 65  1  0  0  0  0
 61 66  1  0  0  0  0
 61 78  1  0  0  0  0
 62 80  1  0  0  0  0
 63 64  1  0  0  0  0
 64 79  1  0  0  0  0
 65 87  1  0  0  0  0
 67 69  1  0  0  0  0
M  CHG  3  72   1  79   1  80   1
M  ISO  4  35 100  65 101  76 100  87 101
M  END
> <Batch ID>
0192

> <Smiles>
CCC(C)C(C[101CH:1](C)[101O:1]c1ccc2c(c1)CN(C(=O)C(NC(=O)C(C)NC)C(C)(C)C)C(C(=O)NC1CCCc3ccccc31)C2)NC(N)c1cc(N)cc([100NH:0][100C:0](=O)N2CCCC(n3nc(-c4ccc(Oc5ccc(F)cc5F)cc4)c(C(N)=O)c3N)C2)n1

> <Shape>
0.205

> <Color>
0.109

> <Negative vol penalty>
0.000

$$$$

  -OEChem-04052305273D

 84 92  0     1  0  0  0  0  0999 V2000
  -32.3512  -25.4249   18.1684 C   0  0  0  0  0  0  0  0  0  0  0  0
  -31.0052  -25.0840   18.2558 C   0  0  0  0  0  0  0  0  0  0  0  0
  -27.5154  -14.8331   19.2438 C   0  0  0  0  0  0  0  0  0  0  0  0
  -25.6118  -15.4826   20.5822 C   0  0  0  0  0  0  0  0  0  0  0  0
  -32.9331  -26.2204   19.1545 C   0  0  0  0  0  0  0  0  0  0  0  0
  -30.2406  -25.5376   19.3301 C   0  0  0  0  0  0  0  0  0  0  0  0
  -24.3234  -27.1133   19.2321 C   0  0  0  0  0  0  0  0  0  0  0  0
  -27.2523  -13.4916   19.5205 C   0  0  0  0  0  0  0  0  0  0  0  0
  -25.3486  -14.1411   20.8589 C   0  0  0  0  0  0  0  0  0  0  0  0
  -23.1638  -26.4264   19.5885 C   0  0  0  0  0  0  0  0  0  0  0  0
  -23.9160  -11.5111   19.2931 C   0  0  0  0  0  0  0  0  0  0  0  0
  -22.5933  -11.0788   19.1980 C   0  0  0  0  0  0  0  0  0  0  0  0
  -23.2190  -27.4729   21.7613 C   0  0  0  0  0  0  0  0  0  0  0  0
  -22.6358  -10.4365   21.5267 C   0  0  0  0  0  0  0  0  0  0  0  0
  -26.6952  -15.8287   19.7747 C   0  0  0  0  0  0  0  0  0  0  0  0
  -26.4697  -17.9747   18.4140 C   0  0  0  0  0  0  0  0  0  0  0  0
  -32.1729  -26.6920   20.2363 C   0  0  0  0  0  0  0  0  0  0  0  0
  -24.9467  -27.9784   20.1430 C   0  0  0  0  0  0  0  0  0  0  0  0
  -30.8133  -26.3391   20.3323 C   0  0  0  0  0  0  0  0  0  0  0  0
  -24.3850  -28.1716   21.4131 C   0  0  0  0  0  0  0  0  0  0  0  0
  -26.1688  -13.1455   20.3280 C   0  0  0  0  0  0  0  0  0  0  0  0
  -22.6130  -26.6039   20.8543 C   0  0  0  0  0  0  0  0  0  0  0  0
  -24.5987  -11.4061   20.5050 C   0  0  0  0  0  0  0  0  0  0  0  0
  -21.9532  -10.5415   20.3148 C   0  0  0  0  0  0  0  0  0  0  0  0
  -23.9586  -10.8689   21.6218 C   0  0  0  0  0  0  0  0  0  0  0  0
  -26.9669  -17.2147   19.4897 C   0  0  0  0  0  0  0  0  0  0  0  0
  -27.0187  -19.2211   18.5915 C   0  0  0  0  0  0  0  0  0  0  0  0
  -25.7155  -22.6555   25.0316 C   0  0  0  0  0  0  0  0  0  0  0  0
  -23.5704  -22.4031   24.7666 C   0  0  0  0  0  0  0  0  0  0  0  0
  -25.5901  -17.5885   17.3496 C   0  0  0  0  0  0  0  0  0  0  0  0
  -27.7905  -28.0736   21.5599 C   0  0  0  0  0  0  0  0  0  0  0  0
  -26.7219  -30.9392   22.6409 C   0  0  0  0  0  0  0  0  0  0  0  0
  -24.0646  -32.9469   23.3858 C   0  0  0  0  0  0  0  0  0  0  0  0
  -29.0531  -22.1315   23.4125 C   0  0  0  0  0  0  0  0  0  0  0  0
  -32.8574  -27.5099   21.3027 C   0  0  0  0  0  0  0  0  0  0  0  0
  -26.1821  -28.7325   19.7337 C   0  0  0  0  0  0  0  0  0  0  0  0
  -25.0042  -29.1044   22.4205 C   0  0  0  0  0  0  0  0  0  0  0  0
  -31.8871  -28.2600   22.2117 C   0  0  0  0  0  0  0  0  0  0  0  0
  -30.8626  -21.3913   20.4368 C   0  0  0  0  0  0  0  0  0  0  0  0
  -30.7600  -27.3379   22.6658 C   0  0  0  0  0  0  0  0  0  0  0  0
  -30.0245  -20.3056   19.7596 C   0  0  0  0  0  0  0  0  0  0  0  0
  -30.8518  -21.2466   21.9570 C   0  0  0  0  0  0  0  0  0  0  0  0
  -28.6707  -20.1013   21.8866 C   0  0  0  0  0  0  0  0  0  0  0  0
  -29.9449  -26.8322   21.4694 C   0  0  1  0  0  0  0  0  0  0  0  0
  -27.0208  -29.1949   20.9212 C   0  0  1  0  0  0  0  0  0  0  0  0
  -28.6056  -20.2389   20.3559 C   0  0  2  0  0  0  0  0  0  0  0  0
  -23.5056  -35.2210   24.2876 C   0  0  0  0  0  0  0  0  0  0  0  0
  -22.9660  -21.4783   21.8042 C   0  0  0  0  0  0  0  0  0  0  0  0
  -27.3825  -29.9805   25.4613 C   0  0  0  0  0  0  0  0  0  0  0  0
  -25.9601  -31.8388   26.3511 C   0  0  0  0  0  0  0  0  0  0  0  0
  -27.9906  -32.3621   24.9998 C   0  0  0  0  0  0  0  0  0  0  0  0
  -22.6952  -33.7308   20.8820 C   0  0  0  0  0  0  0  0  0  0  0  0
  -27.1499  -22.9096   24.8022 C   0  0  0  0  0  0  0  0  0  0  0  0
  -21.0518  -23.0931   22.0760 C   0  0  0  0  0  0  0  0  0  0  0  0
  -21.3203  -25.6096   22.5853 C   0  0  0  0  0  0  0  0  0  1  0  0
  -25.9511  -31.4049   23.8525 C   0  0  1  0  0  0  0  0  0  0  0  0
  -23.7671  -34.3943   23.0382 C   0  0  2  0  0  0  0  0  0  0  0  0
  -22.4568  -22.7056   22.5544 C   0  0  1  0  0  0  0  0  0  0  0  0
  -20.4690  -24.3515   22.7400 C   0  0  1  0  0  0  0  0  0  0  0  0
  -26.8103  -31.3774   25.1481 C   0  0  0  0  0  0  0  0  0  0  0  0
  -27.7701  -17.9194   20.2911 N   0  0  0  0  0  0  0  0  0  0  0  0
  -24.7614  -22.7047   24.1281 N   0  0  0  0  0  0  0  0  0  0  0  0
  -23.5450  -22.1331   26.0716 N   0  0  0  0  0  0  0  0  0  0  0  0
  -27.7819  -19.1352   19.7186 N   0  0  0  0  0  0  0  0  0  0  0  0
  -26.2148  -29.8142   21.9753 N   0  0  0  0  0  0  0  0  0  0  0  0
  -29.4767  -21.1910   22.4590 N   0  0  0  0  0  0  0  0  0  0  0  0
  -26.9183  -20.3713   17.8919 N   0  0  0  0  0  0  0  0  0  0  0  0
  -25.1186  -16.2691   17.3180 N   0  0  0  0  0  0  0  0  0  0  0  0
  -22.4386  -22.4074   23.9708 N   0  0  0  0  0  0  0  0  0  0  0  0
  -29.0379  -27.8599   21.0051 N   0  0  0  0  0  0  0  0  0  0  0  0
  -25.4185  -32.7209   23.5165 N   0  0  0  0  0  0  0  0  0  0  0  0
  -27.7333  -22.0120   23.8303 N   0  0  0  0  0  0  0  0  0  0  0  0
  -22.5672  -34.4797   22.1585 N   0  3  0  0  0  0  0  0  0  0  0  0
  -25.2460  -18.3854   16.4440 O   0  0  0  0  0  0  0  0  0  0  0  0
  -27.2903  -27.4495   22.4884 O   0  0  0  0  0  0  0  0  0  0  0  0
  -27.7325  -31.5553   22.2936 O   0  0  0  0  0  0  0  0  0  0  0  0
  -23.1838  -32.1021   23.5308 O   0  0  0  0  0  0  0  0  0  0  0  0
  -29.7946  -23.0158   23.8544 O   0  0  0  0  0  0  0  0  0  0  0  0
  -19.1932  -24.6185   22.1510 O   0  0  0  0  0  0  0  0  0  0  0  0
  -25.9116  -11.8365   20.5980 O   0  0  0  0  0  0  0  0  0  0  0  0
  -21.4815  -25.9340   21.2051 O   0  0  0  0  0  0  0  0  0  1  0  0
  -20.6825  -10.1278   20.2237 F   0  0  0  0  0  0  0  0  0  0  0  0
  -24.6088  -10.7665   22.7891 F   0  0  0  0  0  0  0  0  0  0  0  0
  -25.1306  -22.2522   26.5936 S   0  0  0  0  0  0  0  0  0  0  0  0
  1  2  1  0  0  0  0
  1  5  2  0  0  0  0
  2  6  2  0  0  0  0
  3  8  2  0  0  0  0
  3 15  1  0  0  0  0
  4  9  1  0  0  0  0
  4 15  2  0  0  0  0
  5 17  1  0  0  0  0
  6 19  1  0  0  0  0
  7 10  2  0  0  0  0
  7 18  1  0  0  0  0
  8 21  1  0  0  0  0
  9 21  2  0  0  0  0
 10 22  1  0  0  0  0
 11 12  2  0  0  0  0
 11 23  1  0  0  0  0
 12 24  1  0  0  0  0
 13 20  1  0  0  0  0
 13 22  2  0  0  0  0
 14 24  2  0  0  0  0
 14 25  1  0  0  0  0
 15 26  1  0  0  0  0
 16 26  1  0  0  0  0
 16 27  2  0  0  0  0
 16 30  1  0  0  0  0
 17 19  2  0  0  0  0
 17 35  1  0  0  0  0
 18 20  2  0  0  0  0
 18 36  1  0  0  0  0
 19 44  1  0  0  0  0
 20 37  1  0  0  0  0
 21 80  1  0  0  0  0
 22 81  1  0  0  0  0
 23 25  2  0  0  0  0
 23 80  1  0  0  0  0
 24 82  1  0  0  0  0
 25 83  1  0  0  0  0
 26 61  2  0  0  0  0
 27 64  1  0  0  0  0
 27 67  1  0  0  0  0
 28 53  1  0  0  0  0
 28 62  2  0  0  0  0
 28 84  1  0  0  0  0
 29 62  1  0  0  0  0
 29 63  2  0  0  0  0
 29 69  1  0  0  0  0
 30 68  1  0  0  0  0
 30 74  2  0  0  0  0
 31 45  1  0  0  0  0
 31 70  1  0  0  0  0
 31 75  2  0  0  0  0
 32 56  1  0  0  0  0
 32 65  1  0  0  0  0
 32 76  2  0  0  0  0
 33 57  1  0  0  0  0
 33 71  1  0  0  0  0
 33 77  2  0  0  0  0
 34 66  1  0  0  0  0
 34 72  1  0  0  0  0
 34 78  2  0  0  0  0
 35 38  1  0  0  0  0
 36 45  1  0  0  0  0
 37 65  1  0  0  0  0
 38 40  1  0  0  0  0
 39 41  1  0  0  0  0
 39 42  1  0  0  0  0
 40 44  1  0  0  0  0
 41 46  1  0  0  0  0
 42 66  1  0  0  0  0
 43 46  1  0  0  0  0
 43 66  1  0  0  0  0
 44 70  1  0  0  0  0
 45 65  1  0  0  0  0
 46 64  1  0  0  0  0
 47 57  1  0  0  0  0
 48 58  1  0  0  0  0
 49 60  1  0  0  0  0
 50 60  1  0  0  0  0
 51 60  1  0  0  0  0
 52 73  1  0  0  0  0
 53 72  1  0  0  0  0
 54 58  1  0  0  0  0
 54 59  1  0  0  0  0
 55 59  1  0  0  0  0
 55 81  1  0  0  0  0
 56 60  1  0  0  0  0
 56 71  1  0  0  0  0
 57 73  1  0  0  0  0
 58 69  1  0  0  0  0
 59 79  1  0  0  0  0
 61 64  1  0  0  0  0
 63 84  1  0  0  0  0
M  CHG  1  73   1
M  ISO  4  34 100  55 101  72 100  81 101
M  END
> <Batch ID>
0192

> <Smiles>
CNC(C)C(=O)NC(C(=O)N1Cc2cc([101O:1][101CH2:1]C(O)CC(C)Nc3nsc(C[100NH:0][100C:0](=O)N4CCCC(n5nc(-c6ccc(Oc7ccc(F)cc7F)cc6)c(C(N)=O)c5N)C4)n3)ccc2CC1C(=O)NC1CCCc2ccccc21)C(C)(C)C

> <Shape>
0.253

> <Color>
0.056

> <Negative vol penalty>
0.000

$$$$

  -OEChem-04052305273D

 90 98  0     1  0  0  0  0  0999 V2000
  -17.5411  -27.5899   20.2211 C   0  0  0  0  0  0  0  0  0  0  0  0
  -18.6784  -27.9502   19.5054 C   0  0  0  0  0  0  0  0  0  0  0  0
  -23.1198   -9.7713   20.1565 C   0  0  0  0  0  0  0  0  0  0  0  0
  -23.7556  -10.1040   22.4635 C   0  0  0  0  0  0  0  0  0  0  0  0
  -17.4628  -27.8619   21.5863 C   0  0  0  0  0  0  0  0  0  0  0  0
  -19.7376  -28.5837   20.1543 C   0  0  0  0  0  0  0  0  0  0  0  0
  -26.3364  -25.6947   20.1725 C   0  0  0  0  0  0  0  0  0  0  0  0
  -22.3948   -8.6365   20.5200 C   0  0  0  0  0  0  0  0  0  0  0  0
  -23.0305   -8.9692   22.8270 C   0  0  0  0  0  0  0  0  0  0  0  0
  -27.6718  -25.3125   20.0424 C   0  0  0  0  0  0  0  0  0  0  0  0
  -23.4396   -5.6145   22.7298 C   0  0  0  0  0  0  0  0  0  0  0  0
  -24.0431   -4.7133   23.6068 C   0  0  0  0  0  0  0  0  0  0  0  0
  -28.3477  -27.1543   21.4563 C   0  0  0  0  0  0  0  0  0  0  0  0
  -22.2489   -5.0517   25.1890 C   0  0  0  0  0  0  0  0  0  0  0  0
  -29.4488  -18.1443   22.1953 C   0  0  0  0  0  0  0  0  0  0  0  0
  -23.8003  -10.5051   21.1282 C   0  0  0  0  0  0  0  0  0  0  0  0
  -24.0804  -13.0028   20.6917 C   0  0  0  0  0  0  0  0  0  0  0  0
  -18.5255  -28.4904   22.2543 C   0  0  0  0  0  0  0  0  0  0  0  0
  -25.9998  -26.8003   20.9585 C   0  0  0  0  0  0  0  0  0  0  0  0
  -19.6728  -28.8656   21.5295 C   0  0  0  0  0  0  0  0  0  0  0  0
  -27.0107  -27.5343   21.6004 C   0  0  0  0  0  0  0  0  0  0  0  0
  -22.3501   -8.2355   21.8552 C   0  0  0  0  0  0  0  0  0  0  0  0
  -28.6749  -26.0407   20.6825 C   0  0  0  0  0  0  0  0  0  0  0  0
  -22.2408   -6.2344   23.0824 C   0  0  0  0  0  0  0  0  0  0  0  0
  -23.4477   -4.4318   24.8364 C   0  0  0  0  0  0  0  0  0  0  0  0
  -21.6454   -5.9530   24.3120 C   0  0  0  0  0  0  0  0  0  0  0  0
  -24.5499  -11.6771   20.7533 C   0  0  0  0  0  0  0  0  0  0  0  0
  -31.8848  -18.9529   21.4607 C   0  0  0  0  0  0  0  0  0  0  0  0
  -30.3095  -17.2966   21.5334 C   0  0  0  0  0  0  0  0  0  0  0  0
  -31.0237  -19.8007   22.1219 C   0  0  0  0  0  0  0  0  0  0  0  0
  -25.1699  -13.7345   20.2868 C   0  0  0  0  0  0  0  0  0  0  0  0
  -22.7760  -13.5261   20.9753 C   0  0  0  0  0  0  0  0  0  0  0  0
  -23.2800  -28.9974   22.3192 C   0  0  0  0  0  0  0  0  0  0  0  0
  -25.3044  -28.5781   24.5856 C   0  0  0  0  0  0  0  0  0  0  0  0
  -27.5471  -27.5284   26.9320 C   0  0  0  0  0  0  0  0  0  0  0  0
  -30.5890  -14.9769   20.5915 C   0  0  0  0  0  0  0  0  0  0  0  0
  -18.3755  -28.8064   23.7214 C   0  0  0  0  0  0  0  0  0  0  0  0
  -24.5803  -27.2847   21.0771 C   0  0  0  0  0  0  0  0  0  0  0  0
  -26.6050  -28.7372   22.4076 C   0  0  0  0  0  0  0  0  0  0  0  0
  -19.6955  -29.1434   24.4100 C   0  0  0  0  0  0  0  0  0  0  0  0
  -29.6678  -12.2377   18.5118 C   0  0  0  0  0  0  0  0  0  0  0  0
  -20.4991  -30.1308   23.5697 C   0  0  0  0  0  0  0  0  0  0  0  0
  -28.2156  -11.9567   18.9045 C   0  0  0  0  0  0  0  0  0  0  0  0
  -30.5109  -12.6525   19.7163 C   0  0  0  0  0  0  0  0  0  0  0  0
  -28.5142  -13.4871   20.8933 C   0  0  0  0  0  0  0  0  0  0  0  0
  -20.8528  -29.5321   22.2030 C   0  0  1  0  0  0  0  0  0  0  0  0
  -24.2550  -27.8661   22.4646 C   0  0  1  0  0  0  0  0  0  0  0  0
  -27.6107  -13.1286   19.7022 C   0  0  2  0  0  0  0  0  0  0  0  0
  -33.4360  -19.3515   19.5143 C   0  0  0  0  0  0  0  0  0  0  0  0
  -34.3621  -18.5687   21.7244 C   0  0  0  0  0  0  0  0  0  0  0  0
  -28.1234  -27.7872   29.3606 C   0  0  0  0  0  0  0  0  0  0  0  0
  -29.9323  -21.9053   26.5218 C   0  0  0  0  0  0  0  0  0  0  0  0
  -32.2845  -21.4500   27.2448 C   0  0  0  0  0  0  0  0  0  0  0  0
  -32.1358  -25.7026   21.5995 C   0  0  0  0  0  0  0  0  0  0  0  0
  -26.4887  -31.3290   24.0077 C   0  0  0  0  0  0  0  0  0  0  0  0
  -27.8317  -31.1140   26.1097 C   0  0  0  0  0  0  0  0  0  0  0  0
  -25.3396  -31.1314   26.2201 C   0  0  0  0  0  0  0  0  0  0  0  0
  -27.1437  -24.6434   27.4545 C   0  0  0  0  0  0  0  0  0  0  0  0
  -31.1703  -23.3411   23.3081 C   0  0  0  0  0  0  0  0  0  0  0  0
  -30.4510  -23.8307   22.0451 C   0  0  0  0  0  0  0  0  0  0  0  0
  -31.7266  -21.3273   24.7985 C   0  0  0  0  0  0  0  0  0  0  0  0
  -33.2491  -19.3871   21.0430 C   0  0  0  0  0  0  0  0  0  0  0  0
  -26.5255  -29.0957   25.3027 C   0  0  1  0  0  0  0  0  0  0  0  0
  -27.3552  -26.9726   28.3315 C   0  0  2  0  0  0  0  0  0  0  0  0
  -31.4053  -22.0300   26.1325 C   0  0  0  0  0  0  0  0  0  0  0  0
  -30.9641  -21.8384   23.5607 C   0  0  2  0  0  0  0  0  0  0  0  0
  -30.6704  -25.3208   21.7594 C   0  0  2  0  0  0  0  0  0  1  0  0
  -26.5484  -30.6479   25.3895 C   0  0  0  0  0  0  0  0  0  0  0  0
  -29.7904  -19.4116   22.5014 N   0  0  0  0  0  0  0  0  0  0  0  0
  -25.8374  -11.5698   20.4145 N   0  0  0  0  0  0  0  0  0  0  0  0
  -31.5430  -17.6857   21.1543 N   0  0  0  0  0  0  0  0  0  0  0  0
  -26.1862  -12.8375   20.1360 N   0  0  0  0  0  0  0  0  0  0  0  0
  -25.4018  -28.4301   23.1967 N   0  0  0  0  0  0  0  0  0  0  0  0
  -29.8785  -13.7700   20.4206 N   0  0  0  0  0  0  0  0  0  0  0  0
  -25.3482  -15.0512   20.0485 N   0  0  0  0  0  0  0  0  0  0  0  0
  -21.7722  -12.6355   21.3796 N   0  0  0  0  0  0  0  0  0  0  0  0
  -29.8743  -15.9789   21.2471 N   0  0  0  0  0  0  0  0  0  0  0  0
  -31.4314  -21.0888   22.4078 N   0  0  0  0  0  0  0  0  0  0  0  0
  -21.9556  -28.6033   22.3282 N   0  0  0  0  0  0  0  0  0  0  0  0
  -26.5537  -28.4243   26.5976 N   0  0  0  0  0  0  0  0  0  0  0  0
  -27.8312  -25.5619   28.3983 N   0  3  0  0  0  0  0  0  0  0  0  0
  -22.5042  -14.7450   20.8573 O   0  0  0  0  0  0  0  0  0  0  0  0
  -23.6974  -30.1442   22.2084 O   0  0  0  0  0  0  0  0  0  0  0  0
  -24.2885  -28.3168   25.2360 O   0  0  0  0  0  0  0  0  0  0  0  0
  -28.4865  -27.2035   26.2092 O   0  0  0  0  0  0  0  0  0  0  0  0
  -31.7366  -15.1207   20.1620 O   0  0  0  0  0  0  0  0  0  0  0  0
  -21.6425   -7.1283   22.2102 O   0  0  0  0  0  0  0  0  0  0  0  0
  -29.9826  -25.6576   20.5542 O   0  0  0  0  0  0  0  0  0  1  0  0
  -24.0265   -3.5652   25.6779 F   0  0  0  0  0  0  0  0  0  0  0  0
  -20.4931   -6.5445   24.6558 F   0  0  0  0  0  0  0  0  0  0  0  0
  1  2  1  0  0  0  0
  1  5  2  0  0  0  0
  2  6  2  0  0  0  0
  3  8  2  0  0  0  0
  3 16  1  0  0  0  0
  4  9  1  0  0  0  0
  4 16  2  0  0  0  0
  5 18  1  0  0  0  0
  6 20  1  0  0  0  0
  7 10  2  0  0  0  0
  7 19  1  0  0  0  0
  8 22  1  0  0  0  0
  9 22  2  0  0  0  0
 10 23  1  0  0  0  0
 11 12  2  0  0  0  0
 11 24  1  0  0  0  0
 12 25  1  0  0  0  0
 13 21  1  0  0  0  0
 13 23  2  0  0  0  0
 14 25  2  0  0  0  0
 14 26  1  0  0  0  0
 15 29  1  0  0  0  0
 15 69  2  0  0  0  0
 16 27  1  0  0  0  0
 17 27  1  0  0  0  0
 17 31  2  0  0  0  0
 17 32  1  0  0  0  0
 18 20  2  0  0  0  0
 18 37  1  0  0  0  0
 19 21  2  0  0  0  0
 19 38  1  0  0  0  0
 20 46  1  0  0  0  0
 21 39  1  0  0  0  0
 22 87  1  0  0  0  0
 23 88  1  0  0  0  0
 24 26  2  0  0  0  0
 24 87  1  0  0  0  0
 25 89  1  0  0  0  0
 26 90  1  0  0  0  0
 27 70  2  0  0  0  0
 28 30  2  0  0  0  0
 28 62  1  0  0  0  0
 28 71  1  0  0  0  0
 29 71  2  0  0  0  0
 29 77  1  0  0  0  0
 30 69  1  0  0  0  0
 30 78  1  0  0  0  0
 31 72  1  0  0  0  0
 31 75  1  0  0  0  0
 32 76  1  0  0  0  0
 32 82  2  0  0  0  0
 33 47  1  0  0  0  0
 33 79  1  0  0  0  0
 33 83  2  0  0  0  0
 34 63  1  0  0  0  0
 34 73  1  0  0  0  0
 34 84  2  0  0  0  0
 35 64  1  0  0  0  0
 35 80  1  0  0  0  0
 35 85  2  0  0  0  0
 36 74  1  0  0  0  0
 36 77  1  0  0  0  0
 36 86  2  0  0  0  0
 37 40  1  0  0  0  0
 38 47  1  0  0  0  0
 39 73  1  0  0  0  0
 40 42  1  0  0  0  0
 41 43  1  0  0  0  0
 41 44  1  0  0  0  0
 42 46  1  0  0  0  0
 43 48  1  0  0  0  0
 44 74  1  0  0  0  0
 45 48  1  0  0  0  0
 45 74  1  0  0  0  0
 46 79  1  0  0  0  0
 47 73  1  0  0  0  0
 48 72  1  0  0  0  0
 49 62  1  0  0  0  0
 50 62  1  0  0  0  0
 51 64  1  0  0  0  0
 52 65  1  0  0  0  0
 53 65  1  0  0  0  0
 54 67  1  0  0  0  0
 55 68  1  0  0  0  0
 56 68  1  0  0  0  0
 57 68  1  0  0  0  0
 58 81  1  0  0  0  0
 59 60  1  0  0  0  0
 59 66  1  0  0  0  0
 60 67  1  0  0  0  0
 61 65  1  0  0  0  0
 61 66  1  0  0  0  0
 63 68  1  0  0  0  0
 63 80  1  0  0  0  0
 64 81  1  0  0  0  0
 66 78  1  0  0  0  0
 67 88  1  0  0  0  0
 70 72  1  0  0  0  0
M  CHG  1  81   1
M  ISO  4  36 100  67 101  77 100  88 101
M  END
> <Batch ID>
0192

> <Smiles>
CNC(C)C(=O)NC(C(=O)N1Cc2cc([101O:1][101CH:1](C)CCC(CC(C)C)Nc3ncc([100NH:0][100C:0](=O)N4CCCC(n5nc(-c6ccc(Oc7ccc(F)cc7F)cc6)c(C(N)=O)c5N)C4)nc3C(C)C)ccc2CC1C(=O)NC1CCCc2ccccc21)C(C)(C)C

> <Shape>
0.313

> <Color>
0.211

> <Negative vol penalty>
0.000

$$$$

  -OEChem-04052305273D

 90 98  0     1  0  0  0  0  0999 V2000
  -28.9842  -34.1327   26.5588 C   0  0  0  0  0  0  0  0  0  0  0  0
  -28.8298  -32.8554   26.0296 C   0  0  0  0  0  0  0  0  0  0  0  0
  -24.6172   -9.1824   21.6524 C   0  0  0  0  0  0  0  0  0  0  0  0
  -23.9257  -10.8326   23.2758 C   0  0  0  0  0  0  0  0  0  0  0  0
  -27.8913  -34.9960   26.6236 C   0  0  0  0  0  0  0  0  0  0  0  0
  -27.5820  -32.4402   25.5659 C   0  0  0  0  0  0  0  0  0  0  0  0
  -27.8607  -30.0625   21.1034 C   0  0  0  0  0  0  0  0  0  0  0  0
  -24.2064   -8.1640   22.5125 C   0  0  0  0  0  0  0  0  0  0  0  0
  -23.5148   -9.8143   24.1359 C   0  0  0  0  0  0  0  0  0  0  0  0
  -28.2899  -28.7360   21.1144 C   0  0  0  0  0  0  0  0  0  0  0  0
  -21.3000   -6.6996   23.4298 C   0  0  0  0  0  0  0  0  0  0  0  0
  -20.5610   -5.6497   22.8849 C   0  0  0  0  0  0  0  0  0  0  0  0
  -25.9989  -27.9997   20.9456 C   0  0  0  0  0  0  0  0  0  0  0  0
  -22.2650   -4.0867   23.5853 C   0  0  0  0  0  0  0  0  0  0  0  0
  -24.4770  -10.5167   22.0341 C   0  0  0  0  0  0  0  0  0  0  0  0
  -24.1295  -12.2142   20.1618 C   0  0  0  0  0  0  0  0  0  0  0  0
  -26.6317  -34.5946   26.1515 C   0  0  0  0  0  0  0  0  0  0  0  0
  -26.4944  -30.3679   21.0242 C   0  0  0  0  0  0  0  0  0  0  0  0
  -26.4709  -33.2985   25.6256 C   0  0  0  0  0  0  0  0  0  0  0  0
  -25.5552  -29.3309   20.9311 C   0  0  0  0  0  0  0  0  0  0  0  0
  -23.6551   -8.4800   23.7542 C   0  0  0  0  0  0  0  0  0  0  0  0
  -27.3588  -27.7044   21.0384 C   0  0  0  0  0  0  0  0  0  0  0  0
  -22.5216   -6.4432   24.0524 C   0  0  0  0  0  0  0  0  0  0  0  0
  -21.0434   -4.3432   22.9626 C   0  0  0  0  0  0  0  0  0  0  0  0
  -23.0041   -5.1367   24.1302 C   0  0  0  0  0  0  0  0  0  0  0  0
  -24.9018  -11.5690   21.1463 C   0  0  0  0  0  0  0  0  0  0  0  0
  -24.9857  -13.1285   19.5984 C   0  0  0  0  0  0  0  0  0  0  0  0
  -28.1863  -20.8880   18.4339 C   0  0  0  0  0  0  0  0  0  0  0  0
  -27.4743  -18.9867   19.2173 C   0  0  0  0  0  0  0  0  0  0  0  0
  -22.7606  -12.0057   19.7900 C   0  0  0  0  0  0  0  0  0  0  0  0
  -24.4180  -31.8664   22.9076 C   0  0  0  0  0  0  0  0  0  0  0  0
  -22.4264  -31.4604   20.3796 C   0  0  0  0  0  0  0  0  0  0  0  0
  -21.6405  -29.6991   17.5640 C   0  0  0  0  0  0  0  0  0  0  0  0
  -28.8856  -17.0761   20.0565 C   0  0  0  0  0  0  0  0  0  0  0  0
  -25.4692  -35.5461   26.2858 C   0  0  0  0  0  0  0  0  0  0  0  0
  -26.0494  -31.8042   20.9865 C   0  0  0  0  0  0  0  0  0  0  0  0
  -24.0782  -29.6059   20.8241 C   0  0  0  0  0  0  0  0  0  0  0  0
  -24.2657  -35.1621   25.4288 C   0  0  0  0  0  0  0  0  0  0  0  0
  -29.9919  -13.6920   20.0904 C   0  0  0  0  0  0  0  0  0  0  0  0
  -23.9606  -33.6745   25.5728 C   0  0  0  0  0  0  0  0  0  0  0  0
  -28.7027  -12.8911   20.2871 C   0  0  0  0  0  0  0  0  0  0  0  0
  -29.9735  -14.9994   20.8804 C   0  0  0  0  0  0  0  0  0  0  0  0
  -27.5107  -15.0493   20.8423 C   0  0  0  0  0  0  0  0  0  0  0  0
  -25.1389  -32.8204   25.0895 C   0  0  1  0  0  0  0  0  0  0  0  0
  -24.5993  -31.9921   21.4213 C   0  0  1  0  0  0  0  0  0  0  0  0
  -27.4556  -13.7548   20.0147 C   0  0  2  0  0  0  0  0  0  0  0  0
  -27.4809  -24.2098   15.4179 C   0  0  0  0  0  0  0  0  0  0  0  0
  -19.9339  -29.5785   15.7281 C   0  0  0  0  0  0  0  0  0  0  0  0
  -30.2167  -23.1919   14.3397 C   0  0  0  0  0  0  0  0  0  0  0  0
  -28.1247  -23.8254   22.3545 C   0  0  0  0  0  0  0  0  0  0  0  0
  -30.5452  -20.8841   16.2170 C   0  0  0  0  0  0  0  0  0  0  0  0
  -31.2666  -22.3681   21.0252 C   0  0  0  0  0  0  0  0  0  0  0  0
  -20.4495  -30.1599   22.3059 C   0  0  0  0  0  0  0  0  0  0  0  0
  -19.2359  -29.2305   20.3230 C   0  0  0  0  0  0  0  0  0  0  0  0
  -19.4133  -31.6997   20.6297 C   0  0  0  0  0  0  0  0  0  0  0  0
  -23.6757  -30.2220   15.4799 C   0  0  0  0  0  0  0  0  0  0  0  0
  -28.8513  -24.4621   16.0319 C   0  0  0  0  0  0  0  0  0  0  0  0
  -29.5480  -24.0758   20.3048 C   0  0  0  0  0  0  0  0  0  0  0  0
  -28.9760  -26.1185   21.7635 C   0  0  0  0  0  0  0  0  0  1  0  0
  -29.0668  -22.0386   17.9710 C   0  0  2  0  0  0  0  0  0  0  0  0
  -21.4607  -30.3860   19.9411 C   0  0  1  0  0  0  0  0  0  0  0  0
  -21.2739  -30.1519   16.1622 C   0  0  2  0  0  0  0  0  0  0  0  0
  -29.8791  -23.3230   15.8350 C   0  0  1  0  0  0  0  0  0  0  0  0
  -29.2812  -24.6155   21.7280 C   0  0  1  0  0  0  0  0  0  0  0  0
  -29.4562  -21.9486   16.4605 C   0  0  1  0  0  0  0  0  0  0  0  0
  -29.9977  -22.6114   20.2169 C   0  0  1  0  0  0  0  0  0  0  0  0
  -20.1675  -30.3635   20.8039 C   0  0  0  0  0  0  0  0  0  0  0  0
  -26.1525  -12.0339   21.2072 N   0  0  0  0  0  0  0  0  0  0  0  0
  -28.5987  -19.7406   18.9265 N   0  0  0  0  0  0  0  0  0  0  0  0
  -26.2524  -19.4659   18.9850 N   0  0  0  0  0  0  0  0  0  0  0  0
  -26.1726  -12.9809   20.2538 N   0  0  0  0  0  0  0  0  0  0  0  0
  -23.6924  -31.0264   20.7974 N   0  0  0  0  0  0  0  0  0  0  0  0
  -28.7657  -15.7667   20.5681 N   0  0  0  0  0  0  0  0  0  0  0  0
  -24.8315  -14.0362   18.6111 N   0  0  0  0  0  0  0  0  0  0  0  0
  -22.0250  -11.0263   20.4711 N   0  0  0  0  0  0  0  0  0  0  0  0
  -27.6702  -17.6952   19.7664 N   0  0  0  0  0  0  0  0  0  0  0  0
  -25.1646  -32.7666   23.6436 N   0  0  0  0  0  0  0  0  0  0  0  0
  -21.2258  -30.6044   18.5179 N   0  0  0  0  0  0  0  0  0  0  0  0
  -22.3116  -29.7111   15.1876 N   0  3  0  0  0  0  0  0  0  0  0  0
  -30.2815  -22.2520   18.8001 N   0  3  0  0  0  0  0  0  0  0  0  0
  -22.2109  -12.6570   18.8695 O   0  0  0  0  0  0  0  0  0  0  0  0
  -23.6561  -31.0166   23.3536 O   0  0  0  0  0  0  0  0  0  0  0  0
  -22.0728  -32.6417   20.3457 O   0  0  0  0  0  0  0  0  0  0  0  0
  -22.2319  -28.6458   17.7906 O   0  0  0  0  0  0  0  0  0  0  0  0
  -29.9861  -17.5988   19.8625 O   0  0  0  0  0  0  0  0  0  0  0  0
  -23.2538   -7.4866   24.5936 O   0  0  0  0  0  0  0  0  0  0  0  0
  -27.7749  -26.4088   21.0496 O   0  0  0  0  0  0  0  0  0  1  0  0
  -20.3328   -3.3349   22.4407 F   0  0  0  0  0  0  0  0  0  0  0  0
  -24.1765   -4.8840   24.7281 F   0  0  0  0  0  0  0  0  0  0  0  0
  -26.4760  -20.9966   18.3465 S   0  0  0  0  0  0  0  0  0  0  0  0
  1  2  1  0  0  0  0
  1  5  2  0  0  0  0
  2  6  2  0  0  0  0
  3  8  2  0  0  0  0
  3 15  1  0  0  0  0
  4  9  1  0  0  0  0
  4 15  2  0  0  0  0
  5 17  1  0  0  0  0
  6 19  1  0  0  0  0
  7 10  2  0  0  0  0
  7 18  1  0  0  0  0
  8 21  1  0  0  0  0
  9 21  2  0  0  0  0
 10 22  1  0  0  0  0
 11 12  2  0  0  0  0
 11 23  1  0  0  0  0
 12 24  1  0  0  0  0
 13 20  1  0  0  0  0
 13 22  2  0  0  0  0
 14 24  2  0  0  0  0
 14 25  1  0  0  0  0
 15 26  1  0  0  0  0
 16 26  1  0  0  0  0
 16 27  2  0  0  0  0
 16 30  1  0  0  0  0
 17 19  2  0  0  0  0
 17 35  1  0  0  0  0
 18 20  2  0  0  0  0
 18 36  1  0  0  0  0
 19 44  1  0  0  0  0
 20 37  1  0  0  0  0
 21 86  1  0  0  0  0
 22 87  1  0  0  0  0
 23 25  2  0  0  0  0
 23 86  1  0  0  0  0
 24 88  1  0  0  0  0
 25 89  1  0  0  0  0
 26 68  2  0  0  0  0
 27 71  1  0  0  0  0
 27 74  1  0  0  0  0
 28 60  1  0  0  0  0
 28 69  2  0  0  0  0
 28 90  1  0  0  0  0
 29 69  1  0  0  0  0
 29 70  2  0  0  0  0
 29 76  1  0  0  0  0
 30 75  1  0  0  0  0
 30 81  2  0  0  0  0
 31 45  1  0  0  0  0
 31 77  1  0  0  0  0
 31 82  2  0  0  0  0
 32 61  1  0  0  0  0
 32 72  1  0  0  0  0
 32 83  2  0  0  0  0
 33 62  1  0  0  0  0
 33 78  1  0  0  0  0
 33 84  2  0  0  0  0
 34 73  1  0  0  0  0
 34 76  1  0  0  0  0
 34 85  2  0  0  0  0
 35 38  1  0  0  0  0
 36 45  1  0  0  0  0
 37 72  1  0  0  0  0
 38 40  1  0  0  0  0
 39 41  1  0  0  0  0
 39 42  1  0  0  0  0
 40 44  1  0  0  0  0
 41 46  1  0  0  0  0
 42 73  1  0  0  0  0
 43 46  1  0  0  0  0
 43 73  1  0  0  0  0
 44 77  1  0  0  0  0
 45 72  1  0  0  0  0
 46 71  1  0  0  0  0
 47 57  1  0  0  0  0
 48 62  1  0  0  0  0
 49 63  1  0  0  0  0
 50 64  1  0  0  0  0
 51 65  1  0  0  0  0
 52 66  1  0  0  0  0
 53 67  1  0  0  0  0
 54 67  1  0  0  0  0
 55 67  1  0  0  0  0
 56 79  1  0  0  0  0
 57 63  1  0  0  0  0
 58 64  1  0  0  0  0
 58 66  1  0  0  0  0
 59 64  1  0  0  0  0
 59 87  1  0  0  0  0
 60 65  1  0  0  0  0
 60 80  1  0  0  0  0
 61 67  1  0  0  0  0
 61 78  1  0  0  0  0
 62 79  1  0  0  0  0
 63 65  1  0  0  0  0
 66 80  1  0  0  0  0
 68 71  1  0  0  0  0
 70 90  1  0  0  0  0
M  CHG  2  79   1  80   1
M  ISO  4  34 100  59 101  76 100  87 101
M  END
> <Batch ID>
0192

> <Smiles>
CCC(C)C(C)C(NC(C)CC(C)[101CH2:1][101O:1]c1ccc2c(c1)CN(C(=O)C(NC(=O)C(C)NC)C(C)(C)C)C(C(=O)NC1CCCc3ccccc31)C2)c1nc([100NH:0][100C:0](=O)N2CCCC(n3nc(-c4ccc(Oc5ccc(F)cc5F)cc4)c(C(N)=O)c3N)C2)ns1

> <Shape>
0.300

> <Color>
0.085

> <Negative vol penalty>
0.000

$$$$

  -OEChem-04052305273D

 85 93  0     1  0  0  0  0  0999 V2000
  -20.3045  -27.2228   21.6475 C   0  0  0  0  0  0  0  0  0  0  0  0
  -21.4205  -26.6842   22.2799 C   0  0  0  0  0  0  0  0  0  0  0  0
  -27.0350  -29.9875   20.5847 C   0  0  0  0  0  0  0  0  0  0  0  0
  -25.4449  -28.2036   20.9404 C   0  0  0  0  0  0  0  0  0  0  0  0
  -19.1292  -26.4783   21.5565 C   0  0  0  0  0  0  0  0  0  0  0  0
  -21.3615  -25.4011   22.8226 C   0  0  0  0  0  0  0  0  0  0  0  0
  -25.4533  -22.6318   21.7120 C   0  0  0  0  0  0  0  0  0  0  0  0
  -25.9848  -30.8872   20.4021 C   0  0  0  0  0  0  0  0  0  0  0  0
  -24.3947  -29.1033   20.7578 C   0  0  0  0  0  0  0  0  0  0  0  0
  -26.6105  -22.8822   22.4482 C   0  0  0  0  0  0  0  0  0  0  0  0
  -21.2941  -31.0018   20.7425 C   0  0  0  0  0  0  0  0  0  0  0  0
  -20.2288  -30.9472   21.6411 C   0  0  0  0  0  0  0  0  0  0  0  0
  -26.1407  -20.9606   23.8287 C   0  0  0  0  0  0  0  0  0  0  0  0
  -21.7413  -31.4254   23.4634 C   0  0  0  0  0  0  0  0  0  0  0  0
  -27.7670  -18.6752   19.0470 C   0  0  0  0  0  0  0  0  0  0  0  0
  -26.7650  -28.6457   20.8538 C   0  0  0  0  0  0  0  0  0  0  0  0
  -28.4877  -27.3881   22.2532 C   0  0  0  0  0  0  0  0  0  0  0  0
  -19.0588  -25.1817   22.0899 C   0  0  0  0  0  0  0  0  0  0  0  0
  -24.6239  -21.5485   22.0361 C   0  0  0  0  0  0  0  0  0  0  0  0
  -20.1837  -24.6390   22.7398 C   0  0  0  0  0  0  0  0  0  0  0  0
  -24.9749  -20.6971   23.0935 C   0  0  0  0  0  0  0  0  0  0  0  0
  -24.6647  -30.4451   20.4887 C   0  0  0  0  0  0  0  0  0  0  0  0
  -26.9529  -22.0482   23.5085 C   0  0  0  0  0  0  0  0  0  0  0  0
  -22.5832  -31.2681   21.2043 C   0  0  0  0  0  0  0  0  0  0  0  0
  -20.4523  -31.1590   23.0016 C   0  0  0  0  0  0  0  0  0  0  0  0
  -22.8067  -31.4800   22.5647 C   0  0  0  0  0  0  0  0  0  0  0  0
  -27.8494  -27.7158   21.0420 C   0  0  0  0  0  0  0  0  0  0  0  0
  -28.3560  -19.9130   18.8951 C   0  0  0  0  0  0  0  0  0  0  0  0
  -29.4421  -26.4657   21.8997 C   0  0  0  0  0  0  0  0  0  0  0  0
  -28.8715  -19.5582   20.9971 C   0  0  0  0  0  0  0  0  0  0  0  0
  -28.2401  -27.8738   23.5792 C   0  0  0  0  0  0  0  0  0  0  0  0
  -21.6097  -21.2400   22.9969 C   0  0  0  0  0  0  0  0  0  0  0  0
  -22.2274  -18.0763   22.6343 C   0  0  0  0  0  0  0  0  0  0  0  0
  -24.5415  -15.5704   22.5218 C   0  0  0  0  0  0  0  0  0  0  0  0
  -29.9099  -22.6310   17.3251 C   0  0  0  0  0  0  0  0  0  0  0  0
  -17.7518  -24.4334   22.0088 C   0  0  0  0  0  0  0  0  0  0  0  0
  -23.3932  -21.2764   21.2154 C   0  0  0  0  0  0  0  0  0  0  0  0
  -24.1290  -19.5089   23.4691 C   0  0  0  0  0  0  0  0  0  0  0  0
  -17.8886  -22.9373   22.2798 C   0  0  0  0  0  0  0  0  0  0  0  0
  -32.2272  -25.1786   18.2285 C   0  0  0  0  0  0  0  0  0  0  0  0
  -18.7473  -22.6953   23.5171 C   0  0  0  0  0  0  0  0  0  0  0  0
  -31.4256  -26.0882   19.1613 C   0  0  0  0  0  0  0  0  0  0  0  0
  -31.3616  -24.6254   17.0986 C   0  0  0  0  0  0  0  0  0  0  0  0
  -29.3279  -24.8543   18.4716 C   0  0  0  0  0  0  0  0  0  0  0  0
  -20.1665  -23.2411   23.3191 C   0  0  1  0  0  0  0  0  0  0  0  0
  -22.3509  -20.4464   21.9585 C   0  0  1  0  0  0  0  0  0  0  0  0
  -30.1447  -25.3919   19.6591 C   0  0  2  0  0  0  0  0  0  0  0  0
  -25.4519  -13.2546   22.1974 C   0  0  0  0  0  0  0  0  0  0  0  0
  -29.3112  -20.0802   27.0460 C   0  0  0  0  0  0  0  0  0  0  0  0
  -29.3877  -22.5816   26.8500 C   0  0  0  0  0  0  0  0  0  0  0  0
  -31.5507  -20.8145   22.1111 C   0  0  0  0  0  0  0  0  0  0  0  0
  -21.2628  -17.6870   25.5028 C   0  0  0  0  0  0  0  0  0  0  0  0
  -22.3544  -15.4339   25.4903 C   0  0  0  0  0  0  0  0  0  0  0  0
  -20.4992  -15.9278   23.8975 C   0  0  0  0  0  0  0  0  0  0  0  0
  -24.9723  -16.0198   19.6285 C   0  0  0  0  0  0  0  0  0  0  0  0
  -28.3642  -20.7180   17.6575 C   0  0  0  0  0  0  0  0  0  0  0  0
  -30.1451  -21.0591   24.1933 C   0  0  0  0  0  0  0  0  0  0  0  0
  -22.7662  -16.9832   23.5253 C   0  0  1  0  0  0  0  0  0  0  0  0
  -24.7440  -14.4296   21.5410 C   0  0  2  0  0  0  0  0  0  0  0  0
  -28.7126  -21.3020   26.3479 C   0  0  0  0  0  0  0  0  0  0  0  0
  -30.1311  -20.9281   22.6591 C   0  0  2  0  0  0  0  0  0  0  0  0
  -28.7375  -21.1631   24.8076 C   0  0  1  0  0  0  0  0  0  1  0  0
  -21.7358  -16.5314   24.5984 C   0  0  0  0  0  0  0  0  0  0  0  0
  -28.3557  -27.0555   19.9972 N   0  0  0  0  0  0  0  0  0  0  0  0
  -28.9895  -20.4211   20.0124 N   0  0  0  0  0  0  0  0  0  0  0  0
  -29.3224  -26.3037   20.5508 N   0  0  0  0  0  0  0  0  0  0  0  0
  -22.9322  -19.2883   22.6406 N   0  0  0  0  0  0  0  0  0  0  0  0
  -30.1641  -23.9765   17.6379 N   0  0  0  0  0  0  0  0  0  0  0  0
  -30.3638  -25.7857   22.6142 N   0  0  0  0  0  0  0  0  0  0  0  0
  -27.2222  -28.8192   23.7652 N   0  0  0  0  0  0  0  0  0  0  0  0
  -29.3900  -19.7477   22.2654 N   0  0  0  0  0  0  0  0  0  0  0  0
  -20.9435  -22.3412   22.4939 N   0  0  0  0  0  0  0  0  0  0  0  0
  -23.2113  -15.9148   22.6371 N   0  0  0  0  0  0  0  0  0  0  0  0
  -28.7571  -22.0913   17.8823 N   0  0  0  0  0  0  0  0  0  0  0  0
  -25.5624  -14.8829   20.3810 N   0  3  0  0  0  0  0  0  0  0  0  0
  -28.9127  -27.4935   24.5673 O   0  0  0  0  0  0  0  0  0  0  0  0
  -21.6388  -20.8791   24.1677 O   0  0  0  0  0  0  0  0  0  0  0  0
  -21.2225  -17.8602   21.9524 O   0  0  0  0  0  0  0  0  0  0  0  0
  -25.4700  -16.1004   23.1281 O   0  0  0  0  0  0  0  0  0  0  0  0
  -30.6578  -21.9588   16.6070 O   0  0  0  0  0  0  0  0  0  0  0  0
  -23.6397  -31.3228   20.3108 O   0  0  0  0  0  0  0  0  0  0  0  0
  -28.0815  -22.2906   24.2291 O   0  0  0  0  0  0  0  0  0  1  0  0
  -19.4289  -31.1081   23.8642 F   0  0  0  0  0  0  0  0  0  0  0  0
  -24.0427  -31.7374   23.0141 F   0  0  0  0  0  0  0  0  0  0  0  0
  -28.0116  -18.1144   20.6492 S   0  0  0  0  0  0  0  0  0  0  0  0
  1  2  1  0  0  0  0
  1  5  2  0  0  0  0
  2  6  2  0  0  0  0
  3  8  2  0  0  0  0
  3 16  1  0  0  0  0
  4  9  1  0  0  0  0
  4 16  2  0  0  0  0
  5 18  1  0  0  0  0
  6 20  1  0  0  0  0
  7 10  2  0  0  0  0
  7 19  1  0  0  0  0
  8 22  1  0  0  0  0
  9 22  2  0  0  0  0
 10 23  1  0  0  0  0
 11 12  2  0  0  0  0
 11 24  1  0  0  0  0
 12 25  1  0  0  0  0
 13 21  1  0  0  0  0
 13 23  2  0  0  0  0
 14 25  2  0  0  0  0
 14 26  1  0  0  0  0
 15 28  2  0  0  0  0
 15 85  1  0  0  0  0
 16 27  1  0  0  0  0
 17 27  1  0  0  0  0
 17 29  2  0  0  0  0
 17 31  1  0  0  0  0
 18 20  2  0  0  0  0
 18 36  1  0  0  0  0
 19 21  2  0  0  0  0
 19 37  1  0  0  0  0
 20 45  1  0  0  0  0
 21 38  1  0  0  0  0
 22 81  1  0  0  0  0
 23 82  1  0  0  0  0
 24 26  2  0  0  0  0
 24 81  1  0  0  0  0
 25 83  1  0  0  0  0
 26 84  1  0  0  0  0
 27 64  2  0  0  0  0
 28 56  1  0  0  0  0
 28 65  1  0  0  0  0
 29 66  1  0  0  0  0
 29 69  1  0  0  0  0
 30 65  2  0  0  0  0
 30 71  1  0  0  0  0
 30 85  1  0  0  0  0
 31 70  1  0  0  0  0
 31 76  2  0  0  0  0
 32 46  1  0  0  0  0
 32 72  1  0  0  0  0
 32 77  2  0  0  0  0
 33 58  1  0  0  0  0
 33 67  1  0  0  0  0
 33 78  2  0  0  0  0
 34 59  1  0  0  0  0
 34 73  1  0  0  0  0
 34 79  2  0  0  0  0
 35 68  1  0  0  0  0
 35 74  1  0  0  0  0
 35 80  2  0  0  0  0
 36 39  1  0  0  0  0
 37 46  1  0  0  0  0
 38 67  1  0  0  0  0
 39 41  1  0  0  0  0
 40 42  1  0  0  0  0
 40 43  1  0  0  0  0
 41 45  1  0  0  0  0
 42 47  1  0  0  0  0
 43 68  1  0  0  0  0
 44 47  1  0  0  0  0
 44 68  1  0  0  0  0
 45 72  1  0  0  0  0
 46 67  1  0  0  0  0
 47 66  1  0  0  0  0
 48 59  1  0  0  0  0
 49 60  1  0  0  0  0
 50 60  1  0  0  0  0
 51 61  1  0  0  0  0
 52 63  1  0  0  0  0
 53 63  1  0  0  0  0
 54 63  1  0  0  0  0
 55 75  1  0  0  0  0
 56 74  1  0  0  0  0
 57 61  1  0  0  0  0
 57 62  1  0  0  0  0
 58 63  1  0  0  0  0
 58 73  1  0  0  0  0
 59 75  1  0  0  0  0
 60 62  1  0  0  0  0
 61 71  1  0  0  0  0
 62 82  1  0  0  0  0
 64 66  1  0  0  0  0
M  CHG  1  75   1
M  ISO  4  35 100  62 101  74 100  82 101
M  END
> <Batch ID>
0192

> <Smiles>
CNC(C)C(=O)NC(C(=O)N1Cc2cc([101O:1][101CH:1](CC(C)Nc3nc(C[100NH:0][100C:0](=O)N4CCCC(n5nc(-c6ccc(Oc7ccc(F)cc7F)cc6)c(C(N)=O)c5N)C4)cs3)C(C)C)ccc2CC1C(=O)NC1CCCc2ccccc21)C(C)(C)C

> <Shape>
0.196

> <Color>
0.057

> <Negative vol penalty>
0.000

$$$$

  -OEChem-04052305273D

 83 91  0     1  0  0  0  0  0999 V2000
  -32.0916  -15.3461   19.3740 C   0  0  0  0  0  0  0  0  0  0  0  0
  -31.1331  -16.3539   19.3415 C   0  0  0  0  0  0  0  0  0  0  0  0
  -28.1699  -24.8328   18.6385 C   0  0  0  0  0  0  0  0  0  0  0  0
  -26.0161  -23.8043   19.0127 C   0  0  0  0  0  0  0  0  0  0  0  0
  -31.6989  -14.0167   19.5233 C   0  0  0  0  0  0  0  0  0  0  0  0
  -29.7811  -16.0326   19.4573 C   0  0  0  0  0  0  0  0  0  0  0  0
  -25.4327  -19.3469   22.2165 C   0  0  0  0  0  0  0  0  0  0  0  0
  -28.7932  -23.6017   18.8418 C   0  0  0  0  0  0  0  0  0  0  0  0
  -26.6393  -22.5731   19.2159 C   0  0  0  0  0  0  0  0  0  0  0  0
  -24.4723  -20.2296   21.7245 C   0  0  0  0  0  0  0  0  0  0  0  0
  -30.9781  -20.8002   19.6175 C   0  0  0  0  0  0  0  0  0  0  0  0
  -32.1123  -20.7719   20.4288 C   0  0  0  0  0  0  0  0  0  0  0  0
  -22.8486  -18.4456   21.7106 C   0  0  0  0  0  0  0  0  0  0  0  0
  -30.8124  -21.6298   22.2759 C   0  0  0  0  0  0  0  0  0  0  0  0
  -26.7814  -24.9342   18.7240 C   0  0  0  0  0  0  0  0  0  0  0  0
  -25.6730  -26.7331   17.2947 C   0  0  0  0  0  0  0  0  0  0  0  0
  -30.3421  -13.6799   19.6507 C   0  0  0  0  0  0  0  0  0  0  0  0
  -25.1107  -18.0021   22.4494 C   0  0  0  0  0  0  0  0  0  0  0  0
  -29.3698  -14.6973   19.6072 C   0  0  0  0  0  0  0  0  0  0  0  0
  -23.8061  -17.5485   22.2080 C   0  0  0  0  0  0  0  0  0  0  0  0
  -28.0279  -22.4718   19.1305 C   0  0  0  0  0  0  0  0  0  0  0  0
  -23.1807  -19.7783   21.4687 C   0  0  0  0  0  0  0  0  0  0  0  0
  -29.7611  -21.2434   20.1352 C   0  0  0  0  0  0  0  0  0  0  0  0
  -32.0295  -21.1866   21.7580 C   0  0  0  0  0  0  0  0  0  0  0  0
  -29.6782  -21.6581   21.4644 C   0  0  0  0  0  0  0  0  0  0  0  0
  -26.1370  -26.2058   18.5147 C   0  0  0  0  0  0  0  0  0  0  0  0
  -19.7777  -28.0942   22.7390 C   0  0  0  0  0  0  0  0  0  0  0  0
  -18.4049  -28.1201   22.6091 C   0  0  0  0  0  0  0  0  0  0  0  0
  -25.1456  -27.9568   17.6279 C   0  0  0  0  0  0  0  0  0  0  0  0
  -19.4622  -26.0039   22.1552 C   0  0  0  0  0  0  0  0  0  0  0  0
  -25.7149  -26.1674   15.9779 C   0  0  0  0  0  0  0  0  0  0  0  0
  -26.1229  -15.2202   21.2915 C   0  0  0  0  0  0  0  0  0  0  0  0
  -24.1844  -14.0021   23.5895 C   0  0  0  0  0  0  0  0  0  0  0  0
  -21.4879  -14.4377   25.6354 C   0  0  0  0  0  0  0  0  0  0  0  0
  -22.8927  -30.1781   22.7113 C   0  0  0  0  0  0  0  0  0  0  0  0
  -29.9629  -12.2244   19.7626 C   0  0  0  0  0  0  0  0  0  0  0  0
  -26.1510  -17.0688   23.0055 C   0  0  0  0  0  0  0  0  0  0  0  0
  -23.4041  -16.1191   22.4604 C   0  0  0  0  0  0  0  0  0  0  0  0
  -28.5350  -12.0032   20.2549 C   0  0  0  0  0  0  0  0  0  0  0  0
  -25.6092  -31.4901   20.8203 C   0  0  0  0  0  0  0  0  0  0  0  0
  -27.5656  -12.9138   19.5079 C   0  0  0  0  0  0  0  0  0  0  0  0
  -26.0106  -30.3322   19.9049 C   0  0  0  0  0  0  0  0  0  0  0  0
  -25.1740  -30.9957   22.1980 C   0  0  0  0  0  0  0  0  0  0  0  0
  -24.5170  -28.8108   21.2662 C   0  0  0  0  0  0  0  0  0  0  0  0
  -27.8952  -14.3910   19.7545 C   0  0  1  0  0  0  0  0  0  0  0  0
  -25.8508  -15.6007   22.7194 C   0  0  1  0  0  0  0  0  0  0  0  0
  -24.9102  -29.2556   19.8471 C   0  0  2  0  0  0  0  0  0  0  0  0
  -17.4514  -29.2298   22.8083 C   0  0  0  0  0  0  0  0  0  0  0  0
  -20.1232  -13.2512   27.3752 C   0  0  0  0  0  0  0  0  0  0  0  0
  -22.8454  -12.3448   21.4054 C   0  0  0  0  0  0  0  0  0  0  0  0
  -20.9429  -11.9343   22.9803 C   0  0  0  0  0  0  0  0  0  0  0  0
  -23.2312  -11.1231   23.5533 C   0  0  0  0  0  0  0  0  0  0  0  0
  -22.1343  -16.4654   27.6920 C   0  0  0  0  0  0  0  0  0  0  0  0
  -20.6358  -29.2328   23.1258 C   0  0  0  0  0  0  0  0  0  0  0  0
  -21.0470  -24.1074   21.8127 C   0  0  0  0  0  0  0  0  0  0  0  0
  -22.3643  -22.0094   21.3613 C   0  0  0  0  0  0  0  0  0  1  0  0
  -22.7312  -13.5992   23.6592 C   0  0  1  0  0  0  0  0  0  0  0  0
  -21.2980  -14.1824   27.1197 C   0  0  2  0  0  0  0  0  0  0  0  0
  -20.9770  -22.6417   21.3886 C   0  0  1  0  0  0  0  0  0  0  0  0
  -22.4455  -12.2769   22.8928 C   0  0  0  0  0  0  0  0  0  0  0  0
  -25.9233  -27.0273   19.5460 N   0  0  0  0  0  0  0  0  0  0  0  0
  -20.3857  -26.8815   22.4794 N   0  0  0  0  0  0  0  0  0  0  0  0
  -25.3193  -28.0832   18.9747 N   0  0  0  0  0  0  0  0  0  0  0  0
  -24.4584  -15.2437   22.9985 N   0  0  0  0  0  0  0  0  0  0  0  0
  -24.1278  -29.9780   22.0729 N   0  0  0  0  0  0  0  0  0  0  0  0
  -24.5550  -28.9262   16.8973 N   0  0  0  0  0  0  0  0  0  0  0  0
  -26.2919  -24.9008   15.8129 N   0  0  0  0  0  0  0  0  0  0  0  0
  -19.7207  -24.6826   21.8319 N   0  0  0  0  0  0  0  0  0  0  0  0
  -27.4197  -14.8043   21.0574 N   0  0  0  0  0  0  0  0  0  0  0  0
  -22.3874  -13.5548   25.0763 N   0  0  0  0  0  0  0  0  0  0  0  0
  -21.9546  -29.1681   22.5365 N   0  0  0  0  0  0  0  0  0  0  0  0
  -21.0467  -15.4639   27.8377 N   0  3  0  0  0  0  0  0  0  0  0  0
  -25.2691  -26.7743   14.9747 O   0  0  0  0  0  0  0  0  0  0  0  0
  -25.2226  -15.2969   20.4637 O   0  0  0  0  0  0  0  0  0  0  0  0
  -25.0442  -13.2463   24.0491 O   0  0  0  0  0  0  0  0  0  0  0  0
  -20.8945  -15.3286   25.0315 O   0  0  0  0  0  0  0  0  0  0  0  0
  -22.6425  -31.1850   23.3825 O   0  0  0  0  0  0  0  0  0  0  0  0
  -20.1881  -21.9184   22.3356 O   0  0  0  0  0  0  0  0  0  0  0  0
  -28.6357  -21.2702   19.3286 O   0  0  0  0  0  0  0  0  0  0  0  0
  -22.2415  -20.6377   20.9878 O   0  0  0  0  0  0  0  0  0  1  0  0
  -33.1184  -21.1579   22.5375 F   0  0  0  0  0  0  0  0  0  0  0  0
  -28.5115  -22.0837   21.9678 F   0  0  0  0  0  0  0  0  0  0  0  0
  -17.8419  -26.5691   22.1417 S   0  0  0  0  0  0  0  0  0  0  0  0
  1  2  1  0  0  0  0
  1  5  2  0  0  0  0
  2  6  2  0  0  0  0
  3  8  2  0  0  0  0
  3 15  1  0  0  0  0
  4  9  1  0  0  0  0
  4 15  2  0  0  0  0
  5 17  1  0  0  0  0
  6 19  1  0  0  0  0
  7 10  2  0  0  0  0
  7 18  1  0  0  0  0
  8 21  1  0  0  0  0
  9 21  2  0  0  0  0
 10 22  1  0  0  0  0
 11 12  2  0  0  0  0
 11 23  1  0  0  0  0
 12 24  1  0  0  0  0
 13 20  1  0  0  0  0
 13 22  2  0  0  0  0
 14 24  2  0  0  0  0
 14 25  1  0  0  0  0
 15 26  1  0  0  0  0
 16 26  1  0  0  0  0
 16 29  2  0  0  0  0
 16 31  1  0  0  0  0
 17 19  2  0  0  0  0
 17 36  1  0  0  0  0
 18 20  2  0  0  0  0
 18 37  1  0  0  0  0
 19 45  1  0  0  0  0
 20 38  1  0  0  0  0
 21 79  1  0  0  0  0
 22 80  1  0  0  0  0
 23 25  2  0  0  0  0
 23 79  1  0  0  0  0
 24 81  1  0  0  0  0
 25 82  1  0  0  0  0
 26 61  2  0  0  0  0
 27 28  2  0  0  0  0
 27 54  1  0  0  0  0
 27 62  1  0  0  0  0
 28 48  1  0  0  0  0
 28 83  1  0  0  0  0
 29 63  1  0  0  0  0
 29 66  1  0  0  0  0
 30 62  2  0  0  0  0
 30 68  1  0  0  0  0
 30 83  1  0  0  0  0
 31 67  1  0  0  0  0
 31 73  2  0  0  0  0
 32 46  1  0  0  0  0
 32 69  1  0  0  0  0
 32 74  2  0  0  0  0
 33 57  1  0  0  0  0
 33 64  1  0  0  0  0
 33 75  2  0  0  0  0
 34 58  1  0  0  0  0
 34 70  1  0  0  0  0
 34 76  2  0  0  0  0
 35 65  1  0  0  0  0
 35 71  1  0  0  0  0
 35 77  2  0  0  0  0
 36 39  1  0  0  0  0
 37 46  1  0  0  0  0
 38 64  1  0  0  0  0
 39 41  1  0  0  0  0
 40 42  1  0  0  0  0
 40 43  1  0  0  0  0
 41 45  1  0  0  0  0
 42 47  1  0  0  0  0
 43 65  1  0  0  0  0
 44 47  1  0  0  0  0
 44 65  1  0  0  0  0
 45 69  1  0  0  0  0
 46 64  1  0  0  0  0
 47 63  1  0  0  0  0
 49 58  1  0  0  0  0
 50 60  1  0  0  0  0
 51 60  1  0  0  0  0
 52 60  1  0  0  0  0
 53 72  1  0  0  0  0
 54 71  1  0  0  0  0
 55 59  1  0  0  0  0
 55 68  1  0  0  0  0
 56 59  1  0  0  0  0
 56 80  1  0  0  0  0
 57 60  1  0  0  0  0
 57 70  1  0  0  0  0
 58 72  1  0  0  0  0
 59 78  1  0  0  0  0
 61 63  1  0  0  0  0
M  CHG  1  72   1
M  ISO  4  35 100  56 101  71 100  80 101
M  END
> <Batch ID>
0192

> <Smiles>
CNC(C)C(=O)NC(C(=O)N1Cc2cc([101O:1][101CH2:1]C(O)CNc3nc(C[100NH:0][100C:0](=O)N4CCCC(n5nc(-c6ccc(Oc7ccc(F)cc7F)cc6)c(C(N)=O)c5N)C4)c(C)s3)ccc2CC1C(=O)NC1CCCc2ccccc21)C(C)(C)C

> <Shape>
0.215

> <Color>
0.083

> <Negative vol penalty>
0.000

$$$$

  -OEChem-04052305273D

 85 93  0     1  0  0  0  0  0999 V2000
  -27.0940  -37.8296   24.0433 C   0  0  0  0  0  0  0  0  0  0  0  0
  -27.6747  -37.0023   23.0874 C   0  0  0  0  0  0  0  0  0  0  0  0
  -23.2364   -9.7408   20.9726 C   0  0  0  0  0  0  0  0  0  0  0  0
  -22.7394  -11.7747   19.7670 C   0  0  0  0  0  0  0  0  0  0  0  0
  -26.3805  -37.2733   25.1042 C   0  0  0  0  0  0  0  0  0  0  0  0
  -27.5432  -35.6181   23.1924 C   0  0  0  0  0  0  0  0  0  0  0  0
  -26.9859  -29.7394   19.1369 C   0  0  0  0  0  0  0  0  0  0  0  0
  -21.9072   -9.6621   21.3878 C   0  0  0  0  0  0  0  0  0  0  0  0
  -21.4101  -11.6960   20.1822 C   0  0  0  0  0  0  0  0  0  0  0  0
  -27.5698  -28.4839   18.9741 C   0  0  0  0  0  0  0  0  0  0  0  0
  -18.9423   -8.6952   20.0810 C   0  0  0  0  0  0  0  0  0  0  0  0
  -18.3093   -7.4552   19.9970 C   0  0  0  0  0  0  0  0  0  0  0  0
  -26.2477  -27.6382   20.8061 C   0  0  0  0  0  0  0  0  0  0  0  0
  -17.9288   -7.4878   22.3826 C   0  0  0  0  0  0  0  0  0  0  0  0
  -23.6526  -10.7972   20.1622 C   0  0  0  0  0  0  0  0  0  0  0  0
  -25.5867  -10.3253   18.5671 C   0  0  0  0  0  0  0  0  0  0  0  0
  -26.2321  -35.8820   25.2170 C   0  0  0  0  0  0  0  0  0  0  0  0
  -26.0349  -29.9569   20.1442 C   0  0  0  0  0  0  0  0  0  0  0  0
  -26.8282  -35.0426   24.2565 C   0  0  0  0  0  0  0  0  0  0  0  0
  -25.6513  -28.8968   20.9779 C   0  0  0  0  0  0  0  0  0  0  0  0
  -20.9940  -10.6397   20.9926 C   0  0  0  0  0  0  0  0  0  0  0  0
  -27.2028  -27.4338   19.8106 C   0  0  0  0  0  0  0  0  0  0  0  0
  -19.0687   -9.3316   21.3158 C   0  0  0  0  0  0  0  0  0  0  0  0
  -17.8025   -6.8515   21.1478 C   0  0  0  0  0  0  0  0  0  0  0  0
  -18.5619   -8.7279   22.4666 C   0  0  0  0  0  0  0  0  0  0  0  0
  -25.0257  -10.8793   19.7334 C   0  0  0  0  0  0  0  0  0  0  0  0
  -30.2018  -19.1611   19.4270 C   0  0  0  0  0  0  0  0  0  0  0  0
  -26.9120  -10.6820   18.6207 C   0  0  0  0  0  0  0  0  0  0  0  0
  -29.0630  -19.2768   18.6576 C   0  0  0  0  0  0  0  0  0  0  0  0
  -29.2995  -17.2139   19.8786 C   0  0  0  0  0  0  0  0  0  0  0  0
  -24.9653   -9.5571   17.5281 C   0  0  0  0  0  0  0  0  0  0  0  0
  -25.8731  -31.8253   22.7107 C   0  0  0  0  0  0  0  0  0  0  0  0
  -22.8467  -30.6700   22.8801 C   0  0  0  0  0  0  0  0  0  0  0  0
  -29.1660  -21.5348   17.5459 C   0  0  0  0  0  0  0  0  0  0  0  0
  -20.6473  -28.1817   22.0943 C   0  0  0  0  0  0  0  0  0  0  0  0
  -29.8256  -15.1782   21.2664 C   0  0  0  0  0  0  0  0  0  0  0  0
  -25.4920  -35.3250   26.4072 C   0  0  0  0  0  0  0  0  0  0  0  0
  -25.3947  -31.3103   20.2896 C   0  0  0  0  0  0  0  0  0  0  0  0
  -24.6201  -29.0730   22.0614 C   0  0  0  0  0  0  0  0  0  0  0  0
  -25.0817  -33.8642   26.2404 C   0  0  0  0  0  0  0  0  0  0  0  0
  -30.3934  -11.6966   21.7487 C   0  0  0  0  0  0  0  0  0  0  0  0
  -26.2482  -33.0399   25.7051 C   0  0  0  0  0  0  0  0  0  0  0  0
  -29.1351  -11.0411   21.1750 C   0  0  0  0  0  0  0  0  0  0  0  0
  -30.0748  -13.0117   22.4577 C   0  0  0  0  0  0  0  0  0  0  0  0
  -28.0531  -13.3233   21.0848 C   0  0  0  0  0  0  0  0  0  0  0  0
  -26.6867  -33.5374   24.3224 C   0  0  1  0  0  0  0  0  0  0  0  0
  -24.8148  -31.5508   21.6800 C   0  0  1  0  0  0  0  0  0  0  0  0
  -28.3323  -12.0281   20.3049 C   0  0  2  0  0  0  0  0  0  0  0  0
  -28.6813  -21.9786   15.1473 C   0  0  0  0  0  0  0  0  0  0  0  0
  -18.2520  -27.4998   22.4026 C   0  0  0  0  0  0  0  0  0  0  0  0
  -23.4500  -29.8621   25.7599 C   0  0  0  0  0  0  0  0  0  0  0  0
  -21.4315  -28.3823   25.6940 C   0  0  0  0  0  0  0  0  0  0  0  0
  -21.1786  -30.8473   25.4068 C   0  0  0  0  0  0  0  0  0  0  0  0
  -20.1452  -28.2012   19.1777 C   0  0  0  0  0  0  0  0  0  0  0  0
  -28.0586  -24.3362   18.1792 C   0  0  0  0  0  0  0  0  0  0  0  0
  -28.5016  -23.8780   16.7874 C   0  0  0  0  0  0  0  0  0  0  0  0
  -28.1833  -25.8456   18.3368 C   0  0  0  0  0  0  0  0  0  1  0  0
  -22.1922  -29.4792   23.5379 C   0  0  1  0  0  0  0  0  0  0  0  0
  -28.3114  -22.3656   16.5810 C   0  0  2  0  0  0  0  0  0  0  0  0
  -19.2474  -28.2225   21.5084 C   0  0  2  0  0  0  0  0  0  0  0  0
  -22.0840  -29.6395   25.0806 C   0  0  0  0  0  0  0  0  0  0  0  0
  -25.9214  -11.5377   20.4738 N   0  0  0  0  0  0  0  0  0  0  0  0
  -30.3389  -17.9791   20.1282 N   0  0  0  0  0  0  0  0  0  0  0  0
  -27.0586  -11.3996   19.7712 N   0  0  0  0  0  0  0  0  0  0  0  0
  -24.0276  -30.4166   22.1679 N   0  0  0  0  0  0  0  0  0  0  0  0
  -29.3171  -13.8980   21.5715 N   0  0  0  0  0  0  0  0  0  0  0  0
  -31.1506  -20.1240   19.5175 N   0  0  0  0  0  0  0  0  0  0  0  0
  -27.9546  -10.4484   17.7955 N   0  0  0  0  0  0  0  0  0  0  0  0
  -23.5949   -9.2815   17.6295 N   0  0  0  0  0  0  0  0  0  0  0  0
  -28.5731  -20.3047   17.8172 N   0  0  0  0  0  0  0  0  0  0  0  0
  -29.0348  -15.9184   20.3881 N   0  0  0  0  0  0  0  0  0  0  0  0
  -25.7718  -33.0695   23.3034 N   0  0  0  0  0  0  0  0  0  0  0  0
  -20.9111  -29.2942   22.8650 N   0  0  0  0  0  0  0  0  0  0  0  0
  -19.2287  -27.5761   20.1658 N   0  3  0  0  0  0  0  0  0  0  0  0
  -25.6098   -9.1139   16.5474 O   0  0  0  0  0  0  0  0  0  0  0  0
  -26.7180  -30.9710   22.9515 O   0  0  0  0  0  0  0  0  0  0  0  0
  -22.3255  -31.7828   22.9880 O   0  0  0  0  0  0  0  0  0  0  0  0
  -30.2413  -21.9469   17.9711 O   0  0  0  0  0  0  0  0  0  0  0  0
  -21.4273  -27.2537   21.8917 O   0  0  0  0  0  0  0  0  0  0  0  0
  -30.8981  -15.5773   21.7273 O   0  0  0  0  0  0  0  0  0  0  0  0
  -19.6968  -10.5631   21.3974 O   0  0  0  0  0  0  0  0  0  0  0  0
  -27.7717  -26.2075   19.6543 O   0  0  0  0  0  0  0  0  0  1  0  0
  -17.1933   -5.6613   21.0667 F   0  0  0  0  0  0  0  0  0  0  0  0
  -18.6793   -9.3349   23.6555 F   0  0  0  0  0  0  0  0  0  0  0  0
  -28.1193  -17.8528   18.8091 S   0  0  0  0  0  0  0  0  0  0  0  0
  1  2  1  0  0  0  0
  1  5  2  0  0  0  0
  2  6  2  0  0  0  0
  3  8  2  0  0  0  0
  3 15  1  0  0  0  0
  4  9  1  0  0  0  0
  4 15  2  0  0  0  0
  5 17  1  0  0  0  0
  6 19  1  0  0  0  0
  7 10  2  0  0  0  0
  7 18  1  0  0  0  0
  8 21  1  0  0  0  0
  9 21  2  0  0  0  0
 10 22  1  0  0  0  0
 11 12  2  0  0  0  0
 11 23  1  0  0  0  0
 12 24  1  0  0  0  0
 13 20  1  0  0  0  0
 13 22  2  0  0  0  0
 14 24  2  0  0  0  0
 14 25  1  0  0  0  0
 15 26  1  0  0  0  0
 16 26  1  0  0  0  0
 16 28  2  0  0  0  0
 16 31  1  0  0  0  0
 17 19  2  0  0  0  0
 17 37  1  0  0  0  0
 18 20  2  0  0  0  0
 18 38  1  0  0  0  0
 19 46  1  0  0  0  0
 20 39  1  0  0  0  0
 21 81  1  0  0  0  0
 22 82  1  0  0  0  0
 23 25  2  0  0  0  0
 23 81  1  0  0  0  0
 24 83  1  0  0  0  0
 25 84  1  0  0  0  0
 26 62  2  0  0  0  0
 27 29  2  0  0  0  0
 27 63  1  0  0  0  0
 27 67  1  0  0  0  0
 28 64  1  0  0  0  0
 28 68  1  0  0  0  0
 29 70  1  0  0  0  0
 29 85  1  0  0  0  0
 30 63  2  0  0  0  0
 30 71  1  0  0  0  0
 30 85  1  0  0  0  0
 31 69  1  0  0  0  0
 31 75  2  0  0  0  0
 32 47  1  0  0  0  0
 32 72  1  0  0  0  0
 32 76  2  0  0  0  0
 33 58  1  0  0  0  0
 33 65  1  0  0  0  0
 33 77  2  0  0  0  0
 34 59  1  0  0  0  0
 34 70  1  0  0  0  0
 34 78  2  0  0  0  0
 35 60  1  0  0  0  0
 35 73  1  0  0  0  0
 35 79  2  0  0  0  0
 36 66  1  0  0  0  0
 36 71  1  0  0  0  0
 36 80  2  0  0  0  0
 37 40  1  0  0  0  0
 38 47  1  0  0  0  0
 39 65  1  0  0  0  0
 40 42  1  0  0  0  0
 41 43  1  0  0  0  0
 41 44  1  0  0  0  0
 42 46  1  0  0  0  0
 43 48  1  0  0  0  0
 44 66  1  0  0  0  0
 45 48  1  0  0  0  0
 45 66  1  0  0  0  0
 46 72  1  0  0  0  0
 47 65  1  0  0  0  0
 48 64  1  0  0  0  0
 49 59  1  0  0  0  0
 50 60  1  0  0  0  0
 51 61  1  0  0  0  0
 52 61  1  0  0  0  0
 53 61  1  0  0  0  0
 54 74  1  0  0  0  0
 55 56  1  0  0  0  0
 55 57  1  0  0  0  0
 56 59  1  0  0  0  0
 57 82  1  0  0  0  0
 58 61  1  0  0  0  0
 58 73  1  0  0  0  0
 60 74  1  0  0  0  0
 62 64  1  0  0  0  0
M  CHG  1  74   1
M  ISO  4  36 100  57 101  71 100  82 101
M  END
> <Batch ID>
0192

> <Smiles>
CNC(C)C(=O)NC(C(=O)N1Cc2cc([101O:1][101CH2:1]CCC(C)C(=O)Nc3sc([100NH:0][100C:0](=O)N4CCCC(n5nc(-c6ccc(Oc7ccc(F)cc7F)cc6)c(C(N)=O)c5N)C4)nc3N)ccc2CC1C(=O)NC1CCCc2ccccc21)C(C)(C)C

> <Shape>
0.287

> <Color>
0.087

> <Negative vol penalty>
0.000

$$$$

  -OEChem-04052305273D

 83 91  0     1  0  0  0  0  0999 V2000
  -25.1457  -34.7727   26.2409 C   0  0  0  0  0  0  0  0  0  0  0  0
  -25.8853  -33.7779   25.6095 C   0  0  0  0  0  0  0  0  0  0  0  0
  -24.4885  -10.3408   22.4742 C   0  0  0  0  0  0  0  0  0  0  0  0
  -24.5461  -11.8276   24.3776 C   0  0  0  0  0  0  0  0  0  0  0  0
  -23.7975  -34.5620   26.5271 C   0  0  0  0  0  0  0  0  0  0  0  0
  -25.2773  -32.5712   25.2648 C   0  0  0  0  0  0  0  0  0  0  0  0
  -26.4841  -31.0545   20.5863 C   0  0  0  0  0  0  0  0  0  0  0  0
  -24.0607   -9.3008   23.2994 C   0  0  0  0  0  0  0  0  0  0  0  0
  -24.1182  -10.7876   25.2029 C   0  0  0  0  0  0  0  0  0  0  0  0
  -27.7356  -30.4657   20.4108 C   0  0  0  0  0  0  0  0  0  0  0  0
  -21.1738   -8.2929   24.7427 C   0  0  0  0  0  0  0  0  0  0  0  0
  -20.1218   -7.4968   24.2898 C   0  0  0  0  0  0  0  0  0  0  0  0
  -26.7084  -28.2835   20.4546 C   0  0  0  0  0  0  0  0  0  0  0  0
  -21.5510   -5.5514   24.3894 C   0  0  0  0  0  0  0  0  0  0  0  0
  -29.9563  -21.6271   19.6907 C   0  0  0  0  0  0  0  0  0  0  0  0
  -24.7313  -11.6042   23.0133 C   0  0  0  0  0  0  0  0  0  0  0  0
  -24.3674  -13.5999   21.4665 C   0  0  0  0  0  0  0  0  0  0  0  0
  -23.1703  -33.3559   26.1771 C   0  0  0  0  0  0  0  0  0  0  0  0
  -25.3347  -30.2604   20.7084 C   0  0  0  0  0  0  0  0  0  0  0  0
  -23.9198  -32.3437   25.5478 C   0  0  0  0  0  0  0  0  0  0  0  0
  -25.4432  -28.8647   20.6290 C   0  0  0  0  0  0  0  0  0  0  0  0
  -23.8755   -9.5242   24.6637 C   0  0  0  0  0  0  0  0  0  0  0  0
  -27.8483  -29.0799   20.3478 C   0  0  0  0  0  0  0  0  0  0  0  0
  -22.4145   -7.7182   25.0189 C   0  0  0  0  0  0  0  0  0  0  0  0
  -20.3104   -6.1261   24.1131 C   0  0  0  0  0  0  0  0  0  0  0  0
  -22.6031   -6.3475   24.8423 C   0  0  0  0  0  0  0  0  0  0  0  0
  -25.1738  -12.6787   22.1614 C   0  0  0  0  0  0  0  0  0  0  0  0
  -25.2603  -14.4096   20.8081 C   0  0  0  0  0  0  0  0  0  0  0  0
  -30.0081  -22.1074   20.9824 C   0  0  0  0  0  0  0  0  0  0  0  0
  -29.3036  -19.8165   20.7421 C   0  0  0  0  0  0  0  0  0  0  0  0
  -22.9389  -13.7135   21.4204 C   0  0  0  0  0  0  0  0  0  0  0  0
  -23.1542  -29.8038   22.9757 C   0  0  0  0  0  0  0  0  0  0  0  0
  -29.9673  -17.4314   20.8500 C   0  0  0  0  0  0  0  0  0  0  0  0
  -21.7152  -28.0117   20.6866 C   0  0  0  0  0  0  0  0  0  0  0  0
  -30.7750  -24.5008   20.8146 C   0  0  0  0  0  0  0  0  0  0  0  0
  -22.0217  -26.1730   17.8279 C   0  0  0  0  0  0  0  0  0  0  0  0
  -21.7226  -33.1558   26.5495 C   0  0  0  0  0  0  0  0  0  0  0  0
  -23.9887  -30.9119   20.8705 C   0  0  0  0  0  0  0  0  0  0  0  0
  -24.2374  -27.9683   20.7342 C   0  0  0  0  0  0  0  0  0  0  0  0
  -21.0595  -31.9938   25.8143 C   0  0  0  0  0  0  0  0  0  0  0  0
  -30.2379  -13.9393   20.0940 C   0  0  0  0  0  0  0  0  0  0  0  0
  -21.9571  -30.7609   25.8450 C   0  0  0  0  0  0  0  0  0  0  0  0
  -28.8898  -13.3709   20.5353 C   0  0  0  0  0  0  0  0  0  0  0  0
  -30.6923  -15.0727   21.0083 C   0  0  0  0  0  0  0  0  0  0  0  0
  -28.3481  -15.6129   21.5865 C   0  0  0  0  0  0  0  0  0  0  0  0
  -23.2897  -31.0308   25.1360 C   0  0  1  0  0  0  0  0  0  0  0  0
  -22.9496  -29.9882   21.4986 C   0  0  1  0  0  0  0  0  0  0  0  0
  -27.8377  -14.4858   20.6714 C   0  0  2  0  0  0  0  0  0  0  0  0
  -32.5098  -25.6209   22.2742 C   0  0  0  0  0  0  0  0  0  0  0  0
  -20.6760  -24.7998   16.2152 C   0  0  0  0  0  0  0  0  0  0  0  0
  -21.6387  -25.7230   22.7030 C   0  0  0  0  0  0  0  0  0  0  0  0
  -21.1867  -24.1566   20.8029 C   0  0  0  0  0  0  0  0  0  0  0  0
  -19.5627  -25.9748   21.3314 C   0  0  0  0  0  0  0  0  0  0  0  0
  -22.6765  -27.9713   15.5704 C   0  0  0  0  0  0  0  0  0  0  0  0
  -28.8479  -18.4316   20.9931 C   0  0  0  0  0  0  0  0  0  0  0  0
  -30.7328  -27.0227   21.1073 C   0  0  0  0  0  0  0  0  0  0  0  0
  -29.2609  -27.2091   20.7482 C   0  0  0  0  0  0  0  0  0  1  0  0
  -21.7785  -26.5633   20.2657 C   0  0  1  0  0  0  0  0  0  0  0  0
  -31.0709  -25.6718   21.7606 C   0  0  1  0  0  0  0  0  0  0  0  0
  -21.2262  -26.1810   16.5350 C   0  0  2  0  0  0  0  0  0  0  0  0
  -21.0648  -25.6210   21.2757 C   0  0  0  0  0  0  0  0  0  0  0  0
  -29.5530  -20.3135   19.5509 N   0  0  0  0  0  0  0  0  0  0  0  0
  -26.4787  -12.8832   21.9628 N   0  0  0  0  0  0  0  0  0  0  0  0
  -26.4990  -13.9422   21.1356 N   0  0  0  0  0  0  0  0  0  0  0  0
  -22.9442  -28.6526   20.8983 N   0  0  0  0  0  0  0  0  0  0  0  0
  -29.6568  -16.1004   21.1292 N   0  0  0  0  0  0  0  0  0  0  0  0
  -25.0988  -15.4686   19.9866 N   0  0  0  0  0  0  0  0  0  0  0  0
  -22.1719  -12.7999   22.1563 N   0  0  0  0  0  0  0  0  0  0  0  0
  -30.3647  -23.3696   21.5140 N   0  0  0  0  0  0  0  0  0  0  0  0
  -23.1175  -30.9800   23.7000 N   0  0  0  0  0  0  0  0  0  0  0  0
  -21.2379  -26.5077   18.9118 N   0  0  0  0  0  0  0  0  0  0  0  0
  -22.0872  -26.6183   15.3998 N   0  3  0  0  0  0  0  0  0  0  0  0
  -22.3594  -14.5887   20.7336 O   0  0  0  0  0  0  0  0  0  0  0  0
  -23.3308  -28.6775   23.4253 O   0  0  0  0  0  0  0  0  0  0  0  0
  -31.0830  -17.8229   20.4977 O   0  0  0  0  0  0  0  0  0  0  0  0
  -20.6160  -28.5565   20.8156 O   0  0  0  0  0  0  0  0  0  0  0  0
  -30.9017  -24.6110   19.5983 O   0  0  0  0  0  0  0  0  0  0  0  0
  -23.2178  -25.8940   17.8724 O   0  0  0  0  0  0  0  0  0  0  0  0
  -23.4577   -8.5098   25.4693 O   0  0  0  0  0  0  0  0  0  0  0  0
  -29.0687  -28.5027   20.1772 O   0  0  0  0  0  0  0  0  0  1  0  0
  -19.2996   -5.3616   23.6797 F   0  0  0  0  0  0  0  0  0  0  0  0
  -23.7923   -5.7895   25.1071 F   0  0  0  0  0  0  0  0  0  0  0  0
  -29.5327  -20.8734   22.0745 S   0  0  0  0  0  0  0  0  0  0  0  0
  1  2  1  0  0  0  0
  1  5  2  0  0  0  0
  2  6  2  0  0  0  0
  3  8  2  0  0  0  0
  3 16  1  0  0  0  0
  4  9  1  0  0  0  0
  4 16  2  0  0  0  0
  5 18  1  0  0  0  0
  6 20  1  0  0  0  0
  7 10  2  0  0  0  0
  7 19  1  0  0  0  0
  8 22  1  0  0  0  0
  9 22  2  0  0  0  0
 10 23  1  0  0  0  0
 11 12  2  0  0  0  0
 11 24  1  0  0  0  0
 12 25  1  0  0  0  0
 13 21  1  0  0  0  0
 13 23  2  0  0  0  0
 14 25  2  0  0  0  0
 14 26  1  0  0  0  0
 15 29  2  0  0  0  0
 15 62  1  0  0  0  0
 16 27  1  0  0  0  0
 17 27  1  0  0  0  0
 17 28  2  0  0  0  0
 17 31  1  0  0  0  0
 18 20  2  0  0  0  0
 18 37  1  0  0  0  0
 19 21  2  0  0  0  0
 19 38  1  0  0  0  0
 20 46  1  0  0  0  0
 21 39  1  0  0  0  0
 22 79  1  0  0  0  0
 23 80  1  0  0  0  0
 24 26  2  0  0  0  0
 24 79  1  0  0  0  0
 25 81  1  0  0  0  0
 26 82  1  0  0  0  0
 27 63  2  0  0  0  0
 28 64  1  0  0  0  0
 28 67  1  0  0  0  0
 29 69  1  0  0  0  0
 29 83  1  0  0  0  0
 30 55  1  0  0  0  0
 30 62  2  0  0  0  0
 30 83  1  0  0  0  0
 31 68  1  0  0  0  0
 31 73  2  0  0  0  0
 32 47  1  0  0  0  0
 32 70  1  0  0  0  0
 32 74  2  0  0  0  0
 33 55  1  0  0  0  0
 33 66  1  0  0  0  0
 33 75  2  0  0  0  0
 34 58  1  0  0  0  0
 34 65  1  0  0  0  0
 34 76  2  0  0  0  0
 35 59  1  0  0  0  0
 35 69  1  0  0  0  0
 35 77  2  0  0  0  0
 36 60  1  0  0  0  0
 36 71  1  0  0  0  0
 36 78  2  0  0  0  0
 37 40  1  0  0  0  0
 38 47  1  0  0  0  0
 39 65  1  0  0  0  0
 40 42  1  0  0  0  0
 41 43  1  0  0  0  0
 41 44  1  0  0  0  0
 42 46  1  0  0  0  0
 43 48  1  0  0  0  0
 44 66  1  0  0  0  0
 45 48  1  0  0  0  0
 45 66  1  0  0  0  0
 46 70  1  0  0  0  0
 47 65  1  0  0  0  0
 48 64  1  0  0  0  0
 49 59  1  0  0  0  0
 50 60  1  0  0  0  0
 51 61  1  0  0  0  0
 52 61  1  0  0  0  0
 53 61  1  0  0  0  0
 54 72  1  0  0  0  0
 56 57  1  0  0  0  0
 56 59  1  0  0  0  0
 57 80  1  0  0  0  0
 58 61  1  0  0  0  0
 58 71  1  0  0  0  0
 60 72  1  0  0  0  0
 63 64  1  0  0  0  0
M  CHG  1  72   1
M  ISO  4  33 100  55 100  57 101  80 101
M  END
> <Batch ID>
0192

> <Smiles>
CNC(C)C(=O)NC(C(=O)N1Cc2cc([101O:1][101CH2:1]CC(C)C(=O)Nc3cnc([100CH2:0][100C:0](=O)N4CCCC(n5nc(-c6ccc(Oc7ccc(F)cc7F)cc6)c(C(N)=O)c5N)C4)s3)ccc2CC1C(=O)NC1CCCc2ccccc21)C(C)(C)C

> <Shape>
0.278

> <Color>
0.139

> <Negative vol penalty>
0.000

$$$$

  -OEChem-04052305273D

 89 97  0     1  0  0  0  0  0999 V2000
  -27.4328  -35.0121   24.1422 C   0  0  0  0  0  0  0  0  0  0  0  0
  -27.7184  -33.6946   23.7988 C   0  0  0  0  0  0  0  0  0  0  0  0
  -23.8584  -13.9043   21.7659 C   0  0  0  0  0  0  0  0  0  0  0  0
  -25.9276  -14.9204   21.0427 C   0  0  0  0  0  0  0  0  0  0  0  0
  -26.1476  -35.3607   24.5553 C   0  0  0  0  0  0  0  0  0  0  0  0
  -26.7191  -32.7246   23.8695 C   0  0  0  0  0  0  0  0  0  0  0  0
  -26.6522  -29.7045   19.8050 C   0  0  0  0  0  0  0  0  0  0  0  0
  -24.3249  -12.6576   21.3492 C   0  0  0  0  0  0  0  0  0  0  0  0
  -26.3942  -13.6737   20.6260 C   0  0  0  0  0  0  0  0  0  0  0  0
  -27.6150  -28.6980   19.7437 C   0  0  0  0  0  0  0  0  0  0  0  0
  -26.4235  -10.2705   22.5027 C   0  0  0  0  0  0  0  0  0  0  0  0
  -26.2377   -9.1882   23.3628 C   0  0  0  0  0  0  0  0  0  0  0  0
  -25.9791  -27.0955   20.5023 C   0  0  0  0  0  0  0  0  0  0  0  0
  -24.9298   -8.0667   21.6689 C   0  0  0  0  0  0  0  0  0  0  0  0
  -24.6597  -15.0358   21.6126 C   0  0  0  0  0  0  0  0  0  0  0  0
  -24.3348  -16.9096   23.3129 C   0  0  0  0  0  0  0  0  0  0  0  0
  -25.1296  -34.3964   24.6219 C   0  0  0  0  0  0  0  0  0  0  0  0
  -25.3463  -29.4157   20.2265 C   0  0  0  0  0  0  0  0  0  0  0  0
  -25.4194  -33.0603   24.2852 C   0  0  0  0  0  0  0  0  0  0  0  0
  -25.0010  -28.0997   20.5655 C   0  0  0  0  0  0  0  0  0  0  0  0
  -25.5928  -12.5423   20.7793 C   0  0  0  0  0  0  0  0  0  0  0  0
  -27.2792  -27.3938   20.0952 C   0  0  0  0  0  0  0  0  0  0  0  0
  -25.8625  -10.2510   21.2258 C   0  0  0  0  0  0  0  0  0  0  0  0
  -25.4909   -8.0863   22.9459 C   0  0  0  0  0  0  0  0  0  0  0  0
  -25.1157   -9.1491   20.8089 C   0  0  0  0  0  0  0  0  0  0  0  0
  -24.1781  -16.3240   22.0423 C   0  0  0  0  0  0  0  0  0  0  0  0
  -25.4300  -24.6124   17.0219 C   0  0  0  0  0  0  0  0  0  0  0  0
  -23.7033  -18.1250   23.2110 C   0  0  0  0  0  0  0  0  0  0  0  0
  -26.6480  -24.0255   17.2941 C   0  0  0  0  0  0  0  0  0  0  0  0
  -24.7055  -22.7836   17.9916 C   0  0  0  0  0  0  0  0  0  0  0  0
  -24.9925  -16.4004   24.4807 C   0  0  0  0  0  0  0  0  0  0  0  0
  -23.5116  -30.3531   22.6470 C   0  0  0  0  0  0  0  0  0  0  0  0
  -21.2493  -28.6257   21.0912 C   0  0  0  0  0  0  0  0  0  0  0  0
  -20.5204  -26.1065   18.9073 C   0  0  0  0  0  0  0  0  0  0  0  0
  -22.5005  -21.7263   18.5970 C   0  0  0  0  0  0  0  0  0  0  0  0
  -23.7678  -34.8116   25.1196 C   0  0  0  0  0  0  0  0  0  0  0  0
  -24.3125  -30.5077   20.2615 C   0  0  0  0  0  0  0  0  0  0  0  0
  -23.6077  -27.7337   21.0051 C   0  0  0  0  0  0  0  0  0  0  0  0
  -22.6702  -33.7973   24.8083 C   0  0  0  0  0  0  0  0  0  0  0  0
  -20.1476  -20.3127   20.8648 C   0  0  0  0  0  0  0  0  0  0  0  0
  -23.1325  -32.3863   25.1578 C   0  0  0  0  0  0  0  0  0  0  0  0
  -20.9303  -19.1866   21.5441 C   0  0  0  0  0  0  0  0  0  0  0  0
  -20.5197  -20.4522   19.3897 C   0  0  0  0  0  0  0  0  0  0  0  0
  -22.7395  -19.4665   19.8019 C   0  0  0  0  0  0  0  0  0  0  0  0
  -24.3560  -31.9844   24.3252 C   0  0  1  0  0  0  0  0  0  0  0  0
  -23.1481  -30.1983   21.1973 C   0  0  1  0  0  0  0  0  0  0  0  0
  -22.4461  -19.3300   21.3049 C   0  0  2  0  0  0  0  0  0  0  0  0
  -31.1096  -21.4798   21.4024 C   0  0  0  0  0  0  0  0  0  0  0  0
  -18.5809  -24.9038   17.8637 C   0  0  0  0  0  0  0  0  0  0  0  0
  -30.2368  -24.2577   16.3874 C   0  0  0  0  0  0  0  0  0  0  0  0
  -20.7775  -27.1236   23.7048 C   0  0  0  0  0  0  0  0  0  0  0  0
  -19.5712  -25.3639   22.3946 C   0  0  0  0  0  0  0  0  0  0  0  0
  -18.6969  -27.6997   22.4425 C   0  0  0  0  0  0  0  0  0  0  0  0
  -21.3442  -26.9044   16.1790 C   0  0  0  0  0  0  0  0  0  0  0  0
  -30.2350  -22.6284   20.9206 C   0  0  0  0  0  0  0  0  0  0  0  0
  -30.3330  -22.8052   19.4010 C   0  0  0  0  0  0  0  0  0  0  0  0
  -30.1741  -25.3419   19.1365 C   0  0  0  0  0  0  0  0  0  0  0  0
  -29.2467  -26.5505   19.0588 C   0  0  0  0  0  0  0  0  0  1  0  0
  -20.7922  -27.1873   21.1237 C   0  0  1  0  0  0  0  0  0  0  0  0
  -19.5766  -26.0443   17.7200 C   0  0  2  0  0  0  0  0  0  0  0  0
  -29.4897  -23.9834   18.8459 C   0  0  1  0  0  0  0  0  0  0  0  0
  -29.1331  -23.8067   17.3425 C   0  0  1  0  0  0  0  0  0  0  0  0
  -25.2169  -25.9126   16.3515 C   0  0  0  0  0  0  0  0  0  0  0  0
  -19.9863  -26.8506   22.4100 C   0  0  0  0  0  0  0  0  0  0  0  0
  -23.5000  -17.1032   21.1955 N   0  0  0  0  0  0  0  0  0  0  0  0
  -24.3150  -23.9015   17.4208 N   0  0  0  0  0  0  0  0  0  0  0  0
  -23.2251  -18.1908   21.9355 N   0  0  0  0  0  0  0  0  0  0  0  0
  -22.6339  -28.8376   21.0290 N   0  0  0  0  0  0  0  0  0  0  0  0
  -21.9703  -20.5881   19.2407 N   0  0  0  0  0  0  0  0  0  0  0  0
  -23.5160  -19.1332   24.0891 N   0  0  0  0  0  0  0  0  0  0  0  0
  -25.5896  -15.1342   24.4127 N   0  0  0  0  0  0  0  0  0  0  0  0
  -27.9114  -24.5099   17.0078 N   0  0  0  0  0  0  0  0  0  0  0  0
  -23.8935  -21.7617   18.5432 N   0  0  0  0  0  0  0  0  0  0  0  0
  -23.9559  -31.6174   22.9837 N   0  0  0  0  0  0  0  0  0  0  0  0
  -20.0580  -26.9642   19.8830 N   0  0  0  0  0  0  0  0  0  0  0  0
  -20.3438  -25.8423   16.4585 N   0  3  0  0  0  0  0  0  0  0  0  0
  -25.0348  -17.0420   25.5578 O   0  0  0  0  0  0  0  0  0  0  0  0
  -23.3961  -29.3966   23.4043 O   0  0  0  0  0  0  0  0  0  0  0  0
  -20.4084  -29.5281   21.1127 O   0  0  0  0  0  0  0  0  0  0  0  0
  -21.5618  -25.4563   18.9653 O   0  0  0  0  0  0  0  0  0  0  0  0
  -21.7732  -22.6180   18.1522 O   0  0  0  0  0  0  0  0  0  0  0  0
  -26.0485  -11.3259   20.3728 O   0  0  0  0  0  0  0  0  0  0  0  0
  -28.2234  -26.4030   20.0365 O   0  0  0  0  0  0  0  0  0  1  0  0
  -25.3138   -7.0464   23.7714 F   0  0  0  0  0  0  0  0  0  0  0  0
  -24.5752   -9.1240   19.5829 F   0  0  0  0  0  0  0  0  0  0  0  0
  -26.3741  -26.5521   15.9877 F   0  0  0  0  0  0  0  0  0  0  0  0
  -24.4892  -25.8321   15.1921 F   0  0  0  0  0  0  0  0  0  0  0  0
  -24.5431  -26.8158   17.1307 F   0  0  0  0  0  0  0  0  0  0  0  0
  -26.3992  -22.5232   18.0831 S   0  0  0  0  0  0  0  0  0  0  0  0
  1  2  1  0  0  0  0
  1  5  2  0  0  0  0
  2  6  2  0  0  0  0
  3  8  2  0  0  0  0
  3 15  1  0  0  0  0
  4  9  1  0  0  0  0
  4 15  2  0  0  0  0
  5 17  1  0  0  0  0
  6 19  1  0  0  0  0
  7 10  2  0  0  0  0
  7 18  1  0  0  0  0
  8 21  1  0  0  0  0
  9 21  2  0  0  0  0
 10 22  1  0  0  0  0
 11 12  2  0  0  0  0
 11 23  1  0  0  0  0
 12 24  1  0  0  0  0
 13 20  1  0  0  0  0
 13 22  2  0  0  0  0
 14 24  2  0  0  0  0
 14 25  1  0  0  0  0
 15 26  1  0  0  0  0
 16 26  1  0  0  0  0
 16 28  2  0  0  0  0
 16 31  1  0  0  0  0
 17 19  2  0  0  0  0
 17 36  1  0  0  0  0
 18 20  2  0  0  0  0
 18 37  1  0  0  0  0
 19 45  1  0  0  0  0
 20 38  1  0  0  0  0
 21 82  1  0  0  0  0
 22 83  1  0  0  0  0
 23 25  2  0  0  0  0
 23 82  1  0  0  0  0
 24 84  1  0  0  0  0
 25 85  1  0  0  0  0
 26 65  2  0  0  0  0
 27 29  2  0  0  0  0
 27 63  1  0  0  0  0
 27 66  1  0  0  0  0
 28 67  1  0  0  0  0
 28 70  1  0  0  0  0
 29 72  1  0  0  0  0
 29 89  1  0  0  0  0
 30 66  2  0  0  0  0
 30 73  1  0  0  0  0
 30 89  1  0  0  0  0
 31 71  1  0  0  0  0
 31 77  2  0  0  0  0
 32 46  1  0  0  0  0
 32 74  1  0  0  0  0
 32 78  2  0  0  0  0
 33 59  1  0  0  0  0
 33 68  1  0  0  0  0
 33 79  2  0  0  0  0
 34 60  1  0  0  0  0
 34 75  1  0  0  0  0
 34 80  2  0  0  0  0
 35 69  1  0  0  0  0
 35 73  1  0  0  0  0
 35 81  2  0  0  0  0
 36 39  1  0  0  0  0
 37 46  1  0  0  0  0
 38 68  1  0  0  0  0
 39 41  1  0  0  0  0
 40 42  1  0  0  0  0
 40 43  1  0  0  0  0
 41 45  1  0  0  0  0
 42 47  1  0  0  0  0
 43 69  1  0  0  0  0
 44 47  1  0  0  0  0
 44 69  1  0  0  0  0
 45 74  1  0  0  0  0
 46 68  1  0  0  0  0
 47 67  1  0  0  0  0
 48 55  1  0  0  0  0
 49 60  1  0  0  0  0
 50 62  1  0  0  0  0
 51 64  1  0  0  0  0
 52 64  1  0  0  0  0
 53 64  1  0  0  0  0
 54 76  1  0  0  0  0
 55 56  1  0  0  0  0
 56 61  1  0  0  0  0
 57 58  1  0  0  0  0
 57 61  1  0  0  0  0
 58 83  1  0  0  0  0
 59 64  1  0  0  0  0
 59 75  1  0  0  0  0
 60 76  1  0  0  0  0
 61 62  1  0  0  0  0
 62 72  1  0  0  0  0
 63 86  1  0  0  0  0
 63 87  1  0  0  0  0
 63 88  1  0  0  0  0
 65 67  1  0  0  0  0
M  CHG  1  76   1
M  ISO  4  35 100  58 101  73 100  83 101
M  END
> <Batch ID>
0192

> <Smiles>
CCCC(C[101CH2:1][101O:1]c1ccc2c(c1)CN(C(=O)C(NC(=O)C(C)NC)C(C)(C)C)C(C(=O)NC1CCCc3ccccc31)C2)C(C)Nc1sc([100NH:0][100C:0](=O)N2CCCC(n3nc(-c4ccc(Oc5ccc(F)cc5F)cc4)c(C(N)=O)c3N)C2)nc1C(F)(F)F

> <Shape>
0.230

> <Color>
0.069

> <Negative vol penalty>
0.000

$$$$

  -OEChem-04052305273D

 83 91  0     1  0  0  0  0  0999 V2000
  -32.0916  -15.3461   19.3740 C   0  0  0  0  0  0  0  0  0  0  0  0
  -31.1331  -16.3539   19.3415 C   0  0  0  0  0  0  0  0  0  0  0  0
  -28.1699  -24.8328   18.6385 C   0  0  0  0  0  0  0  0  0  0  0  0
  -26.0161  -23.8043   19.0127 C   0  0  0  0  0  0  0  0  0  0  0  0
  -31.6989  -14.0167   19.5233 C   0  0  0  0  0  0  0  0  0  0  0  0
  -29.7811  -16.0326   19.4573 C   0  0  0  0  0  0  0  0  0  0  0  0
  -25.4327  -19.3469   22.2165 C   0  0  0  0  0  0  0  0  0  0  0  0
  -28.7932  -23.6017   18.8418 C   0  0  0  0  0  0  0  0  0  0  0  0
  -26.6393  -22.5731   19.2159 C   0  0  0  0  0  0  0  0  0  0  0  0
  -24.4723  -20.2296   21.7245 C   0  0  0  0  0  0  0  0  0  0  0  0
  -30.9781  -20.8002   19.6175 C   0  0  0  0  0  0  0  0  0  0  0  0
  -32.1123  -20.7719   20.4288 C   0  0  0  0  0  0  0  0  0  0  0  0
  -22.8486  -18.4456   21.7106 C   0  0  0  0  0  0  0  0  0  0  0  0
  -30.8124  -21.6298   22.2759 C   0  0  0  0  0  0  0  0  0  0  0  0
  -26.7814  -24.9342   18.7240 C   0  0  0  0  0  0  0  0  0  0  0  0
  -25.6730  -26.7331   17.2947 C   0  0  0  0  0  0  0  0  0  0  0  0
  -30.3421  -13.6799   19.6507 C   0  0  0  0  0  0  0  0  0  0  0  0
  -25.1107  -18.0021   22.4494 C   0  0  0  0  0  0  0  0  0  0  0  0
  -29.3698  -14.6973   19.6072 C   0  0  0  0  0  0  0  0  0  0  0  0
  -23.8061  -17.5485   22.2080 C   0  0  0  0  0  0  0  0  0  0  0  0
  -28.0279  -22.4718   19.1305 C   0  0  0  0  0  0  0  0  0  0  0  0
  -23.1807  -19.7783   21.4687 C   0  0  0  0  0  0  0  0  0  0  0  0
  -29.7611  -21.2434   20.1352 C   0  0  0  0  0  0  0  0  0  0  0  0
  -32.0295  -21.1866   21.7580 C   0  0  0  0  0  0  0  0  0  0  0  0
  -29.6782  -21.6581   21.4644 C   0  0  0  0  0  0  0  0  0  0  0  0
  -26.1370  -26.2058   18.5147 C   0  0  0  0  0  0  0  0  0  0  0  0
  -19.7777  -28.0942   22.7390 C   0  0  0  0  0  0  0  0  0  0  0  0
  -18.4049  -28.1201   22.6091 C   0  0  0  0  0  0  0  0  0  0  0  0
  -25.1456  -27.9568   17.6279 C   0  0  0  0  0  0  0  0  0  0  0  0
  -19.4622  -26.0039   22.1552 C   0  0  0  0  0  0  0  0  0  0  0  0
  -25.7149  -26.1674   15.9779 C   0  0  0  0  0  0  0  0  0  0  0  0
  -26.1229  -15.2202   21.2915 C   0  0  0  0  0  0  0  0  0  0  0  0
  -24.1844  -14.0021   23.5895 C   0  0  0  0  0  0  0  0  0  0  0  0
  -21.4879  -14.4377   25.6354 C   0  0  0  0  0  0  0  0  0  0  0  0
  -22.8927  -30.1781   22.7113 C   0  0  0  0  0  0  0  0  0  0  0  0
  -29.9629  -12.2244   19.7626 C   0  0  0  0  0  0  0  0  0  0  0  0
  -26.1510  -17.0688   23.0055 C   0  0  0  0  0  0  0  0  0  0  0  0
  -23.4041  -16.1191   22.4604 C   0  0  0  0  0  0  0  0  0  0  0  0
  -28.5350  -12.0032   20.2549 C   0  0  0  0  0  0  0  0  0  0  0  0
  -25.6092  -31.4901   20.8203 C   0  0  0  0  0  0  0  0  0  0  0  0
  -27.5656  -12.9138   19.5079 C   0  0  0  0  0  0  0  0  0  0  0  0
  -26.0106  -30.3322   19.9049 C   0  0  0  0  0  0  0  0  0  0  0  0
  -25.1740  -30.9957   22.1980 C   0  0  0  0  0  0  0  0  0  0  0  0
  -24.5170  -28.8108   21.2662 C   0  0  0  0  0  0  0  0  0  0  0  0
  -27.8952  -14.3910   19.7545 C   0  0  1  0  0  0  0  0  0  0  0  0
  -25.8508  -15.6007   22.7194 C   0  0  1  0  0  0  0  0  0  0  0  0
  -24.9102  -29.2556   19.8471 C   0  0  2  0  0  0  0  0  0  0  0  0
  -17.4514  -29.2298   22.8083 C   0  0  0  0  0  0  0  0  0  0  0  0
  -20.1232  -13.2512   27.3752 C   0  0  0  0  0  0  0  0  0  0  0  0
  -22.8454  -12.3448   21.4054 C   0  0  0  0  0  0  0  0  0  0  0  0
  -20.9429  -11.9343   22.9803 C   0  0  0  0  0  0  0  0  0  0  0  0
  -23.2312  -11.1231   23.5533 C   0  0  0  0  0  0  0  0  0  0  0  0
  -22.1343  -16.4654   27.6920 C   0  0  0  0  0  0  0  0  0  0  0  0
  -20.6358  -29.2328   23.1258 C   0  0  0  0  0  0  0  0  0  0  0  0
  -21.0470  -24.1074   21.8127 C   0  0  0  0  0  0  0  0  0  0  0  0
  -22.3643  -22.0094   21.3613 C   0  0  0  0  0  0  0  0  0  1  0  0
  -22.7312  -13.5992   23.6592 C   0  0  1  0  0  0  0  0  0  0  0  0
  -21.2980  -14.1824   27.1197 C   0  0  2  0  0  0  0  0  0  0  0  0
  -20.9770  -22.6417   21.3886 C   0  0  1  0  0  0  0  0  0  0  0  0
  -22.4455  -12.2769   22.8928 C   0  0  0  0  0  0  0  0  0  0  0  0
  -25.9233  -27.0273   19.5460 N   0  0  0  0  0  0  0  0  0  0  0  0
  -20.3857  -26.8815   22.4794 N   0  0  0  0  0  0  0  0  0  0  0  0
  -25.3193  -28.0832   18.9747 N   0  0  0  0  0  0  0  0  0  0  0  0
  -24.4584  -15.2437   22.9985 N   0  0  0  0  0  0  0  0  0  0  0  0
  -24.1278  -29.9780   22.0729 N   0  0  0  0  0  0  0  0  0  0  0  0
  -24.5550  -28.9262   16.8973 N   0  0  0  0  0  0  0  0  0  0  0  0
  -26.2919  -24.9008   15.8129 N   0  0  0  0  0  0  0  0  0  0  0  0
  -19.7207  -24.6826   21.8319 N   0  0  0  0  0  0  0  0  0  0  0  0
  -27.4197  -14.8043   21.0574 N   0  0  0  0  0  0  0  0  0  0  0  0
  -22.3874  -13.5548   25.0763 N   0  0  0  0  0  0  0  0  0  0  0  0
  -21.9546  -29.1681   22.5365 N   0  0  0  0  0  0  0  0  0  0  0  0
  -21.0467  -15.4639   27.8377 N   0  3  0  0  0  0  0  0  0  0  0  0
  -25.2691  -26.7743   14.9747 O   0  0  0  0  0  0  0  0  0  0  0  0
  -25.2226  -15.2969   20.4637 O   0  0  0  0  0  0  0  0  0  0  0  0
  -25.0442  -13.2463   24.0491 O   0  0  0  0  0  0  0  0  0  0  0  0
  -20.8945  -15.3286   25.0315 O   0  0  0  0  0  0  0  0  0  0  0  0
  -22.6425  -31.1850   23.3825 O   0  0  0  0  0  0  0  0  0  0  0  0
  -20.1881  -21.9184   22.3356 O   0  0  0  0  0  0  0  0  0  0  0  0
  -28.6357  -21.2702   19.3286 O   0  0  0  0  0  0  0  0  0  0  0  0
  -22.2415  -20.6377   20.9878 O   0  0  0  0  0  0  0  0  0  1  0  0
  -33.1184  -21.1579   22.5375 F   0  0  0  0  0  0  0  0  0  0  0  0
  -28.5115  -22.0837   21.9678 F   0  0  0  0  0  0  0  0  0  0  0  0
  -17.8419  -26.5691   22.1417 S   0  0  0  0  0  0  0  0  0  0  0  0
  1  2  1  0  0  0  0
  1  5  2  0  0  0  0
  2  6  2  0  0  0  0
  3  8  2  0  0  0  0
  3 15  1  0  0  0  0
  4  9  1  0  0  0  0
  4 15  2  0  0  0  0
  5 17  1  0  0  0  0
  6 19  1  0  0  0  0
  7 10  2  0  0  0  0
  7 18  1  0  0  0  0
  8 21  1  0  0  0  0
  9 21  2  0  0  0  0
 10 22  1  0  0  0  0
 11 12  2  0  0  0  0
 11 23  1  0  0  0  0
 12 24  1  0  0  0  0
 13 20  1  0  0  0  0
 13 22  2  0  0  0  0
 14 24  2  0  0  0  0
 14 25  1  0  0  0  0
 15 26  1  0  0  0  0
 16 26  1  0  0  0  0
 16 29  2  0  0  0  0
 16 31  1  0  0  0  0
 17 19  2  0  0  0  0
 17 36  1  0  0  0  0
 18 20  2  0  0  0  0
 18 37  1  0  0  0  0
 19 45  1  0  0  0  0
 20 38  1  0  0  0  0
 21 79  1  0  0  0  0
 22 80  1  0  0  0  0
 23 25  2  0  0  0  0
 23 79  1  0  0  0  0
 24 81  1  0  0  0  0
 25 82  1  0  0  0  0
 26 61  2  0  0  0  0
 27 28  2  0  0  0  0
 27 54  1  0  0  0  0
 27 62  1  0  0  0  0
 28 48  1  0  0  0  0
 28 83  1  0  0  0  0
 29 63  1  0  0  0  0
 29 66  1  0  0  0  0
 30 62  2  0  0  0  0
 30 68  1  0  0  0  0
 30 83  1  0  0  0  0
 31 67  1  0  0  0  0
 31 73  2  0  0  0  0
 32 46  1  0  0  0  0
 32 69  1  0  0  0  0
 32 74  2  0  0  0  0
 33 57  1  0  0  0  0
 33 64  1  0  0  0  0
 33 75  2  0  0  0  0
 34 58  1  0  0  0  0
 34 70  1  0  0  0  0
 34 76  2  0  0  0  0
 35 65  1  0  0  0  0
 35 71  1  0  0  0  0
 35 77  2  0  0  0  0
 36 39  1  0  0  0  0
 37 46  1  0  0  0  0
 38 64  1  0  0  0  0
 39 41  1  0  0  0  0
 40 42  1  0  0  0  0
 40 43  1  0  0  0  0
 41 45  1  0  0  0  0
 42 47  1  0  0  0  0
 43 65  1  0  0  0  0
 44 47  1  0  0  0  0
 44 65  1  0  0  0  0
 45 69  1  0  0  0  0
 46 64  1  0  0  0  0
 47 63  1  0  0  0  0
 49 58  1  0  0  0  0
 50 60  1  0  0  0  0
 51 60  1  0  0  0  0
 52 60  1  0  0  0  0
 53 72  1  0  0  0  0
 54 71  1  0  0  0  0
 55 59  1  0  0  0  0
 55 68  1  0  0  0  0
 56 59  1  0  0  0  0
 56 80  1  0  0  0  0
 57 60  1  0  0  0  0
 57 70  1  0  0  0  0
 58 72  1  0  0  0  0
 59 78  1  0  0  0  0
 61 63  1  0  0  0  0
M  CHG  1  72   1
M  ISO  4  35 100  56 101  71 100  80 101
M  END
> <Batch ID>
0192

> <Smiles>
CNC(C)C(=O)NC(C(=O)N1Cc2cc([101O:1][101CH2:1]C(O)CNc3nc(C[100NH:0][100C:0](=O)N4CCCC(n5nc(-c6ccc(Oc7ccc(F)cc7F)cc6)c(C(N)=O)c5N)C4)c(C)s3)ccc2CC1C(=O)NC1CCCc2ccccc21)C(C)(C)C

> <Shape>
0.215

> <Color>
0.083

> <Negative vol penalty>
0.000

$$$$

  -OEChem-04052305273D

 86 94  0     1  0  0  0  0  0999 V2000
  -29.7663  -23.8997   17.6659 C   0  0  0  0  0  0  0  0  0  0  0  0
  -28.5385  -23.9782   18.3152 C   0  0  0  0  0  0  0  0  0  0  0  0
  -28.2820  -14.3156   19.3184 C   0  0  0  0  0  0  0  0  0  0  0  0
  -26.2194  -15.3556   20.0263 C   0  0  0  0  0  0  0  0  0  0  0  0
  -30.8436  -24.6593   18.1201 C   0  0  0  0  0  0  0  0  0  0  0  0
  -28.3875  -24.8157   19.4199 C   0  0  0  0  0  0  0  0  0  0  0  0
  -24.1046  -27.5120   19.2427 C   0  0  0  0  0  0  0  0  0  0  0  0
  -27.7726  -13.0657   19.6703 C   0  0  0  0  0  0  0  0  0  0  0  0
  -25.7100  -14.1057   20.3782 C   0  0  0  0  0  0  0  0  0  0  0  0
  -22.9241  -26.8555   19.5882 C   0  0  0  0  0  0  0  0  0  0  0  0
  -24.3493  -11.4405   18.8079 C   0  0  0  0  0  0  0  0  0  0  0  0
  -23.0430  -11.1423   18.4203 C   0  0  0  0  0  0  0  0  0  0  0  0
  -23.0223  -27.8477   21.7848 C   0  0  0  0  0  0  0  0  0  0  0  0
  -22.4219  -10.8517   20.7369 C   0  0  0  0  0  0  0  0  0  0  0  0
  -26.8477  -24.8598   24.4571 C   0  0  0  0  0  0  0  0  0  0  0  0
  -27.5055  -15.4606   19.4965 C   0  0  0  0  0  0  0  0  0  0  0  0
  -27.9255  -17.3928   17.8848 C   0  0  0  0  0  0  0  0  0  0  0  0
  -30.7031  -25.5138   19.2250 C   0  0  0  0  0  0  0  0  0  0  0  0
  -24.7597  -28.3340   20.1709 C   0  0  0  0  0  0  0  0  0  0  0  0
  -29.4643  -25.5865   19.8901 C   0  0  0  0  0  0  0  0  0  0  0  0
  -24.2095  -28.5155   21.4478 C   0  0  0  0  0  0  0  0  0  0  0  0
  -26.4866  -12.9607   20.2001 C   0  0  0  0  0  0  0  0  0  0  0  0
  -22.3844  -27.0210   20.8603 C   0  0  0  0  0  0  0  0  0  0  0  0
  -24.6919  -11.4442   20.1601 C   0  0  0  0  0  0  0  0  0  0  0  0
  -22.0793  -10.8479   19.3848 C   0  0  0  0  0  0  0  0  0  0  0  0
  -23.7282  -11.1498   21.1246 C   0  0  0  0  0  0  0  0  0  0  0  0
  -28.0314  -16.7521   19.1338 C   0  0  0  0  0  0  0  0  0  0  0  0
  -25.6232  -24.3173   24.1279 C   0  0  0  0  0  0  0  0  0  0  0  0
  -28.5843  -18.5861   18.0540 C   0  0  0  0  0  0  0  0  0  0  0  0
  -27.5522  -23.0532   23.4325 C   0  0  0  0  0  0  0  0  0  0  0  0
  -27.2886  -16.9491   16.6793 C   0  0  0  0  0  0  0  0  0  0  0  0
  -27.6104  -28.3015   21.5766 C   0  0  0  0  0  0  0  0  0  0  0  0
  -21.4092  -24.3408   24.9986 C   0  0  0  0  0  0  0  0  0  0  0  0
  -26.6416  -31.1745   22.7298 C   0  0  0  0  0  0  0  0  0  0  0  0
  -24.0552  -33.2507   23.5340 C   0  0  0  0  0  0  0  0  0  0  0  0
  -29.7462  -21.9638   22.8443 C   0  0  0  0  0  0  0  0  0  0  0  0
  -31.9091  -26.2798   19.7083 C   0  0  0  0  0  0  0  0  0  0  0  0
  -26.0178  -29.0564   19.7738 C   0  0  0  0  0  0  0  0  0  0  0  0
  -24.8631  -29.4033   22.4740 C   0  0  0  0  0  0  0  0  0  0  0  0
  -31.5634  -27.4255   20.6560 C   0  0  0  0  0  0  0  0  0  0  0  0
  -32.1261  -20.5821   20.5850 C   0  0  0  0  0  0  0  0  0  0  0  0
  -30.5706  -26.9600   21.7164 C   0  0  0  0  0  0  0  0  0  0  0  0
  -31.3348  -19.5056   19.8386 C   0  0  0  0  0  0  0  0  0  0  0  0
  -31.7159  -20.6713   22.0539 C   0  0  0  0  0  0  0  0  0  0  0  0
  -29.4845  -19.7619   21.5408 C   0  0  0  0  0  0  0  0  0  0  0  0
  -29.2544  -26.5021   21.0766 C   0  0  1  0  0  0  0  0  0  0  0  0
  -26.8759  -29.4625   20.9681 C   0  0  1  0  0  0  0  0  0  0  0  0
  -29.8169  -19.6790   20.0421 C   0  0  2  0  0  0  0  0  0  0  0  0
  -20.1236  -24.6447   27.1549 C   0  0  0  0  0  0  0  0  0  0  0  0
  -23.5754  -35.5201   24.4917 C   0  0  0  0  0  0  0  0  0  0  0  0
  -20.2094  -24.4971   20.1196 C   0  0  0  0  0  0  0  0  0  0  0  0
  -27.2808  -30.1279   25.5237 C   0  0  0  0  0  0  0  0  0  0  0  0
  -25.9242  -32.0106   26.4635 C   0  0  0  0  0  0  0  0  0  0  0  0
  -27.9658  -32.4983   25.1157 C   0  0  0  0  0  0  0  0  0  0  0  0
  -22.7030  -34.1386   21.0556 C   0  0  0  0  0  0  0  0  0  0  0  0
  -24.2402  -24.8295   24.4036 C   0  0  0  0  0  0  0  0  0  0  0  0
  -20.4973  -25.2462   25.8119 C   0  0  0  0  0  0  0  0  0  0  0  0
  -20.9232  -24.3938   22.5352 C   0  0  0  0  0  0  0  0  0  0  0  0
  -21.8602  -24.8795   23.6475 C   0  0  2  0  0  0  0  0  0  0  0  0
  -25.8912  -31.6366   23.9555 C   0  0  1  0  0  0  0  0  0  0  0  0
  -23.8045  -34.7151   23.2220 C   0  0  2  0  0  0  0  0  0  0  0  0
  -21.2409  -24.9550   21.1435 C   0  0  2  0  0  0  0  0  0  1  0  0
  -26.7540  -31.5500   25.2461 C   0  0  0  0  0  0  0  0  0  0  0  0
  -27.9550  -24.1362   24.0595 N   0  0  0  0  0  0  0  0  0  0  0  0
  -28.7046  -17.4781   20.0303 N   0  0  0  0  0  0  0  0  0  0  0  0
  -29.0277  -18.5873   19.3438 N   0  0  0  0  0  0  0  0  0  0  0  0
  -26.0949  -30.0830   22.0401 N   0  0  0  0  0  0  0  0  0  0  0  0
  -30.2656  -20.8392   22.1688 N   0  0  0  0  0  0  0  0  0  0  0  0
  -28.8218  -19.6238   17.2239 N   0  0  0  0  0  0  0  0  0  0  0  0
  -26.6581  -15.6974   16.6786 N   0  0  0  0  0  0  0  0  0  0  0  0
  -28.3535  -22.0336   22.8615 N   0  0  0  0  0  0  0  0  0  0  0  0
  -28.4516  -27.6453   20.6984 N   0  0  0  0  0  0  0  0  0  0  0  0
  -25.4013  -32.9770   23.6531 N   0  0  0  0  0  0  0  0  0  0  0  0
  -22.6047  -34.8609   22.3501 N   0  3  0  0  0  0  0  0  0  0  0  0
  -23.2534  -24.4260   23.3696 N   0  3  0  0  0  0  0  0  0  0  0  0
  -27.2930  -17.6349   15.6290 O   0  0  0  0  0  0  0  0  0  0  0  0
  -27.4285  -28.0227   22.7560 O   0  0  0  0  0  0  0  0  0  0  0  0
  -21.7517  -23.2278   25.3979 O   0  0  0  0  0  0  0  0  0  0  0  0
  -27.6707  -31.7649   22.3924 O   0  0  0  0  0  0  0  0  0  0  0  0
  -23.1474  -32.4323   23.6631 O   0  0  0  0  0  0  0  0  0  0  0  0
  -30.4828  -22.8172   23.3453 O   0  0  0  0  0  0  0  0  0  0  0  0
  -25.9891  -11.7412   20.5433 O   0  0  0  0  0  0  0  0  0  0  0  0
  -21.2326  -26.3808   21.2004 O   0  0  0  0  0  0  0  0  0  1  0  0
  -20.8245  -10.5631   19.0125 F   0  0  0  0  0  0  0  0  0  0  0  0
  -24.0512  -11.1530   22.4251 F   0  0  0  0  0  0  0  0  0  0  0  0
  -25.8556  -22.8422   23.2845 S   0  0  0  0  0  0  0  0  0  0  0  0
  1  2  1  0  0  0  0
  1  5  2  0  0  0  0
  2  6  2  0  0  0  0
  3  8  2  0  0  0  0
  3 16  1  0  0  0  0
  4  9  1  0  0  0  0
  4 16  2  0  0  0  0
  5 18  1  0  0  0  0
  6 20  1  0  0  0  0
  7 10  2  0  0  0  0
  7 19  1  0  0  0  0
  8 22  1  0  0  0  0
  9 22  2  0  0  0  0
 10 23  1  0  0  0  0
 11 12  2  0  0  0  0
 11 24  1  0  0  0  0
 12 25  1  0  0  0  0
 13 21  1  0  0  0  0
 13 23  2  0  0  0  0
 14 25  2  0  0  0  0
 14 26  1  0  0  0  0
 15 28  2  0  0  0  0
 15 64  1  0  0  0  0
 16 27  1  0  0  0  0
 17 27  1  0  0  0  0
 17 29  2  0  0  0  0
 17 31  1  0  0  0  0
 18 20  2  0  0  0  0
 18 37  1  0  0  0  0
 19 21  2  0  0  0  0
 19 38  1  0  0  0  0
 20 46  1  0  0  0  0
 21 39  1  0  0  0  0
 22 82  1  0  0  0  0
 23 83  1  0  0  0  0
 24 26  2  0  0  0  0
 24 82  1  0  0  0  0
 25 84  1  0  0  0  0
 26 85  1  0  0  0  0
 27 65  2  0  0  0  0
 28 56  1  0  0  0  0
 28 86  1  0  0  0  0
 29 66  1  0  0  0  0
 29 69  1  0  0  0  0
 30 64  2  0  0  0  0
 30 71  1  0  0  0  0
 30 86  1  0  0  0  0
 31 70  1  0  0  0  0
 31 76  2  0  0  0  0
 32 47  1  0  0  0  0
 32 72  1  0  0  0  0
 32 77  2  0  0  0  0
 33 57  1  0  0  0  0
 33 59  1  0  0  0  0
 33 78  2  0  0  0  0
 34 60  1  0  0  0  0
 34 67  1  0  0  0  0
 34 79  2  0  0  0  0
 35 61  1  0  0  0  0
 35 73  1  0  0  0  0
 35 80  2  0  0  0  0
 36 68  1  0  0  0  0
 36 71  1  0  0  0  0
 36 81  2  0  0  0  0
 37 40  1  0  0  0  0
 38 47  1  0  0  0  0
 39 67  1  0  0  0  0
 40 42  1  0  0  0  0
 41 43  1  0  0  0  0
 41 44  1  0  0  0  0
 42 46  1  0  0  0  0
 43 48  1  0  0  0  0
 44 68  1  0  0  0  0
 45 48  1  0  0  0  0
 45 68  1  0  0  0  0
 46 72  1  0  0  0  0
 47 67  1  0  0  0  0
 48 66  1  0  0  0  0
 49 57  1  0  0  0  0
 50 61  1  0  0  0  0
 51 62  1  0  0  0  0
 52 63  1  0  0  0  0
 53 63  1  0  0  0  0
 54 63  1  0  0  0  0
 55 74  1  0  0  0  0
 56 75  1  0  0  0  0
 58 59  1  0  0  0  0
 58 62  1  0  0  0  0
 59 75  1  0  0  0  0
 60 63  1  0  0  0  0
 60 73  1  0  0  0  0
 61 74  1  0  0  0  0
 62 83  1  0  0  0  0
 65 66  1  0  0  0  0
M  CHG  2  74   1  75   1
M  ISO  4  36 100  62 101  71 100  83 101
M  END
> <Batch ID>
0192

> <Smiles>
CCC(=O)C(C[101CH:1](C)[101O:1]c1ccc2c(c1)CN(C(=O)C(NC(=O)C(C)NC)C(C)(C)C)C(C(=O)NC1CCCc3ccccc31)C2)NCc1cnc([100NH:0][100C:0](=O)N2CCCC(n3nc(-c4ccc(Oc5ccc(F)cc5F)cc4)c(C(N)=O)c3N)C2)s1

> <Shape>
0.273

> <Color>
0.059

> <Negative vol penalty>
0.000

$$$$

  -OEChem-04052305273D

 81 89  0     1  0  0  0  0  0999 V2000
  -32.8586  -17.3167   21.7022 C   0  0  0  0  0  0  0  0  0  0  0  0
  -32.0606  -18.2057   22.4150 C   0  0  0  0  0  0  0  0  0  0  0  0
  -28.4026  -25.9120   18.6069 C   0  0  0  0  0  0  0  0  0  0  0  0
  -26.2623  -24.7913   18.6125 C   0  0  0  0  0  0  0  0  0  0  0  0
  -32.4424  -16.8545   20.4544 C   0  0  0  0  0  0  0  0  0  0  0  0
  -30.8463  -18.6341   21.8799 C   0  0  0  0  0  0  0  0  0  0  0  0
  -24.2457  -20.5814   23.8690 C   0  0  0  0  0  0  0  0  0  0  0  0
  -29.0471  -24.6820   18.7376 C   0  0  0  0  0  0  0  0  0  0  0  0
  -26.9068  -23.5611   18.7431 C   0  0  0  0  0  0  0  0  0  0  0  0
  -23.3330  -21.6217   23.7006 C   0  0  0  0  0  0  0  0  0  0  0  0
  -31.2405  -21.8658   19.4316 C   0  0  0  0  0  0  0  0  0  0  0  0
  -32.2785  -21.7711   20.3586 C   0  0  0  0  0  0  0  0  0  0  0  0
  -22.6788  -20.6952   21.5716 C   0  0  0  0  0  0  0  0  0  0  0  0
  -30.7503  -22.3707   22.1312 C   0  0  0  0  0  0  0  0  0  0  0  0
  -18.3248  -26.2412   23.0725 C   0  0  0  0  0  0  0  0  0  0  0  0
  -27.0102  -25.9667   18.5444 C   0  0  0  0  0  0  0  0  0  0  0  0
  -25.9971  -27.8928   17.2134 C   0  0  0  0  0  0  0  0  0  0  0  0
  -31.2178  -17.2699   19.9079 C   0  0  0  0  0  0  0  0  0  0  0  0
  -24.3899  -19.5945   22.8832 C   0  0  0  0  0  0  0  0  0  0  0  0
  -30.4139  -18.1781   20.6229 C   0  0  0  0  0  0  0  0  0  0  0  0
  -23.5922  -19.6420   21.7310 C   0  0  0  0  0  0  0  0  0  0  0  0
  -28.2992  -23.5065   18.8057 C   0  0  0  0  0  0  0  0  0  0  0  0
  -22.5514  -21.6804   22.5505 C   0  0  0  0  0  0  0  0  0  0  0  0
  -29.9574  -22.2131   19.8544 C   0  0  0  0  0  0  0  0  0  0  0  0
  -32.0334  -22.0235   21.7083 C   0  0  0  0  0  0  0  0  0  0  0  0
  -29.7123  -22.4655   21.2042 C   0  0  0  0  0  0  0  0  0  0  0  0
  -26.3438  -27.2371   18.4099 C   0  0  0  0  0  0  0  0  0  0  0  0
  -19.4629  -26.0363   22.3209 C   0  0  0  0  0  0  0  0  0  0  0  0
  -25.3889  -29.0545   17.6222 C   0  0  0  0  0  0  0  0  0  0  0  0
  -19.6952  -28.1853   22.6920 C   0  0  0  0  0  0  0  0  0  0  0  0
  -26.2061  -27.4880   15.8539 C   0  0  0  0  0  0  0  0  0  0  0  0
  -26.7667  -18.6288   21.0065 C   0  0  0  0  0  0  0  0  0  0  0  0
  -24.6534  -16.3105   20.1806 C   0  0  0  0  0  0  0  0  0  0  0  0
  -21.4001  -15.3086   19.9382 C   0  0  0  0  0  0  0  0  0  0  0  0
  -22.5038  -30.6005   22.6359 C   0  0  0  0  0  0  0  0  0  0  0  0
  -30.8323  -16.7800   18.5346 C   0  0  0  0  0  0  0  0  0  0  0  0
  -25.3599  -18.4640   23.0921 C   0  0  0  0  0  0  0  0  0  0  0  0
  -23.6942  -18.5959   20.6522 C   0  0  0  0  0  0  0  0  0  0  0  0
  -29.3568  -16.9910   18.2047 C   0  0  0  0  0  0  0  0  0  0  0  0
  -25.3593  -32.1965   21.2302 C   0  0  0  0  0  0  0  0  0  0  0  0
  -28.9225  -18.4040   18.5808 C   0  0  0  0  0  0  0  0  0  0  0  0
  -25.9041  -31.1656   20.2401 C   0  0  0  0  0  0  0  0  0  0  0  0
  -24.7943  -31.5315   22.4835 C   0  0  0  0  0  0  0  0  0  0  0  0
  -24.3298  -29.4559   21.2386 C   0  0  0  0  0  0  0  0  0  0  0  0
  -29.0785  -18.6466   20.0869 C   0  0  1  0  0  0  0  0  0  0  0  0
  -25.7900  -17.7973   21.7891 C   0  0  1  0  0  0  0  0  0  0  0  0
  -24.8595  -30.0754   19.9341 C   0  0  2  0  0  0  0  0  0  0  0  0
  -19.9846  -13.3761   19.1905 C   0  0  0  0  0  0  0  0  0  0  0  0
  -20.7562  -25.0609   19.5897 C   0  0  0  0  0  0  0  0  0  0  0  0
  -25.1113  -17.1043   17.2703 C   0  0  0  0  0  0  0  0  0  0  0  0
  -23.0311  -15.8459   16.6725 C   0  0  0  0  0  0  0  0  0  0  0  0
  -24.9734  -14.6394   17.6700 C   0  0  0  0  0  0  0  0  0  0  0  0
  -20.2876  -14.9228   22.6535 C   0  0  0  0  0  0  0  0  0  0  0  0
  -20.2535  -29.5548   22.6791 C   0  0  0  0  0  0  0  0  0  0  0  0
  -21.3863  -23.1050   21.0442 C   0  0  0  0  0  0  0  0  0  1  0  0
  -23.5819  -16.1667   19.1271 C   0  0  1  0  0  0  0  0  0  0  0  0
  -20.7071  -14.0256   20.3605 C   0  0  2  0  0  0  0  0  0  0  0  0
  -21.0164  -24.5864   21.0133 C   0  0  2  0  0  0  0  0  0  0  0  0
  -24.1736  -15.9600   17.7042 C   0  0  0  0  0  0  0  0  0  0  0  0
  -25.9857  -27.9251   19.4973 N   0  0  0  0  0  0  0  0  0  0  0  0
  -20.2497  -27.1501   22.1013 N   0  0  0  0  0  0  0  0  0  0  0  0
  -25.4078  -29.0253   18.9856 N   0  0  0  0  0  0  0  0  0  0  0  0
  -24.6617  -17.5141   20.8998 N   0  0  0  0  0  0  0  0  0  0  0  0
  -23.8087  -30.5091   22.1241 N   0  0  0  0  0  0  0  0  0  0  0  0
  -24.8452  -30.0879   16.9448 N   0  0  0  0  0  0  0  0  0  0  0  0
  -26.8467  -26.2651   15.6119 N   0  0  0  0  0  0  0  0  0  0  0  0
  -19.8223  -24.8049   21.8050 N   0  0  0  0  0  0  0  0  0  0  0  0
  -27.9938  -18.0233   20.8143 N   0  0  0  0  0  0  0  0  0  0  0  0
  -22.7114  -15.0851   19.5751 N   0  0  0  0  0  0  0  0  0  0  0  0
  -21.6308  -29.5943   22.2406 N   0  0  0  0  0  0  0  0  0  0  0  0
  -19.7101  -14.3041   21.4325 N   0  3  0  0  0  0  0  0  0  0  0  0
  -25.8504  -28.1975   14.8826 O   0  0  0  0  0  0  0  0  0  0  0  0
  -26.4312  -19.7371   20.6054 O   0  0  0  0  0  0  0  0  0  0  0  0
  -25.4493  -15.3860   20.3639 O   0  0  0  0  0  0  0  0  0  0  0  0
  -20.8337  -16.3992   19.9277 O   0  0  0  0  0  0  0  0  0  0  0  0
  -22.1421  -31.5141   23.3851 O   0  0  0  0  0  0  0  0  0  0  0  0
  -28.9278  -22.3060   18.9330 O   0  0  0  0  0  0  0  0  0  0  0  0
  -21.6602  -22.6951   22.3834 O   0  0  0  0  0  0  0  0  0  1  0  0
  -33.0299  -21.9309   22.5986 F   0  0  0  0  0  0  0  0  0  0  0  0
  -28.4815  -22.7984   21.6165 F   0  0  0  0  0  0  0  0  0  0  0  0
  -18.2267  -27.8912   23.5299 S   0  0  0  0  0  0  0  0  0  0  0  0
  1  2  1  0  0  0  0
  1  5  2  0  0  0  0
  2  6  2  0  0  0  0
  3  8  2  0  0  0  0
  3 16  1  0  0  0  0
  4  9  1  0  0  0  0
  4 16  2  0  0  0  0
  5 18  1  0  0  0  0
  6 20  1  0  0  0  0
  7 10  2  0  0  0  0
  7 19  1  0  0  0  0
  8 22  1  0  0  0  0
  9 22  2  0  0  0  0
 10 23  1  0  0  0  0
 11 12  2  0  0  0  0
 11 24  1  0  0  0  0
 12 25  1  0  0  0  0
 13 21  1  0  0  0  0
 13 23  2  0  0  0  0
 14 25  2  0  0  0  0
 14 26  1  0  0  0  0
 15 28  2  0  0  0  0
 15 81  1  0  0  0  0
 16 27  1  0  0  0  0
 17 27  1  0  0  0  0
 17 29  2  0  0  0  0
 17 31  1  0  0  0  0
 18 20  2  0  0  0  0
 18 36  1  0  0  0  0
 19 21  2  0  0  0  0
 19 37  1  0  0  0  0
 20 45  1  0  0  0  0
 21 38  1  0  0  0  0
 22 77  1  0  0  0  0
 23 78  1  0  0  0  0
 24 26  2  0  0  0  0
 24 77  1  0  0  0  0
 25 79  1  0  0  0  0
 26 80  1  0  0  0  0
 27 60  2  0  0  0  0
 28 61  1  0  0  0  0
 28 67  1  0  0  0  0
 29 62  1  0  0  0  0
 29 65  1  0  0  0  0
 30 54  1  0  0  0  0
 30 61  2  0  0  0  0
 30 81  1  0  0  0  0
 31 66  1  0  0  0  0
 31 72  2  0  0  0  0
 32 46  1  0  0  0  0
 32 68  1  0  0  0  0
 32 73  2  0  0  0  0
 33 56  1  0  0  0  0
 33 63  1  0  0  0  0
 33 74  2  0  0  0  0
 34 57  1  0  0  0  0
 34 69  1  0  0  0  0
 34 75  2  0  0  0  0
 35 64  1  0  0  0  0
 35 70  1  0  0  0  0
 35 76  2  0  0  0  0
 36 39  1  0  0  0  0
 37 46  1  0  0  0  0
 38 63  1  0  0  0  0
 39 41  1  0  0  0  0
 40 42  1  0  0  0  0
 40 43  1  0  0  0  0
 41 45  1  0  0  0  0
 42 47  1  0  0  0  0
 43 64  1  0  0  0  0
 44 47  1  0  0  0  0
 44 64  1  0  0  0  0
 45 68  1  0  0  0  0
 46 63  1  0  0  0  0
 47 62  1  0  0  0  0
 48 57  1  0  0  0  0
 49 58  1  0  0  0  0
 50 59  1  0  0  0  0
 51 59  1  0  0  0  0
 52 59  1  0  0  0  0
 53 71  1  0  0  0  0
 54 70  1  0  0  0  0
 55 58  1  0  0  0  0
 55 78  1  0  0  0  0
 56 59  1  0  0  0  0
 56 69  1  0  0  0  0
 57 71  1  0  0  0  0
 58 67  1  0  0  0  0
 60 62  1  0  0  0  0
M  CHG  1  71   1
M  ISO  4  35 100  55 101  70 100  78 101
M  END
> <Batch ID>
0192

> <Smiles>
CNC(C)C(=O)NC(C(=O)N1Cc2cc([101O:1][101CH2:1]C(C)Nc3csc(C[100NH:0][100C:0](=O)N4CCCC(n5nc(-c6ccc(Oc7ccc(F)cc7F)cc6)c(C(N)=O)c5N)C4)n3)ccc2CC1C(=O)NC1CCCc2ccccc21)C(C)(C)C

> <Shape>
0.191

> <Color>
0.074

> <Negative vol penalty>
0.000

$$$$

  -OEChem-04052305273D

 93101  0     1  0  0  0  0  0999 V2000
  -20.7505   -9.6623   24.0804 C   0  0  0  0  0  0  0  0  0  0  0  0
  -21.6825  -10.6494   24.3843 C   0  0  0  0  0  0  0  0  0  0  0  0
  -23.7957  -29.2127   20.5378 C   0  0  0  0  0  0  0  0  0  0  0  0
  -26.0730  -29.5577   21.2671 C   0  0  0  0  0  0  0  0  0  0  0  0
  -20.9092   -8.8845   22.9342 C   0  0  0  0  0  0  0  0  0  0  0  0
  -22.7745  -10.8586   23.5427 C   0  0  0  0  0  0  0  0  0  0  0  0
  -23.6156  -15.7692   22.6356 C   0  0  0  0  0  0  0  0  0  0  0  0
  -23.3525  -30.1361   21.4847 C   0  0  0  0  0  0  0  0  0  0  0  0
  -25.6299  -30.4812   22.2140 C   0  0  0  0  0  0  0  0  0  0  0  0
  -24.2552  -16.5009   23.6353 C   0  0  0  0  0  0  0  0  0  0  0  0
  -25.1360  -33.1975   24.5796 C   0  0  0  0  0  0  0  0  0  0  0  0
  -25.8431  -34.3937   24.7003 C   0  0  0  0  0  0  0  0  0  0  0  0
  -26.3401  -16.3026   22.4382 C   0  0  0  0  0  0  0  0  0  0  0  0
  -25.3577  -34.9137   22.3914 C   0  0  0  0  0  0  0  0  0  0  0  0
  -31.1879  -22.6531   23.9875 C   0  0  0  0  0  0  0  0  0  0  0  0
  -25.1560  -28.9235   20.4290 C   0  0  0  0  0  0  0  0  0  0  0  0
  -26.0001  -28.2317   18.1233 C   0  0  0  0  0  0  0  0  0  0  0  0
  -21.9984   -9.0907   22.0730 C   0  0  0  0  0  0  0  0  0  0  0  0
  -24.3370  -15.2886   21.5333 C   0  0  0  0  0  0  0  0  0  0  0  0
  -22.9486  -10.0819   22.3846 C   0  0  0  0  0  0  0  0  0  0  0  0
  -25.7069  -15.5673   21.4247 C   0  0  0  0  0  0  0  0  0  0  0  0
  -30.9458  -22.9728   22.6670 C   0  0  0  0  0  0  0  0  0  0  0  0
  -24.2696  -30.7703   22.3227 C   0  0  0  0  0  0  0  0  0  0  0  0
  -25.6182  -16.7653   23.5382 C   0  0  0  0  0  0  0  0  0  0  0  0
  -24.5398  -32.8592   23.3647 C   0  0  0  0  0  0  0  0  0  0  0  0
  -25.9539  -35.2518   23.6063 C   0  0  0  0  0  0  0  0  0  0  0  0
  -24.6506  -33.7174   22.2707 C   0  0  0  0  0  0  0  0  0  0  0  0
  -25.6143  -27.9693   19.4515 C   0  0  0  0  0  0  0  0  0  0  0  0
  -29.7462  -22.5231   22.1542 C   0  0  0  0  0  0  0  0  0  0  0  0
  -26.3490  -27.0031   17.6180 C   0  0  0  0  0  0  0  0  0  0  0  0
  -29.1968  -21.5676   24.1422 C   0  0  0  0  0  0  0  0  0  0  0  0
  -26.0397  -29.4748   17.4100 C   0  0  0  0  0  0  0  0  0  0  0  0
  -24.9920  -12.4057   20.3654 C   0  0  0  0  0  0  0  0  0  0  0  0
  -31.5931  -24.8450   19.8005 C   0  0  0  0  0  0  0  0  0  0  0  0
  -28.2177  -21.9518   20.2835 C   0  0  0  0  0  0  0  0  0  0  0  0
  -26.2963  -14.1144   17.9361 C   0  0  0  0  0  0  0  0  0  0  0  0
  -27.0408  -20.3214   24.5198 C   0  0  0  0  0  0  0  0  0  0  0  0
  -27.6786  -17.0480   16.8730 C   0  0  0  0  0  0  0  0  0  0  0  0
  -22.1533   -8.1934   20.8707 C   0  0  0  0  0  0  0  0  0  0  0  0
  -23.6270  -14.5237   20.4501 C   0  0  0  0  0  0  0  0  0  0  0  0
  -26.5224  -15.0911   20.2513 C   0  0  0  0  0  0  0  0  0  0  0  0
  -23.1358   -8.7298   19.8329 C   0  0  0  0  0  0  0  0  0  0  0  0
  -25.4071  -22.3444   18.0958 C   0  0  0  0  0  0  0  0  0  0  0  0
  -24.4178   -9.2070   20.5079 C   0  0  0  0  0  0  0  0  0  0  0  0
  -25.1589  -23.8523   18.0972 C   0  0  0  0  0  0  0  0  0  0  0  0
  -25.8886  -21.8565   19.4585 C   0  0  0  0  0  0  0  0  0  0  0  0
  -26.8550  -24.0766   19.9675 C   0  0  0  0  0  0  0  0  0  0  0  0
  -24.1330  -10.3555   21.4833 C   0  0  1  0  0  0  0  0  0  0  0  0
  -24.5634  -13.6431   19.6285 C   0  0  1  0  0  0  0  0  0  0  0  0
  -26.3966  -24.6157   18.6009 C   0  0  2  0  0  0  0  0  0  0  0  0
  -30.6278  -25.7034   17.6257 C   0  0  0  0  0  0  0  0  0  0  0  0
  -28.6321  -18.7264   15.2695 C   0  0  0  0  0  0  0  0  0  0  0  0
  -31.0079  -26.7851   23.7967 C   0  0  0  0  0  0  0  0  0  0  0  0
  -33.4170  -27.4500   23.6742 C   0  0  0  0  0  0  0  0  0  0  0  0
  -28.8631  -12.5199   18.3592 C   0  0  0  0  0  0  0  0  0  0  0  0
  -30.0753  -14.2461   17.0105 C   0  0  0  0  0  0  0  0  0  0  0  0
  -28.2544  -12.9005   15.9636 C   0  0  0  0  0  0  0  0  0  0  0  0
  -33.2191  -23.2066   21.6986 C   0  0  0  0  0  0  0  0  0  0  0  0
  -25.0028  -18.1525   16.2570 C   0  0  0  0  0  0  0  0  0  0  0  0
  -29.3742  -22.8074   20.7358 C   0  0  0  0  0  0  0  0  0  0  0  0
  -31.1796  -26.0661   18.9927 C   0  0  0  0  0  0  0  0  0  0  0  0
  -26.3675  -19.5844   25.6720 C   0  0  0  0  0  0  0  0  0  0  0  0
  -32.4385  -26.0917   21.7992 C   0  0  0  0  0  0  0  0  0  0  0  0
  -25.4657  -18.4498   25.2100 C   0  0  0  0  0  0  0  0  0  1  0  0
  -31.4997  -24.9806   21.3170 C   0  0  2  0  0  0  0  0  0  0  0  0
  -27.6612  -14.6911   17.6470 C   0  0  1  0  0  0  0  0  0  0  0  0
  -27.4116  -17.9009   15.6460 C   0  0  2  0  0  0  0  0  0  0  0  0
  -32.3978  -26.3643   23.3172 C   0  0  0  0  0  0  0  0  0  0  0  0
  -28.6988  -13.5968   17.2683 C   0  0  0  0  0  0  0  0  0  0  0  0
  -30.3322  -21.9494   24.7574 N   0  0  0  0  0  0  0  0  0  0  0  0
  -25.7089  -26.6756   19.7700 N   0  0  0  0  0  0  0  0  0  0  0  0
  -28.8449  -21.8151   22.8660 N   0  0  0  0  0  0  0  0  0  0  0  0
  -26.1580  -26.1141   18.6346 N   0  0  0  0  0  0  0  0  0  0  0  0
  -25.7841  -14.3419   19.2213 N   0  0  0  0  0  0  0  0  0  0  0  0
  -27.0517  -22.6213   19.9120 N   0  0  0  0  0  0  0  0  0  0  0  0
  -26.7973  -26.6072   16.4078 N   0  0  0  0  0  0  0  0  0  0  0  0
  -25.6476  -30.6420   18.0796 N   0  0  0  0  0  0  0  0  0  0  0  0
  -28.2749  -20.8270   24.9196 N   0  0  0  0  0  0  0  0  0  0  0  0
  -23.9448  -11.5961   20.7621 N   0  0  0  0  0  0  0  0  0  0  0  0
  -27.4651  -15.7093   16.6208 N   0  0  0  0  0  0  0  0  0  0  0  0
  -31.8700  -23.7066   21.9141 N   0  0  3  0  0  0  0  0  0  0  0  0
  -26.2750  -18.8310   15.8990 N   0  3  0  0  0  0  0  0  0  0  0  0
  -26.3961  -29.5460   16.2094 O   0  0  0  0  0  0  0  0  0  0  0  0
  -26.1845  -12.2001   20.5584 O   0  0  0  0  0  0  0  0  0  0  0  0
  -31.9986  -23.8138   19.2636 O   0  0  0  0  0  0  0  0  0  0  0  0
  -28.3497  -20.7253   20.2590 O   0  0  0  0  0  0  0  0  0  0  0  0
  -25.7034  -13.4914   17.0518 O   0  0  0  0  0  0  0  0  0  0  0  0
  -26.5176  -20.4225   23.4150 O   0  0  0  0  0  0  0  0  0  0  0  0
  -28.0439  -17.5215   17.9467 O   0  0  0  0  0  0  0  0  0  0  0  0
  -23.8375  -31.6716   23.2467 O   0  0  0  0  0  0  0  0  0  0  0  0
  -26.2450  -17.4787   24.5128 O   0  0  0  0  0  0  0  0  0  1  0  0
  -26.6316  -36.4013   23.7228 F   0  0  0  0  0  0  0  0  0  0  0  0
  -24.0790  -33.3984   21.1013 F   0  0  0  0  0  0  0  0  0  0  0  0
  1  2  1  0  0  0  0
  1  5  2  0  0  0  0
  2  6  2  0  0  0  0
  3  8  2  0  0  0  0
  3 16  1  0  0  0  0
  4  9  1  0  0  0  0
  4 16  2  0  0  0  0
  5 18  1  0  0  0  0
  6 20  1  0  0  0  0
  7 10  2  0  0  0  0
  7 19  1  0  0  0  0
  8 23  1  0  0  0  0
  9 23  2  0  0  0  0
 10 24  1  0  0  0  0
 11 12  2  0  0  0  0
 11 25  1  0  0  0  0
 12 26  1  0  0  0  0
 13 21  1  0  0  0  0
 13 24  2  0  0  0  0
 14 26  2  0  0  0  0
 14 27  1  0  0  0  0
 15 22  1  0  0  0  0
 15 70  2  0  0  0  0
 16 28  1  0  0  0  0
 17 28  1  0  0  0  0
 17 30  2  0  0  0  0
 17 32  1  0  0  0  0
 18 20  2  0  0  0  0
 18 39  1  0  0  0  0
 19 21  2  0  0  0  0
 19 40  1  0  0  0  0
 20 48  1  0  0  0  0
 21 41  1  0  0  0  0
 22 29  2  0  0  0  0
 22 81  1  0  0  0  0
 23 90  1  0  0  0  0
 24 91  1  0  0  0  0
 25 27  2  0  0  0  0
 25 90  1  0  0  0  0
 26 92  1  0  0  0  0
 27 93  1  0  0  0  0
 28 71  2  0  0  0  0
 29 60  1  0  0  0  0
 29 72  1  0  0  0  0
 30 73  1  0  0  0  0
 30 76  1  0  0  0  0
 31 70  1  0  0  0  0
 31 72  2  0  0  0  0
 31 78  1  0  0  0  0
 32 77  1  0  0  0  0
 32 83  2  0  0  0  0
 33 49  1  0  0  0  0
 33 79  1  0  0  0  0
 33 84  2  0  0  0  0
 34 61  1  0  0  0  0
 34 65  1  0  0  0  0
 34 85  2  0  0  0  0
 35 60  1  0  0  0  0
 35 75  1  0  0  0  0
 35 86  2  0  0  0  0
 36 66  1  0  0  0  0
 36 74  1  0  0  0  0
 36 87  2  0  0  0  0
 37 62  1  0  0  0  0
 37 78  1  0  0  0  0
 37 88  2  0  0  0  0
 38 67  1  0  0  0  0
 38 80  1  0  0  0  0
 38 89  2  0  0  0  0
 39 42  1  0  0  0  0
 40 49  1  0  0  0  0
 41 74  1  0  0  0  0
 42 44  1  0  0  0  0
 43 45  1  0  0  0  0
 43 46  1  0  0  0  0
 44 48  1  0  0  0  0
 45 50  1  0  0  0  0
 46 75  1  0  0  0  0
 47 50  1  0  0  0  0
 47 75  1  0  0  0  0
 48 79  1  0  0  0  0
 49 74  1  0  0  0  0
 50 73  1  0  0  0  0
 51 61  1  0  0  0  0
 52 67  1  0  0  0  0
 53 68  1  0  0  0  0
 54 68  1  0  0  0  0
 55 69  1  0  0  0  0
 56 69  1  0  0  0  0
 57 69  1  0  0  0  0
 58 81  1  0  0  0  0
 59 82  1  0  0  0  0
 62 64  1  0  0  0  0
 63 65  1  0  0  0  0
 63 68  1  0  0  0  0
 64 91  1  0  0  0  0
 65 81  1  0  0  0  0
 66 69  1  0  0  0  0
 66 80  1  0  0  0  0
 67 82  1  0  0  0  0
 71 73  1  0  0  0  0
M  CHG  1  82   1
M  ISO  4  35 100  60 100  64 101  91 101
M  END
> <Batch ID>
0192

> <Smiles>
CCC(=O)C(CC(C)C)N(C)c1cnc(NC(=O)C[101CH2:1][101O:1]c2ccc3c(c2)CN(C(=O)C(NC(=O)C(C)NC)C(C)(C)C)C(C(=O)NC2CCCc4ccccc42)C3)nc1[100CH2:0][100C:0](=O)N1CCCC(n2nc(-c3ccc(Oc4ccc(F)cc4F)cc3)c(C(N)=O)c2N)C1

> <Shape>
0.221

> <Color>
0.061

> <Negative vol penalty>
0.000

$$$$

  -OEChem-04052305273D

 82 90  0     1  0  0  0  0  0999 V2000
  -22.3108  -29.7065   22.2491 C   0  0  0  0  0  0  0  0  0  0  0  0
  -22.6854  -28.8118   23.2463 C   0  0  0  0  0  0  0  0  0  0  0  0
  -23.2015   -9.8525   19.9516 C   0  0  0  0  0  0  0  0  0  0  0  0
  -23.9147   -9.9287   22.2586 C   0  0  0  0  0  0  0  0  0  0  0  0
  -21.8722  -29.2292   21.0147 C   0  0  0  0  0  0  0  0  0  0  0  0
  -22.6205  -27.4390   23.0101 C   0  0  0  0  0  0  0  0  0  0  0  0
  -26.4170  -23.1478   25.1728 C   0  0  0  0  0  0  0  0  0  0  0  0
  -22.5106   -8.6674   20.2043 C   0  0  0  0  0  0  0  0  0  0  0  0
  -23.2237   -8.7437   22.5114 C   0  0  0  0  0  0  0  0  0  0  0  0
  -26.3225  -22.2689   26.2509 C   0  0  0  0  0  0  0  0  0  0  0  0
  -21.3501   -5.9302   23.8502 C   0  0  0  0  0  0  0  0  0  0  0  0
  -20.5740   -5.8654   25.0073 C   0  0  0  0  0  0  0  0  0  0  0  0
  -30.5566  -17.7108   23.4014 C   0  0  0  0  0  0  0  0  0  0  0  0
  -29.8105  -18.5940   24.1618 C   0  0  0  0  0  0  0  0  0  0  0  0
  -25.5128  -20.5468   24.7683 C   0  0  0  0  0  0  0  0  0  0  0  0
  -19.2501   -7.7283   24.2237 C   0  0  0  0  0  0  0  0  0  0  0  0
  -23.9036  -10.4831   20.9787 C   0  0  0  0  0  0  0  0  0  0  0  0
  -24.1228  -13.0202   20.8280 C   0  0  0  0  0  0  0  0  0  0  0  0
  -21.8111  -27.8501   20.7599 C   0  0  0  0  0  0  0  0  0  0  0  0
  -26.0492  -22.7354   23.8840 C   0  0  0  0  0  0  0  0  0  0  0  0
  -22.1794  -26.9428   21.7716 C   0  0  0  0  0  0  0  0  0  0  0  0
  -25.6061  -21.4216   23.6751 C   0  0  0  0  0  0  0  0  0  0  0  0
  -22.5217   -8.1130   21.4842 C   0  0  0  0  0  0  0  0  0  0  0  0
  -25.8676  -20.9691   26.0493 C   0  0  0  0  0  0  0  0  0  0  0  0
  -21.0764   -6.8942   22.8798 C   0  0  0  0  0  0  0  0  0  0  0  0
  -19.5239   -6.7644   25.1940 C   0  0  0  0  0  0  0  0  0  0  0  0
  -20.0263   -7.7932   23.0666 C   0  0  0  0  0  0  0  0  0  0  0  0
  -24.6180  -11.7070   20.7181 C   0  0  0  0  0  0  0  0  0  0  0  0
  -30.5846  -16.3869   23.7910 C   0  0  0  0  0  0  0  0  0  0  0  0
  -29.1416  -18.0947   25.2613 C   0  0  0  0  0  0  0  0  0  0  0  0
  -25.1837  -13.8178   20.4746 C   0  0  0  0  0  0  0  0  0  0  0  0
  -22.8205  -13.4782   21.2150 C   0  0  0  0  0  0  0  0  0  0  0  0
  -23.8458  -23.6449   21.7812 C   0  0  0  0  0  0  0  0  0  0  0  0
  -25.3612  -21.5160   19.8594 C   0  0  0  0  0  0  0  0  0  0  0  0
  -27.3313  -18.7418   19.5959 C   0  0  0  0  0  0  0  0  0  0  0  0
  -30.9477  -14.0610   20.9557 C   0  0  0  0  0  0  0  0  0  0  0  0
  -21.2855  -27.3809   19.4264 C   0  0  0  0  0  0  0  0  0  0  0  0
  -26.1824  -23.6874   22.7271 C   0  0  0  0  0  0  0  0  0  0  0  0
  -25.2181  -20.9235   22.3076 C   0  0  0  0  0  0  0  0  0  0  0  0
  -21.6020  -25.9177   19.1276 C   0  0  0  0  0  0  0  0  0  0  0  0
  -29.3544  -13.1339   17.9096 C   0  0  0  0  0  0  0  0  0  0  0  0
  -21.2883  -25.0455   20.3391 C   0  0  0  0  0  0  0  0  0  0  0  0
  -27.9246  -12.7935   18.3335 C   0  0  0  0  0  0  0  0  0  0  0  0
  -30.3728  -12.7053   18.9637 C   0  0  0  0  0  0  0  0  0  0  0  0
  -28.6796  -12.8743   20.7464 C   0  0  0  0  0  0  0  0  0  0  0  0
  -22.1464  -25.4469   21.5449 C   0  0  1  0  0  0  0  0  0  0  0  0
  -25.2930  -23.3180   21.5439 C   0  0  1  0  0  0  0  0  0  0  0  0
  -27.6122  -13.3379   19.7404 C   0  0  2  0  0  0  0  0  0  0  0  0
  -28.7179  -16.9673   18.4888 C   0  0  0  0  0  0  0  0  0  0  0  0
  -26.6044  -19.5739   29.2660 C   0  0  0  0  0  0  0  0  0  0  0  0
  -22.6479  -20.2035   19.3843 C   0  0  0  0  0  0  0  0  0  0  0  0
  -23.8523  -18.1971   18.4943 C   0  0  0  0  0  0  0  0  0  0  0  0
  -24.0833  -20.3994   17.3457 C   0  0  0  0  0  0  0  0  0  0  0  0
  -29.7807  -20.3959   19.7503 C   0  0  0  0  0  0  0  0  0  0  0  0
  -31.3714  -15.3945   23.0054 C   0  0  0  0  0  0  0  0  0  0  0  0
  -27.6499  -18.5929   27.1983 C   0  0  0  0  0  0  0  0  0  0  0  0
  -25.2174  -20.0401   19.5765 C   0  0  1  0  0  0  0  0  0  0  0  0
  -28.5619  -18.4566   18.7540 C   0  0  2  0  0  0  0  0  0  0  0  0
  -26.9765  -19.8188   27.8109 C   0  0  1  0  0  0  0  0  0  1  0  0
  -23.9556  -19.7197   18.7264 C   0  0  0  0  0  0  0  0  0  0  0  0
  -25.8940  -11.6682   20.3255 N   0  0  0  0  0  0  0  0  0  0  0  0
  -29.9202  -15.9259   24.8718 N   0  0  0  0  0  0  0  0  0  0  0  0
  -29.1867  -16.7939   25.6189 N   0  0  0  0  0  0  0  0  0  0  0  0
  -26.2097  -12.9670   20.1854 N   0  0  0  0  0  0  0  0  0  0  0  0
  -25.3598  -21.8939   21.2096 N   0  0  0  0  0  0  0  0  0  0  0  0
  -30.0198  -13.2560   20.2744 N   0  0  0  0  0  0  0  0  0  0  0  0
  -25.3296  -15.1570   20.3860 N   0  0  0  0  0  0  0  0  0  0  0  0
  -21.8481  -12.5247   21.5463 N   0  0  0  0  0  0  0  0  0  0  0  0
  -28.3979  -18.9798   26.0237 N   0  0  0  0  0  0  0  0  0  0  0  0
  -23.4894  -24.9260   21.4053 N   0  0  0  0  0  0  0  0  0  0  0  0
  -26.4728  -19.6174   18.9653 N   0  0  0  0  0  0  0  0  0  0  0  0
  -30.5309  -14.5476   22.1887 N   0  0  0  0  0  0  0  0  0  0  0  0
  -29.7882  -18.9413   19.4483 N   0  3  0  0  0  0  0  0  0  0  0  0
  -22.5227  -14.6962   21.2497 O   0  0  0  0  0  0  0  0  0  0  0  0
  -23.1068  -22.7972   22.2680 O   0  0  0  0  0  0  0  0  0  0  0  0
  -25.4778  -22.3037   18.9173 O   0  0  0  0  0  0  0  0  0  0  0  0
  -27.1481  -18.2355   20.7006 O   0  0  0  0  0  0  0  0  0  0  0  0
  -32.0627  -14.3308   20.4965 O   0  0  0  0  0  0  0  0  0  0  0  0
  -21.8474   -6.9568   21.7312 O   0  0  0  0  0  0  0  0  0  0  0  0
  -25.7737  -20.1094   27.1000 O   0  0  0  0  0  0  0  0  0  1  0  0
  -18.7777   -6.7010   26.3046 F   0  0  0  0  0  0  0  0  0  0  0  0
  -19.7578   -8.7207   22.1373 F   0  0  0  0  0  0  0  0  0  0  0  0
  1  2  1  0  0  0  0
  1  5  2  0  0  0  0
  2  6  2  0  0  0  0
  3  8  2  0  0  0  0
  3 17  1  0  0  0  0
  4  9  1  0  0  0  0
  4 17  2  0  0  0  0
  5 19  1  0  0  0  0
  6 21  1  0  0  0  0
  7 10  2  0  0  0  0
  7 20  1  0  0  0  0
  8 23  1  0  0  0  0
  9 23  2  0  0  0  0
 10 24  1  0  0  0  0
 11 12  2  0  0  0  0
 11 25  1  0  0  0  0
 12 26  1  0  0  0  0
 13 14  2  0  0  0  0
 13 29  1  0  0  0  0
 14 30  1  0  0  0  0
 15 22  1  0  0  0  0
 15 24  2  0  0  0  0
 16 26  2  0  0  0  0
 16 27  1  0  0  0  0
 17 28  1  0  0  0  0
 18 28  1  0  0  0  0
 18 31  2  0  0  0  0
 18 32  1  0  0  0  0
 19 21  2  0  0  0  0
 19 37  1  0  0  0  0
 20 22  2  0  0  0  0
 20 38  1  0  0  0  0
 21 46  1  0  0  0  0
 22 39  1  0  0  0  0
 23 79  1  0  0  0  0
 24 80  1  0  0  0  0
 25 27  2  0  0  0  0
 25 79  1  0  0  0  0
 26 81  1  0  0  0  0
 27 82  1  0  0  0  0
 28 61  2  0  0  0  0
 29 55  1  0  0  0  0
 29 62  2  0  0  0  0
 30 63  2  0  0  0  0
 30 69  1  0  0  0  0
 31 64  1  0  0  0  0
 31 67  1  0  0  0  0
 32 68  1  0  0  0  0
 32 74  2  0  0  0  0
 33 47  1  0  0  0  0
 33 70  1  0  0  0  0
 33 75  2  0  0  0  0
 34 57  1  0  0  0  0
 34 65  1  0  0  0  0
 34 76  2  0  0  0  0
 35 58  1  0  0  0  0
 35 71  1  0  0  0  0
 35 77  2  0  0  0  0
 36 66  1  0  0  0  0
 36 72  1  0  0  0  0
 36 78  2  0  0  0  0
 37 40  1  0  0  0  0
 38 47  1  0  0  0  0
 39 65  1  0  0  0  0
 40 42  1  0  0  0  0
 41 43  1  0  0  0  0
 41 44  1  0  0  0  0
 42 46  1  0  0  0  0
 43 48  1  0  0  0  0
 44 66  1  0  0  0  0
 45 48  1  0  0  0  0
 45 66  1  0  0  0  0
 46 70  1  0  0  0  0
 47 65  1  0  0  0  0
 48 64  1  0  0  0  0
 49 58  1  0  0  0  0
 50 59  1  0  0  0  0
 51 60  1  0  0  0  0
 52 60  1  0  0  0  0
 53 60  1  0  0  0  0
 54 73  1  0  0  0  0
 55 72  1  0  0  0  0
 56 59  1  0  0  0  0
 56 69  1  0  0  0  0
 57 60  1  0  0  0  0
 57 71  1  0  0  0  0
 58 73  1  0  0  0  0
 59 80  1  0  0  0  0
 61 64  1  0  0  0  0
 62 63  1  0  0  0  0
M  CHG  1  73   1
M  ISO  4  36 100  59 101  72 100  80 101
M  END
> <Batch ID>
0192

> <Smiles>
CNC(C)C(=O)NC(C(=O)N1Cc2cc([101O:1][101CH:1](C)CNc3ccc(C[100NH:0][100C:0](=O)N4CCCC(n5nc(-c6ccc(Oc7ccc(F)cc7F)cc6)c(C(N)=O)c5N)C4)nn3)ccc2CC1C(=O)NC1CCCc2ccccc21)C(C)(C)C

> <Shape>
0.219

> <Color>
0.180

> <Negative vol penalty>
0.000

$$$$

  -OEChem-04052305273D

 84 92  0     1  0  0  0  0  0999 V2000
  -17.8397  -31.7831   20.0905 C   0  0  0  0  0  0  0  0  0  0  0  0
  -19.1836  -31.7397   19.7336 C   0  0  0  0  0  0  0  0  0  0  0  0
  -26.4581  -13.0243   21.2953 C   0  0  0  0  0  0  0  0  0  0  0  0
  -25.5713  -14.0603   19.3010 C   0  0  0  0  0  0  0  0  0  0  0  0
  -17.4363  -31.3174   21.3412 C   0  0  0  0  0  0  0  0  0  0  0  0
  -20.1252  -31.2315   20.6279 C   0  0  0  0  0  0  0  0  0  0  0  0
  -25.1756  -28.0553   19.2458 C   0  0  0  0  0  0  0  0  0  0  0  0
  -25.2387  -12.3796   21.5027 C   0  0  0  0  0  0  0  0  0  0  0  0
  -24.3519  -13.4156   19.5083 C   0  0  0  0  0  0  0  0  0  0  0  0
  -26.5132  -28.4280   19.1205 C   0  0  0  0  0  0  0  0  0  0  0  0
  -23.6091   -9.6801   20.2821 C   0  0  0  0  0  0  0  0  0  0  0  0
  -23.6404   -8.3276   20.6217 C   0  0  0  0  0  0  0  0  0  0  0  0
  -26.9149  -27.7282   21.3939 C   0  0  0  0  0  0  0  0  0  0  0  0
  -22.5066   -8.8224   22.6970 C   0  0  0  0  0  0  0  0  0  0  0  0
  -27.8447  -22.6138   16.1575 C   0  0  0  0  0  0  0  0  0  0  0  0
  -26.6244  -13.8647   20.1945 C   0  0  0  0  0  0  0  0  0  0  0  0
  -28.9836  -14.0539   19.2426 C   0  0  0  0  0  0  0  0  0  0  0  0
  -18.3721  -30.7943   22.2474 C   0  0  0  0  0  0  0  0  0  0  0  0
  -24.6943  -27.5254   20.4516 C   0  0  0  0  0  0  0  0  0  0  0  0
  -19.7341  -30.7596   21.8924 C   0  0  0  0  0  0  0  0  0  0  0  0
  -25.5713  -27.3471   21.5311 C   0  0  0  0  0  0  0  0  0  0  0  0
  -28.3779  -23.8729   16.3436 C   0  0  0  0  0  0  0  0  0  0  0  0
  -24.1856  -12.5752   20.6092 C   0  0  0  0  0  0  0  0  0  0  0  0
  -27.3824  -28.2673   20.1956 C   0  0  0  0  0  0  0  0  0  0  0  0
  -23.0266  -10.6038   21.1500 C   0  0  0  0  0  0  0  0  0  0  0  0
  -23.0892   -7.8987   21.8291 C   0  0  0  0  0  0  0  0  0  0  0  0
  -22.4754  -10.1750   22.3574 C   0  0  0  0  0  0  0  0  0  0  0  0
  -27.8837  -14.5314   19.9801 C   0  0  0  0  0  0  0  0  0  0  0  0
  -29.0822  -24.0557   17.5161 C   0  0  0  0  0  0  0  0  0  0  0  0
  -29.9227  -15.0512   19.3421 C   0  0  0  0  0  0  0  0  0  0  0  0
  -28.6909  -21.9067   18.1452 C   0  0  0  0  0  0  0  0  0  0  0  0
  -29.1423  -12.8192   18.5312 C   0  0  0  0  0  0  0  0  0  0  0  0
  -22.5082  -28.4176   22.5797 C   0  0  0  0  0  0  0  0  0  0  0  0
  -23.1790  -25.5311   23.8990 C   0  0  0  0  0  0  0  0  0  0  0  0
  -30.3961  -25.7162   18.8795 C   0  0  0  0  0  0  0  0  0  0  0  0
  -25.4005  -22.9701   24.2897 C   0  0  0  0  0  0  0  0  0  0  0  0
  -29.5415  -20.9356   20.3085 C   0  0  0  0  0  0  0  0  0  0  0  0
  -17.8948  -30.3464   23.6062 C   0  0  0  0  0  0  0  0  0  0  0  0
  -23.2549  -27.1033   20.5620 C   0  0  0  0  0  0  0  0  0  0  0  0
  -25.1090  -26.7640   22.8405 C   0  0  0  0  0  0  0  0  0  0  0  0
  -18.9050  -29.4772   24.3506 C   0  0  0  0  0  0  0  0  0  0  0  0
  -31.3532  -18.5704   22.2581 C   0  0  0  0  0  0  0  0  0  0  0  0
  -20.2977  -30.0952   24.2771 C   0  0  0  0  0  0  0  0  0  0  0  0
  -30.7735  -17.2224   21.8236 C   0  0  0  0  0  0  0  0  0  0  0  0
  -30.2825  -19.6589   22.3075 C   0  0  0  0  0  0  0  0  0  0  0  0
  -28.9153  -18.4634   20.6430 C   0  0  0  0  0  0  0  0  0  0  0  0
  -20.7821  -30.1927   22.8254 C   0  0  1  0  0  0  0  0  0  0  0  0
  -22.7558  -27.0525   22.0027 C   0  0  1  0  0  0  0  0  0  0  0  0
  -29.9683  -17.3505   20.5156 C   0  0  2  0  0  0  0  0  0  0  0  0
  -28.1857  -24.9384   15.3254 C   0  0  0  0  0  0  0  0  0  0  0  0
  -25.6809  -20.7664   25.4570 C   0  0  0  0  0  0  0  0  0  0  0  0
  -23.6894  -26.9918   26.5288 C   0  0  0  0  0  0  0  0  0  0  0  0
  -24.8554  -24.9390   27.3621 C   0  0  0  0  0  0  0  0  0  0  0  0
  -22.4374  -24.8389   26.7572 C   0  0  0  0  0  0  0  0  0  0  0  0
  -25.6829  -21.5169   21.7270 C   0  0  0  0  0  0  0  0  0  0  0  0
  -30.8227  -27.1720   18.7511 C   0  0  0  0  0  0  0  0  0  0  0  0
  -30.9618  -27.8646   20.1023 C   0  0  0  0  0  0  0  0  0  0  0  0
  -29.6387  -27.9033   20.8532 C   0  0  0  0  0  0  0  0  0  1  0  0
  -24.1672  -25.0274   24.9230 C   0  0  1  0  0  0  0  0  0  0  0  0
  -25.2318  -21.4652   24.1831 C   0  0  2  0  0  0  0  0  0  0  0  0
  -23.7960  -25.4621   26.3689 C   0  0  0  0  0  0  0  0  0  0  0  0
  -27.9824  -21.6034   17.0409 N   0  0  0  0  0  0  0  0  0  0  0  0
  -28.1024  -15.7381   20.5092 N   0  0  0  0  0  0  0  0  0  0  0  0
  -29.2589  -23.0910   18.4426 N   0  0  0  0  0  0  0  0  0  0  0  0
  -29.3506  -16.0273   20.1038 N   0  0  0  0  0  0  0  0  0  0  0  0
  -23.6911  -26.3725   22.9011 N   0  0  0  0  0  0  0  0  0  0  0  0
  -29.5638  -19.7251   21.0331 N   0  0  0  0  0  0  0  0  0  0  0  0
  -31.1739  -15.1796   18.8516 N   0  0  0  0  0  0  0  0  0  0  0  0
  -28.0785  -11.9067   18.5311 N   0  0  0  0  0  0  0  0  0  0  0  0
  -29.6542  -25.3253   17.7684 N   0  0  0  0  0  0  0  0  0  0  0  0
  -28.8554  -20.8693   19.0963 N   0  0  0  0  0  0  0  0  0  0  0  0
  -21.2330  -28.9004   22.3553 N   0  0  0  0  0  0  0  0  0  0  0  0
  -24.2486  -23.5828   24.7356 N   0  0  0  0  0  0  0  0  0  0  0  0
  -26.0357  -20.9331   23.0467 N   0  3  0  0  0  0  0  0  0  0  0  0
  -30.2023  -12.5265   17.9276 O   0  0  0  0  0  0  0  0  0  0  0  0
  -23.4070  -28.9898   23.1850 O   0  0  0  0  0  0  0  0  0  0  0  0
  -21.9976  -25.1849   23.9773 O   0  0  0  0  0  0  0  0  0  0  0  0
  -30.6958  -25.0333   19.8532 O   0  0  0  0  0  0  0  0  0  0  0  0
  -26.4504  -23.5442   24.0093 O   0  0  0  0  0  0  0  0  0  0  0  0
  -30.1139  -21.9484   20.7191 O   0  0  0  0  0  0  0  0  0  0  0  0
  -22.9957  -11.9461   20.8111 O   0  0  0  0  0  0  0  0  0  0  0  0
  -28.6883  -28.6309   20.0762 O   0  0  0  0  0  0  0  0  0  1  0  0
  -23.1179   -6.5997   22.1544 F   0  0  0  0  0  0  0  0  0  0  0  0
  -21.9134  -11.0575   23.1947 F   0  0  0  0  0  0  0  0  0  0  0  0
  1  2  1  0  0  0  0
  1  5  2  0  0  0  0
  2  6  2  0  0  0  0
  3  8  2  0  0  0  0
  3 16  1  0  0  0  0
  4  9  1  0  0  0  0
  4 16  2  0  0  0  0
  5 18  1  0  0  0  0
  6 20  1  0  0  0  0
  7 10  2  0  0  0  0
  7 19  1  0  0  0  0
  8 23  1  0  0  0  0
  9 23  2  0  0  0  0
 10 24  1  0  0  0  0
 11 12  2  0  0  0  0
 11 25  1  0  0  0  0
 12 26  1  0  0  0  0
 13 21  1  0  0  0  0
 13 24  2  0  0  0  0
 14 26  2  0  0  0  0
 14 27  1  0  0  0  0
 15 22  1  0  0  0  0
 15 62  2  0  0  0  0
 16 28  1  0  0  0  0
 17 28  1  0  0  0  0
 17 30  2  0  0  0  0
 17 32  1  0  0  0  0
 18 20  2  0  0  0  0
 18 38  1  0  0  0  0
 19 21  2  0  0  0  0
 19 39  1  0  0  0  0
 20 47  1  0  0  0  0
 21 40  1  0  0  0  0
 22 29  2  0  0  0  0
 22 50  1  0  0  0  0
 23 81  1  0  0  0  0
 24 82  1  0  0  0  0
 25 27  2  0  0  0  0
 25 81  1  0  0  0  0
 26 83  1  0  0  0  0
 27 84  1  0  0  0  0
 28 63  2  0  0  0  0
 29 64  1  0  0  0  0
 29 70  1  0  0  0  0
 30 65  1  0  0  0  0
 30 68  1  0  0  0  0
 31 62  1  0  0  0  0
 31 64  2  0  0  0  0
 31 71  1  0  0  0  0
 32 69  1  0  0  0  0
 32 75  2  0  0  0  0
 33 48  1  0  0  0  0
 33 72  1  0  0  0  0
 33 76  2  0  0  0  0
 34 59  1  0  0  0  0
 34 66  1  0  0  0  0
 34 77  2  0  0  0  0
 35 56  1  0  0  0  0
 35 70  1  0  0  0  0
 35 78  2  0  0  0  0
 36 60  1  0  0  0  0
 36 73  1  0  0  0  0
 36 79  2  0  0  0  0
 37 67  1  0  0  0  0
 37 71  1  0  0  0  0
 37 80  2  0  0  0  0
 38 41  1  0  0  0  0
 39 48  1  0  0  0  0
 40 66  1  0  0  0  0
 41 43  1  0  0  0  0
 42 44  1  0  0  0  0
 42 45  1  0  0  0  0
 43 47  1  0  0  0  0
 44 49  1  0  0  0  0
 45 67  1  0  0  0  0
 46 49  1  0  0  0  0
 46 67  1  0  0  0  0
 47 72  1  0  0  0  0
 48 66  1  0  0  0  0
 49 65  1  0  0  0  0
 51 60  1  0  0  0  0
 52 61  1  0  0  0  0
 53 61  1  0  0  0  0
 54 61  1  0  0  0  0
 55 74  1  0  0  0  0
 56 57  1  0  0  0  0
 57 58  1  0  0  0  0
 58 82  1  0  0  0  0
 59 61  1  0  0  0  0
 59 73  1  0  0  0  0
 60 74  1  0  0  0  0
 63 65  1  0  0  0  0
M  CHG  1  74   1
M  ISO  4  37 100  58 101  71 100  82 101
M  END
> <Batch ID>
0192

> <Smiles>
CNC(C)C(=O)NC(C(=O)N1Cc2cc([101O:1][101CH2:1]CCC(=O)Nc3nc([100NH:0][100C:0](=O)N4CCCC(n5nc(-c6ccc(Oc7ccc(F)cc7F)cc6)c(C(N)=O)c5N)C4)ncc3C)ccc2CC1C(=O)NC1CCCc2ccccc21)C(C)(C)C

> <Shape>
0.273

> <Color>
0.114

> <Negative vol penalty>
0.000

$$$$

  -OEChem-04052305273D

 83 91  0     1  0  0  0  0  0999 V2000
  -24.0452  -33.1779   18.1740 C   0  0  0  0  0  0  0  0  0  0  0  0
  -24.7778  -32.0736   18.5973 C   0  0  0  0  0  0  0  0  0  0  0  0
  -22.9750  -10.0330   19.9397 C   0  0  0  0  0  0  0  0  0  0  0  0
  -23.8695   -9.8362   22.1753 C   0  0  0  0  0  0  0  0  0  0  0  0
  -22.9551  -33.6186   18.9233 C   0  0  0  0  0  0  0  0  0  0  0  0
  -24.4214  -31.4100   19.7708 C   0  0  0  0  0  0  0  0  0  0  0  0
  -24.8516  -25.4022   20.8786 C   0  0  0  0  0  0  0  0  0  0  0  0
  -22.2042   -8.8892   20.1473 C   0  0  0  0  0  0  0  0  0  0  0  0
  -23.0987   -8.6924   22.3830 C   0  0  0  0  0  0  0  0  0  0  0  0
  -25.8038  -24.6384   21.5522 C   0  0  0  0  0  0  0  0  0  0  0  0
  -19.8842   -7.9575   23.1229 C   0  0  0  0  0  0  0  0  0  0  0  0
  -19.1972   -7.8516   24.3322 C   0  0  0  0  0  0  0  0  0  0  0  0
  -24.4522  -24.7251   23.5485 C   0  0  0  0  0  0  0  0  0  0  0  0
  -20.4060   -5.8226   24.8412 C   0  0  0  0  0  0  0  0  0  0  0  0
  -28.8888  -18.9557   24.6090 C   0  0  0  0  0  0  0  0  0  0  0  0
  -23.8077  -10.5065   20.9536 C   0  0  0  0  0  0  0  0  0  0  0  0
  -24.2371  -13.0206   21.0041 C   0  0  0  0  0  0  0  0  0  0  0  0
  -22.5793  -32.9542   20.1014 C   0  0  0  0  0  0  0  0  0  0  0  0
  -23.6958  -25.8431   21.5390 C   0  0  0  0  0  0  0  0  0  0  0  0
  -23.3261  -31.8430   20.5372 C   0  0  0  0  0  0  0  0  0  0  0  0
  -23.4857  -25.4922   22.8802 C   0  0  0  0  0  0  0  0  0  0  0  0
  -22.2660   -8.2189   21.3690 C   0  0  0  0  0  0  0  0  0  0  0  0
  -25.6056  -24.3022   22.8881 C   0  0  0  0  0  0  0  0  0  0  0  0
  -20.8320   -6.9959   22.7727 C   0  0  0  0  0  0  0  0  0  0  0  0
  -19.4581   -6.7842   25.1914 C   0  0  0  0  0  0  0  0  0  0  0  0
  -21.0929   -5.9285   23.6319 C   0  0  0  0  0  0  0  0  0  0  0  0
  -24.6046  -11.6877   20.7395 C   0  0  0  0  0  0  0  0  0  0  0  0
  -30.2929  -17.4507   22.9088 C   0  0  0  0  0  0  0  0  0  0  0  0
  -29.0637  -19.3396   23.2977 C   0  0  0  0  0  0  0  0  0  0  0  0
  -30.1185  -17.0672   24.2203 C   0  0  0  0  0  0  0  0  0  0  0  0
  -25.3333  -13.7595   20.6314 C   0  0  0  0  0  0  0  0  0  0  0  0
  -23.0142  -13.5441   21.5390 C   0  0  0  0  0  0  0  0  0  0  0  0
  -22.4681  -28.6863   22.2552 C   0  0  0  0  0  0  0  0  0  0  0  0
  -19.9557  -26.9090   23.2807 C   0  0  0  0  0  0  0  0  0  0  0  0
  -27.7274  -21.4477   23.6201 C   0  0  0  0  0  0  0  0  0  0  0  0
  -18.8056  -23.9055   24.4222 C   0  0  0  0  0  0  0  0  0  0  0  0
  -30.8531  -14.5784   20.5552 C   0  0  0  0  0  0  0  0  0  0  0  0
  -21.4224  -33.4962   20.9030 C   0  0  0  0  0  0  0  0  0  0  0  0
  -22.6655  -26.6437   20.7907 C   0  0  0  0  0  0  0  0  0  0  0  0
  -22.2520  -25.9235   23.6289 C   0  0  0  0  0  0  0  0  0  0  0  0
  -20.8819  -32.5104   21.9356 C   0  0  0  0  0  0  0  0  0  0  0  0
  -29.4863  -12.4260   18.0700 C   0  0  0  0  0  0  0  0  0  0  0  0
  -22.0271  -31.8758   22.7184 C   0  0  0  0  0  0  0  0  0  0  0  0
  -28.0671  -12.1473   18.5680 C   0  0  0  0  0  0  0  0  0  0  0  0
  -30.4809  -12.5221   19.2249 C   0  0  0  0  0  0  0  0  0  0  0  0
  -28.6939  -13.2056   20.7784 C   0  0  0  0  0  0  0  0  0  0  0  0
  -22.9555  -31.0817   21.7915 C   0  0  1  0  0  0  0  0  0  0  0  0
  -21.7715  -27.4728   21.7076 C   0  0  1  0  0  0  0  0  0  0  0  0
  -27.6456  -13.1557   19.6537 C   0  0  2  0  0  0  0  0  0  0  0  0
  -16.7125  -22.7691   25.2126 C   0  0  0  0  0  0  0  0  0  0  0  0
  -20.1768  -28.3657   25.9526 C   0  0  0  0  0  0  0  0  0  0  0  0
  -18.7490  -26.5767   26.9669 C   0  0  0  0  0  0  0  0  0  0  0  0
  -17.8357  -28.0160   25.1457 C   0  0  0  0  0  0  0  0  0  0  0  0
  -18.9215  -21.9153   22.2349 C   0  0  0  0  0  0  0  0  0  0  0  0
  -31.0737  -16.6227   21.9448 C   0  0  0  0  0  0  0  0  0  0  0  0
  -27.2922  -22.6294   22.7736 C   0  0  0  0  0  0  0  0  0  1  0  0
  -19.5675  -26.2607   24.5875 C   0  0  1  0  0  0  0  0  0  0  0  0
  -17.6063  -23.0669   24.0188 C   0  0  2  0  0  0  0  0  0  0  0  0
  -19.1065  -27.2981   25.6499 C   0  0  0  0  0  0  0  0  0  0  0  0
  -29.4131  -17.8126   25.0939 N   0  0  0  0  0  0  0  0  0  0  0  0
  -25.8378  -11.5828   20.2373 N   0  0  0  0  0  0  0  0  0  0  0  0
  -29.7689  -18.5939   22.4240 N   0  0  0  0  0  0  0  0  0  0  0  0
  -26.2547  -12.8593   20.1834 N   0  0  0  0  0  0  0  0  0  0  0  0
  -21.2769  -26.7100   22.8555 N   0  0  0  0  0  0  0  0  0  0  0  0
  -30.0233  -13.4962   20.2187 N   0  0  0  0  0  0  0  0  0  0  0  0
  -30.6935  -15.8569   24.6684 N   0  0  0  0  0  0  0  0  0  0  0  0
  -25.5892  -15.0849   20.6465 N   0  0  0  0  0  0  0  0  0  0  0  0
  -21.9904  -12.6454   21.8688 N   0  0  0  0  0  0  0  0  0  0  0  0
  -28.4820  -20.5553   22.8663 N   0  0  0  0  0  0  0  0  0  0  0  0
  -22.3613  -29.8063   21.4529 N   0  0  0  0  0  0  0  0  0  0  0  0
  -18.5638  -25.2534   24.2612 N   0  0  0  0  0  0  0  0  0  0  0  0
  -30.3407  -15.4582   21.5007 N   0  0  0  0  0  0  0  0  0  0  0  0
  -18.0534  -21.7721   23.4318 N   0  3  0  0  0  0  0  0  0  0  0  0
  -22.8285  -14.7736   21.7040 O   0  0  0  0  0  0  0  0  0  0  0  0
  -23.0576  -28.6123   23.3270 O   0  0  0  0  0  0  0  0  0  0  0  0
  -19.1157  -27.5619   22.6565 O   0  0  0  0  0  0  0  0  0  0  0  0
  -27.4185  -21.3568   24.8037 O   0  0  0  0  0  0  0  0  0  0  0  0
  -19.8511  -23.4142   24.8419 O   0  0  0  0  0  0  0  0  0  0  0  0
  -31.9660  -14.7509   20.0464 O   0  0  0  0  0  0  0  0  0  0  0  0
  -21.5138   -7.1029   21.5721 O   0  0  0  0  0  0  0  0  0  0  0  0
  -26.5337  -23.5574   23.5482 O   0  0  0  0  0  0  0  0  0  1  0  0
  -18.7994   -6.6835   26.3534 F   0  0  0  0  0  0  0  0  0  0  0  0
  -22.0033   -5.0023   23.3015 F   0  0  0  0  0  0  0  0  0  0  0  0
  1  2  1  0  0  0  0
  1  5  2  0  0  0  0
  2  6  2  0  0  0  0
  3  8  2  0  0  0  0
  3 16  1  0  0  0  0
  4  9  1  0  0  0  0
  4 16  2  0  0  0  0
  5 18  1  0  0  0  0
  6 20  1  0  0  0  0
  7 10  2  0  0  0  0
  7 19  1  0  0  0  0
  8 22  1  0  0  0  0
  9 22  2  0  0  0  0
 10 23  1  0  0  0  0
 11 12  2  0  0  0  0
 11 24  1  0  0  0  0
 12 25  1  0  0  0  0
 13 21  1  0  0  0  0
 13 23  2  0  0  0  0
 14 25  2  0  0  0  0
 14 26  1  0  0  0  0
 15 29  1  0  0  0  0
 15 60  2  0  0  0  0
 16 27  1  0  0  0  0
 17 27  1  0  0  0  0
 17 31  2  0  0  0  0
 17 32  1  0  0  0  0
 18 20  2  0  0  0  0
 18 38  1  0  0  0  0
 19 21  2  0  0  0  0
 19 39  1  0  0  0  0
 20 47  1  0  0  0  0
 21 40  1  0  0  0  0
 22 80  1  0  0  0  0
 23 81  1  0  0  0  0
 24 26  2  0  0  0  0
 24 80  1  0  0  0  0
 25 82  1  0  0  0  0
 26 83  1  0  0  0  0
 27 61  2  0  0  0  0
 28 30  2  0  0  0  0
 28 55  1  0  0  0  0
 28 62  1  0  0  0  0
 29 62  2  0  0  0  0
 29 69  1  0  0  0  0
 30 60  1  0  0  0  0
 30 66  1  0  0  0  0
 31 63  1  0  0  0  0
 31 67  1  0  0  0  0
 32 68  1  0  0  0  0
 32 74  2  0  0  0  0
 33 48  1  0  0  0  0
 33 70  1  0  0  0  0
 33 75  2  0  0  0  0
 34 57  1  0  0  0  0
 34 64  1  0  0  0  0
 34 76  2  0  0  0  0
 35 56  1  0  0  0  0
 35 69  1  0  0  0  0
 35 77  2  0  0  0  0
 36 58  1  0  0  0  0
 36 71  1  0  0  0  0
 36 78  2  0  0  0  0
 37 65  1  0  0  0  0
 37 72  1  0  0  0  0
 37 79  2  0  0  0  0
 38 41  1  0  0  0  0
 39 48  1  0  0  0  0
 40 64  1  0  0  0  0
 41 43  1  0  0  0  0
 42 44  1  0  0  0  0
 42 45  1  0  0  0  0
 43 47  1  0  0  0  0
 44 49  1  0  0  0  0
 45 65  1  0  0  0  0
 46 49  1  0  0  0  0
 46 65  1  0  0  0  0
 47 70  1  0  0  0  0
 48 64  1  0  0  0  0
 49 63  1  0  0  0  0
 50 58  1  0  0  0  0
 51 59  1  0  0  0  0
 52 59  1  0  0  0  0
 53 59  1  0  0  0  0
 54 73  1  0  0  0  0
 55 72  1  0  0  0  0
 56 81  1  0  0  0  0
 57 59  1  0  0  0  0
 57 71  1  0  0  0  0
 58 73  1  0  0  0  0
 61 63  1  0  0  0  0
M  CHG  1  73   1
M  ISO  4  37 100  56 101  72 100  81 101
M  END
> <Batch ID>
0192

> <Smiles>
CNC(C)C(=O)NC(C(=O)N1Cc2cc([101O:1][101CH2:1]C(=O)Nc3cnc(N)c(C[100NH:0][100C:0](=O)N4CCCC(n5nc(-c6ccc(Oc7ccc(F)cc7F)cc6)c(C(N)=O)c5N)C4)n3)ccc2CC1C(=O)NC1CCCc2ccccc21)C(C)(C)C

> <Shape>
0.246

> <Color>
0.193

> <Negative vol penalty>
0.000

$$$$

  -OEChem-04052305273D

 86 94  0     1  0  0  0  0  0999 V2000
  -17.3092  -24.1738   23.7810 C   0  0  0  0  0  0  0  0  0  0  0  0
  -18.1677  -23.6054   22.8454 C   0  0  0  0  0  0  0  0  0  0  0  0
  -31.9428  -20.2997   18.1160 C   0  0  0  0  0  0  0  0  0  0  0  0
  -29.7543  -19.7505   17.2523 C   0  0  0  0  0  0  0  0  0  0  0  0
  -17.3713  -25.5421   24.0416 C   0  0  0  0  0  0  0  0  0  0  0  0
  -19.0882  -24.4052   22.1691 C   0  0  0  0  0  0  0  0  0  0  0  0
  -23.6908  -22.3049   21.9443 C   0  0  0  0  0  0  0  0  0  0  0  0
  -32.3510  -20.6827   16.8384 C   0  0  0  0  0  0  0  0  0  0  0  0
  -30.1625  -20.1336   15.9746 C   0  0  0  0  0  0  0  0  0  0  0  0
  -23.8851  -21.2965   21.0014 C   0  0  0  0  0  0  0  0  0  0  0  0
  -31.9870  -23.3598   14.8052 C   0  0  0  0  0  0  0  0  0  0  0  0
  -32.6984  -24.5533   14.6825 C   0  0  0  0  0  0  0  0  0  0  0  0
  -24.9440  -22.8863   19.5281 C   0  0  0  0  0  0  0  0  0  0  0  0
  -34.5686  -23.3426   13.7478 C   0  0  0  0  0  0  0  0  0  0  0  0
  -24.0035  -13.1532   21.7066 C   0  0  0  0  0  0  0  0  0  0  0  0
  -30.6445  -19.8336   18.3229 C   0  0  0  0  0  0  0  0  0  0  0  0
  -29.6298  -20.2517   20.6258 C   0  0  0  0  0  0  0  0  0  0  0  0
  -18.2996  -26.3574   23.3751 C   0  0  0  0  0  0  0  0  0  0  0  0
  -24.1125  -23.6162   21.6812 C   0  0  0  0  0  0  0  0  0  0  0  0
  -19.1620  -25.7859   22.4200 C   0  0  0  0  0  0  0  0  0  0  0  0
  -24.7561  -23.9090   20.4704 C   0  0  0  0  0  0  0  0  0  0  0  0
  -31.4608  -20.5997   15.7677 C   0  0  0  0  0  0  0  0  0  0  0  0
  -24.5092  -21.5877   19.7919 C   0  0  0  0  0  0  0  0  0  0  0  0
  -32.5665  -22.1576   14.3992 C   0  0  0  0  0  0  0  0  0  0  0  0
  -33.9891  -24.5447   14.1538 C   0  0  0  0  0  0  0  0  0  0  0  0
  -33.8572  -22.1490   13.8705 C   0  0  0  0  0  0  0  0  0  0  0  0
  -30.2225  -19.4372   19.6423 C   0  0  0  0  0  0  0  0  0  0  0  0
  -25.1618  -13.5823   21.0915 C   0  0  0  0  0  0  0  0  0  0  0  0
  -22.8735  -13.8984   21.4379 C   0  0  0  0  0  0  0  0  0  0  0  0
  -29.4206  -19.4084   21.6896 C   0  0  0  0  0  0  0  0  0  0  0  0
  -24.0553  -15.2980   20.0920 C   0  0  0  0  0  0  0  0  0  0  0  0
  -29.2979  -21.6458   20.5816 C   0  0  0  0  0  0  0  0  0  0  0  0
  -22.6562  -26.4280   21.4049 C   0  0  0  0  0  0  0  0  0  0  0  0
  -25.6956  -27.5434   21.2032 C   0  0  0  0  0  0  0  0  0  0  0  0
  -28.9669  -26.9203   20.4569 C   0  0  0  0  0  0  0  0  0  0  0  0
  -28.6989  -13.4796   22.1125 C   0  0  0  0  0  0  0  0  0  0  0  0
  -18.2974  -27.8393   23.6558 C   0  0  0  0  0  0  0  0  0  0  0  0
  -23.9195  -24.6870   22.7197 C   0  0  0  0  0  0  0  0  0  0  0  0
  -25.2458  -25.2964   20.1479 C   0  0  0  0  0  0  0  0  0  0  0  0
  -19.5558  -28.5533   23.1692 C   0  0  0  0  0  0  0  0  0  0  0  0
  -31.1756  -15.4560   23.7362 C   0  0  0  0  0  0  0  0  0  0  0  0
  -19.8993  -28.1203   21.7474 C   0  0  0  0  0  0  0  0  0  0  0  0
  -31.1587  -16.7739   22.9599 C   0  0  0  0  0  0  0  0  0  0  0  0
  -30.9421  -14.2576   22.8189 C   0  0  0  0  0  0  0  0  0  0  0  0
  -29.7111  -15.6606   21.2096 C   0  0  0  0  0  0  0  0  0  0  0  0
  -20.1910  -26.6162   21.6840 C   0  0  1  0  0  0  0  0  0  0  0  0
  -23.9272  -26.0957   22.1341 C   0  0  1  0  0  0  0  0  0  0  0  0
  -29.8866  -16.9022   22.1005 C   0  0  2  0  0  0  0  0  0  0  0  0
  -31.2110  -28.0384   20.3521 C   0  0  0  0  0  0  0  0  0  0  0  0
  -25.5633  -15.9938   17.3918 C   0  0  0  0  0  0  0  0  0  0  0  0
  -24.8834  -28.9245   18.6065 C   0  0  0  0  0  0  0  0  0  0  0  0
  -27.3143  -29.2042   18.0765 C   0  0  0  0  0  0  0  0  0  0  0  0
  -26.3479  -30.2930   20.1021 C   0  0  0  0  0  0  0  0  0  0  0  0
  -30.1037  -25.0881   22.4842 C   0  0  0  0  0  0  0  0  0  0  0  0
  -25.0989  -18.3414   18.1784 C   0  0  0  0  0  0  0  0  0  0  0  0
  -26.6473  -11.7167   20.2911 C   0  0  0  0  0  0  0  0  0  0  0  0
  -24.8738  -19.2773   19.3617 C   0  0  0  0  0  0  0  0  0  1  0  0
  -26.4352  -12.8398   21.3216 C   0  0  1  0  0  0  0  0  0  0  0  0
  -26.6730  -27.7859   20.0786 C   0  0  1  0  0  0  0  0  0  0  0  0
  -30.2485  -27.2309   21.2089 C   0  0  2  0  0  0  0  0  0  0  0  0
  -25.2798  -16.8800   18.6007 C   0  0  1  0  0  0  0  0  0  0  0  0
  -26.2938  -29.0261   19.2209 C   0  0  0  0  0  0  0  0  0  0  0  0
  -30.3799  -18.1736   20.0456 N   0  0  0  0  0  0  0  0  0  0  0  0
  -25.2241  -14.6546   20.2750 N   0  0  0  0  0  0  0  0  0  0  0  0
  -22.8634  -14.9809   20.6325 N   0  0  0  0  0  0  0  0  0  0  0  0
  -29.8830  -18.1878   21.2942 N   0  0  0  0  0  0  0  0  0  0  0  0
  -25.0282  -26.3104   21.1928 N   0  0  0  0  0  0  0  0  0  0  0  0
  -29.7196  -14.4413   22.0331 N   0  0  0  0  0  0  0  0  0  0  0  0
  -21.6629  -13.4913   22.0501 N   0  0  0  0  0  0  0  0  0  0  0  0
  -28.8881  -19.5995   22.9153 N   0  0  0  0  0  0  0  0  0  0  0  0
  -29.5806  -22.3632   19.4112 N   0  0  0  0  0  0  0  0  0  0  0  0
  -24.0820  -16.4029   19.2599 N   0  0  0  0  0  0  0  0  0  0  0  0
  -21.5196  -26.3375   22.1855 N   0  0  0  0  0  0  0  0  0  0  0  0
  -27.9928  -27.8666   20.6951 N   0  0  0  0  0  0  0  0  0  0  0  0
  -27.5717  -13.7336   21.3407 N   0  0  0  0  0  0  0  0  0  0  0  0
  -26.7424  -12.2823   18.9208 N   0  3  0  0  0  0  0  0  0  0  0  0
  -30.9281  -25.9691   21.6175 N   0  3  0  0  0  0  0  0  0  0  0  0
  -28.7813  -22.2416   21.5572 O   0  0  0  0  0  0  0  0  0  0  0  0
  -22.7034  -26.7447   20.2220 O   0  0  0  0  0  0  0  0  0  0  0  0
  -25.5356  -28.4130   22.0634 O   0  0  0  0  0  0  0  0  0  0  0  0
  -28.8436  -25.9384   19.7280 O   0  0  0  0  0  0  0  0  0  0  0  0
  -28.7835  -12.4721   22.8230 O   0  0  0  0  0  0  0  0  0  0  0  0
  -31.8586  -20.9736   14.5209 O   0  0  0  0  0  0  0  0  0  0  0  0
  -24.6995  -20.6054   18.8696 O   0  0  0  0  0  0  0  0  0  1  0  0
  -34.6715  -25.6912   14.0347 F   0  0  0  0  0  0  0  0  0  0  0  0
  -34.4187  -20.9974   13.4777 F   0  0  0  0  0  0  0  0  0  0  0  0
  1  2  1  0  0  0  0
  1  5  2  0  0  0  0
  2  6  2  0  0  0  0
  3  8  2  0  0  0  0
  3 16  1  0  0  0  0
  4  9  1  0  0  0  0
  4 16  2  0  0  0  0
  5 18  1  0  0  0  0
  6 20  1  0  0  0  0
  7 10  2  0  0  0  0
  7 19  1  0  0  0  0
  8 22  1  0  0  0  0
  9 22  2  0  0  0  0
 10 23  1  0  0  0  0
 11 12  2  0  0  0  0
 11 24  1  0  0  0  0
 12 25  1  0  0  0  0
 13 21  1  0  0  0  0
 13 23  2  0  0  0  0
 14 25  2  0  0  0  0
 14 26  1  0  0  0  0
 15 28  2  0  0  0  0
 15 29  1  0  0  0  0
 16 27  1  0  0  0  0
 17 27  1  0  0  0  0
 17 30  2  0  0  0  0
 17 32  1  0  0  0  0
 18 20  2  0  0  0  0
 18 37  1  0  0  0  0
 19 21  2  0  0  0  0
 19 38  1  0  0  0  0
 20 46  1  0  0  0  0
 21 39  1  0  0  0  0
 22 83  1  0  0  0  0
 23 84  1  0  0  0  0
 24 26  2  0  0  0  0
 24 83  1  0  0  0  0
 25 85  1  0  0  0  0
 26 86  1  0  0  0  0
 27 63  2  0  0  0  0
 28 58  1  0  0  0  0
 28 64  1  0  0  0  0
 29 65  2  0  0  0  0
 29 69  1  0  0  0  0
 30 66  1  0  0  0  0
 30 70  1  0  0  0  0
 31 64  2  0  0  0  0
 31 65  1  0  0  0  0
 31 72  1  0  0  0  0
 32 71  1  0  0  0  0
 32 78  2  0  0  0  0
 33 47  1  0  0  0  0
 33 73  1  0  0  0  0
 33 79  2  0  0  0  0
 34 59  1  0  0  0  0
 34 67  1  0  0  0  0
 34 80  2  0  0  0  0
 35 60  1  0  0  0  0
 35 74  1  0  0  0  0
 35 81  2  0  0  0  0
 36 68  1  0  0  0  0
 36 75  1  0  0  0  0
 36 82  2  0  0  0  0
 37 40  1  0  0  0  0
 38 47  1  0  0  0  0
 39 67  1  0  0  0  0
 40 42  1  0  0  0  0
 41 43  1  0  0  0  0
 41 44  1  0  0  0  0
 42 46  1  0  0  0  0
 43 48  1  0  0  0  0
 44 68  1  0  0  0  0
 45 48  1  0  0  0  0
 45 68  1  0  0  0  0
 46 73  1  0  0  0  0
 47 67  1  0  0  0  0
 48 66  1  0  0  0  0
 49 60  1  0  0  0  0
 50 61  1  0  0  0  0
 51 62  1  0  0  0  0
 52 62  1  0  0  0  0
 53 62  1  0  0  0  0
 54 77  1  0  0  0  0
 55 57  1  0  0  0  0
 55 61  1  0  0  0  0
 56 58  1  0  0  0  0
 56 76  1  0  0  0  0
 57 84  1  0  0  0  0
 58 75  1  0  0  0  0
 59 62  1  0  0  0  0
 59 74  1  0  0  0  0
 60 77  1  0  0  0  0
 61 72  1  0  0  0  0
 63 66  1  0  0  0  0
M  CHG  2  76   1  77   1
M  ISO  4  36 100  57 101  75 100  84 101
M  END
> <Batch ID>
0192

> <Smiles>
CNC(C)C(=O)NC(C(=O)N1Cc2cc([101O:1][101CH2:1]CC(C)Nc3nc(N)cc(C(CN)[100NH:0][100C:0](=O)N4CCCC(n5nc(-c6ccc(Oc7ccc(F)cc7F)cc6)c(C(N)=O)c5N)C4)n3)ccc2CC1C(=O)NC1CCCc2ccccc21)C(C)(C)C

> <Shape>
0.222

> <Color>
0.070

> <Negative vol penalty>
0.000

$$$$

  -OEChem-04052305273D

 84 92  0     1  0  0  0  0  0999 V2000
  -35.4682  -33.6533   16.8896 C   0  0  0  0  0  0  0  0  0  0  0  0
  -34.4381  -32.8010   16.5051 C   0  0  0  0  0  0  0  0  0  0  0  0
  -23.0773   -9.8619   19.9451 C   0  0  0  0  0  0  0  0  0  0  0  0
  -23.8352   -9.8778   22.2391 C   0  0  0  0  0  0  0  0  0  0  0  0
  -36.6617  -33.1254   17.3803 C   0  0  0  0  0  0  0  0  0  0  0  0
  -34.6013  -31.4202   16.6100 C   0  0  0  0  0  0  0  0  0  0  0  0
  -30.1251  -27.4512   20.6228 C   0  0  0  0  0  0  0  0  0  0  0  0
  -22.3347   -8.7087   20.1985 C   0  0  0  0  0  0  0  0  0  0  0  0
  -23.0925   -8.7246   22.4925 C   0  0  0  0  0  0  0  0  0  0  0  0
  -29.1860  -26.5962   21.2000 C   0  0  0  0  0  0  0  0  0  0  0  0
  -19.8649   -7.9248   23.0950 C   0  0  0  0  0  0  0  0  0  0  0  0
  -19.1069   -7.8880   24.2653 C   0  0  0  0  0  0  0  0  0  0  0  0
  -30.5641  -24.6889   20.6427 C   0  0  0  0  0  0  0  0  0  0  0  0
  -20.3501   -5.9547   25.0096 C   0  0  0  0  0  0  0  0  0  0  0  0
  -29.8514  -17.8497   22.7168 C   0  0  0  0  0  0  0  0  0  0  0  0
  -23.8276  -10.4464   20.9655 C   0  0  0  0  0  0  0  0  0  0  0  0
  -24.1664  -12.9716   20.8369 C   0  0  0  0  0  0  0  0  0  0  0  0
  -36.8361  -31.7376   17.5003 C   0  0  0  0  0  0  0  0  0  0  0  0
  -31.2960  -26.9289   20.0663 C   0  0  0  0  0  0  0  0  0  0  0  0
  -35.7988  -30.8731   17.1015 C   0  0  0  0  0  0  0  0  0  0  0  0
  -31.5143  -25.5414   20.0742 C   0  0  0  0  0  0  0  0  0  0  0  0
  -22.3423   -8.1400   21.4721 C   0  0  0  0  0  0  0  0  0  0  0  0
  -29.4049  -25.2185   21.2097 C   0  0  0  0  0  0  0  0  0  0  0  0
  -20.8654   -6.9765   22.8819 C   0  0  0  0  0  0  0  0  0  0  0  0
  -19.3496   -6.9030   25.2227 C   0  0  0  0  0  0  0  0  0  0  0  0
  -21.1080   -5.9915   23.8392 C   0  0  0  0  0  0  0  0  0  0  0  0
  -24.5954  -11.6374   20.7042 C   0  0  0  0  0  0  0  0  0  0  0  0
  -30.6942  -18.9229   22.8730 C   0  0  0  0  0  0  0  0  0  0  0  0
  -30.5640  -16.9599   21.8909 C   0  0  0  0  0  0  0  0  0  0  0  0
  -25.2579  -13.7212   20.4720 C   0  0  0  0  0  0  0  0  0  0  0  0
  -22.8949  -13.4873   21.2529 C   0  0  0  0  0  0  0  0  0  0  0  0
  -30.4734  -20.1714   23.6474 C   0  0  0  0  0  0  0  0  0  0  0  0
  -34.5504  -27.6206   18.3325 C   0  0  0  0  0  0  0  0  0  0  0  0
  -35.0910  -25.4157   20.3957 C   0  0  0  0  0  0  0  0  0  0  0  0
  -35.3590  -23.3088   23.0652 C   0  0  0  0  0  0  0  0  0  0  0  0
  -30.7225  -14.7745   20.6477 C   0  0  0  0  0  0  0  0  0  0  0  0
  -38.1616  -31.2123   17.9918 C   0  0  0  0  0  0  0  0  0  0  0  0
  -32.3062  -27.8070   19.3791 C   0  0  0  0  0  0  0  0  0  0  0  0
  -32.7718  -25.0214   19.4331 C   0  0  0  0  0  0  0  0  0  0  0  0
  -38.1147  -29.7488   18.4232 C   0  0  0  0  0  0  0  0  0  0  0  0
  -29.6134  -12.3508   18.2871 C   0  0  0  0  0  0  0  0  0  0  0  0
  -37.3823  -28.9086   17.3818 C   0  0  0  0  0  0  0  0  0  0  0  0
  -28.1737  -12.0589   18.7164 C   0  0  0  0  0  0  0  0  0  0  0  0
  -30.5271  -12.5851   19.4887 C   0  0  0  0  0  0  0  0  0  0  0  0
  -28.6180  -13.3120   20.8657 C   0  0  0  0  0  0  0  0  0  0  0  0
  -35.9286  -29.3704   17.2236 C   0  0  1  0  0  0  0  0  0  0  0  0
  -33.7550  -27.3234   19.5696 C   0  0  1  0  0  0  0  0  0  0  0  0
  -27.6464  -13.1333   19.6876 C   0  0  2  0  0  0  0  0  0  0  0  0
  -37.0258  -21.8976   24.3012 C   0  0  0  0  0  0  0  0  0  0  0  0
  -34.9733  -23.3337   18.1696 C   0  0  0  0  0  0  0  0  0  0  0  0
  -35.8175  -21.6385   19.8073 C   0  0  0  0  0  0  0  0  0  0  0  0
  -37.2257  -23.6121   19.2202 C   0  0  0  0  0  0  0  0  0  0  0  0
  -32.9981  -19.4410   22.0144 C   0  0  0  0  0  0  0  0  0  0  0  0
  -34.9746  -24.8410   25.5679 C   0  0  0  0  0  0  0  0  0  0  0  0
  -28.7843  -21.8015   24.4508 C   0  0  0  0  0  0  0  0  0  0  0  0
  -28.9735  -23.1777   22.3529 C   0  0  0  0  0  0  0  0  0  1  0  0
  -35.1811  -23.9361   20.6716 C   0  0  1  0  0  0  0  0  0  0  0  0
  -36.3515  -23.2578   24.2128 C   0  0  2  0  0  0  0  0  0  0  0  0
  -28.0813  -22.7919   23.5272 C   0  0  1  0  0  0  0  0  0  0  0  0
  -35.7757  -23.1448   19.4725 C   0  0  0  0  0  0  0  0  0  0  0  0
  -25.8608  -11.5417   20.2874 N   0  0  0  0  0  0  0  0  0  0  0  0
  -31.7669  -17.4272   21.5464 N   0  0  0  0  0  0  0  0  0  0  0  0
  -31.8165  -18.6225   22.1587 N   0  0  0  0  0  0  0  0  0  0  0  0
  -26.2362  -12.8253   20.1549 N   0  0  0  0  0  0  0  0  0  0  0  0
  -33.9121  -25.8768   19.7972 N   0  0  0  0  0  0  0  0  0  0  0  0
  -29.9660  -13.6183   20.3619 N   0  0  0  0  0  0  0  0  0  0  0  0
  -25.4667  -15.0527   20.3945 N   0  0  0  0  0  0  0  0  0  0  0  0
  -21.8838  -12.5780   21.5925 N   0  0  0  0  0  0  0  0  0  0  0  0
  -30.0732  -15.7016   21.4622 N   0  0  0  0  0  0  0  0  0  0  0  0
  -29.1560  -20.5982   23.7538 N   0  0  0  0  0  0  0  0  0  0  0  0
  -35.1202  -28.8794   18.3190 N   0  0  0  0  0  0  0  0  0  0  0  0
  -35.9362  -23.7976   21.9122 N   0  0  0  0  0  0  0  0  0  0  0  0
  -35.6616  -23.5253   25.5064 N   0  3  0  0  0  0  0  0  0  0  0  0
  -22.6570  -14.7178   21.3058 O   0  0  0  0  0  0  0  0  0  0  0  0
  -31.4398  -20.7601   24.1248 O   0  0  0  0  0  0  0  0  0  0  0  0
  -34.6425  -26.7706   17.4547 O   0  0  0  0  0  0  0  0  0  0  0  0
  -36.0407  -26.1443   20.6963 O   0  0  0  0  0  0  0  0  0  0  0  0
  -34.1899  -22.9474   23.1791 O   0  0  0  0  0  0  0  0  0  0  0  0
  -31.8518  -14.9430   20.1805 O   0  0  0  0  0  0  0  0  0  0  0  0
  -26.9035  -22.1804   22.9976 O   0  0  0  0  0  0  0  0  0  0  0  0
  -21.6175   -7.0149   21.7198 O   0  0  0  0  0  0  0  0  0  0  0  0
  -28.4861  -24.3899   21.7789 O   0  0  0  0  0  0  0  0  0  1  0  0
  -18.6227   -6.8687   26.3472 F   0  0  0  0  0  0  0  0  0  0  0  0
  -22.0687   -5.0785   23.6406 F   0  0  0  0  0  0  0  0  0  0  0  0
  1  2  1  0  0  0  0
  1  5  2  0  0  0  0
  2  6  2  0  0  0  0
  3  8  2  0  0  0  0
  3 16  1  0  0  0  0
  4  9  1  0  0  0  0
  4 16  2  0  0  0  0
  5 18  1  0  0  0  0
  6 20  1  0  0  0  0
  7 10  2  0  0  0  0
  7 19  1  0  0  0  0
  8 22  1  0  0  0  0
  9 22  2  0  0  0  0
 10 23  1  0  0  0  0
 11 12  2  0  0  0  0
 11 24  1  0  0  0  0
 12 25  1  0  0  0  0
 13 21  1  0  0  0  0
 13 23  2  0  0  0  0
 14 25  2  0  0  0  0
 14 26  1  0  0  0  0
 15 28  2  0  0  0  0
 15 29  1  0  0  0  0
 16 27  1  0  0  0  0
 17 27  1  0  0  0  0
 17 30  2  0  0  0  0
 17 31  1  0  0  0  0
 18 20  2  0  0  0  0
 18 37  1  0  0  0  0
 19 21  2  0  0  0  0
 19 38  1  0  0  0  0
 20 46  1  0  0  0  0
 21 39  1  0  0  0  0
 22 81  1  0  0  0  0
 23 82  1  0  0  0  0
 24 26  2  0  0  0  0
 24 81  1  0  0  0  0
 25 83  1  0  0  0  0
 26 84  1  0  0  0  0
 27 61  2  0  0  0  0
 28 32  1  0  0  0  0
 28 63  1  0  0  0  0
 29 62  2  0  0  0  0
 29 69  1  0  0  0  0
 30 64  1  0  0  0  0
 30 67  1  0  0  0  0
 31 68  1  0  0  0  0
 31 74  2  0  0  0  0
 32 70  1  0  0  0  0
 32 75  2  0  0  0  0
 33 47  1  0  0  0  0
 33 71  1  0  0  0  0
 33 76  2  0  0  0  0
 34 57  1  0  0  0  0
 34 65  1  0  0  0  0
 34 77  2  0  0  0  0
 35 58  1  0  0  0  0
 35 72  1  0  0  0  0
 35 78  2  0  0  0  0
 36 66  1  0  0  0  0
 36 69  1  0  0  0  0
 36 79  2  0  0  0  0
 37 40  1  0  0  0  0
 38 47  1  0  0  0  0
 39 65  1  0  0  0  0
 40 42  1  0  0  0  0
 41 43  1  0  0  0  0
 41 44  1  0  0  0  0
 42 46  1  0  0  0  0
 43 48  1  0  0  0  0
 44 66  1  0  0  0  0
 45 48  1  0  0  0  0
 45 66  1  0  0  0  0
 46 71  1  0  0  0  0
 47 65  1  0  0  0  0
 48 64  1  0  0  0  0
 49 58  1  0  0  0  0
 50 60  1  0  0  0  0
 51 60  1  0  0  0  0
 52 60  1  0  0  0  0
 53 63  1  0  0  0  0
 54 73  1  0  0  0  0
 55 59  1  0  0  0  0
 55 70  1  0  0  0  0
 56 59  1  0  0  0  0
 56 82  1  0  0  0  0
 57 60  1  0  0  0  0
 57 72  1  0  0  0  0
 58 73  1  0  0  0  0
 59 80  1  0  0  0  0
 61 64  1  0  0  0  0
 62 63  1  0  0  0  0
M  CHG  1  73   1
M  ISO  4  36 100  56 101  69 100  82 101
M  END
> <Batch ID>
0192

> <Smiles>
CNC(C)C(=O)NC(C(=O)N1Cc2cc([101O:1][101CH2:1]C(O)CNC(=O)c3cc([100NH:0][100C:0](=O)N4CCCC(n5nc(-c6ccc(Oc7ccc(F)cc7F)cc6)c(C(N)=O)c5N)C4)nn3C)ccc2CC1C(=O)NC1CCCc2ccccc21)C(C)(C)C

> <Shape>
0.209

> <Color>
0.180

> <Negative vol penalty>
0.000

$$$$

  -OEChem-04052305273D

 85 93  0     1  0  0  0  0  0999 V2000
  -18.2148  -32.5544   21.8390 C   0  0  0  0  0  0  0  0  0  0  0  0
  -19.5451  -32.5508   21.4319 C   0  0  0  0  0  0  0  0  0  0  0  0
  -26.4267  -13.0486   21.6653 C   0  0  0  0  0  0  0  0  0  0  0  0
  -25.9658  -14.0727   19.5262 C   0  0  0  0  0  0  0  0  0  0  0  0
  -17.7756  -31.6347   22.7903 C   0  0  0  0  0  0  0  0  0  0  0  0
  -20.4373  -31.6280   21.9768 C   0  0  0  0  0  0  0  0  0  0  0  0
  -25.1342  -28.9227   19.1263 C   0  0  0  0  0  0  0  0  0  0  0  0
  -25.1574  -12.4704   21.6620 C   0  0  0  0  0  0  0  0  0  0  0  0
  -24.6964  -13.4945   19.5229 C   0  0  0  0  0  0  0  0  0  0  0  0
  -26.5015  -29.1945   19.1060 C   0  0  0  0  0  0  0  0  0  0  0  0
  -23.6303   -9.8221   20.2171 C   0  0  0  0  0  0  0  0  0  0  0  0
  -23.5287   -8.4794   20.5808 C   0  0  0  0  0  0  0  0  0  0  0  0
  -26.8470  -27.5553   20.8418 C   0  0  0  0  0  0  0  0  0  0  0  0
  -22.0711   -9.0851   22.4100 C   0  0  0  0  0  0  0  0  0  0  0  0
  -29.1288  -21.4363   17.5596 C   0  0  0  0  0  0  0  0  0  0  0  0
  -26.8309  -13.8498   20.5975 C   0  0  0  0  0  0  0  0  0  0  0  0
  -29.3286  -13.8972   20.0810 C   0  0  0  0  0  0  0  0  0  0  0  0
  -18.6606  -30.6939   23.3401 C   0  0  0  0  0  0  0  0  0  0  0  0
  -24.6107  -27.9713   20.0136 C   0  0  0  0  0  0  0  0  0  0  0  0
  -20.0098  -30.6957   22.9374 C   0  0  0  0  0  0  0  0  0  0  0  0
  -25.4730  -27.2714   20.8696 C   0  0  0  0  0  0  0  0  0  0  0  0
  -24.2922  -12.6933   20.5908 C   0  0  0  0  0  0  0  0  0  0  0  0
  -27.3577  -28.5129   19.9659 C   0  0  0  0  0  0  0  0  0  0  0  0
  -22.9524  -10.7964   20.9499 C   0  0  0  0  0  0  0  0  0  0  0  0
  -22.7491   -8.1108   21.6772 C   0  0  0  0  0  0  0  0  0  0  0  0
  -22.1728  -10.4279   22.0463 C   0  0  0  0  0  0  0  0  0  0  0  0
  -29.1845  -22.4288   16.5875 C   0  0  0  0  0  0  0  0  0  0  0  0
  -29.7554  -23.6598   16.8907 C   0  0  0  0  0  0  0  0  0  0  0  0
  -28.1418  -14.4479   20.6006 C   0  0  0  0  0  0  0  0  0  0  0  0
  -29.6537  -21.7225   18.8096 C   0  0  0  0  0  0  0  0  0  0  0  0
  -30.2520  -23.8466   18.1706 C   0  0  0  0  0  0  0  0  0  0  0  0
  -30.2866  -14.8496   20.3296 C   0  0  0  0  0  0  0  0  0  0  0  0
  -29.5457  -12.6375   19.4316 C   0  0  0  0  0  0  0  0  0  0  0  0
  -22.5400  -28.0524   22.4238 C   0  0  0  0  0  0  0  0  0  0  0  0
  -22.9275  -24.8326   22.3529 C   0  0  0  0  0  0  0  0  0  0  0  0
  -24.8839  -22.1679   21.5054 C   0  0  0  0  0  0  0  0  0  0  0  0
  -30.0524  -20.7695   21.1072 C   0  0  0  0  0  0  0  0  0  0  0  0
  -18.1504  -29.7503   24.4003 C   0  0  0  0  0  0  0  0  0  0  0  0
  -23.1370  -27.6705   20.0044 C   0  0  0  0  0  0  0  0  0  0  0  0
  -24.9638  -26.2261   21.8269 C   0  0  0  0  0  0  0  0  0  0  0  0
  -19.0737  -28.5611   24.6526 C   0  0  0  0  0  0  0  0  0  0  0  0
  -31.3594  -18.3718   23.3919 C   0  0  0  0  0  0  0  0  0  0  0  0
  -20.5207  -29.0264   24.7809 C   0  0  0  0  0  0  0  0  0  0  0  0
  -30.7956  -17.0426   22.8845 C   0  0  0  0  0  0  0  0  0  0  0  0
  -30.3563  -19.5124   23.2291 C   0  0  0  0  0  0  0  0  0  0  0  0
  -29.2461  -18.3410   21.3678 C   0  0  0  0  0  0  0  0  0  0  0  0
  -21.0022  -29.6941   23.4871 C   0  0  1  0  0  0  0  0  0  0  0  0
  -22.6456  -27.0507   21.3089 C   0  0  1  0  0  0  0  0  0  0  0  0
  -30.2443  -17.1747   21.4512 C   0  0  2  0  0  0  0  0  0  0  0  0
  -24.9503  -19.6613   21.6072 C   0  0  0  0  0  0  0  0  0  0  0  0
  -23.6001  -24.9736   25.3257 C   0  0  0  0  0  0  0  0  0  0  0  0
  -24.5605  -22.6685   25.1466 C   0  0  0  0  0  0  0  0  0  0  0  0
  -22.1404  -23.0495   24.6766 C   0  0  0  0  0  0  0  0  0  0  0  0
  -25.0013  -21.9354   18.5573 C   0  0  0  0  0  0  0  0  0  0  0  0
  -30.8934  -27.9068   19.5687 C   0  0  0  0  0  0  0  0  0  0  0  0
  -31.3748  -25.3750   19.7920 C   0  0  0  0  0  0  0  0  0  0  0  0
  -29.5708  -27.7062   20.2936 C   0  0  0  0  0  0  0  0  0  1  0  0
  -23.8675  -23.8541   23.0147 C   0  0  1  0  0  0  0  0  0  0  0  0
  -24.5645  -20.8752   20.7763 C   0  0  2  0  0  0  0  0  0  0  0  0
  -31.9211  -26.8029   19.8394 C   0  0  1  0  0  0  0  0  0  0  0  0
  -23.5518  -23.6574   24.5243 C   0  0  0  0  0  0  0  0  0  0  0  0
  -28.3265  -15.6563   21.1388 N   0  0  0  0  0  0  0  0  0  0  0  0
  -30.2159  -22.9063   19.1413 N   0  0  0  0  0  0  0  0  0  0  0  0
  -29.6406  -15.8728   20.9588 N   0  0  0  0  0  0  0  0  0  0  0  0
  -23.5142  -25.9721   21.7847 N   0  0  0  0  0  0  0  0  0  0  0  0
  -29.8808  -19.5794   21.8455 N   0  0  0  0  0  0  0  0  0  0  0  0
  -31.6102  -14.9032   20.0693 N   0  0  0  0  0  0  0  0  0  0  0  0
  -28.4521  -11.7786   19.2569 N   0  0  0  0  0  0  0  0  0  0  0  0
  -29.5907  -20.7043   19.7930 N   0  0  0  0  0  0  0  0  0  0  0  0
  -30.8248  -25.0660   18.4920 N   0  0  0  0  0  0  0  0  0  0  0  0
  -21.3181  -28.6943   22.4896 N   0  0  0  0  0  0  0  0  0  0  0  0
  -23.8023  -22.6284   22.2260 N   0  0  0  0  0  0  0  0  0  0  0  0
  -25.3031  -20.8137   19.4834 N   0  3  0  0  0  0  0  0  0  0  0  0
  -30.6792  -12.2770   19.0332 O   0  0  0  0  0  0  0  0  0  0  0  0
  -23.4959  -28.2287   23.1701 O   0  0  0  0  0  0  0  0  0  0  0  0
  -21.7179  -24.5911   22.3344 O   0  0  0  0  0  0  0  0  0  0  0  0
  -25.9840  -22.7124   21.4449 O   0  0  0  0  0  0  0  0  0  0  0  0
  -30.5953  -21.7637   21.5958 O   0  0  0  0  0  0  0  0  0  0  0  0
  -32.9793  -26.9088   18.8852 O   0  0  0  0  0  0  0  0  0  0  0  0
  -23.0536  -12.1290   20.5871 O   0  0  0  0  0  0  0  0  0  0  0  0
  -28.6926  -28.7768   19.9486 O   0  0  0  0  0  0  0  0  0  1  0  0
  -22.6504   -6.8212   22.0254 F   0  0  0  0  0  0  0  0  0  0  0  0
  -21.5183  -11.3592   22.7534 F   0  0  0  0  0  0  0  0  0  0  0  0
  -28.6853  -22.1834   15.3677 F   0  0  0  0  0  0  0  0  0  0  0  0
  -29.8185  -24.8840   15.6784 Cl  0  0  0  0  0  0  0  0  0  0  0  0
  1  2  1  0  0  0  0
  1  5  2  0  0  0  0
  2  6  2  0  0  0  0
  3  8  2  0  0  0  0
  3 16  1  0  0  0  0
  4  9  1  0  0  0  0
  4 16  2  0  0  0  0
  5 18  1  0  0  0  0
  6 20  1  0  0  0  0
  7 10  2  0  0  0  0
  7 19  1  0  0  0  0
  8 22  1  0  0  0  0
  9 22  2  0  0  0  0
 10 23  1  0  0  0  0
 11 12  2  0  0  0  0
 11 24  1  0  0  0  0
 12 25  1  0  0  0  0
 13 21  1  0  0  0  0
 13 23  2  0  0  0  0
 14 25  2  0  0  0  0
 14 26  1  0  0  0  0
 15 27  2  0  0  0  0
 15 30  1  0  0  0  0
 16 29  1  0  0  0  0
 17 29  1  0  0  0  0
 17 32  2  0  0  0  0
 17 33  1  0  0  0  0
 18 20  2  0  0  0  0
 18 38  1  0  0  0  0
 19 21  2  0  0  0  0
 19 39  1  0  0  0  0
 20 47  1  0  0  0  0
 21 40  1  0  0  0  0
 22 80  1  0  0  0  0
 23 81  1  0  0  0  0
 24 26  2  0  0  0  0
 24 80  1  0  0  0  0
 25 82  1  0  0  0  0
 26 83  1  0  0  0  0
 27 28  1  0  0  0  0
 27 84  1  0  0  0  0
 28 31  2  0  0  0  0
 28 85  1  0  0  0  0
 29 62  2  0  0  0  0
 30 63  2  0  0  0  0
 30 69  1  0  0  0  0
 31 63  1  0  0  0  0
 31 70  1  0  0  0  0
 32 64  1  0  0  0  0
 32 67  1  0  0  0  0
 33 68  1  0  0  0  0
 33 74  2  0  0  0  0
 34 48  1  0  0  0  0
 34 71  1  0  0  0  0
 34 75  2  0  0  0  0
 35 58  1  0  0  0  0
 35 65  1  0  0  0  0
 35 76  2  0  0  0  0
 36 59  1  0  0  0  0
 36 72  1  0  0  0  0
 36 77  2  0  0  0  0
 37 66  1  0  0  0  0
 37 69  1  0  0  0  0
 37 78  2  0  0  0  0
 38 41  1  0  0  0  0
 39 48  1  0  0  0  0
 40 65  1  0  0  0  0
 41 43  1  0  0  0  0
 42 44  1  0  0  0  0
 42 45  1  0  0  0  0
 43 47  1  0  0  0  0
 44 49  1  0  0  0  0
 45 66  1  0  0  0  0
 46 49  1  0  0  0  0
 46 66  1  0  0  0  0
 47 71  1  0  0  0  0
 48 65  1  0  0  0  0
 49 64  1  0  0  0  0
 50 59  1  0  0  0  0
 51 61  1  0  0  0  0
 52 61  1  0  0  0  0
 53 61  1  0  0  0  0
 54 73  1  0  0  0  0
 55 57  1  0  0  0  0
 55 60  1  0  0  0  0
 56 60  1  0  0  0  0
 56 70  1  0  0  0  0
 57 81  1  0  0  0  0
 58 61  1  0  0  0  0
 58 72  1  0  0  0  0
 59 73  1  0  0  0  0
 60 79  1  0  0  0  0
 62 64  1  0  0  0  0
M  CHG  1  73   1
M  ISO  4  37 100  57 101  69 100  81 101
M  END
> <Batch ID>
0192

> <Smiles>
CNC(C)C(=O)NC(C(=O)N1Cc2cc([101O:1][101CH2:1]CC(O)CNc3nc([100NH:0][100C:0](=O)N4CCCC(n5nc(-c6ccc(Oc7ccc(F)cc7F)cc6)c(C(N)=O)c5N)C4)cc(F)c3Cl)ccc2CC1C(=O)NC1CCCc2ccccc21)C(C)(C)C

> <Shape>
0.282

> <Color>
0.093

> <Negative vol penalty>
0.000

$$$$

  -OEChem-04052305273D

 85 93  0     1  0  0  0  0  0999 V2000
  -27.4834  -10.1347   24.6139 C   0  0  0  0  0  0  0  0  0  0  0  0
  -28.0954  -11.3451   24.3044 C   0  0  0  0  0  0  0  0  0  0  0  0
  -19.9380  -28.1684   23.7871 C   0  0  0  0  0  0  0  0  0  0  0  0
  -20.1502  -26.7475   21.8447 C   0  0  0  0  0  0  0  0  0  0  0  0
  -26.4260   -9.6697   23.8332 C   0  0  0  0  0  0  0  0  0  0  0  0
  -27.6509  -12.0908   23.2131 C   0  0  0  0  0  0  0  0  0  0  0  0
  -27.4677  -18.1951   22.7547 C   0  0  0  0  0  0  0  0  0  0  0  0
  -18.5525  -28.0125   23.7499 C   0  0  0  0  0  0  0  0  0  0  0  0
  -18.7645  -26.5915   21.8075 C   0  0  0  0  0  0  0  0  0  0  0  0
  -28.3261  -19.1170   22.1572 C   0  0  0  0  0  0  0  0  0  0  0  0
  -15.9515  -29.2666   21.9930 C   0  0  0  0  0  0  0  0  0  0  0  0
  -15.1670  -30.4080   22.1581 C   0  0  0  0  0  0  0  0  0  0  0  0
  -26.9473  -19.1087   20.1778 C   0  0  0  0  0  0  0  0  0  0  0  0
  -14.1465  -29.4236   24.1143 C   0  0  0  0  0  0  0  0  0  0  0  0
  -20.7369  -27.5360   22.8344 C   0  0  0  0  0  0  0  0  0  0  0  0
  -23.0964  -26.8935   23.5610 C   0  0  0  0  0  0  0  0  0  0  0  0
  -25.9620  -10.4148   22.7376 C   0  0  0  0  0  0  0  0  0  0  0  0
  -26.3468  -17.7140   22.0630 C   0  0  0  0  0  0  0  0  0  0  0  0
  -26.5871  -11.6347   22.4162 C   0  0  0  0  0  0  0  0  0  0  0  0
  -26.0749  -18.1827   20.7697 C   0  0  0  0  0  0  0  0  0  0  0  0
  -17.9657  -27.2240   22.7601 C   0  0  0  0  0  0  0  0  0  0  0  0
  -28.0676  -19.5718   20.8675 C   0  0  0  0  0  0  0  0  0  0  0  0
  -15.8335  -28.2037   22.8885 C   0  0  0  0  0  0  0  0  0  0  0  0
  -14.2645  -30.4866   23.2188 C   0  0  0  0  0  0  0  0  0  0  0  0
  -14.9310  -28.2822   23.9491 C   0  0  0  0  0  0  0  0  0  0  0  0
  -22.1683  -27.6971   22.8720 C   0  0  0  0  0  0  0  0  0  0  0  0
  -24.3159  -27.4592   23.2793 C   0  0  0  0  0  0  0  0  0  0  0  0
  -29.7946  -26.5735   19.2464 C   0  0  0  0  0  0  0  0  0  0  0  0
  -29.7906  -24.5115   19.0804 C   0  0  0  0  0  0  0  0  0  0  0  0
  -22.8759  -25.7390   24.3820 C   0  0  0  0  0  0  0  0  0  0  0  0
  -25.3881  -14.8549   21.0577 C   0  0  0  0  0  0  0  0  0  0  0  0
  -22.6927  -16.4721   20.2566 C   0  0  0  0  0  0  0  0  0  0  0  0
  -21.2303  -19.4504   19.4578 C   0  0  0  0  0  0  0  0  0  0  0  0
  -27.9184  -29.7064   19.6575 C   0  0  0  0  0  0  0  0  0  0  0  0
  -24.8468   -9.8485   21.8947 C   0  0  0  0  0  0  0  0  0  0  0  0
  -25.4159  -16.7399   22.7316 C   0  0  0  0  0  0  0  0  0  0  0  0
  -24.8737  -17.7126   19.9922 C   0  0  0  0  0  0  0  0  0  0  0  0
  -24.1907  -10.8798   20.9802 C   0  0  0  0  0  0  0  0  0  0  0  0
  -25.4725  -31.8661   21.0821 C   0  0  0  0  0  0  0  0  0  0  0  0
  -25.2514  -11.7047   20.2582 C   0  0  0  0  0  0  0  0  0  0  0  0
  -24.4688  -30.9079   21.7258 C   0  0  0  0  0  0  0  0  0  0  0  0
  -26.0302  -31.3054   19.7758 C   0  0  0  0  0  0  0  0  0  0  0  0
  -25.6073  -28.9955   20.5236 C   0  0  0  0  0  0  0  0  0  0  0  0
  -26.1172  -12.4842   21.2553 C   0  0  1  0  0  0  0  0  0  0  0  0
  -24.5880  -15.9280   21.7403 C   0  0  1  0  0  0  0  0  0  0  0  0
  -25.0593  -29.4926   21.8722 C   0  0  2  0  0  0  0  0  0  0  0  0
  -32.9617  -28.7218   21.6754 C   0  0  0  0  0  0  0  0  0  0  0  0
  -19.0198  -20.4503   18.8168 C   0  0  0  0  0  0  0  0  0  0  0  0
  -27.6807  -23.0502   20.9290 C   0  0  0  0  0  0  0  0  0  0  0  0
  -31.0853  -21.1309   21.0455 C   0  0  0  0  0  0  0  0  0  0  0  0
  -22.9982  -15.3367   17.4411 C   0  0  0  0  0  0  0  0  0  0  0  0
  -21.3810  -17.0723   16.6408 C   0  0  0  0  0  0  0  0  0  0  0  0
  -20.6518  -15.3640   18.3059 C   0  0  0  0  0  0  0  0  0  0  0  0
  -21.1976  -21.1987   21.8455 C   0  0  0  0  0  0  0  0  0  0  0  0
  -32.1027  -28.2335   20.5192 C   0  0  0  0  0  0  0  0  0  0  0  0
  -30.6117  -28.4299   20.8098 C   0  0  0  0  0  0  0  0  0  0  0  0
  -29.7143  -27.9941   19.6123 C   0  0  2  0  0  0  0  0  0  0  0  0
  -22.2152  -17.2137   19.0315 C   0  0  1  0  0  0  0  0  0  0  0  0
  -19.9636  -20.1179   19.9620 C   0  0  2  0  0  0  0  0  0  0  0  0
  -29.1891  -22.8347   20.8274 C   0  0  1  0  0  0  0  0  0  0  0  0
  -29.5845  -21.3824   21.1436 C   0  0  1  0  0  0  0  0  0  1  0  0
  -21.8353  -16.2542   17.8685 C   0  0  0  0  0  0  0  0  0  0  0  0
  -22.7484  -28.6972   22.2032 N   0  0  0  0  0  0  0  0  0  0  0  0
  -29.5342  -25.5141   19.9698 N   0  0  0  0  0  0  0  0  0  0  0  0
  -30.1899  -24.9003   17.8659 N   0  0  0  0  0  0  0  0  0  0  0  0
  -24.0543  -28.5258   22.4706 N   0  0  0  0  0  0  0  0  0  0  0  0
  -23.9968  -16.7553   20.6866 N   0  0  0  0  0  0  0  0  0  0  0  0
  -26.5763  -29.9621   19.9837 N   0  0  0  0  0  0  0  0  0  0  0  0
  -25.5758  -27.1433   23.6471 N   0  0  0  0  0  0  0  0  0  0  0  0
  -21.5605  -25.2917   24.5665 N   0  0  0  0  0  0  0  0  0  0  0  0
  -29.6227  -23.2030   19.4943 N   0  0  0  0  0  0  0  0  0  0  0  0
  -25.4085  -13.6510   21.7357 N   0  0  0  0  0  0  0  0  0  0  0  0
  -21.1250  -18.0757   19.4752 N   0  0  0  0  0  0  0  0  0  0  0  0
  -28.3576  -28.4090   19.8914 N   0  0  0  0  0  0  0  0  0  0  0  0
  -20.2943  -21.3811   20.6803 N   0  3  0  0  0  0  0  0  0  0  0  0
  -23.8160  -25.1321   24.9489 O   0  0  0  0  0  0  0  0  0  0  0  0
  -25.9445  -15.1006   19.9938 O   0  0  0  0  0  0  0  0  0  0  0  0
  -21.9340  -15.6763   20.8158 O   0  0  0  0  0  0  0  0  0  0  0  0
  -22.2135  -20.0851   19.0823 O   0  0  0  0  0  0  0  0  0  0  0  0
  -28.6711  -30.5716   19.1973 O   0  0  0  0  0  0  0  0  0  0  0  0
  -30.1928  -26.2965   17.9771 O   0  0  0  0  0  0  0  0  0  0  0  0
  -16.6137  -27.0715   22.7236 O   0  0  0  0  0  0  0  0  0  0  0  0
  -28.9041  -20.4711   20.2816 O   0  0  0  0  0  0  0  0  0  1  0  0
  -13.5123  -31.5834   23.3781 F   0  0  0  0  0  0  0  0  0  0  0  0
  -14.8141  -27.2647   24.8133 F   0  0  0  0  0  0  0  0  0  0  0  0
  1  2  1  0  0  0  0
  1  5  2  0  0  0  0
  2  6  2  0  0  0  0
  3  8  2  0  0  0  0
  3 15  1  0  0  0  0
  4  9  1  0  0  0  0
  4 15  2  0  0  0  0
  5 17  1  0  0  0  0
  6 19  1  0  0  0  0
  7 10  2  0  0  0  0
  7 18  1  0  0  0  0
  8 21  1  0  0  0  0
  9 21  2  0  0  0  0
 10 22  1  0  0  0  0
 11 12  2  0  0  0  0
 11 23  1  0  0  0  0
 12 24  1  0  0  0  0
 13 20  1  0  0  0  0
 13 22  2  0  0  0  0
 14 24  2  0  0  0  0
 14 25  1  0  0  0  0
 15 26  1  0  0  0  0
 16 26  1  0  0  0  0
 16 27  2  0  0  0  0
 16 30  1  0  0  0  0
 17 19  2  0  0  0  0
 17 35  1  0  0  0  0
 18 20  2  0  0  0  0
 18 36  1  0  0  0  0
 19 44  1  0  0  0  0
 20 37  1  0  0  0  0
 21 82  1  0  0  0  0
 22 83  1  0  0  0  0
 23 25  2  0  0  0  0
 23 82  1  0  0  0  0
 24 84  1  0  0  0  0
 25 85  1  0  0  0  0
 26 63  2  0  0  0  0
 27 66  1  0  0  0  0
 27 69  1  0  0  0  0
 28 57  1  0  0  0  0
 28 64  2  0  0  0  0
 28 81  1  0  0  0  0
 29 64  1  0  0  0  0
 29 65  2  0  0  0  0
 29 71  1  0  0  0  0
 30 70  1  0  0  0  0
 30 76  2  0  0  0  0
 31 45  1  0  0  0  0
 31 72  1  0  0  0  0
 31 77  2  0  0  0  0
 32 58  1  0  0  0  0
 32 67  1  0  0  0  0
 32 78  2  0  0  0  0
 33 59  1  0  0  0  0
 33 73  1  0  0  0  0
 33 79  2  0  0  0  0
 34 68  1  0  0  0  0
 34 74  1  0  0  0  0
 34 80  2  0  0  0  0
 35 38  1  0  0  0  0
 36 45  1  0  0  0  0
 37 67  1  0  0  0  0
 38 40  1  0  0  0  0
 39 41  1  0  0  0  0
 39 42  1  0  0  0  0
 40 44  1  0  0  0  0
 41 46  1  0  0  0  0
 42 68  1  0  0  0  0
 43 46  1  0  0  0  0
 43 68  1  0  0  0  0
 44 72  1  0  0  0  0
 45 67  1  0  0  0  0
 46 66  1  0  0  0  0
 47 55  1  0  0  0  0
 48 59  1  0  0  0  0
 49 60  1  0  0  0  0
 50 61  1  0  0  0  0
 51 62  1  0  0  0  0
 52 62  1  0  0  0  0
 53 62  1  0  0  0  0
 54 75  1  0  0  0  0
 55 56  1  0  0  0  0
 56 57  1  0  0  0  0
 57 74  1  0  0  0  0
 58 62  1  0  0  0  0
 58 73  1  0  0  0  0
 59 75  1  0  0  0  0
 60 61  1  0  0  0  0
 60 71  1  0  0  0  0
 61 83  1  0  0  0  0
 63 66  1  0  0  0  0
 65 81  1  0  0  0  0
M  CHG  1  75   1
M  ISO  4  34 100  61 101  74 100  83 101
M  END
> <Batch ID>
0192

> <Smiles>
CCCC([100NH:0][100C:0](=O)N1CCCC(n2nc(-c3ccc(Oc4ccc(F)cc4F)cc3)c(C(N)=O)c2N)C1)c1nc(NC(C)[101CH:1](C)[101O:1]c2ccc3c(c2)CN(C(=O)C(NC(=O)C(C)NC)C(C)(C)C)C(C(=O)NC2CCCc4ccccc42)C3)no1

> <Shape>
0.226

> <Color>
0.064

> <Negative vol penalty>
0.000

$$$$

  -OEChem-04052305273D

 85 93  0     1  0  0  0  0  0999 V2000
  -23.1988  -22.1674   18.0457 C   0  0  0  0  0  0  0  0  0  0  0  0
  -24.3660  -21.4765   17.7361 C   0  0  0  0  0  0  0  0  0  0  0  0
  -24.8541  -25.6482   20.2410 C   0  0  0  0  0  0  0  0  0  0  0  0
  -25.6740  -25.2504   22.4785 C   0  0  0  0  0  0  0  0  0  0  0  0
  -22.5195  -21.8899   19.2312 C   0  0  0  0  0  0  0  0  0  0  0  0
  -24.8551  -20.5084   18.6124 C   0  0  0  0  0  0  0  0  0  0  0  0
  -28.3826  -14.2736   18.6394 C   0  0  0  0  0  0  0  0  0  0  0  0
  -23.6403  -26.0930   20.7648 C   0  0  0  0  0  0  0  0  0  0  0  0
  -24.4602  -25.6953   23.0024 C   0  0  0  0  0  0  0  0  0  0  0  0
  -29.4925  -13.6666   19.2254 C   0  0  0  0  0  0  0  0  0  0  0  0
  -22.4256  -28.9064   22.1939 C   0  0  0  0  0  0  0  0  0  0  0  0
  -21.8781  -30.0732   21.6606 C   0  0  0  0  0  0  0  0  0  0  0  0
  -28.1921  -13.2154   21.2065 C   0  0  0  0  0  0  0  0  0  0  0  0
  -19.9085  -28.8438   20.9925 C   0  0  0  0  0  0  0  0  0  0  0  0
  -30.9027  -19.0589   24.0587 C   0  0  0  0  0  0  0  0  0  0  0  0
  -25.8709  -25.2268   21.0978 C   0  0  0  0  0  0  0  0  0  0  0  0
  -28.2657  -25.5424   20.2774 C   0  0  0  0  0  0  0  0  0  0  0  0
  -22.9952  -20.9111   20.1179 C   0  0  0  0  0  0  0  0  0  0  0  0
  -27.1702  -14.3660   19.3379 C   0  0  0  0  0  0  0  0  0  0  0  0
  -24.1821  -20.2185   19.8116 C   0  0  0  0  0  0  0  0  0  0  0  0
  -27.0676  -13.8218   20.6261 C   0  0  0  0  0  0  0  0  0  0  0  0
  -23.4433  -26.1166   22.1455 C   0  0  0  0  0  0  0  0  0  0  0  0
  -29.3982  -13.1400   20.5103 C   0  0  0  0  0  0  0  0  0  0  0  0
  -21.7146  -27.7082   22.1264 C   0  0  0  0  0  0  0  0  0  0  0  0
  -20.6196  -30.0419   21.0599 C   0  0  0  0  0  0  0  0  0  0  0  0
  -20.4560  -27.6769   21.5258 C   0  0  0  0  0  0  0  0  0  0  0  0
  -27.1248  -24.7666   20.5573 C   0  0  0  0  0  0  0  0  0  0  0  0
  -31.6275  -18.3624   25.0041 C   0  0  0  0  0  0  0  0  0  0  0  0
  -30.8330  -18.4749   22.8104 C   0  0  0  0  0  0  0  0  0  0  0  0
  -29.1794  -24.6436   19.7837 C   0  0  0  0  0  0  0  0  0  0  0  0
  -32.0992  -16.7197   23.5054 C   0  0  0  0  0  0  0  0  0  0  0  0
  -28.4804  -26.9496   20.4484 C   0  0  0  0  0  0  0  0  0  0  0  0
  -25.3565  -16.7609   20.3764 C   0  0  0  0  0  0  0  0  0  0  0  0
  -23.3194  -14.3620   21.1625 C   0  0  0  0  0  0  0  0  0  0  0  0
  -22.8843  -11.0652   21.9295 C   0  0  0  0  0  0  0  0  0  0  0  0
  -29.9015  -18.7538   20.4864 C   0  0  0  0  0  0  0  0  0  0  0  0
  -22.2523  -20.6793   21.4098 C   0  0  0  0  0  0  0  0  0  0  0  0
  -25.9746  -15.0000   18.6814 C   0  0  0  0  0  0  0  0  0  0  0  0
  -25.7829  -13.8772   21.4103 C   0  0  0  0  0  0  0  0  0  0  0  0
  -22.6327  -19.3749   22.1055 C   0  0  0  0  0  0  0  0  0  0  0  0
  -29.4425  -20.4911   17.4126 C   0  0  0  0  0  0  0  0  0  0  0  0
  -24.1489  -19.2117   22.1420 C   0  0  0  0  0  0  0  0  0  0  0  0
  -28.9056  -21.8574   17.8451 C   0  0  0  0  0  0  0  0  0  0  0  0
  -28.9043  -19.3654   18.2940 C   0  0  0  0  0  0  0  0  0  0  0  0
  -28.5613  -20.9260   20.1691 C   0  0  0  0  0  0  0  0  0  0  0  0
  -24.7307  -19.1437   20.7249 C   0  0  1  0  0  0  0  0  0  0  0  0
  -24.9361  -15.4961   19.6828 C   0  0  1  0  0  0  0  0  0  0  0  0
  -29.1266  -22.0987   19.3513 C   0  0  2  0  0  0  0  0  0  0  0  0
  -31.7570  -18.9133   26.3844 C   0  0  0  0  0  0  0  0  0  0  0  0
  -21.1097   -9.4074   22.5619 C   0  0  0  0  0  0  0  0  0  0  0  0
  -33.6368  -15.5791   20.9891 C   0  0  0  0  0  0  0  0  0  0  0  0
  -23.2612  -15.5067   23.9903 C   0  0  0  0  0  0  0  0  0  0  0  0
  -22.2839  -13.3386   24.7729 C   0  0  0  0  0  0  0  0  0  0  0  0
  -21.0413  -14.7432   23.1280 C   0  0  0  0  0  0  0  0  0  0  0  0
  -23.3981   -9.4220   19.5223 C   0  0  0  0  0  0  0  0  0  0  0  0
  -33.0059  -13.3842   22.0523 C   0  0  0  0  0  0  0  0  0  0  0  0
  -30.5821  -12.6205   22.5064 C   0  0  0  0  0  0  0  0  0  1  0  0
  -23.1084  -13.4945   22.3798 C   0  0  1  0  0  0  0  0  0  0  0  0
  -21.8933  -10.0346   21.4193 C   0  0  2  0  0  0  0  0  0  0  0  0
  -32.6589  -14.8729   21.9237 C   0  0  1  0  0  0  0  0  0  0  0  0
  -32.0460  -12.5728   22.9378 C   0  0  1  0  0  0  0  0  0  0  0  0
  -22.4486  -14.2712   23.5540 C   0  0  0  0  0  0  0  0  0  0  0  0
  -27.2956  -23.4745   20.2655 N   0  0  0  0  0  0  0  0  0  0  0  0
  -32.2411  -17.1856   24.7608 N   0  0  0  0  0  0  0  0  0  0  0  0
  -31.4215  -17.3018   22.4977 N   0  0  0  0  0  0  0  0  0  0  0  0
  -28.5544  -23.4314   19.7970 N   0  0  0  0  0  0  0  0  0  0  0  0
  -24.6438  -14.5129   20.7278 N   0  0  0  0  0  0  0  0  0  0  0  0
  -29.1531  -19.6608   19.7067 N   0  0  0  0  0  0  0  0  0  0  0  0
  -30.4483  -24.7798   19.3437 N   0  0  0  0  0  0  0  0  0  0  0  0
  -27.4361  -27.7265   20.9684 N   0  0  0  0  0  0  0  0  0  0  0  0
  -30.1013  -19.1564   21.8065 N   0  0  0  0  0  0  0  0  0  0  0  0
  -32.7141  -15.5133   23.2208 N   0  0  0  0  0  0  0  0  0  0  0  0
  -24.5137  -17.8326   20.1518 N   0  0  0  0  0  0  0  0  0  0  0  0
  -22.3470  -12.3351   21.9277 N   0  0  0  0  0  0  0  0  0  0  0  0
  -22.6053   -8.9497   20.6865 N   0  3  0  0  0  0  0  0  0  0  0  0
  -29.5604  -27.5046   20.1337 O   0  0  0  0  0  0  0  0  0  0  0  0
  -26.3697  -16.7639   21.0657 O   0  0  0  0  0  0  0  0  0  0  0  0
  -22.3443  -14.8808   20.6132 O   0  0  0  0  0  0  0  0  0  0  0  0
  -24.0201  -10.7724   22.2966 O   0  0  0  0  0  0  0  0  0  0  0  0
  -30.3565  -17.7105   20.0104 O   0  0  0  0  0  0  0  0  0  0  0  0
  -32.4599  -11.2039   22.9095 O   0  0  0  0  0  0  0  0  0  0  0  0
  -22.2591  -26.5508   22.6570 O   0  0  0  0  0  0  0  0  0  0  0  0
  -30.4802  -12.5475   21.0849 O   0  0  0  0  0  0  0  0  0  1  0  0
  -20.0933  -31.1628   20.5492 F   0  0  0  0  0  0  0  0  0  0  0  0
  -19.7677  -26.5291   21.4591 F   0  0  0  0  0  0  0  0  0  0  0  0
  1  2  1  0  0  0  0
  1  5  2  0  0  0  0
  2  6  2  0  0  0  0
  3  8  2  0  0  0  0
  3 16  1  0  0  0  0
  4  9  1  0  0  0  0
  4 16  2  0  0  0  0
  5 18  1  0  0  0  0
  6 20  1  0  0  0  0
  7 10  2  0  0  0  0
  7 19  1  0  0  0  0
  8 22  1  0  0  0  0
  9 22  2  0  0  0  0
 10 23  1  0  0  0  0
 11 12  2  0  0  0  0
 11 24  1  0  0  0  0
 12 25  1  0  0  0  0
 13 21  1  0  0  0  0
 13 23  2  0  0  0  0
 14 25  2  0  0  0  0
 14 26  1  0  0  0  0
 15 28  1  0  0  0  0
 15 29  2  0  0  0  0
 16 27  1  0  0  0  0
 17 27  1  0  0  0  0
 17 30  2  0  0  0  0
 17 32  1  0  0  0  0
 18 20  2  0  0  0  0
 18 37  1  0  0  0  0
 19 21  2  0  0  0  0
 19 38  1  0  0  0  0
 20 46  1  0  0  0  0
 21 39  1  0  0  0  0
 22 82  1  0  0  0  0
 23 83  1  0  0  0  0
 24 26  2  0  0  0  0
 24 82  1  0  0  0  0
 25 84  1  0  0  0  0
 26 85  1  0  0  0  0
 27 63  2  0  0  0  0
 28 49  1  0  0  0  0
 28 64  2  0  0  0  0
 29 65  1  0  0  0  0
 29 71  1  0  0  0  0
 30 66  1  0  0  0  0
 30 69  1  0  0  0  0
 31 64  1  0  0  0  0
 31 65  2  0  0  0  0
 31 72  1  0  0  0  0
 32 70  1  0  0  0  0
 32 76  2  0  0  0  0
 33 47  1  0  0  0  0
 33 73  1  0  0  0  0
 33 77  2  0  0  0  0
 34 58  1  0  0  0  0
 34 67  1  0  0  0  0
 34 78  2  0  0  0  0
 35 59  1  0  0  0  0
 35 74  1  0  0  0  0
 35 79  2  0  0  0  0
 36 68  1  0  0  0  0
 36 71  1  0  0  0  0
 36 80  2  0  0  0  0
 37 40  1  0  0  0  0
 38 47  1  0  0  0  0
 39 67  1  0  0  0  0
 40 42  1  0  0  0  0
 41 43  1  0  0  0  0
 41 44  1  0  0  0  0
 42 46  1  0  0  0  0
 43 48  1  0  0  0  0
 44 68  1  0  0  0  0
 45 48  1  0  0  0  0
 45 68  1  0  0  0  0
 46 73  1  0  0  0  0
 47 67  1  0  0  0  0
 48 66  1  0  0  0  0
 50 59  1  0  0  0  0
 51 60  1  0  0  0  0
 52 62  1  0  0  0  0
 53 62  1  0  0  0  0
 54 62  1  0  0  0  0
 55 75  1  0  0  0  0
 56 60  1  0  0  0  0
 56 61  1  0  0  0  0
 57 61  1  0  0  0  0
 57 83  1  0  0  0  0
 58 62  1  0  0  0  0
 58 74  1  0  0  0  0
 59 75  1  0  0  0  0
 60 72  1  0  0  0  0
 61 81  1  0  0  0  0
 63 66  1  0  0  0  0
M  CHG  1  75   1
M  ISO  4  36 100  57 101  71 100  83 101
M  END
> <Batch ID>
0192

> <Smiles>
CNC(C)C(=O)NC(C(=O)N1Cc2cc([101O:1][101CH2:1]C(O)CC(C)Nc3nc(C)cc([100NH:0][100C:0](=O)N4CCCC(n5nc(-c6ccc(Oc7ccc(F)cc7F)cc6)c(C(N)=O)c5N)C4)n3)ccc2CC1C(=O)NC1CCCc2ccccc21)C(C)(C)C

> <Shape>
0.230

> <Color>
0.067

> <Negative vol penalty>
0.000

$$$$

  -OEChem-04052305273D

 85 93  0     1  0  0  0  0  0999 V2000
  -17.5073  -27.0140   19.2674 C   0  0  0  0  0  0  0  0  0  0  0  0
  -18.8510  -27.1008   18.9175 C   0  0  0  0  0  0  0  0  0  0  0  0
  -24.5403  -13.9891   21.0414 C   0  0  0  0  0  0  0  0  0  0  0  0
  -26.7738  -13.5243   20.2460 C   0  0  0  0  0  0  0  0  0  0  0  0
  -17.1214  -27.1888   20.5957 C   0  0  0  0  0  0  0  0  0  0  0  0
  -19.8094  -27.3636   19.8956 C   0  0  0  0  0  0  0  0  0  0  0  0
  -25.5301  -25.1892   20.1223 C   0  0  0  0  0  0  0  0  0  0  0  0
  -24.1337  -12.7154   20.6440 C   0  0  0  0  0  0  0  0  0  0  0  0
  -26.3672  -12.2506   19.8486 C   0  0  0  0  0  0  0  0  0  0  0  0
  -26.7573  -25.7374   19.7518 C   0  0  0  0  0  0  0  0  0  0  0  0
  -24.3731   -9.5488   21.8052 C   0  0  0  0  0  0  0  0  0  0  0  0
  -23.5932   -8.8102   22.6951 C   0  0  0  0  0  0  0  0  0  0  0  0
  -27.1264  -26.4360   22.0311 C   0  0  0  0  0  0  0  0  0  0  0  0
  -21.8175   -8.7145   21.0595 C   0  0  0  0  0  0  0  0  0  0  0  0
  -32.1204  -22.7776   22.2319 C   0  0  0  0  0  0  0  0  0  0  0  0
  -25.8604  -14.3936   20.8424 C   0  0  0  0  0  0  0  0  0  0  0  0
  -26.8047  -16.0829   22.5043 C   0  0  0  0  0  0  0  0  0  0  0  0
  -18.0766  -27.4443   21.5922 C   0  0  0  0  0  0  0  0  0  0  0  0
  -25.0862  -25.2700   21.4500 C   0  0  0  0  0  0  0  0  0  0  0  0
  -19.4358  -27.5433   21.2382 C   0  0  0  0  0  0  0  0  0  0  0  0
  -25.8944  -25.8858   22.4163 C   0  0  0  0  0  0  0  0  0  0  0  0
  -31.9198  -21.8669   21.2146 C   0  0  0  0  0  0  0  0  0  0  0  0
  -25.0472  -11.8461   20.0476 C   0  0  0  0  0  0  0  0  0  0  0  0
  -27.5544  -26.3635   20.7057 C   0  0  0  0  0  0  0  0  0  0  0  0
  -23.8751   -9.8704   20.5425 C   0  0  0  0  0  0  0  0  0  0  0  0
  -22.3155   -8.3930   22.3222 C   0  0  0  0  0  0  0  0  0  0  0  0
  -22.5974   -9.4532   20.1697 C   0  0  0  0  0  0  0  0  0  0  0  0
  -26.2808  -15.7094   21.2522 C   0  0  0  0  0  0  0  0  0  0  0  0
  -31.5194  -22.4001   20.0064 C   0  0  0  0  0  0  0  0  0  0  0  0
  -27.0445  -17.4303   22.3881 C   0  0  0  0  0  0  0  0  0  0  0  0
  -31.5552  -24.5042   20.8658 C   0  0  0  0  0  0  0  0  0  0  0  0
  -27.0524  -15.2834   23.6684 C   0  0  0  0  0  0  0  0  0  0  0  0
  -22.5982  -26.6097   22.9057 C   0  0  0  0  0  0  0  0  0  0  0  0
  -23.7879  -25.0746   25.5039 C   0  0  0  0  0  0  0  0  0  0  0  0
  -26.4848  -23.6799   27.0621 C   0  0  0  0  0  0  0  0  0  0  0  0
  -28.8179  -21.3351   18.4993 C   0  0  0  0  0  0  0  0  0  0  0  0
  -17.6066  -27.6730   23.0069 C   0  0  0  0  0  0  0  0  0  0  0  0
  -23.7720  -24.6501   21.8388 C   0  0  0  0  0  0  0  0  0  0  0  0
  -25.4726  -25.9810   23.8590 C   0  0  0  0  0  0  0  0  0  0  0  0
  -18.7235  -27.5765   24.0429 C   0  0  0  0  0  0  0  0  0  0  0  0
  -25.3922  -21.0198   19.4169 C   0  0  0  0  0  0  0  0  0  0  0  0
  -19.9458  -28.3660   23.5853 C   0  0  0  0  0  0  0  0  0  0  0  0
  -25.3209  -19.6530   20.1001 C   0  0  0  0  0  0  0  0  0  0  0  0
  -26.3744  -21.0156   18.2476 C   0  0  0  0  0  0  0  0  0  0  0  0
  -27.6592  -19.1738   19.2627 C   0  0  0  0  0  0  0  0  0  0  0  0
  -20.5077  -27.8023   22.2746 C   0  0  1  0  0  0  0  0  0  0  0  0
  -23.1864  -25.2432   23.1165 C   0  0  1  0  0  0  0  0  0  0  0  0
  -26.7234  -19.1437   20.4832 C   0  0  2  0  0  0  0  0  0  0  0  0
  -32.6632  -18.4527   22.5802 C   0  0  0  0  0  0  0  0  0  0  0  0
  -27.1554  -22.5381   29.1938 C   0  0  0  0  0  0  0  0  0  0  0  0
  -31.3420  -27.9248   19.4249 C   0  0  0  0  0  0  0  0  0  0  0  0
  -23.7560  -27.7611   26.9501 C   0  0  0  0  0  0  0  0  0  0  0  0
  -25.2799  -26.7728   28.6732 C   0  0  0  0  0  0  0  0  0  0  0  0
  -22.9987  -25.8216   28.3354 C   0  0  0  0  0  0  0  0  0  0  0  0
  -27.2805  -21.2162   25.6282 C   0  0  0  0  0  0  0  0  0  0  0  0
  -31.2710  -21.5124   18.8310 C   0  0  0  0  0  0  0  0  0  0  0  0
  -32.5330  -19.9351   22.6699 C   0  0  0  0  0  0  0  0  0  0  0  0
  -29.4418  -26.2814   19.2611 C   0  0  0  0  0  0  0  0  0  1  0  0
  -24.7807  -25.4192   26.5876 C   0  0  1  0  0  0  0  0  0  0  0  0
  -26.6628  -22.3476   27.7676 C   0  0  2  0  0  0  0  0  0  0  0  0
  -30.9499  -26.4532   19.4302 C   0  0  2  0  0  0  0  0  0  0  0  0
  -24.2112  -26.4438   27.6091 C   0  0  0  0  0  0  0  0  0  0  0  0
  -31.9468  -24.1082   22.0918 N   0  0  0  0  0  0  0  0  0  0  0  0
  -26.1926  -16.7366   20.4029 N   0  0  0  0  0  0  0  0  0  0  0  0
  -31.3266  -23.7187   19.7960 N   0  0  0  0  0  0  0  0  0  0  0  0
  -26.6642  -17.7688   21.1228 N   0  0  0  0  0  0  0  0  0  0  0  0
  -24.1765  -25.3653   24.1885 N   0  0  0  0  0  0  0  0  0  0  0  0
  -27.6853  -20.5237   18.6781 N   0  0  0  0  0  0  0  0  0  0  0  0
  -27.5414  -18.3467   23.2458 N   0  0  0  0  0  0  0  0  0  0  0  0
  -26.7487  -13.9161   23.6169 N   0  0  0  0  0  0  0  0  0  0  0  0
  -32.1158  -20.4955   21.4153 N   0  0  0  0  0  0  0  0  0  0  0  0
  -31.3676  -25.8623   20.6859 N   0  0  0  0  0  0  0  0  0  0  0  0
  -21.2691  -26.5979   22.5278 N   0  0  0  0  0  0  0  0  0  0  0  0
  -25.1946  -24.1519   27.1800 N   0  0  0  0  0  0  0  0  0  0  0  0
  -30.0200  -20.7956   18.9406 N   0  0  0  0  0  0  0  0  0  0  0  0
  -27.6505  -21.5030   27.0381 N   0  3  0  0  0  0  0  0  0  0  0  0
  -27.5136  -15.7703   24.7285 O   0  0  0  0  0  0  0  0  0  0  0  0
  -23.2980  -27.6014   23.0748 O   0  0  0  0  0  0  0  0  0  0  0  0
  -22.7103  -24.5597   25.8124 O   0  0  0  0  0  0  0  0  0  0  0  0
  -27.3998  -24.2471   26.4691 O   0  0  0  0  0  0  0  0  0  0  0  0
  -28.7612  -22.4593   17.9895 O   0  0  0  0  0  0  0  0  0  0  0  0
  -24.6509  -10.6031   19.6599 O   0  0  0  0  0  0  0  0  0  0  0  0
  -28.7524  -26.9000   20.3467 O   0  0  0  0  0  0  0  0  0  1  0  0
  -21.5673   -7.6824   23.1763 F   0  0  0  0  0  0  0  0  0  0  0  0
  -22.1140   -9.7581   18.9575 F   0  0  0  0  0  0  0  0  0  0  0  0
  1  2  1  0  0  0  0
  1  5  2  0  0  0  0
  2  6  2  0  0  0  0
  3  8  2  0  0  0  0
  3 16  1  0  0  0  0
  4  9  1  0  0  0  0
  4 16  2  0  0  0  0
  5 18  1  0  0  0  0
  6 20  1  0  0  0  0
  7 10  2  0  0  0  0
  7 19  1  0  0  0  0
  8 23  1  0  0  0  0
  9 23  2  0  0  0  0
 10 24  1  0  0  0  0
 11 12  2  0  0  0  0
 11 25  1  0  0  0  0
 12 26  1  0  0  0  0
 13 21  1  0  0  0  0
 13 24  2  0  0  0  0
 14 26  2  0  0  0  0
 14 27  1  0  0  0  0
 15 22  1  0  0  0  0
 15 63  2  0  0  0  0
 16 28  1  0  0  0  0
 17 28  1  0  0  0  0
 17 30  2  0  0  0  0
 17 32  1  0  0  0  0
 18 20  2  0  0  0  0
 18 37  1  0  0  0  0
 19 21  2  0  0  0  0
 19 38  1  0  0  0  0
 20 46  1  0  0  0  0
 21 39  1  0  0  0  0
 22 29  2  0  0  0  0
 22 71  1  0  0  0  0
 23 82  1  0  0  0  0
 24 83  1  0  0  0  0
 25 27  2  0  0  0  0
 25 82  1  0  0  0  0
 26 84  1  0  0  0  0
 27 85  1  0  0  0  0
 28 64  2  0  0  0  0
 29 56  1  0  0  0  0
 29 65  1  0  0  0  0
 30 66  1  0  0  0  0
 30 69  1  0  0  0  0
 31 63  1  0  0  0  0
 31 65  2  0  0  0  0
 31 72  1  0  0  0  0
 32 70  1  0  0  0  0
 32 77  2  0  0  0  0
 33 47  1  0  0  0  0
 33 73  1  0  0  0  0
 33 78  2  0  0  0  0
 34 59  1  0  0  0  0
 34 67  1  0  0  0  0
 34 79  2  0  0  0  0
 35 60  1  0  0  0  0
 35 74  1  0  0  0  0
 35 80  2  0  0  0  0
 36 68  1  0  0  0  0
 36 75  1  0  0  0  0
 36 81  2  0  0  0  0
 37 40  1  0  0  0  0
 38 47  1  0  0  0  0
 39 67  1  0  0  0  0
 40 42  1  0  0  0  0
 41 43  1  0  0  0  0
 41 44  1  0  0  0  0
 42 46  1  0  0  0  0
 43 48  1  0  0  0  0
 44 68  1  0  0  0  0
 45 48  1  0  0  0  0
 45 68  1  0  0  0  0
 46 73  1  0  0  0  0
 47 67  1  0  0  0  0
 48 66  1  0  0  0  0
 49 57  1  0  0  0  0
 50 60  1  0  0  0  0
 51 61  1  0  0  0  0
 52 62  1  0  0  0  0
 53 62  1  0  0  0  0
 54 62  1  0  0  0  0
 55 76  1  0  0  0  0
 56 75  1  0  0  0  0
 57 71  1  0  0  0  0
 58 61  1  0  0  0  0
 58 83  1  0  0  0  0
 59 62  1  0  0  0  0
 59 74  1  0  0  0  0
 60 76  1  0  0  0  0
 61 72  1  0  0  0  0
 64 66  1  0  0  0  0
M  CHG  1  76   1
M  ISO  4  36 100  58 101  75 100  83 101
M  END
> <Batch ID>
0192

> <Smiles>
CCNc1cnc(NC(C)[101CH2:1][101O:1]c2ccc3c(c2)CN(C(=O)C(NC(=O)C(C)NC)C(C)(C)C)C(C(=O)NC2CCCc4ccccc42)C3)nc1C[100NH:0][100C:0](=O)N1CCCC(n2nc(-c3ccc(Oc4ccc(F)cc4F)cc3)c(C(N)=O)c2N)C1

> <Shape>
0.189

> <Color>
0.074

> <Negative vol penalty>
0.000

$$$$

  -OEChem-04052305273D

 85 93  0     1  0  0  0  0  0999 V2000
  -29.4217  -36.8719   14.7681 C   0  0  0  0  0  0  0  0  0  0  0  0
  -29.5576  -35.4915   14.8745 C   0  0  0  0  0  0  0  0  0  0  0  0
  -24.6760   -8.1733   20.4668 C   0  0  0  0  0  0  0  0  0  0  0  0
  -23.0894   -9.9509   20.0668 C   0  0  0  0  0  0  0  0  0  0  0  0
  -29.1192  -37.6305   15.8981 C   0  0  0  0  0  0  0  0  0  0  0  0
  -29.3923  -34.8690   16.1113 C   0  0  0  0  0  0  0  0  0  0  0  0
  -26.9797  -29.3377   17.1556 C   0  0  0  0  0  0  0  0  0  0  0  0
  -23.6446   -7.3570   20.9308 C   0  0  0  0  0  0  0  0  0  0  0  0
  -22.0579   -9.1345   20.5306 C   0  0  0  0  0  0  0  0  0  0  0  0
  -27.5582  -28.0890   17.3790 C   0  0  0  0  0  0  0  0  0  0  0  0
  -21.8408   -6.9921   23.7658 C   0  0  0  0  0  0  0  0  0  0  0  0
  -22.0646   -6.2691   24.9375 C   0  0  0  0  0  0  0  0  0  0  0  0
  -27.3540  -28.4269   19.7588 C   0  0  0  0  0  0  0  0  0  0  0  0
  -21.7066   -4.2058   23.7326 C   0  0  0  0  0  0  0  0  0  0  0  0
  -25.1154  -19.5595   21.0965 C   0  0  0  0  0  0  0  0  0  0  0  0
  -24.3985   -9.4703   20.0349 C   0  0  0  0  0  0  0  0  0  0  0  0
  -25.9268  -10.4298   18.2317 C   0  0  0  0  0  0  0  0  0  0  0  0
  -28.9406  -37.0160   17.1475 C   0  0  0  0  0  0  0  0  0  0  0  0
  -26.5933  -30.1464   18.2341 C   0  0  0  0  0  0  0  0  0  0  0  0
  -29.0885  -35.6203   17.2593 C   0  0  0  0  0  0  0  0  0  0  0  0
  -26.7684  -29.6843   19.5463 C   0  0  0  0  0  0  0  0  0  0  0  0
  -22.3355   -7.8376   20.9626 C   0  0  0  0  0  0  0  0  0  0  0  0
  -27.7481  -27.6347   18.6807 C   0  0  0  0  0  0  0  0  0  0  0  0
  -21.5498   -6.3220   22.5776 C   0  0  0  0  0  0  0  0  0  0  0  0
  -21.9975   -4.8759   24.9209 C   0  0  0  0  0  0  0  0  0  0  0  0
  -21.4827   -4.9288   22.5609 C   0  0  0  0  0  0  0  0  0  0  0  0
  -25.4637  -10.3142   19.5561 C   0  0  0  0  0  0  0  0  0  0  0  0
  -26.3345  -19.8093   21.6912 C   0  0  0  0  0  0  0  0  0  0  0  0
  -26.9416  -11.3526   18.3021 C   0  0  0  0  0  0  0  0  0  0  0  0
  -26.4913  -17.6283   21.5209 C   0  0  0  0  0  0  0  0  0  0  0  0
  -25.4795   -9.7626   17.0440 C   0  0  0  0  0  0  0  0  0  0  0  0
  -27.4403  -33.0184   19.3006 C   0  0  0  0  0  0  0  0  0  0  0  0
  -24.9996  -32.5356   21.3820 C   0  0  0  0  0  0  0  0  0  0  0  0
  -22.9881  -30.3217   23.0249 C   0  0  0  0  0  0  0  0  0  0  0  0
  -28.1456  -15.8153   22.0889 C   0  0  0  0  0  0  0  0  0  0  0  0
  -28.6612  -37.8829   18.3497 C   0  0  0  0  0  0  0  0  0  0  0  0
  -25.9462  -31.4794   17.9759 C   0  0  0  0  0  0  0  0  0  0  0  0
  -26.3522  -30.5054   20.7384 C   0  0  0  0  0  0  0  0  0  0  0  0
  -28.1323  -37.1050   19.5519 C   0  0  0  0  0  0  0  0  0  0  0  0
  -30.2544  -13.0534   21.3132 C   0  0  0  0  0  0  0  0  0  0  0  0
  -28.9672  -35.8498   19.7849 C   0  0  0  0  0  0  0  0  0  0  0  0
  -29.3086  -12.0505   20.6486 C   0  0  0  0  0  0  0  0  0  0  0  0
  -29.5700  -13.8113   22.4494 C   0  0  0  0  0  0  0  0  0  0  0  0
  -27.3583  -13.4590   21.4230 C   0  0  0  0  0  0  0  0  0  0  0  0
  -28.8923  -34.9057   18.5788 C   0  0  1  0  0  0  0  0  0  0  0  0
  -26.0617  -32.4384   19.1567 C   0  0  1  0  0  0  0  0  0  0  0  0
  -27.9836  -12.7175   20.2302 C   0  0  2  0  0  0  0  0  0  0  0  0
  -26.9990  -20.5879   24.5813 C   0  0  0  0  0  0  0  0  0  0  0  0
  -21.1114  -30.2244   24.6880 C   0  0  0  0  0  0  0  0  0  0  0  0
  -28.9722  -21.3499   20.5934 C   0  0  0  0  0  0  0  0  0  0  0  0
  -26.9687  -33.1320   23.6352 C   0  0  0  0  0  0  0  0  0  0  0  0
  -25.3379  -32.1104   25.2368 C   0  0  0  0  0  0  0  0  0  0  0  0
  -24.7009  -34.1420   23.9371 C   0  0  0  0  0  0  0  0  0  0  0  0
  -21.1802  -29.0109   21.0826 C   0  0  0  0  0  0  0  0  0  0  0  0
  -27.7238  -21.1896   23.3811 C   0  0  0  0  0  0  0  0  0  0  0  0
  -27.5734  -23.4221   21.0638 C   0  0  0  0  0  0  0  0  0  0  0  0
  -27.9163  -25.7211   20.0829 C   0  0  0  0  0  0  0  0  0  1  0  0
  -26.8666  -21.1839   22.0921 C   0  0  1  0  0  0  0  0  0  0  0  0
  -24.8698  -31.9151   22.7520 C   0  0  1  0  0  0  0  0  0  0  0  0
  -21.4825  -30.2774   23.2141 C   0  0  2  0  0  0  0  0  0  0  0  0
  -27.5605  -21.8818   20.8723 C   0  0  2  0  0  0  0  0  0  0  0  0
  -28.0210  -24.2189   19.8305 C   0  0  2  0  0  0  0  0  0  0  0  0
  -25.4791  -32.8100   23.8680 C   0  0  0  0  0  0  0  0  0  0  0  0
  -26.1298  -11.1007   20.4057 N   0  0  0  0  0  0  0  0  0  0  0  0
  -27.1246  -18.7030   21.9357 N   0  0  0  0  0  0  0  0  0  0  0  0
  -27.0218  -11.7192   19.6133 N   0  0  0  0  0  0  0  0  0  0  0  0
  -25.7297  -31.8045   20.4342 N   0  0  0  0  0  0  0  0  0  0  0  0
  -28.3242  -14.4201   21.9781 N   0  0  0  0  0  0  0  0  0  0  0  0
  -27.7643  -11.8781   17.3697 N   0  0  0  0  0  0  0  0  0  0  0  0
  -24.4256   -8.8447   17.1499 N   0  0  0  0  0  0  0  0  0  0  0  0
  -26.9358  -16.2841   21.5779 N   0  0  0  0  0  0  0  0  0  0  0  0
  -27.6394  -34.1812   18.5811 N   0  0  0  0  0  0  0  0  0  0  0  0
  -23.4533  -31.6164   22.9324 N   0  0  0  0  0  0  0  0  0  0  0  0
  -20.9111  -29.0761   22.5422 N   0  3  0  0  0  0  0  0  0  0  0  0
  -26.0099   -9.9620   15.9249 O   0  0  0  0  0  0  0  0  0  0  0  0
  -28.2621  -32.4537   20.0130 O   0  0  0  0  0  0  0  0  0  0  0  0
  -24.4666  -33.6254   21.1587 O   0  0  0  0  0  0  0  0  0  0  0  0
  -23.6825  -29.3092   22.9687 O   0  0  0  0  0  0  0  0  0  0  0  0
  -29.0143  -16.5442   22.5747 O   0  0  0  0  0  0  0  0  0  0  0  0
  -27.1786  -23.8806   18.7299 O   0  0  0  0  0  0  0  0  0  0  0  0
  -21.3287   -7.0412   21.4150 O   0  0  0  0  0  0  0  0  0  0  0  0
  -28.3131  -26.4165   18.9016 O   0  0  0  0  0  0  0  0  0  1  0  0
  -22.2140   -4.1817   26.0457 F   0  0  0  0  0  0  0  0  0  0  0  0
  -21.2048   -4.2794   21.4222 F   0  0  0  0  0  0  0  0  0  0  0  0
  -24.9416  -17.8749   20.8262 S   0  0  0  0  0  0  0  0  0  0  0  0
  1  2  1  0  0  0  0
  1  5  2  0  0  0  0
  2  6  2  0  0  0  0
  3  8  2  0  0  0  0
  3 16  1  0  0  0  0
  4  9  1  0  0  0  0
  4 16  2  0  0  0  0
  5 18  1  0  0  0  0
  6 20  1  0  0  0  0
  7 10  2  0  0  0  0
  7 19  1  0  0  0  0
  8 22  1  0  0  0  0
  9 22  2  0  0  0  0
 10 23  1  0  0  0  0
 11 12  2  0  0  0  0
 11 24  1  0  0  0  0
 12 25  1  0  0  0  0
 13 21  1  0  0  0  0
 13 23  2  0  0  0  0
 14 25  2  0  0  0  0
 14 26  1  0  0  0  0
 15 28  2  0  0  0  0
 15 85  1  0  0  0  0
 16 27  1  0  0  0  0
 17 27  1  0  0  0  0
 17 29  2  0  0  0  0
 17 31  1  0  0  0  0
 18 20  2  0  0  0  0
 18 36  1  0  0  0  0
 19 21  2  0  0  0  0
 19 37  1  0  0  0  0
 20 45  1  0  0  0  0
 21 38  1  0  0  0  0
 22 81  1  0  0  0  0
 23 82  1  0  0  0  0
 24 26  2  0  0  0  0
 24 81  1  0  0  0  0
 25 83  1  0  0  0  0
 26 84  1  0  0  0  0
 27 64  2  0  0  0  0
 28 58  1  0  0  0  0
 28 65  1  0  0  0  0
 29 66  1  0  0  0  0
 29 69  1  0  0  0  0
 30 65  2  0  0  0  0
 30 71  1  0  0  0  0
 30 85  1  0  0  0  0
 31 70  1  0  0  0  0
 31 75  2  0  0  0  0
 32 46  1  0  0  0  0
 32 72  1  0  0  0  0
 32 76  2  0  0  0  0
 33 59  1  0  0  0  0
 33 67  1  0  0  0  0
 33 77  2  0  0  0  0
 34 60  1  0  0  0  0
 34 73  1  0  0  0  0
 34 78  2  0  0  0  0
 35 68  1  0  0  0  0
 35 71  1  0  0  0  0
 35 79  2  0  0  0  0
 36 39  1  0  0  0  0
 37 46  1  0  0  0  0
 38 67  1  0  0  0  0
 39 41  1  0  0  0  0
 40 42  1  0  0  0  0
 40 43  1  0  0  0  0
 41 45  1  0  0  0  0
 42 47  1  0  0  0  0
 43 68  1  0  0  0  0
 44 47  1  0  0  0  0
 44 68  1  0  0  0  0
 45 72  1  0  0  0  0
 46 67  1  0  0  0  0
 47 66  1  0  0  0  0
 48 55  1  0  0  0  0
 49 60  1  0  0  0  0
 50 61  1  0  0  0  0
 51 63  1  0  0  0  0
 52 63  1  0  0  0  0
 53 63  1  0  0  0  0
 54 74  1  0  0  0  0
 55 58  1  0  0  0  0
 56 61  1  0  0  0  0
 56 62  1  0  0  0  0
 57 62  1  0  0  0  0
 57 82  1  0  0  0  0
 58 61  1  0  0  0  0
 59 63  1  0  0  0  0
 59 73  1  0  0  0  0
 60 74  1  0  0  0  0
 62 80  1  0  0  0  0
 64 66  1  0  0  0  0
M  CHG  1  74   1
M  ISO  4  35 100  57 101  71 100  82 101
M  END
> <Batch ID>
0192

> <Smiles>
CCC(c1csc([100NH:0][100C:0](=O)N2CCCC(n3nc(-c4ccc(Oc5ccc(F)cc5F)cc4)c(C(N)=O)c3N)C2)n1)C(C)CC(O)[101CH2:1][101O:1]c1ccc2c(c1)CN(C(=O)C(NC(=O)C(C)NC)C(C)(C)C)C(C(=O)NC1CCCc3ccccc31)C2

> <Shape>
0.229

> <Color>
0.081

> <Negative vol penalty>
0.000

$$$$

  -OEChem-04052305273D

 86 94  0     1  0  0  0  0  0999 V2000
  -16.6016  -25.3508   21.4090 C   0  0  0  0  0  0  0  0  0  0  0  0
  -17.7341  -25.0117   20.6757 C   0  0  0  0  0  0  0  0  0  0  0  0
  -25.1929  -13.2854   22.1102 C   0  0  0  0  0  0  0  0  0  0  0  0
  -25.9496  -13.7215   19.8576 C   0  0  0  0  0  0  0  0  0  0  0  0
  -16.6564  -26.3950   22.3313 C   0  0  0  0  0  0  0  0  0  0  0  0
  -18.9220  -25.7175   20.8634 C   0  0  0  0  0  0  0  0  0  0  0  0
  -22.9569  -22.6756   21.1983 C   0  0  0  0  0  0  0  0  0  0  0  0
  -24.2995  -12.3303   21.6253 C   0  0  0  0  0  0  0  0  0  0  0  0
  -25.0563  -12.7663   19.3726 C   0  0  0  0  0  0  0  0  0  0  0  0
  -23.4626  -22.1554   20.0078 C   0  0  0  0  0  0  0  0  0  0  0  0
  -24.4167   -9.1223   20.5631 C   0  0  0  0  0  0  0  0  0  0  0  0
  -24.3419   -7.9034   21.2371 C   0  0  0  0  0  0  0  0  0  0  0  0
  -25.1921  -23.8369   20.0146 C   0  0  0  0  0  0  0  0  0  0  0  0
  -22.0019   -8.2978   21.6907 C   0  0  0  0  0  0  0  0  0  0  0  0
  -26.0179  -13.9811   21.2264 C   0  0  0  0  0  0  0  0  0  0  0  0
  -28.2719  -14.7587   22.1333 C   0  0  0  0  0  0  0  0  0  0  0  0
  -17.8482  -27.1076   22.5374 C   0  0  0  0  0  0  0  0  0  0  0  0
  -23.5595  -23.7891   21.8012 C   0  0  0  0  0  0  0  0  0  0  0  0
  -18.9925  -26.7731   21.7883 C   0  0  0  0  0  0  0  0  0  0  0  0
  -24.6937  -24.3679   21.2141 C   0  0  0  0  0  0  0  0  0  0  0  0
  -24.2312  -12.0707   20.2565 C   0  0  0  0  0  0  0  0  0  0  0  0
  -24.5786  -22.7378   19.4142 C   0  0  0  0  0  0  0  0  0  0  0  0
  -23.2841   -9.9290   20.4530 C   0  0  0  0  0  0  0  0  0  0  0  0
  -23.1345   -7.4911   21.8009 C   0  0  0  0  0  0  0  0  0  0  0  0
  -22.0767   -9.5168   21.0167 C   0  0  0  0  0  0  0  0  0  0  0  0
  -26.9405  -14.9683   21.7267 C   0  0  0  0  0  0  0  0  0  0  0  0
  -28.7122  -16.0007   22.5207 C   0  0  0  0  0  0  0  0  0  0  0  0
  -30.6519  -23.2403   19.4037 C   0  0  0  0  0  0  0  0  0  0  0  0
  -28.8129  -23.9953   18.5186 C   0  0  0  0  0  0  0  0  0  0  0  0
  -29.0419  -13.5494   22.1583 C   0  0  0  0  0  0  0  0  0  0  0  0
  -22.6159  -26.7402   22.5114 C   0  0  0  0  0  0  0  0  0  0  0  0
  -25.5132  -26.8994   23.9615 C   0  0  0  0  0  0  0  0  0  0  0  0
  -28.7128  -25.7322   24.1778 C   0  0  0  0  0  0  0  0  0  0  0  0
  -29.1169  -21.5024   21.6768 C   0  0  0  0  0  0  0  0  0  0  0  0
  -17.8462  -28.2594   23.5110 C   0  0  0  0  0  0  0  0  0  0  0  0
  -23.0179  -24.3218   23.0994 C   0  0  0  0  0  0  0  0  0  0  0  0
  -25.3896  -25.5521   21.8319 C   0  0  0  0  0  0  0  0  0  0  0  0
  -19.2450  -28.7129   23.9210 C   0  0  0  0  0  0  0  0  0  0  0  0
  -26.1689  -20.3074   23.2762 C   0  0  0  0  0  0  0  0  0  0  0  0
  -20.1435  -28.8462   22.6956 C   0  0  0  0  0  0  0  0  0  0  0  0
  -26.2137  -18.7961   23.0438 C   0  0  0  0  0  0  0  0  0  0  0  0
  -26.7086  -21.0794   22.0743 C   0  0  0  0  0  0  0  0  0  0  0  0
  -28.0995  -19.1607   21.3977 C   0  0  0  0  0  0  0  0  0  0  0  0
  -20.3063  -27.4989   21.9816 C   0  0  1  0  0  0  0  0  0  0  0  0
  -23.4013  -25.7762   23.3548 C   0  0  1  0  0  0  0  0  0  0  0  0
  -27.6173  -18.3377   22.6045 C   0  0  2  0  0  0  0  0  0  0  0  0
  -30.8572  -26.0835   25.4329 C   0  0  0  0  0  0  0  0  0  0  0  0
  -32.7638  -20.3791   16.5775 C   0  0  0  0  0  0  0  0  0  0  0  0
  -33.7479  -22.5053   17.4525 C   0  0  0  0  0  0  0  0  0  0  0  0
  -26.3933  -20.2734   17.9522 C   0  0  0  0  0  0  0  0  0  0  0  0
  -26.0502  -29.4230   22.3326 C   0  0  0  0  0  0  0  0  0  0  0  0
  -28.4791  -29.1819   22.8900 C   0  0  0  0  0  0  0  0  0  0  0  0
  -26.8122  -29.5352   24.7120 C   0  0  0  0  0  0  0  0  0  0  0  0
  -28.6796  -22.9696   25.2390 C   0  0  0  0  0  0  0  0  0  0  0  0
  -32.0642  -21.1883   18.8524 C   0  0  0  0  0  0  0  0  0  0  0  0
  -31.5486  -21.7654   21.2565 C   0  0  0  0  0  0  0  0  0  0  0  0
  -27.2465  -22.5314   17.2422 C   0  0  0  0  0  0  0  0  0  0  0  0
  -31.7625  -22.3713   19.8349 C   0  0  2  0  0  0  0  0  0  0  0  0
  -26.9033  -27.3014   23.5314 C   0  0  1  0  0  0  0  0  0  0  0  0
  -29.5514  -25.3067   25.3695 C   0  0  2  0  0  0  0  0  0  0  0  0
  -32.5005  -21.6206   17.4353 C   0  0  0  0  0  0  0  0  0  0  0  0
  -26.4208  -21.7613   18.2701 C   0  0  1  0  0  0  0  0  0  1  0  0
  -27.0472  -28.8393   23.3536 C   0  0  0  0  0  0  0  0  0  0  0  0
  -26.5599  -16.2430   21.8451 N   0  0  0  0  0  0  0  0  0  0  0  0
  -29.6020  -22.8726   18.7026 N   0  0  0  0  0  0  0  0  0  0  0  0
  -29.1782  -25.1757   19.0185 N   0  0  0  0  0  0  0  0  0  0  0  0
  -27.6587  -16.8457   22.3304 N   0  0  0  0  0  0  0  0  0  0  0  0
  -24.8185  -26.0406   23.0980 N   0  0  0  0  0  0  0  0  0  0  0  0
  -28.0431  -20.5975   21.7098 N   0  0  0  0  0  0  0  0  0  0  0  0
  -29.8938  -16.4414   23.0022 N   0  0  0  0  0  0  0  0  0  0  0  0
  -28.4356  -12.3622   21.7257 N   0  0  0  0  0  0  0  0  0  0  0  0
  -27.6492  -23.8060   17.7920 N   0  0  0  0  0  0  0  0  0  0  0  0
  -21.2482  -26.6609   22.6921 N   0  0  0  0  0  0  0  0  0  0  0  0
  -27.8167  -26.7252   24.5124 N   0  0  0  0  0  0  0  0  0  0  0  0
  -30.3485  -20.9620   21.3279 N   0  0  0  0  0  0  0  0  0  0  0  0
  -29.8725  -23.8539   25.2846 N   0  3  0  0  0  0  0  0  0  0  0  0
  -30.2270  -13.5196   22.5682 O   0  0  0  0  0  0  0  0  0  0  0  0
  -23.2070  -27.5007   21.7538 O   0  0  0  0  0  0  0  0  0  0  0  0
  -25.0631  -27.3258   25.0279 O   0  0  0  0  0  0  0  0  0  0  0  0
  -28.8425  -25.2360   23.0608 O   0  0  0  0  0  0  0  0  0  0  0  0
  -28.9885  -22.7021   21.9440 O   0  0  0  0  0  0  0  0  0  0  0  0
  -23.3598  -11.1385   19.7829 O   0  0  0  0  0  0  0  0  0  0  0  0
  -25.0739  -22.2323   18.2518 O   0  0  0  0  0  0  0  0  0  1  0  0
  -23.0625   -6.3199   22.4467 F   0  0  0  0  0  0  0  0  0  0  0  0
  -20.9850  -10.2869   20.9131 F   0  0  0  0  0  0  0  0  0  0  0  0
  -30.6336  -24.9097   19.8007 S   0  0  0  0  0  0  0  0  0  0  0  0
  1  2  1  0  0  0  0
  1  5  2  0  0  0  0
  2  6  2  0  0  0  0
  3  8  2  0  0  0  0
  3 15  1  0  0  0  0
  4  9  1  0  0  0  0
  4 15  2  0  0  0  0
  5 17  1  0  0  0  0
  6 19  1  0  0  0  0
  7 10  2  0  0  0  0
  7 18  1  0  0  0  0
  8 21  1  0  0  0  0
  9 21  2  0  0  0  0
 10 22  1  0  0  0  0
 11 12  2  0  0  0  0
 11 23  1  0  0  0  0
 12 24  1  0  0  0  0
 13 20  1  0  0  0  0
 13 22  2  0  0  0  0
 14 24  2  0  0  0  0
 14 25  1  0  0  0  0
 15 26  1  0  0  0  0
 16 26  1  0  0  0  0
 16 27  2  0  0  0  0
 16 30  1  0  0  0  0
 17 19  2  0  0  0  0
 17 35  1  0  0  0  0
 18 20  2  0  0  0  0
 18 36  1  0  0  0  0
 19 44  1  0  0  0  0
 20 37  1  0  0  0  0
 21 82  1  0  0  0  0
 22 83  1  0  0  0  0
 23 25  2  0  0  0  0
 23 82  1  0  0  0  0
 24 84  1  0  0  0  0
 25 85  1  0  0  0  0
 26 64  2  0  0  0  0
 27 67  1  0  0  0  0
 27 70  1  0  0  0  0
 28 58  1  0  0  0  0
 28 65  2  0  0  0  0
 28 86  1  0  0  0  0
 29 65  1  0  0  0  0
 29 66  2  0  0  0  0
 29 72  1  0  0  0  0
 30 71  1  0  0  0  0
 30 77  2  0  0  0  0
 31 45  1  0  0  0  0
 31 73  1  0  0  0  0
 31 78  2  0  0  0  0
 32 59  1  0  0  0  0
 32 68  1  0  0  0  0
 32 79  2  0  0  0  0
 33 60  1  0  0  0  0
 33 74  1  0  0  0  0
 33 80  2  0  0  0  0
 34 69  1  0  0  0  0
 34 75  1  0  0  0  0
 34 81  2  0  0  0  0
 35 38  1  0  0  0  0
 36 45  1  0  0  0  0
 37 68  1  0  0  0  0
 38 40  1  0  0  0  0
 39 41  1  0  0  0  0
 39 42  1  0  0  0  0
 40 44  1  0  0  0  0
 41 46  1  0  0  0  0
 42 69  1  0  0  0  0
 43 46  1  0  0  0  0
 43 69  1  0  0  0  0
 44 73  1  0  0  0  0
 45 68  1  0  0  0  0
 46 67  1  0  0  0  0
 47 60  1  0  0  0  0
 48 61  1  0  0  0  0
 49 61  1  0  0  0  0
 50 62  1  0  0  0  0
 51 63  1  0  0  0  0
 52 63  1  0  0  0  0
 53 63  1  0  0  0  0
 54 76  1  0  0  0  0
 55 58  1  0  0  0  0
 55 61  1  0  0  0  0
 56 58  1  0  0  0  0
 56 75  1  0  0  0  0
 57 62  1  0  0  0  0
 57 72  1  0  0  0  0
 59 63  1  0  0  0  0
 59 74  1  0  0  0  0
 60 76  1  0  0  0  0
 62 83  1  0  0  0  0
 64 67  1  0  0  0  0
 66 86  1  0  0  0  0
M  CHG  1  76   1
M  ISO  4  34 100  62 101  75 100  83 101
M  END
> <Batch ID>
0192

> <Smiles>
CNC(C)C(=O)NC(C(=O)N1Cc2cc([101O:1][101CH:1](C)CNc3nsc(C(C[100NH:0][100C:0](=O)N4CCCC(n5nc(-c6ccc(Oc7ccc(F)cc7F)cc6)c(C(N)=O)c5N)C4)CC(C)C)n3)ccc2CC1C(=O)NC1CCCc2ccccc21)C(C)(C)C

> <Shape>
0.207

> <Color>
0.059

> <Negative vol penalty>
0.000

$$$$

  -OEChem-04052305273D

 83 91  0     1  0  0  0  0  0999 V2000
  -27.5326  -19.0331   17.3142 C   0  0  0  0  0  0  0  0  0  0  0  0
  -26.5840  -20.0490   17.2554 C   0  0  0  0  0  0  0  0  0  0  0  0
  -24.1493  -16.7215   23.1108 C   0  0  0  0  0  0  0  0  0  0  0  0
  -25.0346  -18.0631   21.3071 C   0  0  0  0  0  0  0  0  0  0  0  0
  -28.5065  -19.0473   18.3119 C   0  0  0  0  0  0  0  0  0  0  0  0
  -26.6080  -21.0791   18.1949 C   0  0  0  0  0  0  0  0  0  0  0  0
  -25.1785  -28.0675   18.8550 C   0  0  0  0  0  0  0  0  0  0  0  0
  -24.4824  -15.5615   22.4115 C   0  0  0  0  0  0  0  0  0  0  0  0
  -25.3677  -16.9031   20.6078 C   0  0  0  0  0  0  0  0  0  0  0  0
  -24.4548  -28.9476   19.6584 C   0  0  0  0  0  0  0  0  0  0  0  0
  -23.2252  -13.7506   19.8493 C   0  0  0  0  0  0  0  0  0  0  0  0
  -22.2735  -12.7323   19.7941 C   0  0  0  0  0  0  0  0  0  0  0  0
  -26.2320  -28.9109   21.2891 C   0  0  0  0  0  0  0  0  0  0  0  0
  -23.8185  -11.2294   20.8856 C   0  0  0  0  0  0  0  0  0  0  0  0
  -24.4254  -17.9723   22.5586 C   0  0  0  0  0  0  0  0  0  0  0  0
  -24.8869  -19.8723   24.1972 C   0  0  0  0  0  0  0  0  0  0  0  0
  -28.5484  -20.0833   19.2583 C   0  0  0  0  0  0  0  0  0  0  0  0
  -26.4317  -27.5931   19.2684 C   0  0  0  0  0  0  0  0  0  0  0  0
  -27.5825  -21.1065   19.2069 C   0  0  0  0  0  0  0  0  0  0  0  0
  -26.9707  -28.0268   20.4880 C   0  0  0  0  0  0  0  0  0  0  0  0
  -25.0916  -15.6523   21.1600 C   0  0  0  0  0  0  0  0  0  0  0  0
  -24.9803  -29.3672   20.8770 C   0  0  0  0  0  0  0  0  0  0  0  0
  -24.4735  -13.5083   20.4226 C   0  0  0  0  0  0  0  0  0  0  0  0
  -22.5702  -11.4717   20.3122 C   0  0  0  0  0  0  0  0  0  0  0  0
  -24.7701  -12.2477   20.9408 C   0  0  0  0  0  0  0  0  0  0  0  0
  -24.0811  -19.1710   23.2803 C   0  0  0  0  0  0  0  0  0  0  0  0
  -24.1081  -20.9294   24.6001 C   0  0  0  0  0  0  0  0  0  0  0  0
  -18.7723  -26.9794   21.9782 C   0  0  0  0  0  0  0  0  0  0  0  0
  -18.3795  -28.8796   23.1058 C   0  0  0  0  0  0  0  0  0  0  0  0
  -20.4784  -28.3273   22.5344 C   0  0  0  0  0  0  0  0  0  0  0  0
  -26.2201  -19.5931   24.6445 C   0  0  0  0  0  0  0  0  0  0  0  0
  -27.6374  -24.7286   19.9352 C   0  0  0  0  0  0  0  0  0  0  0  0
  -30.4134  -26.3872   20.1903 C   0  0  0  0  0  0  0  0  0  0  0  0
  -31.9614  -29.3745   20.7615 C   0  0  0  0  0  0  0  0  0  0  0  0
  -19.6726  -23.7833   21.9474 C   0  0  0  0  0  0  0  0  0  0  0  0
  -29.5911  -20.0306   20.3467 C   0  0  0  0  0  0  0  0  0  0  0  0
  -27.2116  -26.6650   18.3780 C   0  0  0  0  0  0  0  0  0  0  0  0
  -28.3208  -27.5627   20.9680 C   0  0  0  0  0  0  0  0  0  0  0  0
  -29.7760  -21.3577   21.0778 C   0  0  0  0  0  0  0  0  0  0  0  0
  -19.5312  -22.1957   25.1966 C   0  0  0  0  0  0  0  0  0  0  0  0
  -28.4226  -21.9571   21.4466 C   0  0  0  0  0  0  0  0  0  0  0  0
  -20.7716  -21.3016   25.1525 C   0  0  0  0  0  0  0  0  0  0  0  0
  -18.8432  -22.2541   23.8359 C   0  0  0  0  0  0  0  0  0  0  0  0
  -20.9665  -21.7973   22.6713 C   0  0  0  0  0  0  0  0  0  0  0  0
  -27.5908  -22.2543   20.1931 C   0  0  1  0  0  0  0  0  0  0  0  0
  -28.2501  -25.8430   19.1350 C   0  0  1  0  0  0  0  0  0  0  0  0
  -21.7199  -21.7149   24.0113 C   0  0  2  0  0  0  0  0  0  0  0  0
  -34.2404  -30.4092   20.9431 C   0  0  0  0  0  0  0  0  0  0  0  0
  -24.5997  -30.6944   23.9750 C   0  0  0  0  0  0  0  0  0  0  0  0
  -30.7495  -25.1545   22.9612 C   0  0  0  0  0  0  0  0  0  0  0  0
  -32.4712  -26.9041   23.4542 C   0  0  0  0  0  0  0  0  0  0  0  0
  -32.8499  -25.2692   21.6086 C   0  0  0  0  0  0  0  0  0  0  0  0
  -31.4415  -31.1989   18.4898 C   0  0  0  0  0  0  0  0  0  0  0  0
  -18.2686  -25.7343   21.3313 C   0  0  0  0  0  0  0  0  0  0  0  0
  -22.4077  -29.7930   23.1305 C   0  0  0  0  0  0  0  0  0  0  0  0
  -31.1333  -27.1010   21.3089 C   0  0  1  0  0  0  0  0  0  0  0  0
  -33.0756  -30.0898   20.0189 C   0  0  2  0  0  0  0  0  0  0  0  0
  -23.9260  -29.7713   22.9701 C   0  0  1  0  0  0  0  0  0  1  0  0
  -31.7747  -26.1146   22.3253 C   0  0  0  0  0  0  0  0  0  0  0  0
  -22.8823  -19.7350   23.1107 N   0  0  0  0  0  0  0  0  0  0  0  0
  -17.8540  -27.7787   22.5450 N   0  0  0  0  0  0  0  0  0  0  0  0
  -20.0981  -27.1882   21.9340 N   0  0  0  0  0  0  0  0  0  0  0  0
  -19.6781  -29.2196   23.1397 N   0  0  0  0  0  0  0  0  0  0  0  0
  -22.9290  -20.8018   23.9266 N   0  0  0  0  0  0  0  0  0  0  0  0
  -29.0420  -26.6508   20.0648 N   0  0  0  0  0  0  0  0  0  0  0  0
  -19.7956  -22.6716   22.7973 N   0  0  0  0  0  0  0  0  0  0  0  0
  -24.3237  -21.9464   25.4614 N   0  0  0  0  0  0  0  0  0  0  0  0
  -17.4742  -29.7696   23.7241 N   0  0  0  0  0  0  0  0  0  0  0  0
  -26.8756  -18.4665   24.1293 N   0  0  0  0  0  0  0  0  0  0  0  0
  -21.8340  -28.6105   22.5291 N   0  0  0  0  0  0  0  0  0  0  0  0
  -28.0546  -23.4674   19.5546 N   0  0  0  0  0  0  0  0  0  0  0  0
  -32.0849  -28.0042   20.6709 N   0  0  0  0  0  0  0  0  0  0  0  0
  -18.5315  -24.5557   22.1267 N   0  0  0  0  0  0  0  0  0  0  0  0
  -32.5738  -31.3666   19.4368 N   0  3  0  0  0  0  0  0  0  0  0  0
  -26.8065  -20.3119   25.4889 O   0  0  0  0  0  0  0  0  0  0  0  0
  -26.8458  -24.9934   20.8324 O   0  0  0  0  0  0  0  0  0  0  0  0
  -31.0459  -25.6293   19.4506 O   0  0  0  0  0  0  0  0  0  0  0  0
  -31.0726  -29.9716   21.3648 O   0  0  0  0  0  0  0  0  0  0  0  0
  -20.5200  -24.0699   21.0949 O   0  0  0  0  0  0  0  0  0  0  0  0
  -25.4169  -14.5205   20.4774 O   0  0  0  0  0  0  0  0  0  0  0  0
  -24.2757  -30.2257   21.6633 O   0  0  0  0  0  0  0  0  0  1  0  0
  -21.6557  -10.4944   20.2605 F   0  0  0  0  0  0  0  0  0  0  0  0
  -25.9672  -12.0092   21.4938 F   0  0  0  0  0  0  0  0  0  0  0  0
  1  2  1  0  0  0  0
  1  5  2  0  0  0  0
  2  6  2  0  0  0  0
  3  8  2  0  0  0  0
  3 15  1  0  0  0  0
  4  9  1  0  0  0  0
  4 15  2  0  0  0  0
  5 17  1  0  0  0  0
  6 19  1  0  0  0  0
  7 10  2  0  0  0  0
  7 18  1  0  0  0  0
  8 21  1  0  0  0  0
  9 21  2  0  0  0  0
 10 22  1  0  0  0  0
 11 12  2  0  0  0  0
 11 23  1  0  0  0  0
 12 24  1  0  0  0  0
 13 20  1  0  0  0  0
 13 22  2  0  0  0  0
 14 24  2  0  0  0  0
 14 25  1  0  0  0  0
 15 26  1  0  0  0  0
 16 26  1  0  0  0  0
 16 27  2  0  0  0  0
 16 31  1  0  0  0  0
 17 19  2  0  0  0  0
 17 36  1  0  0  0  0
 18 20  2  0  0  0  0
 18 37  1  0  0  0  0
 19 45  1  0  0  0  0
 20 38  1  0  0  0  0
 21 80  1  0  0  0  0
 22 81  1  0  0  0  0
 23 25  2  0  0  0  0
 23 80  1  0  0  0  0
 24 82  1  0  0  0  0
 25 83  1  0  0  0  0
 26 60  2  0  0  0  0
 27 64  1  0  0  0  0
 27 67  1  0  0  0  0
 28 54  1  0  0  0  0
 28 61  2  0  0  0  0
 28 62  1  0  0  0  0
 29 61  1  0  0  0  0
 29 63  2  0  0  0  0
 29 68  1  0  0  0  0
 30 62  2  0  0  0  0
 30 63  1  0  0  0  0
 30 70  1  0  0  0  0
 31 69  1  0  0  0  0
 31 75  2  0  0  0  0
 32 46  1  0  0  0  0
 32 71  1  0  0  0  0
 32 76  2  0  0  0  0
 33 56  1  0  0  0  0
 33 65  1  0  0  0  0
 33 77  2  0  0  0  0
 34 57  1  0  0  0  0
 34 72  1  0  0  0  0
 34 78  2  0  0  0  0
 35 66  1  0  0  0  0
 35 73  1  0  0  0  0
 35 79  2  0  0  0  0
 36 39  1  0  0  0  0
 37 46  1  0  0  0  0
 38 65  1  0  0  0  0
 39 41  1  0  0  0  0
 40 42  1  0  0  0  0
 40 43  1  0  0  0  0
 41 45  1  0  0  0  0
 42 47  1  0  0  0  0
 43 66  1  0  0  0  0
 44 47  1  0  0  0  0
 44 66  1  0  0  0  0
 45 71  1  0  0  0  0
 46 65  1  0  0  0  0
 47 64  1  0  0  0  0
 48 57  1  0  0  0  0
 49 58  1  0  0  0  0
 50 59  1  0  0  0  0
 51 59  1  0  0  0  0
 52 59  1  0  0  0  0
 53 74  1  0  0  0  0
 54 73  1  0  0  0  0
 55 58  1  0  0  0  0
 55 70  1  0  0  0  0
 56 59  1  0  0  0  0
 56 72  1  0  0  0  0
 57 74  1  0  0  0  0
 58 81  1  0  0  0  0
 60 64  1  0  0  0  0
M  CHG  1  74   1
M  ISO  4  35 100  58 101  73 100  81 101
M  END
> <Batch ID>
0192

> <Smiles>
CNC(C)C(=O)NC(C(=O)N1Cc2cc([101O:1][101CH:1](C)CNc3nc(N)nc(C[100NH:0][100C:0](=O)N4CCCC(n5nc(-c6ccc(Oc7ccc(F)cc7F)cc6)c(C(N)=O)c5N)C4)n3)ccc2CC1C(=O)NC1CCCc2ccccc21)C(C)(C)C

> <Shape>
0.238

> <Color>
0.066

> <Negative vol penalty>
0.000

$$$$

  -OEChem-04052305273D

 89 97  0     1  0  0  0  0  0999 V2000
  -43.6579  -17.4161   26.7023 C   0  0  0  0  0  0  0  0  0  0  0  0
  -42.5447  -18.2500   26.6711 C   0  0  0  0  0  0  0  0  0  0  0  0
  -23.0002   -9.8919   19.9820 C   0  0  0  0  0  0  0  0  0  0  0  0
  -23.7259   -9.9451   22.2858 C   0  0  0  0  0  0  0  0  0  0  0  0
  -44.4335  -17.2476   25.5561 C   0  0  0  0  0  0  0  0  0  0  0  0
  -42.2071  -18.9166   25.4938 C   0  0  0  0  0  0  0  0  0  0  0  0
  -37.2504  -18.6844   24.4827 C   0  0  0  0  0  0  0  0  0  0  0  0
  -22.2343   -8.7572   20.2494 C   0  0  0  0  0  0  0  0  0  0  0  0
  -22.9600   -8.8104   22.5532 C   0  0  0  0  0  0  0  0  0  0  0  0
  -36.4138  -19.5397   25.1984 C   0  0  0  0  0  0  0  0  0  0  0  0
  -23.2059   -5.4712   22.0840 C   0  0  0  0  0  0  0  0  0  0  0  0
  -23.7942   -4.4549   22.8368 C   0  0  0  0  0  0  0  0  0  0  0  0
  -36.3512  -21.0450   23.3145 C   0  0  0  0  0  0  0  0  0  0  0  0
  -22.0705   -4.6983   24.5122 C   0  0  0  0  0  0  0  0  0  0  0  0
  -29.7825  -17.7105   22.6625 C   0  0  0  0  0  0  0  0  0  0  0  0
  -23.7461  -10.4858   21.0002 C   0  0  0  0  0  0  0  0  0  0  0  0
  -24.1300  -13.0014   20.8220 C   0  0  0  0  0  0  0  0  0  0  0  0
  -44.0997  -17.9049   24.3615 C   0  0  0  0  0  0  0  0  0  0  0  0
  -37.6532  -19.0088   23.1792 C   0  0  0  0  0  0  0  0  0  0  0  0
  -42.9797  -18.7577   24.3309 C   0  0  0  0  0  0  0  0  0  0  0  0
  -37.1909  -20.1909   22.5834 C   0  0  0  0  0  0  0  0  0  0  0  0
  -22.2142   -8.2165   21.5350 C   0  0  0  0  0  0  0  0  0  0  0  0
  -35.9664  -20.7217   24.6154 C   0  0  0  0  0  0  0  0  0  0  0  0
  -22.0500   -6.1011   22.5453 C   0  0  0  0  0  0  0  0  0  0  0  0
  -23.2265   -4.0684   24.0508 C   0  0  0  0  0  0  0  0  0  0  0  0
  -21.4823   -5.7147   23.7594 C   0  0  0  0  0  0  0  0  0  0  0  0
  -24.5379  -11.6576   20.7244 C   0  0  0  0  0  0  0  0  0  0  0  0
  -31.4320  -19.2937   22.7095 C   0  0  0  0  0  0  0  0  0  0  0  0
  -30.5801  -16.9027   21.8822 C   0  0  0  0  0  0  0  0  0  0  0  0
  -32.2300  -18.4856   21.9299 C   0  0  0  0  0  0  0  0  0  0  0  0
  -25.2393  -13.7243   20.4568 C   0  0  0  0  0  0  0  0  0  0  0  0
  -22.8619  -13.5475   21.2084 C   0  0  0  0  0  0  0  0  0  0  0  0
  -31.8551  -20.6234   23.1926 C   0  0  0  0  0  0  0  0  0  0  0  0
  -40.4452  -19.5772   21.7702 C   0  0  0  0  0  0  0  0  0  0  0  0
  -38.6314  -19.6505   19.0818 C   0  0  0  0  0  0  0  0  0  0  0  0
  -35.5614  -20.1295   17.6703 C   0  0  0  0  0  0  0  0  0  0  0  0
  -30.7183  -14.6884   20.6888 C   0  0  0  0  0  0  0  0  0  0  0  0
  -44.9955  -17.7286   23.1610 C   0  0  0  0  0  0  0  0  0  0  0  0
  -38.5343  -18.0625   22.4108 C   0  0  0  0  0  0  0  0  0  0  0  0
  -37.5778  -20.5752   21.1795 C   0  0  0  0  0  0  0  0  0  0  0  0
  -44.3537  -18.1777   21.8508 C   0  0  0  0  0  0  0  0  0  0  0  0
  -29.6008  -12.2331   18.3651 C   0  0  0  0  0  0  0  0  0  0  0  0
  -43.6882  -19.5396   22.0216 C   0  0  0  0  0  0  0  0  0  0  0  0
  -28.1505  -11.9750   18.7798 C   0  0  0  0  0  0  0  0  0  0  0  0
  -30.5015  -12.4779   19.5745 C   0  0  0  0  0  0  0  0  0  0  0  0
  -28.5860  -13.2669   20.9078 C   0  0  0  0  0  0  0  0  0  0  0  0
  -42.5670  -19.4786   23.0659 C   0  0  1  0  0  0  0  0  0  0  0  0
  -39.2967  -18.7427   21.2779 C   0  0  1  0  0  0  0  0  0  0  0  0
  -27.6282  -13.0791   19.7199 C   0  0  2  0  0  0  0  0  0  0  0  0
  -33.8063  -20.1876   15.8776 C   0  0  0  0  0  0  0  0  0  0  0  0
  -29.9314  -25.1777   25.6943 C   0  0  0  0  0  0  0  0  0  0  0  0
  -32.2667  -25.1910   24.7943 C   0  0  0  0  0  0  0  0  0  0  0  0
  -32.1069  -21.1834   27.5036 C   0  0  0  0  0  0  0  0  0  0  0  0
  -39.8461  -22.3856   18.4873 C   0  0  0  0  0  0  0  0  0  0  0  0
  -38.0018  -22.7687   16.8379 C   0  0  0  0  0  0  0  0  0  0  0  0
  -39.6104  -20.8933   16.4943 C   0  0  0  0  0  0  0  0  0  0  0  0
  -34.8516  -17.2904   18.1114 C   0  0  0  0  0  0  0  0  0  0  0  0
  -31.0484  -22.9853   25.1896 C   0  0  0  0  0  0  0  0  0  0  0  0
  -34.2796  -20.9670   26.2738 C   0  0  0  0  0  0  0  0  0  1  0  0
  -37.8791  -20.7208   18.3286 C   0  0  1  0  0  0  0  0  0  0  0  0
  -34.7830  -19.3163   16.6519 C   0  0  2  0  0  0  0  0  0  0  0  0
  -31.2689  -24.4321   25.6698 C   0  0  0  0  0  0  0  0  0  0  0  0
  -33.0203  -21.8300   26.4585 C   0  0  1  0  0  0  0  0  0  0  0  0
  -32.3088  -22.1081   25.1127 C   0  0  1  0  0  0  0  0  0  0  0  0
  -38.8284  -21.6861   17.5642 C   0  0  0  0  0  0  0  0  0  0  0  0
  -30.1941  -18.9206   23.0900 N   0  0  0  0  0  0  0  0  0  0  0  0
  -25.8071  -11.5314   20.3281 N   0  0  0  0  0  0  0  0  0  0  0  0
  -31.8182  -17.2757   21.5020 N   0  0  0  0  0  0  0  0  0  0  0  0
  -26.2064  -12.8053   20.1733 N   0  0  0  0  0  0  0  0  0  0  0  0
  -38.4462  -19.6202   20.4713 N   0  0  0  0  0  0  0  0  0  0  0  0
  -29.9461  -13.5393   20.4170 N   0  0  0  0  0  0  0  0  0  0  0  0
  -33.5189  -18.9362   21.5658 N   0  0  0  0  0  0  0  0  0  0  0  0
  -25.4721  -15.0501   20.3536 N   0  0  0  0  0  0  0  0  0  0  0  0
  -21.8306  -12.6631   21.5529 N   0  0  0  0  0  0  0  0  0  0  0  0
  -32.1656  -21.5512   22.2872 N   0  0  0  0  0  0  0  0  0  0  0  0
  -30.0738  -15.6439   21.4737 N   0  0  0  0  0  0  0  0  0  0  0  0
  -41.3818  -18.8706   22.5001 N   0  0  0  0  0  0  0  0  0  0  0  0
  -36.9224  -20.0239   17.4757 N   0  0  0  0  0  0  0  0  0  0  0  0
  -31.9062  -20.8250   24.5099 N   0  3  0  0  0  0  0  0  0  0  0  0
  -34.0128  -18.2362   17.3310 N   0  3  0  0  0  0  0  0  0  0  0  0
  -22.6445  -14.7827   21.2312 O   0  0  0  0  0  0  0  0  0  0  0  0
  -40.4797  -20.7733   21.5060 O   0  0  0  0  0  0  0  0  0  0  0  0
  -39.3512  -18.8655   18.4594 O   0  0  0  0  0  0  0  0  0  0  0  0
  -35.0166  -20.7952   18.5481 O   0  0  0  0  0  0  0  0  0  0  0  0
  -31.8568  -14.8276   20.2344 O   0  0  0  0  0  0  0  0  0  0  0  0
  -21.4667   -7.1094   21.7964 O   0  0  0  0  0  0  0  0  0  0  0  0
  -35.1445  -21.5646   25.3170 O   0  0  0  0  0  0  0  0  0  1  0  0
  -23.7906   -3.0914   24.7729 F   0  0  0  0  0  0  0  0  0  0  0  0
  -20.3712   -6.3153   24.2072 F   0  0  0  0  0  0  0  0  0  0  0  0
  1  2  1  0  0  0  0
  1  5  2  0  0  0  0
  2  6  2  0  0  0  0
  3  8  2  0  0  0  0
  3 16  1  0  0  0  0
  4  9  1  0  0  0  0
  4 16  2  0  0  0  0
  5 18  1  0  0  0  0
  6 20  1  0  0  0  0
  7 10  2  0  0  0  0
  7 19  1  0  0  0  0
  8 22  1  0  0  0  0
  9 22  2  0  0  0  0
 10 23  1  0  0  0  0
 11 12  2  0  0  0  0
 11 24  1  0  0  0  0
 12 25  1  0  0  0  0
 13 21  1  0  0  0  0
 13 23  2  0  0  0  0
 14 25  2  0  0  0  0
 14 26  1  0  0  0  0
 15 29  1  0  0  0  0
 15 66  2  0  0  0  0
 16 27  1  0  0  0  0
 17 27  1  0  0  0  0
 17 31  2  0  0  0  0
 17 32  1  0  0  0  0
 18 20  2  0  0  0  0
 18 38  1  0  0  0  0
 19 21  2  0  0  0  0
 19 39  1  0  0  0  0
 20 47  1  0  0  0  0
 21 40  1  0  0  0  0
 22 86  1  0  0  0  0
 23 87  1  0  0  0  0
 24 26  2  0  0  0  0
 24 86  1  0  0  0  0
 25 88  1  0  0  0  0
 26 89  1  0  0  0  0
 27 67  2  0  0  0  0
 28 30  2  0  0  0  0
 28 33  1  0  0  0  0
 28 66  1  0  0  0  0
 29 68  2  0  0  0  0
 29 76  1  0  0  0  0
 30 68  1  0  0  0  0
 30 72  1  0  0  0  0
 31 69  1  0  0  0  0
 31 73  1  0  0  0  0
 32 74  1  0  0  0  0
 32 81  2  0  0  0  0
 33 75  1  0  0  0  0
 33 79  2  0  0  0  0
 34 48  1  0  0  0  0
 34 77  1  0  0  0  0
 34 82  2  0  0  0  0
 35 60  1  0  0  0  0
 35 70  1  0  0  0  0
 35 83  2  0  0  0  0
 36 61  1  0  0  0  0
 36 78  1  0  0  0  0
 36 84  2  0  0  0  0
 37 71  1  0  0  0  0
 37 76  1  0  0  0  0
 37 85  2  0  0  0  0
 38 41  1  0  0  0  0
 39 48  1  0  0  0  0
 40 70  1  0  0  0  0
 41 43  1  0  0  0  0
 42 44  1  0  0  0  0
 42 45  1  0  0  0  0
 43 47  1  0  0  0  0
 44 49  1  0  0  0  0
 45 71  1  0  0  0  0
 46 49  1  0  0  0  0
 46 71  1  0  0  0  0
 47 77  1  0  0  0  0
 48 70  1  0  0  0  0
 49 69  1  0  0  0  0
 50 61  1  0  0  0  0
 51 62  1  0  0  0  0
 52 62  1  0  0  0  0
 53 63  1  0  0  0  0
 54 65  1  0  0  0  0
 55 65  1  0  0  0  0
 56 65  1  0  0  0  0
 57 80  1  0  0  0  0
 58 62  1  0  0  0  0
 58 64  1  0  0  0  0
 59 63  1  0  0  0  0
 59 87  1  0  0  0  0
 60 65  1  0  0  0  0
 60 78  1  0  0  0  0
 61 80  1  0  0  0  0
 63 64  1  0  0  0  0
 64 79  1  0  0  0  0
 67 69  1  0  0  0  0
M  CHG  2  79   1  80   1
M  ISO  4  37 100  59 101  76 100  87 101
M  END
> <Batch ID>
0192

> <Smiles>
CNC(C)C(=O)NC(C(=O)N1Cc2cc([101O:1][101CH2:1]C(C)C(CC(C)C)NC(=N)c3ncc([100NH:0][100C:0](=O)N4CCCC(n5nc(-c6ccc(Oc7ccc(F)cc7F)cc6)c(C(N)=O)c5N)C4)nc3N)ccc2CC1C(=O)NC1CCCc2ccccc21)C(C)(C)C

> <Shape>
0.172

> <Color>
0.172

> <Negative vol penalty>
0.000

$$$$

  -OEChem-04052305273D

 85 93  0     1  0  0  0  0  0999 V2000
  -20.0852   -8.7887   26.0517 C   0  0  0  0  0  0  0  0  0  0  0  0
  -21.1586   -8.3948   25.2592 C   0  0  0  0  0  0  0  0  0  0  0  0
  -22.9645  -29.1537   21.3530 C   0  0  0  0  0  0  0  0  0  0  0  0
  -24.0020  -27.9031   23.1410 C   0  0  0  0  0  0  0  0  0  0  0  0
  -19.2139   -9.7795   25.6009 C   0  0  0  0  0  0  0  0  0  0  0  0
  -21.3607   -8.9907   24.0148 C   0  0  0  0  0  0  0  0  0  0  0  0
  -27.5116  -12.4210   22.5012 C   0  0  0  0  0  0  0  0  0  0  0  0
  -21.8187  -29.3164   22.1316 C   0  0  0  0  0  0  0  0  0  0  0  0
  -22.8561  -28.0658   23.9196 C   0  0  0  0  0  0  0  0  0  0  0  0
  -28.7411  -12.9125   22.0620 C   0  0  0  0  0  0  0  0  0  0  0  0
  -19.1237  -27.4759   23.0115 C   0  0  0  0  0  0  0  0  0  0  0  0
  -17.8890  -27.2621   22.3988 C   0  0  0  0  0  0  0  0  0  0  0  0
  -27.7628  -13.4802   19.9246 C   0  0  0  0  0  0  0  0  0  0  0  0
  -17.2471  -29.5371   22.8986 C   0  0  0  0  0  0  0  0  0  0  0  0
  -24.0561  -28.4470   21.8577 C   0  0  0  0  0  0  0  0  0  0  0  0
  -26.3595  -29.1297   20.9998 C   0  0  0  0  0  0  0  0  0  0  0  0
  -19.4111  -10.3947   24.3546 C   0  0  0  0  0  0  0  0  0  0  0  0
  -26.3980  -12.4713   21.6581 C   0  0  0  0  0  0  0  0  0  0  0  0
  -20.4905   -9.9897   23.5463 C   0  0  0  0  0  0  0  0  0  0  0  0
  -26.5258  -13.0007   20.3634 C   0  0  0  0  0  0  0  0  0  0  0  0
  -21.7645  -28.7725   23.4149 C   0  0  0  0  0  0  0  0  0  0  0  0
  -28.8664  -13.4406   20.7768 C   0  0  0  0  0  0  0  0  0  0  0  0
  -19.4201  -28.7203   23.5678 C   0  0  0  0  0  0  0  0  0  0  0  0
  -16.9507  -28.2927   22.3423 C   0  0  0  0  0  0  0  0  0  0  0  0
  -18.4818  -29.7508   23.5113 C   0  0  0  0  0  0  0  0  0  0  0  0
  -25.2398  -28.2782   21.0536 C   0  0  0  0  0  0  0  0  0  0  0  0
  -27.2020  -28.5324   20.0943 C   0  0  0  0  0  0  0  0  0  0  0  0
  -30.0245  -20.7689   21.9582 C   0  0  0  0  0  0  0  0  0  0  0  0
  -29.0480  -21.7108   20.1704 C   0  0  0  0  0  0  0  0  0  0  0  0
  -30.3226  -19.8807   19.9188 C   0  0  0  0  0  0  0  0  0  0  0  0
  -26.6153  -30.3514   21.7053 C   0  0  0  0  0  0  0  0  0  0  0  0
  -22.7452  -11.7457   21.2042 C   0  0  0  0  0  0  0  0  0  0  0  0
  -23.2800  -14.4729   19.9055 C   0  0  0  0  0  0  0  0  0  0  0  0
  -24.1990  -17.6203   18.9637 C   0  0  0  0  0  0  0  0  0  0  0  0
  -27.8887  -22.8849   18.2668 C   0  0  0  0  0  0  0  0  0  0  0  0
  -18.4155  -11.4276   23.8893 C   0  0  0  0  0  0  0  0  0  0  0  0
  -25.0688  -11.8971   22.0670 C   0  0  0  0  0  0  0  0  0  0  0  0
  -25.3091  -13.0028   19.4788 C   0  0  0  0  0  0  0  0  0  0  0  0
  -18.9162  -12.2736   22.7214 C   0  0  0  0  0  0  0  0  0  0  0  0
  -27.1481  -25.7079   16.2273 C   0  0  0  0  0  0  0  0  0  0  0  0
  -19.5429  -11.3868   21.6501 C   0  0  0  0  0  0  0  0  0  0  0  0
  -26.6824  -26.7668   17.2292 C   0  0  0  0  0  0  0  0  0  0  0  0
  -26.6832  -24.3079   16.6246 C   0  0  0  0  0  0  0  0  0  0  0  0
  -26.5614  -24.9639   18.9961 C   0  0  0  0  0  0  0  0  0  0  0  0
  -20.7573  -10.6300   22.2014 C   0  0  1  0  0  0  0  0  0  0  0  0
  -23.8722  -12.6882   21.5088 C   0  0  1  0  0  0  0  0  0  0  0  0
  -27.0606  -26.3816   18.6729 C   0  0  2  0  0  0  0  0  0  0  0  0
  -31.5090  -19.9140   16.9639 C   0  0  0  0  0  0  0  0  0  0  0  0
  -23.2808  -19.7135   17.9282 C   0  0  0  0  0  0  0  0  0  0  0  0
  -23.3290  -13.1343   17.1651 C   0  0  0  0  0  0  0  0  0  0  0  0
  -23.3509  -15.4141   16.1305 C   0  0  0  0  0  0  0  0  0  0  0  0
  -21.4122  -14.6991   17.5280 C   0  0  0  0  0  0  0  0  0  0  0  0
  -24.8215  -19.2234   21.3723 C   0  0  0  0  0  0  0  0  0  0  0  0
  -30.9135  -16.7210   20.2063 C   0  0  0  0  0  0  0  0  0  0  0  0
  -31.7803  -15.5817   20.7446 C   0  0  0  0  0  0  0  0  0  0  0  0
  -30.6346  -18.9212   17.6511 C   0  0  0  0  0  0  0  0  0  0  0  0
  -31.7418  -17.8654   19.6280 C   0  0  0  0  0  0  0  0  0  0  0  0
  -30.9315  -14.4715   21.3515 C   0  0  0  0  0  0  0  0  0  1  0  0
  -23.6170  -15.2298   18.6457 C   0  0  1  0  0  0  0  0  0  0  0  0
  -23.5674  -18.9754   19.2266 C   0  0  2  0  0  0  0  0  0  0  0  0
  -22.9474  -14.6117   17.3859 C   0  0  0  0  0  0  0  0  0  0  0  0
  -25.3571  -27.2205   20.2465 N   0  0  0  0  0  0  0  0  0  0  0  0
  -29.2378  -21.7556   21.4988 N   0  0  0  0  0  0  0  0  0  0  0  0
  -30.6005  -19.7989   21.2299 N   0  0  0  0  0  0  0  0  0  0  0  0
  -29.5567  -20.8060   19.3186 N   0  0  0  0  0  0  0  0  0  0  0  0
  -26.5605  -27.4035   19.6768 N   0  0  0  0  0  0  0  0  0  0  0  0
  -24.1264  -13.4128   20.2520 N   0  0  0  0  0  0  0  0  0  0  0  0
  -27.0805  -24.0109   18.0026 N   0  0  0  0  0  0  0  0  0  0  0  0
  -28.4215  -28.8679   19.6224 N   0  0  0  0  0  0  0  0  0  0  0  0
  -30.2686  -20.7489   23.3485 N   0  0  0  0  0  0  0  0  0  0  0  0
  -25.6435  -30.8233   22.5982 N   0  0  0  0  0  0  0  0  0  0  0  0
  -28.2295  -22.7221   19.6092 N   0  0  0  0  0  0  0  0  0  0  0  0
  -21.9072  -11.5056   22.2763 N   0  0  0  0  0  0  0  0  0  0  0  0
  -23.2523  -16.6202   18.8949 N   0  0  0  0  0  0  0  0  0  0  0  0
  -30.8901  -18.9006   19.0924 N   0  0  3  0  0  0  0  0  0  0  0  0
  -24.4749  -19.8179   20.0557 N   0  3  0  0  0  0  0  0  0  0  0  0
  -27.6671  -31.0138   21.5362 O   0  0  0  0  0  0  0  0  0  0  0  0
  -22.6414  -11.2716   20.0789 O   0  0  0  0  0  0  0  0  0  0  0  0
  -22.2905  -14.8068   20.5632 O   0  0  0  0  0  0  0  0  0  0  0  0
  -25.4108  -17.4650   18.8290 O   0  0  0  0  0  0  0  0  0  0  0  0
  -28.2742  -22.1367   17.3648 O   0  0  0  0  0  0  0  0  0  0  0  0
  -20.6467  -28.9312   24.1750 O   0  0  0  0  0  0  0  0  0  0  0  0
  -30.0686  -13.9229   20.3561 O   0  0  0  0  0  0  0  0  0  1  0  0
  -15.7657  -28.0877   21.7526 F   0  0  0  0  0  0  0  0  0  0  0  0
  -18.7613  -30.9488   24.0429 F   0  0  0  0  0  0  0  0  0  0  0  0
  1  2  1  0  0  0  0
  1  5  2  0  0  0  0
  2  6  2  0  0  0  0
  3  8  2  0  0  0  0
  3 15  1  0  0  0  0
  4  9  1  0  0  0  0
  4 15  2  0  0  0  0
  5 17  1  0  0  0  0
  6 19  1  0  0  0  0
  7 10  2  0  0  0  0
  7 18  1  0  0  0  0
  8 21  1  0  0  0  0
  9 21  2  0  0  0  0
 10 22  1  0  0  0  0
 11 12  2  0  0  0  0
 11 23  1  0  0  0  0
 12 24  1  0  0  0  0
 13 20  1  0  0  0  0
 13 22  2  0  0  0  0
 14 24  2  0  0  0  0
 14 25  1  0  0  0  0
 15 26  1  0  0  0  0
 16 26  1  0  0  0  0
 16 27  2  0  0  0  0
 16 31  1  0  0  0  0
 17 19  2  0  0  0  0
 17 36  1  0  0  0  0
 18 20  2  0  0  0  0
 18 37  1  0  0  0  0
 19 45  1  0  0  0  0
 20 38  1  0  0  0  0
 21 82  1  0  0  0  0
 22 83  1  0  0  0  0
 23 25  2  0  0  0  0
 23 82  1  0  0  0  0
 24 84  1  0  0  0  0
 25 85  1  0  0  0  0
 26 62  2  0  0  0  0
 27 66  1  0  0  0  0
 27 69  1  0  0  0  0
 28 63  1  0  0  0  0
 28 64  2  0  0  0  0
 28 70  1  0  0  0  0
 29 63  2  0  0  0  0
 29 65  1  0  0  0  0
 29 72  1  0  0  0  0
 30 64  1  0  0  0  0
 30 65  2  0  0  0  0
 30 75  1  0  0  0  0
 31 71  1  0  0  0  0
 31 77  2  0  0  0  0
 32 46  1  0  0  0  0
 32 73  1  0  0  0  0
 32 78  2  0  0  0  0
 33 59  1  0  0  0  0
 33 67  1  0  0  0  0
 33 79  2  0  0  0  0
 34 60  1  0  0  0  0
 34 74  1  0  0  0  0
 34 80  2  0  0  0  0
 35 68  1  0  0  0  0
 35 72  1  0  0  0  0
 35 81  2  0  0  0  0
 36 39  1  0  0  0  0
 37 46  1  0  0  0  0
 38 67  1  0  0  0  0
 39 41  1  0  0  0  0
 40 42  1  0  0  0  0
 40 43  1  0  0  0  0
 41 45  1  0  0  0  0
 42 47  1  0  0  0  0
 43 68  1  0  0  0  0
 44 47  1  0  0  0  0
 44 68  1  0  0  0  0
 45 73  1  0  0  0  0
 46 67  1  0  0  0  0
 47 66  1  0  0  0  0
 48 56  1  0  0  0  0
 49 60  1  0  0  0  0
 50 61  1  0  0  0  0
 51 61  1  0  0  0  0
 52 61  1  0  0  0  0
 53 76  1  0  0  0  0
 54 55  1  0  0  0  0
 54 57  1  0  0  0  0
 55 58  1  0  0  0  0
 56 75  1  0  0  0  0
 57 75  1  0  0  0  0
 58 83  1  0  0  0  0
 59 61  1  0  0  0  0
 59 74  1  0  0  0  0
 60 76  1  0  0  0  0
 62 66  1  0  0  0  0
M  CHG  1  76   1
M  ISO  4  35 100  58 101  72 100  83 101
M  END
> <Batch ID>
0192

> <Smiles>
CCN(CCC[101CH2:1][101O:1]c1ccc2c(c1)CN(C(=O)C(NC(=O)C(C)NC)C(C)(C)C)C(C(=O)NC1CCCc3ccccc31)C2)c1nc(N)nc([100NH:0][100C:0](=O)N2CCCC(n3nc(-c4ccc(Oc5ccc(F)cc5F)cc4)c(C(N)=O)c3N)C2)n1

> <Shape>
0.255

> <Color>
0.073

> <Negative vol penalty>
0.000

$$$$

  -OEChem-04052305273D

 85 93  0     1  0  0  0  0  0999 V2000
  -19.9710  -31.1087   21.7325 C   0  0  0  0  0  0  0  0  0  0  0  0
  -21.2820  -30.6435   21.7536 C   0  0  0  0  0  0  0  0  0  0  0  0
  -23.8226  -15.4567   23.2004 C   0  0  0  0  0  0  0  0  0  0  0  0
  -23.3035  -16.0035   20.9051 C   0  0  0  0  0  0  0  0  0  0  0  0
  -18.9174  -30.2321   21.9880 C   0  0  0  0  0  0  0  0  0  0  0  0
  -21.5401  -29.3017   22.0315 C   0  0  0  0  0  0  0  0  0  0  0  0
  -24.9624  -27.2900   18.8873 C   0  0  0  0  0  0  0  0  0  0  0  0
  -22.5372  -15.8403   23.5825 C   0  0  0  0  0  0  0  0  0  0  0  0
  -22.0180  -16.3871   21.2872 C   0  0  0  0  0  0  0  0  0  0  0  0
  -26.3024  -27.5902   19.1283 C   0  0  0  0  0  0  0  0  0  0  0  0
  -18.4817  -17.1699   21.6034 C   0  0  0  0  0  0  0  0  0  0  0  0
  -17.4137  -16.7313   20.8208 C   0  0  0  0  0  0  0  0  0  0  0  0
  -26.5814  -25.4508   20.2073 C   0  0  0  0  0  0  0  0  0  0  0  0
  -18.0239  -14.4379   21.2735 C   0  0  0  0  0  0  0  0  0  0  0  0
  -24.2059  -15.5384   21.8617 C   0  0  0  0  0  0  0  0  0  0  0  0
  -25.9550  -13.8608   21.0655 C   0  0  0  0  0  0  0  0  0  0  0  0
  -19.1621  -28.8767   22.2596 C   0  0  0  0  0  0  0  0  0  0  0  0
  -24.4182  -26.0705   19.3149 C   0  0  0  0  0  0  0  0  0  0  0  0
  -20.4888  -28.4064   22.2922 C   0  0  0  0  0  0  0  0  0  0  0  0
  -25.2348  -25.1365   19.9682 C   0  0  0  0  0  0  0  0  0  0  0  0
  -21.6349  -16.3054   22.6259 C   0  0  0  0  0  0  0  0  0  0  0  0
  -27.1114  -26.6717   19.7909 C   0  0  0  0  0  0  0  0  0  0  0  0
  -19.3209  -16.2425   22.2211 C   0  0  0  0  0  0  0  0  0  0  0  0
  -17.1848  -15.3653   20.6558 C   0  0  0  0  0  0  0  0  0  0  0  0
  -19.0919  -14.8765   22.0561 C   0  0  0  0  0  0  0  0  0  0  0  0
  -25.5338  -15.1429   21.4664 C   0  0  0  0  0  0  0  0  0  0  0  0
  -27.2939  -14.0077   20.7968 C   0  0  0  0  0  0  0  0  0  0  0  0
  -29.7882  -20.7036   16.6965 C   0  0  0  0  0  0  0  0  0  0  0  0
  -28.4047  -22.2305   15.8070 C   0  0  0  0  0  0  0  0  0  0  0  0
  -30.0212  -22.8723   17.2253 C   0  0  0  0  0  0  0  0  0  0  0  0
  -25.2031  -12.6458   20.9466 C   0  0  0  0  0  0  0  0  0  0  0  0
  -22.1111  -25.2283   21.3327 C   0  0  0  0  0  0  0  0  0  0  0  0
  -22.7262  -22.2575   20.1846 C   0  0  0  0  0  0  0  0  0  0  0  0
  -24.9394  -20.1266   18.6985 C   0  0  0  0  0  0  0  0  0  0  0  0
  -30.6427  -18.7116   19.2126 C   0  0  0  0  0  0  0  0  0  0  0  0
  -17.9936  -27.9773   22.5763 C   0  0  0  0  0  0  0  0  0  0  0  0
  -22.9776  -25.7506   19.0235 C   0  0  0  0  0  0  0  0  0  0  0  0
  -24.7041  -23.8046   20.4296 C   0  0  0  0  0  0  0  0  0  0  0  0
  -18.3292  -26.4905   22.4929 C   0  0  0  0  0  0  0  0  0  0  0  0
  -31.1013  -16.6174   22.0553 C   0  0  0  0  0  0  0  0  0  0  0  0
  -19.6410  -26.1981   23.2143 C   0  0  0  0  0  0  0  0  0  0  0  0
  -29.7644  -15.8864   22.1905 C   0  0  0  0  0  0  0  0  0  0  0  0
  -30.9116  -18.0585   21.5870 C   0  0  0  0  0  0  0  0  0  0  0  0
  -28.7845  -17.4780   20.4861 C   0  0  0  0  0  0  0  0  0  0  0  0
  -20.8077  -26.9525   22.5652 C   0  0  1  0  0  0  0  0  0  0  0  0
  -22.3994  -24.6930   19.9587 C   0  0  1  0  0  0  0  0  0  0  0  0
  -28.9281  -16.0040   20.9021 C   0  0  2  0  0  0  0  0  0  0  0  0
  -25.7800  -18.0220   17.6210 C   0  0  0  0  0  0  0  0  0  0  0  0
  -31.2856  -28.1873   20.2363 C   0  0  0  0  0  0  0  0  0  0  0  0
  -23.0797  -21.3493   23.0760 C   0  0  0  0  0  0  0  0  0  0  0  0
  -24.2110  -19.2877   22.2169 C   0  0  0  0  0  0  0  0  0  0  0  0
  -21.8312  -19.7418   21.6229 C   0  0  0  0  0  0  0  0  0  0  0  0
  -24.0881  -21.0252   16.0102 C   0  0  0  0  0  0  0  0  0  0  0  0
  -30.2304  -19.2865   16.8338 C   0  0  0  0  0  0  0  0  0  0  0  0
  -30.9128  -26.0162   19.0391 C   0  0  0  0  0  0  0  0  0  0  0  0
  -30.3212  -25.2706   17.8450 C   0  0  0  0  0  0  0  0  0  0  0  0
  -29.0758  -27.8145   19.0901 C   0  0  0  0  0  0  0  0  0  1  0  0
  -23.6592  -21.1347   20.5692 C   0  0  1  0  0  0  0  0  0  0  0  0
  -24.7867  -19.1700   17.5298 C   0  0  2  0  0  0  0  0  0  0  0  0
  -30.5817  -27.5222   19.0476 C   0  0  1  0  0  0  0  0  0  0  0  0
  -23.2051  -20.4042   21.8644 C   0  0  0  0  0  0  0  0  0  0  0  0
  -26.5249  -16.0382   21.4550 N   0  0  0  0  0  0  0  0  0  0  0  0
  -28.7454  -20.9340   15.8823 N   0  0  0  0  0  0  0  0  0  0  0  0
  -30.4740  -21.6201   17.3987 N   0  0  0  0  0  0  0  0  0  0  0  0
  -28.9946  -23.2524   16.4478 N   0  0  0  0  0  0  0  0  0  0  0  0
  -27.5821  -15.3177   21.0438 N   0  0  0  0  0  0  0  0  0  0  0  0
  -23.2876  -23.5410   20.1270 N   0  0  0  0  0  0  0  0  0  0  0  0
  -30.1118  -18.1002   20.3604 N   0  0  0  0  0  0  0  0  0  0  0  0
  -28.2410  -13.1427   20.3758 N   0  0  0  0  0  0  0  0  0  0  0  0
  -27.3140  -22.5515   14.9697 N   0  0  0  0  0  0  0  0  0  0  0  0
  -23.8379  -12.6713   21.2622 N   0  0  0  0  0  0  0  0  0  0  0  0
  -30.6805  -23.8739   17.9196 N   0  0  0  0  0  0  0  0  0  0  0  0
  -21.2247  -26.2883   21.3490 N   0  0  0  0  0  0  0  0  0  0  0  0
  -23.7604  -20.2691   19.3992 N   0  0  0  0  0  0  0  0  0  0  0  0
  -29.8217  -18.7020   18.0916 N   0  0  0  0  0  0  0  0  0  0  0  0
  -25.0123  -19.8854   16.2420 N   0  3  0  0  0  0  0  0  0  0  0  0
  -25.7301  -11.5656   20.5873 O   0  0  0  0  0  0  0  0  0  0  0  0
  -22.6515  -24.7165   22.3062 O   0  0  0  0  0  0  0  0  0  0  0  0
  -21.5446  -22.0040   19.9372 O   0  0  0  0  0  0  0  0  0  0  0  0
  -25.9994  -20.6882   18.9656 O   0  0  0  0  0  0  0  0  0  0  0  0
  -31.7672  -19.2232   19.1871 O   0  0  0  0  0  0  0  0  0  0  0  0
  -20.3803  -16.6796   22.9984 O   0  0  0  0  0  0  0  0  0  0  0  0
  -28.4195  -26.9625   20.0280 O   0  0  0  0  0  0  0  0  0  1  0  0
  -16.1582  -14.9442   19.9055 F   0  0  0  0  0  0  0  0  0  0  0  0
  -19.8940  -13.9808   22.6480 F   0  0  0  0  0  0  0  0  0  0  0  0
  1  2  1  0  0  0  0
  1  5  2  0  0  0  0
  2  6  2  0  0  0  0
  3  8  2  0  0  0  0
  3 15  1  0  0  0  0
  4  9  1  0  0  0  0
  4 15  2  0  0  0  0
  5 17  1  0  0  0  0
  6 19  1  0  0  0  0
  7 10  2  0  0  0  0
  7 18  1  0  0  0  0
  8 21  1  0  0  0  0
  9 21  2  0  0  0  0
 10 22  1  0  0  0  0
 11 12  2  0  0  0  0
 11 23  1  0  0  0  0
 12 24  1  0  0  0  0
 13 20  1  0  0  0  0
 13 22  2  0  0  0  0
 14 24  2  0  0  0  0
 14 25  1  0  0  0  0
 15 26  1  0  0  0  0
 16 26  1  0  0  0  0
 16 27  2  0  0  0  0
 16 31  1  0  0  0  0
 17 19  2  0  0  0  0
 17 36  1  0  0  0  0
 18 20  2  0  0  0  0
 18 37  1  0  0  0  0
 19 45  1  0  0  0  0
 20 38  1  0  0  0  0
 21 82  1  0  0  0  0
 22 83  1  0  0  0  0
 23 25  2  0  0  0  0
 23 82  1  0  0  0  0
 24 84  1  0  0  0  0
 25 85  1  0  0  0  0
 26 62  2  0  0  0  0
 27 66  1  0  0  0  0
 27 69  1  0  0  0  0
 28 54  1  0  0  0  0
 28 63  2  0  0  0  0
 28 64  1  0  0  0  0
 29 63  1  0  0  0  0
 29 65  2  0  0  0  0
 29 70  1  0  0  0  0
 30 64  2  0  0  0  0
 30 65  1  0  0  0  0
 30 72  1  0  0  0  0
 31 71  1  0  0  0  0
 31 77  2  0  0  0  0
 32 46  1  0  0  0  0
 32 73  1  0  0  0  0
 32 78  2  0  0  0  0
 33 58  1  0  0  0  0
 33 67  1  0  0  0  0
 33 79  2  0  0  0  0
 34 59  1  0  0  0  0
 34 74  1  0  0  0  0
 34 80  2  0  0  0  0
 35 68  1  0  0  0  0
 35 75  1  0  0  0  0
 35 81  2  0  0  0  0
 36 39  1  0  0  0  0
 37 46  1  0  0  0  0
 38 67  1  0  0  0  0
 39 41  1  0  0  0  0
 40 42  1  0  0  0  0
 40 43  1  0  0  0  0
 41 45  1  0  0  0  0
 42 47  1  0  0  0  0
 43 68  1  0  0  0  0
 44 47  1  0  0  0  0
 44 68  1  0  0  0  0
 45 73  1  0  0  0  0
 46 67  1  0  0  0  0
 47 66  1  0  0  0  0
 48 59  1  0  0  0  0
 49 60  1  0  0  0  0
 50 61  1  0  0  0  0
 51 61  1  0  0  0  0
 52 61  1  0  0  0  0
 53 76  1  0  0  0  0
 54 75  1  0  0  0  0
 55 56  1  0  0  0  0
 55 60  1  0  0  0  0
 56 72  1  0  0  0  0
 57 60  1  0  0  0  0
 57 83  1  0  0  0  0
 58 61  1  0  0  0  0
 58 74  1  0  0  0  0
 59 76  1  0  0  0  0
 62 66  1  0  0  0  0
M  CHG  1  76   1
M  ISO  4  35 100  57 101  75 100  83 101
M  END
> <Batch ID>
0192

> <Smiles>
CNC(C)C(=O)NC(C(=O)N1Cc2cc([101O:1][101CH2:1]C(C)CCNc3nc(N)nc(C[100NH:0][100C:0](=O)N4CCCC(n5nc(-c6ccc(Oc7ccc(F)cc7F)cc6)c(C(N)=O)c5N)C4)n3)ccc2CC1C(=O)NC1CCCc2ccccc21)C(C)(C)C

> <Shape>
0.204

> <Color>
0.051

> <Negative vol penalty>
0.000

$$$$

  -OEChem-04052305273D

 90 98  0     1  0  0  0  0  0999 V2000
  -16.9850  -30.3121   23.5114 C   0  0  0  0  0  0  0  0  0  0  0  0
  -18.2754  -30.7708   23.2668 C   0  0  0  0  0  0  0  0  0  0  0  0
  -24.7609  -14.0569   20.0417 C   0  0  0  0  0  0  0  0  0  0  0  0
  -26.4659  -14.0456   21.7534 C   0  0  0  0  0  0  0  0  0  0  0  0
  -16.7370  -28.9425   23.5931 C   0  0  0  0  0  0  0  0  0  0  0  0
  -19.3189  -29.8600   23.1048 C   0  0  0  0  0  0  0  0  0  0  0  0
  -25.4723  -28.9965   19.5403 C   0  0  0  0  0  0  0  0  0  0  0  0
  -24.7221  -12.6629   20.0711 C   0  0  0  0  0  0  0  0  0  0  0  0
  -26.4271  -12.6515   21.7828 C   0  0  0  0  0  0  0  0  0  0  0  0
  -26.8131  -28.6874   19.7652 C   0  0  0  0  0  0  0  0  0  0  0  0
  -23.3816  -10.2490   22.0227 C   0  0  0  0  0  0  0  0  0  0  0  0
  -22.1290   -9.6355   22.0359 C   0  0  0  0  0  0  0  0  0  0  0  0
  -26.2523  -26.3426   19.8480 C   0  0  0  0  0  0  0  0  0  0  0  0
  -22.6608   -8.5055   19.9677 C   0  0  0  0  0  0  0  0  0  0  0  0
  -30.7967  -21.8958   23.1478 C   0  0  0  0  0  0  0  0  0  0  0  0
  -25.6329  -14.7482   20.8828 C   0  0  0  0  0  0  0  0  0  0  0  0
  -24.9035  -17.0771   21.6260 C   0  0  0  0  0  0  0  0  0  0  0  0
  -17.7762  -28.0143   23.4224 C   0  0  0  0  0  0  0  0  0  0  0  0
  -24.5082  -27.9801   19.4783 C   0  0  0  0  0  0  0  0  0  0  0  0
  -19.0848  -28.4768   23.1856 C   0  0  0  0  0  0  0  0  0  0  0  0
  -24.9004  -26.6413   19.6197 C   0  0  0  0  0  0  0  0  0  0  0  0
  -25.5552  -11.9602   20.9417 C   0  0  0  0  0  0  0  0  0  0  0  0
  -27.2029  -27.3605   19.9220 C   0  0  0  0  0  0  0  0  0  0  0  0
  -24.2738   -9.9908   20.9820 C   0  0  0  0  0  0  0  0  0  0  0  0
  -21.7686   -8.7637   21.0084 C   0  0  0  0  0  0  0  0  0  0  0  0
  -23.9134   -9.1190   19.9545 C   0  0  0  0  0  0  0  0  0  0  0  0
  -25.6739  -16.1882   20.8525 C   0  0  0  0  0  0  0  0  0  0  0  0
  -32.1264  -23.7352   23.4270 C   0  0  0  0  0  0  0  0  0  0  0  0
  -30.8458  -22.0676   21.7820 C   0  0  0  0  0  0  0  0  0  0  0  0
  -32.1762  -23.9066   22.0611 C   0  0  0  0  0  0  0  0  0  0  0  0
  -25.3145  -18.3251   21.2260 C   0  0  0  0  0  0  0  0  0  0  0  0
  -23.9057  -16.7994   22.6174 C   0  0  0  0  0  0  0  0  0  0  0  0
  -21.9214  -27.2359   21.1690 C   0  0  0  0  0  0  0  0  0  0  0  0
  -21.5347  -24.9913   18.8594 C   0  0  0  0  0  0  0  0  0  0  0  0
  -22.9577  -23.0420   16.4465 C   0  0  0  0  0  0  0  0  0  0  0  0
  -30.0697  -21.1528   19.5668 C   0  0  0  0  0  0  0  0  0  0  0  0
  -17.4680  -26.5449   23.5663 C   0  0  0  0  0  0  0  0  0  0  0  0
  -23.0700  -28.3281   19.2084 C   0  0  0  0  0  0  0  0  0  0  0  0
  -23.9074  -25.5116   19.5414 C   0  0  0  0  0  0  0  0  0  0  0  0
  -18.5612  -25.6360   23.0105 C   0  0  0  0  0  0  0  0  0  0  0  0
  -27.5956  -20.1258   17.2213 C   0  0  0  0  0  0  0  0  0  0  0  0
  -19.9347  -26.1029   23.4822 C   0  0  0  0  0  0  0  0  0  0  0  0
  -26.7714  -19.0925   17.9928 C   0  0  0  0  0  0  0  0  0  0  0  0
  -29.0797  -20.0457   17.5745 C   0  0  0  0  0  0  0  0  0  0  0  0
  -28.5569  -19.0837   19.7814 C   0  0  0  0  0  0  0  0  0  0  0  0
  -20.2385  -27.5194   22.9796 C   0  0  1  0  0  0  0  0  0  0  0  0
  -22.0966  -27.2509   19.6768 C   0  0  1  0  0  0  0  0  0  0  0  0
  -27.0465  -19.1692   19.5074 C   0  0  2  0  0  0  0  0  0  0  0  0
  -36.1444  -25.8975   18.7011 C   0  0  0  0  0  0  0  0  0  0  0  0
  -33.9164  -23.9379   25.1901 C   0  0  0  0  0  0  0  0  0  0  0  0
  -31.8680  -25.4034   25.2991 C   0  0  0  0  0  0  0  0  0  0  0  0
  -22.3937  -21.2796   14.7515 C   0  0  0  0  0  0  0  0  0  0  0  0
  -34.3549  -27.4433   20.6017 C   0  0  0  0  0  0  0  0  0  0  0  0
  -21.3517  -22.9125   21.0854 C   0  0  0  0  0  0  0  0  0  0  0  0
  -21.7457  -21.1371   19.3646 C   0  0  0  0  0  0  0  0  0  0  0  0
  -19.7211  -22.5869   19.2173 C   0  0  0  0  0  0  0  0  0  0  0  0
  -23.8460  -24.7529   14.2008 C   0  0  0  0  0  0  0  0  0  0  0  0
  -34.9134  -25.2908   19.3618 C   0  0  0  0  0  0  0  0  0  0  0  0
  -31.3470  -26.5331   20.5482 C   0  0  0  0  0  0  0  0  0  0  0  0
  -29.4857  -27.9336   19.5811 C   0  0  0  0  0  0  0  0  0  1  0  0
  -32.8353  -24.6569   24.3610 C   0  0  0  0  0  0  0  0  0  0  0  0
  -21.9877  -23.5638   18.6693 C   0  0  1  0  0  0  0  0  0  0  0  0
  -22.5596  -22.7695   15.0071 C   0  0  2  0  0  0  0  0  0  0  0  0
  -33.8149  -26.3272   19.6984 C   0  0  1  0  0  0  0  0  0  0  0  0
  -32.5634  -25.6218   20.2909 C   0  0  1  0  0  0  0  0  0  0  0  0
  -30.7489  -27.1409   19.2811 C   0  0  2  0  0  0  0  0  0  0  0  0
  -21.2202  -22.5713   19.5876 C   0  0  0  0  0  0  0  0  0  0  0  0
  -31.4360  -22.7266   23.9949 N   0  0  0  0  0  0  0  0  0  0  0  0
  -26.5108  -16.8181   20.0237 N   0  0  0  0  0  0  0  0  0  0  0  0
  -31.5366  -23.0760   21.2141 N   0  0  0  0  0  0  0  0  0  0  0  0
  -26.2686  -18.1161   20.2741 N   0  0  0  0  0  0  0  0  0  0  0  0
  -22.5121  -25.9033   19.2821 N   0  0  0  0  0  0  0  0  0  0  0  0
  -29.2637  -20.1293   19.0250 N   0  0  0  0  0  0  0  0  0  0  0  0
  -24.9492  -19.5699   21.5992 N   0  0  0  0  0  0  0  0  0  0  0  0
  -23.6054  -15.4613   22.9066 N   0  0  0  0  0  0  0  0  0  0  0  0
  -30.1443  -21.1517   20.9593 N   0  0  0  0  0  0  0  0  0  0  0  0
  -32.9017  -24.9588   21.5384 N   0  0  0  0  0  0  0  0  0  0  0  0
  -20.6285  -27.4885   21.5863 N   0  0  0  0  0  0  0  0  0  0  0  0
  -21.8586  -23.2809   17.2439 N   0  0  0  0  0  0  0  0  0  0  0  0
  -23.5971  -23.2937   14.0746 N   0  3  0  0  0  0  0  0  0  0  0  0
  -23.2867  -17.7109   23.2170 O   0  0  0  0  0  0  0  0  0  0  0  0
  -22.8874  -27.0104   21.8885 O   0  0  0  0  0  0  0  0  0  0  0  0
  -20.3587  -25.2877   18.6339 O   0  0  0  0  0  0  0  0  0  0  0  0
  -24.1267  -23.0393   16.8262 O   0  0  0  0  0  0  0  0  0  0  0  0
  -30.6288  -21.9866   18.8498 O   0  0  0  0  0  0  0  0  0  0  0  0
  -25.5174  -10.6000   20.9708 O   0  0  0  0  0  0  0  0  0  0  0  0
  -28.5197  -27.0540   20.1438 O   0  0  0  0  0  0  0  0  0  1  0  0
  -20.5662   -8.1735   21.0219 F   0  0  0  0  0  0  0  0  0  0  0  0
  -24.7667   -8.8661   18.9527 F   0  0  0  0  0  0  0  0  0  0  0  0
  -30.4101  -26.1231   18.4378 F   0  0  0  0  0  0  0  0  0  0  0  0
  1  2  1  0  0  0  0
  1  5  2  0  0  0  0
  2  6  2  0  0  0  0
  3  8  2  0  0  0  0
  3 16  1  0  0  0  0
  4  9  1  0  0  0  0
  4 16  2  0  0  0  0
  5 18  1  0  0  0  0
  6 20  1  0  0  0  0
  7 10  2  0  0  0  0
  7 19  1  0  0  0  0
  8 22  1  0  0  0  0
  9 22  2  0  0  0  0
 10 23  1  0  0  0  0
 11 12  2  0  0  0  0
 11 24  1  0  0  0  0
 12 25  1  0  0  0  0
 13 21  1  0  0  0  0
 13 23  2  0  0  0  0
 14 25  2  0  0  0  0
 14 26  1  0  0  0  0
 15 29  1  0  0  0  0
 15 68  2  0  0  0  0
 16 27  1  0  0  0  0
 17 27  1  0  0  0  0
 17 31  2  0  0  0  0
 17 32  1  0  0  0  0
 18 20  2  0  0  0  0
 18 37  1  0  0  0  0
 19 21  2  0  0  0  0
 19 38  1  0  0  0  0
 20 46  1  0  0  0  0
 21 39  1  0  0  0  0
 22 86  1  0  0  0  0
 23 87  1  0  0  0  0
 24 26  2  0  0  0  0
 24 86  1  0  0  0  0
 25 88  1  0  0  0  0
 26 89  1  0  0  0  0
 27 69  2  0  0  0  0
 28 30  2  0  0  0  0
 28 61  1  0  0  0  0
 28 68  1  0  0  0  0
 29 70  2  0  0  0  0
 29 76  1  0  0  0  0
 30 70  1  0  0  0  0
 30 77  1  0  0  0  0
 31 71  1  0  0  0  0
 31 74  1  0  0  0  0
 32 75  1  0  0  0  0
 32 81  2  0  0  0  0
 33 47  1  0  0  0  0
 33 78  1  0  0  0  0
 33 82  2  0  0  0  0
 34 62  1  0  0  0  0
 34 72  1  0  0  0  0
 34 83  2  0  0  0  0
 35 63  1  0  0  0  0
 35 79  1  0  0  0  0
 35 84  2  0  0  0  0
 36 73  1  0  0  0  0
 36 76  1  0  0  0  0
 36 85  2  0  0  0  0
 37 40  1  0  0  0  0
 38 47  1  0  0  0  0
 39 72  1  0  0  0  0
 40 42  1  0  0  0  0
 41 43  1  0  0  0  0
 41 44  1  0  0  0  0
 42 46  1  0  0  0  0
 43 48  1  0  0  0  0
 44 73  1  0  0  0  0
 45 48  1  0  0  0  0
 45 73  1  0  0  0  0
 46 78  1  0  0  0  0
 47 72  1  0  0  0  0
 48 71  1  0  0  0  0
 49 58  1  0  0  0  0
 50 61  1  0  0  0  0
 51 61  1  0  0  0  0
 52 63  1  0  0  0  0
 53 64  1  0  0  0  0
 54 67  1  0  0  0  0
 55 67  1  0  0  0  0
 56 67  1  0  0  0  0
 57 80  1  0  0  0  0
 58 64  1  0  0  0  0
 59 65  1  0  0  0  0
 59 66  1  0  0  0  0
 60 66  1  0  0  0  0
 60 87  1  0  0  0  0
 62 67  1  0  0  0  0
 62 79  1  0  0  0  0
 63 80  1  0  0  0  0
 64 65  1  0  0  0  0
 65 77  1  0  0  0  0
 66 90  1  0  0  0  0
 69 71  1  0  0  0  0
M  CHG  1  80   1
M  ISO  4  36 100  60 101  76 100  87 101
M  END
> <Batch ID>
0192

> <Smiles>
CCC(C)C(CC(F)[101CH2:1][101O:1]c1ccc2c(c1)CN(C(=O)C(NC(=O)C(C)NC)C(C)(C)C)C(C(=O)NC1CCCc3ccccc31)C2)Nc1nc([100NH:0][100C:0](=O)N2CCCC(n3nc(-c4ccc(Oc5ccc(F)cc5F)cc4)c(C(N)=O)c3N)C2)cnc1C(C)C

> <Shape>
0.219

> <Color>
0.080

> <Negative vol penalty>
0.000

$$$$

  -OEChem-04052305273D

 84 92  0     1  0  0  0  0  0999 V2000
  -18.1869  -32.5424   21.8020 C   0  0  0  0  0  0  0  0  0  0  0  0
  -19.5137  -32.5396   21.3835 C   0  0  0  0  0  0  0  0  0  0  0  0
  -26.4295  -13.0339   21.6660 C   0  0  0  0  0  0  0  0  0  0  0  0
  -25.9686  -14.0649   19.5302 C   0  0  0  0  0  0  0  0  0  0  0  0
  -17.7624  -31.6394   22.7758 C   0  0  0  0  0  0  0  0  0  0  0  0
  -20.4170  -31.6343   21.9394 C   0  0  0  0  0  0  0  0  0  0  0  0
  -25.1083  -28.9035   19.1041 C   0  0  0  0  0  0  0  0  0  0  0  0
  -25.1603  -12.4553   21.6607 C   0  0  0  0  0  0  0  0  0  0  0  0
  -24.6994  -13.4863   19.5249 C   0  0  0  0  0  0  0  0  0  0  0  0
  -26.4734  -29.1842   19.0663 C   0  0  0  0  0  0  0  0  0  0  0  0
  -23.6341   -9.8114   20.2070 C   0  0  0  0  0  0  0  0  0  0  0  0
  -23.5328   -8.4674   20.5663 C   0  0  0  0  0  0  0  0  0  0  0  0
  -26.8453  -27.5835   20.8322 C   0  0  0  0  0  0  0  0  0  0  0  0
  -22.0750   -9.0668   22.3973 C   0  0  0  0  0  0  0  0  0  0  0  0
  -29.1299  -21.4364   17.5877 C   0  0  0  0  0  0  0  0  0  0  0  0
  -29.7573  -23.6623   16.9272 C   0  0  0  0  0  0  0  0  0  0  0  0
  -26.8336  -13.8387   20.6008 C   0  0  0  0  0  0  0  0  0  0  0  0
  -29.3314  -13.8884   20.0848 C   0  0  0  0  0  0  0  0  0  0  0  0
  -18.6587  -30.7161   23.3369 C   0  0  0  0  0  0  0  0  0  0  0  0
  -24.5992  -27.9669   20.0152 C   0  0  0  0  0  0  0  0  0  0  0  0
  -20.0043  -30.7190   22.9226 C   0  0  0  0  0  0  0  0  0  0  0  0
  -25.4737  -27.2907   20.8778 C   0  0  0  0  0  0  0  0  0  0  0  0
  -24.2953  -12.6815   20.5901 C   0  0  0  0  0  0  0  0  0  0  0  0
  -27.3418  -28.5263   19.9325 C   0  0  0  0  0  0  0  0  0  0  0  0
  -22.9559  -10.7831   20.9429 C   0  0  0  0  0  0  0  0  0  0  0  0
  -22.7533   -8.0951   21.6614 C   0  0  0  0  0  0  0  0  0  0  0  0
  -22.1763  -10.4108   22.0380 C   0  0  0  0  0  0  0  0  0  0  0  0
  -29.1862  -22.4325   16.6192 C   0  0  0  0  0  0  0  0  0  0  0  0
  -28.1443  -14.4371   20.6060 C   0  0  0  0  0  0  0  0  0  0  0  0
  -29.6544  -21.7179   18.8388 C   0  0  0  0  0  0  0  0  0  0  0  0
  -30.2535  -23.8442   18.2080 C   0  0  0  0  0  0  0  0  0  0  0  0
  -30.2891  -14.8402   20.3366 C   0  0  0  0  0  0  0  0  0  0  0  0
  -29.5489  -12.6309   19.4313 C   0  0  0  0  0  0  0  0  0  0  0  0
  -22.5487  -28.0832   22.4412 C   0  0  0  0  0  0  0  0  0  0  0  0
  -22.9582  -24.8654   22.4329 C   0  0  0  0  0  0  0  0  0  0  0  0
  -24.9261  -22.1973   21.6230 C   0  0  0  0  0  0  0  0  0  0  0  0
  -30.0532  -20.7575   21.1334 C   0  0  0  0  0  0  0  0  0  0  0  0
  -18.1643  -29.7910   24.4206 C   0  0  0  0  0  0  0  0  0  0  0  0
  -23.1276  -27.6558   20.0250 C   0  0  0  0  0  0  0  0  0  0  0  0
  -24.9801  -26.2618   21.8607 C   0  0  0  0  0  0  0  0  0  0  0  0
  -19.0981  -28.6136   24.6892 C   0  0  0  0  0  0  0  0  0  0  0  0
  -31.3606  -18.3527   23.4104 C   0  0  0  0  0  0  0  0  0  0  0  0
  -20.5428  -29.0915   24.7953 C   0  0  0  0  0  0  0  0  0  0  0  0
  -30.7972  -17.0251   22.8986 C   0  0  0  0  0  0  0  0  0  0  0  0
  -30.3572  -19.4936   23.2512 C   0  0  0  0  0  0  0  0  0  0  0  0
  -29.2475  -18.3280   21.3860 C   0  0  0  0  0  0  0  0  0  0  0  0
  -21.0085  -29.7358   23.4840 C   0  0  1  0  0  0  0  0  0  0  0  0
  -22.6518  -27.0596   21.3461 C   0  0  1  0  0  0  0  0  0  0  0  0
  -30.2460  -17.1617   21.4657 C   0  0  2  0  0  0  0  0  0  0  0  0
  -25.0111  -19.6940   21.7756 C   0  0  0  0  0  0  0  0  0  0  0  0
  -23.6553  -25.0720   25.3962 C   0  0  0  0  0  0  0  0  0  0  0  0
  -24.6304  -22.7703   25.2559 C   0  0  0  0  0  0  0  0  0  0  0  0
  -22.2038  -23.1250   24.7993 C   0  0  0  0  0  0  0  0  0  0  0  0
  -25.0199  -21.9052   18.6794 C   0  0  0  0  0  0  0  0  0  0  0  0
  -30.8781  -27.9365   19.5170 C   0  0  0  0  0  0  0  0  0  0  0  0
  -31.3794  -25.4133   19.7879 C   0  0  0  0  0  0  0  0  0  0  0  0
  -29.5633  -27.7418   20.2574 C   0  0  0  0  0  0  0  0  0  1  0  0
  -23.9108  -23.9071   23.1063 C   0  0  1  0  0  0  0  0  0  0  0  0
  -24.6097  -20.8878   20.9234 C   0  0  2  0  0  0  0  0  0  0  0  0
  -31.9158  -26.8456   19.8013 C   0  0  1  0  0  0  0  0  0  0  0  0
  -23.6094  -23.7394   24.6224 C   0  0  0  0  0  0  0  0  0  0  0  0
  -28.3286  -15.6438   21.1482 N   0  0  0  0  0  0  0  0  0  0  0  0
  -30.2168  -22.9003   19.1752 N   0  0  0  0  0  0  0  0  0  0  0  0
  -29.6427  -15.8612   20.9690 N   0  0  0  0  0  0  0  0  0  0  0  0
  -23.5321  -25.9970   21.8363 N   0  0  0  0  0  0  0  0  0  0  0  0
  -29.8819  -19.5650   21.8678 N   0  0  0  0  0  0  0  0  0  0  0  0
  -31.6126  -14.8950   20.0765 N   0  0  0  0  0  0  0  0  0  0  0  0
  -28.4555  -11.7723   19.2537 N   0  0  0  0  0  0  0  0  0  0  0  0
  -29.5916  -20.6965   19.8189 N   0  0  0  0  0  0  0  0  0  0  0  0
  -30.8204  -25.0739   18.4994 N   0  0  0  0  0  0  0  0  0  0  0  0
  -21.3229  -28.7179   22.5045 N   0  0  0  0  0  0  0  0  0  0  0  0
  -23.8476  -22.6651   22.3435 N   0  0  0  0  0  0  0  0  0  0  0  0
  -25.3375  -20.8048   19.6256 N   0  3  0  0  0  0  0  0  0  0  0  0
  -30.6825  -12.2720   19.0318 O   0  0  0  0  0  0  0  0  0  0  0  0
  -23.5096  -28.2814   23.1754 O   0  0  0  0  0  0  0  0  0  0  0  0
  -21.7503  -24.6152   22.4299 O   0  0  0  0  0  0  0  0  0  0  0  0
  -26.0219  -22.7481   21.5418 O   0  0  0  0  0  0  0  0  0  0  0  0
  -30.5958  -21.7503   21.6253 O   0  0  0  0  0  0  0  0  0  0  0  0
  -32.9651  -26.9391   18.8360 O   0  0  0  0  0  0  0  0  0  0  0  0
  -23.0568  -12.1169   20.5845 O   0  0  0  0  0  0  0  0  0  0  0  0
  -28.6746  -28.7990   19.8982 O   0  0  0  0  0  0  0  0  0  1  0  0
  -22.6548   -6.8043   22.0054 F   0  0  0  0  0  0  0  0  0  0  0  0
  -21.5214  -11.3396   22.7481 F   0  0  0  0  0  0  0  0  0  0  0  0
  -28.6916  -22.2085   15.3949 F   0  0  0  0  0  0  0  0  0  0  0  0
  1  2  1  0  0  0  0
  1  5  2  0  0  0  0
  2  6  2  0  0  0  0
  3  8  2  0  0  0  0
  3 17  1  0  0  0  0
  4  9  1  0  0  0  0
  4 17  2  0  0  0  0
  5 19  1  0  0  0  0
  6 21  1  0  0  0  0
  7 10  2  0  0  0  0
  7 20  1  0  0  0  0
  8 23  1  0  0  0  0
  9 23  2  0  0  0  0
 10 24  1  0  0  0  0
 11 12  2  0  0  0  0
 11 25  1  0  0  0  0
 12 26  1  0  0  0  0
 13 22  1  0  0  0  0
 13 24  2  0  0  0  0
 14 26  2  0  0  0  0
 14 27  1  0  0  0  0
 15 28  1  0  0  0  0
 15 30  2  0  0  0  0
 16 28  2  0  0  0  0
 16 31  1  0  0  0  0
 17 29  1  0  0  0  0
 18 29  1  0  0  0  0
 18 32  2  0  0  0  0
 18 33  1  0  0  0  0
 19 21  2  0  0  0  0
 19 38  1  0  0  0  0
 20 22  2  0  0  0  0
 20 39  1  0  0  0  0
 21 47  1  0  0  0  0
 22 40  1  0  0  0  0
 23 80  1  0  0  0  0
 24 81  1  0  0  0  0
 25 27  2  0  0  0  0
 25 80  1  0  0  0  0
 26 82  1  0  0  0  0
 27 83  1  0  0  0  0
 28 84  1  0  0  0  0
 29 62  2  0  0  0  0
 30 63  1  0  0  0  0
 30 69  1  0  0  0  0
 31 63  2  0  0  0  0
 31 70  1  0  0  0  0
 32 64  1  0  0  0  0
 32 67  1  0  0  0  0
 33 68  1  0  0  0  0
 33 74  2  0  0  0  0
 34 48  1  0  0  0  0
 34 71  1  0  0  0  0
 34 75  2  0  0  0  0
 35 58  1  0  0  0  0
 35 65  1  0  0  0  0
 35 76  2  0  0  0  0
 36 59  1  0  0  0  0
 36 72  1  0  0  0  0
 36 77  2  0  0  0  0
 37 66  1  0  0  0  0
 37 69  1  0  0  0  0
 37 78  2  0  0  0  0
 38 41  1  0  0  0  0
 39 48  1  0  0  0  0
 40 65  1  0  0  0  0
 41 43  1  0  0  0  0
 42 44  1  0  0  0  0
 42 45  1  0  0  0  0
 43 47  1  0  0  0  0
 44 49  1  0  0  0  0
 45 66  1  0  0  0  0
 46 49  1  0  0  0  0
 46 66  1  0  0  0  0
 47 71  1  0  0  0  0
 48 65  1  0  0  0  0
 49 64  1  0  0  0  0
 50 59  1  0  0  0  0
 51 61  1  0  0  0  0
 52 61  1  0  0  0  0
 53 61  1  0  0  0  0
 54 73  1  0  0  0  0
 55 57  1  0  0  0  0
 55 60  1  0  0  0  0
 56 60  1  0  0  0  0
 56 70  1  0  0  0  0
 57 81  1  0  0  0  0
 58 61  1  0  0  0  0
 58 72  1  0  0  0  0
 59 73  1  0  0  0  0
 60 79  1  0  0  0  0
 62 64  1  0  0  0  0
M  CHG  1  73   1
M  ISO  4  37 100  57 101  69 100  81 101
M  END
> <Batch ID>
0192

> <Smiles>
CNC(C)C(=O)NC(C(=O)N1Cc2cc([101O:1][101CH2:1]CC(O)CNc3cc(F)cc([100NH:0][100C:0](=O)N4CCCC(n5nc(-c6ccc(Oc7ccc(F)cc7F)cc6)c(C(N)=O)c5N)C4)n3)ccc2CC1C(=O)NC1CCCc2ccccc21)C(C)(C)C

> <Shape>
0.281

> <Color>
0.095

> <Negative vol penalty>
0.000

$$$$

  -OEChem-04052305273D

 87 95  0     1  0  0  0  0  0999 V2000
  -32.3255  -12.3233   21.9569 C   0  0  0  0  0  0  0  0  0  0  0  0
  -32.4040  -13.6840   21.6783 C   0  0  0  0  0  0  0  0  0  0  0  0
  -21.4938  -25.1367   24.0348 C   0  0  0  0  0  0  0  0  0  0  0  0
  -22.2168  -27.3016   23.2427 C   0  0  0  0  0  0  0  0  0  0  0  0
  -31.3213  -11.5506   21.3751 C   0  0  0  0  0  0  0  0  0  0  0  0
  -31.4788  -14.2727   20.8168 C   0  0  0  0  0  0  0  0  0  0  0  0
  -29.1776  -19.9352   21.1982 C   0  0  0  0  0  0  0  0  0  0  0  0
  -20.3700  -25.7244   24.6155 C   0  0  0  0  0  0  0  0  0  0  0  0
  -21.0929  -27.8894   23.8233 C   0  0  0  0  0  0  0  0  0  0  0  0
  -29.5033  -21.1257   20.5499 C   0  0  0  0  0  0  0  0  0  0  0  0
  -18.2281  -29.9094   24.7879 C   0  0  0  0  0  0  0  0  0  0  0  0
  -17.5206  -30.8442   24.0320 C   0  0  0  0  0  0  0  0  0  0  0  0
  -27.7546  -20.7195   18.9385 C   0  0  0  0  0  0  0  0  0  0  0  0
  -17.0986  -29.1635   22.3485 C   0  0  0  0  0  0  0  0  0  0  0  0
  -32.9080  -28.0177   21.9427 C   0  0  0  0  0  0  0  0  0  0  0  0
  -22.4173  -25.9253   23.3485 C   0  0  0  0  0  0  0  0  0  0  0  0
  -23.6906  -24.8040   21.4435 C   0  0  0  0  0  0  0  0  0  0  0  0
  -30.3776  -12.1319   20.5137 C   0  0  0  0  0  0  0  0  0  0  0  0
  -28.1434  -19.1211   20.7144 C   0  0  0  0  0  0  0  0  0  0  0  0
  -30.4619  -13.5067   20.2220 C   0  0  0  0  0  0  0  0  0  0  0  0
  -27.4161  -19.5204   19.5841 C   0  0  0  0  0  0  0  0  0  0  0  0
  -20.1695  -27.1008   24.5097 C   0  0  0  0  0  0  0  0  0  0  0  0
  -28.7937  -21.5166   19.4181 C   0  0  0  0  0  0  0  0  0  0  0  0
  -18.3709  -28.6017   24.3240 C   0  0  0  0  0  0  0  0  0  0  0  0
  -16.9559  -30.4712   22.8123 C   0  0  0  0  0  0  0  0  0  0  0  0
  -17.8061  -28.2287   23.1043 C   0  0  0  0  0  0  0  0  0  0  0  0
  -23.5787  -25.3189   22.7489 C   0  0  0  0  0  0  0  0  0  0  0  0
  -31.5774  -27.7465   22.1835 C   0  0  0  0  0  0  0  0  0  0  0  0
  -24.9827  -24.3448   21.3651 C   0  0  0  0  0  0  0  0  0  0  0  0
  -31.6762  -27.0838   20.0952 C   0  0  0  0  0  0  0  0  0  0  0  0
  -22.7140  -24.7461   20.3954 C   0  0  0  0  0  0  0  0  0  0  0  0
  -27.9646  -16.1548   19.5862 C   0  0  0  0  0  0  0  0  0  0  0  0
  -29.0706  -27.3586   18.3786 C   0  0  0  0  0  0  0  0  0  0  0  0
  -24.7765  -16.7527   19.6131 C   0  0  0  0  0  0  0  0  0  0  0  0
  -22.2603  -19.0573   19.5455 C   0  0  0  0  0  0  0  0  0  0  0  0
  -30.0095  -25.7962   24.2765 C   0  0  0  0  0  0  0  0  0  0  0  0
  -29.3388  -11.2469   19.8715 C   0  0  0  0  0  0  0  0  0  0  0  0
  -27.7867  -17.8532   21.4409 C   0  0  0  0  0  0  0  0  0  0  0  0
  -26.2836  -18.6922   19.0364 C   0  0  0  0  0  0  0  0  0  0  0  0
  -28.1711  -12.0202   19.2643 C   0  0  0  0  0  0  0  0  0  0  0  0
  -28.4999  -22.5774   24.0848 C   0  0  0  0  0  0  0  0  0  0  0  0
  -28.6817  -13.1967   18.4385 C   0  0  0  0  0  0  0  0  0  0  0  0
  -27.0776  -22.8685   23.6029 C   0  0  0  0  0  0  0  0  0  0  0  0
  -29.0072  -23.6611   25.0335 C   0  0  0  0  0  0  0  0  0  0  0  0
  -27.4969  -25.3271   24.0251 C   0  0  0  0  0  0  0  0  0  0  0  0
  -29.4618  -14.1865   19.3121 C   0  0  1  0  0  0  0  0  0  0  0  0
  -27.0532  -16.8462   20.5604 C   0  0  1  0  0  0  0  0  0  0  0  0
  -26.9625  -24.2907   23.0219 C   0  0  2  0  0  0  0  0  0  0  0  0
  -27.4744  -27.6412   20.3191 C   0  0  0  0  0  0  0  0  0  0  0  0
  -19.7577  -19.2418   19.5411 C   0  0  0  0  0  0  0  0  0  0  0  0
  -30.3836  -25.8929   16.0824 C   0  0  0  0  0  0  0  0  0  0  0  0
  -24.7229  -15.9227   16.6774 C   0  0  0  0  0  0  0  0  0  0  0  0
  -22.4766  -17.0110   16.4829 C   0  0  0  0  0  0  0  0  0  0  0  0
  -22.7967  -15.0838   18.0340 C   0  0  0  0  0  0  0  0  0  0  0  0
  -22.2519  -20.5752   22.0861 C   0  0  0  0  0  0  0  0  0  0  0  0
  -30.8674  -27.9762   23.4575 C   0  0  0  0  0  0  0  0  0  0  0  0
  -27.6336  -27.2429   18.8629 C   0  0  0  0  0  0  0  0  0  0  0  0
  -30.8330  -23.8987   17.5957 C   0  0  0  0  0  0  0  0  0  0  0  0
  -30.4700  -23.1048   18.8493 C   0  0  0  0  0  0  0  0  0  1  0  0
  -29.9507  -26.1262   18.5683 C   0  0  1  0  0  0  0  0  0  0  0  0
  -23.7891  -17.3318   18.6289 C   0  0  1  0  0  0  0  0  0  0  0  0
  -21.0138  -19.2130   20.3978 C   0  0  2  0  0  0  0  0  0  0  0  0
  -29.9643  -25.1585   17.3614 C   0  0  1  0  0  0  0  0  0  0  0  0
  -23.4689  -16.3522   17.4647 C   0  0  0  0  0  0  0  0  0  0  0  0
  -24.7095  -25.1982   23.4495 N   0  0  0  0  0  0  0  0  0  0  0  0
  -30.8694  -27.2113   21.1252 N   0  0  0  0  0  0  0  0  0  0  0  0
  -25.5442  -24.6022   22.5811 N   0  0  0  0  0  0  0  0  0  0  0  0
  -25.9771  -17.4579   19.7780 N   0  0  0  0  0  0  0  0  0  0  0  0
  -28.8718  -24.9853   24.4220 N   0  0  0  0  0  0  0  0  0  0  0  0
  -25.6820  -23.7499   20.3754 N   0  0  0  0  0  0  0  0  0  0  0  0
  -21.4354  -25.2633   20.6442 N   0  0  0  0  0  0  0  0  0  0  0  0
  -31.2957  -26.5790   18.8659 N   0  0  0  0  0  0  0  0  0  0  0  0
  -28.5518  -15.0067   20.0826 N   0  0  0  0  0  0  0  0  0  0  0  0
  -22.6237  -17.7342   19.4089 N   0  0  0  0  0  0  0  0  0  0  0  0
  -29.7943  -27.0333   23.6814 N   0  0  0  0  0  0  0  0  0  0  0  0
  -21.0772  -20.4788   21.1818 N   0  3  0  0  0  0  0  0  0  0  0  0
  -22.9627  -24.2356   19.2769 O   0  0  0  0  0  0  0  0  0  0  0  0
  -28.1223  -16.6272   18.4665 O   0  0  0  0  0  0  0  0  0  0  0  0
  -29.5088  -28.3963   17.8809 O   0  0  0  0  0  0  0  0  0  0  0  0
  -24.4901  -15.7169   20.2187 O   0  0  0  0  0  0  0  0  0  0  0  0
  -22.8504  -20.0135   19.0474 O   0  0  0  0  0  0  0  0  0  0  0  0
  -31.1346  -25.4418   24.6445 O   0  0  0  0  0  0  0  0  0  0  0  0
  -19.0728  -27.6746   25.0759 O   0  0  0  0  0  0  0  0  0  0  0  0
  -29.1100  -22.6778   18.7830 O   0  0  0  0  0  0  0  0  0  1  0  0
  -16.2752  -31.3686   22.0874 F   0  0  0  0  0  0  0  0  0  0  0  0
  -17.9389  -26.9735   22.6540 F   0  0  0  0  0  0  0  0  0  0  0  0
  -33.3000  -27.5873   20.3294 S   0  0  0  0  0  0  0  0  0  0  0  0
  1  2  1  0  0  0  0
  1  5  2  0  0  0  0
  2  6  2  0  0  0  0
  3  8  2  0  0  0  0
  3 16  1  0  0  0  0
  4  9  1  0  0  0  0
  4 16  2  0  0  0  0
  5 18  1  0  0  0  0
  6 20  1  0  0  0  0
  7 10  2  0  0  0  0
  7 19  1  0  0  0  0
  8 22  1  0  0  0  0
  9 22  2  0  0  0  0
 10 23  1  0  0  0  0
 11 12  2  0  0  0  0
 11 24  1  0  0  0  0
 12 25  1  0  0  0  0
 13 21  1  0  0  0  0
 13 23  2  0  0  0  0
 14 25  2  0  0  0  0
 14 26  1  0  0  0  0
 15 28  2  0  0  0  0
 15 87  1  0  0  0  0
 16 27  1  0  0  0  0
 17 27  1  0  0  0  0
 17 29  2  0  0  0  0
 17 31  1  0  0  0  0
 18 20  2  0  0  0  0
 18 37  1  0  0  0  0
 19 21  2  0  0  0  0
 19 38  1  0  0  0  0
 20 46  1  0  0  0  0
 21 39  1  0  0  0  0
 22 83  1  0  0  0  0
 23 84  1  0  0  0  0
 24 26  2  0  0  0  0
 24 83  1  0  0  0  0
 25 85  1  0  0  0  0
 26 86  1  0  0  0  0
 27 65  2  0  0  0  0
 28 56  1  0  0  0  0
 28 66  1  0  0  0  0
 29 67  1  0  0  0  0
 29 70  1  0  0  0  0
 30 66  2  0  0  0  0
 30 72  1  0  0  0  0
 30 87  1  0  0  0  0
 31 71  1  0  0  0  0
 31 77  2  0  0  0  0
 32 47  1  0  0  0  0
 32 73  1  0  0  0  0
 32 78  2  0  0  0  0
 33 57  1  0  0  0  0
 33 60  1  0  0  0  0
 33 79  2  0  0  0  0
 34 61  1  0  0  0  0
 34 68  1  0  0  0  0
 34 80  2  0  0  0  0
 35 62  1  0  0  0  0
 35 74  1  0  0  0  0
 35 81  2  0  0  0  0
 36 69  1  0  0  0  0
 36 75  1  0  0  0  0
 36 82  2  0  0  0  0
 37 40  1  0  0  0  0
 38 47  1  0  0  0  0
 39 68  1  0  0  0  0
 40 42  1  0  0  0  0
 41 43  1  0  0  0  0
 41 44  1  0  0  0  0
 42 46  1  0  0  0  0
 43 48  1  0  0  0  0
 44 69  1  0  0  0  0
 45 48  1  0  0  0  0
 45 69  1  0  0  0  0
 46 73  1  0  0  0  0
 47 68  1  0  0  0  0
 48 67  1  0  0  0  0
 49 57  1  0  0  0  0
 50 62  1  0  0  0  0
 51 63  1  0  0  0  0
 52 64  1  0  0  0  0
 53 64  1  0  0  0  0
 54 64  1  0  0  0  0
 55 76  1  0  0  0  0
 56 75  1  0  0  0  0
 58 59  1  0  0  0  0
 58 63  1  0  0  0  0
 59 84  1  0  0  0  0
 60 63  1  0  0  0  0
 60 72  1  0  0  0  0
 61 64  1  0  0  0  0
 61 74  1  0  0  0  0
 62 76  1  0  0  0  0
 65 67  1  0  0  0  0
M  CHG  1  76   1
M  ISO  4  36 100  59 101  75 100  84 101
M  END
> <Batch ID>
0192

> <Smiles>
CCC(=O)C(Nc1nc(C[100NH:0][100C:0](=O)N2CCCC(n3nc(-c4ccc(Oc5ccc(F)cc5F)cc4)c(C(N)=O)c3N)C2)cs1)C(C)C[101CH2:1][101O:1]c1ccc2c(c1)CN(C(=O)C(NC(=O)C(C)NC)C(C)(C)C)C(C(=O)NC1CCCc3ccccc31)C2

> <Shape>
0.194

> <Color>
0.054

> <Negative vol penalty>
0.000

$$$$

  -OEChem-04052305273D

 84 92  0     1  0  0  0  0  0999 V2000
  -19.1568  -28.0824   23.0868 C   0  0  0  0  0  0  0  0  0  0  0  0
  -20.5222  -27.8738   22.9214 C   0  0  0  0  0  0  0  0  0  0  0  0
  -25.2376  -13.5772   22.2163 C   0  0  0  0  0  0  0  0  0  0  0  0
  -26.2761  -13.8587   20.0531 C   0  0  0  0  0  0  0  0  0  0  0  0
  -18.2577  -27.0510   22.8188 C   0  0  0  0  0  0  0  0  0  0  0  0
  -20.9895  -26.6332   22.4890 C   0  0  0  0  0  0  0  0  0  0  0  0
  -24.5387  -27.0376   18.8995 C   0  0  0  0  0  0  0  0  0  0  0  0
  -24.3120  -12.6961   21.6573 C   0  0  0  0  0  0  0  0  0  0  0  0
  -25.3505  -12.9775   19.4941 C   0  0  0  0  0  0  0  0  0  0  0  0
  -25.8277  -27.3708   19.3132 C   0  0  0  0  0  0  0  0  0  0  0  0
  -21.8990  -10.0934   20.8708 C   0  0  0  0  0  0  0  0  0  0  0  0
  -21.6269   -8.9135   21.5631 C   0  0  0  0  0  0  0  0  0  0  0  0
  -26.4686  -25.0499   19.1656 C   0  0  0  0  0  0  0  0  0  0  0  0
  -23.9504   -8.2748   21.3880 C   0  0  0  0  0  0  0  0  0  0  0  0
  -26.2196  -14.1586   21.4141 C   0  0  0  0  0  0  0  0  0  0  0  0
  -28.4270  -14.7469   22.5494 C   0  0  0  0  0  0  0  0  0  0  0  0
  -18.7135  -25.8001   22.3736 C   0  0  0  0  0  0  0  0  0  0  0  0
  -24.2014  -25.7043   18.6257 C   0  0  0  0  0  0  0  0  0  0  0  0
  -20.0958  -25.5837   22.2161 C   0  0  0  0  0  0  0  0  0  0  0  0
  -25.1753  -24.7027   18.7461 C   0  0  0  0  0  0  0  0  0  0  0  0
  -24.3685  -12.3962   20.2962 C   0  0  0  0  0  0  0  0  0  0  0  0
  -26.7921  -26.3766   19.4492 C   0  0  0  0  0  0  0  0  0  0  0  0
  -23.1969  -10.3640   20.4370 C   0  0  0  0  0  0  0  0  0  0  0  0
  -22.6526   -8.0042   21.8217 C   0  0  0  0  0  0  0  0  0  0  0  0
  -24.2225   -9.4548   20.6956 C   0  0  0  0  0  0  0  0  0  0  0  0
  -27.1757  -15.0693   21.9909 C   0  0  0  0  0  0  0  0  0  0  0  0
  -30.1492  -23.3420   17.7257 C   0  0  0  0  0  0  0  0  0  0  0  0
  -28.9438  -15.9536   22.9536 C   0  0  0  0  0  0  0  0  0  0  0  0
  -30.3926  -22.2618   16.9035 C   0  0  0  0  0  0  0  0  0  0  0  0
  -29.2333  -21.7763   18.9585 C   0  0  0  0  0  0  0  0  0  0  0  0
  -29.0653  -13.4708   22.6903 C   0  0  0  0  0  0  0  0  0  0  0  0
  -30.5510  -24.7389   17.4189 C   0  0  0  0  0  0  0  0  0  0  0  0
  -22.1332  -23.6188   19.8410 C   0  0  0  0  0  0  0  0  0  0  0  0
  -23.1368  -21.7745   17.3684 C   0  0  0  0  0  0  0  0  0  0  0  0
  -25.5790  -21.0541   15.0961 C   0  0  0  0  0  0  0  0  0  0  0  0
  -28.0408  -21.5844   21.1692 C   0  0  0  0  0  0  0  0  0  0  0  0
  -17.7070  -24.7010   22.1421 C   0  0  0  0  0  0  0  0  0  0  0  0
  -22.8139  -25.3649   18.1546 C   0  0  0  0  0  0  0  0  0  0  0  0
  -24.8696  -23.2590   18.4449 C   0  0  0  0  0  0  0  0  0  0  0  0
  -18.2574  -23.5326   21.3283 C   0  0  0  0  0  0  0  0  0  0  0  0
  -27.5873  -20.2936   24.4564 C   0  0  0  0  0  0  0  0  0  0  0  0
  -19.6274  -23.1149   21.8532 C   0  0  0  0  0  0  0  0  0  0  0  0
  -27.5503  -18.7778   24.2487 C   0  0  0  0  0  0  0  0  0  0  0  0
  -26.9049  -21.0397   23.3112 C   0  0  0  0  0  0  0  0  0  0  0  0
  -27.3523  -19.1779   21.7612 C   0  0  0  0  0  0  0  0  0  0  0  0
  -20.6397  -24.2596   21.7250 C   0  0  1  0  0  0  0  0  0  0  0  0
  -22.4403  -23.9060   18.3984 C   0  0  1  0  0  0  0  0  0  0  0  0
  -28.0847  -18.3864   22.8571 C   0  0  2  0  0  0  0  0  0  0  0  0
  -26.1282  -19.4680   13.2306 C   0  0  0  0  0  0  0  0  0  0  0  0
  -30.7195  -27.5461   20.6987 C   0  0  0  0  0  0  0  0  0  0  0  0
  -23.7434  -19.5884   19.4087 C   0  0  0  0  0  0  0  0  0  0  0  0
  -25.1331  -18.4459   17.6676 C   0  0  0  0  0  0  0  0  0  0  0  0
  -22.6893  -18.7758   17.2915 C   0  0  0  0  0  0  0  0  0  0  0  0
  -25.7649  -23.2539   13.1251 C   0  0  0  0  0  0  0  0  0  0  0  0
  -30.5170  -27.0911   18.2076 C   0  0  0  0  0  0  0  0  0  0  0  0
  -28.5323  -27.9966   19.5060 C   0  0  0  0  0  0  0  0  0  1  0  0
  -24.2425  -20.7668   17.1663 C   0  0  1  0  0  0  0  0  0  0  0  0
  -25.5221  -20.8135   13.5984 C   0  0  2  0  0  0  0  0  0  0  0  0
  -30.0603  -27.9682   19.3812 C   0  0  1  0  0  0  0  0  0  0  0  0
  -23.9576  -19.4211   17.8911 C   0  0  0  0  0  0  0  0  0  0  0  0
  -26.9133  -16.3782   22.0347 N   0  0  0  0  0  0  0  0  0  0  0  0
  -29.4842  -23.0656   18.9044 N   0  0  0  0  0  0  0  0  0  0  0  0
  -28.0069  -16.8889   22.6257 N   0  0  0  0  0  0  0  0  0  0  0  0
  -23.4970  -22.9767   17.9936 N   0  0  0  0  0  0  0  0  0  0  0  0
  -27.4653  -20.6211   22.0246 N   0  0  0  0  0  0  0  0  0  0  0  0
  -30.1036  -16.2952   23.5540 N   0  0  0  0  0  0  0  0  0  0  0  0
  -31.0183  -22.2456   15.7009 N   0  0  0  0  0  0  0  0  0  0  0  0
  -28.3947  -12.3330   22.2211 N   0  0  0  0  0  0  0  0  0  0  0  0
  -28.5702  -21.0643   19.9886 N   0  0  0  0  0  0  0  0  0  0  0  0
  -30.2178  -25.6943   18.3716 N   0  0  0  0  0  0  0  0  0  0  0  0
  -21.0998  -24.3767   20.3579 N   0  0  0  0  0  0  0  0  0  0  0  0
  -24.4226  -20.6421   15.7239 N   0  0  0  0  0  0  0  0  0  0  0  0
  -26.2699  -21.8796   12.8737 N   0  3  0  0  0  0  0  0  0  0  0  0
  -30.1895  -13.3413   23.2314 O   0  0  0  0  0  0  0  0  0  0  0  0
  -31.1234  -24.9796   16.3592 O   0  0  0  0  0  0  0  0  0  0  0  0
  -22.7846  -22.7713   20.4402 O   0  0  0  0  0  0  0  0  0  0  0  0
  -21.9970  -21.5079   16.9792 O   0  0  0  0  0  0  0  0  0  0  0  0
  -26.5536  -21.5538   15.6540 O   0  0  0  0  0  0  0  0  0  0  0  0
  -28.0867  -22.7788   21.4748 O   0  0  0  0  0  0  0  0  0  0  0  0
  -23.4656  -11.5362   19.7505 O   0  0  0  0  0  0  0  0  0  0  0  0
  -28.0508  -26.6990   19.8535 O   0  0  0  0  0  0  0  0  0  1  0  0
  -22.3914   -6.8719   22.4879 F   0  0  0  0  0  0  0  0  0  0  0  0
  -25.4715   -9.7098   20.2824 F   0  0  0  0  0  0  0  0  0  0  0  0
  -29.7695  -20.8368   17.6263 S   0  0  0  0  0  0  0  0  0  0  0  0
  1  2  1  0  0  0  0
  1  5  2  0  0  0  0
  2  6  2  0  0  0  0
  3  8  2  0  0  0  0
  3 15  1  0  0  0  0
  4  9  1  0  0  0  0
  4 15  2  0  0  0  0
  5 17  1  0  0  0  0
  6 19  1  0  0  0  0
  7 10  2  0  0  0  0
  7 18  1  0  0  0  0
  8 21  1  0  0  0  0
  9 21  2  0  0  0  0
 10 22  1  0  0  0  0
 11 12  2  0  0  0  0
 11 23  1  0  0  0  0
 12 24  1  0  0  0  0
 13 20  1  0  0  0  0
 13 22  2  0  0  0  0
 14 24  2  0  0  0  0
 14 25  1  0  0  0  0
 15 26  1  0  0  0  0
 16 26  1  0  0  0  0
 16 28  2  0  0  0  0
 16 31  1  0  0  0  0
 17 19  2  0  0  0  0
 17 37  1  0  0  0  0
 18 20  2  0  0  0  0
 18 38  1  0  0  0  0
 19 46  1  0  0  0  0
 20 39  1  0  0  0  0
 21 80  1  0  0  0  0
 22 81  1  0  0  0  0
 23 25  2  0  0  0  0
 23 80  1  0  0  0  0
 24 82  1  0  0  0  0
 25 83  1  0  0  0  0
 26 61  2  0  0  0  0
 27 29  2  0  0  0  0
 27 32  1  0  0  0  0
 27 62  1  0  0  0  0
 28 63  1  0  0  0  0
 28 66  1  0  0  0  0
 29 67  1  0  0  0  0
 29 84  1  0  0  0  0
 30 62  2  0  0  0  0
 30 69  1  0  0  0  0
 30 84  1  0  0  0  0
 31 68  1  0  0  0  0
 31 74  2  0  0  0  0
 32 70  1  0  0  0  0
 32 75  2  0  0  0  0
 33 47  1  0  0  0  0
 33 71  1  0  0  0  0
 33 76  2  0  0  0  0
 34 57  1  0  0  0  0
 34 64  1  0  0  0  0
 34 77  2  0  0  0  0
 35 58  1  0  0  0  0
 35 72  1  0  0  0  0
 35 78  2  0  0  0  0
 36 65  1  0  0  0  0
 36 69  1  0  0  0  0
 36 79  2  0  0  0  0
 37 40  1  0  0  0  0
 38 47  1  0  0  0  0
 39 64  1  0  0  0  0
 40 42  1  0  0  0  0
 41 43  1  0  0  0  0
 41 44  1  0  0  0  0
 42 46  1  0  0  0  0
 43 48  1  0  0  0  0
 44 65  1  0  0  0  0
 45 48  1  0  0  0  0
 45 65  1  0  0  0  0
 46 71  1  0  0  0  0
 47 64  1  0  0  0  0
 48 63  1  0  0  0  0
 49 58  1  0  0  0  0
 50 59  1  0  0  0  0
 51 60  1  0  0  0  0
 52 60  1  0  0  0  0
 53 60  1  0  0  0  0
 54 73  1  0  0  0  0
 55 59  1  0  0  0  0
 55 70  1  0  0  0  0
 56 59  1  0  0  0  0
 56 81  1  0  0  0  0
 57 60  1  0  0  0  0
 57 72  1  0  0  0  0
 58 73  1  0  0  0  0
 61 63  1  0  0  0  0
M  CHG  1  73   1
M  ISO  4  36 100  56 101  69 100  81 101
M  END
> <Batch ID>
0192

> <Smiles>
CNC(C)C(=O)NC(C(=O)N1Cc2cc([101O:1][101CH2:1]C(C)CNC(=O)c3nc([100NH:0][100C:0](=O)N4CCCC(n5nc(-c6ccc(Oc7ccc(F)cc7F)cc6)c(C(N)=O)c5N)C4)sc3N)ccc2CC1C(=O)NC1CCCc2ccccc21)C(C)(C)C

> <Shape>
0.216

> <Color>
0.066

> <Negative vol penalty>
0.000

$$$$

  -OEChem-04052305273D

 83 91  0     1  0  0  0  0  0999 V2000
  -28.5422  -24.7679   16.7792 C   0  0  0  0  0  0  0  0  0  0  0  0
  -27.3616  -25.3997   17.1531 C   0  0  0  0  0  0  0  0  0  0  0  0
  -26.0967  -14.2402   24.0112 C   0  0  0  0  0  0  0  0  0  0  0  0
  -24.7836  -16.1283   24.7514 C   0  0  0  0  0  0  0  0  0  0  0  0
  -29.6784  -24.8945   17.5756 C   0  0  0  0  0  0  0  0  0  0  0  0
  -27.3199  -26.1680   18.3172 C   0  0  0  0  0  0  0  0  0  0  0  0
  -23.2037  -28.7273   19.1597 C   0  0  0  0  0  0  0  0  0  0  0  0
  -26.1507  -13.7641   25.3212 C   0  0  0  0  0  0  0  0  0  0  0  0
  -24.8376  -15.6522   26.0614 C   0  0  0  0  0  0  0  0  0  0  0  0
  -22.0055  -28.1241   19.5394 C   0  0  0  0  0  0  0  0  0  0  0  0
  -27.8836  -14.4338   28.1448 C   0  0  0  0  0  0  0  0  0  0  0  0
  -29.1162  -13.9873   28.6211 C   0  0  0  0  0  0  0  0  0  0  0  0
  -22.3660  -28.8516   21.8110 C   0  0  0  0  0  0  0  0  0  0  0  0
  -28.1743  -11.7957   29.0045 C   0  0  0  0  0  0  0  0  0  0  0  0
  -24.0700  -24.2150   22.8258 C   0  0  0  0  0  0  0  0  0  0  0  0
  -25.4132  -15.4223   23.7263 C   0  0  0  0  0  0  0  0  0  0  0  0
  -24.3840  -15.6194   21.4005 C   0  0  0  0  0  0  0  0  0  0  0  0
  -29.6464  -25.6546   18.7563 C   0  0  0  0  0  0  0  0  0  0  0  0
  -23.9988  -29.3890   20.1066 C   0  0  0  0  0  0  0  0  0  0  0  0
  -28.4627  -26.3274   19.1217 C   0  0  0  0  0  0  0  0  0  0  0  0
  -23.5726  -29.4646   21.4403 C   0  0  0  0  0  0  0  0  0  0  0  0
  -25.5211  -14.4701   26.3463 C   0  0  0  0  0  0  0  0  0  0  0  0
  -21.5879  -28.1837   20.8657 C   0  0  0  0  0  0  0  0  0  0  0  0
  -26.7962  -13.5612   28.0985 C   0  0  0  0  0  0  0  0  0  0  0  0
  -29.2616  -12.6683   29.0509 C   0  0  0  0  0  0  0  0  0  0  0  0
  -26.9416  -12.2422   28.5282 C   0  0  0  0  0  0  0  0  0  0  0  0
  -25.3576  -15.9149   22.3734 C   0  0  0  0  0  0  0  0  0  0  0  0
  -23.5411  -24.2653   21.5531 C   0  0  0  0  0  0  0  0  0  0  0  0
  -24.7789  -16.3293   20.2929 C   0  0  0  0  0  0  0  0  0  0  0  0
  -25.5851  -23.6604   21.0372 C   0  0  0  0  0  0  0  0  0  0  0  0
  -23.2261  -14.7786   21.4899 C   0  0  0  0  0  0  0  0  0  0  0  0
  -26.9431  -28.9892   21.2357 C   0  0  0  0  0  0  0  0  0  0  0  0
  -26.3136  -31.7764   22.7712 C   0  0  0  0  0  0  0  0  0  0  0  0
  -21.2045  -24.9573   22.1901 C   0  0  0  0  0  0  0  0  0  0  0  0
  -23.9829  -33.9319   24.0235 C   0  0  0  0  0  0  0  0  0  0  0  0
  -28.0821  -21.2724   19.5823 C   0  0  0  0  0  0  0  0  0  0  0  0
  -30.9074  -25.7644   19.5768 C   0  0  0  0  0  0  0  0  0  0  0  0
  -25.2754  -30.0576   19.6758 C   0  0  0  0  0  0  0  0  0  0  0  0
  -24.3797  -30.1803   22.4913 C   0  0  0  0  0  0  0  0  0  0  0  0
  -30.6477  -26.2257   21.0072 C   0  0  0  0  0  0  0  0  0  0  0  0
  -28.6923  -18.0668   18.1582 C   0  0  0  0  0  0  0  0  0  0  0  0
  -29.7598  -27.4611   21.0018 C   0  0  0  0  0  0  0  0  0  0  0  0
  -27.8190  -17.1251   18.9892 C   0  0  0  0  0  0  0  0  0  0  0  0
  -29.2873  -19.1848   19.0115 C   0  0  0  0  0  0  0  0  0  0  0  0
  -27.4303  -19.0167   20.6231 C   0  0  0  0  0  0  0  0  0  0  0  0
  -28.3854  -27.1432   20.3996 C   0  0  1  0  0  0  0  0  0  0  0  0
  -26.2596  -30.2622   20.8234 C   0  0  1  0  0  0  0  0  0  0  0  0
  -26.7630  -17.9050   19.7954 C   0  0  2  0  0  0  0  0  0  0  0  0
  -23.7730  -36.1073   25.2568 C   0  0  0  0  0  0  0  0  0  0  0  0
  -18.6668  -26.7438   19.8446 C   0  0  0  0  0  0  0  0  0  0  0  0
  -27.0920  -30.3764   25.3681 C   0  0  0  0  0  0  0  0  0  0  0  0
  -25.9778  -32.2348   26.6224 C   0  0  0  0  0  0  0  0  0  0  0  0
  -27.9348  -32.7212   25.1539 C   0  0  0  0  0  0  0  0  0  0  0  0
  -22.5093  -35.1910   21.7870 C   0  0  0  0  0  0  0  0  0  0  0  0
  -26.7711  -23.2736   20.2425 C   0  0  0  0  0  0  0  0  0  0  0  0
  -19.8966  -25.2628   21.4665 C   0  0  0  0  0  0  0  0  0  0  0  0
  -25.7076  -32.1504   24.1023 C   0  0  1  0  0  0  0  0  0  0  0  0
  -23.8294  -35.4365   23.8931 C   0  0  2  0  0  0  0  0  0  0  0  0
  -20.0071  -26.4443   20.5028 C   0  0  2  0  0  0  0  0  0  1  0  0
  -26.6635  -31.8555   25.2925 C   0  0  0  0  0  0  0  0  0  0  0  0
  -26.3002  -16.7474   21.9234 N   0  0  0  0  0  0  0  0  0  0  0  0
  -24.4086  -23.9480   20.5261 N   0  0  0  0  0  0  0  0  0  0  0  0
  -25.9207  -16.9811   20.6555 N   0  0  0  0  0  0  0  0  0  0  0  0
  -25.6236  -30.8128   22.0220 N   0  0  0  0  0  0  0  0  0  0  0  0
  -28.2334  -19.8860   19.7489 N   0  0  0  0  0  0  0  0  0  0  0  0
  -24.2573  -16.4532   19.0540 N   0  0  0  0  0  0  0  0  0  0  0  0
  -22.9683  -14.1233   22.7017 N   0  0  0  0  0  0  0  0  0  0  0  0
  -22.1978  -24.6140   21.2766 N   0  0  0  0  0  0  0  0  0  0  0  0
  -27.6520  -28.3767   20.2199 N   0  0  0  0  0  0  0  0  0  0  0  0
  -25.3070  -33.5487   23.9899 N   0  0  0  0  0  0  0  0  0  0  0  0
  -27.0553  -21.8576   20.3131 N   0  0  0  0  0  0  0  0  0  0  0  0
  -22.5781  -35.7674   23.1544 N   0  3  0  0  0  0  0  0  0  0  0  0
  -22.4524  -14.6003   20.5188 O   0  0  0  0  0  0  0  0  0  0  0  0
  -26.8366  -28.5928   22.3903 O   0  0  0  0  0  0  0  0  0  0  0  0
  -27.3568  -32.3243   22.4063 O   0  0  0  0  0  0  0  0  0  0  0  0
  -21.3069  -25.0224   23.4105 O   0  0  0  0  0  0  0  0  0  0  0  0
  -23.0242  -33.1727   24.1469 O   0  0  0  0  0  0  0  0  0  0  0  0
  -28.8049  -21.9386   18.8335 O   0  0  0  0  0  0  0  0  0  0  0  0
  -25.5733  -14.0058   27.6246 O   0  0  0  0  0  0  0  0  0  0  0  0
  -20.4191  -27.5951   21.2391 O   0  0  0  0  0  0  0  0  0  1  0  0
  -30.4458  -12.2393   29.5068 F   0  0  0  0  0  0  0  0  0  0  0  0
  -25.9010  -11.3990   28.4849 F   0  0  0  0  0  0  0  0  0  0  0  0
  -25.7191  -23.7508   22.7456 S   0  0  0  0  0  0  0  0  0  0  0  0
  1  2  1  0  0  0  0
  1  5  2  0  0  0  0
  2  6  2  0  0  0  0
  3  8  2  0  0  0  0
  3 16  1  0  0  0  0
  4  9  1  0  0  0  0
  4 16  2  0  0  0  0
  5 18  1  0  0  0  0
  6 20  1  0  0  0  0
  7 10  2  0  0  0  0
  7 19  1  0  0  0  0
  8 22  1  0  0  0  0
  9 22  2  0  0  0  0
 10 23  1  0  0  0  0
 11 12  2  0  0  0  0
 11 24  1  0  0  0  0
 12 25  1  0  0  0  0
 13 21  1  0  0  0  0
 13 23  2  0  0  0  0
 14 25  2  0  0  0  0
 14 26  1  0  0  0  0
 15 28  2  0  0  0  0
 15 83  1  0  0  0  0
 16 27  1  0  0  0  0
 17 27  1  0  0  0  0
 17 29  2  0  0  0  0
 17 31  1  0  0  0  0
 18 20  2  0  0  0  0
 18 37  1  0  0  0  0
 19 21  2  0  0  0  0
 19 38  1  0  0  0  0
 20 46  1  0  0  0  0
 21 39  1  0  0  0  0
 22 79  1  0  0  0  0
 23 80  1  0  0  0  0
 24 26  2  0  0  0  0
 24 79  1  0  0  0  0
 25 81  1  0  0  0  0
 26 82  1  0  0  0  0
 27 61  2  0  0  0  0
 28 62  1  0  0  0  0
 28 68  1  0  0  0  0
 29 63  1  0  0  0  0
 29 66  1  0  0  0  0
 30 55  1  0  0  0  0
 30 62  2  0  0  0  0
 30 83  1  0  0  0  0
 31 67  1  0  0  0  0
 31 73  2  0  0  0  0
 32 47  1  0  0  0  0
 32 69  1  0  0  0  0
 32 74  2  0  0  0  0
 33 57  1  0  0  0  0
 33 64  1  0  0  0  0
 33 75  2  0  0  0  0
 34 56  1  0  0  0  0
 34 68  1  0  0  0  0
 34 76  2  0  0  0  0
 35 58  1  0  0  0  0
 35 70  1  0  0  0  0
 35 77  2  0  0  0  0
 36 65  1  0  0  0  0
 36 71  1  0  0  0  0
 36 78  2  0  0  0  0
 37 40  1  0  0  0  0
 38 47  1  0  0  0  0
 39 64  1  0  0  0  0
 40 42  1  0  0  0  0
 41 43  1  0  0  0  0
 41 44  1  0  0  0  0
 42 46  1  0  0  0  0
 43 48  1  0  0  0  0
 44 65  1  0  0  0  0
 45 48  1  0  0  0  0
 45 65  1  0  0  0  0
 46 69  1  0  0  0  0
 47 64  1  0  0  0  0
 48 63  1  0  0  0  0
 49 58  1  0  0  0  0
 50 59  1  0  0  0  0
 51 60  1  0  0  0  0
 52 60  1  0  0  0  0
 53 60  1  0  0  0  0
 54 72  1  0  0  0  0
 55 71  1  0  0  0  0
 56 59  1  0  0  0  0
 57 60  1  0  0  0  0
 57 70  1  0  0  0  0
 58 72  1  0  0  0  0
 59 80  1  0  0  0  0
 61 63  1  0  0  0  0
M  CHG  1  72   1
M  ISO  4  36 100  59 101  71 100  80 101
M  END
> <Batch ID>
0192

> <Smiles>
CNC(C)C(=O)NC(C(=O)N1Cc2cc([101O:1][101CH:1](C)CC(=O)Nc3csc(C[100NH:0][100C:0](=O)N4CCCC(n5nc(-c6ccc(Oc7ccc(F)cc7F)cc6)c(C(N)=O)c5N)C4)n3)ccc2CC1C(=O)NC1CCCc2ccccc21)C(C)(C)C

> <Shape>
0.251

> <Color>
0.078

> <Negative vol penalty>
0.000

$$$$

  -OEChem-04052305273D

 84 92  0     1  0  0  0  0  0999 V2000
  -26.9789  -19.4696   18.6857 C   0  0  0  0  0  0  0  0  0  0  0  0
  -27.9276  -19.3814   19.6994 C   0  0  0  0  0  0  0  0  0  0  0  0
  -22.9990   -9.8958   19.9815 C   0  0  0  0  0  0  0  0  0  0  0  0
  -23.7239   -9.9462   22.2856 C   0  0  0  0  0  0  0  0  0  0  0  0
  -26.5818  -20.7190   18.2110 C   0  0  0  0  0  0  0  0  0  0  0  0
  -28.4805  -20.5426   20.2384 C   0  0  0  0  0  0  0  0  0  0  0  0
  -28.7100  -20.4189   25.2957 C   0  0  0  0  0  0  0  0  0  0  0  0
  -22.2313   -8.7621   20.2477 C   0  0  0  0  0  0  0  0  0  0  0  0
  -22.9562   -8.8124   22.5519 C   0  0  0  0  0  0  0  0  0  0  0  0
  -29.7386  -19.6720   25.8683 C   0  0  0  0  0  0  0  0  0  0  0  0
  -23.1973   -5.4733   22.0801 C   0  0  0  0  0  0  0  0  0  0  0  0
  -23.7837   -4.4555   22.8323 C   0  0  0  0  0  0  0  0  0  0  0  0
  -30.9995  -21.6966   26.2295 C   0  0  0  0  0  0  0  0  0  0  0  0
  -22.0598   -4.7002   24.5073 C   0  0  0  0  0  0  0  0  0  0  0  0
  -31.8118  -17.5078   21.7222 C   0  0  0  0  0  0  0  0  0  0  0  0
  -23.7453  -10.4879   21.0004 C   0  0  0  0  0  0  0  0  0  0  0  0
  -24.1332  -13.0031   20.8243 C   0  0  0  0  0  0  0  0  0  0  0  0
  -27.1230  -21.8963   18.7511 C   0  0  0  0  0  0  0  0  0  0  0  0
  -28.8233  -21.8114   25.1756 C   0  0  0  0  0  0  0  0  0  0  0  0
  -28.0912  -21.8088   19.7695 C   0  0  0  0  0  0  0  0  0  0  0  0
  -29.9698  -22.4591   25.6574 C   0  0  0  0  0  0  0  0  0  0  0  0
  -22.2099   -8.2204   21.5329 C   0  0  0  0  0  0  0  0  0  0  0  0
  -30.8848  -20.3105   26.3327 C   0  0  0  0  0  0  0  0  0  0  0  0
  -22.0421   -6.1046   22.5415 C   0  0  0  0  0  0  0  0  0  0  0  0
  -23.2150   -4.0689   24.0459 C   0  0  0  0  0  0  0  0  0  0  0  0
  -21.4734   -5.7180   23.7551 C   0  0  0  0  0  0  0  0  0  0  0  0
  -24.5390  -11.6587   20.7258 C   0  0  0  0  0  0  0  0  0  0  0  0
  -31.8219  -18.7673   22.3869 C   0  0  0  0  0  0  0  0  0  0  0  0
  -25.2437  -13.7245   20.4600 C   0  0  0  0  0  0  0  0  0  0  0  0
  -30.6000  -16.8805   21.9149 C   0  0  0  0  0  0  0  0  0  0  0  0
  -22.8657  -13.5507   21.2107 C   0  0  0  0  0  0  0  0  0  0  0  0
  -28.8837  -23.8554   22.7421 C   0  0  0  0  0  0  0  0  0  0  0  0
  -28.8406  -26.0721   25.1100 C   0  0  0  0  0  0  0  0  0  0  0  0
  -29.5007  -26.8443   28.3680 C   0  0  0  0  0  0  0  0  0  0  0  0
  -30.7241  -14.6801   20.6947 C   0  0  0  0  0  0  0  0  0  0  0  0
  -26.6974  -23.2227   18.1729 C   0  0  0  0  0  0  0  0  0  0  0  0
  -27.6934  -22.6056   24.5798 C   0  0  0  0  0  0  0  0  0  0  0  0
  -30.1318  -23.9540   25.5703 C   0  0  0  0  0  0  0  0  0  0  0  0
  -27.0554  -24.4151   19.0562 C   0  0  0  0  0  0  0  0  0  0  0  0
  -29.6036  -12.2284   18.3686 C   0  0  0  0  0  0  0  0  0  0  0  0
  -28.4966  -24.3049   19.5436 C   0  0  0  0  0  0  0  0  0  0  0  0
  -28.1527  -11.9722   18.7826 C   0  0  0  0  0  0  0  0  0  0  0  0
  -30.5042  -12.4708   19.5785 C   0  0  0  0  0  0  0  0  0  0  0  0
  -28.5895  -13.2616   20.9118 C   0  0  0  0  0  0  0  0  0  0  0  0
  -28.6957  -23.0463   20.3967 C   0  0  1  0  0  0  0  0  0  0  0  0
  -28.1359  -23.9625   24.0409 C   0  0  1  0  0  0  0  0  0  0  0  0
  -27.6318  -13.0763   19.7235 C   0  0  2  0  0  0  0  0  0  0  0  0
  -32.6247  -21.0956   21.8149 C   0  0  0  0  0  0  0  0  0  0  0  0
  -29.3960  -28.7461   30.0019 C   0  0  0  0  0  0  0  0  0  0  0  0
  -34.4870  -17.6977   23.9172 C   0  0  0  0  0  0  0  0  0  0  0  0
  -33.7822  -20.3831   28.1340 C   0  0  0  0  0  0  0  0  0  0  0  0
  -31.3210  -27.3049   23.8304 C   0  0  0  0  0  0  0  0  0  0  0  0
  -31.7136  -28.5566   25.9628 C   0  0  0  0  0  0  0  0  0  0  0  0
  -29.6346  -28.9621   24.6454 C   0  0  0  0  0  0  0  0  0  0  0  0
  -27.6167  -25.3852   30.1231 C   0  0  0  0  0  0  0  0  0  0  0  0
  -34.0758  -19.0613   26.0070 C   0  0  0  0  0  0  0  0  0  0  0  0
  -32.9866  -19.7303   22.3940 C   0  0  1  0  0  0  0  0  0  0  0  0
  -29.8918  -26.7931   25.9187 C   0  0  1  0  0  0  0  0  0  0  0  0
  -28.6662  -27.5422   29.4268 C   0  0  2  0  0  0  0  0  0  0  0  0
  -33.5769  -18.7128   24.5974 C   0  0  1  0  0  0  0  0  0  0  0  0
  -33.2161  -20.0928   26.7494 C   0  0  1  0  0  0  0  0  0  1  0  0
  -30.6383  -27.8758   25.0893 C   0  0  0  0  0  0  0  0  0  0  0  0
  -25.8082  -11.5309   20.3298 N   0  0  0  0  0  0  0  0  0  0  0  0
  -30.7211  -19.1156   23.0489 N   0  0  0  0  0  0  0  0  0  0  0  0
  -26.2095  -12.8043   20.1762 N   0  0  0  0  0  0  0  0  0  0  0  0
  -29.0022  -24.6860   24.9739 N   0  0  0  0  0  0  0  0  0  0  0  0
  -29.9502  -13.5323   20.4217 N   0  0  0  0  0  0  0  0  0  0  0  0
  -25.4785  -15.0500   20.3580 N   0  0  0  0  0  0  0  0  0  0  0  0
  -21.8330  -12.6676   21.5541 N   0  0  0  0  0  0  0  0  0  0  0  0
  -30.0807  -15.6359   21.4802 N   0  0  0  0  0  0  0  0  0  0  0  0
  -28.1665  -23.2494   21.7283 N   0  0  0  0  0  0  0  0  0  0  0  0
  -29.2131  -27.3097   27.1023 N   0  0  0  0  0  0  0  0  0  0  0  0
  -28.3551  -26.6043   30.5424 N   0  3  0  0  0  0  0  0  0  0  0  0
  -33.5491  -19.9398   23.7532 N   0  3  0  0  0  0  0  0  0  0  0  0
  -22.6502  -14.7863   21.2344 O   0  0  0  0  0  0  0  0  0  0  0  0
  -30.0262  -24.2918   22.6649 O   0  0  0  0  0  0  0  0  0  0  0  0
  -27.9064  -26.7140   24.6231 O   0  0  0  0  0  0  0  0  0  0  0  0
  -30.3279  -25.9761   28.6372 O   0  0  0  0  0  0  0  0  0  0  0  0
  -31.8630  -14.8179   20.2408 O   0  0  0  0  0  0  0  0  0  0  0  0
  -21.4607   -7.1143   21.7932 O   0  0  0  0  0  0  0  0  0  0  0  0
  -31.8906  -19.5838   26.8915 O   0  0  0  0  0  0  0  0  0  1  0  0
  -23.7774   -3.0905   24.7674 F   0  0  0  0  0  0  0  0  0  0  0  0
  -20.3631   -6.3200   24.2030 F   0  0  0  0  0  0  0  0  0  0  0  0
  -29.6101  -17.8911   22.8806 S   0  0  0  0  0  0  0  0  0  0  0  0
  1  2  1  0  0  0  0
  1  5  2  0  0  0  0
  2  6  2  0  0  0  0
  3  8  2  0  0  0  0
  3 16  1  0  0  0  0
  4  9  1  0  0  0  0
  4 16  2  0  0  0  0
  5 18  1  0  0  0  0
  6 20  1  0  0  0  0
  7 10  2  0  0  0  0
  7 19  1  0  0  0  0
  8 22  1  0  0  0  0
  9 22  2  0  0  0  0
 10 23  1  0  0  0  0
 11 12  2  0  0  0  0
 11 24  1  0  0  0  0
 12 25  1  0  0  0  0
 13 21  1  0  0  0  0
 13 23  2  0  0  0  0
 14 25  2  0  0  0  0
 14 26  1  0  0  0  0
 15 28  1  0  0  0  0
 15 30  2  0  0  0  0
 16 27  1  0  0  0  0
 17 27  1  0  0  0  0
 17 29  2  0  0  0  0
 17 31  1  0  0  0  0
 18 20  2  0  0  0  0
 18 36  1  0  0  0  0
 19 21  2  0  0  0  0
 19 37  1  0  0  0  0
 20 45  1  0  0  0  0
 21 38  1  0  0  0  0
 22 80  1  0  0  0  0
 23 81  1  0  0  0  0
 24 26  2  0  0  0  0
 24 80  1  0  0  0  0
 25 82  1  0  0  0  0
 26 83  1  0  0  0  0
 27 63  2  0  0  0  0
 28 57  1  0  0  0  0
 28 64  2  0  0  0  0
 29 65  1  0  0  0  0
 29 68  1  0  0  0  0
 30 70  1  0  0  0  0
 30 84  1  0  0  0  0
 31 69  1  0  0  0  0
 31 75  2  0  0  0  0
 32 46  1  0  0  0  0
 32 71  1  0  0  0  0
 32 76  2  0  0  0  0
 33 58  1  0  0  0  0
 33 66  1  0  0  0  0
 33 77  2  0  0  0  0
 34 59  1  0  0  0  0
 34 72  1  0  0  0  0
 34 78  2  0  0  0  0
 35 67  1  0  0  0  0
 35 70  1  0  0  0  0
 35 79  2  0  0  0  0
 36 39  1  0  0  0  0
 37 46  1  0  0  0  0
 38 66  1  0  0  0  0
 39 41  1  0  0  0  0
 40 42  1  0  0  0  0
 40 43  1  0  0  0  0
 41 45  1  0  0  0  0
 42 47  1  0  0  0  0
 43 67  1  0  0  0  0
 44 47  1  0  0  0  0
 44 67  1  0  0  0  0
 45 71  1  0  0  0  0
 46 66  1  0  0  0  0
 47 65  1  0  0  0  0
 48 57  1  0  0  0  0
 49 59  1  0  0  0  0
 50 60  1  0  0  0  0
 51 61  1  0  0  0  0
 52 62  1  0  0  0  0
 53 62  1  0  0  0  0
 54 62  1  0  0  0  0
 55 73  1  0  0  0  0
 56 60  1  0  0  0  0
 56 61  1  0  0  0  0
 57 74  1  0  0  0  0
 58 62  1  0  0  0  0
 58 72  1  0  0  0  0
 59 73  1  0  0  0  0
 60 74  1  0  0  0  0
 61 81  1  0  0  0  0
 63 65  1  0  0  0  0
 64 84  1  0  0  0  0
M  CHG  2  73   1  74   1
M  ISO  4  35 100  61 101  70 100  81 101
M  END
> <Batch ID>
0192

> <Smiles>
CNC(C)C(=O)NC(C(=O)N1Cc2cc([101O:1][101CH:1](C)CC(C)NC(C)c3cc([100NH:0][100C:0](=O)N4CCCC(n5nc(-c6ccc(Oc7ccc(F)cc7F)cc6)c(C(N)=O)c5N)C4)sn3)ccc2CC1C(=O)NC1CCCc2ccccc21)C(C)(C)C

> <Shape>
0.217

> <Color>
0.193

> <Negative vol penalty>
0.000

$$$$

  -OEChem-04052305273D

 89 97  0     1  0  0  0  0  0999 V2000
  -18.8427  -28.8266   23.2787 C   0  0  0  0  0  0  0  0  0  0  0  0
  -20.2227  -28.6565   23.2354 C   0  0  0  0  0  0  0  0  0  0  0  0
  -27.5792  -17.6004   19.8309 C   0  0  0  0  0  0  0  0  0  0  0  0
  -28.9038  -17.5081   21.8493 C   0  0  0  0  0  0  0  0  0  0  0  0
  -18.0044  -27.8563   22.7312 C   0  0  0  0  0  0  0  0  0  0  0  0
  -20.7653  -27.5154   22.6456 C   0  0  0  0  0  0  0  0  0  0  0  0
  -24.6809  -28.5708   19.6126 C   0  0  0  0  0  0  0  0  0  0  0  0
  -27.3985  -16.2184   19.8862 C   0  0  0  0  0  0  0  0  0  0  0  0
  -28.7231  -16.1261   21.9047 C   0  0  0  0  0  0  0  0  0  0  0  0
  -25.9074  -28.8296   20.2230 C   0  0  0  0  0  0  0  0  0  0  0  0
  -25.4689  -14.0248   21.5886 C   0  0  0  0  0  0  0  0  0  0  0  0
  -24.1842  -13.5296   21.3655 C   0  0  0  0  0  0  0  0  0  0  0  0
  -26.6170  -26.5753   19.7395 C   0  0  0  0  0  0  0  0  0  0  0  0
  -24.9994  -12.2663   19.4744 C   0  0  0  0  0  0  0  0  0  0  0  0
  -28.3319  -18.2453   20.8124 C   0  0  0  0  0  0  0  0  0  0  0  0
  -27.7029  -20.6613   21.3367 C   0  0  0  0  0  0  0  0  0  0  0  0
  -18.5372  -26.7073   22.1258 C   0  0  0  0  0  0  0  0  0  0  0  0
  -24.4087  -27.3067   19.0698 C   0  0  0  0  0  0  0  0  0  0  0  0
  -19.9333  -26.5282   22.0907 C   0  0  0  0  0  0  0  0  0  0  0  0
  -25.3873  -26.3037   19.1205 C   0  0  0  0  0  0  0  0  0  0  0  0
  -27.9704  -15.4813   20.9232 C   0  0  0  0  0  0  0  0  0  0  0  0
  -26.8746  -27.8310   20.2891 C   0  0  0  0  0  0  0  0  0  0  0  0
  -26.5189  -13.6409   20.7544 C   0  0  0  0  0  0  0  0  0  0  0  0
  -23.9494  -12.6504   20.3085 C   0  0  0  0  0  0  0  0  0  0  0  0
  -26.2842  -12.7616   19.6974 C   0  0  0  0  0  0  0  0  0  0  0  0
  -28.5194  -19.6727   20.7554 C   0  0  0  0  0  0  0  0  0  0  0  0
  -28.3053  -21.8478   20.9966 C   0  0  0  0  0  0  0  0  0  0  0  0
  -32.2895  -26.6702   22.2330 C   0  0  0  0  0  0  0  0  0  0  0  0
  -32.9628  -28.6088   22.6143 C   0  0  0  0  0  0  0  0  0  0  0  0
  -26.5069  -20.5196   22.1146 C   0  0  0  0  0  0  0  0  0  0  0  0
  -22.2695  -25.0289   19.6520 C   0  0  0  0  0  0  0  0  0  0  0  0
  -23.5865  -23.6616   17.0217 C   0  0  0  0  0  0  0  0  0  0  0  0
  -26.2832  -23.3699   14.9507 C   0  0  0  0  0  0  0  0  0  0  0  0
  -32.8491  -25.0137   20.4193 C   0  0  0  0  0  0  0  0  0  0  0  0
  -17.5897  -25.6635   21.5897 C   0  0  0  0  0  0  0  0  0  0  0  0
  -23.0909  -27.0517   18.3911 C   0  0  0  0  0  0  0  0  0  0  0  0
  -25.1521  -24.9362   18.5349 C   0  0  0  0  0  0  0  0  0  0  0  0
  -18.2555  -24.6621   20.6494 C   0  0  0  0  0  0  0  0  0  0  0  0
  -32.0450  -22.8253   17.7284 C   0  0  0  0  0  0  0  0  0  0  0  0
  -19.5683  -24.1626   21.2442 C   0  0  0  0  0  0  0  0  0  0  0  0
  -30.9889  -21.8913   18.3238 C   0  0  0  0  0  0  0  0  0  0  0  0
  -33.1191  -23.1920   18.7509 C   0  0  0  0  0  0  0  0  0  0  0  0
  -31.5550  -22.7995   20.6133 C   0  0  0  0  0  0  0  0  0  0  0  0
  -20.5605  -25.3157   21.4375 C   0  0  1  0  0  0  0  0  0  0  0  0
  -22.7280  -25.5712   18.3279 C   0  0  1  0  0  0  0  0  0  0  0  0
  -30.4165  -22.4541   19.6396 C   0  0  2  0  0  0  0  0  0  0  0  0
  -30.2019  -31.0721   20.9488 C   0  0  0  0  0  0  0  0  0  0  0  0
  -27.0749  -22.1460   12.9079 C   0  0  0  0  0  0  0  0  0  0  0  0
  -32.6766  -29.4139   25.6963 C   0  0  0  0  0  0  0  0  0  0  0  0
  -24.0154  -21.1478   18.6970 C   0  0  0  0  0  0  0  0  0  0  0  0
  -25.6175  -20.3413   16.9503 C   0  0  0  0  0  0  0  0  0  0  0  0
  -23.2234  -20.7235   16.3631 C   0  0  0  0  0  0  0  0  0  0  0  0
  -27.0401  -30.2861   24.8240 C   0  0  0  0  0  0  0  0  0  0  0  0
  -29.0162  -30.0809   26.3336 C   0  0  0  0  0  0  0  0  0  0  0  0
  -28.2810  -28.1289   24.9845 C   0  0  0  0  0  0  0  0  0  0  0  0
  -26.6336  -25.8881   13.4358 C   0  0  0  0  0  0  0  0  0  0  0  0
  -30.5078  -29.6731   21.4716 C   0  0  0  0  0  0  0  0  0  0  0  0
  -28.0876  -29.0342   21.9433 C   0  0  0  0  0  0  0  0  0  1  0  0
  -24.7320  -22.7109   16.7711 C   0  0  1  0  0  0  0  0  0  0  0  0
  -26.3992  -23.4013   13.4374 C   0  0  2  0  0  0  0  0  0  0  0  0
  -29.5017  -29.1915   22.5479 C   0  0  2  0  0  0  0  0  0  0  0  0
  -29.4362  -30.0984   23.8229 C   0  0  1  0  0  0  0  0  0  0  0  0
  -31.5446  -29.0254   24.7431 C   0  0  2  0  0  0  0  0  0  0  0  0
  -24.4011  -21.2559   17.2082 C   0  0  0  0  0  0  0  0  0  0  0  0
  -28.4408  -29.6679   24.9590 C   0  0  0  0  0  0  0  0  0  0  0  0
  -29.5611  -20.1866   20.0959 N   0  0  0  0  0  0  0  0  0  0  0  0
  -33.1330  -27.6315   21.7544 N   0  0  0  0  0  0  0  0  0  0  0  0
  -31.6081  -26.9912   23.3348 N   0  0  0  0  0  0  0  0  0  0  0  0
  -29.4031  -21.5110   20.2606 N   0  0  0  0  0  0  0  0  0  0  0  0
  -32.0570  -28.2358   23.5578 N   0  0  0  0  0  0  0  0  0  0  0  0
  -23.8455  -24.7337   17.8874 N   0  0  0  0  0  0  0  0  0  0  0  0
  -32.5031  -23.7220   19.9693 N   0  0  0  0  0  0  0  0  0  0  0  0
  -27.9978  -23.1360   21.2582 N   0  0  0  0  0  0  0  0  0  0  0  0
  -33.5344  -29.8330   22.6605 N   0  0  0  0  0  0  0  0  0  0  0  0
  -26.0254  -19.2285   22.3706 N   0  0  0  0  0  0  0  0  0  0  0  0
  -32.1754  -25.4234   21.5695 N   0  0  0  0  0  0  0  0  0  0  0  0
  -21.1669  -25.6778   20.1743 N   0  0  0  0  0  0  0  0  0  0  0  0
  -25.0744  -22.8475   15.3595 N   0  0  0  0  0  0  0  0  0  0  0  0
  -27.1968  -24.5831   13.0035 N   0  3  0  0  0  0  0  0  0  0  0  0
  -30.8156  -30.2938   24.3695 N   0  3  0  0  0  0  0  0  0  0  0  0
  -25.8745  -21.5093   22.5553 O   0  0  0  0  0  0  0  0  0  0  0  0
  -22.8705  -24.0904   20.1613 O   0  0  0  0  0  0  0  0  0  0  0  0
  -22.5039  -23.4645   16.4642 O   0  0  0  0  0  0  0  0  0  0  0  0
  -27.1772  -23.7654   15.6956 O   0  0  0  0  0  0  0  0  0  0  0  0
  -33.6617  -25.7163   19.8125 O   0  0  0  0  0  0  0  0  0  0  0  0
  -27.7940  -14.1328   20.9777 O   0  0  0  0  0  0  0  0  0  0  0  0
  -28.0815  -28.0827   20.8894 O   0  0  0  0  0  0  0  0  0  1  0  0
  -22.7159  -12.1737   20.0953 F   0  0  0  0  0  0  0  0  0  0  0  0
  -27.2892  -12.3881   18.8934 F   0  0  0  0  0  0  0  0  0  0  0  0
  1  2  1  0  0  0  0
  1  5  2  0  0  0  0
  2  6  2  0  0  0  0
  3  8  2  0  0  0  0
  3 15  1  0  0  0  0
  4  9  1  0  0  0  0
  4 15  2  0  0  0  0
  5 17  1  0  0  0  0
  6 19  1  0  0  0  0
  7 10  2  0  0  0  0
  7 18  1  0  0  0  0
  8 21  1  0  0  0  0
  9 21  2  0  0  0  0
 10 22  1  0  0  0  0
 11 12  2  0  0  0  0
 11 23  1  0  0  0  0
 12 24  1  0  0  0  0
 13 20  1  0  0  0  0
 13 22  2  0  0  0  0
 14 24  2  0  0  0  0
 14 25  1  0  0  0  0
 15 26  1  0  0  0  0
 16 26  1  0  0  0  0
 16 27  2  0  0  0  0
 16 30  1  0  0  0  0
 17 19  2  0  0  0  0
 17 35  1  0  0  0  0
 18 20  2  0  0  0  0
 18 36  1  0  0  0  0
 19 44  1  0  0  0  0
 20 37  1  0  0  0  0
 21 86  1  0  0  0  0
 22 87  1  0  0  0  0
 23 25  2  0  0  0  0
 23 86  1  0  0  0  0
 24 88  1  0  0  0  0
 25 89  1  0  0  0  0
 26 66  2  0  0  0  0
 27 69  1  0  0  0  0
 27 73  1  0  0  0  0
 28 67  1  0  0  0  0
 28 68  2  0  0  0  0
 28 76  1  0  0  0  0
 29 67  2  0  0  0  0
 29 70  1  0  0  0  0
 29 74  1  0  0  0  0
 30 75  1  0  0  0  0
 30 81  2  0  0  0  0
 31 45  1  0  0  0  0
 31 77  1  0  0  0  0
 31 82  2  0  0  0  0
 32 59  1  0  0  0  0
 32 71  1  0  0  0  0
 32 83  2  0  0  0  0
 33 60  1  0  0  0  0
 33 78  1  0  0  0  0
 33 84  2  0  0  0  0
 34 72  1  0  0  0  0
 34 76  1  0  0  0  0
 34 85  2  0  0  0  0
 35 38  1  0  0  0  0
 36 45  1  0  0  0  0
 37 71  1  0  0  0  0
 38 40  1  0  0  0  0
 39 41  1  0  0  0  0
 39 42  1  0  0  0  0
 40 44  1  0  0  0  0
 41 46  1  0  0  0  0
 42 72  1  0  0  0  0
 43 46  1  0  0  0  0
 43 72  1  0  0  0  0
 44 77  1  0  0  0  0
 45 71  1  0  0  0  0
 46 69  1  0  0  0  0
 47 57  1  0  0  0  0
 48 60  1  0  0  0  0
 49 63  1  0  0  0  0
 50 64  1  0  0  0  0
 51 64  1  0  0  0  0
 52 64  1  0  0  0  0
 53 65  1  0  0  0  0
 54 65  1  0  0  0  0
 55 65  1  0  0  0  0
 56 79  1  0  0  0  0
 57 61  1  0  0  0  0
 58 61  1  0  0  0  0
 58 87  1  0  0  0  0
 59 64  1  0  0  0  0
 59 78  1  0  0  0  0
 60 79  1  0  0  0  0
 61 62  1  0  0  0  0
 62 65  1  0  0  0  0
 62 80  1  0  0  0  0
 63 70  1  0  0  0  0
 63 80  1  0  0  0  0
 66 69  1  0  0  0  0
 68 70  1  0  0  0  0
M  CHG  2  79   1  80   1
M  ISO  4  34 100  58 101  76 100  87 101
M  END
> <Batch ID>
0192

> <Smiles>
CCC(C(NC(C)n1nc([100NH:0][100C:0](=O)N2CCCC(n3nc(-c4ccc(Oc5ccc(F)cc5F)cc4)c(C(N)=O)c3N)C2)nc1N)C(C)(C)C)[101CH2:1][101O:1]c1ccc2c(c1)CN(C(=O)C(NC(=O)C(C)NC)C(C)(C)C)C(C(=O)NC1CCCc3ccccc31)C2

> <Shape>
0.210

> <Color>
0.052

> <Negative vol penalty>
0.000

$$$$

  -OEChem-04052305273D

 83 91  0     1  0  0  0  0  0999 V2000
  -17.8579  -32.3389   20.1901 C   0  0  0  0  0  0  0  0  0  0  0  0
  -19.1744  -32.2269   19.7547 C   0  0  0  0  0  0  0  0  0  0  0  0
  -24.4156  -13.5183   20.8155 C   0  0  0  0  0  0  0  0  0  0  0  0
  -26.7707  -13.0883   20.4902 C   0  0  0  0  0  0  0  0  0  0  0  0
  -17.5236  -31.9805   21.4953 C   0  0  0  0  0  0  0  0  0  0  0  0
  -20.1577  -31.7573   20.6247 C   0  0  0  0  0  0  0  0  0  0  0  0
  -25.0222  -28.3297   19.1774 C   0  0  0  0  0  0  0  0  0  0  0  0
  -24.1245  -12.2062   20.4426 C   0  0  0  0  0  0  0  0  0  0  0  0
  -26.4796  -11.7761   20.1173 C   0  0  0  0  0  0  0  0  0  0  0  0
  -26.3584  -28.6498   18.9412 C   0  0  0  0  0  0  0  0  0  0  0  0
  -22.7900   -8.8647   19.9241 C   0  0  0  0  0  0  0  0  0  0  0  0
  -21.8714   -8.1585   20.7006 C   0  0  0  0  0  0  0  0  0  0  0  0
  -26.8868  -28.1089   21.2319 C   0  0  0  0  0  0  0  0  0  0  0  0
  -23.2966   -8.4287   22.6326 C   0  0  0  0  0  0  0  0  0  0  0  0
  -31.9326  -23.0656   23.0651 C   0  0  0  0  0  0  0  0  0  0  0  0
  -25.7387  -13.9594   20.8392 C   0  0  0  0  0  0  0  0  0  0  0  0
  -26.3065  -15.7912   22.5215 C   0  0  0  0  0  0  0  0  0  0  0  0
  -18.5016  -31.4972   22.3789 C   0  0  0  0  0  0  0  0  0  0  0  0
  -24.6056  -27.9064   20.4478 C   0  0  0  0  0  0  0  0  0  0  0  0
  -19.8365  -31.3933   21.9435 C   0  0  0  0  0  0  0  0  0  0  0  0
  -25.5452  -27.7815   21.4810 C   0  0  0  0  0  0  0  0  0  0  0  0
  -25.1564  -11.3350   20.0935 C   0  0  0  0  0  0  0  0  0  0  0  0
  -27.2904  -28.5423   19.9692 C   0  0  0  0  0  0  0  0  0  0  0  0
  -23.9620   -9.3529   20.5019 C   0  0  0  0  0  0  0  0  0  0  0  0
  -22.1246   -7.9405   22.0548 C   0  0  0  0  0  0  0  0  0  0  0  0
  -24.2153   -9.1349   21.8561 C   0  0  0  0  0  0  0  0  0  0  0  0
  -26.0401  -15.3149   21.2238 C   0  0  0  0  0  0  0  0  0  0  0  0
  -31.5683  -23.8869   22.0187 C   0  0  0  0  0  0  0  0  0  0  0  0
  -26.5298  -17.1361   22.3546 C   0  0  0  0  0  0  0  0  0  0  0  0
  -30.4244  -22.1036   21.4520 C   0  0  0  0  0  0  0  0  0  0  0  0
  -26.3483  -15.0813   23.7665 C   0  0  0  0  0  0  0  0  0  0  0  0
  -32.0518  -25.2821   21.8553 C   0  0  0  0  0  0  0  0  0  0  0  0
  -22.5856  -29.0229   22.6334 C   0  0  0  0  0  0  0  0  0  0  0  0
  -23.2627  -26.2229   24.1248 C   0  0  0  0  0  0  0  0  0  0  0  0
  -25.4357  -23.6294   24.5707 C   0  0  0  0  0  0  0  0  0  0  0  0
  -28.8633  -21.3823   19.6110 C   0  0  0  0  0  0  0  0  0  0  0  0
  -18.1010  -31.1669   23.7949 C   0  0  0  0  0  0  0  0  0  0  0  0
  -23.1654  -27.5392   20.6793 C   0  0  0  0  0  0  0  0  0  0  0  0
  -25.1528  -27.3123   22.8573 C   0  0  0  0  0  0  0  0  0  0  0  0
  -19.1335  -30.3241   24.5391 C   0  0  0  0  0  0  0  0  0  0  0  0
  -25.7848  -20.1253   18.3382 C   0  0  0  0  0  0  0  0  0  0  0  0
  -20.5345  -30.8908   24.3322 C   0  0  0  0  0  0  0  0  0  0  0  0
  -25.5987  -18.8009   19.0822 C   0  0  0  0  0  0  0  0  0  0  0  0
  -27.2522  -20.3859   18.0027 C   0  0  0  0  0  0  0  0  0  0  0  0
  -27.9877  -18.9797   19.8870 C   0  0  0  0  0  0  0  0  0  0  0  0
  -20.9268  -30.8647   22.8500 C   0  0  1  0  0  0  0  0  0  0  0  0
  -22.7591  -27.6115   22.1480 C   0  0  1  0  0  0  0  0  0  0  0  0
  -26.5337  -18.7046   20.3038 C   0  0  2  0  0  0  0  0  0  0  0  0
  -26.2889  -21.4252   25.4139 C   0  0  0  0  0  0  0  0  0  0  0  0
  -33.2583  -27.3010   19.6027 C   0  0  0  0  0  0  0  0  0  0  0  0
  -23.9802  -27.8585   26.5987 C   0  0  0  0  0  0  0  0  0  0  0  0
  -25.1424  -25.8377   27.5120 C   0  0  0  0  0  0  0  0  0  0  0  0
  -22.6886  -25.7690   27.0680 C   0  0  0  0  0  0  0  0  0  0  0  0
  -24.2466  -22.1652   22.2902 C   0  0  0  0  0  0  0  0  0  0  0  0
  -30.8616  -28.0650   19.6987 C   0  0  0  0  0  0  0  0  0  0  0  0
  -29.5739  -28.1575   20.5109 C   0  0  0  0  0  0  0  0  0  1  0  0
  -24.3011  -25.7659   25.1207 C   0  0  1  0  0  0  0  0  0  0  0  0
  -25.2204  -22.1269   24.5899 C   0  0  2  0  0  0  0  0  0  0  0  0
  -31.9776  -27.3130   20.4320 C   0  0  1  0  0  0  0  0  0  0  0  0
  -24.0355  -26.3185   26.5495 C   0  0  0  0  0  0  0  0  0  0  0  0
  -26.0891  -16.2789   20.3006 N   0  0  0  0  0  0  0  0  0  0  0  0
  -30.7038  -23.3368   21.0925 N   0  0  0  0  0  0  0  0  0  0  0  0
  -26.3888  -17.3744   21.0191 N   0  0  0  0  0  0  0  0  0  0  0  0
  -23.7317  -26.9711   23.0357 N   0  0  0  0  0  0  0  0  0  0  0  0
  -28.0770  -20.2821   19.2084 N   0  0  0  0  0  0  0  0  0  0  0  0
  -26.8311  -18.1262   23.2213 N   0  0  0  0  0  0  0  0  0  0  0  0
  -26.0948  -13.7029   23.7586 N   0  0  0  0  0  0  0  0  0  0  0  0
  -29.5798  -21.1784   20.7898 N   0  0  0  0  0  0  0  0  0  0  0  0
  -31.5802  -25.9597   20.7414 N   0  0  0  0  0  0  0  0  0  0  0  0
  -21.3120  -29.5275   22.4526 N   0  0  0  0  0  0  0  0  0  0  0  0
  -24.3317  -24.3096   25.0394 N   0  0  0  0  0  0  0  0  0  0  0  0
  -25.2610  -21.5800   23.2042 N   0  3  0  0  0  0  0  0  0  0  0  0
  -26.5869  -15.6554   24.8560 O   0  0  0  0  0  0  0  0  0  0  0  0
  -32.8373  -25.7451   22.6782 O   0  0  0  0  0  0  0  0  0  0  0  0
  -23.5365  -29.6100   23.1362 O   0  0  0  0  0  0  0  0  0  0  0  0
  -22.0800  -25.9208   24.3026 O   0  0  0  0  0  0  0  0  0  0  0  0
  -26.4803  -24.1478   24.1825 O   0  0  0  0  0  0  0  0  0  0  0  0
  -28.8774  -22.4380   18.9728 O   0  0  0  0  0  0  0  0  0  0  0  0
  -24.8727  -10.0545   19.7298 O   0  0  0  0  0  0  0  0  0  0  0  0
  -28.5951  -28.8548   19.7414 O   0  0  0  0  0  0  0  0  0  1  0  0
  -21.2416   -7.2637   22.8007 F   0  0  0  0  0  0  0  0  0  0  0  0
  -25.3389   -9.6025   22.4170 F   0  0  0  0  0  0  0  0  0  0  0  0
  -31.1661  -21.5410   22.8936 S   0  0  0  0  0  0  0  0  0  0  0  0
  1  2  1  0  0  0  0
  1  5  2  0  0  0  0
  2  6  2  0  0  0  0
  3  8  2  0  0  0  0
  3 16  1  0  0  0  0
  4  9  1  0  0  0  0
  4 16  2  0  0  0  0
  5 18  1  0  0  0  0
  6 20  1  0  0  0  0
  7 10  2  0  0  0  0
  7 19  1  0  0  0  0
  8 22  1  0  0  0  0
  9 22  2  0  0  0  0
 10 23  1  0  0  0  0
 11 12  2  0  0  0  0
 11 24  1  0  0  0  0
 12 25  1  0  0  0  0
 13 21  1  0  0  0  0
 13 23  2  0  0  0  0
 14 25  2  0  0  0  0
 14 26  1  0  0  0  0
 15 28  2  0  0  0  0
 15 83  1  0  0  0  0
 16 27  1  0  0  0  0
 17 27  1  0  0  0  0
 17 29  2  0  0  0  0
 17 31  1  0  0  0  0
 18 20  2  0  0  0  0
 18 37  1  0  0  0  0
 19 21  2  0  0  0  0
 19 38  1  0  0  0  0
 20 46  1  0  0  0  0
 21 39  1  0  0  0  0
 22 79  1  0  0  0  0
 23 80  1  0  0  0  0
 24 26  2  0  0  0  0
 24 79  1  0  0  0  0
 25 81  1  0  0  0  0
 26 82  1  0  0  0  0
 27 61  2  0  0  0  0
 28 32  1  0  0  0  0
 28 62  1  0  0  0  0
 29 63  1  0  0  0  0
 29 66  1  0  0  0  0
 30 62  2  0  0  0  0
 30 68  1  0  0  0  0
 30 83  1  0  0  0  0
 31 67  1  0  0  0  0
 31 73  2  0  0  0  0
 32 69  1  0  0  0  0
 32 74  2  0  0  0  0
 33 47  1  0  0  0  0
 33 70  1  0  0  0  0
 33 75  2  0  0  0  0
 34 57  1  0  0  0  0
 34 64  1  0  0  0  0
 34 76  2  0  0  0  0
 35 58  1  0  0  0  0
 35 71  1  0  0  0  0
 35 77  2  0  0  0  0
 36 65  1  0  0  0  0
 36 68  1  0  0  0  0
 36 78  2  0  0  0  0
 37 40  1  0  0  0  0
 38 47  1  0  0  0  0
 39 64  1  0  0  0  0
 40 42  1  0  0  0  0
 41 43  1  0  0  0  0
 41 44  1  0  0  0  0
 42 46  1  0  0  0  0
 43 48  1  0  0  0  0
 44 65  1  0  0  0  0
 45 48  1  0  0  0  0
 45 65  1  0  0  0  0
 46 70  1  0  0  0  0
 47 64  1  0  0  0  0
 48 63  1  0  0  0  0
 49 58  1  0  0  0  0
 50 59  1  0  0  0  0
 51 60  1  0  0  0  0
 52 60  1  0  0  0  0
 53 60  1  0  0  0  0
 54 72  1  0  0  0  0
 55 56  1  0  0  0  0
 55 59  1  0  0  0  0
 56 80  1  0  0  0  0
 57 60  1  0  0  0  0
 57 71  1  0  0  0  0
 58 72  1  0  0  0  0
 59 69  1  0  0  0  0
 61 63  1  0  0  0  0
M  CHG  1  72   1
M  ISO  4  36 100  56 101  68 100  80 101
M  END
> <Batch ID>
0192

> <Smiles>
CNC(C)C(=O)NC(C(=O)N1Cc2cc([101O:1][101CH2:1]CC(C)NC(=O)c3csc([100NH:0][100C:0](=O)N4CCCC(n5nc(-c6ccc(Oc7ccc(F)cc7F)cc6)c(C(N)=O)c5N)C4)n3)ccc2CC1C(=O)NC1CCCc2ccccc21)C(C)(C)C

> <Shape>
0.203

> <Color>
0.097

> <Negative vol penalty>
0.000

$$$$

  -OEChem-04052305273D

 83 91  0     1  0  0  0  0  0999 V2000
  -17.2445  -30.8712   23.8374 C   0  0  0  0  0  0  0  0  0  0  0  0
  -18.5975  -31.1798   23.7409 C   0  0  0  0  0  0  0  0  0  0  0  0
  -20.0035  -16.5508   19.4232 C   0  0  0  0  0  0  0  0  0  0  0  0
  -21.0259  -17.2630   17.3533 C   0  0  0  0  0  0  0  0  0  0  0  0
  -16.8087  -29.5690   23.5958 C   0  0  0  0  0  0  0  0  0  0  0  0
  -19.5158  -30.1861   23.4036 C   0  0  0  0  0  0  0  0  0  0  0  0
  -25.6997  -29.2523   19.9102 C   0  0  0  0  0  0  0  0  0  0  0  0
  -18.7412  -16.6786   18.8437 C   0  0  0  0  0  0  0  0  0  0  0  0
  -19.7636  -17.3908   16.7738 C   0  0  0  0  0  0  0  0  0  0  0  0
  -26.9701  -28.7088   20.0957 C   0  0  0  0  0  0  0  0  0  0  0  0
  -17.4211  -15.3549   15.4364 C   0  0  0  0  0  0  0  0  0  0  0  0
  -17.2440  -14.8397   14.1524 C   0  0  0  0  0  0  0  0  0  0  0  0
  -26.0929  -26.5120   19.6227 C   0  0  0  0  0  0  0  0  0  0  0  0
  -16.6504  -17.0404   13.3512 C   0  0  0  0  0  0  0  0  0  0  0  0
  -29.3179  -22.5931   16.7837 C   0  0  0  0  0  0  0  0  0  0  0  0
  -21.1459  -16.8431   18.6781 C   0  0  0  0  0  0  0  0  0  0  0  0
  -23.2692  -15.5670   19.2868 C   0  0  0  0  0  0  0  0  0  0  0  0
  -17.7209  -28.5610   23.2459 C   0  0  0  0  0  0  0  0  0  0  0  0
  -24.6123  -28.4269   19.5897 C   0  0  0  0  0  0  0  0  0  0  0  0
  -19.0920  -28.8690   23.1583 C   0  0  0  0  0  0  0  0  0  0  0  0
  -24.8102  -27.0478   19.4311 C   0  0  0  0  0  0  0  0  0  0  0  0
  -18.6212  -17.0985   17.5190 C   0  0  0  0  0  0  0  0  0  0  0  0
  -27.1663  -27.3382   19.9548 C   0  0  0  0  0  0  0  0  0  0  0  0
  -17.2127  -16.7129   15.6779 C   0  0  0  0  0  0  0  0  0  0  0  0
  -16.8587  -15.6824   13.1098 C   0  0  0  0  0  0  0  0  0  0  0  0
  -16.8274  -17.5556   14.6353 C   0  0  0  0  0  0  0  0  0  0  0  0
  -22.4501  -16.7119   19.2763 C   0  0  0  0  0  0  0  0  0  0  0  0
  -29.7483  -23.0819   17.9994 C   0  0  0  0  0  0  0  0  0  0  0  0
  -24.3930  -15.9552   19.9745 C   0  0  0  0  0  0  0  0  0  0  0  0
  -28.0775  -21.8525   18.7112 C   0  0  0  0  0  0  0  0  0  0  0  0
  -23.0353  -14.2688   18.7251 C   0  0  0  0  0  0  0  0  0  0  0  0
  -21.8511  -27.7094   20.9913 C   0  0  0  0  0  0  0  0  0  0  0  0
  -21.3041  -26.1174   18.2185 C   0  0  0  0  0  0  0  0  0  0  0  0
  -31.1888  -26.2127   19.3725 C   0  0  0  0  0  0  0  0  0  0  0  0
  -22.5932  -24.5694   15.4637 C   0  0  0  0  0  0  0  0  0  0  0  0
  -26.9826  -21.2600   20.9013 C   0  0  0  0  0  0  0  0  0  0  0  0
  -17.2084  -27.1576   23.0403 C   0  0  0  0  0  0  0  0  0  0  0  0
  -23.2535  -29.0321   19.3665 C   0  0  0  0  0  0  0  0  0  0  0  0
  -23.6798  -26.1211   19.0680 C   0  0  0  0  0  0  0  0  0  0  0  0
  -18.1999  -26.2462   22.3217 C   0  0  0  0  0  0  0  0  0  0  0  0
  -25.8323  -18.9881   23.3898 C   0  0  0  0  0  0  0  0  0  0  0  0
  -19.5929  -26.3909   22.9263 C   0  0  0  0  0  0  0  0  0  0  0  0
  -24.9138  -18.0387   22.6171 C   0  0  0  0  0  0  0  0  0  0  0  0
  -25.7270  -20.4227   22.8755 C   0  0  0  0  0  0  0  0  0  0  0  0
  -25.0076  -19.6305   20.6565 C   0  0  0  0  0  0  0  0  0  0  0  0
  -20.1157  -27.8240   22.7707 C   0  0  1  0  0  0  0  0  0  0  0  0
  -22.1165  -28.0311   19.5478 C   0  0  1  0  0  0  0  0  0  0  0  0
  -25.1271  -18.1620   21.0957 C   0  0  2  0  0  0  0  0  0  0  0  0
  -32.2339  -23.2872   18.4140 C   0  0  0  0  0  0  0  0  0  0  0  0
  -21.8991  -23.3309   13.3944 C   0  0  0  0  0  0  0  0  0  0  0  0
  -20.7069  -23.6439   19.9022 C   0  0  0  0  0  0  0  0  0  0  0  0
  -20.9600  -22.2591   17.8319 C   0  0  0  0  0  0  0  0  0  0  0  0
  -19.1632  -23.9843   17.9643 C   0  0  0  0  0  0  0  0  0  0  0  0
  -23.8392  -26.5899   13.6962 C   0  0  0  0  0  0  0  0  0  0  0  0
  -30.7546  -26.9311   20.6406 C   0  0  0  0  0  0  0  0  0  0  0  0
  -29.4586  -27.7082   20.4689 C   0  0  0  0  0  0  0  0  0  1  0  0
  -30.9125  -24.0257   18.2105 C   0  0  2  0  0  0  0  0  0  0  0  0
  -21.5702  -24.7179   17.7188 C   0  0  1  0  0  0  0  0  0  0  0  0
  -22.2496  -24.6858   13.9896 C   0  0  2  0  0  0  0  0  0  0  0  0
  -20.6212  -23.6683   18.3631 C   0  0  0  0  0  0  0  0  0  0  0  0
  -23.0060  -17.7495   19.9074 N   0  0  0  0  0  0  0  0  0  0  0  0
  -29.0380  -22.6586   19.1058 N   0  0  0  0  0  0  0  0  0  0  0  0
  -24.1866  -17.2581   20.3209 N   0  0  0  0  0  0  0  0  0  0  0  0
  -22.3687  -26.7598   18.8664 N   0  0  0  0  0  0  0  0  0  0  0  0
  -25.9445  -20.4625   21.4278 N   0  0  0  0  0  0  0  0  0  0  0  0
  -25.5277  -15.3057   20.3107 N   0  0  0  0  0  0  0  0  0  0  0  0
  -21.8280  -14.0402   18.0509 N   0  0  0  0  0  0  0  0  0  0  0  0
  -27.1147  -21.1927   19.5148 N   0  0  0  0  0  0  0  0  0  0  0  0
  -20.5815  -28.0481   21.4189 N   0  0  0  0  0  0  0  0  0  0  0  0
  -30.6614  -24.9309   19.3087 N   0  0  0  0  0  0  0  0  0  0  0  0
  -21.4904  -24.7820   16.2635 N   0  0  0  0  0  0  0  0  0  0  0  0
  -23.4030  -25.2479   13.2316 N   0  3  0  0  0  0  0  0  0  0  0  0
  -23.8651  -13.3342   18.8324 O   0  0  0  0  0  0  0  0  0  0  0  0
  -22.7323  -27.1909   21.6667 O   0  0  0  0  0  0  0  0  0  0  0  0
  -20.1950  -26.6247   18.0341 O   0  0  0  0  0  0  0  0  0  0  0  0
  -31.9158  -26.7230   18.5246 O   0  0  0  0  0  0  0  0  0  0  0  0
  -23.7259  -24.3118   15.8653 O   0  0  0  0  0  0  0  0  0  0  0  0
  -27.7188  -21.9305   21.6296 O   0  0  0  0  0  0  0  0  0  0  0  0
  -17.3896  -17.2231   16.9531 O   0  0  0  0  0  0  0  0  0  0  0  0
  -28.4052  -26.8050   20.1360 O   0  0  0  0  0  0  0  0  0  1  0  0
  -16.6902  -15.1878   11.8764 F   0  0  0  0  0  0  0  0  0  0  0  0
  -16.6269  -18.8612   14.8609 F   0  0  0  0  0  0  0  0  0  0  0  0
  -27.9709  -21.5590   17.0238 S   0  0  0  0  0  0  0  0  0  0  0  0
  1  2  1  0  0  0  0
  1  5  2  0  0  0  0
  2  6  2  0  0  0  0
  3  8  2  0  0  0  0
  3 16  1  0  0  0  0
  4  9  1  0  0  0  0
  4 16  2  0  0  0  0
  5 18  1  0  0  0  0
  6 20  1  0  0  0  0
  7 10  2  0  0  0  0
  7 19  1  0  0  0  0
  8 22  1  0  0  0  0
  9 22  2  0  0  0  0
 10 23  1  0  0  0  0
 11 12  2  0  0  0  0
 11 24  1  0  0  0  0
 12 25  1  0  0  0  0
 13 21  1  0  0  0  0
 13 23  2  0  0  0  0
 14 25  2  0  0  0  0
 14 26  1  0  0  0  0
 15 28  2  0  0  0  0
 15 83  1  0  0  0  0
 16 27  1  0  0  0  0
 17 27  1  0  0  0  0
 17 29  2  0  0  0  0
 17 31  1  0  0  0  0
 18 20  2  0  0  0  0
 18 37  1  0  0  0  0
 19 21  2  0  0  0  0
 19 38  1  0  0  0  0
 20 46  1  0  0  0  0
 21 39  1  0  0  0  0
 22 79  1  0  0  0  0
 23 80  1  0  0  0  0
 24 26  2  0  0  0  0
 24 79  1  0  0  0  0
 25 81  1  0  0  0  0
 26 82  1  0  0  0  0
 27 61  2  0  0  0  0
 28 57  1  0  0  0  0
 28 62  1  0  0  0  0
 29 63  1  0  0  0  0
 29 66  1  0  0  0  0
 30 62  2  0  0  0  0
 30 68  1  0  0  0  0
 30 83  1  0  0  0  0
 31 67  1  0  0  0  0
 31 73  2  0  0  0  0
 32 47  1  0  0  0  0
 32 69  1  0  0  0  0
 32 74  2  0  0  0  0
 33 58  1  0  0  0  0
 33 64  1  0  0  0  0
 33 75  2  0  0  0  0
 34 55  1  0  0  0  0
 34 70  1  0  0  0  0
 34 76  2  0  0  0  0
 35 59  1  0  0  0  0
 35 71  1  0  0  0  0
 35 77  2  0  0  0  0
 36 65  1  0  0  0  0
 36 68  1  0  0  0  0
 36 78  2  0  0  0  0
 37 40  1  0  0  0  0
 38 47  1  0  0  0  0
 39 64  1  0  0  0  0
 40 42  1  0  0  0  0
 41 43  1  0  0  0  0
 41 44  1  0  0  0  0
 42 46  1  0  0  0  0
 43 48  1  0  0  0  0
 44 65  1  0  0  0  0
 45 48  1  0  0  0  0
 45 65  1  0  0  0  0
 46 69  1  0  0  0  0
 47 64  1  0  0  0  0
 48 63  1  0  0  0  0
 49 57  1  0  0  0  0
 50 59  1  0  0  0  0
 51 60  1  0  0  0  0
 52 60  1  0  0  0  0
 53 60  1  0  0  0  0
 54 72  1  0  0  0  0
 55 56  1  0  0  0  0
 56 80  1  0  0  0  0
 57 70  1  0  0  0  0
 58 60  1  0  0  0  0
 58 71  1  0  0  0  0
 59 72  1  0  0  0  0
 61 63  1  0  0  0  0
M  CHG  1  72   1
M  ISO  4  36 100  56 101  68 100  80 101
M  END
> <Batch ID>
0192

> <Smiles>
CNC(C)C(=O)NC(C(=O)N1Cc2cc([101O:1][101CH2:1]CC(=O)NC(C)c3csc([100NH:0][100C:0](=O)N4CCCC(n5nc(-c6ccc(Oc7ccc(F)cc7F)cc6)c(C(N)=O)c5N)C4)n3)ccc2CC1C(=O)NC1CCCc2ccccc21)C(C)(C)C

> <Shape>
0.181

> <Color>
0.114

> <Negative vol penalty>
0.000

$$$$

  -OEChem-04052305273D

 85 93  0     1  0  0  0  0  0999 V2000
  -34.2318  -24.6186   37.1135 C   0  0  0  0  0  0  0  0  0  0  0  0
  -33.9764  -24.4474   35.7567 C   0  0  0  0  0  0  0  0  0  0  0  0
  -23.0740   -9.8681   19.9423 C   0  0  0  0  0  0  0  0  0  0  0  0
  -23.8309   -9.8785   22.2366 C   0  0  0  0  0  0  0  0  0  0  0  0
  -35.3788  -24.0652   37.6810 C   0  0  0  0  0  0  0  0  0  0  0  0
  -34.8685  -23.7235   34.9664 C   0  0  0  0  0  0  0  0  0  0  0  0
  -32.5248  -20.4727   31.8706 C   0  0  0  0  0  0  0  0  0  0  0  0
  -22.3292   -8.7158   20.1932 C   0  0  0  0  0  0  0  0  0  0  0  0
  -23.0861   -8.7262   22.4876 C   0  0  0  0  0  0  0  0  0  0  0  0
  -31.9419  -20.9983   30.7184 C   0  0  0  0  0  0  0  0  0  0  0  0
  -19.9425   -5.9769   20.3231 C   0  0  0  0  0  0  0  0  0  0  0  0
  -18.6374   -5.9288   19.8331 C   0  0  0  0  0  0  0  0  0  0  0  0
  -33.8494  -20.2753   29.4308 C   0  0  0  0  0  0  0  0  0  0  0  0
  -18.0715   -7.8742   21.1494 C   0  0  0  0  0  0  0  0  0  0  0  0
  -31.7882  -17.5773   21.7260 C   0  0  0  0  0  0  0  0  0  0  0  0
  -23.8250  -10.4495   20.9640 C   0  0  0  0  0  0  0  0  0  0  0  0
  -24.1683  -12.9743   20.8402 C   0  0  0  0  0  0  0  0  0  0  0  0
  -36.2805  -23.3260   36.8993 C   0  0  0  0  0  0  0  0  0  0  0  0
  -33.7814  -19.8530   31.8134 C   0  0  0  0  0  0  0  0  0  0  0  0
  -36.0293  -23.1608   35.5238 C   0  0  0  0  0  0  0  0  0  0  0  0
  -34.4449  -19.7403   30.5833 C   0  0  0  0  0  0  0  0  0  0  0  0
  -22.3352   -8.1448   21.4658 C   0  0  0  0  0  0  0  0  0  0  0  0
  -32.6054  -20.9023   29.4988 C   0  0  0  0  0  0  0  0  0  0  0  0
  -20.3121   -6.9736   21.2262 C   0  0  0  0  0  0  0  0  0  0  0  0
  -17.7019   -6.8774   20.2462 C   0  0  0  0  0  0  0  0  0  0  0  0
  -19.3766   -7.9222   21.6393 C   0  0  0  0  0  0  0  0  0  0  0  0
  -24.5950  -11.6395   20.7053 C   0  0  0  0  0  0  0  0  0  0  0  0
  -25.2613  -13.7226   20.4771 C   0  0  0  0  0  0  0  0  0  0  0  0
  -30.5846  -16.9353   21.9292 C   0  0  0  0  0  0  0  0  0  0  0  0
  -30.8271  -19.0759   23.0068 C   0  0  0  0  0  0  0  0  0  0  0  0
  -22.8975  -13.4914   21.2566 C   0  0  0  0  0  0  0  0  0  0  0  0
  -36.6247  -20.4226   33.1153 C   0  0  0  0  0  0  0  0  0  0  0  0
  -37.3908  -17.5895   31.7338 C   0  0  0  0  0  0  0  0  0  0  0  0
  -31.2203  -20.9314   26.1478 C   0  0  0  0  0  0  0  0  0  0  0  0
  -36.7476  -15.2851   29.3001 C   0  0  0  0  0  0  0  0  0  0  0  0
  -30.7278  -14.7655   20.6573 C   0  0  0  0  0  0  0  0  0  0  0  0
  -37.5309  -22.7869   37.5477 C   0  0  0  0  0  0  0  0  0  0  0  0
  -34.3846  -19.2673   33.0606 C   0  0  0  0  0  0  0  0  0  0  0  0
  -35.7867  -19.0666   30.4648 C   0  0  0  0  0  0  0  0  0  0  0  0
  -38.2343  -21.7161   36.7178 C   0  0  0  0  0  0  0  0  0  0  0  0
  -29.6152  -12.3484   18.2914 C   0  0  0  0  0  0  0  0  0  0  0  0
  -38.3467  -22.1572   35.2619 C   0  0  0  0  0  0  0  0  0  0  0  0
  -28.1748  -12.0583   18.7196 C   0  0  0  0  0  0  0  0  0  0  0  0
  -30.5289  -12.5787   19.4939 C   0  0  0  0  0  0  0  0  0  0  0  0
  -28.6205  -13.3064   20.8715 C   0  0  0  0  0  0  0  0  0  0  0  0
  -36.9605  -22.3610   34.6386 C   0  0  1  0  0  0  0  0  0  0  0  0
  -35.9001  -19.1137   32.9762 C   0  0  1  0  0  0  0  0  0  0  0  0
  -27.6491  -13.1318   19.6927 C   0  0  2  0  0  0  0  0  0  0  0  0
  -37.5663  -13.0907   28.3991 C   0  0  0  0  0  0  0  0  0  0  0  0
  -30.0119  -23.1288   21.1167 C   0  0  0  0  0  0  0  0  0  0  0  0
  -28.2932  -21.7795   22.3342 C   0  0  0  0  0  0  0  0  0  0  0  0
  -39.7446  -19.0127   30.4131 C   0  0  0  0  0  0  0  0  0  0  0  0
  -39.9379  -17.0792   28.8343 C   0  0  0  0  0  0  0  0  0  0  0  0
  -40.2628  -16.7256   31.2822 C   0  0  0  0  0  0  0  0  0  0  0  0
  -34.1638  -13.9570   29.8650 C   0  0  0  0  0  0  0  0  0  0  0  0
  -32.3554  -20.7750   27.1371 C   0  0  0  0  0  0  0  0  0  1  0  0
  -30.7557  -21.6308   22.9928 C   0  0  0  0  0  0  0  0  0  0  0  0
  -30.6002  -20.3380   23.8136 C   0  0  2  0  0  0  0  0  0  0  0  0
  -37.9383  -17.1680   30.3915 C   0  0  1  0  0  0  0  0  0  0  0  0
  -36.6023  -13.7751   29.3557 C   0  0  2  0  0  0  0  0  0  0  0  0
  -29.7414  -21.8081   21.8434 C   0  0  0  0  0  0  0  0  0  0  0  0
  -39.4465  -17.5108   30.2325 C   0  0  0  0  0  0  0  0  0  0  0  0
  -31.9289  -18.8051   22.3429 N   0  0  0  0  0  0  0  0  0  0  0  0
  -25.8604  -11.5423   20.2888 N   0  0  0  0  0  0  0  0  0  0  0  0
  -26.2381  -12.8255   20.1588 N   0  0  0  0  0  0  0  0  0  0  0  0
  -36.3381  -18.5152   31.7136 N   0  0  0  0  0  0  0  0  0  0  0  0
  -29.9693  -13.6112   20.3689 N   0  0  0  0  0  0  0  0  0  0  0  0
  -25.4725  -15.0538   20.4021 N   0  0  0  0  0  0  0  0  0  0  0  0
  -21.8847  -12.5834   21.5941 N   0  0  0  0  0  0  0  0  0  0  0  0
  -30.0799  -15.6922   21.4734 N   0  0  0  0  0  0  0  0  0  0  0  0
  -36.3663  -21.0857   34.2998 N   0  0  0  0  0  0  0  0  0  0  0  0
  -31.5138  -20.3327   24.9326 N   0  0  0  0  0  0  0  0  0  0  0  0
  -37.6303  -15.7488   30.2525 N   0  0  0  0  0  0  0  0  0  0  0  0
  -35.2141  -13.3744   28.9906 N   0  3  0  0  0  0  0  0  0  0  0  0
  -22.6618  -14.7223   21.3116 O   0  0  0  0  0  0  0  0  0  0  0  0
  -37.3648  -20.8021   32.2153 O   0  0  0  0  0  0  0  0  0  0  0  0
  -37.8745  -17.1094   32.7620 O   0  0  0  0  0  0  0  0  0  0  0  0
  -30.1794  -21.5236   26.4192 O   0  0  0  0  0  0  0  0  0  0  0  0
  -36.1416  -15.9832   28.4901 O   0  0  0  0  0  0  0  0  0  0  0  0
  -31.8576  -14.9328   20.1908 O   0  0  0  0  0  0  0  0  0  0  0  0
  -21.6084   -7.0205   21.7111 O   0  0  0  0  0  0  0  0  0  0  0  0
  -32.0390  -21.4151   28.3727 O   0  0  0  0  0  0  0  0  0  1  0  0
  -16.4491   -6.8320   19.7745 F   0  0  0  0  0  0  0  0  0  0  0  0
  -19.7262   -8.8829   22.5058 F   0  0  0  0  0  0  0  0  0  0  0  0
  -29.5814  -17.8979   22.9333 S   0  0  0  0  0  0  0  0  0  0  0  0
  1  2  1  0  0  0  0
  1  5  2  0  0  0  0
  2  6  2  0  0  0  0
  3  8  2  0  0  0  0
  3 16  1  0  0  0  0
  4  9  1  0  0  0  0
  4 16  2  0  0  0  0
  5 18  1  0  0  0  0
  6 20  1  0  0  0  0
  7 10  2  0  0  0  0
  7 19  1  0  0  0  0
  8 22  1  0  0  0  0
  9 22  2  0  0  0  0
 10 23  1  0  0  0  0
 11 12  2  0  0  0  0
 11 24  1  0  0  0  0
 12 25  1  0  0  0  0
 13 21  1  0  0  0  0
 13 23  2  0  0  0  0
 14 25  2  0  0  0  0
 14 26  1  0  0  0  0
 15 29  2  0  0  0  0
 15 63  1  0  0  0  0
 16 27  1  0  0  0  0
 17 27  1  0  0  0  0
 17 28  2  0  0  0  0
 17 31  1  0  0  0  0
 18 20  2  0  0  0  0
 18 37  1  0  0  0  0
 19 21  2  0  0  0  0
 19 38  1  0  0  0  0
 20 46  1  0  0  0  0
 21 39  1  0  0  0  0
 22 81  1  0  0  0  0
 23 82  1  0  0  0  0
 24 26  2  0  0  0  0
 24 81  1  0  0  0  0
 25 83  1  0  0  0  0
 26 84  1  0  0  0  0
 27 64  2  0  0  0  0
 28 65  1  0  0  0  0
 28 68  1  0  0  0  0
 29 70  1  0  0  0  0
 29 85  1  0  0  0  0
 30 58  1  0  0  0  0
 30 63  2  0  0  0  0
 30 85  1  0  0  0  0
 31 69  1  0  0  0  0
 31 75  2  0  0  0  0
 32 47  1  0  0  0  0
 32 71  1  0  0  0  0
 32 76  2  0  0  0  0
 33 59  1  0  0  0  0
 33 66  1  0  0  0  0
 33 77  2  0  0  0  0
 34 56  1  0  0  0  0
 34 72  1  0  0  0  0
 34 78  2  0  0  0  0
 35 60  1  0  0  0  0
 35 73  1  0  0  0  0
 35 79  2  0  0  0  0
 36 67  1  0  0  0  0
 36 70  1  0  0  0  0
 36 80  2  0  0  0  0
 37 40  1  0  0  0  0
 38 47  1  0  0  0  0
 39 66  1  0  0  0  0
 40 42  1  0  0  0  0
 41 43  1  0  0  0  0
 41 44  1  0  0  0  0
 42 46  1  0  0  0  0
 43 48  1  0  0  0  0
 44 67  1  0  0  0  0
 45 48  1  0  0  0  0
 45 67  1  0  0  0  0
 46 71  1  0  0  0  0
 47 66  1  0  0  0  0
 48 65  1  0  0  0  0
 49 60  1  0  0  0  0
 50 61  1  0  0  0  0
 51 61  1  0  0  0  0
 52 62  1  0  0  0  0
 53 62  1  0  0  0  0
 54 62  1  0  0  0  0
 55 74  1  0  0  0  0
 56 82  1  0  0  0  0
 57 58  1  0  0  0  0
 57 61  1  0  0  0  0
 58 72  1  0  0  0  0
 59 62  1  0  0  0  0
 59 73  1  0  0  0  0
 60 74  1  0  0  0  0
 64 65  1  0  0  0  0
M  CHG  1  74   1
M  ISO  4  36 100  56 101  70 100  82 101
M  END
> <Batch ID>
0192

> <Smiles>
CNC(C)C(=O)NC(C(=O)N1Cc2cc([101O:1][101CH2:1]C(=O)NC(CC(C)C)c3ncc([100NH:0][100C:0](=O)N4CCCC(n5nc(-c6ccc(Oc7ccc(F)cc7F)cc6)c(C(N)=O)c5N)C4)s3)ccc2CC1C(=O)NC1CCCc2ccccc21)C(C)(C)C

> <Shape>
0.158

> <Color>
0.184

> <Negative vol penalty>
0.000

$$$$

  -OEChem-04052305273D

 83 91  0     1  0  0  0  0  0999 V2000
  -34.5848  -23.1393   20.6273 C   0  0  0  0  0  0  0  0  0  0  0  0
  -33.6043  -22.7308   19.7289 C   0  0  0  0  0  0  0  0  0  0  0  0
  -26.9874  -32.0601   23.3877 C   0  0  0  0  0  0  0  0  0  0  0  0
  -26.0625  -32.2959   21.1682 C   0  0  0  0  0  0  0  0  0  0  0  0
  -35.1270  -22.2247   21.5292 C   0  0  0  0  0  0  0  0  0  0  0  0
  -33.1662  -21.4069   19.7312 C   0  0  0  0  0  0  0  0  0  0  0  0
  -28.1244  -21.0285   19.4447 C   0  0  0  0  0  0  0  0  0  0  0  0
  -27.0814  -33.4476   23.4959 C   0  0  0  0  0  0  0  0  0  0  0  0
  -26.1565  -33.6834   21.2764 C   0  0  0  0  0  0  0  0  0  0  0  0
  -27.5424  -21.2114   18.1911 C   0  0  0  0  0  0  0  0  0  0  0  0
  -27.2293  -36.9389   24.4977 C   0  0  0  0  0  0  0  0  0  0  0  0
  -26.8042  -37.5268   25.6890 C   0  0  0  0  0  0  0  0  0  0  0  0
  -27.3666  -18.8197   17.9304 C   0  0  0  0  0  0  0  0  0  0  0  0
  -24.5879  -36.6303   25.3406 C   0  0  0  0  0  0  0  0  0  0  0  0
  -26.4779  -31.4843   22.2238 C   0  0  0  0  0  0  0  0  0  0  0  0
  -25.2901  -29.2412   22.4796 C   0  0  0  0  0  0  0  0  0  0  0  0
  -34.6885  -20.8913   21.5490 C   0  0  0  0  0  0  0  0  0  0  0  0
  -28.3422  -19.7375   19.9467 C   0  0  0  0  0  0  0  0  0  0  0  0
  -33.7040  -20.4733   20.6332 C   0  0  0  0  0  0  0  0  0  0  0  0
  -27.9492  -18.6232   19.1917 C   0  0  0  0  0  0  0  0  0  0  0  0
  -26.6660  -34.2592   22.4403 C   0  0  0  0  0  0  0  0  0  0  0  0
  -27.1660  -20.1069   17.4325 C   0  0  0  0  0  0  0  0  0  0  0  0
  -26.3336  -36.1968   23.7278 C   0  0  0  0  0  0  0  0  0  0  0  0
  -25.4835  -37.3725   26.1105 C   0  0  0  0  0  0  0  0  0  0  0  0
  -25.0130  -36.0425   24.1492 C   0  0  0  0  0  0  0  0  0  0  0  0
  -26.3811  -30.0511   22.1112 C   0  0  0  0  0  0  0  0  0  0  0  0
  -25.6925  -27.9638   22.1753 C   0  0  0  0  0  0  0  0  0  0  0  0
  -28.5445  -25.0825   14.0286 C   0  0  0  0  0  0  0  0  0  0  0  0
  -28.5258  -25.9707   16.0150 C   0  0  0  0  0  0  0  0  0  0  0  0
  -24.0259  -29.6107   23.0462 C   0  0  0  0  0  0  0  0  0  0  0  0
  -30.9084  -18.0623   20.7908 C   0  0  0  0  0  0  0  0  0  0  0  0
  -28.6952  -15.9061   21.7782 C   0  0  0  0  0  0  0  0  0  0  0  0
  -25.5242  -14.6756   21.5012 C   0  0  0  0  0  0  0  0  0  0  0  0
  -29.6319  -25.7468   18.2673 C   0  0  0  0  0  0  0  0  0  0  0  0
  -35.3380  -19.9277   22.5103 C   0  0  0  0  0  0  0  0  0  0  0  0
  -28.9467  -19.5576   21.3123 C   0  0  0  0  0  0  0  0  0  0  0  0
  -28.1428  -17.2166   19.6942 C   0  0  0  0  0  0  0  0  0  0  0  0
  -34.5513  -18.6333   22.7000 C   0  0  0  0  0  0  0  0  0  0  0  0
  -29.6334  -25.2695   21.7957 C   0  0  0  0  0  0  0  0  0  0  0  0
  -34.1128  -18.0725   21.3509 C   0  0  0  0  0  0  0  0  0  0  0  0
  -28.6955  -26.3639   22.3100 C   0  0  0  0  0  0  0  0  0  0  0  0
  -30.4664  -25.7484   20.6080 C   0  0  0  0  0  0  0  0  0  0  0  0
  -28.7559  -27.4190   20.0143 C   0  0  0  0  0  0  0  0  0  0  0  0
  -33.1851  -19.0518   20.6216 C   0  0  1  0  0  0  0  0  0  0  0  0
  -29.5922  -18.1887   21.5044 C   0  0  1  0  0  0  0  0  0  0  0  0
  -27.8495  -26.9630   21.1694 C   0  0  2  0  0  0  0  0  0  0  0  0
  -30.5102  -24.2105   12.6987 C   0  0  0  0  0  0  0  0  0  0  0  0
  -24.0193  -12.8856   22.4114 C   0  0  0  0  0  0  0  0  0  0  0  0
  -27.1181  -21.9692   11.6123 C   0  0  0  0  0  0  0  0  0  0  0  0
  -30.1486  -13.8260   20.0838 C   0  0  0  0  0  0  0  0  0  0  0  0
  -28.1217  -12.3670   20.2614 C   0  0  0  0  0  0  0  0  0  0  0  0
  -29.3834  -13.0020   22.3176 C   0  0  0  0  0  0  0  0  0  0  0  0
  -23.6043  -16.6648   22.5575 C   0  0  0  0  0  0  0  0  0  0  0  0
  -26.9105  -21.1299   13.9857 C   0  0  0  0  0  0  0  0  0  0  0  0
  -26.9812  -21.4458   15.4756 C   0  0  0  0  0  0  0  0  0  1  0  0
  -29.0118  -24.1081   12.9720 C   0  0  1  0  0  0  0  0  0  0  0  0
  -27.9775  -14.7419   21.1392 C   0  0  1  0  0  0  0  0  0  0  0  0
  -24.4837  -14.3270   22.5502 C   0  0  2  0  0  0  0  0  0  0  0  0
  -27.2799  -22.3120   13.0873 C   0  0  1  0  0  0  0  0  0  0  0  0
  -28.9058  -13.5106   20.9399 C   0  0  0  0  0  0  0  0  0  0  0  0
  -27.4001  -29.3471   21.6112 N   0  0  0  0  0  0  0  0  0  0  0  0
  -29.0984  -25.0300   15.2965 N   0  0  0  0  0  0  0  0  0  0  0  0
  -27.6068  -25.9814   13.7300 N   0  0  0  0  0  0  0  0  0  0  0  0
  -26.9512  -28.0815   21.6634 N   0  0  0  0  0  0  0  0  0  0  0  0
  -28.7437  -17.0925   21.0325 N   0  0  0  0  0  0  0  0  0  0  0  0
  -29.5978  -26.2990   19.5653 N   0  0  0  0  0  0  0  0  0  0  0  0
  -25.0890  -26.7625   22.2984 N   0  0  0  0  0  0  0  0  0  0  0  0
  -23.7761  -30.9671   23.2951 N   0  0  0  0  0  0  0  0  0  0  0  0
  -28.7390  -26.3302   17.3689 N   0  0  0  0  0  0  0  0  0  0  0  0
  -31.8510  -18.9949   21.1797 N   0  0  0  0  0  0  0  0  0  0  0  0
  -26.8064  -14.4793   21.9686 N   0  0  0  0  0  0  0  0  0  0  0  0
  -23.2965  -15.2181   22.4183 N   0  3  0  0  0  0  0  0  0  0  0  0
  -28.7006  -22.6965   13.3160 N   0  3  0  0  0  0  0  0  0  0  0  0
  -23.1502  -28.7614   23.3386 O   0  0  0  0  0  0  0  0  0  0  0  0
  -31.0583  -17.1829   19.9507 O   0  0  0  0  0  0  0  0  0  0  0  0
  -29.1883  -15.7702   22.9007 O   0  0  0  0  0  0  0  0  0  0  0  0
  -25.2288  -15.0779   20.3780 O   0  0  0  0  0  0  0  0  0  0  0  0
  -30.3774  -24.8063   17.9816 O   0  0  0  0  0  0  0  0  0  0  0  0
  -26.7574  -35.6131   22.5456 O   0  0  0  0  0  0  0  0  0  0  0  0
  -26.5983  -20.2826   16.2082 O   0  0  0  0  0  0  0  0  0  1  0  0
  -25.0759  -37.9358   27.2554 F   0  0  0  0  0  0  0  0  0  0  0  0
  -24.1483  -35.3296   23.4144 F   0  0  0  0  0  0  0  0  0  0  0  0
  -27.3584  -26.8642   15.1299 S   0  0  0  0  0  0  0  0  0  0  0  0
  1  2  1  0  0  0  0
  1  5  2  0  0  0  0
  2  6  2  0  0  0  0
  3  8  2  0  0  0  0
  3 15  1  0  0  0  0
  4  9  1  0  0  0  0
  4 15  2  0  0  0  0
  5 17  1  0  0  0  0
  6 19  1  0  0  0  0
  7 10  2  0  0  0  0
  7 18  1  0  0  0  0
  8 21  1  0  0  0  0
  9 21  2  0  0  0  0
 10 22  1  0  0  0  0
 11 12  2  0  0  0  0
 11 23  1  0  0  0  0
 12 24  1  0  0  0  0
 13 20  1  0  0  0  0
 13 22  2  0  0  0  0
 14 24  2  0  0  0  0
 14 25  1  0  0  0  0
 15 26  1  0  0  0  0
 16 26  1  0  0  0  0
 16 27  2  0  0  0  0
 16 30  1  0  0  0  0
 17 19  2  0  0  0  0
 17 35  1  0  0  0  0
 18 20  2  0  0  0  0
 18 36  1  0  0  0  0
 19 44  1  0  0  0  0
 20 37  1  0  0  0  0
 21 79  1  0  0  0  0
 22 80  1  0  0  0  0
 23 25  2  0  0  0  0
 23 79  1  0  0  0  0
 24 81  1  0  0  0  0
 25 82  1  0  0  0  0
 26 61  2  0  0  0  0
 27 64  1  0  0  0  0
 27 67  1  0  0  0  0
 28 56  1  0  0  0  0
 28 62  1  0  0  0  0
 28 63  2  0  0  0  0
 29 62  2  0  0  0  0
 29 69  1  0  0  0  0
 29 83  1  0  0  0  0
 30 68  1  0  0  0  0
 30 74  2  0  0  0  0
 31 45  1  0  0  0  0
 31 70  1  0  0  0  0
 31 75  2  0  0  0  0
 32 57  1  0  0  0  0
 32 65  1  0  0  0  0
 32 76  2  0  0  0  0
 33 58  1  0  0  0  0
 33 71  1  0  0  0  0
 33 77  2  0  0  0  0
 34 66  1  0  0  0  0
 34 69  1  0  0  0  0
 34 78  2  0  0  0  0
 35 38  1  0  0  0  0
 36 45  1  0  0  0  0
 37 65  1  0  0  0  0
 38 40  1  0  0  0  0
 39 41  1  0  0  0  0
 39 42  1  0  0  0  0
 40 44  1  0  0  0  0
 41 46  1  0  0  0  0
 42 66  1  0  0  0  0
 43 46  1  0  0  0  0
 43 66  1  0  0  0  0
 44 70  1  0  0  0  0
 45 65  1  0  0  0  0
 46 64  1  0  0  0  0
 47 56  1  0  0  0  0
 48 58  1  0  0  0  0
 49 59  1  0  0  0  0
 50 60  1  0  0  0  0
 51 60  1  0  0  0  0
 52 60  1  0  0  0  0
 53 72  1  0  0  0  0
 54 55  1  0  0  0  0
 54 59  1  0  0  0  0
 55 80  1  0  0  0  0
 56 73  1  0  0  0  0
 57 60  1  0  0  0  0
 57 71  1  0  0  0  0
 58 72  1  0  0  0  0
 59 73  1  0  0  0  0
 61 64  1  0  0  0  0
 63 83  1  0  0  0  0
M  CHG  2  72   1  73   1
M  ISO  4  34 100  55 101  69 100  80 101
M  END
> <Batch ID>
0192

> <Smiles>
CNC(C)C(=O)NC(C(=O)N1Cc2cc([101O:1][101CH2:1]CC(C)NC(C)c3nsc([100NH:0][100C:0](=O)N4CCCC(n5nc(-c6ccc(Oc7ccc(F)cc7F)cc6)c(C(N)=O)c5N)C4)n3)ccc2CC1C(=O)NC1CCCc2ccccc21)C(C)(C)C

> <Shape>
0.232

> <Color>
0.056

> <Negative vol penalty>
0.000

$$$$

  -OEChem-04052305273D

 82 90  0     1  0  0  0  0  0999 V2000
  -24.9698  -34.1200   19.1779 C   0  0  0  0  0  0  0  0  0  0  0  0
  -25.7811  -33.1098   19.6845 C   0  0  0  0  0  0  0  0  0  0  0  0
  -24.5117   -9.7435   21.2916 C   0  0  0  0  0  0  0  0  0  0  0  0
  -24.9684  -10.7308   23.4488 C   0  0  0  0  0  0  0  0  0  0  0  0
  -23.6265  -34.1840   19.5458 C   0  0  0  0  0  0  0  0  0  0  0  0
  -25.2498  -32.1635   20.5601 C   0  0  0  0  0  0  0  0  0  0  0  0
  -26.6828  -27.4419   19.4210 C   0  0  0  0  0  0  0  0  0  0  0  0
  -24.2526   -8.5189   21.9069 C   0  0  0  0  0  0  0  0  0  0  0  0
  -24.7093   -9.5062   24.0642 C   0  0  0  0  0  0  0  0  0  0  0  0
  -27.9690  -27.0583   19.7983 C   0  0  0  0  0  0  0  0  0  0  0  0
  -23.1193   -5.2236   22.9424 C   0  0  0  0  0  0  0  0  0  0  0  0
  -21.9927   -4.5144   22.5264 C   0  0  0  0  0  0  0  0  0  0  0  0
  -27.0593  -25.9228   21.7225 C   0  0  0  0  0  0  0  0  0  0  0  0
  -20.5845   -6.3622   23.1896 C   0  0  0  0  0  0  0  0  0  0  0  0
  -27.3579  -20.1715   21.2856 C   0  0  0  0  0  0  0  0  0  0  0  0
  -24.8697  -10.8495   22.0625 C   0  0  0  0  0  0  0  0  0  0  0  0
  -24.2145  -13.1412   21.1534 C   0  0  0  0  0  0  0  0  0  0  0  0
  -23.0761  -33.2324   20.4188 C   0  0  0  0  0  0  0  0  0  0  0  0
  -25.5744  -27.0774   20.1988 C   0  0  0  0  0  0  0  0  0  0  0  0
  -23.8982  -32.2156   20.9411 C   0  0  0  0  0  0  0  0  0  0  0  0
  -25.7599  -26.3009   21.3515 C   0  0  0  0  0  0  0  0  0  0  0  0
  -24.3513   -8.4002   23.2932 C   0  0  0  0  0  0  0  0  0  0  0  0
  -28.1577  -26.3011   20.9508 C   0  0  0  0  0  0  0  0  0  0  0  0
  -22.9787   -6.5022   23.4821 C   0  0  0  0  0  0  0  0  0  0  0  0
  -20.7253   -5.0837   22.6500 C   0  0  0  0  0  0  0  0  0  0  0  0
  -21.7113   -7.0715   23.6057 C   0  0  0  0  0  0  0  0  0  0  0  0
  -25.1381  -12.1147   21.4274 C   0  0  0  0  0  0  0  0  0  0  0  0
  -28.4248  -19.4711   20.7628 C   0  0  0  0  0  0  0  0  0  0  0  0
  -24.9610  -14.1220   20.5474 C   0  0  0  0  0  0  0  0  0  0  0  0
  -29.1365  -21.5059   20.3590 C   0  0  0  0  0  0  0  0  0  0  0  0
  -22.8075  -13.2027   21.4227 C   0  0  0  0  0  0  0  0  0  0  0  0
  -23.3511  -28.6687   21.8202 C   0  0  0  0  0  0  0  0  0  0  0  0
  -22.0830  -25.7104   22.2235 C   0  0  0  0  0  0  0  0  0  0  0  0
  -22.5774  -22.3351   22.3222 C   0  0  0  0  0  0  0  0  0  0  0  0
  -29.5424  -17.2724   20.2500 C   0  0  0  0  0  0  0  0  0  0  0  0
  -21.6301  -33.3703   20.8248 C   0  0  0  0  0  0  0  0  0  0  0  0
  -24.1910  -27.4765   19.7636 C   0  0  0  0  0  0  0  0  0  0  0  0
  -24.6011  -25.8665   22.2100 C   0  0  0  0  0  0  0  0  0  0  0  0
  -21.0538  -32.1091   21.4632 C   0  0  0  0  0  0  0  0  0  0  0  0
  -29.7035  -14.0333   18.7804 C   0  0  0  0  0  0  0  0  0  0  0  0
  -22.0147  -31.5533   22.5094 C   0  0  0  0  0  0  0  0  0  0  0  0
  -28.4541  -13.3299   19.3155 C   0  0  0  0  0  0  0  0  0  0  0  0
  -30.3287  -14.9533   19.8275 C   0  0  0  0  0  0  0  0  0  0  0  0
  -28.1587  -15.2244   20.9619 C   0  0  0  0  0  0  0  0  0  0  0  0
  -23.3526  -31.1562   21.8739 C   0  0  1  0  0  0  0  0  0  0  0  0
  -23.1836  -27.4855   20.9093 C   0  0  1  0  0  0  0  0  0  0  0  0
  -27.4566  -14.3365   19.9215 C   0  0  2  0  0  0  0  0  0  0  0  0
  -21.3587  -20.1762   22.7111 C   0  0  0  0  0  0  0  0  0  0  0  0
  -22.0657  -26.2635   25.2241 C   0  0  0  0  0  0  0  0  0  0  0  0
  -21.7584  -23.8081   25.6044 C   0  0  0  0  0  0  0  0  0  0  0  0
  -20.0234  -25.1033   24.3654 C   0  0  0  0  0  0  0  0  0  0  0  0
  -23.2058  -21.3557   19.6010 C   0  0  0  0  0  0  0  0  0  0  0  0
  -30.0067  -22.6477   19.8932 C   0  0  0  0  0  0  0  0  0  0  0  0
  -30.3664  -25.7299   20.2790 C   0  0  0  0  0  0  0  0  0  1  0  0
  -22.2370  -24.6117   23.2472 C   0  0  1  0  0  0  0  0  0  0  0  0
  -21.8238  -21.1873   21.6748 C   0  0  2  0  0  0  0  0  0  0  0  0
  -31.4216  -24.6915   20.6903 C   0  0  2  0  0  0  0  0  0  0  0  0
  -30.8195  -23.3026   21.0258 C   0  0  2  0  0  0  0  0  0  0  0  0
  -21.5434  -24.9563   24.5954 C   0  0  0  0  0  0  0  0  0  0  0  0
  -26.3767  -12.4154   21.0281 N   0  0  0  0  0  0  0  0  0  0  0  0
  -29.4454  -20.2346   20.2306 N   0  0  0  0  0  0  0  0  0  0  0  0
  -26.2366  -13.6419   20.4969 N   0  0  0  0  0  0  0  0  0  0  0  0
  -23.2686  -26.2869   21.7462 N   0  0  0  0  0  0  0  0  0  0  0  0
  -29.3261  -15.8820   20.3539 N   0  0  0  0  0  0  0  0  0  0  0  0
  -24.6441  -15.3396   20.0580 N   0  0  0  0  0  0  0  0  0  0  0  0
  -22.1992  -12.1079   22.0517 N   0  0  0  0  0  0  0  0  0  0  0  0
  -32.2042  -25.2405   21.8003 N   0  0  0  0  0  0  0  0  0  0  0  0
  -28.5059  -18.0565   20.7555 N   0  0  0  0  0  0  0  0  0  0  0  0
  -23.2287  -29.8897   21.1848 N   0  0  0  0  0  0  0  0  0  0  0  0
  -21.7431  -23.3929   22.6155 N   0  0  0  0  0  0  0  0  0  0  0  0
  -31.9172  -22.3517   21.3895 N   0  3  0  0  0  0  0  0  0  0  0  0
  -22.6954  -20.4849   20.6910 N   0  3  0  0  0  0  0  0  0  0  0  0
  -22.1074  -14.1921   21.0998 O   0  0  0  0  0  0  0  0  0  0  0  0
  -23.5735  -28.4873   23.0115 O   0  0  0  0  0  0  0  0  0  0  0  0
  -20.9527  -26.0399   21.8554 O   0  0  0  0  0  0  0  0  0  0  0  0
  -23.7848  -22.2956   22.5487 O   0  0  0  0  0  0  0  0  0  0  0  0
  -30.5590  -17.7336   19.7248 O   0  0  0  0  0  0  0  0  0  0  0  0
  -24.0983   -7.2054   23.8940 O   0  0  0  0  0  0  0  0  0  0  0  0
  -29.4121  -25.9259   21.3217 O   0  0  0  0  0  0  0  0  0  1  0  0
  -19.6435   -4.4031   22.2490 F   0  0  0  0  0  0  0  0  0  0  0  0
  -21.5699   -8.2999   24.1223 F   0  0  0  0  0  0  0  0  0  0  0  0
  -27.6340  -21.8552   21.1110 S   0  0  0  0  0  0  0  0  0  0  0  0
  1  2  1  0  0  0  0
  1  5  2  0  0  0  0
  2  6  2  0  0  0  0
  3  8  2  0  0  0  0
  3 16  1  0  0  0  0
  4  9  1  0  0  0  0
  4 16  2  0  0  0  0
  5 18  1  0  0  0  0
  6 20  1  0  0  0  0
  7 10  2  0  0  0  0
  7 19  1  0  0  0  0
  8 22  1  0  0  0  0
  9 22  2  0  0  0  0
 10 23  1  0  0  0  0
 11 12  2  0  0  0  0
 11 24  1  0  0  0  0
 12 25  1  0  0  0  0
 13 21  1  0  0  0  0
 13 23  2  0  0  0  0
 14 25  2  0  0  0  0
 14 26  1  0  0  0  0
 15 28  2  0  0  0  0
 15 82  1  0  0  0  0
 16 27  1  0  0  0  0
 17 27  1  0  0  0  0
 17 29  2  0  0  0  0
 17 31  1  0  0  0  0
 18 20  2  0  0  0  0
 18 36  1  0  0  0  0
 19 21  2  0  0  0  0
 19 37  1  0  0  0  0
 20 45  1  0  0  0  0
 21 38  1  0  0  0  0
 22 78  1  0  0  0  0
 23 79  1  0  0  0  0
 24 26  2  0  0  0  0
 24 78  1  0  0  0  0
 25 80  1  0  0  0  0
 26 81  1  0  0  0  0
 27 60  2  0  0  0  0
 28 61  1  0  0  0  0
 28 68  1  0  0  0  0
 29 62  1  0  0  0  0
 29 65  1  0  0  0  0
 30 53  1  0  0  0  0
 30 61  2  0  0  0  0
 30 82  1  0  0  0  0
 31 66  1  0  0  0  0
 31 73  2  0  0  0  0
 32 46  1  0  0  0  0
 32 69  1  0  0  0  0
 32 74  2  0  0  0  0
 33 55  1  0  0  0  0
 33 63  1  0  0  0  0
 33 75  2  0  0  0  0
 34 56  1  0  0  0  0
 34 70  1  0  0  0  0
 34 76  2  0  0  0  0
 35 64  1  0  0  0  0
 35 68  1  0  0  0  0
 35 77  2  0  0  0  0
 36 39  1  0  0  0  0
 37 46  1  0  0  0  0
 38 63  1  0  0  0  0
 39 41  1  0  0  0  0
 40 42  1  0  0  0  0
 40 43  1  0  0  0  0
 41 45  1  0  0  0  0
 42 47  1  0  0  0  0
 43 64  1  0  0  0  0
 44 47  1  0  0  0  0
 44 64  1  0  0  0  0
 45 69  1  0  0  0  0
 46 63  1  0  0  0  0
 47 62  1  0  0  0  0
 48 56  1  0  0  0  0
 49 59  1  0  0  0  0
 50 59  1  0  0  0  0
 51 59  1  0  0  0  0
 52 72  1  0  0  0  0
 53 58  1  0  0  0  0
 54 57  1  0  0  0  0
 54 79  1  0  0  0  0
 55 59  1  0  0  0  0
 55 70  1  0  0  0  0
 56 72  1  0  0  0  0
 57 58  1  0  0  0  0
 57 67  1  0  0  0  0
 58 71  1  0  0  0  0
 60 62  1  0  0  0  0
M  CHG  2  71   1  72   1
M  ISO  4  35 100  54 101  68 100  79 101
M  END
> <Batch ID>
0192

> <Smiles>
CNC(C)C(=O)NC(C(=O)N1Cc2cc([101O:1][101CH2:1]C(N)C(N)Cc3nc([100NH:0][100C:0](=O)N4CCCC(n5nc(-c6ccc(Oc7ccc(F)cc7F)cc6)c(C(N)=O)c5N)C4)cs3)ccc2CC1C(=O)NC1CCCc2ccccc21)C(C)(C)C

> <Shape>
0.261

> <Color>
0.125

> <Negative vol penalty>
0.000

$$$$

  -OEChem-04052305273D

 87 95  0     1  0  0  0  0  0999 V2000
  -32.3255  -12.3233   21.9569 C   0  0  0  0  0  0  0  0  0  0  0  0
  -32.4040  -13.6840   21.6783 C   0  0  0  0  0  0  0  0  0  0  0  0
  -21.4938  -25.1367   24.0348 C   0  0  0  0  0  0  0  0  0  0  0  0
  -22.2168  -27.3016   23.2427 C   0  0  0  0  0  0  0  0  0  0  0  0
  -31.3213  -11.5506   21.3751 C   0  0  0  0  0  0  0  0  0  0  0  0
  -31.4788  -14.2727   20.8168 C   0  0  0  0  0  0  0  0  0  0  0  0
  -29.1776  -19.9352   21.1982 C   0  0  0  0  0  0  0  0  0  0  0  0
  -20.3700  -25.7244   24.6155 C   0  0  0  0  0  0  0  0  0  0  0  0
  -21.0929  -27.8894   23.8233 C   0  0  0  0  0  0  0  0  0  0  0  0
  -29.5033  -21.1257   20.5499 C   0  0  0  0  0  0  0  0  0  0  0  0
  -18.2281  -29.9094   24.7879 C   0  0  0  0  0  0  0  0  0  0  0  0
  -17.5206  -30.8442   24.0320 C   0  0  0  0  0  0  0  0  0  0  0  0
  -27.7546  -20.7195   18.9385 C   0  0  0  0  0  0  0  0  0  0  0  0
  -17.0986  -29.1635   22.3485 C   0  0  0  0  0  0  0  0  0  0  0  0
  -32.9080  -28.0177   21.9427 C   0  0  0  0  0  0  0  0  0  0  0  0
  -22.4173  -25.9253   23.3485 C   0  0  0  0  0  0  0  0  0  0  0  0
  -23.6906  -24.8040   21.4435 C   0  0  0  0  0  0  0  0  0  0  0  0
  -30.3776  -12.1319   20.5137 C   0  0  0  0  0  0  0  0  0  0  0  0
  -28.1434  -19.1211   20.7144 C   0  0  0  0  0  0  0  0  0  0  0  0
  -30.4619  -13.5067   20.2220 C   0  0  0  0  0  0  0  0  0  0  0  0
  -27.4161  -19.5204   19.5841 C   0  0  0  0  0  0  0  0  0  0  0  0
  -20.1695  -27.1008   24.5097 C   0  0  0  0  0  0  0  0  0  0  0  0
  -28.7937  -21.5166   19.4181 C   0  0  0  0  0  0  0  0  0  0  0  0
  -18.3709  -28.6017   24.3240 C   0  0  0  0  0  0  0  0  0  0  0  0
  -16.9559  -30.4712   22.8123 C   0  0  0  0  0  0  0  0  0  0  0  0
  -17.8061  -28.2287   23.1043 C   0  0  0  0  0  0  0  0  0  0  0  0
  -23.5787  -25.3189   22.7489 C   0  0  0  0  0  0  0  0  0  0  0  0
  -31.5774  -27.7465   22.1835 C   0  0  0  0  0  0  0  0  0  0  0  0
  -24.9827  -24.3448   21.3651 C   0  0  0  0  0  0  0  0  0  0  0  0
  -31.6762  -27.0838   20.0952 C   0  0  0  0  0  0  0  0  0  0  0  0
  -22.7140  -24.7461   20.3954 C   0  0  0  0  0  0  0  0  0  0  0  0
  -27.9646  -16.1548   19.5862 C   0  0  0  0  0  0  0  0  0  0  0  0
  -29.0706  -27.3586   18.3786 C   0  0  0  0  0  0  0  0  0  0  0  0
  -24.7765  -16.7527   19.6131 C   0  0  0  0  0  0  0  0  0  0  0  0
  -22.2603  -19.0573   19.5455 C   0  0  0  0  0  0  0  0  0  0  0  0
  -30.0095  -25.7962   24.2765 C   0  0  0  0  0  0  0  0  0  0  0  0
  -29.3388  -11.2469   19.8715 C   0  0  0  0  0  0  0  0  0  0  0  0
  -27.7867  -17.8532   21.4409 C   0  0  0  0  0  0  0  0  0  0  0  0
  -26.2836  -18.6922   19.0364 C   0  0  0  0  0  0  0  0  0  0  0  0
  -28.1711  -12.0202   19.2643 C   0  0  0  0  0  0  0  0  0  0  0  0
  -28.4999  -22.5774   24.0848 C   0  0  0  0  0  0  0  0  0  0  0  0
  -28.6817  -13.1967   18.4385 C   0  0  0  0  0  0  0  0  0  0  0  0
  -27.0776  -22.8685   23.6029 C   0  0  0  0  0  0  0  0  0  0  0  0
  -29.0072  -23.6611   25.0335 C   0  0  0  0  0  0  0  0  0  0  0  0
  -27.4969  -25.3271   24.0251 C   0  0  0  0  0  0  0  0  0  0  0  0
  -29.4618  -14.1865   19.3121 C   0  0  1  0  0  0  0  0  0  0  0  0
  -27.0532  -16.8462   20.5604 C   0  0  1  0  0  0  0  0  0  0  0  0
  -26.9625  -24.2907   23.0219 C   0  0  2  0  0  0  0  0  0  0  0  0
  -27.4744  -27.6412   20.3191 C   0  0  0  0  0  0  0  0  0  0  0  0
  -19.7577  -19.2418   19.5411 C   0  0  0  0  0  0  0  0  0  0  0  0
  -30.3836  -25.8929   16.0824 C   0  0  0  0  0  0  0  0  0  0  0  0
  -24.7229  -15.9227   16.6774 C   0  0  0  0  0  0  0  0  0  0  0  0
  -22.4766  -17.0110   16.4829 C   0  0  0  0  0  0  0  0  0  0  0  0
  -22.7967  -15.0838   18.0340 C   0  0  0  0  0  0  0  0  0  0  0  0
  -22.2519  -20.5752   22.0861 C   0  0  0  0  0  0  0  0  0  0  0  0
  -30.8674  -27.9762   23.4575 C   0  0  0  0  0  0  0  0  0  0  0  0
  -27.6336  -27.2429   18.8629 C   0  0  0  0  0  0  0  0  0  0  0  0
  -30.8330  -23.8987   17.5957 C   0  0  0  0  0  0  0  0  0  0  0  0
  -30.4700  -23.1048   18.8493 C   0  0  0  0  0  0  0  0  0  1  0  0
  -29.9507  -26.1262   18.5683 C   0  0  1  0  0  0  0  0  0  0  0  0
  -23.7891  -17.3318   18.6289 C   0  0  1  0  0  0  0  0  0  0  0  0
  -21.0138  -19.2130   20.3978 C   0  0  2  0  0  0  0  0  0  0  0  0
  -29.9643  -25.1585   17.3614 C   0  0  1  0  0  0  0  0  0  0  0  0
  -23.4689  -16.3522   17.4647 C   0  0  0  0  0  0  0  0  0  0  0  0
  -24.7095  -25.1982   23.4495 N   0  0  0  0  0  0  0  0  0  0  0  0
  -30.8694  -27.2113   21.1252 N   0  0  0  0  0  0  0  0  0  0  0  0
  -25.5442  -24.6022   22.5811 N   0  0  0  0  0  0  0  0  0  0  0  0
  -25.9771  -17.4579   19.7780 N   0  0  0  0  0  0  0  0  0  0  0  0
  -28.8718  -24.9853   24.4220 N   0  0  0  0  0  0  0  0  0  0  0  0
  -25.6820  -23.7499   20.3754 N   0  0  0  0  0  0  0  0  0  0  0  0
  -21.4354  -25.2633   20.6442 N   0  0  0  0  0  0  0  0  0  0  0  0
  -31.2957  -26.5790   18.8659 N   0  0  0  0  0  0  0  0  0  0  0  0
  -28.5518  -15.0067   20.0826 N   0  0  0  0  0  0  0  0  0  0  0  0
  -22.6237  -17.7342   19.4089 N   0  0  0  0  0  0  0  0  0  0  0  0
  -29.7943  -27.0333   23.6814 N   0  0  0  0  0  0  0  0  0  0  0  0
  -21.0772  -20.4788   21.1818 N   0  3  0  0  0  0  0  0  0  0  0  0
  -22.9627  -24.2356   19.2769 O   0  0  0  0  0  0  0  0  0  0  0  0
  -28.1223  -16.6272   18.4665 O   0  0  0  0  0  0  0  0  0  0  0  0
  -29.5088  -28.3963   17.8809 O   0  0  0  0  0  0  0  0  0  0  0  0
  -24.4901  -15.7169   20.2187 O   0  0  0  0  0  0  0  0  0  0  0  0
  -22.8504  -20.0135   19.0474 O   0  0  0  0  0  0  0  0  0  0  0  0
  -31.1346  -25.4418   24.6445 O   0  0  0  0  0  0  0  0  0  0  0  0
  -19.0728  -27.6746   25.0759 O   0  0  0  0  0  0  0  0  0  0  0  0
  -29.1100  -22.6778   18.7830 O   0  0  0  0  0  0  0  0  0  1  0  0
  -16.2752  -31.3686   22.0874 F   0  0  0  0  0  0  0  0  0  0  0  0
  -17.9389  -26.9735   22.6540 F   0  0  0  0  0  0  0  0  0  0  0  0
  -33.3000  -27.5873   20.3294 S   0  0  0  0  0  0  0  0  0  0  0  0
  1  2  1  0  0  0  0
  1  5  2  0  0  0  0
  2  6  2  0  0  0  0
  3  8  2  0  0  0  0
  3 16  1  0  0  0  0
  4  9  1  0  0  0  0
  4 16  2  0  0  0  0
  5 18  1  0  0  0  0
  6 20  1  0  0  0  0
  7 10  2  0  0  0  0
  7 19  1  0  0  0  0
  8 22  1  0  0  0  0
  9 22  2  0  0  0  0
 10 23  1  0  0  0  0
 11 12  2  0  0  0  0
 11 24  1  0  0  0  0
 12 25  1  0  0  0  0
 13 21  1  0  0  0  0
 13 23  2  0  0  0  0
 14 25  2  0  0  0  0
 14 26  1  0  0  0  0
 15 28  2  0  0  0  0
 15 87  1  0  0  0  0
 16 27  1  0  0  0  0
 17 27  1  0  0  0  0
 17 29  2  0  0  0  0
 17 31  1  0  0  0  0
 18 20  2  0  0  0  0
 18 37  1  0  0  0  0
 19 21  2  0  0  0  0
 19 38  1  0  0  0  0
 20 46  1  0  0  0  0
 21 39  1  0  0  0  0
 22 83  1  0  0  0  0
 23 84  1  0  0  0  0
 24 26  2  0  0  0  0
 24 83  1  0  0  0  0
 25 85  1  0  0  0  0
 26 86  1  0  0  0  0
 27 65  2  0  0  0  0
 28 56  1  0  0  0  0
 28 66  1  0  0  0  0
 29 67  1  0  0  0  0
 29 70  1  0  0  0  0
 30 66  2  0  0  0  0
 30 72  1  0  0  0  0
 30 87  1  0  0  0  0
 31 71  1  0  0  0  0
 31 77  2  0  0  0  0
 32 47  1  0  0  0  0
 32 73  1  0  0  0  0
 32 78  2  0  0  0  0
 33 57  1  0  0  0  0
 33 60  1  0  0  0  0
 33 79  2  0  0  0  0
 34 61  1  0  0  0  0
 34 68  1  0  0  0  0
 34 80  2  0  0  0  0
 35 62  1  0  0  0  0
 35 74  1  0  0  0  0
 35 81  2  0  0  0  0
 36 69  1  0  0  0  0
 36 75  1  0  0  0  0
 36 82  2  0  0  0  0
 37 40  1  0  0  0  0
 38 47  1  0  0  0  0
 39 68  1  0  0  0  0
 40 42  1  0  0  0  0
 41 43  1  0  0  0  0
 41 44  1  0  0  0  0
 42 46  1  0  0  0  0
 43 48  1  0  0  0  0
 44 69  1  0  0  0  0
 45 48  1  0  0  0  0
 45 69  1  0  0  0  0
 46 73  1  0  0  0  0
 47 68  1  0  0  0  0
 48 67  1  0  0  0  0
 49 57  1  0  0  0  0
 50 62  1  0  0  0  0
 51 63  1  0  0  0  0
 52 64  1  0  0  0  0
 53 64  1  0  0  0  0
 54 64  1  0  0  0  0
 55 76  1  0  0  0  0
 56 75  1  0  0  0  0
 58 59  1  0  0  0  0
 58 63  1  0  0  0  0
 59 84  1  0  0  0  0
 60 63  1  0  0  0  0
 60 72  1  0  0  0  0
 61 64  1  0  0  0  0
 61 74  1  0  0  0  0
 62 76  1  0  0  0  0
 65 67  1  0  0  0  0
M  CHG  1  76   1
M  ISO  4  36 100  59 101  75 100  84 101
M  END
> <Batch ID>
0192

> <Smiles>
CCC(=O)C(Nc1nc(C[100NH:0][100C:0](=O)N2CCCC(n3nc(-c4ccc(Oc5ccc(F)cc5F)cc4)c(C(N)=O)c3N)C2)cs1)C(C)C[101CH2:1][101O:1]c1ccc2c(c1)CN(C(=O)C(NC(=O)C(C)NC)C(C)(C)C)C(C(=O)NC1CCCc3ccccc31)C2

> <Shape>
0.194

> <Color>
0.054

> <Negative vol penalty>
0.000

$$$$

  -OEChem-04052305273D

 83 91  0     1  0  0  0  0  0999 V2000
  -27.4566  -33.9058   26.0581 C   0  0  0  0  0  0  0  0  0  0  0  0
  -27.6966  -32.5478   25.8744 C   0  0  0  0  0  0  0  0  0  0  0  0
  -26.8940  -12.8263   21.0538 C   0  0  0  0  0  0  0  0  0  0  0  0
  -26.7956  -13.1924   18.6677 C   0  0  0  0  0  0  0  0  0  0  0  0
  -26.2332  -34.4543   25.6756 C   0  0  0  0  0  0  0  0  0  0  0  0
  -26.7128  -31.7373   25.3090 C   0  0  0  0  0  0  0  0  0  0  0  0
  -28.5660  -28.5963   21.7956 C   0  0  0  0  0  0  0  0  0  0  0  0
  -26.3325  -11.5610   20.8828 C   0  0  0  0  0  0  0  0  0  0  0  0
  -26.2341  -11.9270   18.4967 C   0  0  0  0  0  0  0  0  0  0  0  0
  -29.2336  -27.4586   22.2471 C   0  0  0  0  0  0  0  0  0  0  0  0
  -23.2623  -10.2492   20.3560 C   0  0  0  0  0  0  0  0  0  0  0  0
  -22.2377   -9.8729   21.2244 C   0  0  0  0  0  0  0  0  0  0  0  0
  -27.2513  -26.1436   21.8460 C   0  0  0  0  0  0  0  0  0  0  0  0
  -23.5651   -8.0007   21.9794 C   0  0  0  0  0  0  0  0  0  0  0  0
  -29.0940  -23.9276   16.5060 C   0  0  0  0  0  0  0  0  0  0  0  0
  -27.1254  -13.6421   19.9462 C   0  0  0  0  0  0  0  0  0  0  0  0
  -29.0731  -15.2808   20.1164 C   0  0  0  0  0  0  0  0  0  0  0  0
  -25.2375  -33.6520   25.0964 C   0  0  0  0  0  0  0  0  0  0  0  0
  -27.2304  -28.5181   21.3755 C   0  0  0  0  0  0  0  0  0  0  0  0
  -25.4744  -32.2754   24.9196 C   0  0  0  0  0  0  0  0  0  0  0  0
  -26.5699  -27.2813   21.3873 C   0  0  0  0  0  0  0  0  0  0  0  0
  -26.0026  -11.1113   19.6043 C   0  0  0  0  0  0  0  0  0  0  0  0
  -28.5754  -26.2326   22.2751 C   0  0  0  0  0  0  0  0  0  0  0  0
  -24.4384   -9.5012   20.2992 C   0  0  0  0  0  0  0  0  0  0  0  0
  -22.3891   -8.7487   22.0361 C   0  0  0  0  0  0  0  0  0  0  0  0
  -24.5898   -8.3770   21.1109 C   0  0  0  0  0  0  0  0  0  0  0  0
  -27.7048  -14.9495   20.1222 C   0  0  0  0  0  0  0  0  0  0  0  0
  -28.3995  -23.0491   17.3110 C   0  0  0  0  0  0  0  0  0  0  0  0
  -29.0985  -16.6385   20.3228 C   0  0  0  0  0  0  0  0  0  0  0  0
  -29.9611  -23.6364   18.7345 C   0  0  0  0  0  0  0  0  0  0  0  0
  -30.2186  -14.4368   19.9401 C   0  0  0  0  0  0  0  0  0  0  0  0
  -24.4938  -29.8103   22.3477 C   0  0  0  0  0  0  0  0  0  0  0  0
  -23.3198  -28.3689   19.6894 C   0  0  0  0  0  0  0  0  0  0  0  0
  -23.6296  -25.8959   17.3582 C   0  0  0  0  0  0  0  0  0  0  0  0
  -26.1213  -21.4193   18.9832 C   0  0  0  0  0  0  0  0  0  0  0  0
  -23.9133  -34.2809   24.7423 C   0  0  0  0  0  0  0  0  0  0  0  0
  -26.5327  -29.7494   20.8661 C   0  0  0  0  0  0  0  0  0  0  0  0
  -25.1425  -27.1402   20.9278 C   0  0  0  0  0  0  0  0  0  0  0  0
  -23.0636  -33.4255   23.8061 C   0  0  0  0  0  0  0  0  0  0  0  0
  -25.9365  -19.9350   22.2142 C   0  0  0  0  0  0  0  0  0  0  0  0
  -23.0342  -31.9776   24.2853 C   0  0  0  0  0  0  0  0  0  0  0  0
  -26.5009  -18.5289   22.0036 C   0  0  0  0  0  0  0  0  0  0  0  0
  -25.1228  -20.4028   21.0096 C   0  0  0  0  0  0  0  0  0  0  0  0
  -26.3938  -18.9197   19.5067 C   0  0  0  0  0  0  0  0  0  0  0  0
  -24.4414  -31.3683   24.2869 C   0  0  1  0  0  0  0  0  0  0  0  0
  -25.0125  -29.6512   20.9465 C   0  0  1  0  0  0  0  0  0  0  0  0
  -27.2686  -18.4265   20.6719 C   0  0  2  0  0  0  0  0  0  0  0  0
  -22.4959  -24.9468   15.3305 C   0  0  0  0  0  0  0  0  0  0  0  0
  -30.8661  -21.5198   20.8972 C   0  0  0  0  0  0  0  0  0  0  0  0
  -21.2231  -27.0591   21.4778 C   0  0  0  0  0  0  0  0  0  0  0  0
  -20.7540  -25.4420   19.6250 C   0  0  0  0  0  0  0  0  0  0  0  0
  -20.3546  -27.8802   19.2810 C   0  0  0  0  0  0  0  0  0  0  0  0
  -25.9756  -26.4536   15.6423 C   0  0  0  0  0  0  0  0  0  0  0  0
  -27.1921  -22.2936   16.9221 C   0  0  0  0  0  0  0  0  0  0  0  0
  -30.6363  -25.0703   22.5149 C   0  0  0  0  0  0  0  0  0  1  0  0
  -22.7281  -27.0149   19.3804 C   0  0  1  0  0  0  0  0  0  0  0  0
  -23.5430  -25.9234   15.8429 C   0  0  2  0  0  0  0  0  0  0  0  0
  -30.4028  -22.9610   21.0955 C   0  0  1  0  0  0  0  0  0  0  0  0
  -31.0543  -23.6129   22.3262 C   0  0  1  0  0  0  0  0  0  0  0  0
  -21.2912  -26.8517   19.9516 C   0  0  0  0  0  0  0  0  0  0  0  0
  -26.9181  -16.0112   20.3170 N   0  0  0  0  0  0  0  0  0  0  0  0
  -28.8955  -22.8805   18.5890 N   0  0  0  0  0  0  0  0  0  0  0  0
  -27.7947  -17.0228   20.4356 N   0  0  0  0  0  0  0  0  0  0  0  0
  -24.5012  -28.3742   20.4444 N   0  0  0  0  0  0  0  0  0  0  0  0
  -25.9086  -20.2817   19.7792 N   0  0  0  0  0  0  0  0  0  0  0  0
  -30.1086  -17.5291   20.4170 N   0  0  0  0  0  0  0  0  0  0  0  0
  -30.0132  -13.0651   19.7389 N   0  0  0  0  0  0  0  0  0  0  0  0
  -30.7099  -23.7119   19.8943 N   0  0  0  0  0  0  0  0  0  0  0  0
  -24.8382  -31.0092   22.9423 N   0  0  0  0  0  0  0  0  0  0  0  0
  -22.8181  -26.8507   17.9336 N   0  0  0  0  0  0  0  0  0  0  0  0
  -26.8820  -21.2184   17.8379 N   0  0  0  0  0  0  0  0  0  0  0  0
  -24.8578  -25.5606   15.2422 N   0  3  0  0  0  0  0  0  0  0  0  0
  -31.3903  -14.8832   19.9768 O   0  0  0  0  0  0  0  0  0  0  0  0
  -23.8292  -28.9125   22.8515 O   0  0  0  0  0  0  0  0  0  0  0  0
  -22.7585  -29.3842   19.2702 O   0  0  0  0  0  0  0  0  0  0  0  0
  -24.3427  -25.1039   17.9703 O   0  0  0  0  0  0  0  0  0  0  0  0
  -25.6716  -22.5328   19.2747 O   0  0  0  0  0  0  0  0  0  0  0  0
  -32.4766  -23.5471   22.2094 O   0  0  0  0  0  0  0  0  0  0  0  0
  -25.4550   -9.8765   19.4371 O   0  0  0  0  0  0  0  0  0  0  0  0
  -29.2244  -25.1207   22.7159 O   0  0  0  0  0  0  0  0  0  1  0  0
  -21.4057   -8.3884   22.8711 F   0  0  0  0  0  0  0  0  0  0  0  0
  -25.7177   -7.6551   21.0616 F   0  0  0  0  0  0  0  0  0  0  0  0
  -30.4228  -24.5763   17.3749 S   0  0  0  0  0  0  0  0  0  0  0  0
  1  2  1  0  0  0  0
  1  5  2  0  0  0  0
  2  6  2  0  0  0  0
  3  8  2  0  0  0  0
  3 16  1  0  0  0  0
  4  9  1  0  0  0  0
  4 16  2  0  0  0  0
  5 18  1  0  0  0  0
  6 20  1  0  0  0  0
  7 10  2  0  0  0  0
  7 19  1  0  0  0  0
  8 22  1  0  0  0  0
  9 22  2  0  0  0  0
 10 23  1  0  0  0  0
 11 12  2  0  0  0  0
 11 24  1  0  0  0  0
 12 25  1  0  0  0  0
 13 21  1  0  0  0  0
 13 23  2  0  0  0  0
 14 25  2  0  0  0  0
 14 26  1  0  0  0  0
 15 28  2  0  0  0  0
 15 83  1  0  0  0  0
 16 27  1  0  0  0  0
 17 27  1  0  0  0  0
 17 29  2  0  0  0  0
 17 31  1  0  0  0  0
 18 20  2  0  0  0  0
 18 36  1  0  0  0  0
 19 21  2  0  0  0  0
 19 37  1  0  0  0  0
 20 45  1  0  0  0  0
 21 38  1  0  0  0  0
 22 79  1  0  0  0  0
 23 80  1  0  0  0  0
 24 26  2  0  0  0  0
 24 79  1  0  0  0  0
 25 81  1  0  0  0  0
 26 82  1  0  0  0  0
 27 61  2  0  0  0  0
 28 54  1  0  0  0  0
 28 62  1  0  0  0  0
 29 63  1  0  0  0  0
 29 66  1  0  0  0  0
 30 62  2  0  0  0  0
 30 68  1  0  0  0  0
 30 83  1  0  0  0  0
 31 67  1  0  0  0  0
 31 73  2  0  0  0  0
 32 46  1  0  0  0  0
 32 69  1  0  0  0  0
 32 74  2  0  0  0  0
 33 56  1  0  0  0  0
 33 64  1  0  0  0  0
 33 75  2  0  0  0  0
 34 57  1  0  0  0  0
 34 70  1  0  0  0  0
 34 76  2  0  0  0  0
 35 65  1  0  0  0  0
 35 71  1  0  0  0  0
 35 77  2  0  0  0  0
 36 39  1  0  0  0  0
 37 46  1  0  0  0  0
 38 64  1  0  0  0  0
 39 41  1  0  0  0  0
 40 42  1  0  0  0  0
 40 43  1  0  0  0  0
 41 45  1  0  0  0  0
 42 47  1  0  0  0  0
 43 65  1  0  0  0  0
 44 47  1  0  0  0  0
 44 65  1  0  0  0  0
 45 69  1  0  0  0  0
 46 64  1  0  0  0  0
 47 63  1  0  0  0  0
 48 57  1  0  0  0  0
 49 58  1  0  0  0  0
 50 60  1  0  0  0  0
 51 60  1  0  0  0  0
 52 60  1  0  0  0  0
 53 72  1  0  0  0  0
 54 71  1  0  0  0  0
 55 59  1  0  0  0  0
 55 80  1  0  0  0  0
 56 60  1  0  0  0  0
 56 70  1  0  0  0  0
 57 72  1  0  0  0  0
 58 59  1  0  0  0  0
 58 68  1  0  0  0  0
 59 78  1  0  0  0  0
 61 63  1  0  0  0  0
M  CHG  1  72   1
M  ISO  4  35 100  55 101  71 100  80 101
M  END
> <Batch ID>
0192

> <Smiles>
CNC(C)C(=O)NC(C(=O)N1Cc2cc([101O:1][101CH2:1]C(O)C(C)Nc3nc(C[100NH:0][100C:0](=O)N4CCCC(n5nc(-c6ccc(Oc7ccc(F)cc7F)cc6)c(C(N)=O)c5N)C4)cs3)ccc2CC1C(=O)NC1CCCc2ccccc21)C(C)(C)C

> <Shape>
0.259

> <Color>
0.088

> <Negative vol penalty>
0.000

$$$$

  -OEChem-04052305273D

 88 96  0     1  0  0  0  0  0999 V2000
  -19.9325  -33.2272   15.7152 C   0  0  0  0  0  0  0  0  0  0  0  0
  -20.9242  -32.2522   15.7501 C   0  0  0  0  0  0  0  0  0  0  0  0
  -24.0244  -11.4072   19.7606 C   0  0  0  0  0  0  0  0  0  0  0  0
  -25.2717  -12.0273   21.7346 C   0  0  0  0  0  0  0  0  0  0  0  0
  -19.9948  -34.3147   16.5856 C   0  0  0  0  0  0  0  0  0  0  0  0
  -21.9794  -32.3645   16.6548 C   0  0  0  0  0  0  0  0  0  0  0  0
  -24.8635  -27.7927   19.5334 C   0  0  0  0  0  0  0  0  0  0  0  0
  -24.3098  -10.0635   20.0023 C   0  0  0  0  0  0  0  0  0  0  0  0
  -25.5571  -10.6835   21.9763 C   0  0  0  0  0  0  0  0  0  0  0  0
  -26.0630  -27.1305   19.2755 C   0  0  0  0  0  0  0  0  0  0  0  0
  -24.4070   -6.4417   20.2999 C   0  0  0  0  0  0  0  0  0  0  0  0
  -23.3631   -5.5247   20.1775 C   0  0  0  0  0  0  0  0  0  0  0  0
  -27.1931  -28.5829   20.8352 C   0  0  0  0  0  0  0  0  0  0  0  0
  -22.1407   -6.6853   21.9084 C   0  0  0  0  0  0  0  0  0  0  0  0
  -30.2616  -19.9455   22.7076 C   0  0  0  0  0  0  0  0  0  0  0  0
  -24.5053  -12.3892   20.6267 C   0  0  0  0  0  0  0  0  0  0  0  0
  -23.1044  -14.5097   20.8468 C   0  0  0  0  0  0  0  0  0  0  0  0
  -21.0461  -34.4355   17.5079 C   0  0  0  0  0  0  0  0  0  0  0  0
  -24.8219  -28.8638   20.4375 C   0  0  0  0  0  0  0  0  0  0  0  0
  -22.0565  -33.4553   17.5374 C   0  0  0  0  0  0  0  0  0  0  0  0
  -25.9913  -29.2553   21.1047 C   0  0  0  0  0  0  0  0  0  0  0  0
  -25.0762   -9.7016   21.1102 C   0  0  0  0  0  0  0  0  0  0  0  0
  -27.2286  -27.5274   19.9242 C   0  0  0  0  0  0  0  0  0  0  0  0
  -24.3178   -7.4804   21.2267 C   0  0  0  0  0  0  0  0  0  0  0  0
  -22.2300   -5.6465   20.9817 C   0  0  0  0  0  0  0  0  0  0  0  0
  -23.1847   -7.6022   22.0309 C   0  0  0  0  0  0  0  0  0  0  0  0
  -24.2112  -13.7775   20.3772 C   0  0  0  0  0  0  0  0  0  0  0  0
  -23.2861  -15.7718   20.3365 C   0  0  0  0  0  0  0  0  0  0  0  0
  -29.2916  -19.4759   20.7390 C   0  0  0  0  0  0  0  0  0  0  0  0
  -30.6520  -21.2513   20.9244 C   0  0  0  0  0  0  0  0  0  0  0  0
  -22.0098  -14.0867   21.6707 C   0  0  0  0  0  0  0  0  0  0  0  0
  -24.0981  -31.9517   20.2251 C   0  0  0  0  0  0  0  0  0  0  0  0
  -24.4517  -31.8565   23.4482 C   0  0  0  0  0  0  0  0  0  0  0  0
  -25.8305  -30.3232   26.1675 C   0  0  0  0  0  0  0  0  0  0  0  0
  -28.1269  -18.8168   18.6046 C   0  0  0  0  0  0  0  0  0  0  0  0
  -21.0961  -35.6532   18.3964 C   0  0  0  0  0  0  0  0  0  0  0  0
  -23.5148  -29.5504   20.7247 C   0  0  0  0  0  0  0  0  0  0  0  0
  -25.9959  -30.3861   22.0996 C   0  0  0  0  0  0  0  0  0  0  0  0
  -22.0472  -35.5042   19.5811 C   0  0  0  0  0  0  0  0  0  0  0  0
  -25.2655  -18.0613   16.6251 C   0  0  0  0  0  0  0  0  0  0  0  0
  -23.3834  -34.9279   19.1237 C   0  0  0  0  0  0  0  0  0  0  0  0
  -24.5664  -16.9479   17.4085 C   0  0  0  0  0  0  0  0  0  0  0  0
  -26.7864  -17.9416   16.7041 C   0  0  0  0  0  0  0  0  0  0  0  0
  -26.6331  -16.7372   18.8478 C   0  0  0  0  0  0  0  0  0  0  0  0
  -23.2038  -33.5292   18.5214 C   0  0  1  0  0  0  0  0  0  0  0  0
  -23.6899  -30.9611   21.2786 C   0  0  1  0  0  0  0  0  0  0  0  0
  -25.1001  -16.8534   18.8514 C   0  0  2  0  0  0  0  0  0  0  0  0
  -25.9698  -30.4970   28.6671 C   0  0  0  0  0  0  0  0  0  0  0  0
  -34.2526  -22.1429   19.3056 C   0  0  0  0  0  0  0  0  0  0  0  0
  -34.6177  -23.9661   17.6421 C   0  0  0  0  0  0  0  0  0  0  0  0
  -33.3842  -21.9040   16.9675 C   0  0  0  0  0  0  0  0  0  0  0  0
  -26.4198  -34.1722   23.1751 C   0  0  0  0  0  0  0  0  0  0  0  0
  -27.2193  -33.6747   25.4949 C   0  0  0  0  0  0  0  0  0  0  0  0
  -24.8511  -34.3595   25.1138 C   0  0  0  0  0  0  0  0  0  0  0  0
  -24.5756  -27.6686   26.5380 C   0  0  0  0  0  0  0  0  0  0  0  0
  -29.7233  -24.9249   19.1348 C   0  0  0  0  0  0  0  0  0  0  0  0
  -32.2969  -23.6153   18.5198 C   0  0  0  0  0  0  0  0  0  0  0  0
  -28.3248  -25.5064   19.3162 C   0  0  0  0  0  0  0  0  0  1  0  0
  -25.6040  -32.0528   24.4035 C   0  0  1  0  0  0  0  0  0  0  0  0
  -25.2276  -29.8840   27.4897 C   0  0  2  0  0  0  0  0  0  0  0  0
  -31.1126  -22.7267   18.9657 C   0  0  2  0  0  0  0  0  0  0  0  0
  -29.7470  -23.4283   18.7722 C   0  0  2  0  0  0  0  0  0  0  0  0
  -33.6193  -22.8922   18.1237 C   0  0  0  0  0  0  0  0  0  0  0  0
  -26.0242  -33.5447   24.5267 C   0  0  0  0  0  0  0  0  0  0  0  0
  -29.4444  -19.1261   22.0263 N   0  0  0  0  0  0  0  0  0  0  0  0
  -30.8990  -21.0242   22.2246 N   0  0  0  0  0  0  0  0  0  0  0  0
  -25.0351  -14.5132   19.6262 N   0  0  0  0  0  0  0  0  0  0  0  0
  -29.8617  -20.5223   20.1200 N   0  0  0  0  0  0  0  0  0  0  0  0
  -24.4454  -15.7208   19.6199 N   0  0  0  0  0  0  0  0  0  0  0  0
  -24.6944  -31.0302   22.3418 N   0  0  0  0  0  0  0  0  0  0  0  0
  -27.2195  -17.8611   18.1009 N   0  0  0  0  0  0  0  0  0  0  0  0
  -22.5657  -16.9092   20.4353 N   0  0  0  0  0  0  0  0  0  0  0  0
  -21.9782  -12.7555   22.1080 N   0  0  0  0  0  0  0  0  0  0  0  0
  -28.4406  -18.6588   19.9542 N   0  0  0  0  0  0  0  0  0  0  0  0
  -31.2741  -22.3467   20.3564 N   0  0  0  0  0  0  0  0  0  0  0  0
  -23.0364  -32.5453   19.5695 N   0  0  0  0  0  0  0  0  0  0  0  0
  -25.1982  -31.4403   25.6639 N   0  0  0  0  0  0  0  0  0  0  0  0
  -29.3080  -23.3099   17.3459 N   0  3  0  0  0  0  0  0  0  0  0  0
  -25.2860  -28.4004   27.6182 N   0  3  0  0  0  0  0  0  0  0  0  0
  -21.0787  -14.8620   21.9956 O   0  0  0  0  0  0  0  0  0  0  0  0
  -25.2882  -32.1629   20.0231 O   0  0  0  0  0  0  0  0  0  0  0  0
  -23.3738  -32.4101   23.6790 O   0  0  0  0  0  0  0  0  0  0  0  0
  -26.7709  -29.7364   25.6366 O   0  0  0  0  0  0  0  0  0  0  0  0
  -28.5705  -19.7259   17.8984 O   0  0  0  0  0  0  0  0  0  0  0  0
  -25.3547   -8.3905   21.3465 O   0  0  0  0  0  0  0  0  0  0  0  0
  -28.4099  -26.8783   19.6719 O   0  0  0  0  0  0  0  0  0  1  0  0
  -21.2269   -4.7668   20.8629 F   0  0  0  0  0  0  0  0  0  0  0  0
  -23.0928   -8.5987   22.9221 F   0  0  0  0  0  0  0  0  0  0  0  0
  1  2  1  0  0  0  0
  1  5  2  0  0  0  0
  2  6  2  0  0  0  0
  3  8  2  0  0  0  0
  3 16  1  0  0  0  0
  4  9  1  0  0  0  0
  4 16  2  0  0  0  0
  5 18  1  0  0  0  0
  6 20  1  0  0  0  0
  7 10  2  0  0  0  0
  7 19  1  0  0  0  0
  8 22  1  0  0  0  0
  9 22  2  0  0  0  0
 10 23  1  0  0  0  0
 11 12  2  0  0  0  0
 11 24  1  0  0  0  0
 12 25  1  0  0  0  0
 13 21  1  0  0  0  0
 13 23  2  0  0  0  0
 14 25  2  0  0  0  0
 14 26  1  0  0  0  0
 15 65  1  0  0  0  0
 15 66  2  0  0  0  0
 16 27  1  0  0  0  0
 17 27  1  0  0  0  0
 17 28  2  0  0  0  0
 17 31  1  0  0  0  0
 18 20  2  0  0  0  0
 18 36  1  0  0  0  0
 19 21  2  0  0  0  0
 19 37  1  0  0  0  0
 20 45  1  0  0  0  0
 21 38  1  0  0  0  0
 22 85  1  0  0  0  0
 23 86  1  0  0  0  0
 24 26  2  0  0  0  0
 24 85  1  0  0  0  0
 25 87  1  0  0  0  0
 26 88  1  0  0  0  0
 27 67  2  0  0  0  0
 28 69  1  0  0  0  0
 28 72  1  0  0  0  0
 29 65  2  0  0  0  0
 29 68  1  0  0  0  0
 29 74  1  0  0  0  0
 30 66  1  0  0  0  0
 30 68  2  0  0  0  0
 30 75  1  0  0  0  0
 31 73  1  0  0  0  0
 31 80  2  0  0  0  0
 32 46  1  0  0  0  0
 32 76  1  0  0  0  0
 32 81  2  0  0  0  0
 33 59  1  0  0  0  0
 33 70  1  0  0  0  0
 33 82  2  0  0  0  0
 34 60  1  0  0  0  0
 34 77  1  0  0  0  0
 34 83  2  0  0  0  0
 35 71  1  0  0  0  0
 35 74  1  0  0  0  0
 35 84  2  0  0  0  0
 36 39  1  0  0  0  0
 37 46  1  0  0  0  0
 38 70  1  0  0  0  0
 39 41  1  0  0  0  0
 40 42  1  0  0  0  0
 40 43  1  0  0  0  0
 41 45  1  0  0  0  0
 42 47  1  0  0  0  0
 43 71  1  0  0  0  0
 44 47  1  0  0  0  0
 44 71  1  0  0  0  0
 45 76  1  0  0  0  0
 46 70  1  0  0  0  0
 47 69  1  0  0  0  0
 48 60  1  0  0  0  0
 49 63  1  0  0  0  0
 50 63  1  0  0  0  0
 51 63  1  0  0  0  0
 52 64  1  0  0  0  0
 53 64  1  0  0  0  0
 54 64  1  0  0  0  0
 55 79  1  0  0  0  0
 56 58  1  0  0  0  0
 56 62  1  0  0  0  0
 57 61  1  0  0  0  0
 57 63  1  0  0  0  0
 58 86  1  0  0  0  0
 59 64  1  0  0  0  0
 59 77  1  0  0  0  0
 60 79  1  0  0  0  0
 61 62  1  0  0  0  0
 61 75  1  0  0  0  0
 62 78  1  0  0  0  0
 67 69  1  0  0  0  0
M  CHG  2  78   1  79   1
M  ISO  4  35 100  58 101  74 100  86 101
M  END
> <Batch ID>
0192

> <Smiles>
CNC(C)C(=O)NC(C(=O)N1Cc2cc([101O:1][101CH2:1]CC(N)C(CC(C)(C)C)Nc3ncnc([100NH:0][100C:0](=O)N4CCCC(n5nc(-c6ccc(Oc7ccc(F)cc7F)cc6)c(C(N)=O)c5N)C4)n3)ccc2CC1C(=O)NC1CCCc2ccccc21)C(C)(C)C

> <Shape>
0.276

> <Color>
0.105

> <Negative vol penalty>
0.000

$$$$

  -OEChem-04052305273D

 82 90  0     1  0  0  0  0  0999 V2000
  -29.6426  -22.8266   19.0673 C   0  0  0  0  0  0  0  0  0  0  0  0
  -28.3786  -23.0736   19.5933 C   0  0  0  0  0  0  0  0  0  0  0  0
  -26.1353  -12.9954   20.9411 C   0  0  0  0  0  0  0  0  0  0  0  0
  -24.3887  -14.3132   19.9163 C   0  0  0  0  0  0  0  0  0  0  0  0
  -30.7412  -23.5526   19.5256 C   0  0  0  0  0  0  0  0  0  0  0  0
  -28.2127  -24.0460   20.5788 C   0  0  0  0  0  0  0  0  0  0  0  0
  -24.1995  -27.0138   19.7234 C   0  0  0  0  0  0  0  0  0  0  0  0
  -25.4724  -11.8264   20.5675 C   0  0  0  0  0  0  0  0  0  0  0  0
  -23.7259  -13.1442   19.5427 C   0  0  0  0  0  0  0  0  0  0  0  0
  -22.9445  -26.4933   20.0359 C   0  0  0  0  0  0  0  0  0  0  0  0
  -24.0566   -8.4975   20.1970 C   0  0  0  0  0  0  0  0  0  0  0  0
  -23.9418   -7.4832   21.1476 C   0  0  0  0  0  0  0  0  0  0  0  0
  -22.9534  -27.7308   22.1065 C   0  0  0  0  0  0  0  0  0  0  0  0
  -22.7270   -8.9828   22.6010 C   0  0  0  0  0  0  0  0  0  0  0  0
  -25.5934  -14.2389   20.6155 C   0  0  0  0  0  0  0  0  0  0  0  0
  -27.2440  -16.1509   20.2590 C   0  0  0  0  0  0  0  0  0  0  0  0
  -30.5871  -24.5411   20.5103 C   0  0  0  0  0  0  0  0  0  0  0  0
  -24.8468  -27.8898   20.6067 C   0  0  0  0  0  0  0  0  0  0  0  0
  -29.3104  -24.7850   21.0517 C   0  0  0  0  0  0  0  0  0  0  0  0
  -24.2155  -28.2631   21.8018 C   0  0  0  0  0  0  0  0  0  0  0  0
  -24.2678  -11.9007   19.8683 C   0  0  0  0  0  0  0  0  0  0  0  0
  -22.3225  -26.8494   21.2289 C   0  0  0  0  0  0  0  0  0  0  0  0
  -23.5067   -9.7545   20.4485 C   0  0  0  0  0  0  0  0  0  0  0  0
  -23.2770   -7.7258   22.3496 C   0  0  0  0  0  0  0  0  0  0  0  0
  -22.8419   -9.9971   21.6504 C   0  0  0  0  0  0  0  0  0  0  0  0
  -26.2773  -15.4469   21.0017 C   0  0  0  0  0  0  0  0  0  0  0  0
  -27.5798  -17.2176   21.0564 C   0  0  0  0  0  0  0  0  0  0  0  0
  -22.9534  -21.5487   24.1847 C   0  0  0  0  0  0  0  0  0  0  0  0
  -21.3584  -23.0854   23.3714 C   0  0  0  0  0  0  0  0  0  0  0  0
  -27.7896  -15.8662   18.9640 C   0  0  0  0  0  0  0  0  0  0  0  0
  -27.5656  -27.8129   22.2518 C   0  0  0  0  0  0  0  0  0  0  0  0
  -26.7550  -30.8673   22.9839 C   0  0  0  0  0  0  0  0  0  0  0  0
  -24.2979  -33.2119   23.3186 C   0  0  0  0  0  0  0  0  0  0  0  0
  -24.6813  -20.1562   25.3771 C   0  0  0  0  0  0  0  0  0  0  0  0
  -31.8117  -25.2672   21.0080 C   0  0  0  0  0  0  0  0  0  0  0  0
  -26.1887  -28.4635   20.2426 C   0  0  0  0  0  0  0  0  0  0  0  0
  -24.8591  -29.2159   22.7746 C   0  0  0  0  0  0  0  0  0  0  0  0
  -31.4906  -26.5405   21.7863 C   0  0  0  0  0  0  0  0  0  0  0  0
  -27.8312  -18.5203   25.6579 C   0  0  0  0  0  0  0  0  0  0  0  0
  -30.3820  -26.2805   22.8013 C   0  0  0  0  0  0  0  0  0  0  0  0
  -27.8808  -17.6151   24.4249 C   0  0  0  0  0  0  0  0  0  0  0  0
  -26.4220  -18.6075   26.2411 C   0  0  0  0  0  0  0  0  0  0  0  0
  -25.4256  -18.0824   24.0501 C   0  0  0  0  0  0  0  0  0  0  0  0
  -29.0861  -25.8489   22.1042 C   0  0  1  0  0  0  0  0  0  0  0  0
  -26.9816  -28.9443   21.4540 C   0  0  1  0  0  0  0  0  0  0  0  0
  -26.8120  -18.0149   23.3889 C   0  0  2  0  0  0  0  0  0  0  0  0
  -23.9376  -35.6089   23.9682 C   0  0  0  0  0  0  0  0  0  0  0  0
  -17.7691  -26.5316   22.9002 C   0  0  0  0  0  0  0  0  0  0  0  0
  -17.4915  -24.0811   22.4452 C   0  0  0  0  0  0  0  0  0  0  0  0
  -27.0826  -30.1173   25.9233 C   0  0  0  0  0  0  0  0  0  0  0  0
  -25.8201  -32.1948   26.5220 C   0  0  0  0  0  0  0  0  0  0  0  0
  -27.9949  -32.3642   25.3120 C   0  0  0  0  0  0  0  0  0  0  0  0
  -23.2240  -33.8956   20.6468 C   0  0  0  0  0  0  0  0  0  0  0  0
  -20.7949  -26.1707   22.9206 C   0  0  0  0  0  0  0  0  0  1  0  0
  -25.9525  -31.5272   24.0791 C   0  0  1  0  0  0  0  0  0  0  0  0
  -24.1969  -34.6430   22.8225 C   0  0  2  0  0  0  0  0  0  0  0  0
  -18.4601  -25.2661   22.3795 C   0  0  0  0  0  0  0  0  0  0  0  0
  -19.8030  -25.0183   23.1060 C   0  0  1  0  0  0  0  0  0  0  0  0
  -26.7010  -31.5314   25.4419 C   0  0  0  0  0  0  0  0  0  0  0  0
  -26.0160  -16.0181   22.1804 N   0  0  0  0  0  0  0  0  0  0  0  0
  -22.7507  -22.5354   25.0316 N   0  0  0  0  0  0  0  0  0  0  0  0
  -21.8144  -23.4363   24.5549 N   0  0  0  0  0  0  0  0  0  0  0  0
  -26.8236  -17.0923   22.1845 N   0  0  0  0  0  0  0  0  0  0  0  0
  -26.1741  -29.7450   22.3766 N   0  0  0  0  0  0  0  0  0  0  0  0
  -25.4640  -18.9952   25.2034 N   0  0  0  0  0  0  0  0  0  0  0  0
  -28.4453  -18.2411   20.8957 N   0  0  0  0  0  0  0  0  0  0  0  0
  -27.3335  -14.7300   18.2819 N   0  0  0  0  0  0  0  0  0  0  0  0
  -23.8299  -20.4425   24.3104 N   0  0  0  0  0  0  0  0  0  0  0  0
  -20.4167  -23.7866   22.6436 N   0  0  0  0  0  0  0  0  0  0  0  0
  -28.4147  -26.9954   21.5305 N   0  0  0  0  0  0  0  0  0  0  0  0
  -25.6027  -32.8547   23.5855 N   0  0  0  0  0  0  0  0  0  0  0  0
  -23.0858  -34.7728   21.8379 N   0  3  0  0  0  0  0  0  0  0  0  0
  -28.6679  -16.5887   18.4347 O   0  0  0  0  0  0  0  0  0  0  0  0
  -27.2689  -27.6914   23.4346 O   0  0  0  0  0  0  0  0  0  0  0  0
  -27.8536  -31.3347   22.6736 O   0  0  0  0  0  0  0  0  0  0  0  0
  -23.3170  -32.4848   23.4591 O   0  0  0  0  0  0  0  0  0  0  0  0
  -24.7801  -20.8607   26.3850 O   0  0  0  0  0  0  0  0  0  0  0  0
  -23.6208  -10.7602   19.5034 O   0  0  0  0  0  0  0  0  0  0  0  0
  -21.0978  -26.3423   21.5367 O   0  0  0  0  0  0  0  0  0  1  0  0
  -23.1655   -6.7513   23.2617 F   0  0  0  0  0  0  0  0  0  0  0  0
  -22.3104  -11.2024   21.8971 F   0  0  0  0  0  0  0  0  0  0  0  0
  -22.0274  -21.6363   22.7437 S   0  0  0  0  0  0  0  0  0  0  0  0
  1  2  1  0  0  0  0
  1  5  2  0  0  0  0
  2  6  2  0  0  0  0
  3  8  2  0  0  0  0
  3 15  1  0  0  0  0
  4  9  1  0  0  0  0
  4 15  2  0  0  0  0
  5 17  1  0  0  0  0
  6 19  1  0  0  0  0
  7 10  2  0  0  0  0
  7 18  1  0  0  0  0
  8 21  1  0  0  0  0
  9 21  2  0  0  0  0
 10 22  1  0  0  0  0
 11 12  2  0  0  0  0
 11 23  1  0  0  0  0
 12 24  1  0  0  0  0
 13 20  1  0  0  0  0
 13 22  2  0  0  0  0
 14 24  2  0  0  0  0
 14 25  1  0  0  0  0
 15 26  1  0  0  0  0
 16 26  1  0  0  0  0
 16 27  2  0  0  0  0
 16 30  1  0  0  0  0
 17 19  2  0  0  0  0
 17 35  1  0  0  0  0
 18 20  2  0  0  0  0
 18 36  1  0  0  0  0
 19 44  1  0  0  0  0
 20 37  1  0  0  0  0
 21 78  1  0  0  0  0
 22 79  1  0  0  0  0
 23 25  2  0  0  0  0
 23 78  1  0  0  0  0
 24 80  1  0  0  0  0
 25 81  1  0  0  0  0
 26 60  2  0  0  0  0
 27 63  1  0  0  0  0
 27 66  1  0  0  0  0
 28 61  2  0  0  0  0
 28 68  1  0  0  0  0
 28 82  1  0  0  0  0
 29 62  2  0  0  0  0
 29 69  1  0  0  0  0
 29 82  1  0  0  0  0
 30 67  1  0  0  0  0
 30 73  2  0  0  0  0
 31 45  1  0  0  0  0
 31 70  1  0  0  0  0
 31 74  2  0  0  0  0
 32 55  1  0  0  0  0
 32 64  1  0  0  0  0
 32 75  2  0  0  0  0
 33 56  1  0  0  0  0
 33 71  1  0  0  0  0
 33 76  2  0  0  0  0
 34 65  1  0  0  0  0
 34 68  1  0  0  0  0
 34 77  2  0  0  0  0
 35 38  1  0  0  0  0
 36 45  1  0  0  0  0
 37 64  1  0  0  0  0
 38 40  1  0  0  0  0
 39 41  1  0  0  0  0
 39 42  1  0  0  0  0
 40 44  1  0  0  0  0
 41 46  1  0  0  0  0
 42 65  1  0  0  0  0
 43 46  1  0  0  0  0
 43 65  1  0  0  0  0
 44 70  1  0  0  0  0
 45 64  1  0  0  0  0
 46 63  1  0  0  0  0
 47 56  1  0  0  0  0
 48 57  1  0  0  0  0
 49 57  1  0  0  0  0
 50 59  1  0  0  0  0
 51 59  1  0  0  0  0
 52 59  1  0  0  0  0
 53 72  1  0  0  0  0
 54 58  1  0  0  0  0
 54 79  1  0  0  0  0
 55 59  1  0  0  0  0
 55 71  1  0  0  0  0
 56 72  1  0  0  0  0
 57 58  1  0  0  0  0
 58 69  1  0  0  0  0
 60 63  1  0  0  0  0
 61 62  1  0  0  0  0
M  CHG  1  72   1
M  ISO  4  34 100  54 101  68 100  79 101
M  END
> <Batch ID>
0192

> <Smiles>
CNC(C)C(=O)NC(C(=O)N1Cc2cc([101O:1][101CH2:1]C(Nc3nnc([100NH:0][100C:0](=O)N4CCCC(n5nc(-c6ccc(Oc7ccc(F)cc7F)cc6)c(C(N)=O)c5N)C4)s3)C(C)C)ccc2CC1C(=O)NC1CCCc2ccccc21)C(C)(C)C

> <Shape>
0.247

> <Color>
0.060

> <Negative vol penalty>
0.000

$$$$

  -OEChem-04052305273D

 83 91  0     1  0  0  0  0  0999 V2000
  -30.9003  -33.4728   28.3643 C   0  0  0  0  0  0  0  0  0  0  0  0
  -31.1682  -32.6858   27.2489 C   0  0  0  0  0  0  0  0  0  0  0  0
  -23.8736   -9.6894   21.7108 C   0  0  0  0  0  0  0  0  0  0  0  0
  -24.4953  -10.9082   23.7021 C   0  0  0  0  0  0  0  0  0  0  0  0
  -29.6647  -33.3771   29.0031 C   0  0  0  0  0  0  0  0  0  0  0  0
  -30.2009  -31.8017   26.7722 C   0  0  0  0  0  0  0  0  0  0  0  0
  -29.1478  -30.2976   20.9298 C   0  0  0  0  0  0  0  0  0  0  0  0
  -23.3841   -8.6490   22.5004 C   0  0  0  0  0  0  0  0  0  0  0  0
  -24.0057   -9.8677   24.4917 C   0  0  0  0  0  0  0  0  0  0  0  0
  -29.5374  -29.2039   20.1579 C   0  0  0  0  0  0  0  0  0  0  0  0
  -20.6065   -7.9921   24.3131 C   0  0  0  0  0  0  0  0  0  0  0  0
  -19.3670   -7.4492   23.9746 C   0  0  0  0  0  0  0  0  0  0  0  0
  -27.4280  -28.1306   20.6246 C   0  0  0  0  0  0  0  0  0  0  0  0
  -20.3998   -5.2880   23.6589 C   0  0  0  0  0  0  0  0  0  0  0  0
  -28.5692  -19.1783   20.2190 C   0  0  0  0  0  0  0  0  0  0  0  0
  -24.4292  -10.8190   22.3117 C   0  0  0  0  0  0  0  0  0  0  0  0
  -24.2241  -13.0163   21.0319 C   0  0  0  0  0  0  0  0  0  0  0  0
  -28.6783  -32.4984   28.5282 C   0  0  0  0  0  0  0  0  0  0  0  0
  -27.8976  -30.3113   21.5648 C   0  0  0  0  0  0  0  0  0  0  0  0
  -28.9515  -31.6932   27.4060 C   0  0  0  0  0  0  0  0  0  0  0  0
  -27.0238  -29.2268   21.4019 C   0  0  0  0  0  0  0  0  0  0  0  0
  -23.4501   -8.7381   23.8908 C   0  0  0  0  0  0  0  0  0  0  0  0
  -28.6787  -28.1190   20.0075 C   0  0  0  0  0  0  0  0  0  0  0  0
  -21.7427   -7.1829   24.3245 C   0  0  0  0  0  0  0  0  0  0  0  0
  -19.2637   -6.0972   23.6475 C   0  0  0  0  0  0  0  0  0  0  0  0
  -21.6393   -5.8309   23.9974 C   0  0  0  0  0  0  0  0  0  0  0  0
  -24.9356  -11.8939   21.4966 C   0  0  0  0  0  0  0  0  0  0  0  0
  -29.5564  -18.3095   19.8090 C   0  0  0  0  0  0  0  0  0  0  0  0
  -29.8054  -20.9439   19.4551 C   0  0  0  0  0  0  0  0  0  0  0  0
  -30.7931  -20.0753   19.0457 C   0  0  0  0  0  0  0  0  0  0  0  0
  -25.1461  -13.7314   20.3074 C   0  0  0  0  0  0  0  0  0  0  0  0
  -22.8525  -13.3799   21.2370 C   0  0  0  0  0  0  0  0  0  0  0  0
  -26.9176  -30.4433   24.5858 C   0  0  0  0  0  0  0  0  0  0  0  0
  -23.9867  -30.6804   23.2160 C   0  0  0  0  0  0  0  0  0  0  0  0
  -21.9974  -30.0837   20.5080 C   0  0  0  0  0  0  0  0  0  0  0  0
  -30.2418  -15.8884   19.6873 C   0  0  0  0  0  0  0  0  0  0  0  0
  -27.3750  -32.3953   29.2802 C   0  0  0  0  0  0  0  0  0  0  0  0
  -27.4814  -31.5102   22.3722 C   0  0  0  0  0  0  0  0  0  0  0  0
  -25.6627  -29.2013   22.0462 C   0  0  0  0  0  0  0  0  0  0  0  0
  -26.2673  -31.7062   28.4875 C   0  0  0  0  0  0  0  0  0  0  0  0
  -29.7974  -12.4826   18.7493 C   0  0  0  0  0  0  0  0  0  0  0  0
  -26.7914  -30.4303   27.8363 C   0  0  0  0  0  0  0  0  0  0  0  0
  -28.4344  -12.1181   19.3422 C   0  0  0  0  0  0  0  0  0  0  0  0
  -30.5786  -13.4266   19.6616 C   0  0  0  0  0  0  0  0  0  0  0  0
  -28.4919  -14.2738   20.6601 C   0  0  0  0  0  0  0  0  0  0  0  0
  -27.9188  -30.7403   26.8441 C   0  0  1  0  0  0  0  0  0  0  0  0
  -26.3938  -31.1940   23.3942 C   0  0  1  0  0  0  0  0  0  0  0  0
  -27.6412  -13.3762   19.7467 C   0  0  2  0  0  0  0  0  0  0  0  0
  -19.6376  -30.3557   19.6990 C   0  0  0  0  0  0  0  0  0  0  0  0
  -23.1223  -28.3255   24.9531 C   0  0  0  0  0  0  0  0  0  0  0  0
  -21.1346  -28.0418   23.4576 C   0  0  0  0  0  0  0  0  0  0  0  0
  -21.4266  -30.1529   24.7542 C   0  0  0  0  0  0  0  0  0  0  0  0
  -22.8430  -31.8227   18.2675 C   0  0  0  0  0  0  0  0  0  0  0  0
  -29.0259  -23.3076   19.6302 C   0  0  0  0  0  0  0  0  0  0  0  0
  -28.5301  -25.7764   19.6254 C   0  0  0  0  0  0  0  0  0  1  0  0
  -22.9305  -29.6965   22.7738 C   0  0  1  0  0  0  0  0  0  0  0  0
  -21.0254  -30.9750   19.7562 C   0  0  2  0  0  0  0  0  0  0  0  0
  -29.5277  -24.6934   19.2290 C   0  0  1  0  0  0  0  0  0  0  0  0
  -22.1799  -29.0535   23.9740 C   0  0  0  0  0  0  0  0  0  0  0  0
  -28.6759  -20.5111   20.0494 N   0  0  0  0  0  0  0  0  0  0  0  0
  -26.2111  -11.8917   21.1003 N   0  0  0  0  0  0  0  0  0  0  0  0
  -30.6861  -18.7425   19.2150 N   0  0  0  0  0  0  0  0  0  0  0  0
  -26.3084  -13.0214   20.3790 N   0  0  0  0  0  0  0  0  0  0  0  0
  -25.3041  -30.3942   22.8309 N   0  0  0  0  0  0  0  0  0  0  0  0
  -29.7662  -14.5973   19.9995 N   0  0  0  0  0  0  0  0  0  0  0  0
  -25.0679  -14.8920   19.6224 N   0  0  0  0  0  0  0  0  0  0  0  0
  -22.0445  -12.5323   22.0071 N   0  0  0  0  0  0  0  0  0  0  0  0
  -29.3690  -16.9219   20.0260 N   0  0  0  0  0  0  0  0  0  0  0  0
  -29.9887  -22.3002   19.2452 N   0  0  0  0  0  0  0  0  0  0  0  0
  -27.3748  -31.2555   25.6059 N   0  0  0  0  0  0  0  0  0  0  0  0
  -22.0661  -30.4159   21.8445 N   0  0  0  0  0  0  0  0  0  0  0  0
  -21.4990  -31.1967   18.3607 N   0  3  0  0  0  0  0  0  0  0  0  0
  -22.3538  -14.4172   20.7381 O   0  0  0  0  0  0  0  0  0  0  0  0
  -26.9063  -29.2179   24.5806 O   0  0  0  0  0  0  0  0  0  0  0  0
  -23.6540  -31.6702   23.8727 O   0  0  0  0  0  0  0  0  0  0  0  0
  -22.6296  -29.1804   19.9648 O   0  0  0  0  0  0  0  0  0  0  0  0
  -31.3304  -16.0627   19.1337 O   0  0  0  0  0  0  0  0  0  0  0  0
  -30.7545  -24.9616   19.9110 O   0  0  0  0  0  0  0  0  0  0  0  0
  -22.9724   -7.7232   24.6616 O   0  0  0  0  0  0  0  0  0  0  0  0
  -29.0568  -27.0499   19.2552 O   0  0  0  0  0  0  0  0  0  1  0  0
  -18.0731   -5.5757   23.3238 F   0  0  0  0  0  0  0  0  0  0  0  0
  -22.7271   -5.0483   24.0077 F   0  0  0  0  0  0  0  0  0  0  0  0
  -31.9041  -20.5442   18.4575 F   0  0  0  0  0  0  0  0  0  0  0  0
  1  2  1  0  0  0  0
  1  5  2  0  0  0  0
  2  6  2  0  0  0  0
  3  8  2  0  0  0  0
  3 16  1  0  0  0  0
  4  9  1  0  0  0  0
  4 16  2  0  0  0  0
  5 18  1  0  0  0  0
  6 20  1  0  0  0  0
  7 10  2  0  0  0  0
  7 19  1  0  0  0  0
  8 22  1  0  0  0  0
  9 22  2  0  0  0  0
 10 23  1  0  0  0  0
 11 12  2  0  0  0  0
 11 24  1  0  0  0  0
 12 25  1  0  0  0  0
 13 21  1  0  0  0  0
 13 23  2  0  0  0  0
 14 25  2  0  0  0  0
 14 26  1  0  0  0  0
 15 28  1  0  0  0  0
 15 60  2  0  0  0  0
 16 27  1  0  0  0  0
 17 27  1  0  0  0  0
 17 31  2  0  0  0  0
 17 32  1  0  0  0  0
 18 20  2  0  0  0  0
 18 37  1  0  0  0  0
 19 21  2  0  0  0  0
 19 38  1  0  0  0  0
 20 46  1  0  0  0  0
 21 39  1  0  0  0  0
 22 79  1  0  0  0  0
 23 80  1  0  0  0  0
 24 26  2  0  0  0  0
 24 79  1  0  0  0  0
 25 81  1  0  0  0  0
 26 82  1  0  0  0  0
 27 61  2  0  0  0  0
 28 62  2  0  0  0  0
 28 68  1  0  0  0  0
 29 30  2  0  0  0  0
 29 60  1  0  0  0  0
 29 69  1  0  0  0  0
 30 62  1  0  0  0  0
 30 83  1  0  0  0  0
 31 63  1  0  0  0  0
 31 66  1  0  0  0  0
 32 67  1  0  0  0  0
 32 73  2  0  0  0  0
 33 47  1  0  0  0  0
 33 70  1  0  0  0  0
 33 74  2  0  0  0  0
 34 56  1  0  0  0  0
 34 64  1  0  0  0  0
 34 75  2  0  0  0  0
 35 57  1  0  0  0  0
 35 71  1  0  0  0  0
 35 76  2  0  0  0  0
 36 65  1  0  0  0  0
 36 68  1  0  0  0  0
 36 77  2  0  0  0  0
 37 40  1  0  0  0  0
 38 47  1  0  0  0  0
 39 64  1  0  0  0  0
 40 42  1  0  0  0  0
 41 43  1  0  0  0  0
 41 44  1  0  0  0  0
 42 46  1  0  0  0  0
 43 48  1  0  0  0  0
 44 65  1  0  0  0  0
 45 48  1  0  0  0  0
 45 65  1  0  0  0  0
 46 70  1  0  0  0  0
 47 64  1  0  0  0  0
 48 63  1  0  0  0  0
 49 57  1  0  0  0  0
 50 59  1  0  0  0  0
 51 59  1  0  0  0  0
 52 59  1  0  0  0  0
 53 72  1  0  0  0  0
 54 58  1  0  0  0  0
 54 69  1  0  0  0  0
 55 58  1  0  0  0  0
 55 80  1  0  0  0  0
 56 59  1  0  0  0  0
 56 71  1  0  0  0  0
 57 72  1  0  0  0  0
 58 78  1  0  0  0  0
 61 63  1  0  0  0  0
M  CHG  1  72   1
M  ISO  4  36 100  55 101  68 100  80 101
M  END
> <Batch ID>
0192

> <Smiles>
CNC(C)C(=O)NC(C(=O)N1Cc2cc([101O:1][101CH2:1]C(O)CNc3ncc([100NH:0][100C:0](=O)N4CCCC(n5nc(-c6ccc(Oc7ccc(F)cc7F)cc6)c(C(N)=O)c5N)C4)nc3F)ccc2CC1C(=O)NC1CCCc2ccccc21)C(C)(C)C

> <Shape>
0.325

> <Color>
0.156

> <Negative vol penalty>
0.000

$$$$

  -OEChem-04052305273D

 83 91  0     1  0  0  0  0  0999 V2000
  -21.5573  -12.6479   19.7077 C   0  0  0  0  0  0  0  0  0  0  0  0
  -21.6051  -13.8626   20.3841 C   0  0  0  0  0  0  0  0  0  0  0  0
  -30.1841  -28.2844   21.5164 C   0  0  0  0  0  0  0  0  0  0  0  0
  -29.0008  -26.2255   21.9611 C   0  0  0  0  0  0  0  0  0  0  0  0
  -22.7185  -11.8923   19.5510 C   0  0  0  0  0  0  0  0  0  0  0  0
  -22.8142  -14.3220   20.9052 C   0  0  0  0  0  0  0  0  0  0  0  0
  -23.6012  -19.2323   19.9490 C   0  0  0  0  0  0  0  0  0  0  0  0
  -31.2525  -27.8384   22.2944 C   0  0  0  0  0  0  0  0  0  0  0  0
  -30.0692  -25.7795   22.7391 C   0  0  0  0  0  0  0  0  0  0  0  0
  -22.9178  -20.1530   20.7421 C   0  0  0  0  0  0  0  0  0  0  0  0
  -31.2629  -26.2922   25.8605 C   0  0  0  0  0  0  0  0  0  0  0  0
  -30.9679  -25.7040   27.0903 C   0  0  0  0  0  0  0  0  0  0  0  0
  -24.9050  -20.4734   22.0717 C   0  0  0  0  0  0  0  0  0  0  0  0
  -32.0364  -23.6606   26.3692 C   0  0  0  0  0  0  0  0  0  0  0  0
  -29.0582  -27.4780   21.3498 C   0  0  0  0  0  0  0  0  0  0  0  0
  -27.7696  -27.7456   19.1645 C   0  0  0  0  0  0  0  0  0  0  0  0
  -23.9443  -12.3473   20.0621 C   0  0  0  0  0  0  0  0  0  0  0  0
  -24.9407  -18.9166   20.2183 C   0  0  0  0  0  0  0  0  0  0  0  0
  -23.9927  -13.5712   20.7564 C   0  0  0  0  0  0  0  0  0  0  0  0
  -25.6039  -19.5503   21.2789 C   0  0  0  0  0  0  0  0  0  0  0  0
  -31.1950  -26.5860   22.9057 C   0  0  0  0  0  0  0  0  0  0  0  0
  -23.5688  -20.7715   21.8055 C   0  0  0  0  0  0  0  0  0  0  0  0
  -31.9446  -25.5647   24.8849 C   0  0  0  0  0  0  0  0  0  0  0  0
  -31.3547  -24.3882   27.3447 C   0  0  0  0  0  0  0  0  0  0  0  0
  -32.3314  -24.2489   25.1394 C   0  0  0  0  0  0  0  0  0  0  0  0
  -27.9540  -27.9383   20.5467 C   0  0  0  0  0  0  0  0  0  0  0  0
  -26.5780  -28.3695   18.8867 C   0  0  0  0  0  0  0  0  0  0  0  0
  -20.6087  -26.1358   22.6653 C   0  0  0  0  0  0  0  0  0  0  0  0
  -20.2768  -24.1459   21.6819 C   0  0  0  0  0  0  0  0  0  0  0  0
  -21.3192  -24.2569   23.6664 C   0  0  0  0  0  0  0  0  0  0  0  0
  -28.6012  -27.0634   18.2164 C   0  0  0  0  0  0  0  0  0  0  0  0
  -26.5015  -16.2698   21.0320 C   0  0  0  0  0  0  0  0  0  0  0  0
  -29.1113  -18.1589   20.6540 C   0  0  0  0  0  0  0  0  0  0  0  0
  -30.4277  -21.3073   20.6148 C   0  0  0  0  0  0  0  0  0  0  0  0
  -21.7835  -29.6754   22.2272 C   0  0  0  0  0  0  0  0  0  0  0  0
  -25.1638  -11.4732   19.9091 C   0  0  0  0  0  0  0  0  0  0  0  0
  -25.6716  -17.9413   19.3369 C   0  0  0  0  0  0  0  0  0  0  0  0
  -27.0473  -19.2613   21.5974 C   0  0  0  0  0  0  0  0  0  0  0  0
  -26.4766  -12.2091   20.1649 C   0  0  0  0  0  0  0  0  0  0  0  0
  -23.7946  -31.9620   20.3823 C   0  0  0  0  0  0  0  0  0  0  0  0
  -26.3810  -13.0445   21.4377 C   0  0  0  0  0  0  0  0  0  0  0  0
  -25.0720  -31.1727   20.0905 C   0  0  0  0  0  0  0  0  0  0  0  0
  -23.2300  -31.6319   21.7623 C   0  0  0  0  0  0  0  0  0  0  0  0
  -24.2873  -29.4061   21.7222 C   0  0  0  0  0  0  0  0  0  0  0  0
  -25.2900  -14.1150   21.3144 C   0  0  1  0  0  0  0  0  0  0  0  0
  -26.8825  -17.3115   20.0183 C   0  0  1  0  0  0  0  0  0  0  0  0
  -24.8632  -29.6636   20.3192 C   0  0  2  0  0  0  0  0  0  0  0  0
  -32.5980  -22.5314   20.3166 C   0  0  0  0  0  0  0  0  0  0  0  0
  -22.3457  -21.8121   26.2725 C   0  0  0  0  0  0  0  0  0  0  0  0
  -29.9581  -17.3382   23.4681 C   0  0  0  0  0  0  0  0  0  0  0  0
  -31.5545  -19.2668   23.4749 C   0  0  0  0  0  0  0  0  0  0  0  0
  -31.8225  -17.4341   21.8039 C   0  0  0  0  0  0  0  0  0  0  0  0
  -29.4138  -22.7651   18.2471 C   0  0  0  0  0  0  0  0  0  0  0  0
  -20.4624  -27.6194   22.6592 C   0  0  0  0  0  0  0  0  0  0  0  0
  -23.3080  -21.7738   23.9463 C   0  0  0  0  0  0  0  0  0  1  0  0
  -29.9110  -19.0699   21.5537 C   0  0  1  0  0  0  0  0  0  0  0  0
  -31.3497  -22.0014   19.6285 C   0  0  2  0  0  0  0  0  0  0  0  0
  -22.1237  -22.1929   24.8146 C   0  0  2  0  0  0  0  0  0  0  0  0
  -30.7837  -18.2815   22.5706 C   0  0  0  0  0  0  0  0  0  0  0  0
  -26.9592  -28.6307   21.1080 N   0  0  0  0  0  0  0  0  0  0  0  0
  -20.1102  -25.4761   21.6071 N   0  0  0  0  0  0  0  0  0  0  0  0
  -21.2246  -25.5949   23.7289 N   0  0  0  0  0  0  0  0  0  0  0  0
  -20.8699  -23.4675   22.6775 N   0  0  0  0  0  0  0  0  0  0  0  0
  -26.1383  -28.8785   20.0732 N   0  0  0  0  0  0  0  0  0  0  0  0
  -27.7170  -18.2957   20.7105 N   0  0  0  0  0  0  0  0  0  0  0  0
  -23.0542  -30.1856   21.9141 N   0  0  0  0  0  0  0  0  0  0  0  0
  -25.8739  -28.5269   17.7457 N   0  0  0  0  0  0  0  0  0  0  0  0
  -19.7787  -23.3832   20.6031 N   0  0  0  0  0  0  0  0  0  0  0  0
  -29.7911  -26.4785   18.6705 N   0  0  0  0  0  0  0  0  0  0  0  0
  -21.9428  -23.6283   24.7283 N   0  0  0  0  0  0  0  0  0  0  0  0
  -25.7597  -15.2254   20.5139 N   0  0  0  0  0  0  0  0  0  0  0  0
  -30.6695  -19.9510   20.6723 N   0  0  0  0  0  0  0  0  0  0  0  0
  -21.7029  -28.2934   22.3469 N   0  0  0  0  0  0  0  0  0  0  0  0
  -30.6482  -23.1458   18.9809 N   0  3  0  0  0  0  0  0  0  0  0  0
  -28.3061  -26.9894   16.9994 O   0  0  0  0  0  0  0  0  0  0  0  0
  -26.8557  -16.4030   22.1975 O   0  0  0  0  0  0  0  0  0  0  0  0
  -29.7021  -17.3605   19.9225 O   0  0  0  0  0  0  0  0  0  0  0  0
  -29.5806  -21.9087   21.2714 O   0  0  0  0  0  0  0  0  0  0  0  0
  -20.7930  -30.3976   22.3830 O   0  0  0  0  0  0  0  0  0  0  0  0
  -32.2375  -26.1504   23.6648 O   0  0  0  0  0  0  0  0  0  0  0  0
  -22.9040  -21.6700   22.5817 O   0  0  0  0  0  0  0  0  0  1  0  0
  -31.0726  -23.8240   28.5263 F   0  0  0  0  0  0  0  0  0  0  0  0
  -32.9877  -23.5453   24.2066 F   0  0  0  0  0  0  0  0  0  0  0  0
  1  2  1  0  0  0  0
  1  5  2  0  0  0  0
  2  6  2  0  0  0  0
  3  8  2  0  0  0  0
  3 15  1  0  0  0  0
  4  9  1  0  0  0  0
  4 15  2  0  0  0  0
  5 17  1  0  0  0  0
  6 19  1  0  0  0  0
  7 10  2  0  0  0  0
  7 18  1  0  0  0  0
  8 21  1  0  0  0  0
  9 21  2  0  0  0  0
 10 22  1  0  0  0  0
 11 12  2  0  0  0  0
 11 23  1  0  0  0  0
 12 24  1  0  0  0  0
 13 20  1  0  0  0  0
 13 22  2  0  0  0  0
 14 24  2  0  0  0  0
 14 25  1  0  0  0  0
 15 26  1  0  0  0  0
 16 26  1  0  0  0  0
 16 27  2  0  0  0  0
 16 31  1  0  0  0  0
 17 19  2  0  0  0  0
 17 36  1  0  0  0  0
 18 20  2  0  0  0  0
 18 37  1  0  0  0  0
 19 45  1  0  0  0  0
 20 38  1  0  0  0  0
 21 80  1  0  0  0  0
 22 81  1  0  0  0  0
 23 25  2  0  0  0  0
 23 80  1  0  0  0  0
 24 82  1  0  0  0  0
 25 83  1  0  0  0  0
 26 60  2  0  0  0  0
 27 64  1  0  0  0  0
 27 67  1  0  0  0  0
 28 54  1  0  0  0  0
 28 61  2  0  0  0  0
 28 62  1  0  0  0  0
 29 61  1  0  0  0  0
 29 63  2  0  0  0  0
 29 68  1  0  0  0  0
 30 62  2  0  0  0  0
 30 63  1  0  0  0  0
 30 70  1  0  0  0  0
 31 69  1  0  0  0  0
 31 75  2  0  0  0  0
 32 46  1  0  0  0  0
 32 71  1  0  0  0  0
 32 76  2  0  0  0  0
 33 56  1  0  0  0  0
 33 65  1  0  0  0  0
 33 77  2  0  0  0  0
 34 57  1  0  0  0  0
 34 72  1  0  0  0  0
 34 78  2  0  0  0  0
 35 66  1  0  0  0  0
 35 73  1  0  0  0  0
 35 79  2  0  0  0  0
 36 39  1  0  0  0  0
 37 46  1  0  0  0  0
 38 65  1  0  0  0  0
 39 41  1  0  0  0  0
 40 42  1  0  0  0  0
 40 43  1  0  0  0  0
 41 45  1  0  0  0  0
 42 47  1  0  0  0  0
 43 66  1  0  0  0  0
 44 47  1  0  0  0  0
 44 66  1  0  0  0  0
 45 71  1  0  0  0  0
 46 65  1  0  0  0  0
 47 64  1  0  0  0  0
 48 57  1  0  0  0  0
 49 58  1  0  0  0  0
 50 59  1  0  0  0  0
 51 59  1  0  0  0  0
 52 59  1  0  0  0  0
 53 74  1  0  0  0  0
 54 73  1  0  0  0  0
 55 58  1  0  0  0  0
 55 81  1  0  0  0  0
 56 59  1  0  0  0  0
 56 72  1  0  0  0  0
 57 74  1  0  0  0  0
 58 70  1  0  0  0  0
 60 64  1  0  0  0  0
M  CHG  1  74   1
M  ISO  4  35 100  55 101  73 100  81 101
M  END
> <Batch ID>
0192

> <Smiles>
CNC(C)C(=O)NC(C(=O)N1Cc2cc([101O:1][101CH2:1]C(C)Nc3nc(N)nc(C[100NH:0][100C:0](=O)N4CCCC(n5nc(-c6ccc(Oc7ccc(F)cc7F)cc6)c(C(N)=O)c5N)C4)n3)ccc2CC1C(=O)NC1CCCc2ccccc21)C(C)(C)C

> <Shape>
0.217

> <Color>
0.063

> <Negative vol penalty>
0.000

$$$$

  -OEChem-04052305273D

 86 94  0     1  0  0  0  0  0999 V2000
  -16.4457  -29.0886   23.5928 C   0  0  0  0  0  0  0  0  0  0  0  0
  -16.9668  -28.5533   22.4192 C   0  0  0  0  0  0  0  0  0  0  0  0
  -26.4154  -12.7569   21.6119 C   0  0  0  0  0  0  0  0  0  0  0  0
  -25.6770  -13.8222   19.5731 C   0  0  0  0  0  0  0  0  0  0  0  0
  -17.2152  -29.9607   24.3617 C   0  0  0  0  0  0  0  0  0  0  0  0
  -18.2574  -28.8907   22.0132 C   0  0  0  0  0  0  0  0  0  0  0  0
  -22.2693  -25.2791   19.1207 C   0  0  0  0  0  0  0  0  0  0  0  0
  -25.1796  -12.1205   21.7270 C   0  0  0  0  0  0  0  0  0  0  0  0
  -24.4411  -13.1857   19.6881 C   0  0  0  0  0  0  0  0  0  0  0  0
  -22.6213  -25.1555   17.7773 C   0  0  0  0  0  0  0  0  0  0  0  0
  -22.3464   -9.9336   22.3644 C   0  0  0  0  0  0  0  0  0  0  0  0
  -22.3432   -8.5782   22.6934 C   0  0  0  0  0  0  0  0  0  0  0  0
  -24.4908  -26.6369   18.1371 C   0  0  0  0  0  0  0  0  0  0  0  0
  -23.6141   -8.0906   20.6974 C   0  0  0  0  0  0  0  0  0  0  0  0
  -26.6641  -13.6078   20.5350 C   0  0  0  0  0  0  0  0  0  0  0  0
  -29.0850  -13.7872   19.7509 C   0  0  0  0  0  0  0  0  0  0  0  0
  -18.5195  -30.3014   23.9700 C   0  0  0  0  0  0  0  0  0  0  0  0
  -23.0203  -26.0925   19.9813 C   0  0  0  0  0  0  0  0  0  0  0  0
  -19.0446  -29.7693   22.7769 C   0  0  0  0  0  0  0  0  0  0  0  0
  -24.1478  -26.7671   19.4915 C   0  0  0  0  0  0  0  0  0  0  0  0
  -24.1924  -12.3348   20.7651 C   0  0  0  0  0  0  0  0  0  0  0  0
  -23.7305  -25.8367   17.2847 C   0  0  0  0  0  0  0  0  0  0  0  0
  -22.9835  -10.3676   21.2018 C   0  0  0  0  0  0  0  0  0  0  0  0
  -22.9770   -7.6567   21.8600 C   0  0  0  0  0  0  0  0  0  0  0  0
  -23.6173   -9.4461   20.3683 C   0  0  0  0  0  0  0  0  0  0  0  0
  -27.9403  -14.2660   20.4159 C   0  0  0  0  0  0  0  0  0  0  0  0
  -30.0227  -14.7753   19.9266 C   0  0  0  0  0  0  0  0  0  0  0  0
  -28.9298  -21.6537   18.7261 C   0  0  0  0  0  0  0  0  0  0  0  0
  -28.4545  -22.9101   16.7863 C   0  0  0  0  0  0  0  0  0  0  0  0
  -29.2829  -12.5590   19.0381 C   0  0  0  0  0  0  0  0  0  0  0  0
  -22.4137  -28.6895   21.7109 C   0  0  0  0  0  0  0  0  0  0  0  0
  -29.7396  -24.8354   14.6760 C   0  0  0  0  0  0  0  0  0  0  0  0
  -25.4274  -28.1911   22.8026 C   0  0  0  0  0  0  0  0  0  0  0  0
  -28.5142  -26.8362   22.2713 C   0  0  0  0  0  0  0  0  0  0  0  0
  -29.6211  -20.6518   20.9317 C   0  0  0  0  0  0  0  0  0  0  0  0
  -19.2958  -31.2852   24.8091 C   0  0  0  0  0  0  0  0  0  0  0  0
  -22.6431  -26.1942   21.4338 C   0  0  0  0  0  0  0  0  0  0  0  0
  -24.9990  -27.6369   20.3788 C   0  0  0  0  0  0  0  0  0  0  0  0
  -20.7916  -31.2983   24.5046 C   0  0  0  0  0  0  0  0  0  0  0  0
  -31.2751  -18.2502   22.9746 C   0  0  0  0  0  0  0  0  0  0  0  0
  -21.0294  -31.3368   22.9983 C   0  0  0  0  0  0  0  0  0  0  0  0
  -30.7163  -16.9120   22.4857 C   0  0  0  0  0  0  0  0  0  0  0  0
  -30.2119  -19.3472   22.9624 C   0  0  0  0  0  0  0  0  0  0  0  0
  -28.9540  -18.1816   21.1936 C   0  0  0  0  0  0  0  0  0  0  0  0
  -20.4496  -30.0918   22.3162 C   0  0  1  0  0  0  0  0  0  0  0  0
  -23.1778  -27.4566   22.1031 C   0  0  1  0  0  0  0  0  0  0  0  0
  -30.0046  -17.0612   21.1267 C   0  0  2  0  0  0  0  0  0  0  0  0
  -31.8778  -26.1773   14.5310 C   0  0  0  0  0  0  0  0  0  0  0  0
  -30.8738  -26.1484   22.7780 C   0  0  0  0  0  0  0  0  0  0  0  0
  -27.5164  -24.2329   12.7167 C   0  0  0  0  0  0  0  0  0  0  0  0
  -26.0497  -31.0770   22.0318 C   0  0  0  0  0  0  0  0  0  0  0  0
  -28.4855  -30.5252   22.2071 C   0  0  0  0  0  0  0  0  0  0  0  0
  -27.0205  -30.3488   24.2184 C   0  0  0  0  0  0  0  0  0  0  0  0
  -27.6383  -24.2489   23.4105 C   0  0  0  0  0  0  0  0  0  0  0  0
  -30.4162  -26.1712   14.9415 C   0  0  0  0  0  0  0  0  0  0  0  0
  -25.7907  -25.0068   14.4175 C   0  0  0  0  0  0  0  0  0  0  0  0
  -25.4610  -25.8418   15.6533 C   0  0  0  0  0  0  0  0  0  1  0  0
  -28.2732  -24.7257   15.0844 C   0  0  1  0  0  0  0  0  0  0  0  0
  -26.8061  -28.6324   22.3745 C   0  0  1  0  0  0  0  0  0  0  0  0
  -29.4100  -25.9916   23.1594 C   0  0  2  0  0  0  0  0  0  0  0  0
  -27.2690  -25.0884   13.9648 C   0  0  1  0  0  0  0  0  0  0  0  0
  -27.0735  -30.1311   22.6905 C   0  0  0  0  0  0  0  0  0  0  0  0
  -28.1312  -15.4650   20.9726 N   0  0  0  0  0  0  0  0  0  0  0  0
  -29.3851  -22.8850   18.8187 N   0  0  0  0  0  0  0  0  0  0  0  0
  -29.1054  -23.6222   17.6814 N   0  0  0  0  0  0  0  0  0  0  0  0
  -29.4067  -15.7479   20.6579 N   0  0  0  0  0  0  0  0  0  0  0  0
  -24.5858  -27.7092   21.7900 N   0  0  0  0  0  0  0  0  0  0  0  0
  -29.5838  -19.4334   21.6422 N   0  0  0  0  0  0  0  0  0  0  0  0
  -31.3057  -14.8983   19.5254 N   0  0  0  0  0  0  0  0  0  0  0  0
  -28.2147  -11.6557   18.9539 N   0  0  0  0  0  0  0  0  0  0  0  0
  -29.0200  -20.6047   19.6743 N   0  0  0  0  0  0  0  0  0  0  0  0
  -28.0393  -23.3731   15.5519 N   0  0  0  0  0  0  0  0  0  0  0  0
  -21.3217  -28.9542   22.5152 N   0  0  0  0  0  0  0  0  0  0  0  0
  -27.7443  -27.7116   23.0075 N   0  0  0  0  0  0  0  0  0  0  0  0
  -29.0456  -24.5513   23.0426 N   0  3  0  0  0  0  0  0  0  0  0  0
  -30.3799  -12.2639   18.5059 O   0  0  0  0  0  0  0  0  0  0  0  0
  -22.7881  -29.3525   20.7507 O   0  0  0  0  0  0  0  0  0  0  0  0
  -30.3459  -23.8853   14.1795 O   0  0  0  0  0  0  0  0  0  0  0  0
  -25.1113  -28.2644   23.9927 O   0  0  0  0  0  0  0  0  0  0  0  0
  -28.5017  -26.7325   21.0467 O   0  0  0  0  0  0  0  0  0  0  0  0
  -30.1715  -21.6552   21.3925 O   0  0  0  0  0  0  0  0  0  0  0  0
  -22.9865  -11.7138   20.8769 O   0  0  0  0  0  0  0  0  0  0  0  0
  -24.0759  -25.7183   15.9737 O   0  0  0  0  0  0  0  0  0  1  0  0
  -22.9752   -6.3552   22.1769 F   0  0  0  0  0  0  0  0  0  0  0  0
  -24.2320   -9.8572   19.2508 F   0  0  0  0  0  0  0  0  0  0  0  0
  -28.1295  -21.2920   17.2528 S   0  0  0  0  0  0  0  0  0  0  0  0
  1  2  1  0  0  0  0
  1  5  2  0  0  0  0
  2  6  2  0  0  0  0
  3  8  2  0  0  0  0
  3 15  1  0  0  0  0
  4  9  1  0  0  0  0
  4 15  2  0  0  0  0
  5 17  1  0  0  0  0
  6 19  1  0  0  0  0
  7 10  2  0  0  0  0
  7 18  1  0  0  0  0
  8 21  1  0  0  0  0
  9 21  2  0  0  0  0
 10 22  1  0  0  0  0
 11 12  2  0  0  0  0
 11 23  1  0  0  0  0
 12 24  1  0  0  0  0
 13 20  1  0  0  0  0
 13 22  2  0  0  0  0
 14 24  2  0  0  0  0
 14 25  1  0  0  0  0
 15 26  1  0  0  0  0
 16 26  1  0  0  0  0
 16 27  2  0  0  0  0
 16 30  1  0  0  0  0
 17 19  2  0  0  0  0
 17 36  1  0  0  0  0
 18 20  2  0  0  0  0
 18 37  1  0  0  0  0
 19 45  1  0  0  0  0
 20 38  1  0  0  0  0
 21 82  1  0  0  0  0
 22 83  1  0  0  0  0
 23 25  2  0  0  0  0
 23 82  1  0  0  0  0
 24 84  1  0  0  0  0
 25 85  1  0  0  0  0
 26 63  2  0  0  0  0
 27 66  1  0  0  0  0
 27 69  1  0  0  0  0
 28 64  2  0  0  0  0
 28 71  1  0  0  0  0
 28 86  1  0  0  0  0
 29 65  2  0  0  0  0
 29 72  1  0  0  0  0
 29 86  1  0  0  0  0
 30 70  1  0  0  0  0
 30 76  2  0  0  0  0
 31 46  1  0  0  0  0
 31 73  1  0  0  0  0
 31 77  2  0  0  0  0
 32 55  1  0  0  0  0
 32 58  1  0  0  0  0
 32 78  2  0  0  0  0
 33 59  1  0  0  0  0
 33 67  1  0  0  0  0
 33 79  2  0  0  0  0
 34 60  1  0  0  0  0
 34 74  1  0  0  0  0
 34 80  2  0  0  0  0
 35 68  1  0  0  0  0
 35 71  1  0  0  0  0
 35 81  2  0  0  0  0
 36 39  1  0  0  0  0
 37 46  1  0  0  0  0
 38 67  1  0  0  0  0
 39 41  1  0  0  0  0
 40 42  1  0  0  0  0
 40 43  1  0  0  0  0
 41 45  1  0  0  0  0
 42 47  1  0  0  0  0
 43 68  1  0  0  0  0
 44 47  1  0  0  0  0
 44 68  1  0  0  0  0
 45 73  1  0  0  0  0
 46 67  1  0  0  0  0
 47 66  1  0  0  0  0
 48 55  1  0  0  0  0
 49 60  1  0  0  0  0
 50 61  1  0  0  0  0
 51 62  1  0  0  0  0
 52 62  1  0  0  0  0
 53 62  1  0  0  0  0
 54 75  1  0  0  0  0
 56 57  1  0  0  0  0
 56 61  1  0  0  0  0
 57 83  1  0  0  0  0
 58 61  1  0  0  0  0
 58 72  1  0  0  0  0
 59 62  1  0  0  0  0
 59 74  1  0  0  0  0
 60 75  1  0  0  0  0
 63 66  1  0  0  0  0
 64 65  1  0  0  0  0
M  CHG  1  75   1
M  ISO  4  35 100  57 101  71 100  83 101
M  END
> <Batch ID>
0192

> <Smiles>
CCC(=O)C(Nc1nnc([100NH:0][100C:0](=O)N2CCCC(n3nc(-c4ccc(Oc5ccc(F)cc5F)cc4)c(C(N)=O)c3N)C2)s1)C(C)C[101CH2:1][101O:1]c1ccc2c(c1)CN(C(=O)C(NC(=O)C(C)NC)C(C)(C)C)C(C(=O)NC1CCCc3ccccc31)C2

> <Shape>
0.283

> <Color>
0.099

> <Negative vol penalty>
0.000

$$$$

  -OEChem-04052305273D

 83 91  0     1  0  0  0  0  0999 V2000
  -27.5862  -23.9898   17.1769 C   0  0  0  0  0  0  0  0  0  0  0  0
  -26.4232  -24.2965   17.8761 C   0  0  0  0  0  0  0  0  0  0  0  0
  -26.9431  -13.2836   19.6667 C   0  0  0  0  0  0  0  0  0  0  0  0
  -24.8018  -13.9935   20.5317 C   0  0  0  0  0  0  0  0  0  0  0  0
  -28.8166  -24.4625   17.6314 C   0  0  0  0  0  0  0  0  0  0  0  0
  -26.4901  -25.0752   19.0309 C   0  0  0  0  0  0  0  0  0  0  0  0
  -22.9125  -28.6566   19.1689 C   0  0  0  0  0  0  0  0  0  0  0  0
  -26.7607  -12.0278   20.2457 C   0  0  0  0  0  0  0  0  0  0  0  0
  -24.6194  -12.7376   21.1106 C   0  0  0  0  0  0  0  0  0  0  0  0
  -21.6244  -28.2566   19.5220 C   0  0  0  0  0  0  0  0  0  0  0  0
  -23.6927   -9.6459   20.1091 C   0  0  0  0  0  0  0  0  0  0  0  0
  -22.4456   -9.0396   19.9586 C   0  0  0  0  0  0  0  0  0  0  0  0
  -21.9957  -29.0620   21.7653 C   0  0  0  0  0  0  0  0  0  0  0  0
  -22.1775   -8.9950   22.3593 C   0  0  0  0  0  0  0  0  0  0  0  0
  -25.9637  -14.2665   19.8098 C   0  0  0  0  0  0  0  0  0  0  0  0
  -25.7645  -15.9699   17.9213 C   0  0  0  0  0  0  0  0  0  0  0  0
  -28.8975  -25.2555   18.7869 C   0  0  0  0  0  0  0  0  0  0  0  0
  -23.7571  -29.2534   20.1159 C   0  0  0  0  0  0  0  0  0  0  0  0
  -27.7229  -25.5578   19.5020 C   0  0  0  0  0  0  0  0  0  0  0  0
  -23.2932  -29.4710   21.4211 C   0  0  0  0  0  0  0  0  0  0  0  0
  -25.5988  -11.7548   20.9676 C   0  0  0  0  0  0  0  0  0  0  0  0
  -21.1669  -28.4566   20.8211 C   0  0  0  0  0  0  0  0  0  0  0  0
  -24.1823   -9.9267   21.3847 C   0  0  0  0  0  0  0  0  0  0  0  0
  -21.6880   -8.7142   21.0837 C   0  0  0  0  0  0  0  0  0  0  0  0
  -23.4247   -9.6013   22.5098 C   0  0  0  0  0  0  0  0  0  0  0  0
  -26.1519  -15.5642   19.2125 C   0  0  0  0  0  0  0  0  0  0  0  0
  -26.1650  -17.2811   17.8388 C   0  0  0  0  0  0  0  0  0  0  0  0
  -21.0305  -24.0521   21.6619 C   0  0  0  0  0  0  0  0  0  0  0  0
  -25.1020  -15.2278   16.8888 C   0  0  0  0  0  0  0  0  0  0  0  0
  -24.3152  -22.9344   21.4703 C   0  0  0  0  0  0  0  0  0  0  0  0
  -26.5630  -28.5033   21.4076 C   0  0  0  0  0  0  0  0  0  0  0  0
  -26.2876  -31.4407   22.7561 C   0  0  0  0  0  0  0  0  0  0  0  0
  -24.2495  -33.9819   23.7737 C   0  0  0  0  0  0  0  0  0  0  0  0
  -26.5776  -21.9357   21.4531 C   0  0  0  0  0  0  0  0  0  0  0  0
  -30.2555  -25.7040   19.2659 C   0  0  0  0  0  0  0  0  0  0  0  0
  -25.1344  -29.7036   19.7121 C   0  0  0  0  0  0  0  0  0  0  0  0
  -24.1534  -30.1258   22.4697 C   0  0  0  0  0  0  0  0  0  0  0  0
  -30.1974  -26.8356   20.2889 C   0  0  0  0  0  0  0  0  0  0  0  0
  -29.4418  -20.0965   20.1894 C   0  0  0  0  0  0  0  0  0  0  0  0
  -29.1524  -26.5350   21.3587 C   0  0  0  0  0  0  0  0  0  0  0  0
  -28.8588  -18.7557   19.7565 C   0  0  0  0  0  0  0  0  0  0  0  0
  -28.6822  -20.6672   21.3800 C   0  0  0  0  0  0  0  0  0  0  0  0
  -26.6060  -19.5047   20.6668 C   0  0  0  0  0  0  0  0  0  0  0  0
  -22.5212  -23.2317   19.7598 C   0  0  0  0  0  0  0  0  0  0  0  0
  -27.7518  -26.4204   20.7451 C   0  0  1  0  0  0  0  0  0  0  0  0
  -22.8928  -22.6996   21.1404 C   0  0  2  0  0  0  0  0  0  0  0  0
  -26.0907  -29.8339   20.8936 C   0  0  1  0  0  0  0  0  0  0  0  0
  -27.3566  -18.8912   19.4692 C   0  0  2  0  0  0  0  0  0  0  0  0
  -24.3114  -36.2361   24.8746 C   0  0  0  0  0  0  0  0  0  0  0  0
  -17.8596  -24.3340   21.7842 C   0  0  0  0  0  0  0  0  0  0  0  0
  -26.7467  -30.1045   25.4605 C   0  0  0  0  0  0  0  0  0  0  0  0
  -25.8675  -32.1772   26.5556 C   0  0  0  0  0  0  0  0  0  0  0  0
  -27.9322  -32.2859   25.1600 C   0  0  0  0  0  0  0  0  0  0  0  0
  -23.0681  -35.3012   21.4025 C   0  0  0  0  0  0  0  0  0  0  0  0
  -18.6116  -26.6118   22.5675 C   0  0  0  0  0  0  0  0  0  0  0  0
  -19.7036  -27.6746   22.5250 C   0  0  0  0  0  0  0  0  0  1  0  0
  -25.6897  -31.9788   24.0337 C   0  0  1  0  0  0  0  0  0  0  0  0
  -24.3238  -35.4822   23.5540 C   0  0  2  0  0  0  0  0  0  0  0  0
  -18.9815  -25.3610   21.7730 C   0  0  1  0  0  0  0  0  0  0  0  0
  -26.5433  -31.6225   25.2834 C   0  0  0  0  0  0  0  0  0  0  0  0
  -26.7524  -16.5387   19.9007 N   0  0  0  0  0  0  0  0  0  0  0  0
  -26.7455  -17.5697   19.0388 N   0  0  0  0  0  0  0  0  0  0  0  0
  -22.1239  -23.4595   22.1342 N   0  0  0  0  0  0  0  0  0  0  0  0
  -25.4945  -30.5426   22.0278 N   0  0  0  0  0  0  0  0  0  0  0  0
  -27.2408  -20.7482   21.1303 N   0  0  0  0  0  0  0  0  0  0  0  0
  -26.0737  -18.2038   16.8576 N   0  0  0  0  0  0  0  0  0  0  0  0
  -24.7613  -13.8917   17.1398 N   0  0  0  0  0  0  0  0  0  0  0  0
  -25.1522  -21.9257   21.2114 N   0  0  0  0  0  0  0  0  0  0  0  0
  -27.2147  -27.7343   20.4625 N   0  0  0  0  0  0  0  0  0  0  0  0
  -25.5034  -33.4107   23.8257 N   0  0  0  0  0  0  0  0  0  0  0  0
  -24.6197  -24.1183   21.9882 N   0  3  0  0  0  0  0  0  0  0  0  0
  -20.1630  -24.7408   22.3839 N   0  3  0  0  0  0  0  0  0  0  0  0
  -23.1654  -35.9442   22.7381 N   0  3  0  0  0  0  0  0  0  0  0  0
  -24.8351  -15.7298   15.7706 O   0  0  0  0  0  0  0  0  0  0  0  0
  -26.3530  -28.1977   22.5756 O   0  0  0  0  0  0  0  0  0  0  0  0
  -27.4137  -31.8093   22.4133 O   0  0  0  0  0  0  0  0  0  0  0  0
  -23.1857  -33.3778   23.8913 O   0  0  0  0  0  0  0  0  0  0  0  0
  -27.0989  -22.9359   21.9350 O   0  0  0  0  0  0  0  0  0  0  0  0
  -25.4203  -10.5294   21.5325 O   0  0  0  0  0  0  0  0  0  0  0  0
  -19.9103  -28.0666   21.1685 O   0  0  0  0  0  0  0  0  0  1  0  0
  -20.4897   -8.1334   20.9390 F   0  0  0  0  0  0  0  0  0  0  0  0
  -23.8893   -9.8697   23.7378 F   0  0  0  0  0  0  0  0  0  0  0  0
  -20.8233  -23.8617   19.9476 S   0  0  0  0  0  0  0  0  0  0  0  0
  1  2  1  0  0  0  0
  1  5  2  0  0  0  0
  2  6  2  0  0  0  0
  3  8  2  0  0  0  0
  3 15  1  0  0  0  0
  4  9  1  0  0  0  0
  4 15  2  0  0  0  0
  5 17  1  0  0  0  0
  6 19  1  0  0  0  0
  7 10  2  0  0  0  0
  7 18  1  0  0  0  0
  8 21  1  0  0  0  0
  9 21  2  0  0  0  0
 10 22  1  0  0  0  0
 11 12  2  0  0  0  0
 11 23  1  0  0  0  0
 12 24  1  0  0  0  0
 13 20  1  0  0  0  0
 13 22  2  0  0  0  0
 14 24  2  0  0  0  0
 14 25  1  0  0  0  0
 15 26  1  0  0  0  0
 16 26  1  0  0  0  0
 16 27  2  0  0  0  0
 16 29  1  0  0  0  0
 17 19  2  0  0  0  0
 17 35  1  0  0  0  0
 18 20  2  0  0  0  0
 18 36  1  0  0  0  0
 19 45  1  0  0  0  0
 20 37  1  0  0  0  0
 21 79  1  0  0  0  0
 22 80  1  0  0  0  0
 23 25  2  0  0  0  0
 23 79  1  0  0  0  0
 24 81  1  0  0  0  0
 25 82  1  0  0  0  0
 26 61  2  0  0  0  0
 27 62  1  0  0  0  0
 27 66  1  0  0  0  0
 28 63  1  0  0  0  0
 28 72  2  0  0  0  0
 28 83  1  0  0  0  0
 29 67  1  0  0  0  0
 29 74  2  0  0  0  0
 30 46  1  0  0  0  0
 30 68  1  0  0  0  0
 30 71  2  0  0  0  0
 31 47  1  0  0  0  0
 31 69  1  0  0  0  0
 31 75  2  0  0  0  0
 32 57  1  0  0  0  0
 32 64  1  0  0  0  0
 32 76  2  0  0  0  0
 33 58  1  0  0  0  0
 33 70  1  0  0  0  0
 33 77  2  0  0  0  0
 34 65  1  0  0  0  0
 34 68  1  0  0  0  0
 34 78  2  0  0  0  0
 35 38  1  0  0  0  0
 36 47  1  0  0  0  0
 37 64  1  0  0  0  0
 38 40  1  0  0  0  0
 39 41  1  0  0  0  0
 39 42  1  0  0  0  0
 40 45  1  0  0  0  0
 41 48  1  0  0  0  0
 42 65  1  0  0  0  0
 43 48  1  0  0  0  0
 43 65  1  0  0  0  0
 44 46  1  0  0  0  0
 44 83  1  0  0  0  0
 45 69  1  0  0  0  0
 46 63  1  0  0  0  0
 47 64  1  0  0  0  0
 48 62  1  0  0  0  0
 49 58  1  0  0  0  0
 50 59  1  0  0  0  0
 51 60  1  0  0  0  0
 52 60  1  0  0  0  0
 53 60  1  0  0  0  0
 54 73  1  0  0  0  0
 55 56  1  0  0  0  0
 55 59  1  0  0  0  0
 56 80  1  0  0  0  0
 57 60  1  0  0  0  0
 57 70  1  0  0  0  0
 58 73  1  0  0  0  0
 59 72  1  0  0  0  0
 61 62  1  0  0  0  0
M  CHG  3  71   1  72   1  73   1
M  ISO  4  34 100  56 101  68 100  80 101
M  END
> <Batch ID>
0192

> <Smiles>
CNC(C)C(=O)NC(C(=O)N1Cc2cc([101O:1][101CH2:1]CC(C)Nc3nc(C(N)[100NH:0][100C:0](=O)N4CCCC(n5nc(-c6ccc(Oc7ccc(F)cc7F)cc6)c(C(N)=O)c5N)C4)cs3)ccc2CC1C(=O)NC1CCCc2ccccc21)C(C)(C)C

> <Shape>
0.315

> <Color>
0.081

> <Negative vol penalty>
0.000

$$$$

  -OEChem-04052305273D

 86 94  0     1  0  0  0  0  0999 V2000
  -18.4738  -32.4663   21.4762 C   0  0  0  0  0  0  0  0  0  0  0  0
  -19.6783  -31.7933   21.2976 C   0  0  0  0  0  0  0  0  0  0  0  0
  -24.4230  -13.9431   20.2173 C   0  0  0  0  0  0  0  0  0  0  0  0
  -26.5237  -13.8713   21.4084 C   0  0  0  0  0  0  0  0  0  0  0  0
  -17.4625  -31.8911   22.2445 C   0  0  0  0  0  0  0  0  0  0  0  0
  -19.8725  -30.5452   21.8883 C   0  0  0  0  0  0  0  0  0  0  0  0
  -21.9831  -27.2044   18.7214 C   0  0  0  0  0  0  0  0  0  0  0  0
  -24.4269  -12.5512   20.1265 C   0  0  0  0  0  0  0  0  0  0  0  0
  -26.5276  -12.4794   21.3177 C   0  0  0  0  0  0  0  0  0  0  0  0
  -23.3569  -27.3093   18.5082 C   0  0  0  0  0  0  0  0  0  0  0  0
  -23.7161   -9.9222   22.1305 C   0  0  0  0  0  0  0  0  0  0  0  0
  -22.5278   -9.2506   22.4175 C   0  0  0  0  0  0  0  0  0  0  0  0
  -23.7304  -25.5077   20.0684 C   0  0  0  0  0  0  0  0  0  0  0  0
  -22.5135   -8.3228   20.1868 C   0  0  0  0  0  0  0  0  0  0  0  0
  -28.5939  -23.3386   23.0838 C   0  0  0  0  0  0  0  0  0  0  0  0
  -25.4715  -14.6032   20.8582 C   0  0  0  0  0  0  0  0  0  0  0  0
  -24.9120  -16.8247   21.9804 C   0  0  0  0  0  0  0  0  0  0  0  0
  -17.6408  -30.6310   22.8369 C   0  0  0  0  0  0  0  0  0  0  0  0
  -21.4725  -26.2561   19.6195 C   0  0  0  0  0  0  0  0  0  0  0  0
  -18.8631  -29.9533   22.6664 C   0  0  0  0  0  0  0  0  0  0  0  0
  -22.3496  -25.3912   20.2893 C   0  0  0  0  0  0  0  0  0  0  0  0
  -25.4792  -11.8194   20.6767 C   0  0  0  0  0  0  0  0  0  0  0  0
  -24.2310  -26.4628   19.1839 C   0  0  0  0  0  0  0  0  0  0  0  0
  -24.3031   -9.7943   20.8717 C   0  0  0  0  0  0  0  0  0  0  0  0
  -21.9265   -8.4508   21.4457 C   0  0  0  0  0  0  0  0  0  0  0  0
  -23.7018   -8.9945   19.8998 C   0  0  0  0  0  0  0  0  0  0  0  0
  -25.4683  -16.0410   20.9518 C   0  0  0  0  0  0  0  0  0  0  0  0
  -28.7752  -23.3786   21.7163 C   0  0  0  0  0  0  0  0  0  0  0  0
  -28.8738  -24.5099   23.7576 C   0  0  0  0  0  0  0  0  0  0  0  0
  -25.1709  -18.1198   21.6036 C   0  0  0  0  0  0  0  0  0  0  0  0
  -29.4360  -25.5512   21.8168 C   0  0  0  0  0  0  0  0  0  0  0  0
  -24.2229  -16.4183   23.1703 C   0  0  0  0  0  0  0  0  0  0  0  0
  -19.8003  -26.3960   22.3191 C   0  0  0  0  0  0  0  0  0  0  0  0
  -19.7460  -23.1689   21.9955 C   0  0  0  0  0  0  0  0  0  0  0  0
  -21.1914  -20.3624   20.6989 C   0  0  0  0  0  0  0  0  0  0  0  0
  -28.6093  -22.0161   19.6038 C   0  0  0  0  0  0  0  0  0  0  0  0
  -16.5365  -30.0708   23.6978 C   0  0  0  0  0  0  0  0  0  0  0  0
  -19.9862  -26.1378   19.8182 C   0  0  0  0  0  0  0  0  0  0  0  0
  -21.8507  -24.3426   21.2485 C   0  0  0  0  0  0  0  0  0  0  0  0
  -16.6821  -28.5776   23.9800 C   0  0  0  0  0  0  0  0  0  0  0  0
  -26.8907  -19.9962   17.2283 C   0  0  0  0  0  0  0  0  0  0  0  0
  -18.1134  -28.2495   24.3930 C   0  0  0  0  0  0  0  0  0  0  0  0
  -26.3217  -18.8516   18.0698 C   0  0  0  0  0  0  0  0  0  0  0  0
  -28.2700  -20.4308   17.7206 C   0  0  0  0  0  0  0  0  0  0  0  0
  -27.7750  -19.6143   19.9916 C   0  0  0  0  0  0  0  0  0  0  0  0
  -19.1024  -28.5866   23.2706 C   0  0  1  0  0  0  0  0  0  0  0  0
  -19.6110  -25.4806   21.1428 C   0  0  1  0  0  0  0  0  0  0  0  0
  -26.3588  -19.1856   19.5740 C   0  0  2  0  0  0  0  0  0  0  0  0
  -31.3345  -27.1676   21.5519 C   0  0  0  0  0  0  0  0  0  0  0  0
  -20.9410  -17.8662   20.6379 C   0  0  0  0  0  0  0  0  0  0  0  0
  -20.8534  -22.9910   24.8331 C   0  0  0  0  0  0  0  0  0  0  0  0
  -21.4658  -20.6079   24.3701 C   0  0  0  0  0  0  0  0  0  0  0  0
  -19.0747  -21.3156   24.3005 C   0  0  0  0  0  0  0  0  0  0  0  0
  -28.9574  -25.6589   25.9708 C   0  0  0  0  0  0  0  0  0  0  0  0
  -20.8502  -20.3521   17.7590 C   0  0  0  0  0  0  0  0  0  0  0  0
  -27.5010  -27.9785   19.1897 C   0  0  0  0  0  0  0  0  0  0  0  0
  -28.9693  -28.0071   21.2904 C   0  0  0  0  0  0  0  0  0  0  0  0
  -26.0828  -27.8526   18.6407 C   0  0  0  0  0  0  0  0  0  1  0  0
  -29.9142  -26.8019   21.1005 C   0  0  2  0  0  0  0  0  0  0  0  0
  -20.6345  -22.0342   22.4451 C   0  0  1  0  0  0  0  0  0  0  0  0
  -20.6026  -19.1799   19.9507 C   0  0  2  0  0  0  0  0  0  0  0  0
  -27.5528  -27.8401   20.7138 C   0  0  1  0  0  0  0  0  0  0  0  0
  -20.5170  -21.7581   23.9706 C   0  0  0  0  0  0  0  0  0  0  0  0
  -26.0374  -16.7768   19.9933 N   0  0  0  0  0  0  0  0  0  0  0  0
  -29.1965  -24.4720   21.0477 N   0  0  0  0  0  0  0  0  0  0  0  0
  -29.2985  -25.6391   23.1535 N   0  0  0  0  0  0  0  0  0  0  0  0
  -25.8401  -18.0364   20.4181 N   0  0  0  0  0  0  0  0  0  0  0  0
  -20.3895  -24.2704   21.4138 N   0  0  0  0  0  0  0  0  0  0  0  0
  -28.2275  -20.7350   19.1526 N   0  0  0  0  0  0  0  0  0  0  0  0
  -24.8890  -19.3105   22.1739 N   0  0  0  0  0  0  0  0  0  0  0  0
  -24.0432  -15.0480   23.4032 N   0  0  0  0  0  0  0  0  0  0  0  0
  -28.4967  -22.1994   20.9816 N   0  0  0  0  0  0  0  0  0  0  0  0
  -28.6995  -24.5111   25.1634 N   0  0  0  0  0  0  0  0  0  0  0  0
  -19.0694  -27.5664   22.2446 N   0  0  0  0  0  0  0  0  0  0  0  0
  -20.2953  -20.8920   21.6032 N   0  0  0  0  0  0  0  0  0  0  0  0
  -21.1322  -19.1321   18.5585 N   0  3  0  0  0  0  0  0  0  0  0  0
  -23.7653  -17.2462   23.9940 O   0  0  0  0  0  0  0  0  0  0  0  0
  -20.5527  -26.0644   23.2278 O   0  0  0  0  0  0  0  0  0  0  0  0
  -18.5253  -23.0780   22.1481 O   0  0  0  0  0  0  0  0  0  0  0  0
  -22.3333  -20.7727   20.5034 O   0  0  0  0  0  0  0  0  0  0  0  0
  -28.9810  -22.8954   18.8223 O   0  0  0  0  0  0  0  0  0  0  0  0
  -26.7239  -28.8560   21.2842 O   0  0  0  0  0  0  0  0  0  0  0  0
  -25.4832  -10.4611   20.5885 O   0  0  0  0  0  0  0  0  0  0  0  0
  -25.5724  -26.5635   18.9782 O   0  0  0  0  0  0  0  0  0  1  0  0
  -20.7862   -7.8046   21.7219 F   0  0  0  0  0  0  0  0  0  0  0  0
  -24.2616   -8.8667   18.6890 F   0  0  0  0  0  0  0  0  0  0  0  0
  1  2  1  0  0  0  0
  1  5  2  0  0  0  0
  2  6  2  0  0  0  0
  3  8  2  0  0  0  0
  3 16  1  0  0  0  0
  4  9  1  0  0  0  0
  4 16  2  0  0  0  0
  5 18  1  0  0  0  0
  6 20  1  0  0  0  0
  7 10  2  0  0  0  0
  7 19  1  0  0  0  0
  8 22  1  0  0  0  0
  9 22  2  0  0  0  0
 10 23  1  0  0  0  0
 11 12  2  0  0  0  0
 11 24  1  0  0  0  0
 12 25  1  0  0  0  0
 13 21  1  0  0  0  0
 13 23  2  0  0  0  0
 14 25  2  0  0  0  0
 14 26  1  0  0  0  0
 15 28  2  0  0  0  0
 15 29  1  0  0  0  0
 16 27  1  0  0  0  0
 17 27  1  0  0  0  0
 17 30  2  0  0  0  0
 17 32  1  0  0  0  0
 18 20  2  0  0  0  0
 18 37  1  0  0  0  0
 19 21  2  0  0  0  0
 19 38  1  0  0  0  0
 20 46  1  0  0  0  0
 21 39  1  0  0  0  0
 22 83  1  0  0  0  0
 23 84  1  0  0  0  0
 24 26  2  0  0  0  0
 24 83  1  0  0  0  0
 25 85  1  0  0  0  0
 26 86  1  0  0  0  0
 27 64  2  0  0  0  0
 28 65  1  0  0  0  0
 28 72  1  0  0  0  0
 29 66  2  0  0  0  0
 29 73  1  0  0  0  0
 30 67  1  0  0  0  0
 30 70  1  0  0  0  0
 31 59  1  0  0  0  0
 31 65  2  0  0  0  0
 31 66  1  0  0  0  0
 32 71  1  0  0  0  0
 32 77  2  0  0  0  0
 33 47  1  0  0  0  0
 33 74  1  0  0  0  0
 33 78  2  0  0  0  0
 34 60  1  0  0  0  0
 34 68  1  0  0  0  0
 34 79  2  0  0  0  0
 35 61  1  0  0  0  0
 35 75  1  0  0  0  0
 35 80  2  0  0  0  0
 36 69  1  0  0  0  0
 36 72  1  0  0  0  0
 36 81  2  0  0  0  0
 37 40  1  0  0  0  0
 38 47  1  0  0  0  0
 39 68  1  0  0  0  0
 40 42  1  0  0  0  0
 41 43  1  0  0  0  0
 41 44  1  0  0  0  0
 42 46  1  0  0  0  0
 43 48  1  0  0  0  0
 44 69  1  0  0  0  0
 45 48  1  0  0  0  0
 45 69  1  0  0  0  0
 46 74  1  0  0  0  0
 47 68  1  0  0  0  0
 48 67  1  0  0  0  0
 49 59  1  0  0  0  0
 50 61  1  0  0  0  0
 51 63  1  0  0  0  0
 52 63  1  0  0  0  0
 53 63  1  0  0  0  0
 54 73  1  0  0  0  0
 55 76  1  0  0  0  0
 56 58  1  0  0  0  0
 56 62  1  0  0  0  0
 57 59  1  0  0  0  0
 57 62  1  0  0  0  0
 58 84  1  0  0  0  0
 60 63  1  0  0  0  0
 60 75  1  0  0  0  0
 61 76  1  0  0  0  0
 62 82  1  0  0  0  0
 64 67  1  0  0  0  0
M  CHG  1  76   1
M  ISO  4  36 100  58 101  72 100  84 101
M  END
> <Batch ID>
0192

> <Smiles>
CNc1cc([100NH:0][100C:0](=O)N2CCCC(n3nc(-c4ccc(Oc5ccc(F)cc5F)cc4)c(C(N)=O)c3N)C2)nc(C(C)CC(O)C[101CH2:1][101O:1]c2ccc3c(c2)CN(C(=O)C(NC(=O)C(C)NC)C(C)(C)C)C(C(=O)NC2CCCc4ccccc42)C3)n1

> <Shape>
0.206

> <Color>
0.069

> <Negative vol penalty>
0.000

$$$$

  -OEChem-04052305273D

 86 94  0     1  0  0  0  0  0999 V2000
  -26.3845  -21.7530   16.6939 C   0  0  0  0  0  0  0  0  0  0  0  0
  -27.1238  -20.7071   17.2369 C   0  0  0  0  0  0  0  0  0  0  0  0
  -23.5368  -28.8689   22.5187 C   0  0  0  0  0  0  0  0  0  0  0  0
  -25.3974  -30.0369   21.5132 C   0  0  0  0  0  0  0  0  0  0  0  0
  -25.1167  -22.0432   17.1961 C   0  0  0  0  0  0  0  0  0  0  0  0
  -26.5960  -19.9514   18.2832 C   0  0  0  0  0  0  0  0  0  0  0  0
  -27.2848  -14.9774   17.6272 C   0  0  0  0  0  0  0  0  0  0  0  0
  -23.1572  -30.0392   23.1759 C   0  0  0  0  0  0  0  0  0  0  0  0
  -25.0178  -31.2072   22.1703 C   0  0  0  0  0  0  0  0  0  0  0  0
  -28.5518  -14.4676   17.9077 C   0  0  0  0  0  0  0  0  0  0  0  0
  -24.7499  -34.4115   23.8646 C   0  0  0  0  0  0  0  0  0  0  0  0
  -25.7501  -35.1608   24.4841 C   0  0  0  0  0  0  0  0  0  0  0  0
  -27.7613  -13.7000   20.0536 C   0  0  0  0  0  0  0  0  0  0  0  0
  -26.2913  -33.2738   25.8925 C   0  0  0  0  0  0  0  0  0  0  0  0
  -32.0577  -18.7645   18.8730 C   0  0  0  0  0  0  0  0  0  0  0  0
  -31.1810  -18.1722   21.3241 C   0  0  0  0  0  0  0  0  0  0  0  0
  -24.6569  -28.8677   21.6874 C   0  0  0  0  0  0  0  0  0  0  0  0
  -24.6342  -27.2254   19.7355 C   0  0  0  0  0  0  0  0  0  0  0  0
  -24.5691  -21.2845   18.2426 C   0  0  0  0  0  0  0  0  0  0  0  0
  -26.2477  -14.8618   18.5639 C   0  0  0  0  0  0  0  0  0  0  0  0
  -25.3202  -20.2325   18.8008 C   0  0  0  0  0  0  0  0  0  0  0  0
  -26.4814  -14.2069   19.7816 C   0  0  0  0  0  0  0  0  0  0  0  0
  -23.8977  -31.2084   23.0017 C   0  0  0  0  0  0  0  0  0  0  0  0
  -28.7910  -13.8314   19.1222 C   0  0  0  0  0  0  0  0  0  0  0  0
  -24.5203  -33.0934   24.2591 C   0  0  0  0  0  0  0  0  0  0  0  0
  -26.5208  -34.5919   25.4981 C   0  0  0  0  0  0  0  0  0  0  0  0
  -25.2910  -32.5246   25.2730 C   0  0  0  0  0  0  0  0  0  0  0  0
  -25.0498  -27.6589   21.0087 C   0  0  0  0  0  0  0  0  0  0  0  0
  -31.4961  -19.7296   19.6795 C   0  0  0  0  0  0  0  0  0  0  0  0
  -31.7420  -17.2068   20.5174 C   0  0  0  0  0  0  0  0  0  0  0  0
  -25.2854  -26.0303   19.5502 C   0  0  0  0  0  0  0  0  0  0  0  0
  -23.7396  -27.8473   18.8036 C   0  0  0  0  0  0  0  0  0  0  0  0
  -24.4592  -16.9212   20.1960 C   0  0  0  0  0  0  0  0  0  0  0  0
  -22.9002  -14.2323   21.1244 C   0  0  0  0  0  0  0  0  0  0  0  0
  -22.9866  -10.8559   21.6133 C   0  0  0  0  0  0  0  0  0  0  0  0
  -29.8514  -23.0205   19.7494 C   0  0  0  0  0  0  0  0  0  0  0  0
  -23.2140  -21.6660   18.7839 C   0  0  0  0  0  0  0  0  0  0  0  0
  -24.8796  -15.3933   18.2352 C   0  0  0  0  0  0  0  0  0  0  0  0
  -25.3964  -14.0388   20.8126 C   0  0  0  0  0  0  0  0  0  0  0  0
  -22.5733  -20.5790   19.6430 C   0  0  0  0  0  0  0  0  0  0  0  0
  -27.9042  -23.1675   22.7964 C   0  0  0  0  0  0  0  0  0  0  0  0
  -23.5838  -20.0224   20.6410 C   0  0  0  0  0  0  0  0  0  0  0  0
  -26.9485  -24.3224   22.4912 C   0  0  0  0  0  0  0  0  0  0  0  0
  -29.2925  -23.4322   22.2214 C   0  0  0  0  0  0  0  0  0  0  0  0
  -28.3555  -24.8678   20.4509 C   0  0  0  0  0  0  0  0  0  0  0  0
  -24.7717  -19.3741   19.9199 C   0  0  1  0  0  0  0  0  0  0  0  0
  -24.0342  -15.6741   19.4737 C   0  0  1  0  0  0  0  0  0  0  0  0
  -26.9286  -24.6505   20.9865 C   0  0  2  0  0  0  0  0  0  0  0  0
  -35.0148  -22.4666   19.6375 C   0  0  0  0  0  0  0  0  0  0  0  0
  -21.5721   -8.9449   22.4164 C   0  0  0  0  0  0  0  0  0  0  0  0
  -33.9297  -14.9230   20.3012 C   0  0  0  0  0  0  0  0  0  0  0  0
  -23.3310  -15.1289   24.0089 C   0  0  0  0  0  0  0  0  0  0  0  0
  -22.7764  -12.8001   24.7421 C   0  0  0  0  0  0  0  0  0  0  0  0
  -21.0700  -14.1677   23.5419 C   0  0  0  0  0  0  0  0  0  0  0  0
  -23.1406   -9.4889   18.9929 C   0  0  0  0  0  0  0  0  0  0  0  0
  -33.6824  -21.8475   20.0306 C   0  0  0  0  0  0  0  0  0  0  0  0
  -32.7057  -21.8293   18.8509 C   0  0  0  0  0  0  0  0  0  0  0  0
  -31.9361  -13.4830   20.8463 C   0  0  0  0  0  0  0  0  0  0  0  0
  -30.4233  -13.3036   20.7693 C   0  0  0  0  0  0  0  0  0  1  0  0
  -31.3652  -21.1329   19.1994 C   0  0  2  0  0  0  0  0  0  0  0  0
  -23.0472  -13.2499   22.2611 C   0  0  1  0  0  0  0  0  0  0  0  0
  -22.0224   -9.7548   21.2105 C   0  0  2  0  0  0  0  0  0  0  0  0
  -32.4086  -14.8163   20.2584 C   0  0  1  0  0  0  0  0  0  0  0  0
  -22.5773  -13.8414   23.6201 C   0  0  0  0  0  0  0  0  0  0  0  0
  -31.0479  -19.4509   20.9196 N   0  0  0  0  0  0  0  0  0  0  0  0
  -32.1905  -17.4856   19.2773 N   0  0  0  0  0  0  0  0  0  0  0  0
  -25.8992  -26.8084   21.5912 N   0  0  0  0  0  0  0  0  0  0  0  0
  -26.0225  -25.8284   20.6799 N   0  0  0  0  0  0  0  0  0  0  0  0
  -24.0773  -14.5811   20.4471 N   0  0  0  0  0  0  0  0  0  0  0  0
  -29.2054  -23.7194   20.7826 N   0  0  0  0  0  0  0  0  0  0  0  0
  -25.2936  -25.1430   18.5329 N   0  0  0  0  0  0  0  0  0  0  0  0
  -23.1575  -29.0735   19.1527 N   0  0  0  0  0  0  0  0  0  0  0  0
  -31.8412  -15.9174   21.0085 N   0  0  0  0  0  0  0  0  0  0  0  0
  -24.4076  -18.0649   19.4222 N   0  0  0  0  0  0  0  0  0  0  0  0
  -22.3318  -12.0452   21.8545 N   0  0  0  0  0  0  0  0  0  0  0  0
  -30.6429  -21.9506   20.1486 N   0  0  0  0  0  0  0  0  0  0  0  0
  -22.6698   -8.8295   20.2381 N   0  3  0  0  0  0  0  0  0  0  0  0
  -23.4517  -27.3229   17.7010 O   0  0  0  0  0  0  0  0  0  0  0  0
  -24.8069  -16.8512   21.3690 O   0  0  0  0  0  0  0  0  0  0  0  0
  -21.7812  -14.6686   20.8430 O   0  0  0  0  0  0  0  0  0  0  0  0
  -24.1989  -10.6778   21.7084 O   0  0  0  0  0  0  0  0  0  0  0  0
  -29.7276  -23.3242   18.5579 O   0  0  0  0  0  0  0  0  0  0  0  0
  -23.5275  -32.3506   23.6426 O   0  0  0  0  0  0  0  0  0  0  0  0
  -30.0269  -13.3334   19.3988 O   0  0  0  0  0  0  0  0  0  1  0  0
  -27.4823  -35.3111   26.0918 F   0  0  0  0  0  0  0  0  0  0  0  0
  -25.0759  -31.2584   25.6555 F   0  0  0  0  0  0  0  0  0  0  0  0
  1  2  1  0  0  0  0
  1  5  2  0  0  0  0
  2  6  2  0  0  0  0
  3  8  2  0  0  0  0
  3 17  1  0  0  0  0
  4  9  1  0  0  0  0
  4 17  2  0  0  0  0
  5 19  1  0  0  0  0
  6 21  1  0  0  0  0
  7 10  2  0  0  0  0
  7 20  1  0  0  0  0
  8 23  1  0  0  0  0
  9 23  2  0  0  0  0
 10 24  1  0  0  0  0
 11 12  2  0  0  0  0
 11 25  1  0  0  0  0
 12 26  1  0  0  0  0
 13 22  1  0  0  0  0
 13 24  2  0  0  0  0
 14 26  2  0  0  0  0
 14 27  1  0  0  0  0
 15 29  1  0  0  0  0
 15 66  2  0  0  0  0
 16 30  2  0  0  0  0
 16 65  1  0  0  0  0
 17 28  1  0  0  0  0
 18 28  1  0  0  0  0
 18 31  2  0  0  0  0
 18 32  1  0  0  0  0
 19 21  2  0  0  0  0
 19 37  1  0  0  0  0
 20 22  2  0  0  0  0
 20 38  1  0  0  0  0
 21 46  1  0  0  0  0
 22 39  1  0  0  0  0
 23 83  1  0  0  0  0
 24 84  1  0  0  0  0
 25 27  2  0  0  0  0
 25 83  1  0  0  0  0
 26 85  1  0  0  0  0
 27 86  1  0  0  0  0
 28 67  2  0  0  0  0
 29 60  1  0  0  0  0
 29 65  2  0  0  0  0
 30 66  1  0  0  0  0
 30 73  1  0  0  0  0
 31 68  1  0  0  0  0
 31 71  1  0  0  0  0
 32 72  1  0  0  0  0
 32 78  2  0  0  0  0
 33 47  1  0  0  0  0
 33 74  1  0  0  0  0
 33 79  2  0  0  0  0
 34 61  1  0  0  0  0
 34 69  1  0  0  0  0
 34 80  2  0  0  0  0
 35 62  1  0  0  0  0
 35 75  1  0  0  0  0
 35 81  2  0  0  0  0
 36 70  1  0  0  0  0
 36 76  1  0  0  0  0
 36 82  2  0  0  0  0
 37 40  1  0  0  0  0
 38 47  1  0  0  0  0
 39 69  1  0  0  0  0
 40 42  1  0  0  0  0
 41 43  1  0  0  0  0
 41 44  1  0  0  0  0
 42 46  1  0  0  0  0
 43 48  1  0  0  0  0
 44 70  1  0  0  0  0
 45 48  1  0  0  0  0
 45 70  1  0  0  0  0
 46 74  1  0  0  0  0
 47 69  1  0  0  0  0
 48 68  1  0  0  0  0
 49 56  1  0  0  0  0
 50 62  1  0  0  0  0
 51 63  1  0  0  0  0
 52 64  1  0  0  0  0
 53 64  1  0  0  0  0
 54 64  1  0  0  0  0
 55 77  1  0  0  0  0
 56 57  1  0  0  0  0
 57 60  1  0  0  0  0
 58 59  1  0  0  0  0
 58 63  1  0  0  0  0
 59 84  1  0  0  0  0
 60 76  1  0  0  0  0
 61 64  1  0  0  0  0
 61 75  1  0  0  0  0
 62 77  1  0  0  0  0
 63 73  1  0  0  0  0
 67 68  1  0  0  0  0
M  CHG  1  77   1
M  ISO  4  36 100  59 101  76 100  84 101
M  END
> <Batch ID>
0192

> <Smiles>
CCCC([100NH:0][100C:0](=O)N1CCCC(n2nc(-c3ccc(Oc4ccc(F)cc4F)cc3)c(C(N)=O)c2N)C1)c1cnc(NC(C)C[101CH2:1][101O:1]c2ccc3c(c2)CN(C(=O)C(NC(=O)C(C)NC)C(C)(C)C)C(C(=O)NC2CCCc4ccccc42)C3)cn1

> <Shape>
0.244

> <Color>
0.052

> <Negative vol penalty>
0.000

$$$$

  -OEChem-04052305273D

 83 91  0     1  0  0  0  0  0999 V2000
  -19.0373  -33.3462   21.1797 C   0  0  0  0  0  0  0  0  0  0  0  0
  -20.3404  -33.0477   20.7948 C   0  0  0  0  0  0  0  0  0  0  0  0
  -26.4183  -13.5631   20.8916 C   0  0  0  0  0  0  0  0  0  0  0  0
  -24.7786  -15.3374   20.8728 C   0  0  0  0  0  0  0  0  0  0  0  0
  -18.4534  -32.6647   22.2467 C   0  0  0  0  0  0  0  0  0  0  0  0
  -21.0608  -32.0682   21.4773 C   0  0  0  0  0  0  0  0  0  0  0  0
  -25.1644  -28.1912   19.1034 C   0  0  0  0  0  0  0  0  0  0  0  0
  -25.4759  -12.6981   21.4476 C   0  0  0  0  0  0  0  0  0  0  0  0
  -23.8362  -14.4724   21.4288 C   0  0  0  0  0  0  0  0  0  0  0  0
  -26.5579  -28.2095   19.0624 C   0  0  0  0  0  0  0  0  0  0  0  0
  -22.8433  -10.8640   20.3807 C   0  0  0  0  0  0  0  0  0  0  0  0
  -22.7451   -9.5805   19.8436 C   0  0  0  0  0  0  0  0  0  0  0  0
  -26.6279  -26.7997   21.0187 C   0  0  0  0  0  0  0  0  0  0  0  0
  -23.2974   -8.6366   21.9980 C   0  0  0  0  0  0  0  0  0  0  0  0
  -27.6031  -21.7452   20.1106 C   0  0  0  0  0  0  0  0  0  0  0  0
  -26.0697  -14.8829   20.6043 C   0  0  0  0  0  0  0  0  0  0  0  0
  -27.2945  -15.9954   18.6627 C   0  0  0  0  0  0  0  0  0  0  0  0
  -19.1637  -31.6695   22.9366 C   0  0  0  0  0  0  0  0  0  0  0  0
  -24.4912  -27.4848   20.1104 C   0  0  0  0  0  0  0  0  0  0  0  0
  -20.4864  -31.3736   22.5554 C   0  0  0  0  0  0  0  0  0  0  0  0
  -25.2258  -26.7719   21.0687 C   0  0  0  0  0  0  0  0  0  0  0  0
  -24.1848  -13.1527   21.7162 C   0  0  0  0  0  0  0  0  0  0  0  0
  -27.2899  -27.5161   20.0218 C   0  0  0  0  0  0  0  0  0  0  0  0
  -23.1686  -11.0339   21.7265 C   0  0  0  0  0  0  0  0  0  0  0  0
  -22.9721   -8.4668   20.6522 C   0  0  0  0  0  0  0  0  0  0  0  0
  -23.3956   -9.9202   22.5351 C   0  0  0  0  0  0  0  0  0  0  0  0
  -27.0429  -15.7771   20.0305 C   0  0  0  0  0  0  0  0  0  0  0  0
  -28.4671  -22.2009   21.0843 C   0  0  0  0  0  0  0  0  0  0  0  0
  -28.3026  -16.9280   18.6435 C   0  0  0  0  0  0  0  0  0  0  0  0
  -28.9365  -23.6615   19.5170 C   0  0  0  0  0  0  0  0  0  0  0  0
  -26.6724  -15.4077   17.5123 C   0  0  0  0  0  0  0  0  0  0  0  0
  -22.4987  -28.2763   22.4572 C   0  0  0  0  0  0  0  0  0  0  0  0
  -30.0170  -21.0664   22.6493 C   0  0  0  0  0  0  0  0  0  0  0  0
  -22.3057  -25.0623   22.8514 C   0  0  0  0  0  0  0  0  0  0  0  0
  -23.7454  -21.9986   22.4182 C   0  0  0  0  0  0  0  0  0  0  0  0
  -18.5071  -30.9929   24.1138 C   0  0  0  0  0  0  0  0  0  0  0  0
  -22.9874  -27.4529   20.1250 C   0  0  0  0  0  0  0  0  0  0  0  0
  -24.5508  -25.9814   22.1586 C   0  0  0  0  0  0  0  0  0  0  0  0
  -19.2069  -29.7067   24.5452 C   0  0  0  0  0  0  0  0  0  0  0  0
  -32.0281  -18.4793   21.1994 C   0  0  0  0  0  0  0  0  0  0  0  0
  -20.7152  -29.9204   24.6246 C   0  0  0  0  0  0  0  0  0  0  0  0
  -31.0002  -17.4988   20.6361 C   0  0  0  0  0  0  0  0  0  0  0  0
  -31.5364  -19.1220   22.4926 C   0  0  0  0  0  0  0  0  0  0  0  0
  -29.1789  -18.8174   21.8063 C   0  0  0  0  0  0  0  0  0  0  0  0
  -21.2914  -30.3002   23.2553 C   0  0  1  0  0  0  0  0  0  0  0  0
  -22.4101  -27.1231   21.4980 C   0  0  1  0  0  0  0  0  0  0  0  0
  -29.6232  -18.1687   20.4833 C   0  0  2  0  0  0  0  0  0  0  0  0
  -28.3134  -22.6025   23.5757 C   0  0  0  0  0  0  0  0  0  0  0  0
  -23.3657  -19.5609   22.8774 C   0  0  0  0  0  0  0  0  0  0  0  0
  -31.8656  -24.8392   19.4190 C   0  0  0  0  0  0  0  0  0  0  0  0
  -23.0303  -25.5040   25.7822 C   0  0  0  0  0  0  0  0  0  0  0  0
  -23.5625  -23.0631   25.9463 C   0  0  0  0  0  0  0  0  0  0  0  0
  -21.2432  -23.7979   25.3952 C   0  0  0  0  0  0  0  0  0  0  0  0
  -23.7821  -21.3307   19.5352 C   0  0  0  0  0  0  0  0  0  0  0  0
  -29.2631  -27.6658   18.7028 C   0  0  0  0  0  0  0  0  0  1  0  0
  -28.6314  -21.6202   22.4317 C   0  0  1  0  0  0  0  0  0  0  0  0
  -23.0647  -24.0366   23.6582 C   0  0  1  0  0  0  0  0  0  0  0  0
  -23.1917  -20.6929   21.8769 C   0  0  2  0  0  0  0  0  0  0  0  0
  -30.5308  -25.5797   19.4507 C   0  0  1  0  0  0  0  0  0  0  0  0
  -30.6022  -26.9304   18.7197 C   0  0  1  0  0  0  0  0  0  0  0  0
  -22.7382  -24.1168   25.1762 C   0  0  0  0  0  0  0  0  0  0  0  0
  -27.8281  -16.5118   20.8228 N   0  0  0  0  0  0  0  0  0  0  0  0
  -29.2327  -23.2995   20.7455 N   0  0  0  0  0  0  0  0  0  0  0  0
  -28.5830  -17.2007   19.9501 N   0  0  0  0  0  0  0  0  0  0  0  0
  -23.0787  -25.9862   22.1341 N   0  0  0  0  0  0  0  0  0  0  0  0
  -30.2159  -19.7275   22.3119 N   0  0  0  0  0  0  0  0  0  0  0  0
  -28.9679  -17.5330   17.6367 N   0  0  0  0  0  0  0  0  0  0  0  0
  -25.6530  -14.4667   17.7115 N   0  0  0  0  0  0  0  0  0  0  0  0
  -29.5186  -24.7283   18.8577 N   0  0  0  0  0  0  0  0  0  0  0  0
  -21.4116  -29.1282   22.4148 N   0  0  0  0  0  0  0  0  0  0  0  0
  -22.7724  -22.7424   23.0516 N   0  0  0  0  0  0  0  0  0  0  0  0
  -23.8911  -20.3170   20.6157 N   0  3  0  0  0  0  0  0  0  0  0  0
  -27.0218  -15.6960   16.3425 O   0  0  0  0  0  0  0  0  0  0  0  0
  -23.4801  -28.3842   23.1832 O   0  0  0  0  0  0  0  0  0  0  0  0
  -30.8958  -21.8042   23.1029 O   0  0  0  0  0  0  0  0  0  0  0  0
  -21.0723  -25.0399   22.8517 O   0  0  0  0  0  0  0  0  0  0  0  0
  -24.9241  -22.3243   22.2950 O   0  0  0  0  0  0  0  0  0  0  0  0
  -31.0396  -26.7273   17.3749 O   0  0  0  0  0  0  0  0  0  0  0  0
  -23.2649  -12.3088   22.2585 O   0  0  0  0  0  0  0  0  0  0  0  0
  -28.6501  -27.5329   19.9845 O   0  0  0  0  0  0  0  0  0  1  0  0
  -22.8763   -7.2343   20.1366 F   0  0  0  0  0  0  0  0  0  0  0  0
  -23.7073  -10.0771   23.8290 F   0  0  0  0  0  0  0  0  0  0  0  0
  -27.7455  -22.7255   18.7106 S   0  0  0  0  0  0  0  0  0  0  0  0
  1  2  1  0  0  0  0
  1  5  2  0  0  0  0
  2  6  2  0  0  0  0
  3  8  2  0  0  0  0
  3 16  1  0  0  0  0
  4  9  1  0  0  0  0
  4 16  2  0  0  0  0
  5 18  1  0  0  0  0
  6 20  1  0  0  0  0
  7 10  2  0  0  0  0
  7 19  1  0  0  0  0
  8 22  1  0  0  0  0
  9 22  2  0  0  0  0
 10 23  1  0  0  0  0
 11 12  2  0  0  0  0
 11 24  1  0  0  0  0
 12 25  1  0  0  0  0
 13 21  1  0  0  0  0
 13 23  2  0  0  0  0
 14 25  2  0  0  0  0
 14 26  1  0  0  0  0
 15 28  2  0  0  0  0
 15 83  1  0  0  0  0
 16 27  1  0  0  0  0
 17 27  1  0  0  0  0
 17 29  2  0  0  0  0
 17 31  1  0  0  0  0
 18 20  2  0  0  0  0
 18 36  1  0  0  0  0
 19 21  2  0  0  0  0
 19 37  1  0  0  0  0
 20 45  1  0  0  0  0
 21 38  1  0  0  0  0
 22 79  1  0  0  0  0
 23 80  1  0  0  0  0
 24 26  2  0  0  0  0
 24 79  1  0  0  0  0
 25 81  1  0  0  0  0
 26 82  1  0  0  0  0
 27 62  2  0  0  0  0
 28 56  1  0  0  0  0
 28 63  1  0  0  0  0
 29 64  1  0  0  0  0
 29 67  1  0  0  0  0
 30 63  2  0  0  0  0
 30 69  1  0  0  0  0
 30 83  1  0  0  0  0
 31 68  1  0  0  0  0
 31 73  2  0  0  0  0
 32 46  1  0  0  0  0
 32 70  1  0  0  0  0
 32 74  2  0  0  0  0
 33 56  1  0  0  0  0
 33 66  1  0  0  0  0
 33 75  2  0  0  0  0
 34 57  1  0  0  0  0
 34 65  1  0  0  0  0
 34 76  2  0  0  0  0
 35 58  1  0  0  0  0
 35 71  1  0  0  0  0
 35 77  2  0  0  0  0
 36 39  1  0  0  0  0
 37 46  1  0  0  0  0
 38 65  1  0  0  0  0
 39 41  1  0  0  0  0
 40 42  1  0  0  0  0
 40 43  1  0  0  0  0
 41 45  1  0  0  0  0
 42 47  1  0  0  0  0
 43 66  1  0  0  0  0
 44 47  1  0  0  0  0
 44 66  1  0  0  0  0
 45 70  1  0  0  0  0
 46 65  1  0  0  0  0
 47 64  1  0  0  0  0
 48 56  1  0  0  0  0
 49 58  1  0  0  0  0
 50 59  1  0  0  0  0
 51 61  1  0  0  0  0
 52 61  1  0  0  0  0
 53 61  1  0  0  0  0
 54 72  1  0  0  0  0
 55 60  1  0  0  0  0
 55 80  1  0  0  0  0
 57 61  1  0  0  0  0
 57 71  1  0  0  0  0
 58 72  1  0  0  0  0
 59 60  1  0  0  0  0
 59 69  1  0  0  0  0
 60 78  1  0  0  0  0
 62 64  1  0  0  0  0
M  CHG  1  72   1
M  ISO  4  33 100  55 101  56 100  80 101
M  END
> <Batch ID>
0192

> <Smiles>
CNC(C)C(=O)NC(C(=O)N1Cc2cc([101O:1][101CH2:1]C(O)C(C)Nc3nc([100CH:0](C)[100C:0](=O)N4CCCC(n5nc(-c6ccc(Oc7ccc(F)cc7F)cc6)c(C(N)=O)c5N)C4)cs3)ccc2CC1C(=O)NC1CCCc2ccccc21)C(C)(C)C

> <Shape>
0.229

> <Color>
0.068

> <Negative vol penalty>
0.000

$$$$

  -OEChem-04052305273D

 84 92  0     1  0  0  0  0  0999 V2000
  -22.9358   -7.8613   22.3410 C   0  0  0  0  0  0  0  0  0  0  0  0
  -23.8974   -8.7908   21.9578 C   0  0  0  0  0  0  0  0  0  0  0  0
  -23.5204  -30.6245   22.4740 C   0  0  0  0  0  0  0  0  0  0  0  0
  -22.9976  -28.2847   22.7731 C   0  0  0  0  0  0  0  0  0  0  0  0
  -21.5819   -8.1783   22.2389 C   0  0  0  0  0  0  0  0  0  0  0  0
  -23.5056  -10.0374   21.4713 C   0  0  0  0  0  0  0  0  0  0  0  0
  -26.1988  -13.8347   23.4645 C   0  0  0  0  0  0  0  0  0  0  0  0
  -22.1834  -30.8849   22.1737 C   0  0  0  0  0  0  0  0  0  0  0  0
  -21.6606  -28.5451   22.4728 C   0  0  0  0  0  0  0  0  0  0  0  0
  -27.4784  -14.0451   22.9524 C   0  0  0  0  0  0  0  0  0  0  0  0
  -18.0420  -28.6536   22.1377 C   0  0  0  0  0  0  0  0  0  0  0  0
  -17.0689  -28.0727   22.9509 C   0  0  0  0  0  0  0  0  0  0  0  0
  -26.6316  -15.8499   21.5942 C   0  0  0  0  0  0  0  0  0  0  0  0
  -17.9790  -29.2297   24.8666 C   0  0  0  0  0  0  0  0  0  0  0  0
  -23.9275  -29.3244   22.7737 C   0  0  0  0  0  0  0  0  0  0  0  0
  -25.9159  -29.0811   24.3532 C   0  0  0  0  0  0  0  0  0  0  0  0
  -21.1735   -9.4330   21.7599 C   0  0  0  0  0  0  0  0  0  0  0  0
  -25.1221  -14.6246   23.0364 C   0  0  0  0  0  0  0  0  0  0  0  0
  -22.1449  -10.3710   21.3614 C   0  0  0  0  0  0  0  0  0  0  0  0
  -25.3398  -15.6492   22.1043 C   0  0  0  0  0  0  0  0  0  0  0  0
  -21.2535  -29.8452   22.1731 C   0  0  0  0  0  0  0  0  0  0  0  0
  -27.6944  -15.0509   22.0150 C   0  0  0  0  0  0  0  0  0  0  0  0
  -18.9837  -29.5225   22.6890 C   0  0  0  0  0  0  0  0  0  0  0  0
  -17.0374  -28.3607   24.3153 C   0  0  0  0  0  0  0  0  0  0  0  0
  -18.9522  -29.8105   24.0535 C   0  0  0  0  0  0  0  0  0  0  0  0
  -25.3086  -29.0547   23.0834 C   0  0  0  0  0  0  0  0  0  0  0  0
  -28.6807  -22.1642   20.6934 C   0  0  0  0  0  0  0  0  0  0  0  0
  -27.2286  -28.7562   24.1129 C   0  0  0  0  0  0  0  0  0  0  0  0
  -29.3785  -23.2535   20.2153 C   0  0  0  0  0  0  0  0  0  0  0  0
  -30.3183  -21.0963   19.6996 C   0  0  0  0  0  0  0  0  0  0  0  0
  -25.3444  -29.3731   25.6354 C   0  0  0  0  0  0  0  0  0  0  0  0
  -22.3804  -14.0545   21.5324 C   0  0  0  0  0  0  0  0  0  0  0  0
  -21.8411  -17.1937   22.1463 C   0  0  0  0  0  0  0  0  0  0  0  0
  -23.1369  -20.2804   22.8096 C   0  0  0  0  0  0  0  0  0  0  0  0
  -29.9415  -25.6692   19.7752 C   0  0  0  0  0  0  0  0  0  0  0  0
  -19.6977   -9.7125   21.6231 C   0  0  0  0  0  0  0  0  0  0  0  0
  -23.7530  -14.4024   23.6183 C   0  0  0  0  0  0  0  0  0  0  0  0
  -24.2214  -16.5381   21.6272 C   0  0  0  0  0  0  0  0  0  0  0  0
  -19.3719  -11.1938   21.4499 C   0  0  0  0  0  0  0  0  0  0  0  0
  -30.5955  -29.0394   20.7191 C   0  0  0  0  0  0  0  0  0  0  0  0
  -20.2935  -11.8252   20.4112 C   0  0  0  0  0  0  0  0  0  0  0  0
  -29.3721  -29.4262   21.5532 C   0  0  0  0  0  0  0  0  0  0  0  0
  -30.2209  -28.1282   19.5516 C   0  0  0  0  0  0  0  0  0  0  0  0
  -28.2281  -27.3194   20.7532 C   0  0  0  0  0  0  0  0  0  0  0  0
  -21.7599  -11.7430   20.8521 C   0  0  1  0  0  0  0  0  0  0  0  0
  -22.6324  -14.9297   22.7275 C   0  0  1  0  0  0  0  0  0  0  0  0
  -28.5647  -28.1842   21.9790 C   0  0  2  0  0  0  0  0  0  0  0  0
  -27.4303  -22.2098   21.4792 C   0  0  0  0  0  0  0  0  0  0  0  0
  -22.4493  -22.6577   23.2253 C   0  0  0  0  0  0  0  0  0  0  0  0
  -32.7424  -18.4215   21.1014 C   0  0  0  0  0  0  0  0  0  0  0  0
  -31.4943  -17.8284   18.3798 C   0  0  0  0  0  0  0  0  0  0  0  0
  -21.2913  -17.5531   19.1666 C   0  0  0  0  0  0  0  0  0  0  0  0
  -21.5530  -20.0223   19.4873 C   0  0  0  0  0  0  0  0  0  0  0  0
  -19.7311  -18.7986   20.6730 C   0  0  0  0  0  0  0  0  0  0  0  0
  -24.3417  -20.2782   25.5129 C   0  0  0  0  0  0  0  0  0  0  0  0
  -30.7744  -16.8143   21.2734 C   0  0  0  0  0  0  0  0  0  0  0  0
  -29.2719  -16.5898   21.1212 C   0  0  0  0  0  0  0  0  0  1  0  0
  -22.1252  -18.4885   21.4240 C   0  0  1  0  0  0  0  0  0  0  0  0
  -22.7828  -21.3169   23.8607 C   0  0  2  0  0  0  0  0  0  0  0  0
  -31.2300  -18.2420   20.9040 C   0  0  2  0  0  0  0  0  0  0  0  0
  -30.8238  -18.6639   19.4679 C   0  0  1  0  0  0  0  0  0  0  0  0
  -21.1961  -18.6978   20.1950 C   0  0  0  0  0  0  0  0  0  0  0  0
  -26.1652  -28.7382   22.1087 N   0  0  0  0  0  0  0  0  0  0  0  0
  -29.2178  -20.9264   20.3983 N   0  0  0  0  0  0  0  0  0  0  0  0
  -27.3241  -28.5628   22.7661 N   0  0  0  0  0  0  0  0  0  0  0  0
  -22.8997  -16.2774   22.2210 N   0  0  0  0  0  0  0  0  0  0  0  0
  -29.4619  -26.9712   20.0311 N   0  0  0  0  0  0  0  0  0  0  0  0
  -28.2989  -28.6200   24.9242 N   0  0  0  0  0  0  0  0  0  0  0  0
  -23.9802  -29.6873   25.7029 N   0  0  0  0  0  0  0  0  0  0  0  0
  -29.1534  -24.6494   20.3077 N   0  0  0  0  0  0  0  0  0  0  0  0
  -31.1132  -20.0647   19.2349 N   0  0  0  0  0  0  0  0  0  0  0  0
  -22.0450  -12.7521   21.8496 N   0  0  0  0  0  0  0  0  0  0  0  0
  -22.0358  -19.5438   22.4273 N   0  0  0  0  0  0  0  0  0  0  0  0
  -23.9231  -21.5126   24.8000 N   0  3  0  0  0  0  0  0  0  0  0  0
  -26.0270  -29.3719   26.6878 O   0  0  0  0  0  0  0  0  0  0  0  0
  -22.4813  -14.5263   20.4059 O   0  0  0  0  0  0  0  0  0  0  0  0
  -20.7233  -17.0053   22.6328 O   0  0  0  0  0  0  0  0  0  0  0  0
  -24.2757  -20.1408   22.3689 O   0  0  0  0  0  0  0  0  0  0  0  0
  -30.9896  -25.4740   19.1544 O   0  0  0  0  0  0  0  0  0  0  0  0
  -19.9487  -30.0990   21.8803 O   0  0  0  0  0  0  0  0  0  0  0  0
  -28.9422  -15.2579   21.5131 O   0  0  0  0  0  0  0  0  0  1  0  0
  -16.1019  -27.8040   25.0957 F   0  0  0  0  0  0  0  0  0  0  0  0
  -19.8535  -30.6454   24.5886 F   0  0  0  0  0  0  0  0  0  0  0  0
  -30.7663  -22.7181   19.3617 S   0  0  0  0  0  0  0  0  0  0  0  0
  1  2  1  0  0  0  0
  1  5  2  0  0  0  0
  2  6  2  0  0  0  0
  3  8  2  0  0  0  0
  3 15  1  0  0  0  0
  4  9  1  0  0  0  0
  4 15  2  0  0  0  0
  5 17  1  0  0  0  0
  6 19  1  0  0  0  0
  7 10  2  0  0  0  0
  7 18  1  0  0  0  0
  8 21  1  0  0  0  0
  9 21  2  0  0  0  0
 10 22  1  0  0  0  0
 11 12  2  0  0  0  0
 11 23  1  0  0  0  0
 12 24  1  0  0  0  0
 13 20  1  0  0  0  0
 13 22  2  0  0  0  0
 14 24  2  0  0  0  0
 14 25  1  0  0  0  0
 15 26  1  0  0  0  0
 16 26  1  0  0  0  0
 16 28  2  0  0  0  0
 16 31  1  0  0  0  0
 17 19  2  0  0  0  0
 17 36  1  0  0  0  0
 18 20  2  0  0  0  0
 18 37  1  0  0  0  0
 19 45  1  0  0  0  0
 20 38  1  0  0  0  0
 21 80  1  0  0  0  0
 22 81  1  0  0  0  0
 23 25  2  0  0  0  0
 23 80  1  0  0  0  0
 24 82  1  0  0  0  0
 25 83  1  0  0  0  0
 26 63  2  0  0  0  0
 27 29  2  0  0  0  0
 27 48  1  0  0  0  0
 27 64  1  0  0  0  0
 28 65  1  0  0  0  0
 28 68  1  0  0  0  0
 29 70  1  0  0  0  0
 29 84  1  0  0  0  0
 30 64  2  0  0  0  0
 30 71  1  0  0  0  0
 30 84  1  0  0  0  0
 31 69  1  0  0  0  0
 31 75  2  0  0  0  0
 32 46  1  0  0  0  0
 32 72  1  0  0  0  0
 32 76  2  0  0  0  0
 33 58  1  0  0  0  0
 33 66  1  0  0  0  0
 33 77  2  0  0  0  0
 34 59  1  0  0  0  0
 34 73  1  0  0  0  0
 34 78  2  0  0  0  0
 35 67  1  0  0  0  0
 35 70  1  0  0  0  0
 35 79  2  0  0  0  0
 36 39  1  0  0  0  0
 37 46  1  0  0  0  0
 38 66  1  0  0  0  0
 39 41  1  0  0  0  0
 40 42  1  0  0  0  0
 40 43  1  0  0  0  0
 41 45  1  0  0  0  0
 42 47  1  0  0  0  0
 43 67  1  0  0  0  0
 44 47  1  0  0  0  0
 44 67  1  0  0  0  0
 45 72  1  0  0  0  0
 46 66  1  0  0  0  0
 47 65  1  0  0  0  0
 49 59  1  0  0  0  0
 50 60  1  0  0  0  0
 51 61  1  0  0  0  0
 52 62  1  0  0  0  0
 53 62  1  0  0  0  0
 54 62  1  0  0  0  0
 55 74  1  0  0  0  0
 56 57  1  0  0  0  0
 56 60  1  0  0  0  0
 57 81  1  0  0  0  0
 58 62  1  0  0  0  0
 58 73  1  0  0  0  0
 59 74  1  0  0  0  0
 60 61  1  0  0  0  0
 61 71  1  0  0  0  0
 63 65  1  0  0  0  0
M  CHG  1  74   1
M  ISO  4  35 100  57 101  70 100  81 101
M  END
> <Batch ID>
0192

> <Smiles>
CNC(C)C(=O)NC(C(=O)N1Cc2cc([101O:1][101CH2:1]CC(C)C(C)Nc3nc(C)c([100NH:0][100C:0](=O)N4CCCC(n5nc(-c6ccc(Oc7ccc(F)cc7F)cc6)c(C(N)=O)c5N)C4)s3)ccc2CC1C(=O)NC1CCCc2ccccc21)C(C)(C)C

> <Shape>
0.235

> <Color>
0.088

> <Negative vol penalty>
0.000

$$$$

  -OEChem-04052305273D

 86 94  0     1  0  0  0  0  0999 V2000
  -30.9671  -24.3403   16.5977 C   0  0  0  0  0  0  0  0  0  0  0  0
  -30.2316  -23.7490   17.6199 C   0  0  0  0  0  0  0  0  0  0  0  0
  -30.6044  -17.5199   22.7058 C   0  0  0  0  0  0  0  0  0  0  0  0
  -28.2567  -17.1191   22.3004 C   0  0  0  0  0  0  0  0  0  0  0  0
  -31.0548  -25.7295   16.5172 C   0  0  0  0  0  0  0  0  0  0  0  0
  -29.5843  -24.5467   18.5629 C   0  0  0  0  0  0  0  0  0  0  0  0
  -24.8563  -22.9948   19.5026 C   0  0  0  0  0  0  0  0  0  0  0  0
  -30.8789  -16.1777   22.4438 C   0  0  0  0  0  0  0  0  0  0  0  0
  -28.5311  -15.7769   22.0383 C   0  0  0  0  0  0  0  0  0  0  0  0
  -24.7031  -21.8916   20.3412 C   0  0  0  0  0  0  0  0  0  0  0  0
  -28.6605  -12.3232   20.9099 C   0  0  0  0  0  0  0  0  0  0  0  0
  -28.0528  -11.7414   19.7973 C   0  0  0  0  0  0  0  0  0  0  0  0
  -24.1893  -23.3675   22.1789 C   0  0  0  0  0  0  0  0  0  0  0  0
  -29.1371  -13.3542   18.3619 C   0  0  0  0  0  0  0  0  0  0  0  0
  -29.2933  -17.9907   22.6342 C   0  0  0  0  0  0  0  0  0  0  0  0
  -28.9878  -20.4372   21.9794 C   0  0  0  0  0  0  0  0  0  0  0  0
  -30.4003  -26.5447   17.4540 C   0  0  0  0  0  0  0  0  0  0  0  0
  -24.6876  -24.2953   19.9992 C   0  0  0  0  0  0  0  0  0  0  0  0
  -29.6644  -25.9480   18.4956 C   0  0  0  0  0  0  0  0  0  0  0  0
  -24.3384  -24.4854   21.3439 C   0  0  0  0  0  0  0  0  0  0  0  0
  -29.8422  -15.3062   22.1100 C   0  0  0  0  0  0  0  0  0  0  0  0
  -24.3724  -22.0780   21.6802 C   0  0  0  0  0  0  0  0  0  0  0  0
  -29.5065  -13.4205   20.7485 C   0  0  0  0  0  0  0  0  0  0  0  0
  -28.2911  -12.2569   18.5233 C   0  0  0  0  0  0  0  0  0  0  0  0
  -29.7447  -13.9359   19.4745 C   0  0  0  0  0  0  0  0  0  0  0  0
  -29.0091  -19.3770   22.9053 C   0  0  0  0  0  0  0  0  0  0  0  0
  -22.4333  -20.8083   27.1858 C   0  0  0  0  0  0  0  0  0  0  0  0
  -28.6687  -21.5422   22.7301 C   0  0  0  0  0  0  0  0  0  0  0  0
  -21.7373  -19.9924   28.0530 C   0  0  0  0  0  0  0  0  0  0  0  0
  -21.4673  -19.5057   25.7093 C   0  0  0  0  0  0  0  0  0  0  0  0
  -29.2344  -20.4244   20.5671 C   0  0  0  0  0  0  0  0  0  0  0  0
  -26.5615  -26.8464   20.2894 C   0  0  0  0  0  0  0  0  0  0  0  0
  -23.8121  -28.2726   21.2531 C   0  0  0  0  0  0  0  0  0  0  0  0
  -20.6905  -27.9399   22.5917 C   0  0  0  0  0  0  0  0  0  0  0  0
  -25.7497  -22.2481   27.9101 C   0  0  0  0  0  0  0  0  0  0  0  0
  -30.5631  -28.0407   17.3537 C   0  0  0  0  0  0  0  0  0  0  0  0
  -24.8301  -25.4736   19.0753 C   0  0  0  0  0  0  0  0  0  0  0  0
  -24.1263  -25.8602   21.9214 C   0  0  0  0  0  0  0  0  0  0  0  0
  -29.5388  -28.8212   18.1734 C   0  0  0  0  0  0  0  0  0  0  0  0
  -29.0675  -23.3010   27.1617 C   0  0  0  0  0  0  0  0  0  0  0  0
  -29.4165  -28.2324   19.5753 C   0  0  0  0  0  0  0  0  0  0  0  0
  -29.4268  -22.5104   25.9024 C   0  0  0  0  0  0  0  0  0  0  0  0
  -28.2073  -22.4782   28.1184 C   0  0  0  0  0  0  0  0  0  0  0  0
  -27.3512  -21.1087   26.2569 C   0  0  0  0  0  0  0  0  0  0  0  0
  -28.9277  -26.7799   19.5229 C   0  0  1  0  0  0  0  0  0  0  0  0
  -25.1394  -26.7746   19.8096 C   0  0  1  0  0  0  0  0  0  0  0  0
  -28.1714  -21.9160   25.2362 C   0  0  2  0  0  0  0  0  0  0  0  0
  -19.1665  -19.5044   22.3550 C   0  0  0  0  0  0  0  0  0  0  0  0
  -22.8455  -23.2891   26.9927 C   0  0  0  0  0  0  0  0  0  0  0  0
  -18.6946  -29.2888   23.2948 C   0  0  0  0  0  0  0  0  0  0  0  0
  -25.3002  -29.1611   23.7643 C   0  0  0  0  0  0  0  0  0  0  0  0
  -23.0835  -29.6472   24.8216 C   0  0  0  0  0  0  0  0  0  0  0  0
  -23.7892  -30.8934   22.7792 C   0  0  0  0  0  0  0  0  0  0  0  0
  -18.9315  -26.5650   20.6489 C   0  0  0  0  0  0  0  0  0  0  0  0
  -20.5934  -19.0313   22.1034 C   0  0  0  0  0  0  0  0  0  0  0  0
  -23.7666  -19.7892   21.9053 C   0  0  0  0  0  0  0  0  0  1  0  0
  -23.3123  -21.9358   27.5622 C   0  0  2  0  0  0  0  0  0  0  0  0
  -23.1150  -28.4650   22.5783 C   0  0  1  0  0  0  0  0  0  0  0  0
  -19.3469  -28.5045   22.1669 C   0  0  2  0  0  0  0  0  0  0  0  0
  -21.5599  -19.4617   23.2163 C   0  0  2  0  0  0  0  0  0  0  0  0
  -23.0014  -18.9867   22.9569 C   0  0  1  0  0  0  0  0  0  0  0  0
  -23.8278  -29.5157   23.4757 C   0  0  0  0  0  0  0  0  0  0  0  0
  -28.7262  -19.7729   24.1492 N   0  0  0  0  0  0  0  0  0  0  0  0
  -22.2801  -20.5305   25.8415 N   0  0  0  0  0  0  0  0  0  0  0  0
  -28.5242  -21.0942   24.0102 N   0  0  0  0  0  0  0  0  0  0  0  0
  -24.2832  -26.9807   20.9795 N   0  0  0  0  0  0  0  0  0  0  0  0
  -27.0324  -21.9447   27.4249 N   0  0  0  0  0  0  0  0  0  0  0  0
  -28.5004  -22.8437   22.4136 N   0  0  0  0  0  0  0  0  0  0  0  0
  -21.7074  -20.0437   29.4066 N   0  0  0  0  0  0  0  0  0  0  0  0
  -29.5493  -19.2036   19.9549 N   0  0  0  0  0  0  0  0  0  0  0  0
  -21.0941  -18.9601   24.4964 N   0  0  0  0  0  0  0  0  0  0  0  0
  -27.5013  -26.7350   19.2825 N   0  0  0  0  0  0  0  0  0  0  0  0
  -21.7272  -28.7888   22.2663 N   0  0  0  0  0  0  0  0  0  0  0  0
  -24.6910  -21.7078   27.1905 N   0  0  0  0  0  0  0  0  0  0  0  0
  -18.4258  -27.4037   21.7659 N   0  3  0  0  0  0  0  0  0  0  0  0
  -29.1933  -21.4674   19.8714 O   0  0  0  0  0  0  0  0  0  0  0  0
  -26.7893  -26.9934   21.4845 O   0  0  0  0  0  0  0  0  0  0  0  0
  -23.9278  -29.2315   20.4858 O   0  0  0  0  0  0  0  0  0  0  0  0
  -20.8082  -26.8560   23.1590 O   0  0  0  0  0  0  0  0  0  0  0  0
  -25.5617  -22.9531   28.9075 O   0  0  0  0  0  0  0  0  0  0  0  0
  -22.9466  -17.6179   22.5402 O   0  0  0  0  0  0  0  0  0  0  0  0
  -30.1097  -13.9964   21.8540 O   0  0  0  0  0  0  0  0  0  0  0  0
  -24.2229  -21.0029   22.5011 O   0  0  0  0  0  0  0  0  0  1  0  0
  -27.7087  -11.6972   17.4548 F   0  0  0  0  0  0  0  0  0  0  0  0
  -30.5574  -14.9892   19.3130 F   0  0  0  0  0  0  0  0  0  0  0  0
  -20.8500  -18.8278   27.1599 S   0  0  0  0  0  0  0  0  0  0  0  0
  1  2  1  0  0  0  0
  1  5  2  0  0  0  0
  2  6  2  0  0  0  0
  3  8  2  0  0  0  0
  3 15  1  0  0  0  0
  4  9  1  0  0  0  0
  4 15  2  0  0  0  0
  5 17  1  0  0  0  0
  6 19  1  0  0  0  0
  7 10  2  0  0  0  0
  7 18  1  0  0  0  0
  8 21  1  0  0  0  0
  9 21  2  0  0  0  0
 10 22  1  0  0  0  0
 11 12  2  0  0  0  0
 11 23  1  0  0  0  0
 12 24  1  0  0  0  0
 13 20  1  0  0  0  0
 13 22  2  0  0  0  0
 14 24  2  0  0  0  0
 14 25  1  0  0  0  0
 15 26  1  0  0  0  0
 16 26  1  0  0  0  0
 16 28  2  0  0  0  0
 16 31  1  0  0  0  0
 17 19  2  0  0  0  0
 17 36  1  0  0  0  0
 18 20  2  0  0  0  0
 18 37  1  0  0  0  0
 19 45  1  0  0  0  0
 20 38  1  0  0  0  0
 21 82  1  0  0  0  0
 22 83  1  0  0  0  0
 23 25  2  0  0  0  0
 23 82  1  0  0  0  0
 24 84  1  0  0  0  0
 25 85  1  0  0  0  0
 26 63  2  0  0  0  0
 27 29  2  0  0  0  0
 27 57  1  0  0  0  0
 27 64  1  0  0  0  0
 28 65  1  0  0  0  0
 28 68  1  0  0  0  0
 29 69  1  0  0  0  0
 29 86  1  0  0  0  0
 30 64  2  0  0  0  0
 30 71  1  0  0  0  0
 30 86  1  0  0  0  0
 31 70  1  0  0  0  0
 31 76  2  0  0  0  0
 32 46  1  0  0  0  0
 32 72  1  0  0  0  0
 32 77  2  0  0  0  0
 33 58  1  0  0  0  0
 33 66  1  0  0  0  0
 33 78  2  0  0  0  0
 34 59  1  0  0  0  0
 34 73  1  0  0  0  0
 34 79  2  0  0  0  0
 35 67  1  0  0  0  0
 35 74  1  0  0  0  0
 35 80  2  0  0  0  0
 36 39  1  0  0  0  0
 37 46  1  0  0  0  0
 38 66  1  0  0  0  0
 39 41  1  0  0  0  0
 40 42  1  0  0  0  0
 40 43  1  0  0  0  0
 41 45  1  0  0  0  0
 42 47  1  0  0  0  0
 43 67  1  0  0  0  0
 44 47  1  0  0  0  0
 44 67  1  0  0  0  0
 45 72  1  0  0  0  0
 46 66  1  0  0  0  0
 47 65  1  0  0  0  0
 48 55  1  0  0  0  0
 49 57  1  0  0  0  0
 50 59  1  0  0  0  0
 51 62  1  0  0  0  0
 52 62  1  0  0  0  0
 53 62  1  0  0  0  0
 54 75  1  0  0  0  0
 55 60  1  0  0  0  0
 56 61  1  0  0  0  0
 56 83  1  0  0  0  0
 57 74  1  0  0  0  0
 58 62  1  0  0  0  0
 58 73  1  0  0  0  0
 59 75  1  0  0  0  0
 60 61  1  0  0  0  0
 60 71  1  0  0  0  0
 61 81  1  0  0  0  0
 63 65  1  0  0  0  0
M  CHG  1  75   1
M  ISO  4  35 100  56 101  74 100  83 101
M  END
> <Batch ID>
0192

> <Smiles>
CCC(Nc1nc(C(C)[100NH:0][100C:0](=O)N2CCCC(n3nc(-c4ccc(Oc5ccc(F)cc5F)cc4)c(C(N)=O)c3N)C2)c(N)s1)C(O)[101CH2:1][101O:1]c1ccc2c(c1)CN(C(=O)C(NC(=O)C(C)NC)C(C)(C)C)C(C(=O)NC1CCCc3ccccc31)C2

> <Shape>
0.216

> <Color>
0.034

> <Negative vol penalty>
0.000

$$$$

  -OEChem-04052305273D

 76 83  0     1  0  0  0  0  0999 V2000
  -22.2193  -20.2509   24.0782 C   0  0  0  0  0  0  0  0  0  0  0  0
  -23.5368  -20.6901   23.9957 C   0  0  0  0  0  0  0  0  0  0  0  0
  -26.5025  -14.9714   19.5656 C   0  0  0  0  0  0  0  0  0  0  0  0
  -25.4540  -14.9906   21.7422 C   0  0  0  0  0  0  0  0  0  0  0  0
  -21.2131  -20.9375   23.3999 C   0  0  0  0  0  0  0  0  0  0  0  0
  -23.8490  -21.8155   23.2339 C   0  0  0  0  0  0  0  0  0  0  0  0
  -28.1624  -25.9936   24.4355 C   0  0  0  0  0  0  0  0  0  0  0  0
  -26.4452  -13.5778   19.5503 C   0  0  0  0  0  0  0  0  0  0  0  0
  -25.3966  -13.5970   21.7268 C   0  0  0  0  0  0  0  0  0  0  0  0
  -29.4623  -26.1630   23.9609 C   0  0  0  0  0  0  0  0  0  0  0  0
  -23.4701  -11.2003   20.3252 C   0  0  0  0  0  0  0  0  0  0  0  0
  -22.2774  -10.5979   20.7253 C   0  0  0  0  0  0  0  0  0  0  0  0
  -28.6523  -27.7362   22.3213 C   0  0  0  0  0  0  0  0  0  0  0  0
  -23.4499   -9.4574   22.5034 C   0  0  0  0  0  0  0  0  0  0  0  0
  -26.0070  -15.6778   20.6616 C   0  0  0  0  0  0  0  0  0  0  0  0
  -25.0917  -18.0140   20.2010 C   0  0  0  0  0  0  0  0  0  0  0  0
  -21.5117  -22.0776   22.6373 C   0  0  0  0  0  0  0  0  0  0  0  0
  -27.0944  -26.6872   23.8485 C   0  0  0  0  0  0  0  0  0  0  0  0
  -22.8460  -22.5172   22.5437 C   0  0  0  0  0  0  0  0  0  0  0  0
  -27.3402  -27.5759   22.7920 C   0  0  0  0  0  0  0  0  0  0  0  0
  -25.8922  -12.8906   20.6309 C   0  0  0  0  0  0  0  0  0  0  0  0
  -29.7071  -27.0322   22.9017 C   0  0  0  0  0  0  0  0  0  0  0  0
  -24.6528  -10.9313   21.0141 C   0  0  0  0  0  0  0  0  0  0  0  0
  -22.2673   -9.7265   21.8144 C   0  0  0  0  0  0  0  0  0  0  0  0
  -24.6427  -10.0599   22.1032 C   0  0  0  0  0  0  0  0  0  0  0  0
  -26.0664  -17.1174   20.6783 C   0  0  0  0  0  0  0  0  0  0  0  0
  -25.6203  -19.2579   20.4456 C   0  0  0  0  0  0  0  0  0  0  0  0
  -23.8220  -17.7465   19.5912 C   0  0  0  0  0  0  0  0  0  0  0  0
  -24.4446  -25.8404   22.3106 C   0  0  0  0  0  0  0  0  0  0  0  0
  -23.8153  -29.0196   22.4465 C   0  0  0  0  0  0  0  0  0  0  0  0
  -31.3264  -24.7264   19.9034 C   0  0  0  0  0  0  0  0  0  0  0  0
  -25.0170  -32.2015   22.7269 C   0  0  0  0  0  0  0  0  0  0  0  0
  -29.9293  -22.6857   20.0828 C   0  0  0  0  0  0  0  0  0  0  0  0
  -20.3973  -22.7590   21.8835 C   0  0  0  0  0  0  0  0  0  0  0  0
  -25.7017  -26.5138   24.3895 C   0  0  0  0  0  0  0  0  0  0  0  0
  -26.2311  -28.3594   22.1405 C   0  0  0  0  0  0  0  0  0  0  0  0
  -20.7569  -24.1621   21.4014 C   0  0  0  0  0  0  0  0  0  0  0  0
  -29.6076  -20.6814   23.1763 C   0  0  0  0  0  0  0  0  0  0  0  0
  -22.1352  -24.1650   20.7478 C   0  0  0  0  0  0  0  0  0  0  0  0
  -28.6200  -19.6089   22.7281 C   0  0  0  0  0  0  0  0  0  0  0  0
  -30.5201  -21.1359   22.0378 C   0  0  0  0  0  0  0  0  0  0  0  0
  -28.7820  -20.5115   20.3775 C   0  0  0  0  0  0  0  0  0  0  0  0
  -23.2208  -23.7484   21.7476 C   0  0  1  0  0  0  0  0  0  0  0  0
  -24.6184  -26.8812   23.3801 C   0  0  1  0  0  0  0  0  0  0  0  0
  -27.8269  -20.0848   21.5020 C   0  0  1  0  0  0  0  0  0  0  0  0
  -24.2642  -34.5950   22.7677 C   0  0  0  0  0  0  0  0  0  0  0  0
  -23.4122  -28.9419   19.4230 C   0  0  0  0  0  0  0  0  0  0  0  0
  -23.6105  -31.4376   19.4024 C   0  0  0  0  0  0  0  0  0  0  0  0
  -21.7537  -30.3460   20.6608 C   0  0  0  0  0  0  0  0  0  0  0  0
  -26.0815  -32.6109   25.4578 C   0  0  0  0  0  0  0  0  0  0  0  0
  -32.4628  -25.4052   20.6496 C   0  0  0  0  0  0  0  0  0  0  0  0
  -32.4201  -26.9275   20.5155 C   0  0  0  0  0  0  0  0  0  0  0  0
  -31.1237  -27.5177   21.0556 C   0  0  0  0  0  0  0  0  0  1  0  0
  -24.1116  -30.2069   21.5623 C   0  0  1  0  0  0  0  0  0  0  0  0
  -24.5900  -33.3660   23.6021 C   0  0  2  0  0  0  0  0  0  0  0  0
  -23.2428  -30.2170   20.2729 C   0  0  0  0  0  0  0  0  0  0  0  0
  -27.1335  -17.7388   21.1874 N   0  0  0  0  0  0  0  0  0  0  0  0
  -26.8325  -19.0392   21.0314 N   0  0  0  0  0  0  0  0  0  0  0  0
  -24.8858  -28.1507   22.7011 N   0  0  0  0  0  0  0  0  0  0  0  0
  -29.7530  -21.5105   20.8391 N   0  0  0  0  0  0  0  0  0  0  0  0
  -25.1619  -20.5065   20.2145 N   0  0  0  0  0  0  0  0  0  0  0  0
  -23.4335  -16.4114   19.4150 N   0  0  0  0  0  0  0  0  0  0  0  0
  -23.5400  -24.8470   22.6339 N   0  0  0  0  0  0  0  0  0  0  0  0
  -30.9557  -23.5287   20.5222 N   0  0  0  0  0  0  0  0  0  0  0  0
  -23.9510  -31.3902   22.4004 N   0  0  0  0  0  0  0  0  0  0  0  0
  -25.6768  -33.7214   24.5579 N   0  3  0  0  0  0  0  0  0  0  0  0
  -23.0619  -18.6640   19.1988 O   0  0  0  0  0  0  0  0  0  0  0  0
  -25.0827  -25.9325   21.2684 O   0  0  0  0  0  0  0  0  0  0  0  0
  -22.6778  -28.8727   22.9005 O   0  0  0  0  0  0  0  0  0  0  0  0
  -30.8058  -25.1992   18.8970 O   0  0  0  0  0  0  0  0  0  0  0  0
  -26.1793  -32.0309   22.3656 O   0  0  0  0  0  0  0  0  0  0  0  0
  -29.2530  -22.9468   19.0828 O   0  0  0  0  0  0  0  0  0  0  0  0
  -25.8359  -11.5308   20.6161 O   0  0  0  0  0  0  0  0  0  0  0  0
  -30.9839  -27.2000   22.4328 O   0  0  0  0  0  0  0  0  0  1  0  0
  -21.1216   -9.1492   22.1995 F   0  0  0  0  0  0  0  0  0  0  0  0
  -25.7755   -9.7985   22.7698 F   0  0  0  0  0  0  0  0  0  0  0  0
  1  2  1  0  0  0  0
  1  5  2  0  0  0  0
  2  6  2  0  0  0  0
  3  8  2  0  0  0  0
  3 15  1  0  0  0  0
  4  9  1  0  0  0  0
  4 15  2  0  0  0  0
  5 17  1  0  0  0  0
  6 19  1  0  0  0  0
  7 10  2  0  0  0  0
  7 18  1  0  0  0  0
  8 21  1  0  0  0  0
  9 21  2  0  0  0  0
 10 22  1  0  0  0  0
 11 12  2  0  0  0  0
 11 23  1  0  0  0  0
 12 24  1  0  0  0  0
 13 20  1  0  0  0  0
 13 22  2  0  0  0  0
 14 24  2  0  0  0  0
 14 25  1  0  0  0  0
 15 26  1  0  0  0  0
 16 26  1  0  0  0  0
 16 27  2  0  0  0  0
 16 28  1  0  0  0  0
 17 19  2  0  0  0  0
 17 34  1  0  0  0  0
 18 20  2  0  0  0  0
 18 35  1  0  0  0  0
 19 43  1  0  0  0  0
 20 36  1  0  0  0  0
 21 73  1  0  0  0  0
 22 74  1  0  0  0  0
 23 25  2  0  0  0  0
 23 73  1  0  0  0  0
 24 75  1  0  0  0  0
 25 76  1  0  0  0  0
 26 57  2  0  0  0  0
 27 58  1  0  0  0  0
 27 61  1  0  0  0  0
 28 62  1  0  0  0  0
 28 67  2  0  0  0  0
 29 44  1  0  0  0  0
 29 63  1  0  0  0  0
 29 68  2  0  0  0  0
 30 54  1  0  0  0  0
 30 59  1  0  0  0  0
 30 69  2  0  0  0  0
 31 51  1  0  0  0  0
 31 64  1  0  0  0  0
 31 70  2  0  0  0  0
 32 55  1  0  0  0  0
 32 65  1  0  0  0  0
 32 71  2  0  0  0  0
 33 60  1  0  0  0  0
 33 64  1  0  0  0  0
 33 72  2  0  0  0  0
 34 37  1  0  0  0  0
 35 44  1  0  0  0  0
 36 59  1  0  0  0  0
 37 39  1  0  0  0  0
 38 40  1  0  0  0  0
 38 41  1  0  0  0  0
 39 43  1  0  0  0  0
 40 45  1  0  0  0  0
 41 60  1  0  0  0  0
 42 45  1  0  0  0  0
 42 60  1  0  0  0  0
 43 63  1  0  0  0  0
 44 59  1  0  0  0  0
 45 58  1  0  0  0  0
 46 55  1  0  0  0  0
 47 56  1  0  0  0  0
 48 56  1  0  0  0  0
 49 56  1  0  0  0  0
 50 66  1  0  0  0  0
 51 52  1  0  0  0  0
 52 53  1  0  0  0  0
 53 74  1  0  0  0  0
 54 56  1  0  0  0  0
 54 65  1  0  0  0  0
 55 66  1  0  0  0  0
 57 58  1  0  0  0  0
M  CHG  1  66   1
M  ISO  4  33 100  53 101  64 100  74 101
M  END
> <Batch ID>
0192

> <Smiles>
CNC(C)C(=O)NC(C(=O)N1Cc2cc([101O:1][101CH2:1]CCC(=O)[100NH:0][100C:0](=O)N3CCCC(n4nc(-c5ccc(Oc6ccc(F)cc6F)cc5)c(C(N)=O)c4N)C3)ccc2CC1C(=O)NC1CCCc2ccccc21)C(C)(C)C

> <Shape>
0.207

> <Color>
0.085

> <Negative vol penalty>
0.000

$$$$

  -OEChem-04052305273D

 91 99  0     1  0  0  0  0  0999 V2000
  -27.3995  -31.7639   27.9763 C   0  0  0  0  0  0  0  0  0  0  0  0
  -27.6297  -30.8043   26.9958 C   0  0  0  0  0  0  0  0  0  0  0  0
  -24.8495   -8.6901   20.1496 C   0  0  0  0  0  0  0  0  0  0  0  0
  -24.0978   -9.6670   22.2275 C   0  0  0  0  0  0  0  0  0  0  0  0
  -26.1001  -32.1999   28.2320 C   0  0  0  0  0  0  0  0  0  0  0  0
  -26.5603  -30.2791   26.2711 C   0  0  0  0  0  0  0  0  0  0  0  0
  -27.5269  -30.0014   21.3079 C   0  0  0  0  0  0  0  0  0  0  0  0
  -24.6400   -7.4145   20.6735 C   0  0  0  0  0  0  0  0  0  0  0  0
  -23.8882   -8.3914   22.7514 C   0  0  0  0  0  0  0  0  0  0  0  0
  -28.3295  -28.9474   20.8735 C   0  0  0  0  0  0  0  0  0  0  0  0
  -22.8134   -5.3967   24.5106 C   0  0  0  0  0  0  0  0  0  0  0  0
  -21.6256   -5.1670   25.2048 C   0  0  0  0  0  0  0  0  0  0  0  0
  -26.3590  -27.7401   20.1814 C   0  0  0  0  0  0  0  0  0  0  0  0
  -20.3598   -5.7309   23.2257 C   0  0  0  0  0  0  0  0  0  0  0  0
  -24.5784   -9.8164   20.9266 C   0  0  0  0  0  0  0  0  0  0  0  0
  -23.8702  -11.9261   19.6796 C   0  0  0  0  0  0  0  0  0  0  0  0
  -25.0153  -31.6868   27.5035 C   0  0  0  0  0  0  0  0  0  0  0  0
  -26.1313  -29.9279   21.1921 C   0  0  0  0  0  0  0  0  0  0  0  0
  -25.2450  -30.7076   26.5183 C   0  0  0  0  0  0  0  0  0  0  0  0
  -25.5411  -28.7956   20.6127 C   0  0  0  0  0  0  0  0  0  0  0  0
  -24.1593   -7.2651   21.9744 C   0  0  0  0  0  0  0  0  0  0  0  0
  -27.7455  -27.8153   20.3128 C   0  0  0  0  0  0  0  0  0  0  0  0
  -22.7744   -5.7936   23.1739 C   0  0  0  0  0  0  0  0  0  0  0  0
  -20.3988   -5.3341   24.5624 C   0  0  0  0  0  0  0  0  0  0  0  0
  -21.5476   -5.9607   22.5315 C   0  0  0  0  0  0  0  0  0  0  0  0
  -24.7952  -11.1344   20.3862 C   0  0  0  0  0  0  0  0  0  0  0  0
  -26.2416  -21.2616   20.5177 C   0  0  0  0  0  0  0  0  0  0  0  0
  -24.5575  -13.0788   19.3873 C   0  0  0  0  0  0  0  0  0  0  0  0
  -24.8806  -21.0407   20.5488 C   0  0  0  0  0  0  0  0  0  0  0  0
  -26.2664  -19.0773   20.7127 C   0  0  0  0  0  0  0  0  0  0  0  0
  -22.5111  -11.6449   19.3196 C   0  0  0  0  0  0  0  0  0  0  0  0
  -23.7059  -29.9459   23.2466 C   0  0  0  0  0  0  0  0  0  0  0  0
  -21.9217  -30.0296   20.5388 C   0  0  0  0  0  0  0  0  0  0  0  0
  -21.6902  -29.3623   17.2000 C   0  0  0  0  0  0  0  0  0  0  0  0
  -27.9669  -17.2250   20.8669 C   0  0  0  0  0  0  0  0  0  0  0  0
  -23.6234  -32.1542   27.8481 C   0  0  0  0  0  0  0  0  0  0  0  0
  -25.2811  -31.0846   21.6409 C   0  0  0  0  0  0  0  0  0  0  0  0
  -24.0489  -28.6760   20.4473 C   0  0  0  0  0  0  0  0  0  0  0  0
  -22.5868  -31.8217   26.7780 C   0  0  0  0  0  0  0  0  0  0  0  0
  -29.4799  -14.1777   19.8172 C   0  0  0  0  0  0  0  0  0  0  0  0
  -22.7359  -30.3737   26.3220 C   0  0  0  0  0  0  0  0  0  0  0  0
  -28.3199  -13.1794   19.8135 C   0  0  0  0  0  0  0  0  0  0  0  0
  -29.3667  -15.1744   20.9693 C   0  0  0  0  0  0  0  0  0  0  0  0
  -26.9219  -14.8820   21.0520 C   0  0  0  0  0  0  0  0  0  0  0  0
  -24.1139  -30.1322   25.6940 C   0  0  1  0  0  0  0  0  0  0  0  0
  -23.8406  -30.6848   21.9452 C   0  0  1  0  0  0  0  0  0  0  0  0
  -26.9576  -13.8981   19.8711 C   0  0  2  0  0  0  0  0  0  0  0  0
  -22.0322  -23.4294   22.2710 C   0  0  0  0  0  0  0  0  0  0  0  0
  -20.0944  -29.5054   15.2686 C   0  0  0  0  0  0  0  0  0  0  0  0
  -26.6541  -24.8992   25.4670 C   0  0  0  0  0  0  0  0  0  0  0  0
  -25.2177  -25.0714   23.4251 C   0  0  0  0  0  0  0  0  0  0  0  0
  -22.0137  -21.1023   19.1572 C   0  0  0  0  0  0  0  0  0  0  0  0
  -30.8118  -26.3472   20.4721 C   0  0  0  0  0  0  0  0  0  0  0  0
  -20.4199  -27.5958   21.6025 C   0  0  0  0  0  0  0  0  0  0  0  0
  -19.5343  -27.2192   19.2912 C   0  0  0  0  0  0  0  0  0  0  0  0
  -18.9731  -29.3204   20.5130 C   0  0  0  0  0  0  0  0  0  0  0  0
  -23.4777  -31.1893   15.7082 C   0  0  0  0  0  0  0  0  0  0  0  0
  -26.9214  -22.5935   20.3934 C   0  0  0  0  0  0  0  0  0  0  0  0
  -21.6232  -22.8591   20.9189 C   0  0  0  0  0  0  0  0  0  0  0  0
  -27.7449  -24.7839   23.2042 C   0  0  0  0  0  0  0  0  0  0  0  0
  -28.9974  -24.6654   20.9725 C   0  0  0  0  0  0  0  0  0  0  0  0
  -21.3171  -28.9917   19.6244 C   0  0  1  0  0  0  0  0  0  0  0  0
  -21.2049  -30.2064   16.0353 C   0  0  2  0  0  0  0  0  0  0  0  0
  -26.4782  -24.4395   24.0170 C   0  0  0  0  0  0  0  0  0  0  0  0
  -22.4581  -21.6372   20.5146 C   0  0  2  0  0  0  0  0  0  0  0  0
  -29.3527  -26.1515   20.8647 C   0  0  2  0  0  0  0  0  0  1  0  0
  -27.6896  -24.3700   21.7262 C   0  0  1  0  0  0  0  0  0  0  0  0
  -20.0891  -28.2829   20.2625 C   0  0  0  0  0  0  0  0  0  0  0  0
  -25.9799  -11.7334   20.5338 N   0  0  0  0  0  0  0  0  0  0  0  0
  -27.0378  -20.1369   20.6119 N   0  0  0  0  0  0  0  0  0  0  0  0
  -25.8040  -12.9137   19.9157 N   0  0  0  0  0  0  0  0  0  0  0  0
  -23.2598  -29.8308   20.9072 N   0  0  0  0  0  0  0  0  0  0  0  0
  -28.0520  -15.8195   20.9579 N   0  0  0  0  0  0  0  0  0  0  0  0
  -24.2113  -14.2073   18.7323 N   0  0  0  0  0  0  0  0  0  0  0  0
  -21.9608  -10.4129   19.6989 N   0  0  0  0  0  0  0  0  0  0  0  0
  -23.8833  -21.9555   20.4760 N   0  0  0  0  0  0  0  0  0  0  0  0
  -26.6647  -17.7226   20.8315 N   0  0  0  0  0  0  0  0  0  0  0  0
  -24.1532  -30.6550   24.3451 N   0  0  0  0  0  0  0  0  0  0  0  0
  -21.0269  -29.6740   18.3680 N   0  0  0  0  0  0  0  0  0  0  0  0
  -22.3258  -30.4815   15.0925 N   0  3  0  0  0  0  0  0  0  0  0  0
  -21.8109  -12.4551   18.6664 O   0  0  0  0  0  0  0  0  0  0  0  0
  -23.2300  -28.8167   23.2537 O   0  0  0  0  0  0  0  0  0  0  0  0
  -21.2343  -30.9855   20.9068 O   0  0  0  0  0  0  0  0  0  0  0  0
  -22.5671  -28.5089   17.0843 O   0  0  0  0  0  0  0  0  0  0  0  0
  -28.9747  -17.9329   20.7960 O   0  0  0  0  0  0  0  0  0  0  0  0
  -23.9545   -6.0205   22.4858 O   0  0  0  0  0  0  0  0  0  0  0  0
  -28.5265  -26.7848   19.8886 O   0  0  0  0  0  0  0  0  0  1  0  0
  -27.4492  -22.9636   21.6570 O   0  0  0  0  0  0  0  0  0  0  0  0
  -19.2583   -5.1120   25.2288 F   0  0  0  0  0  0  0  0  0  0  0  0
  -21.5039   -6.3407   21.2472 F   0  0  0  0  0  0  0  0  0  0  0  0
  -24.5738  -19.3602   20.7001 S   0  0  0  0  0  0  0  0  0  0  0  0
  1  2  1  0  0  0  0
  1  5  2  0  0  0  0
  2  6  2  0  0  0  0
  3  8  2  0  0  0  0
  3 15  1  0  0  0  0
  4  9  1  0  0  0  0
  4 15  2  0  0  0  0
  5 17  1  0  0  0  0
  6 19  1  0  0  0  0
  7 10  2  0  0  0  0
  7 18  1  0  0  0  0
  8 21  1  0  0  0  0
  9 21  2  0  0  0  0
 10 22  1  0  0  0  0
 11 12  2  0  0  0  0
 11 23  1  0  0  0  0
 12 24  1  0  0  0  0
 13 20  1  0  0  0  0
 13 22  2  0  0  0  0
 14 24  2  0  0  0  0
 14 25  1  0  0  0  0
 15 26  1  0  0  0  0
 16 26  1  0  0  0  0
 16 28  2  0  0  0  0
 16 31  1  0  0  0  0
 17 19  2  0  0  0  0
 17 36  1  0  0  0  0
 18 20  2  0  0  0  0
 18 37  1  0  0  0  0
 19 45  1  0  0  0  0
 20 38  1  0  0  0  0
 21 86  1  0  0  0  0
 22 87  1  0  0  0  0
 23 25  2  0  0  0  0
 23 86  1  0  0  0  0
 24 89  1  0  0  0  0
 25 90  1  0  0  0  0
 26 69  2  0  0  0  0
 27 29  2  0  0  0  0
 27 58  1  0  0  0  0
 27 70  1  0  0  0  0
 28 71  1  0  0  0  0
 28 74  1  0  0  0  0
 29 76  1  0  0  0  0
 29 91  1  0  0  0  0
 30 70  2  0  0  0  0
 30 77  1  0  0  0  0
 30 91  1  0  0  0  0
 31 75  1  0  0  0  0
 31 81  2  0  0  0  0
 32 46  1  0  0  0  0
 32 78  1  0  0  0  0
 32 82  2  0  0  0  0
 33 62  1  0  0  0  0
 33 72  1  0  0  0  0
 33 83  2  0  0  0  0
 34 63  1  0  0  0  0
 34 79  1  0  0  0  0
 34 84  2  0  0  0  0
 35 73  1  0  0  0  0
 35 77  1  0  0  0  0
 35 85  2  0  0  0  0
 36 39  1  0  0  0  0
 37 46  1  0  0  0  0
 38 72  1  0  0  0  0
 39 41  1  0  0  0  0
 40 42  1  0  0  0  0
 40 43  1  0  0  0  0
 41 45  1  0  0  0  0
 42 47  1  0  0  0  0
 43 73  1  0  0  0  0
 44 47  1  0  0  0  0
 44 73  1  0  0  0  0
 45 78  1  0  0  0  0
 46 72  1  0  0  0  0
 47 71  1  0  0  0  0
 48 59  1  0  0  0  0
 49 63  1  0  0  0  0
 50 64  1  0  0  0  0
 51 64  1  0  0  0  0
 52 65  1  0  0  0  0
 53 66  1  0  0  0  0
 54 68  1  0  0  0  0
 55 68  1  0  0  0  0
 56 68  1  0  0  0  0
 57 80  1  0  0  0  0
 58 88  1  0  0  0  0
 59 65  1  0  0  0  0
 60 64  1  0  0  0  0
 60 67  1  0  0  0  0
 61 66  1  0  0  0  0
 61 67  1  0  0  0  0
 62 68  1  0  0  0  0
 62 79  1  0  0  0  0
 63 80  1  0  0  0  0
 65 76  1  0  0  0  0
 66 87  1  0  0  0  0
 67 88  1  0  0  0  0
 69 71  1  0  0  0  0
M  CHG  1  80   1
M  ISO  4  35 100  66 101  77 100  87 101
M  END
> <Batch ID>
0192

> <Smiles>
CCC(C)Nc1sc([100NH:0][100C:0](=O)N2CCCC(n3nc(-c4ccc(Oc5ccc(F)cc5F)cc4)c(C(N)=O)c3N)C2)nc1COC(CC(C)C)C[101CH:1](C)[101O:1]c1ccc2c(c1)CN(C(=O)C(NC(=O)C(C)NC)C(C)(C)C)C(C(=O)NC1CCCc3ccccc31)C2

> <Shape>
0.264

> <Color>
0.104

> <Negative vol penalty>
0.000

$$$$

  -OEChem-04052305273D

 86 94  0     1  0  0  0  0  0999 V2000
  -22.9688  -20.3085   21.9792 C   0  0  0  0  0  0  0  0  0  0  0  0
  -23.9004  -21.2636   22.3701 C   0  0  0  0  0  0  0  0  0  0  0  0
  -25.8339  -13.0628   21.6630 C   0  0  0  0  0  0  0  0  0  0  0  0
  -25.2744  -13.8654   19.4540 C   0  0  0  0  0  0  0  0  0  0  0  0
  -22.0057  -20.6295   21.0249 C   0  0  0  0  0  0  0  0  0  0  0  0
  -23.8618  -22.5435   21.8158 C   0  0  0  0  0  0  0  0  0  0  0  0
  -26.9105  -25.8990   23.7261 C   0  0  0  0  0  0  0  0  0  0  0  0
  -29.1995  -23.1717   16.2175 C   0  0  0  0  0  0  0  0  0  0  0  0
  -24.7865  -12.1442   21.5945 C   0  0  0  0  0  0  0  0  0  0  0  0
  -24.2271  -12.9468   19.3854 C   0  0  0  0  0  0  0  0  0  0  0  0
  -28.2885  -25.8717   23.5159 C   0  0  0  0  0  0  0  0  0  0  0  0
  -22.4856   -9.3418   21.8549 C   0  0  0  0  0  0  0  0  0  0  0  0
  -22.7405   -8.0355   22.2719 C   0  0  0  0  0  0  0  0  0  0  0  0
  -27.9905  -22.7867   16.7863 C   0  0  0  0  0  0  0  0  0  0  0  0
  -28.0736  -27.6621   21.9136 C   0  0  0  0  0  0  0  0  0  0  0  0
  -24.4539   -7.8299   20.5810 C   0  0  0  0  0  0  0  0  0  0  0  0
  -26.0778  -13.9235   20.5927 C   0  0  0  0  0  0  0  0  0  0  0  0
  -28.4917  -14.6758   20.2538 C   0  0  0  0  0  0  0  0  0  0  0  0
  -21.9638  -21.9104   20.4500 C   0  0  0  0  0  0  0  0  0  0  0  0
  -26.1010  -26.8022   23.0223 C   0  0  0  0  0  0  0  0  0  0  0  0
  -22.8826  -22.8941   20.8689 C   0  0  0  0  0  0  0  0  0  0  0  0
  -26.6860  -27.7007   22.1185 C   0  0  0  0  0  0  0  0  0  0  0  0
  -30.2482  -23.5776   17.0353 C   0  0  0  0  0  0  0  0  0  0  0  0
  -23.9831  -12.0861   20.4557 C   0  0  0  0  0  0  0  0  0  0  0  0
  -28.8699  -26.7513   22.6075 C   0  0  0  0  0  0  0  0  0  0  0  0
  -23.2148   -9.8923   20.8008 C   0  0  0  0  0  0  0  0  0  0  0  0
  -23.7246   -7.2795   21.6350 C   0  0  0  0  0  0  0  0  0  0  0  0
  -24.1989   -9.1364   20.1639 C   0  0  0  0  0  0  0  0  0  0  0  0
  -27.1593  -14.8730   20.6631 C   0  0  0  0  0  0  0  0  0  0  0  0
  -27.8821  -22.8251   18.1671 C   0  0  0  0  0  0  0  0  0  0  0  0
  -30.0386  -23.5808   18.4049 C   0  0  0  0  0  0  0  0  0  0  0  0
  -29.1153  -15.8684   20.5283 C   0  0  0  0  0  0  0  0  0  0  0  0
  -29.1104  -13.5181   19.6771 C   0  0  0  0  0  0  0  0  0  0  0  0
  -23.7057  -26.5243   20.9514 C   0  0  0  0  0  0  0  0  0  0  0  0
  -23.5689  -29.7493   21.2727 C   0  0  0  0  0  0  0  0  0  0  0  0
  -25.1763  -32.6521   22.0710 C   0  0  0  0  0  0  0  0  0  0  0  0
  -27.1172  -21.4884   21.0527 C   0  0  0  0  0  0  0  0  0  0  0  0
  -20.8952  -22.2063   19.4273 C   0  0  0  0  0  0  0  0  0  0  0  0
  -24.6195  -26.8373   23.2801 C   0  0  0  0  0  0  0  0  0  0  0  0
  -25.8635  -28.7035   21.3528 C   0  0  0  0  0  0  0  0  0  0  0  0
  -21.2082  -23.4345   18.5789 C   0  0  0  0  0  0  0  0  0  0  0  0
  -28.8960  -19.6115   23.5001 C   0  0  0  0  0  0  0  0  0  0  0  0
  -21.5978  -24.6002   19.4756 C   0  0  0  0  0  0  0  0  0  0  0  0
  -28.7728  -18.1665   23.0137 C   0  0  0  0  0  0  0  0  0  0  0  0
  -27.6239  -20.4102   23.2246 C   0  0  0  0  0  0  0  0  0  0  0  0
  -27.0432  -18.9368   21.3363 C   0  0  0  0  0  0  0  0  0  0  0  0
  -22.8791  -24.2834   20.2572 C   0  0  1  0  0  0  0  0  0  0  0  0
  -23.8271  -27.4494   22.1291 C   0  0  1  0  0  0  0  0  0  0  0  0
  -28.3219  -18.1069   21.5418 C   0  0  2  0  0  0  0  0  0  0  0  0
  -24.8153  -35.1320   22.2016 C   0  0  0  0  0  0  0  0  0  0  0  0
  -31.1183  -22.6106   21.2137 C   0  0  0  0  0  0  0  0  0  0  0  0
  -23.7607  -29.9349   18.2331 C   0  0  0  0  0  0  0  0  0  0  0  0
  -24.3483  -32.3553   18.4877 C   0  0  0  0  0  0  0  0  0  0  0  0
  -22.1326  -31.5221   19.2746 C   0  0  0  0  0  0  0  0  0  0  0  0
  -25.7342  -32.6972   24.9771 C   0  0  0  0  0  0  0  0  0  0  0  0
  -26.5987  -22.4192   18.8113 C   0  0  0  0  0  0  0  0  0  0  0  0
  -32.0797  -24.9389   21.2418 C   0  0  0  0  0  0  0  0  0  0  0  0
  -30.6790  -27.1029   21.1043 C   0  0  0  0  0  0  0  0  0  1  0  0
  -24.2158  -30.9215   20.5752 C   0  0  1  0  0  0  0  0  0  0  0  0
  -24.7738  -33.8146   22.9603 C   0  0  2  0  0  0  0  0  0  0  0  0
  -30.9845  -24.0299   20.6697 C   0  0  1  0  0  0  0  0  0  0  0  0
  -32.0008  -26.4063   20.7899 C   0  0  1  0  0  0  0  0  0  0  0  0
  -23.6299  -31.1634   19.1555 C   0  0  0  0  0  0  0  0  0  0  0  0
  -26.9479  -16.0947   21.1600 N   0  0  0  0  0  0  0  0  0  0  0  0
  -28.8785  -23.2136   18.9940 N   0  0  0  0  0  0  0  0  0  0  0  0
  -28.1559  -16.6759   21.0647 N   0  0  0  0  0  0  0  0  0  0  0  0
  -24.4186  -28.6945   21.6349 N   0  0  0  0  0  0  0  0  0  0  0  0
  -27.2516  -20.3137   21.8111 N   0  0  0  0  0  0  0  0  0  0  0  0
  -31.4726  -23.9679   16.4616 N   0  0  0  0  0  0  0  0  0  0  0  0
  -30.3852  -16.2946   20.3608 N   0  0  0  0  0  0  0  0  0  0  0  0
  -28.3246  -12.3776   19.4625 N   0  0  0  0  0  0  0  0  0  0  0  0
  -31.0774  -23.9826   19.2258 N   0  0  0  0  0  0  0  0  0  0  0  0
  -23.0982  -25.3181   21.2437 N   0  0  0  0  0  0  0  0  0  0  0  0
  -24.0813  -32.0590   21.4788 N   0  0  0  0  0  0  0  0  0  0  0  0
  -26.7681  -21.3073   19.7200 N   0  0  0  0  0  0  0  0  0  0  0  0
  -25.6936  -33.9158   24.1285 N   0  3  0  0  0  0  0  0  0  0  0  0
  -30.3279  -13.4902   19.3765 O   0  0  0  0  0  0  0  0  0  0  0  0
  -24.1303  -26.8792   19.8580 O   0  0  0  0  0  0  0  0  0  0  0  0
  -22.3557  -29.7719   21.4945 O   0  0  0  0  0  0  0  0  0  0  0  0
  -26.3454  -32.3070   21.9141 O   0  0  0  0  0  0  0  0  0  0  0  0
  -27.3005  -22.6147   21.5266 O   0  0  0  0  0  0  0  0  0  0  0  0
  -33.0402  -27.1345   21.4496 O   0  0  0  0  0  0  0  0  0  0  0  0
  -22.9611  -11.1897   20.3885 O   0  0  0  0  0  0  0  0  0  0  0  0
  -30.2146  -26.7263   22.4000 O   0  0  0  0  0  0  0  0  0  1  0  0
  -23.9703   -6.0255   22.0367 F   0  0  0  0  0  0  0  0  0  0  0  0
  -24.9036   -9.6602   19.1516 F   0  0  0  0  0  0  0  0  0  0  0  0
  1  2  1  0  0  0  0
  1  5  2  0  0  0  0
  2  6  2  0  0  0  0
  3  9  2  0  0  0  0
  3 17  1  0  0  0  0
  4 10  1  0  0  0  0
  4 17  2  0  0  0  0
  5 19  1  0  0  0  0
  6 21  1  0  0  0  0
  7 11  2  0  0  0  0
  7 20  1  0  0  0  0
  8 14  2  0  0  0  0
  8 23  1  0  0  0  0
  9 24  1  0  0  0  0
 10 24  2  0  0  0  0
 11 25  1  0  0  0  0
 12 13  2  0  0  0  0
 12 26  1  0  0  0  0
 13 27  1  0  0  0  0
 14 30  1  0  0  0  0
 15 22  1  0  0  0  0
 15 25  2  0  0  0  0
 16 27  2  0  0  0  0
 16 28  1  0  0  0  0
 17 29  1  0  0  0  0
 18 29  1  0  0  0  0
 18 32  2  0  0  0  0
 18 33  1  0  0  0  0
 19 21  2  0  0  0  0
 19 38  1  0  0  0  0
 20 22  2  0  0  0  0
 20 39  1  0  0  0  0
 21 47  1  0  0  0  0
 22 40  1  0  0  0  0
 23 31  2  0  0  0  0
 23 69  1  0  0  0  0
 24 83  1  0  0  0  0
 25 84  1  0  0  0  0
 26 28  2  0  0  0  0
 26 83  1  0  0  0  0
 27 85  1  0  0  0  0
 28 86  1  0  0  0  0
 29 64  2  0  0  0  0
 30 56  1  0  0  0  0
 30 65  2  0  0  0  0
 31 65  1  0  0  0  0
 31 72  1  0  0  0  0
 32 66  1  0  0  0  0
 32 70  1  0  0  0  0
 33 71  1  0  0  0  0
 33 77  2  0  0  0  0
 34 48  1  0  0  0  0
 34 73  1  0  0  0  0
 34 78  2  0  0  0  0
 35 59  1  0  0  0  0
 35 67  1  0  0  0  0
 35 79  2  0  0  0  0
 36 60  1  0  0  0  0
 36 74  1  0  0  0  0
 36 80  2  0  0  0  0
 37 68  1  0  0  0  0
 37 75  1  0  0  0  0
 37 81  2  0  0  0  0
 38 41  1  0  0  0  0
 39 48  1  0  0  0  0
 40 67  1  0  0  0  0
 41 43  1  0  0  0  0
 42 44  1  0  0  0  0
 42 45  1  0  0  0  0
 43 47  1  0  0  0  0
 44 49  1  0  0  0  0
 45 68  1  0  0  0  0
 46 49  1  0  0  0  0
 46 68  1  0  0  0  0
 47 73  1  0  0  0  0
 48 67  1  0  0  0  0
 49 66  1  0  0  0  0
 50 60  1  0  0  0  0
 51 61  1  0  0  0  0
 52 63  1  0  0  0  0
 53 63  1  0  0  0  0
 54 63  1  0  0  0  0
 55 76  1  0  0  0  0
 56 75  1  0  0  0  0
 57 61  1  0  0  0  0
 57 62  1  0  0  0  0
 58 62  1  0  0  0  0
 58 84  1  0  0  0  0
 59 63  1  0  0  0  0
 59 74  1  0  0  0  0
 60 76  1  0  0  0  0
 61 72  1  0  0  0  0
 62 82  1  0  0  0  0
 64 66  1  0  0  0  0
M  CHG  1  76   1
M  ISO  4  37 100  58 101  75 100  84 101
M  END
> <Batch ID>
0192

> <Smiles>
CNC(C)C(=O)NC(C(=O)N1Cc2cc([101O:1][101CH2:1]C(O)CC(C)Nc3nc(C[100NH:0][100C:0](=O)N4CCCC(n5nc(-c6ccc(Oc7ccc(F)cc7F)cc6)c(C(N)=O)c5N)C4)ccc3N)ccc2CC1C(=O)NC1CCCc2ccccc21)C(C)(C)C

> <Shape>
0.236

> <Color>
0.062

> <Negative vol penalty>
0.000

$$$$

  -OEChem-04052305273D

 86 94  0     1  0  0  0  0  0999 V2000
  -18.0734  -28.9627   22.9380 C   0  0  0  0  0  0  0  0  0  0  0  0
  -17.4898  -27.7071   22.8025 C   0  0  0  0  0  0  0  0  0  0  0  0
  -29.8179  -23.0418   20.9298 C   0  0  0  0  0  0  0  0  0  0  0  0
  -29.5269  -22.6450   18.5645 C   0  0  0  0  0  0  0  0  0  0  0  0
  -19.4576  -29.1006   22.8435 C   0  0  0  0  0  0  0  0  0  0  0  0
  -18.2900  -26.5888   22.5713 C   0  0  0  0  0  0  0  0  0  0  0  0
  -18.6272  -19.5755   23.9913 C   0  0  0  0  0  0  0  0  0  0  0  0
  -30.4387  -24.2590   20.6493 C   0  0  0  0  0  0  0  0  0  0  0  0
  -30.1476  -23.8622   18.2839 C   0  0  0  0  0  0  0  0  0  0  0  0
  -18.7838  -18.3515   23.3424 C   0  0  0  0  0  0  0  0  0  0  0  0
  -31.7763  -27.6382   20.5676 C   0  0  0  0  0  0  0  0  0  0  0  0
  -31.3963  -28.7488   21.3210 C   0  0  0  0  0  0  0  0  0  0  0  0
  -21.1701  -18.6984   23.2768 C   0  0  0  0  0  0  0  0  0  0  0  0
  -29.1241  -28.5029   20.5376 C   0  0  0  0  0  0  0  0  0  0  0  0
  -24.6045  -13.5579   20.1849 C   0  0  0  0  0  0  0  0  0  0  0  0
  -29.3621  -22.2347   19.8874 C   0  0  0  0  0  0  0  0  0  0  0  0
  -27.3474  -20.7507   20.3834 C   0  0  0  0  0  0  0  0  0  0  0  0
  -20.2760  -27.9820   22.6208 C   0  0  0  0  0  0  0  0  0  0  0  0
  -19.7418  -20.3765   24.2786 C   0  0  0  0  0  0  0  0  0  0  0  0
  -19.6864  -26.7121   22.4725 C   0  0  0  0  0  0  0  0  0  0  0  0
  -21.0253  -19.9309   23.9318 C   0  0  0  0  0  0  0  0  0  0  0  0
  -30.6035  -24.6692   19.3263 C   0  0  0  0  0  0  0  0  0  0  0  0
  -20.0551  -17.9141   22.9824 C   0  0  0  0  0  0  0  0  0  0  0  0
  -30.8302  -26.9599   19.7990 C   0  0  0  0  0  0  0  0  0  0  0  0
  -30.0702  -29.1811   21.3061 C   0  0  0  0  0  0  0  0  0  0  0  0
  -29.5041  -27.3922   19.7841 C   0  0  0  0  0  0  0  0  0  0  0  0
  -28.7213  -20.9770   20.1766 C   0  0  0  0  0  0  0  0  0  0  0  0
  -25.6734  -12.7935   19.7638 C   0  0  0  0  0  0  0  0  0  0  0  0
  -23.9267  -13.0803   21.2880 C   0  0  0  0  0  0  0  0  0  0  0  0
  -27.2536  -19.4011   20.6205 C   0  0  0  0  0  0  0  0  0  0  0  0
  -25.3192  -11.2893   21.4309 C   0  0  0  0  0  0  0  0  0  0  0  0
  -21.0806  -14.1555   23.3751 C   0  0  0  0  0  0  0  0  0  0  0  0
  -26.2536  -21.6775   20.3629 C   0  0  0  0  0  0  0  0  0  0  0  0
  -22.3638  -13.9373   23.0247 C   0  0  0  0  0  0  0  0  0  0  0  0
  -20.6931  -23.2865   23.4237 C   0  0  0  0  0  0  0  0  0  0  0  0
  -23.0501  -22.7255   25.5806 C   0  0  0  0  0  0  0  0  0  0  0  0
  -24.9254  -20.4481   27.2962 C   0  0  0  0  0  0  0  0  0  0  0  0
  -28.6320  -14.1357   19.3871 C   0  0  0  0  0  0  0  0  0  0  0  0
  -21.7634  -28.1874   22.4791 C   0  0  0  0  0  0  0  0  0  0  0  0
  -19.5586  -21.6819   25.0030 C   0  0  0  0  0  0  0  0  0  0  0  0
  -22.2561  -20.7440   24.2358 C   0  0  0  0  0  0  0  0  0  0  0  0
  -22.5712  -26.8984   22.6062 C   0  0  0  0  0  0  0  0  0  0  0  0
  -30.8509  -15.9543   21.4956 C   0  0  0  0  0  0  0  0  0  0  0  0
  -21.9441  -25.7904   21.7661 C   0  0  0  0  0  0  0  0  0  0  0  0
  -30.3854  -17.4044   21.3524 C   0  0  0  0  0  0  0  0  0  0  0  0
  -30.7291  -15.1899   20.1792 C   0  0  0  0  0  0  0  0  0  0  0  0
  -28.9270  -16.6869   19.4141 C   0  0  0  0  0  0  0  0  0  0  0  0
  -20.5229  -25.4715   22.2458 C   0  0  1  0  0  0  0  0  0  0  0  0
  -20.7149  -22.6531   24.7860 C   0  0  1  0  0  0  0  0  0  0  0  0
  -28.9786  -17.4828   20.7295 C   0  0  2  0  0  0  0  0  0  0  0  0
  -23.4113  -13.7976   24.0996 C   0  0  0  0  0  0  0  0  0  0  0  0
  -18.8786  -13.2160   22.7108 C   0  0  0  0  0  0  0  0  0  0  0  0
  -26.7993  -20.2910   28.9579 C   0  0  0  0  0  0  0  0  0  0  0  0
  -25.0527  -23.4130   23.3836 C   0  0  0  0  0  0  0  0  0  0  0  0
  -26.8388  -22.3412   24.7726 C   0  0  0  0  0  0  0  0  0  0  0  0
  -25.6184  -24.3376   25.6373 C   0  0  0  0  0  0  0  0  0  0  0  0
  -23.2143  -19.0552   29.2688 C   0  0  0  0  0  0  0  0  0  0  0  0
  -26.4677  -13.2294   18.5786 C   0  0  0  0  0  0  0  0  0  0  0  0
  -19.2556  -15.7006   22.6398 C   0  0  0  0  0  0  0  0  0  1  0  0
  -19.8989  -14.3232   22.4436 C   0  0  1  0  0  0  0  0  0  0  0  0
  -24.4275  -22.1104   25.5233 C   0  0  1  0  0  0  0  0  0  0  0  0
  -25.2917  -20.3475   28.7660 C   0  0  2  0  0  0  0  0  0  0  0  0
  -25.4611  -23.0359   24.8216 C   0  0  0  0  0  0  0  0  0  0  0  0
  -29.4482  -19.8607   20.2740 N   0  0  0  0  0  0  0  0  0  0  0  0
  -26.0600  -11.6495   20.3656 N   0  0  0  0  0  0  0  0  0  0  0  0
  -24.2580  -11.9453   21.9379 N   0  0  0  0  0  0  0  0  0  0  0  0
  -28.5275  -18.9199   20.5446 N   0  0  0  0  0  0  0  0  0  0  0  0
  -22.0244  -22.0161   24.9398 N   0  0  0  0  0  0  0  0  0  0  0  0
  -29.3709  -15.3028   19.6422 N   0  0  0  0  0  0  0  0  0  0  0  0
  -26.2065  -18.5909   20.8846 N   0  0  0  0  0  0  0  0  0  0  0  0
  -25.6952  -10.0966   22.0863 N   0  0  0  0  0  0  0  0  0  0  0  0
  -26.5266  -23.0275   20.1036 N   0  0  0  0  0  0  0  0  0  0  0  0
  -22.8367  -13.8262   21.7466 N   0  0  0  0  0  0  0  0  0  0  0  0
  -20.5639  -24.6621   23.4448 N   0  0  0  0  0  0  0  0  0  0  0  0
  -24.7751  -21.7590   26.8959 N   0  0  0  0  0  0  0  0  0  0  0  0
  -27.3514  -14.3322   18.8850 N   0  0  0  0  0  0  0  0  0  0  0  0
  -24.6952  -19.1205   29.3657 N   0  3  0  0  0  0  0  0  0  0  0  0
  -25.0713  -21.3218   20.5847 O   0  0  0  0  0  0  0  0  0  0  0  0
  -20.7880  -22.5796   22.4272 O   0  0  0  0  0  0  0  0  0  0  0  0
  -22.8887  -23.7925   26.1782 O   0  0  0  0  0  0  0  0  0  0  0  0
  -24.7900  -19.4625   26.5745 O   0  0  0  0  0  0  0  0  0  0  0  0
  -29.0785  -13.0027   19.5966 O   0  0  0  0  0  0  0  0  0  0  0  0
  -31.2089  -25.8570   19.0522 O   0  0  0  0  0  0  0  0  0  0  0  0
  -20.2107  -16.7201   22.3484 O   0  0  0  0  0  0  0  0  0  1  0  0
  -29.7051  -30.2467   22.0309 F   0  0  0  0  0  0  0  0  0  0  0  0
  -28.5905  -26.7440   19.0487 F   0  0  0  0  0  0  0  0  0  0  0  0
  1  2  1  0  0  0  0
  1  5  2  0  0  0  0
  2  6  2  0  0  0  0
  3  8  2  0  0  0  0
  3 16  1  0  0  0  0
  4  9  1  0  0  0  0
  4 16  2  0  0  0  0
  5 18  1  0  0  0  0
  6 20  1  0  0  0  0
  7 10  2  0  0  0  0
  7 19  1  0  0  0  0
  8 22  1  0  0  0  0
  9 22  2  0  0  0  0
 10 23  1  0  0  0  0
 11 12  2  0  0  0  0
 11 24  1  0  0  0  0
 12 25  1  0  0  0  0
 13 21  1  0  0  0  0
 13 23  2  0  0  0  0
 14 25  2  0  0  0  0
 14 26  1  0  0  0  0
 15 28  2  0  0  0  0
 15 29  1  0  0  0  0
 16 27  1  0  0  0  0
 17 27  1  0  0  0  0
 17 30  2  0  0  0  0
 17 33  1  0  0  0  0
 18 20  2  0  0  0  0
 18 39  1  0  0  0  0
 19 21  2  0  0  0  0
 19 40  1  0  0  0  0
 20 48  1  0  0  0  0
 21 41  1  0  0  0  0
 22 83  1  0  0  0  0
 23 84  1  0  0  0  0
 24 26  2  0  0  0  0
 24 83  1  0  0  0  0
 25 85  1  0  0  0  0
 26 86  1  0  0  0  0
 27 64  2  0  0  0  0
 28 58  1  0  0  0  0
 28 65  1  0  0  0  0
 29 66  2  0  0  0  0
 29 73  1  0  0  0  0
 30 67  1  0  0  0  0
 30 70  1  0  0  0  0
 31 65  2  0  0  0  0
 31 66  1  0  0  0  0
 31 71  1  0  0  0  0
 32 34  2  0  0  0  0
 32 60  1  0  0  0  0
 33 72  1  0  0  0  0
 33 78  2  0  0  0  0
 34 51  1  0  0  0  0
 34 73  1  0  0  0  0
 35 49  1  0  0  0  0
 35 74  1  0  0  0  0
 35 79  2  0  0  0  0
 36 61  1  0  0  0  0
 36 68  1  0  0  0  0
 36 80  2  0  0  0  0
 37 62  1  0  0  0  0
 37 75  1  0  0  0  0
 37 81  2  0  0  0  0
 38 69  1  0  0  0  0
 38 76  1  0  0  0  0
 38 82  2  0  0  0  0
 39 42  1  0  0  0  0
 40 49  1  0  0  0  0
 41 68  1  0  0  0  0
 42 44  1  0  0  0  0
 43 45  1  0  0  0  0
 43 46  1  0  0  0  0
 44 48  1  0  0  0  0
 45 50  1  0  0  0  0
 46 69  1  0  0  0  0
 47 50  1  0  0  0  0
 47 69  1  0  0  0  0
 48 74  1  0  0  0  0
 49 68  1  0  0  0  0
 50 67  1  0  0  0  0
 52 60  1  0  0  0  0
 53 62  1  0  0  0  0
 54 63  1  0  0  0  0
 55 63  1  0  0  0  0
 56 63  1  0  0  0  0
 57 77  1  0  0  0  0
 58 76  1  0  0  0  0
 59 60  1  0  0  0  0
 59 84  1  0  0  0  0
 61 63  1  0  0  0  0
 61 75  1  0  0  0  0
 62 77  1  0  0  0  0
 64 67  1  0  0  0  0
M  CHG  1  77   1
M  ISO  4  38 100  59 101  76 100  84 101
M  END
> <Batch ID>
0192

> <Smiles>
CNC(C)C(=O)NC(C(=O)N1Cc2cc([101O:1][101CH2:1]C(C)C=C(C)Nc3cc(C[100NH:0][100C:0](=O)N4CCCC(n5nc(-c6ccc(Oc7ccc(F)cc7F)cc6)c(C(N)=O)c5N)C4)nc(N)n3)ccc2CC1C(=O)NC1CCCc2ccccc21)C(C)(C)C

> <Shape>
0.237

> <Color>
0.070

> <Negative vol penalty>
0.000

$$$$

  -OEChem-04052305273D

 85 93  0     1  0  0  0  0  0999 V2000
  -18.0575  -24.4334   23.1374 C   0  0  0  0  0  0  0  0  0  0  0  0
  -19.3701  -24.1836   22.7501 C   0  0  0  0  0  0  0  0  0  0  0  0
  -24.5510  -14.3701   21.2162 C   0  0  0  0  0  0  0  0  0  0  0  0
  -26.9399  -14.1101   21.4662 C   0  0  0  0  0  0  0  0  0  0  0  0
  -17.5954  -25.7459   23.2246 C   0  0  0  0  0  0  0  0  0  0  0  0
  -20.2212  -25.2464   22.4488 C   0  0  0  0  0  0  0  0  0  0  0  0
  -26.2447  -25.5544   23.5109 C   0  0  0  0  0  0  0  0  0  0  0  0
  -24.4572  -13.0593   20.7489 C   0  0  0  0  0  0  0  0  0  0  0  0
  -26.8461  -12.7992   20.9989 C   0  0  0  0  0  0  0  0  0  0  0  0
  -27.3535  -25.3364   22.6943 C   0  0  0  0  0  0  0  0  0  0  0  0
  -24.4338   -9.9429   22.0605 C   0  0  0  0  0  0  0  0  0  0  0  0
  -23.4116   -9.1438   22.5724 C   0  0  0  0  0  0  0  0  0  0  0  0
  -27.4929  -27.7054   22.2612 C   0  0  0  0  0  0  0  0  0  0  0  0
  -22.5169   -8.8620   20.3459 C   0  0  0  0  0  0  0  0  0  0  0  0
  -25.7924  -14.8956   21.5748 C   0  0  0  0  0  0  0  0  0  0  0  0
  -25.7978  -16.6854   23.3926 C   0  0  0  0  0  0  0  0  0  0  0  0
  -18.4440  -26.8256   22.9336 C   0  0  0  0  0  0  0  0  0  0  0  0
  -25.7442  -26.8506   23.7004 C   0  0  0  0  0  0  0  0  0  0  0  0
  -19.7696  -26.5745   22.5309 C   0  0  0  0  0  0  0  0  0  0  0  0
  -26.3792  -27.9375   23.0827 C   0  0  0  0  0  0  0  0  0  0  0  0
  -32.0787  -20.4919   20.2779 C   0  0  0  0  0  0  0  0  0  0  0  0
  -25.6047  -12.2738   20.6402 C   0  0  0  0  0  0  0  0  0  0  0  0
  -27.9760  -26.4116   22.0670 C   0  0  0  0  0  0  0  0  0  0  0  0
  -24.4976  -10.2016   20.6913 C   0  0  0  0  0  0  0  0  0  0  0  0
  -22.4532   -8.6033   21.7152 C   0  0  0  0  0  0  0  0  0  0  0  0
  -23.5392   -9.6611   19.8340 C   0  0  0  0  0  0  0  0  0  0  0  0
  -25.8900  -16.2499   22.0570 C   0  0  0  0  0  0  0  0  0  0  0  0
  -33.3753  -20.9615   20.2255 C   0  0  0  0  0  0  0  0  0  0  0  0
  -31.1127  -21.3508   19.7949 C   0  0  0  0  0  0  0  0  0  0  0  0
  -25.9545  -18.0480   23.3209 C   0  0  0  0  0  0  0  0  0  0  0  0
  -32.6825  -22.9185   19.2996 C   0  0  0  0  0  0  0  0  0  0  0  0
  -25.5893  -15.9261   24.5908 C   0  0  0  0  0  0  0  0  0  0  0  0
  -22.9891  -28.3055   23.0709 C   0  0  0  0  0  0  0  0  0  0  0  0
  -24.3587  -30.7548   24.6979 C   0  0  0  0  0  0  0  0  0  0  0  0
  -27.2166  -32.2888   25.7591 C   0  0  0  0  0  0  0  0  0  0  0  0
  -28.6452  -21.6462   19.3816 C   0  0  0  0  0  0  0  0  0  0  0  0
  -17.8856  -28.2253   22.9963 C   0  0  0  0  0  0  0  0  0  0  0  0
  -24.5636  -27.0720   24.6056 C   0  0  0  0  0  0  0  0  0  0  0  0
  -25.8932  -29.3507   23.2699 C   0  0  0  0  0  0  0  0  0  0  0  0
  -18.9602  -29.3092   23.0222 C   0  0  0  0  0  0  0  0  0  0  0  0
  -25.2271  -21.7512   20.3728 C   0  0  0  0  0  0  0  0  0  0  0  0
  -20.0201  -29.0356   21.9599 C   0  0  0  0  0  0  0  0  0  0  0  0
  -25.0024  -20.3944   21.0441 C   0  0  0  0  0  0  0  0  0  0  0  0
  -26.1689  -21.6423   19.1749 C   0  0  0  0  0  0  0  0  0  0  0  0
  -27.2293  -19.6315   20.1244 C   0  0  0  0  0  0  0  0  0  0  0  0
  -20.7303  -27.7016   22.2199 C   0  0  1  0  0  0  0  0  0  0  0  0
  -23.8256  -28.3757   24.3170 C   0  0  1  0  0  0  0  0  0  0  0  0
  -26.3387  -19.7015   21.3756 C   0  0  2  0  0  0  0  0  0  0  0  0
  -31.7539  -19.1443   20.8214 C   0  0  0  0  0  0  0  0  0  0  0  0
  -34.5058  -20.1202   20.7199 C   0  0  0  0  0  0  0  0  0  0  0  0
  -28.0180  -34.2940   27.0375 C   0  0  0  0  0  0  0  0  0  0  0  0
  -32.7014  -26.0776   17.3458 C   0  0  0  0  0  0  0  0  0  0  0  0
  -23.7463  -32.5298   22.2929 C   0  0  0  0  0  0  0  0  0  0  0  0
  -25.3690  -34.2047   23.2039 C   0  0  0  0  0  0  0  0  0  0  0  0
  -23.3330  -33.6030   24.5137 C   0  0  0  0  0  0  0  0  0  0  0  0
  -28.5332  -30.6032   27.8046 C   0  0  0  0  0  0  0  0  0  0  0  0
  -29.9465  -26.4023   19.0286 C   0  0  0  0  0  0  0  0  0  0  0  0
  -31.3112  -25.8285   19.4343 C   0  0  0  0  0  0  0  0  0  0  0  0
  -29.2534  -27.1110   20.1868 C   0  0  0  0  0  0  0  0  0  1  0  0
  -25.2234  -31.9348   24.3252 C   0  0  1  0  0  0  0  0  0  0  0  0
  -27.6260  -32.8268   27.1183 C   0  0  2  0  0  0  0  0  0  0  0  0
  -32.0053  -25.0926   18.2797 C   0  0  2  0  0  0  0  0  0  0  0  0
  -24.4261  -33.0414   23.5786 C   0  0  0  0  0  0  0  0  0  0  0  0
  -26.0896  -17.2544   21.1997 N   0  0  0  0  0  0  0  0  0  0  0  0
  -33.7143  -22.1741   19.7409 N   0  0  0  0  0  0  0  0  0  0  0  0
  -31.3801  -22.5759   19.2969 N   0  0  0  0  0  0  0  0  0  0  0  0
  -26.1240  -18.3347   21.9983 N   0  0  0  0  0  0  0  0  0  0  0  0
  -24.7317  -29.5151   24.1595 N   0  0  0  0  0  0  0  0  0  0  0  0
  -27.4153  -20.9796   19.5651 N   0  0  0  0  0  0  0  0  0  0  0  0
  -25.9623  -19.0170   24.2609 N   0  0  0  0  0  0  0  0  0  0  0  0
  -25.4484  -14.5357   24.4846 N   0  0  0  0  0  0  0  0  0  0  0  0
  -29.7595  -20.9312   19.8196 N   0  0  0  0  0  0  0  0  0  0  0  0
  -32.9937  -24.1685   18.7956 N   0  0  0  0  0  0  0  0  0  0  0  0
  -21.7032  -27.8455   23.2816 N   0  0  0  0  0  0  0  0  0  0  0  0
  -25.8554  -32.3842   25.5609 N   0  0  0  0  0  0  0  0  0  0  0  0
  -28.7867  -32.0589   27.6512 N   0  3  0  0  0  0  0  0  0  0  0  0
  -25.5134  -16.4664   25.7203 O   0  0  0  0  0  0  0  0  0  0  0  0
  -23.4739  -28.6450   21.9978 O   0  0  0  0  0  0  0  0  0  0  0  0
  -23.3923  -30.9254   25.4453 O   0  0  0  0  0  0  0  0  0  0  0  0
  -28.0241  -31.8331   24.9523 O   0  0  0  0  0  0  0  0  0  0  0  0
  -28.7032  -22.7799   18.8984 O   0  0  0  0  0  0  0  0  0  0  0  0
  -25.5136  -10.9945   20.1845 O   0  0  0  0  0  0  0  0  0  0  0  0
  -29.0580  -26.2015   21.2689 O   0  0  0  0  0  0  0  0  0  1  0  0
  -21.4725   -7.8347   22.2067 F   0  0  0  0  0  0  0  0  0  0  0  0
  -23.5959   -9.9052   18.5176 F   0  0  0  0  0  0  0  0  0  0  0  0
  1  2  1  0  0  0  0
  1  5  2  0  0  0  0
  2  6  2  0  0  0  0
  3  8  2  0  0  0  0
  3 15  1  0  0  0  0
  4  9  1  0  0  0  0
  4 15  2  0  0  0  0
  5 17  1  0  0  0  0
  6 19  1  0  0  0  0
  7 10  2  0  0  0  0
  7 18  1  0  0  0  0
  8 22  1  0  0  0  0
  9 22  2  0  0  0  0
 10 23  1  0  0  0  0
 11 12  2  0  0  0  0
 11 24  1  0  0  0  0
 12 25  1  0  0  0  0
 13 20  1  0  0  0  0
 13 23  2  0  0  0  0
 14 25  2  0  0  0  0
 14 26  1  0  0  0  0
 15 27  1  0  0  0  0
 16 27  1  0  0  0  0
 16 30  2  0  0  0  0
 16 32  1  0  0  0  0
 17 19  2  0  0  0  0
 17 37  1  0  0  0  0
 18 20  2  0  0  0  0
 18 38  1  0  0  0  0
 19 46  1  0  0  0  0
 20 39  1  0  0  0  0
 21 28  1  0  0  0  0
 21 29  2  0  0  0  0
 21 49  1  0  0  0  0
 22 82  1  0  0  0  0
 23 83  1  0  0  0  0
 24 26  2  0  0  0  0
 24 82  1  0  0  0  0
 25 84  1  0  0  0  0
 26 85  1  0  0  0  0
 27 64  2  0  0  0  0
 28 50  1  0  0  0  0
 28 65  2  0  0  0  0
 29 66  1  0  0  0  0
 29 72  1  0  0  0  0
 30 67  1  0  0  0  0
 30 70  1  0  0  0  0
 31 65  1  0  0  0  0
 31 66  2  0  0  0  0
 31 73  1  0  0  0  0
 32 71  1  0  0  0  0
 32 77  2  0  0  0  0
 33 47  1  0  0  0  0
 33 74  1  0  0  0  0
 33 78  2  0  0  0  0
 34 60  1  0  0  0  0
 34 68  1  0  0  0  0
 34 79  2  0  0  0  0
 35 61  1  0  0  0  0
 35 75  1  0  0  0  0
 35 80  2  0  0  0  0
 36 69  1  0  0  0  0
 36 72  1  0  0  0  0
 36 81  2  0  0  0  0
 37 40  1  0  0  0  0
 38 47  1  0  0  0  0
 39 68  1  0  0  0  0
 40 42  1  0  0  0  0
 41 43  1  0  0  0  0
 41 44  1  0  0  0  0
 42 46  1  0  0  0  0
 43 48  1  0  0  0  0
 44 69  1  0  0  0  0
 45 48  1  0  0  0  0
 45 69  1  0  0  0  0
 46 74  1  0  0  0  0
 47 68  1  0  0  0  0
 48 67  1  0  0  0  0
 51 61  1  0  0  0  0
 52 62  1  0  0  0  0
 53 63  1  0  0  0  0
 54 63  1  0  0  0  0
 55 63  1  0  0  0  0
 56 76  1  0  0  0  0
 57 58  1  0  0  0  0
 57 59  1  0  0  0  0
 58 62  1  0  0  0  0
 59 83  1  0  0  0  0
 60 63  1  0  0  0  0
 60 75  1  0  0  0  0
 61 76  1  0  0  0  0
 62 73  1  0  0  0  0
 64 67  1  0  0  0  0
M  CHG  1  76   1
M  ISO  4  36 100  59 101  72 100  83 101
M  END
> <Batch ID>
0192

> <Smiles>
CNC(C)C(=O)NC(C(=O)N1Cc2cc([101O:1][101CH2:1]CCC(C)Nc3nc(C)c(C)c([100NH:0][100C:0](=O)N4CCCC(n5nc(-c6ccc(Oc7ccc(F)cc7F)cc6)c(C(N)=O)c5N)C4)n3)ccc2CC1C(=O)NC1CCCc2ccccc21)C(C)(C)C

> <Shape>
0.253

> <Color>
0.071

> <Negative vol penalty>
0.000

$$$$

  -OEChem-04052305273D

 87 95  0     1  0  0  0  0  0999 V2000
  -23.4376  -17.6227   20.8872 C   0  0  0  0  0  0  0  0  0  0  0  0
  -24.5159  -18.5017   20.8946 C   0  0  0  0  0  0  0  0  0  0  0  0
  -26.3473  -12.8211   21.6114 C   0  0  0  0  0  0  0  0  0  0  0  0
  -25.8154  -13.7506   19.4457 C   0  0  0  0  0  0  0  0  0  0  0  0
  -22.1832  -18.0636   20.4678 C   0  0  0  0  0  0  0  0  0  0  0  0
  -24.3406  -19.8219   20.4815 C   0  0  0  0  0  0  0  0  0  0  0  0
  -27.1627  -24.7811   22.7058 C   0  0  0  0  0  0  0  0  0  0  0  0
  -25.1089  -12.1799   21.6404 C   0  0  0  0  0  0  0  0  0  0  0  0
  -24.5769  -13.1094   19.4747 C   0  0  0  0  0  0  0  0  0  0  0  0
  -28.2624  -25.5134   22.2605 C   0  0  0  0  0  0  0  0  0  0  0  0
  -23.7046   -9.4126   20.2979 C   0  0  0  0  0  0  0  0  0  0  0  0
  -23.6745   -8.0790   20.7054 C   0  0  0  0  0  0  0  0  0  0  0  0
  -26.7766  -27.0710   21.1717 C   0  0  0  0  0  0  0  0  0  0  0  0
  -22.2052   -8.6698   22.5301 C   0  0  0  0  0  0  0  0  0  0  0  0
  -28.5913  -21.2219   17.2082 C   0  0  0  0  0  0  0  0  0  0  0  0
  -26.7006  -13.6065   20.5140 C   0  0  0  0  0  0  0  0  0  0  0  0
  -29.1878  -13.7626   19.9691 C   0  0  0  0  0  0  0  0  0  0  0  0
  -21.9902  -19.3925   20.0585 C   0  0  0  0  0  0  0  0  0  0  0  0
  -25.8599  -25.1829   22.3777 C   0  0  0  0  0  0  0  0  0  0  0  0
  -23.0827  -20.2807   20.0549 C   0  0  0  0  0  0  0  0  0  0  0  0
  -25.6620  -26.3435   21.6162 C   0  0  0  0  0  0  0  0  0  0  0  0
  -24.2238  -12.3240   20.5721 C   0  0  0  0  0  0  0  0  0  0  0  0
  -28.0695  -26.6569   21.4909 C   0  0  0  0  0  0  0  0  0  0  0  0
  -22.9850  -10.3749   21.0064 C   0  0  0  0  0  0  0  0  0  0  0  0
  -22.9248   -7.7076   21.8215 C   0  0  0  0  0  0  0  0  0  0  0  0
  -22.2353  -10.0035   22.1225 C   0  0  0  0  0  0  0  0  0  0  0  0
  -27.9795  -14.2695   20.4837 C   0  0  0  0  0  0  0  0  0  0  0  0
  -29.0617  -23.3294   16.4555 C   0  0  0  0  0  0  0  0  0  0  0  0
  -29.1044  -21.5488   18.4441 C   0  0  0  0  0  0  0  0  0  0  0  0
  -29.5741  -23.6566   17.6916 C   0  0  0  0  0  0  0  0  0  0  0  0
  -30.0986  -14.7695   20.1766 C   0  0  0  0  0  0  0  0  0  0  0  0
  -29.4624  -12.4950   19.3581 C   0  0  0  0  0  0  0  0  0  0  0  0
  -23.4590  -23.8914   20.7432 C   0  0  0  0  0  0  0  0  0  0  0  0
  -21.8453  -26.4946   21.8118 C   0  0  0  0  0  0  0  0  0  0  0  0
  -21.9629  -29.7052   22.9629 C   0  0  0  0  0  0  0  0  0  0  0  0
  -29.5721  -20.6924   20.7666 C   0  0  0  0  0  0  0  0  0  0  0  0
  -20.6264  -19.8104   19.5687 C   0  0  0  0  0  0  0  0  0  0  0  0
  -24.6834  -24.3970   22.8882 C   0  0  0  0  0  0  0  0  0  0  0  0
  -24.2830  -26.8286   21.2536 C   0  0  0  0  0  0  0  0  0  0  0  0
  -20.4407  -21.3241   19.5020 C   0  0  0  0  0  0  0  0  0  0  0  0
  -31.0200  -18.4391   23.1126 C   0  0  0  0  0  0  0  0  0  0  0  0
  -21.6451  -21.9808   18.8349 C   0  0  0  0  0  0  0  0  0  0  0  0
  -30.5195  -17.0674   22.6542 C   0  0  0  0  0  0  0  0  0  0  0  0
  -29.9590  -19.5219   22.9243 C   0  0  0  0  0  0  0  0  0  0  0  0
  -28.8923  -18.2362   21.1137 C   0  0  0  0  0  0  0  0  0  0  0  0
  -22.9268  -21.7269   19.6375 C   0  0  1  0  0  0  0  0  0  0  0  0
  -23.4187  -24.6101   22.0621 C   0  0  1  0  0  0  0  0  0  0  0  0
  -29.9490  -17.1249   21.2235 C   0  0  2  0  0  0  0  0  0  0  0  0
  -26.4862  -24.2743   15.0330 C   0  0  0  0  0  0  0  0  0  0  0  0
  -30.3516  -24.3006   14.5362 C   0  0  0  0  0  0  0  0  0  0  0  0
  -20.4789  -31.5830   23.7172 C   0  0  0  0  0  0  0  0  0  0  0  0
  -32.0470  -24.8147   19.2943 C   0  0  0  0  0  0  0  0  0  0  0  0
  -29.2259  -28.9942   19.2873 C   0  0  0  0  0  0  0  0  0  0  0  0
  -21.1027  -27.0706   18.9089 C   0  0  0  0  0  0  0  0  0  0  0  0
  -20.4673  -29.3901   19.6047 C   0  0  0  0  0  0  0  0  0  0  0  0
  -19.2502  -27.4288   20.5504 C   0  0  0  0  0  0  0  0  0  0  0  0
  -23.1779  -29.7359   25.6614 C   0  0  0  0  0  0  0  0  0  0  0  0
  -27.8406  -24.1152   14.3530 C   0  0  0  0  0  0  0  0  0  0  0  0
  -30.6422  -26.9085   19.2212 C   0  0  0  0  0  0  0  0  0  0  0  0
  -29.0298  -24.3111   15.3331 C   0  0  1  0  0  0  0  0  0  0  0  0
  -21.6190  -27.8966   21.3000 C   0  0  1  0  0  0  0  0  0  0  0  0
  -21.2946  -30.3747   24.1502 C   0  0  2  0  0  0  0  0  0  0  0  0
  -30.6324  -25.3723   19.1620 C   0  0  1  0  0  0  0  0  0  0  0  0
  -29.2965  -27.5145   19.6430 C   0  0  1  0  0  0  0  0  0  1  0  0
  -20.6360  -27.9366   20.0960 C   0  0  0  0  0  0  0  0  0  0  0  0
  -28.5608  -22.1063   16.1917 N   0  0  0  0  0  0  0  0  0  0  0  0
  -28.1077  -15.5025   20.9809 N   0  0  0  0  0  0  0  0  0  0  0  0
  -29.6049  -22.7720   18.7080 N   0  0  0  0  0  0  0  0  0  0  0  0
  -29.4074  -15.7789   20.7797 N   0  0  0  0  0  0  0  0  0  0  0  0
  -23.1649  -26.0226   21.7712 N   0  0  0  0  0  0  0  0  0  0  0  0
  -29.4679  -19.5198   21.5445 N   0  0  0  0  0  0  0  0  0  0  0  0
  -31.4152  -14.8811   19.9003 N   0  0  0  0  0  0  0  0  0  0  0  0
  -28.4120  -11.5769   19.2229 N   0  0  0  0  0  0  0  0  0  0  0  0
  -29.1022  -20.5613   19.4603 N   0  0  0  0  0  0  0  0  0  0  0  0
  -30.0731  -24.9296   17.9019 N   0  0  0  0  0  0  0  0  0  0  0  0
  -22.9799  -22.5962   20.7933 N   0  0  0  0  0  0  0  0  0  0  0  0
  -21.1891  -28.6862   22.4489 N   0  0  0  0  0  0  0  0  0  0  0  0
  -22.3187  -30.8270   25.1339 N   0  3  0  0  0  0  0  0  0  0  0  0
  -30.6089  -12.1791   18.9591 O   0  0  0  0  0  0  0  0  0  0  0  0
  -23.8912  -24.4697   19.7530 O   0  0  0  0  0  0  0  0  0  0  0  0
  -20.8876  -25.8448   22.2388 O   0  0  0  0  0  0  0  0  0  0  0  0
  -23.0599  -30.0539   22.5320 O   0  0  0  0  0  0  0  0  0  0  0  0
  -30.0685  -21.7280   21.2171 O   0  0  0  0  0  0  0  0  0  0  0  0
  -23.0153  -11.6983   20.6000 O   0  0  0  0  0  0  0  0  0  0  0  0
  -29.1411  -27.3731   21.0544 O   0  0  0  0  0  0  0  0  0  1  0  0
  -22.8947   -6.4266   22.2119 F   0  0  0  0  0  0  0  0  0  0  0  0
  -21.5411  -10.9232   22.8064 F   0  0  0  0  0  0  0  0  0  0  0  0
  1  2  1  0  0  0  0
  1  5  2  0  0  0  0
  2  6  2  0  0  0  0
  3  8  2  0  0  0  0
  3 16  1  0  0  0  0
  4  9  1  0  0  0  0
  4 16  2  0  0  0  0
  5 18  1  0  0  0  0
  6 20  1  0  0  0  0
  7 10  2  0  0  0  0
  7 19  1  0  0  0  0
  8 22  1  0  0  0  0
  9 22  2  0  0  0  0
 10 23  1  0  0  0  0
 11 12  2  0  0  0  0
 11 24  1  0  0  0  0
 12 25  1  0  0  0  0
 13 21  1  0  0  0  0
 13 23  2  0  0  0  0
 14 25  2  0  0  0  0
 14 26  1  0  0  0  0
 15 29  1  0  0  0  0
 15 66  2  0  0  0  0
 16 27  1  0  0  0  0
 17 27  1  0  0  0  0
 17 31  2  0  0  0  0
 17 32  1  0  0  0  0
 18 20  2  0  0  0  0
 18 37  1  0  0  0  0
 19 21  2  0  0  0  0
 19 38  1  0  0  0  0
 20 46  1  0  0  0  0
 21 39  1  0  0  0  0
 22 84  1  0  0  0  0
 23 85  1  0  0  0  0
 24 26  2  0  0  0  0
 24 84  1  0  0  0  0
 25 86  1  0  0  0  0
 26 87  1  0  0  0  0
 27 67  2  0  0  0  0
 28 30  2  0  0  0  0
 28 60  1  0  0  0  0
 28 66  1  0  0  0  0
 29 68  2  0  0  0  0
 29 74  1  0  0  0  0
 30 68  1  0  0  0  0
 30 75  1  0  0  0  0
 31 69  1  0  0  0  0
 31 72  1  0  0  0  0
 32 73  1  0  0  0  0
 32 79  2  0  0  0  0
 33 47  1  0  0  0  0
 33 76  1  0  0  0  0
 33 80  2  0  0  0  0
 34 61  1  0  0  0  0
 34 70  1  0  0  0  0
 34 81  2  0  0  0  0
 35 62  1  0  0  0  0
 35 77  1  0  0  0  0
 35 82  2  0  0  0  0
 36 71  1  0  0  0  0
 36 74  1  0  0  0  0
 36 83  2  0  0  0  0
 37 40  1  0  0  0  0
 38 47  1  0  0  0  0
 39 70  1  0  0  0  0
 40 42  1  0  0  0  0
 41 43  1  0  0  0  0
 41 44  1  0  0  0  0
 42 46  1  0  0  0  0
 43 48  1  0  0  0  0
 44 71  1  0  0  0  0
 45 48  1  0  0  0  0
 45 71  1  0  0  0  0
 46 76  1  0  0  0  0
 47 70  1  0  0  0  0
 48 69  1  0  0  0  0
 49 58  1  0  0  0  0
 50 60  1  0  0  0  0
 51 62  1  0  0  0  0
 52 63  1  0  0  0  0
 53 64  1  0  0  0  0
 54 65  1  0  0  0  0
 55 65  1  0  0  0  0
 56 65  1  0  0  0  0
 57 78  1  0  0  0  0
 58 60  1  0  0  0  0
 59 63  1  0  0  0  0
 59 64  1  0  0  0  0
 61 65  1  0  0  0  0
 61 77  1  0  0  0  0
 62 78  1  0  0  0  0
 63 75  1  0  0  0  0
 64 85  1  0  0  0  0
 67 69  1  0  0  0  0
M  CHG  1  78   1
M  ISO  4  36 100  64 101  74 100  85 101
M  END
> <Batch ID>
0192

> <Smiles>
CCC(C)c1ncc([100NH:0][100C:0](=O)N2CCCC(n3nc(-c4ccc(Oc5ccc(F)cc5F)cc4)c(C(N)=O)c3N)C2)nc1NC(C)C[101CH:1](C)[101O:1]c1ccc2c(c1)CN(C(=O)C(NC(=O)C(C)NC)C(C)(C)C)C(C(=O)NC1CCCc3ccccc31)C2

> <Shape>
0.257

> <Color>
0.074

> <Negative vol penalty>
0.000

$$$$

  -OEChem-04052305273D

 84 92  0     1  0  0  0  0  0999 V2000
  -34.0724  -14.1603   24.8984 C   0  0  0  0  0  0  0  0  0  0  0  0
  -33.5494  -15.2864   24.2706 C   0  0  0  0  0  0  0  0  0  0  0  0
  -23.0767   -9.8632   19.9436 C   0  0  0  0  0  0  0  0  0  0  0  0
  -23.8356   -9.8763   22.2373 C   0  0  0  0  0  0  0  0  0  0  0  0
  -35.0408  -14.3037   25.8911 C   0  0  0  0  0  0  0  0  0  0  0  0
  -33.9939  -16.5565   24.6361 C   0  0  0  0  0  0  0  0  0  0  0  0
  -34.9272  -19.5146   20.6331 C   0  0  0  0  0  0  0  0  0  0  0  0
  -22.3341   -8.7098   20.1959 C   0  0  0  0  0  0  0  0  0  0  0  0
  -23.0928   -8.7229   22.4896 C   0  0  0  0  0  0  0  0  0  0  0  0
  -33.8283  -20.0901   19.9967 C   0  0  0  0  0  0  0  0  0  0  0  0
  -21.1104   -5.9866   23.8316 C   0  0  0  0  0  0  0  0  0  0  0  0
  -20.3537   -5.9449   25.0026 C   0  0  0  0  0  0  0  0  0  0  0  0
  -34.2476  -22.1618   21.1593 C   0  0  0  0  0  0  0  0  0  0  0  0
  -19.1072   -7.8790   24.2660 C   0  0  0  0  0  0  0  0  0  0  0  0
  -29.9178  -17.8626   22.6982 C   0  0  0  0  0  0  0  0  0  0  0  0
  -23.8275  -10.4465   20.9643 C   0  0  0  0  0  0  0  0  0  0  0  0
  -24.1665  -12.9717   20.8386 C   0  0  0  0  0  0  0  0  0  0  0  0
  -35.5043  -15.5757   26.2622 C   0  0  0  0  0  0  0  0  0  0  0  0
  -35.6893  -20.2563   21.5472 C   0  0  0  0  0  0  0  0  0  0  0  0
  -34.9684  -16.7171   25.6357 C   0  0  0  0  0  0  0  0  0  0  0  0
  -35.3572  -21.5941   21.8040 C   0  0  0  0  0  0  0  0  0  0  0  0
  -22.3421   -8.1396   21.4689 C   0  0  0  0  0  0  0  0  0  0  0  0
  -33.4866  -21.4130   20.2619 C   0  0  0  0  0  0  0  0  0  0  0  0
  -20.8657   -6.9746   22.8778 C   0  0  0  0  0  0  0  0  0  0  0  0
  -19.3521   -6.8911   25.2197 C   0  0  0  0  0  0  0  0  0  0  0  0
  -19.8641   -7.9208   23.0950 C   0  0  0  0  0  0  0  0  0  0  0  0
  -24.5954  -11.6376   20.7042 C   0  0  0  0  0  0  0  0  0  0  0  0
  -30.5651  -16.9580   21.8946 C   0  0  0  0  0  0  0  0  0  0  0  0
  -25.2580  -13.7216   20.4741 C   0  0  0  0  0  0  0  0  0  0  0  0
  -22.8952  -13.4870   21.2557 C   0  0  0  0  0  0  0  0  0  0  0  0
  -36.3593  -19.9933   24.6433 C   0  0  0  0  0  0  0  0  0  0  0  0
  -38.3361  -22.4907   24.0290 C   0  0  0  0  0  0  0  0  0  0  0  0
  -39.0919  -25.1700   22.0550 C   0  0  0  0  0  0  0  0  0  0  0  0
  -30.7228  -14.7741   20.6488 C   0  0  0  0  0  0  0  0  0  0  0  0
  -36.5179  -15.6832   27.3738 C   0  0  0  0  0  0  0  0  0  0  0  0
  -36.8876  -19.6291   22.2052 C   0  0  0  0  0  0  0  0  0  0  0  0
  -36.1552  -22.4395   22.7616 C   0  0  0  0  0  0  0  0  0  0  0  0
  -37.2071  -17.0437   27.4402 C   0  0  0  0  0  0  0  0  0  0  0  0
  -29.6124  -12.3533   18.2858 C   0  0  0  0  0  0  0  0  0  0  0  0
  -36.1817  -18.1676   27.3298 C   0  0  0  0  0  0  0  0  0  0  0  0
  -28.1729  -12.0610   18.7154 C   0  0  0  0  0  0  0  0  0  0  0  0
  -30.5267  -12.5860   19.4873 C   0  0  0  0  0  0  0  0  0  0  0  0
  -28.6182  -13.3116   20.8659 C   0  0  0  0  0  0  0  0  0  0  0  0
  -35.4430  -18.1104   25.9872 C   0  0  1  0  0  0  0  0  0  0  0  0
  -37.2851  -20.3202   23.5059 C   0  0  1  0  0  0  0  0  0  0  0  0
  -27.6461  -13.1343   19.6881 C   0  0  2  0  0  0  0  0  0  0  0  0
  -40.7453  -27.0438   21.8256 C   0  0  0  0  0  0  0  0  0  0  0  0
  -28.6075  -20.9128   21.5192 C   0  0  0  0  0  0  0  0  0  0  0  0
  -31.8018  -24.2963   19.5601 C   0  0  0  0  0  0  0  0  0  0  0  0
  -31.7144  -20.3420   24.6504 C   0  0  0  0  0  0  0  0  0  0  0  0
  -36.9696  -23.9737   26.3188 C   0  0  0  0  0  0  0  0  0  0  0  0
  -37.9620  -26.0986   25.4424 C   0  0  0  0  0  0  0  0  0  0  0  0
  -39.4525  -24.2583   26.2262 C   0  0  0  0  0  0  0  0  0  0  0  0
  -39.9845  -24.2122   19.4008 C   0  0  0  0  0  0  0  0  0  0  0  0
  -30.2571  -22.5682   20.5525 C   0  0  0  0  0  0  0  0  0  0  0  0
  -38.1972  -23.9938   24.0476 C   0  0  1  0  0  0  0  0  0  0  0  0
  -40.3969  -25.6193   21.4229 C   0  0  2  0  0  0  0  0  0  0  0  0
  -30.0794  -21.2673   21.3486 C   0  0  1  0  0  0  0  0  0  0  0  0
  -31.7163  -22.9984   20.3540 C   0  0  1  0  0  0  0  0  0  1  0  0
  -30.6397  -20.1812   23.5733 C   0  0  2  0  0  0  0  0  0  0  0  0
  -38.1289  -24.5648   25.4921 C   0  0  0  0  0  0  0  0  0  0  0  0
  -25.8605  -11.5423   20.2867 N   0  0  0  0  0  0  0  0  0  0  0  0
  -31.7929  -17.4487   21.5465 N   0  0  0  0  0  0  0  0  0  0  0  0
  -31.9317  -18.6416   22.1146 N   0  0  0  0  0  0  0  0  0  0  0  0
  -30.8065  -18.8879   22.8048 N   0  0  0  0  0  0  0  0  0  0  0  0
  -26.2360  -12.8260   20.1556 N   0  0  0  0  0  0  0  0  0  0  0  0
  -37.3141  -21.7792   23.3847 N   0  0  0  0  0  0  0  0  0  0  0  0
  -29.9660  -13.6183   20.3620 N   0  0  0  0  0  0  0  0  0  0  0  0
  -25.4669  -15.0531   20.3981 N   0  0  0  0  0  0  0  0  0  0  0  0
  -21.8842  -12.5775   21.5946 N   0  0  0  0  0  0  0  0  0  0  0  0
  -30.0740  -15.7003   21.4647 N   0  0  0  0  0  0  0  0  0  0  0  0
  -36.2745  -18.6441   24.9297 N   0  0  0  0  0  0  0  0  0  0  0  0
  -39.3020  -24.5157   23.2504 N   0  0  0  0  0  0  0  0  0  0  0  0
  -40.2996  -25.5614   19.9369 N   0  3  0  0  0  0  0  0  0  0  0  0
  -30.6732  -21.4204   22.7061 N   0  3  0  0  0  0  0  0  0  0  0  0
  -22.6575  -14.7175   21.3101 O   0  0  0  0  0  0  0  0  0  0  0  0
  -35.7669  -20.8982   25.2193 O   0  0  0  0  0  0  0  0  0  0  0  0
  -39.3189  -21.9676   24.5601 O   0  0  0  0  0  0  0  0  0  0  0  0
  -37.9955  -25.3819   21.5416 O   0  0  0  0  0  0  0  0  0  0  0  0
  -31.8519  -14.9430   20.1813 O   0  0  0  0  0  0  0  0  0  0  0  0
  -21.6173   -7.0143   21.7155 O   0  0  0  0  0  0  0  0  0  0  0  0
  -32.4141  -21.9769   19.6426 O   0  0  0  0  0  0  0  0  0  1  0  0
  -18.6244   -6.8499   26.3436 F   0  0  0  0  0  0  0  0  0  0  0  0
  -19.6235   -8.8716   22.1818 F   0  0  0  0  0  0  0  0  0  0  0  0
  1  2  1  0  0  0  0
  1  5  2  0  0  0  0
  2  6  2  0  0  0  0
  3  8  2  0  0  0  0
  3 16  1  0  0  0  0
  4  9  1  0  0  0  0
  4 16  2  0  0  0  0
  5 18  1  0  0  0  0
  6 20  1  0  0  0  0
  7 10  2  0  0  0  0
  7 19  1  0  0  0  0
  8 22  1  0  0  0  0
  9 22  2  0  0  0  0
 10 23  1  0  0  0  0
 11 12  2  0  0  0  0
 11 24  1  0  0  0  0
 12 25  1  0  0  0  0
 13 21  1  0  0  0  0
 13 23  2  0  0  0  0
 14 25  2  0  0  0  0
 14 26  1  0  0  0  0
 15 28  2  0  0  0  0
 15 65  1  0  0  0  0
 16 27  1  0  0  0  0
 17 27  1  0  0  0  0
 17 29  2  0  0  0  0
 17 30  1  0  0  0  0
 18 20  2  0  0  0  0
 18 35  1  0  0  0  0
 19 21  2  0  0  0  0
 19 36  1  0  0  0  0
 20 44  1  0  0  0  0
 21 37  1  0  0  0  0
 22 81  1  0  0  0  0
 23 82  1  0  0  0  0
 24 26  2  0  0  0  0
 24 81  1  0  0  0  0
 25 83  1  0  0  0  0
 26 84  1  0  0  0  0
 27 62  2  0  0  0  0
 28 63  1  0  0  0  0
 28 71  1  0  0  0  0
 29 66  1  0  0  0  0
 29 69  1  0  0  0  0
 30 70  1  0  0  0  0
 30 76  2  0  0  0  0
 31 45  1  0  0  0  0
 31 72  1  0  0  0  0
 31 77  2  0  0  0  0
 32 56  1  0  0  0  0
 32 67  1  0  0  0  0
 32 78  2  0  0  0  0
 33 57  1  0  0  0  0
 33 73  1  0  0  0  0
 33 79  2  0  0  0  0
 34 68  1  0  0  0  0
 34 71  1  0  0  0  0
 34 80  2  0  0  0  0
 35 38  1  0  0  0  0
 36 45  1  0  0  0  0
 37 67  1  0  0  0  0
 38 40  1  0  0  0  0
 39 41  1  0  0  0  0
 39 42  1  0  0  0  0
 40 44  1  0  0  0  0
 41 46  1  0  0  0  0
 42 68  1  0  0  0  0
 43 46  1  0  0  0  0
 43 68  1  0  0  0  0
 44 72  1  0  0  0  0
 45 67  1  0  0  0  0
 46 66  1  0  0  0  0
 47 57  1  0  0  0  0
 48 58  1  0  0  0  0
 49 59  1  0  0  0  0
 50 60  1  0  0  0  0
 51 61  1  0  0  0  0
 52 61  1  0  0  0  0
 53 61  1  0  0  0  0
 54 74  1  0  0  0  0
 55 58  1  0  0  0  0
 55 59  1  0  0  0  0
 56 61  1  0  0  0  0
 56 73  1  0  0  0  0
 57 74  1  0  0  0  0
 58 75  1  0  0  0  0
 59 82  1  0  0  0  0
 60 65  1  0  0  0  0
 60 75  1  0  0  0  0
 62 66  1  0  0  0  0
 63 64  2  0  0  0  0
 64 65  1  0  0  0  0
M  CHG  2  74   1  75   1
M  ISO  4  34 100  59 101  71 100  82 101
M  END
> <Batch ID>
0192

> <Smiles>
CNC(C)C(=O)NC(C(=O)N1Cc2cc([101O:1][101CH:1](C)CC(C)NC(C)n3cc([100NH:0][100C:0](=O)N4CCCC(n5nc(-c6ccc(Oc7ccc(F)cc7F)cc6)c(C(N)=O)c5N)C4)nn3)ccc2CC1C(=O)NC1CCCc2ccccc21)C(C)(C)C

> <Shape>
0.184

> <Color>
0.178

> <Negative vol penalty>
0.000

$$$$

  -OEChem-04052305273D

 91 99  0     1  0  0  0  0  0999 V2000
  -28.1272  -33.5147   26.2735 C   0  0  0  0  0  0  0  0  0  0  0  0
  -28.1941  -32.2665   25.6629 C   0  0  0  0  0  0  0  0  0  0  0  0
  -24.8694   -8.8820   22.3156 C   0  0  0  0  0  0  0  0  0  0  0  0
  -24.1630   -9.3232   20.0477 C   0  0  0  0  0  0  0  0  0  0  0  0
  -26.8881  -34.1094   26.5077 C   0  0  0  0  0  0  0  0  0  0  0  0
  -27.0218  -31.6117   25.2870 C   0  0  0  0  0  0  0  0  0  0  0  0
  -27.3186  -29.6076   20.6458 C   0  0  0  0  0  0  0  0  0  0  0  0
  -23.6130   -8.3488   22.6032 C   0  0  0  0  0  0  0  0  0  0  0  0
  -22.9066   -8.7899   20.3352 C   0  0  0  0  0  0  0  0  0  0  0  0
  -28.0211  -28.4108   20.5128 C   0  0  0  0  0  0  0  0  0  0  0  0
  -20.7089   -6.5413   23.8338 C   0  0  0  0  0  0  0  0  0  0  0  0
  -20.6605   -5.3437   24.5473 C   0  0  0  0  0  0  0  0  0  0  0  0
  -25.9372  -27.1957   20.5022 C   0  0  0  0  0  0  0  0  0  0  0  0
  -21.9100   -4.2483   22.7934 C   0  0  0  0  0  0  0  0  0  0  0  0
  -27.1853  -17.0380   14.6754 C   0  0  0  0  0  0  0  0  0  0  0  0
  -25.1444   -9.3693   21.0378 C   0  0  0  0  0  0  0  0  0  0  0  0
  -27.5683   -9.2299   20.2549 C   0  0  0  0  0  0  0  0  0  0  0  0
  -25.7004  -33.4659   26.1257 C   0  0  0  0  0  0  0  0  0  0  0  0
  -25.9182  -29.6066   20.7191 C   0  0  0  0  0  0  0  0  0  0  0  0
  -25.7656  -32.1978   25.5175 C   0  0  0  0  0  0  0  0  0  0  0  0
  -25.2191  -28.3941   20.6336 C   0  0  0  0  0  0  0  0  0  0  0  0
  -22.6316   -8.3027   21.6130 C   0  0  0  0  0  0  0  0  0  0  0  0
  -27.3307  -27.2043   20.4439 C   0  0  0  0  0  0  0  0  0  0  0  0
  -21.3578   -6.5923   22.6000 C   0  0  0  0  0  0  0  0  0  0  0  0
  -21.2611   -4.1972   24.0272 C   0  0  0  0  0  0  0  0  0  0  0  0
  -21.9583   -5.4458   22.0799 C   0  0  0  0  0  0  0  0  0  0  0  0
  -26.4419   -9.9208   20.7403 C   0  0  0  0  0  0  0  0  0  0  0  0
  -27.8980  -17.9718   15.3980 C   0  0  0  0  0  0  0  0  0  0  0  0
  -28.5392  -10.1944   20.1392 C   0  0  0  0  0  0  0  0  0  0  0  0
  -27.6770  -16.4462   16.9580 C   0  0  0  0  0  0  0  0  0  0  0  0
  -27.7231   -7.8404   19.9369 C   0  0  0  0  0  0  0  0  0  0  0  0
  -23.7855  -30.5002   22.9001 C   0  0  0  0  0  0  0  0  0  0  0  0
  -29.7134  -21.3690   18.4605 C   0  0  0  0  0  0  0  0  0  0  0  0
  -21.6651  -29.8047   20.5458 C   0  0  0  0  0  0  0  0  0  0  0  0
  -20.9749  -28.0730   17.6872 C   0  0  0  0  0  0  0  0  0  0  0  0
  -28.3388  -16.1162   19.3663 C   0  0  0  0  0  0  0  0  0  0  0  0
  -24.3823  -34.1270   26.4424 C   0  0  0  0  0  0  0  0  0  0  0  0
  -25.1738  -30.9084   20.8357 C   0  0  0  0  0  0  0  0  0  0  0  0
  -23.7149  -28.3405   20.6872 C   0  0  0  0  0  0  0  0  0  0  0  0
  -23.2036  -33.5344   25.6745 C   0  0  0  0  0  0  0  0  0  0  0  0
  -29.9149  -14.3697   22.0388 C   0  0  0  0  0  0  0  0  0  0  0  0
  -23.2425  -32.0105   25.7297 C   0  0  0  0  0  0  0  0  0  0  0  0
  -29.3102  -12.9660   21.9611 C   0  0  0  0  0  0  0  0  0  0  0  0
  -28.8895  -15.4488   21.6957 C   0  0  0  0  0  0  0  0  0  0  0  0
  -27.5891  -13.8562   20.3387 C   0  0  0  0  0  0  0  0  0  0  0  0
  -24.5172  -31.4670   25.0728 C   0  0  1  0  0  0  0  0  0  0  0  0
  -23.7731  -30.7457   21.4178 C   0  0  1  0  0  0  0  0  0  0  0  0
  -28.6011  -12.7317   20.6129 C   0  0  2  0  0  0  0  0  0  0  0  0
  -32.0448  -21.0342   19.3810 C   0  0  0  0  0  0  0  0  0  0  0  0
  -19.1452  -27.6798   16.0154 C   0  0  0  0  0  0  0  0  0  0  0  0
  -30.7973  -20.2789   13.7660 C   0  0  0  0  0  0  0  0  0  0  0  0
  -28.9652  -21.9917   13.8070 C   0  0  0  0  0  0  0  0  0  0  0  0
  -20.2346  -27.9930   22.5412 C   0  0  0  0  0  0  0  0  0  0  0  0
  -19.0410  -26.9299   20.6142 C   0  0  0  0  0  0  0  0  0  0  0  0
  -18.7163  -29.3561   21.0950 C   0  0  0  0  0  0  0  0  0  0  0  0
  -22.6119  -29.1493   15.4689 C   0  0  0  0  0  0  0  0  0  0  0  0
  -31.1896  -21.7114   18.3248 C   0  0  0  0  0  0  0  0  0  0  0  0
  -28.1127  -20.9636   16.5478 C   0  0  0  0  0  0  0  0  0  0  0  0
  -27.7496  -22.9572   18.1511 C   0  0  0  0  0  0  0  0  0  0  0  0
  -27.3598  -24.9744   19.6178 C   0  0  0  0  0  0  0  0  0  1  0  0
  -28.7664  -22.0325   17.4536 C   0  0  1  0  0  0  0  0  0  0  0  0
  -20.9110  -28.5692   20.1170 C   0  0  1  0  0  0  0  0  0  0  0  0
  -20.3698  -28.5107   16.3656 C   0  0  2  0  0  0  0  0  0  0  0  0
  -29.8549  -21.0870   14.6658 C   0  0  0  0  0  0  0  0  0  0  0  0
  -29.0650  -20.1647   15.6324 C   0  0  2  0  0  0  0  0  0  0  0  0
  -28.4098  -24.0945   18.9452 C   0  0  2  0  0  0  0  0  0  0  0  0
  -19.7542  -28.2126   21.0928 C   0  0  0  0  0  0  0  0  0  0  0  0
  -26.6744  -11.2236   20.9208 N   0  0  0  0  0  0  0  0  0  0  0  0
  -28.1805  -17.6344   16.7073 N   0  0  0  0  0  0  0  0  0  0  0  0
  -27.9581  -11.3590   20.5469 N   0  0  0  0  0  0  0  0  0  0  0  0
  -23.0326  -29.6395   20.8079 N   0  0  0  0  0  0  0  0  0  0  0  0
  -28.2618  -15.1631   20.4037 N   0  0  0  0  0  0  0  0  0  0  0  0
  -29.8248  -10.1515   19.7297 N   0  0  0  0  0  0  0  0  0  0  0  0
  -26.6247   -6.9881   20.1139 N   0  0  0  0  0  0  0  0  0  0  0  0
  -28.3171  -19.1804   14.8743 N   0  0  0  0  0  0  0  0  0  0  0  0
  -27.7337  -15.7206   18.1738 N   0  0  0  0  0  0  0  0  0  0  0  0
  -24.3967  -31.5010   23.6310 N   0  0  0  0  0  0  0  0  0  0  0  0
  -20.4816  -28.8092   18.7436 N   0  0  0  0  0  0  0  0  0  0  0  0
  -21.3659  -28.3660   15.2666 N   0  3  0  0  0  0  0  0  0  0  0  0
  -28.8082   -7.3657   19.5239 O   0  0  0  0  0  0  0  0  0  0  0  0
  -23.2768  -29.4792   23.3477 O   0  0  0  0  0  0  0  0  0  0  0  0
  -29.3028  -20.5896   19.3205 O   0  0  0  0  0  0  0  0  0  0  0  0
  -21.0647  -30.8783   20.6377 O   0  0  0  0  0  0  0  0  0  0  0  0
  -21.7997  -27.1660   17.7742 O   0  0  0  0  0  0  0  0  0  0  0  0
  -28.9237  -17.1921   19.5155 O   0  0  0  0  0  0  0  0  0  0  0  0
  -29.1729  -24.9009   18.0478 O   0  0  0  0  0  0  0  0  0  0  0  0
  -21.4056   -7.7822   21.8932 O   0  0  0  0  0  0  0  0  0  0  0  0
  -28.0184  -26.0270   20.3139 O   0  0  0  0  0  0  0  0  0  1  0  0
  -21.2159   -3.0477   24.7132 F   0  0  0  0  0  0  0  0  0  0  0  0
  -22.5841   -5.4890   20.8957 F   0  0  0  0  0  0  0  0  0  0  0  0
  -26.8515  -15.6775   15.6648 S   0  0  0  0  0  0  0  0  0  0  0  0
  1  2  1  0  0  0  0
  1  5  2  0  0  0  0
  2  6  2  0  0  0  0
  3  8  2  0  0  0  0
  3 16  1  0  0  0  0
  4  9  1  0  0  0  0
  4 16  2  0  0  0  0
  5 18  1  0  0  0  0
  6 20  1  0  0  0  0
  7 10  2  0  0  0  0
  7 19  1  0  0  0  0
  8 22  1  0  0  0  0
  9 22  2  0  0  0  0
 10 23  1  0  0  0  0
 11 12  2  0  0  0  0
 11 24  1  0  0  0  0
 12 25  1  0  0  0  0
 13 21  1  0  0  0  0
 13 23  2  0  0  0  0
 14 25  2  0  0  0  0
 14 26  1  0  0  0  0
 15 28  2  0  0  0  0
 15 91  1  0  0  0  0
 16 27  1  0  0  0  0
 17 27  1  0  0  0  0
 17 29  2  0  0  0  0
 17 31  1  0  0  0  0
 18 20  2  0  0  0  0
 18 37  1  0  0  0  0
 19 21  2  0  0  0  0
 19 38  1  0  0  0  0
 20 46  1  0  0  0  0
 21 39  1  0  0  0  0
 22 87  1  0  0  0  0
 23 88  1  0  0  0  0
 24 26  2  0  0  0  0
 24 87  1  0  0  0  0
 25 89  1  0  0  0  0
 26 90  1  0  0  0  0
 27 68  2  0  0  0  0
 28 69  1  0  0  0  0
 28 75  1  0  0  0  0
 29 70  1  0  0  0  0
 29 73  1  0  0  0  0
 30 69  2  0  0  0  0
 30 76  1  0  0  0  0
 30 91  1  0  0  0  0
 31 74  1  0  0  0  0
 31 80  2  0  0  0  0
 32 47  1  0  0  0  0
 32 77  1  0  0  0  0
 32 81  2  0  0  0  0
 33 57  1  0  0  0  0
 33 61  1  0  0  0  0
 33 82  2  0  0  0  0
 34 62  1  0  0  0  0
 34 71  1  0  0  0  0
 34 83  2  0  0  0  0
 35 63  1  0  0  0  0
 35 78  1  0  0  0  0
 35 84  2  0  0  0  0
 36 72  1  0  0  0  0
 36 76  1  0  0  0  0
 36 85  2  0  0  0  0
 37 40  1  0  0  0  0
 38 47  1  0  0  0  0
 39 71  1  0  0  0  0
 40 42  1  0  0  0  0
 41 43  1  0  0  0  0
 41 44  1  0  0  0  0
 42 46  1  0  0  0  0
 43 48  1  0  0  0  0
 44 72  1  0  0  0  0
 45 48  1  0  0  0  0
 45 72  1  0  0  0  0
 46 77  1  0  0  0  0
 47 71  1  0  0  0  0
 48 70  1  0  0  0  0
 49 57  1  0  0  0  0
 50 63  1  0  0  0  0
 51 64  1  0  0  0  0
 52 64  1  0  0  0  0
 53 67  1  0  0  0  0
 54 67  1  0  0  0  0
 55 67  1  0  0  0  0
 56 79  1  0  0  0  0
 58 61  1  0  0  0  0
 58 65  1  0  0  0  0
 59 61  1  0  0  0  0
 59 66  1  0  0  0  0
 60 66  1  0  0  0  0
 60 88  1  0  0  0  0
 62 67  1  0  0  0  0
 62 78  1  0  0  0  0
 63 79  1  0  0  0  0
 64 65  1  0  0  0  0
 65 75  1  0  0  0  0
 66 86  1  0  0  0  0
 68 70  1  0  0  0  0
M  CHG  1  79   1
M  ISO  4  36 100  60 101  76 100  88 101
M  END
> <Batch ID>
0192

> <Smiles>
CCC(=O)C(CC(Nc1csc([100NH:0][100C:0](=O)N2CCCC(n3nc(-c4ccc(Oc5ccc(F)cc5F)cc4)c(C(N)=O)c3N)C2)n1)C(C)C)CC(O)[101CH2:1][101O:1]c1ccc2c(c1)CN(C(=O)C(NC(=O)C(C)NC)C(C)(C)C)C(C(=O)NC1CCCc3ccccc31)C2

> <Shape>
0.284

> <Color>
0.094

> <Negative vol penalty>
0.000

$$$$

  -OEChem-04052305273D

 88 96  0     1  0  0  0  0  0999 V2000
  -17.3252  -30.6388   24.3669 C   0  0  0  0  0  0  0  0  0  0  0  0
  -18.6966  -30.8615   24.4395 C   0  0  0  0  0  0  0  0  0  0  0  0
  -24.7208  -11.5723   21.1463 C   0  0  0  0  0  0  0  0  0  0  0  0
  -23.1524  -13.3431   21.6378 C   0  0  0  0  0  0  0  0  0  0  0  0
  -16.8369  -29.5143   23.7028 C   0  0  0  0  0  0  0  0  0  0  0  0
  -19.5805  -29.9591   23.8489 C   0  0  0  0  0  0  0  0  0  0  0  0
  -25.9322  -29.7162   20.5454 C   0  0  0  0  0  0  0  0  0  0  0  0
  -24.1461  -10.7861   22.1448 C   0  0  0  0  0  0  0  0  0  0  0  0
  -22.5775  -12.5568   22.6363 C   0  0  0  0  0  0  0  0  0  0  0  0
  -27.1551  -29.0498   20.6101 C   0  0  0  0  0  0  0  0  0  0  0  0
  -21.3952   -8.8563   22.5213 C   0  0  0  0  0  0  0  0  0  0  0  0
  -21.1348   -7.5187   22.2237 C   0  0  0  0  0  0  0  0  0  0  0  0
  -26.1944  -27.1837   19.4211 C   0  0  0  0  0  0  0  0  0  0  0  0
  -22.5960   -6.8340   24.0218 C   0  0  0  0  0  0  0  0  0  0  0  0
  -25.8352  -23.5967   20.8781 C   0  0  0  0  0  0  0  0  0  0  0  0
  -24.2240  -12.8509   20.8929 C   0  0  0  0  0  0  0  0  0  0  0  0
  -24.4510  -13.7161   18.5038 C   0  0  0  0  0  0  0  0  0  0  0  0
  -17.7150  -28.6027   23.0955 C   0  0  0  0  0  0  0  0  0  0  0  0
  -24.8263  -29.1158   19.9265 C   0  0  0  0  0  0  0  0  0  0  0  0
  -19.1036  -28.8206   23.1772 C   0  0  0  0  0  0  0  0  0  0  0  0
  -24.9593  -27.8456   19.3476 C   0  0  0  0  0  0  0  0  0  0  0  0
  -23.0744  -11.2782   22.8898 C   0  0  0  0  0  0  0  0  0  0  0  0
  -27.2856  -27.7822   20.0505 C   0  0  0  0  0  0  0  0  0  0  0  0
  -22.2562   -9.1827   23.5692 C   0  0  0  0  0  0  0  0  0  0  0  0
  -21.7351   -6.5075   22.9739 C   0  0  0  0  0  0  0  0  0  0  0  0
  -22.8565   -8.1716   24.3194 C   0  0  0  0  0  0  0  0  0  0  0  0
  -24.8178  -13.6638   19.8619 C   0  0  0  0  0  0  0  0  0  0  0  0
  -27.1530  -23.2638   20.6397 C   0  0  0  0  0  0  0  0  0  0  0  0
  -24.9572  -22.5355   20.9629 C   0  0  0  0  0  0  0  0  0  0  0  0
  -25.3114  -14.6328   17.9509 C   0  0  0  0  0  0  0  0  0  0  0  0
  -26.6386  -21.0500   20.5978 C   0  0  0  0  0  0  0  0  0  0  0  0
  -23.4243  -13.0001   17.8046 C   0  0  0  0  0  0  0  0  0  0  0  0
  -21.9393  -28.2002   20.8911 C   0  0  0  0  0  0  0  0  0  0  0  0
  -21.5005  -27.6044   17.7328 C   0  0  0  0  0  0  0  0  0  0  0  0
  -22.8917  -26.9092   14.6950 C   0  0  0  0  0  0  0  0  0  0  0  0
  -28.3583  -19.2508   20.2083 C   0  0  0  0  0  0  0  0  0  0  0  0
  -17.1422  -27.3767   22.4296 C   0  0  0  0  0  0  0  0  0  0  0  0
  -23.5214  -29.8589   19.8415 C   0  0  0  0  0  0  0  0  0  0  0  0
  -23.8080  -27.1659   18.6540 C   0  0  0  0  0  0  0  0  0  0  0  0
  -18.1301  -26.6666   21.5077 C   0  0  0  0  0  0  0  0  0  0  0  0
  -29.7131  -16.4396   18.4938 C   0  0  0  0  0  0  0  0  0  0  0  0
  -19.4835  -26.5109   22.1940 C   0  0  0  0  0  0  0  0  0  0  0  0
  -28.5760  -15.4158   18.5212 C   0  0  0  0  0  0  0  0  0  0  0  0
  -29.7748  -17.2533   19.7853 C   0  0  0  0  0  0  0  0  0  0  0  0
  -27.3765  -16.8735   20.2015 C   0  0  0  0  0  0  0  0  0  0  0  0
  -20.0932  -27.8778   22.5278 C   0  0  1  0  0  0  0  0  0  0  0  0
  -22.3217  -28.9384   19.6395 C   0  0  1  0  0  0  0  0  0  0  0  0
  -27.2337  -16.0742   18.8960 C   0  0  2  0  0  0  0  0  0  0  0  0
  -31.2987  -24.3615   15.5628 C   0  0  0  0  0  0  0  0  0  0  0  0
  -31.1252  -28.2347   19.3567 C   0  0  0  0  0  0  0  0  0  0  0  0
  -22.2767  -26.4380   12.3081 C   0  0  0  0  0  0  0  0  0  0  0  0
  -31.8920  -24.0306   18.4986 C   0  0  0  0  0  0  0  0  0  0  0  0
  -20.6536  -24.7784   18.5115 C   0  0  0  0  0  0  0  0  0  0  0  0
  -20.9742  -24.0991   16.1232 C   0  0  0  0  0  0  0  0  0  0  0  0
  -19.2693  -25.8231   16.7097 C   0  0  0  0  0  0  0  0  0  0  0  0
  -24.3660  -29.2849   13.7245 C   0  0  0  0  0  0  0  0  0  0  0  0
  -28.1823  -24.3499   20.5310 C   0  0  0  0  0  0  0  0  0  0  0  0
  -30.2776  -24.6885   16.6457 C   0  0  0  0  0  0  0  0  0  0  0  0
  -29.9709  -27.9505   18.4029 C   0  0  0  0  0  0  0  0  0  0  0  0
  -21.7240  -26.4170   16.8277 C   0  0  1  0  0  0  0  0  0  0  0  0
  -22.6583  -27.5077   13.3195 C   0  0  2  0  0  0  0  0  0  0  0  0
  -30.9171  -25.1042   17.9886 C   0  0  1  0  0  0  0  0  0  0  0  0
  -29.8758  -25.4740   19.0794 C   0  0  1  0  0  0  0  0  0  0  0  0
  -29.0858  -26.7822   18.8608 C   0  0  1  0  0  0  0  0  0  1  0  0
  -20.6766  -25.2911   17.0577 C   0  0  0  0  0  0  0  0  0  0  0  0
  -25.8323  -14.4821   20.1540 N   0  0  0  0  0  0  0  0  0  0  0  0
  -27.5913  -21.9961   20.4938 N   0  0  0  0  0  0  0  0  0  0  0  0
  -25.3260  -21.2448   20.8271 N   0  0  0  0  0  0  0  0  0  0  0  0
  -26.1103  -15.0571   18.9716 N   0  0  0  0  0  0  0  0  0  0  0  0
  -22.5509  -27.9304   18.6024 N   0  0  0  0  0  0  0  0  0  0  0  0
  -28.4692  -17.8506   20.0743 N   0  0  0  0  0  0  0  0  0  0  0  0
  -23.5943  -22.8344   21.2068 N   0  0  0  0  0  0  0  0  0  0  0  0
  -25.4550  -15.1093   16.6959 N   0  0  0  0  0  0  0  0  0  0  0  0
  -22.6309  -12.0965   18.5247 N   0  0  0  0  0  0  0  0  0  0  0  0
  -27.0626  -19.7061   20.4499 N   0  0  0  0  0  0  0  0  0  0  0  0
  -20.6634  -28.4801   21.3418 N   0  0  0  0  0  0  0  0  0  0  0  0
  -21.7491  -26.9406   15.4662 N   0  0  0  0  0  0  0  0  0  0  0  0
  -23.8906  -28.1927   12.8368 N   0  3  0  0  0  0  0  0  0  0  0  0
  -28.8700  -24.3688   19.2192 N   0  3  0  0  0  0  0  0  0  0  0  0
  -23.2273  -13.1448   16.5742 O   0  0  0  0  0  0  0  0  0  0  0  0
  -22.7419  -27.4322   21.4086 O   0  0  0  0  0  0  0  0  0  0  0  0
  -20.4362  -28.2242   17.6655 O   0  0  0  0  0  0  0  0  0  0  0  0
  -23.9780  -26.4557   15.0485 O   0  0  0  0  0  0  0  0  0  0  0  0
  -29.3360  -19.9936   20.0884 O   0  0  0  0  0  0  0  0  0  0  0  0
  -22.5131  -10.5112   23.8640 O   0  0  0  0  0  0  0  0  0  0  0  0
  -28.4823  -27.1269   20.1131 O   0  0  0  0  0  0  0  0  0  1  0  0
  -21.4837   -5.2231   22.6889 F   0  0  0  0  0  0  0  0  0  0  0  0
  -23.6835   -8.4791   25.3280 F   0  0  0  0  0  0  0  0  0  0  0  0
  1  2  1  0  0  0  0
  1  5  2  0  0  0  0
  2  6  2  0  0  0  0
  3  8  2  0  0  0  0
  3 16  1  0  0  0  0
  4  9  1  0  0  0  0
  4 16  2  0  0  0  0
  5 18  1  0  0  0  0
  6 20  1  0  0  0  0
  7 10  2  0  0  0  0
  7 19  1  0  0  0  0
  8 22  1  0  0  0  0
  9 22  2  0  0  0  0
 10 23  1  0  0  0  0
 11 12  2  0  0  0  0
 11 24  1  0  0  0  0
 12 25  1  0  0  0  0
 13 21  1  0  0  0  0
 13 23  2  0  0  0  0
 14 25  2  0  0  0  0
 14 26  1  0  0  0  0
 15 28  1  0  0  0  0
 15 29  2  0  0  0  0
 16 27  1  0  0  0  0
 17 27  1  0  0  0  0
 17 30  2  0  0  0  0
 17 32  1  0  0  0  0
 18 20  2  0  0  0  0
 18 37  1  0  0  0  0
 19 21  2  0  0  0  0
 19 38  1  0  0  0  0
 20 46  1  0  0  0  0
 21 39  1  0  0  0  0
 22 85  1  0  0  0  0
 23 86  1  0  0  0  0
 24 26  2  0  0  0  0
 24 85  1  0  0  0  0
 25 87  1  0  0  0  0
 26 88  1  0  0  0  0
 27 66  2  0  0  0  0
 28 57  1  0  0  0  0
 28 67  2  0  0  0  0
 29 68  1  0  0  0  0
 29 72  1  0  0  0  0
 30 69  1  0  0  0  0
 30 73  1  0  0  0  0
 31 67  1  0  0  0  0
 31 68  2  0  0  0  0
 31 75  1  0  0  0  0
 32 74  1  0  0  0  0
 32 80  2  0  0  0  0
 33 47  1  0  0  0  0
 33 76  1  0  0  0  0
 33 81  2  0  0  0  0
 34 60  1  0  0  0  0
 34 70  1  0  0  0  0
 34 82  2  0  0  0  0
 35 61  1  0  0  0  0
 35 77  1  0  0  0  0
 35 83  2  0  0  0  0
 36 71  1  0  0  0  0
 36 75  1  0  0  0  0
 36 84  2  0  0  0  0
 37 40  1  0  0  0  0
 38 47  1  0  0  0  0
 39 70  1  0  0  0  0
 40 42  1  0  0  0  0
 41 43  1  0  0  0  0
 41 44  1  0  0  0  0
 42 46  1  0  0  0  0
 43 48  1  0  0  0  0
 44 71  1  0  0  0  0
 45 48  1  0  0  0  0
 45 71  1  0  0  0  0
 46 76  1  0  0  0  0
 47 70  1  0  0  0  0
 48 69  1  0  0  0  0
 49 58  1  0  0  0  0
 50 59  1  0  0  0  0
 51 61  1  0  0  0  0
 52 62  1  0  0  0  0
 53 65  1  0  0  0  0
 54 65  1  0  0  0  0
 55 65  1  0  0  0  0
 56 78  1  0  0  0  0
 57 79  1  0  0  0  0
 58 62  1  0  0  0  0
 59 64  1  0  0  0  0
 60 65  1  0  0  0  0
 60 77  1  0  0  0  0
 61 78  1  0  0  0  0
 62 63  1  0  0  0  0
 63 64  1  0  0  0  0
 63 79  1  0  0  0  0
 64 86  1  0  0  0  0
 66 69  1  0  0  0  0
M  CHG  2  78   1  79   1
M  ISO  4  36 100  64 101  75 100  86 101
M  END
> <Batch ID>
0192

> <Smiles>
CCC(C)C(NCc1cc(N)nc([100NH:0][100C:0](=O)N2CCCC(n3nc(-c4ccc(Oc5ccc(F)cc5F)cc4)c(C(N)=O)c3N)C2)n1)[101CH:1](CC)[101O:1]c1ccc2c(c1)CN(C(=O)C(NC(=O)C(C)NC)C(C)(C)C)C(C(=O)NC1CCCc3ccccc31)C2

> <Shape>
0.272

> <Color>
0.077

> <Negative vol penalty>
0.000

$$$$

  -OEChem-04052305273D

 88 96  0     1  0  0  0  0  0999 V2000
  -17.9258  -28.3844   22.8331 C   0  0  0  0  0  0  0  0  0  0  0  0
  -17.8068  -27.0433   22.4827 C   0  0  0  0  0  0  0  0  0  0  0  0
  -29.5476  -23.3762   19.9230 C   0  0  0  0  0  0  0  0  0  0  0  0
  -29.6397  -22.4869   17.6784 C   0  0  0  0  0  0  0  0  0  0  0  0
  -19.1874  -28.9398   23.0424 C   0  0  0  0  0  0  0  0  0  0  0  0
  -18.9496  -26.2571   22.3403 C   0  0  0  0  0  0  0  0  0  0  0  0
  -19.5250  -20.3161   23.7113 C   0  0  0  0  0  0  0  0  0  0  0  0
  -30.0608  -24.5891   19.4635 C   0  0  0  0  0  0  0  0  0  0  0  0
  -30.1529  -23.6999   17.2190 C   0  0  0  0  0  0  0  0  0  0  0  0
  -19.4728  -19.1635   22.9286 C   0  0  0  0  0  0  0  0  0  0  0  0
  -28.9112  -27.3284   17.8488 C   0  0  0  0  0  0  0  0  0  0  0  0
  -28.3036  -28.5010   18.2978 C   0  0  0  0  0  0  0  0  0  0  0  0
  -21.8796  -19.1723   22.7658 C   0  0  0  0  0  0  0  0  0  0  0  0
  -30.3978  -29.2143   19.2687 C   0  0  0  0  0  0  0  0  0  0  0  0
  -27.1849  -12.2828   20.7240 C   0  0  0  0  0  0  0  0  0  0  0  0
  -26.0618  -13.3013   19.1314 C   0  0  0  0  0  0  0  0  0  0  0  0
  -29.3371  -22.3251   19.0304 C   0  0  0  0  0  0  0  0  0  0  0  0
  -27.4524  -20.7014   19.5954 C   0  0  0  0  0  0  0  0  0  0  0  0
  -20.3457  -28.1575   22.9120 C   0  0  0  0  0  0  0  0  0  0  0  0
  -20.7563  -20.9126   24.0185 C   0  0  0  0  0  0  0  0  0  0  0  0
  -20.2280  -26.8029   22.5468 C   0  0  0  0  0  0  0  0  0  0  0  0
  -21.9449  -20.3310   23.5547 C   0  0  0  0  0  0  0  0  0  0  0  0
  -27.2690  -13.3290   19.7858 C   0  0  0  0  0  0  0  0  0  0  0  0
  -30.3634  -24.7509   18.1116 C   0  0  0  0  0  0  0  0  0  0  0  0
  -20.6500  -18.5931   22.4533 C   0  0  0  0  0  0  0  0  0  0  0  0
  -30.2620  -27.0987   18.1099 C   0  0  0  0  0  0  0  0  0  0  0  0
  -29.0469  -29.4439   19.0077 C   0  0  0  0  0  0  0  0  0  0  0  0
  -31.0053  -28.0417   18.8198 C   0  0  0  0  0  0  0  0  0  0  0  0
  -28.8075  -21.0717   19.5045 C   0  0  0  0  0  0  0  0  0  0  0  0
  -27.4785  -19.4247   20.1013 C   0  0  0  0  0  0  0  0  0  0  0  0
  -26.2752  -21.4449   19.2530 C   0  0  0  0  0  0  0  0  0  0  0  0
  -22.0916  -23.7353   23.4244 C   0  0  0  0  0  0  0  0  0  0  0  0
  -24.4250  -22.6046   25.3735 C   0  0  0  0  0  0  0  0  0  0  0  0
  -26.0110  -19.9043   26.7299 C   0  0  0  0  0  0  0  0  0  0  0  0
  -29.5709  -14.2657   20.1988 C   0  0  0  0  0  0  0  0  0  0  0  0
  -21.6902  -28.8140   23.1021 C   0  0  0  0  0  0  0  0  0  0  0  0
  -20.7972  -22.1406   24.8863 C   0  0  0  0  0  0  0  0  0  0  0  0
  -23.2935  -20.9210   23.8733 C   0  0  0  0  0  0  0  0  0  0  0  0
  -22.8315  -27.8193   23.2975 C   0  0  0  0  0  0  0  0  0  0  0  0
  -31.2858  -16.7471   22.0905 C   0  0  0  0  0  0  0  0  0  0  0  0
  -22.7488  -26.7018   22.2625 C   0  0  0  0  0  0  0  0  0  0  0  0
  -30.6825  -18.0630   21.5938 C   0  0  0  0  0  0  0  0  0  0  0  0
  -31.4298  -15.7276   20.9620 C   0  0  0  0  0  0  0  0  0  0  0  0
  -29.6001  -16.7886   19.6987 C   0  0  0  0  0  0  0  0  0  0  0  0
  -21.4428  -25.9113   22.4071 C   0  0  1  0  0  0  0  0  0  0  0  0
  -22.0746  -22.9555   24.7086 C   0  0  1  0  0  0  0  0  0  0  0  0
  -29.3755  -17.8242   20.8126 C   0  0  2  0  0  0  0  0  0  0  0  0
  -23.1707  -14.9556   24.7951 C   0  0  0  0  0  0  0  0  0  0  0  0
  -27.9067  -19.2954   28.2574 C   0  0  0  0  0  0  0  0  0  0  0  0
  -23.9721  -10.4105   18.7565 C   0  0  0  0  0  0  0  0  0  0  0  0
  -26.4169  -23.2438   23.1523 C   0  0  0  0  0  0  0  0  0  0  0  0
  -28.0797  -21.7787   24.3172 C   0  0  0  0  0  0  0  0  0  0  0  0
  -27.2034  -23.8179   25.4559 C   0  0  0  0  0  0  0  0  0  0  0  0
  -24.1940  -18.5553   28.6371 C   0  0  0  0  0  0  0  0  0  0  0  0
  -21.9129  -14.0984   24.8749 C   0  0  0  0  0  0  0  0  0  0  0  0
  -22.9492  -11.9356   20.4892 C   0  0  0  0  0  0  0  0  0  0  0  0
  -19.9868  -15.1504   21.6134 C   0  0  0  0  0  0  0  0  0  0  0  0
  -22.5107  -13.3505   20.8616 C   0  0  0  0  0  0  0  0  0  0  0  0
  -19.5192  -16.5690   21.9237 C   0  0  0  0  0  0  0  0  0  1  0  0
  -25.6930  -21.8101   25.1738 C   0  0  1  0  0  0  0  0  0  0  0  0
  -26.4175  -19.5872   28.1577 C   0  0  2  0  0  0  0  0  0  0  0  0
  -23.9522  -11.8386   19.3178 C   0  0  1  0  0  0  0  0  0  0  0  0
  -21.1587  -14.6802   22.4873 C   0  0  1  0  0  0  0  0  0  0  0  0
  -20.7814  -14.6278   23.9816 C   0  0  1  0  0  0  0  0  0  0  0  0
  -26.8229  -22.6523   24.5170 C   0  0  0  0  0  0  0  0  0  0  0  0
  -26.0165  -11.6376   20.6735 N   0  0  0  0  0  0  0  0  0  0  0  0
  -29.6343  -20.1083   19.9196 N   0  0  0  0  0  0  0  0  0  0  0  0
  -25.3553  -12.2801   19.6957 N   0  0  0  0  0  0  0  0  0  0  0  0
  -28.7963  -19.1200   20.2762 N   0  0  0  0  0  0  0  0  0  0  0  0
  -23.2808  -22.1253   24.7200 N   0  0  0  0  0  0  0  0  0  0  0  0
  -30.1515  -15.5497   20.2697 N   0  0  0  0  0  0  0  0  0  0  0  0
  -26.5025  -18.5444   20.4093 N   0  0  0  0  0  0  0  0  0  0  0  0
  -26.4285  -22.7425   18.7460 N   0  0  0  0  0  0  0  0  0  0  0  0
  -28.3400  -14.2249   19.5446 N   0  0  0  0  0  0  0  0  0  0  0  0
  -21.5285  -24.9934   23.5227 N   0  0  0  0  0  0  0  0  0  0  0  0
  -26.0400  -21.2600   26.4798 N   0  0  0  0  0  0  0  0  0  0  0  0
  -25.6711  -18.3978   28.6568 N   0  3  0  0  0  0  0  0  0  0  0  0
  -21.5941  -13.3278   22.0292 N   0  3  0  0  0  0  0  0  0  0  0  0
  -25.1210  -20.9786   19.4079 O   0  0  0  0  0  0  0  0  0  0  0  0
  -22.5808  -23.2335   22.4192 O   0  0  0  0  0  0  0  0  0  0  0  0
  -24.4472  -23.6092   26.0889 O   0  0  0  0  0  0  0  0  0  0  0  0
  -25.7026  -19.0360   25.9167 O   0  0  0  0  0  0  0  0  0  0  0  0
  -30.1117  -13.2800   20.7065 O   0  0  0  0  0  0  0  0  0  0  0  0
  -19.6139  -13.8240   24.1457 O   0  0  0  0  0  0  0  0  0  0  0  0
  -30.8639  -25.9344   17.6628 O   0  0  0  0  0  0  0  0  0  0  0  0
  -20.6018  -17.4685   21.6886 O   0  0  0  0  0  0  0  0  0  1  0  0
  -28.4638  -30.5706   19.4374 F   0  0  0  0  0  0  0  0  0  0  0  0
  -32.3037  -27.8271   19.0726 F   0  0  0  0  0  0  0  0  0  0  0  0
  1  2  1  0  0  0  0
  1  5  2  0  0  0  0
  2  6  2  0  0  0  0
  3  8  2  0  0  0  0
  3 17  1  0  0  0  0
  4  9  1  0  0  0  0
  4 17  2  0  0  0  0
  5 19  1  0  0  0  0
  6 21  1  0  0  0  0
  7 10  2  0  0  0  0
  7 20  1  0  0  0  0
  8 24  1  0  0  0  0
  9 24  2  0  0  0  0
 10 25  1  0  0  0  0
 11 12  2  0  0  0  0
 11 26  1  0  0  0  0
 12 27  1  0  0  0  0
 13 22  1  0  0  0  0
 13 25  2  0  0  0  0
 14 27  2  0  0  0  0
 14 28  1  0  0  0  0
 15 23  1  0  0  0  0
 15 66  2  0  0  0  0
 16 23  2  0  0  0  0
 16 68  1  0  0  0  0
 17 29  1  0  0  0  0
 18 29  1  0  0  0  0
 18 30  2  0  0  0  0
 18 31  1  0  0  0  0
 19 21  2  0  0  0  0
 19 36  1  0  0  0  0
 20 22  2  0  0  0  0
 20 37  1  0  0  0  0
 21 45  1  0  0  0  0
 22 38  1  0  0  0  0
 23 74  1  0  0  0  0
 24 85  1  0  0  0  0
 25 86  1  0  0  0  0
 26 28  2  0  0  0  0
 26 85  1  0  0  0  0
 27 87  1  0  0  0  0
 28 88  1  0  0  0  0
 29 67  2  0  0  0  0
 30 69  1  0  0  0  0
 30 72  1  0  0  0  0
 31 73  1  0  0  0  0
 31 79  2  0  0  0  0
 32 46  1  0  0  0  0
 32 75  1  0  0  0  0
 32 80  2  0  0  0  0
 33 60  1  0  0  0  0
 33 70  1  0  0  0  0
 33 81  2  0  0  0  0
 34 61  1  0  0  0  0
 34 76  1  0  0  0  0
 34 82  2  0  0  0  0
 35 71  1  0  0  0  0
 35 74  1  0  0  0  0
 35 83  2  0  0  0  0
 36 39  1  0  0  0  0
 37 46  1  0  0  0  0
 38 70  1  0  0  0  0
 39 41  1  0  0  0  0
 40 42  1  0  0  0  0
 40 43  1  0  0  0  0
 41 45  1  0  0  0  0
 42 47  1  0  0  0  0
 43 71  1  0  0  0  0
 44 47  1  0  0  0  0
 44 71  1  0  0  0  0
 45 75  1  0  0  0  0
 46 70  1  0  0  0  0
 47 69  1  0  0  0  0
 48 55  1  0  0  0  0
 49 61  1  0  0  0  0
 50 62  1  0  0  0  0
 51 65  1  0  0  0  0
 52 65  1  0  0  0  0
 53 65  1  0  0  0  0
 54 77  1  0  0  0  0
 55 64  1  0  0  0  0
 56 58  1  0  0  0  0
 56 62  1  0  0  0  0
 57 59  1  0  0  0  0
 57 63  1  0  0  0  0
 58 78  1  0  0  0  0
 59 86  1  0  0  0  0
 60 65  1  0  0  0  0
 60 76  1  0  0  0  0
 61 77  1  0  0  0  0
 62 68  1  0  0  0  0
 63 64  1  0  0  0  0
 63 78  1  0  0  0  0
 64 84  1  0  0  0  0
 66 68  1  0  0  0  0
 67 69  1  0  0  0  0
M  CHG  2  77   1  78   1
M  ISO  4  35 100  59 101  74 100  86 101
M  END
> <Batch ID>
0192

> <Smiles>
CCC(O)C(C[101CH2:1][101O:1]c1ccc2c(c1)CN(C(=O)C(NC(=O)C(C)NC)C(C)(C)C)C(C(=O)NC1CCCc3ccccc31)C2)NCCC(C)n1cc([100NH:0][100C:0](=O)N2CCCC(n3nc(-c4ccc(Oc5ccc(F)cc5F)cc4)c(C(N)=O)c3N)C2)cn1

> <Shape>
0.223

> <Color>
0.063

> <Negative vol penalty>
0.000

$$$$
