
  -OEChem-04052305303D

 85 93  0     1  0  0  0  0  0999 V2000
  -21.8386  -11.3003   20.1151 C   0  0  0  0  0  0  0  0  0  0  0  0
  -21.6281  -12.5270   20.7367 C   0  0  0  0  0  0  0  0  0  0  0  0
  -21.2894  -27.3696   20.1057 C   0  0  0  0  0  0  0  0  0  0  0  0
  -22.0207  -26.7027   22.3096 C   0  0  0  0  0  0  0  0  0  0  0  0
  -23.1381  -10.8475   19.8911 C   0  0  0  0  0  0  0  0  0  0  0  0
  -22.7171  -13.3011   21.1357 C   0  0  0  0  0  0  0  0  0  0  0  0
  -23.0870  -19.4141   21.1323 C   0  0  0  0  0  0  0  0  0  0  0  0
  -20.0628  -26.7420   20.3228 C   0  0  0  0  0  0  0  0  0  0  0  0
  -20.7941  -26.0751   22.5267 C   0  0  0  0  0  0  0  0  0  0  0  0
  -22.9223  -20.3644   22.1391 C   0  0  0  0  0  0  0  0  0  0  0  0
  -19.2916  -23.1739   21.6572 C   0  0  0  0  0  0  0  0  0  0  0  0
  -19.3071  -21.8987   22.2223 C   0  0  0  0  0  0  0  0  0  0  0  0
  -25.3093  -20.4016   22.4861 C   0  0  0  0  0  0  0  0  0  0  0  0
  -18.0060  -22.7102   24.0893 C   0  0  0  0  0  0  0  0  0  0  0  0
  -30.6925  -22.3825   23.0491 C   0  0  0  0  0  0  0  0  0  0  0  0
  -22.2684  -27.3499   21.0991 C   0  0  0  0  0  0  0  0  0  0  0  0
  -23.8717  -29.3329   21.1681 C   0  0  0  0  0  0  0  0  0  0  0  0
  -24.2436  -11.6209   20.2788 C   0  0  0  0  0  0  0  0  0  0  0  0
  -24.3652  -18.9416   20.8017 C   0  0  0  0  0  0  0  0  0  0  0  0
  -24.0326  -12.8576   20.9179 C   0  0  0  0  0  0  0  0  0  0  0  0
  -25.4877  -19.4472   21.4729 C   0  0  0  0  0  0  0  0  0  0  0  0
  -19.8151  -26.0948   21.5333 C   0  0  0  0  0  0  0  0  0  0  0  0
  -24.0332  -20.8561   22.8182 C   0  0  0  0  0  0  0  0  0  0  0  0
  -18.6333  -24.2173   22.3082 C   0  0  0  0  0  0  0  0  0  0  0  0
  -18.6643  -21.6668   23.4383 C   0  0  0  0  0  0  0  0  0  0  0  0
  -17.9905  -23.9854   23.5243 C   0  0  0  0  0  0  0  0  0  0  0  0
  -23.5359  -27.9975   20.8752 C   0  0  0  0  0  0  0  0  0  0  0  0
  -30.0853  -23.6193   23.1098 C   0  0  0  0  0  0  0  0  0  0  0  0
  -25.1810  -29.4528   20.7708 C   0  0  0  0  0  0  0  0  0  0  0  0
  -28.8093  -22.5550   24.5412 C   0  0  0  0  0  0  0  0  0  0  0  0
  -23.0716  -30.3721   21.7476 C   0  0  0  0  0  0  0  0  0  0  0  0
  -25.7962  -16.1043   20.8750 C   0  0  0  0  0  0  0  0  0  0  0  0
  -28.2001  -17.7137   19.4075 C   0  0  0  0  0  0  0  0  0  0  0  0
  -29.7390  -20.6980   18.7971 C   0  0  0  0  0  0  0  0  0  0  0  0
  -29.6251  -25.4925   20.1257 C   0  0  0  0  0  0  0  0  0  0  0  0
  -25.6294  -11.0681   20.0583 C   0  0  0  0  0  0  0  0  0  0  0  0
  -24.5284  -17.9362   19.6949 C   0  0  0  0  0  0  0  0  0  0  0  0
  -26.8833  -18.9876   21.1420 C   0  0  0  0  0  0  0  0  0  0  0  0
  -26.7301  -12.1196   20.1736 C   0  0  0  0  0  0  0  0  0  0  0  0
  -28.3191  -27.6701   17.6299 C   0  0  0  0  0  0  0  0  0  0  0  0
  -26.5192  -12.9791   21.4160 C   0  0  0  0  0  0  0  0  0  0  0  0
  -26.9755  -28.1215   18.2051 C   0  0  0  0  0  0  0  0  0  0  0  0
  -28.6221  -26.2146   17.9789 C   0  0  0  0  0  0  0  0  0  0  0  0
  -27.2064  -26.3460   19.9920 C   0  0  0  0  0  0  0  0  0  0  0  0
  -25.1883  -13.7373   21.3429 C   0  0  1  0  0  0  0  0  0  0  0  0
  -25.8297  -17.1460   19.7926 C   0  0  1  0  0  0  0  0  0  0  0  0
  -26.8829  -27.8239   19.7138 C   0  0  2  0  0  0  0  0  0  0  0  0
  -31.7036  -21.6912   17.5925 C   0  0  0  0  0  0  0  0  0  0  0  0
  -23.0988  -22.5170   26.6014 C   0  0  0  0  0  0  0  0  0  0  0  0
  -23.4105  -20.0893   26.1022 C   0  0  0  0  0  0  0  0  0  0  0  0
  -30.0617  -16.6704   21.5883 C   0  0  0  0  0  0  0  0  0  0  0  0
  -31.7259  -18.4109   20.9032 C   0  0  0  0  0  0  0  0  0  0  0  0
  -31.0350  -16.6429   19.2847 C   0  0  0  0  0  0  0  0  0  0  0  0
  -27.9939  -22.3703   17.0893 C   0  0  0  0  0  0  0  0  0  0  0  0
  -30.4931  -24.8183   22.3508 C   0  0  0  0  0  0  0  0  0  0  0  0
  -25.5799  -23.1189   24.8319 C   0  0  0  0  0  0  0  0  0  0  0  0
  -29.4094  -18.4875   19.8740 C   0  0  1  0  0  0  0  0  0  0  0  0
  -30.2277  -21.3343   17.5084 C   0  0  2  0  0  0  0  0  0  0  0  0
  -24.1159  -21.4485   26.1901 C   0  0  0  0  0  0  0  0  0  0  0  0
  -24.8319  -21.7762   24.8606 C   0  0  1  0  0  0  0  0  0  1  0  0
  -26.7564  -23.2407   25.7975 C   0  0  1  0  0  0  0  0  0  0  0  0
  -30.5317  -17.5604   20.4203 C   0  0  0  0  0  0  0  0  0  0  0  0
  -24.5500  -27.3178   20.3335 N   0  0  0  0  0  0  0  0  0  0  0  0
  -29.0050  -23.7200   23.9645 N   0  0  0  0  0  0  0  0  0  0  0  0
  -25.5359  -28.2297   20.2828 N   0  0  0  0  0  0  0  0  0  0  0  0
  -26.9904  -17.9987   20.0565 N   0  0  0  0  0  0  0  0  0  0  0  0
  -28.5189  -25.9995   19.4242 N   0  0  0  0  0  0  0  0  0  0  0  0
  -26.0518  -30.4841   20.7947 N   0  0  0  0  0  0  0  0  0  0  0  0
  -21.7466  -30.0786   22.0976 N   0  0  0  0  0  0  0  0  0  0  0  0
  -27.8038  -22.2978   25.4608 N   0  0  0  0  0  0  0  0  0  0  0  0
  -25.3054  -14.8801   20.4626 N   0  0  0  0  0  0  0  0  0  0  0  0
  -29.8186  -19.3222   18.7496 N   0  0  0  0  0  0  0  0  0  0  0  0
  -29.4449  -25.3246   21.4932 N   0  0  0  0  0  0  0  0  0  0  0  0
  -29.4590  -22.5783   17.2210 N   0  3  0  0  0  0  0  0  0  0  0  0
  -23.5135  -31.5312   21.9338 O   0  0  0  0  0  0  0  0  0  0  0  0
  -26.1881  -16.3896   22.0004 O   0  0  0  0  0  0  0  0  0  0  0  0
  -28.3227  -16.8919   18.4957 O   0  0  0  0  0  0  0  0  0  0  0  0
  -29.3312  -21.3557   19.7519 O   0  0  0  0  0  0  0  0  0  0  0  0
  -30.6960  -25.2152   19.5750 O   0  0  0  0  0  0  0  0  0  0  0  0
  -18.6182  -25.4825   21.7456 O   0  0  0  0  0  0  0  0  0  0  0  0
  -23.8753  -21.7832   23.8018 O   0  0  0  0  0  0  0  0  0  1  0  0
  -18.6779  -20.4419   23.9800 F   0  0  0  0  0  0  0  0  0  0  0  0
  -17.3555  -24.9835   24.1538 F   0  0  0  0  0  0  0  0  0  0  0  0
  -27.2471  -24.5088   25.6833 F   0  0  0  0  0  0  0  0  0  0  0  0
  -29.8877  -21.2942   24.1023 S   0  0  0  0  0  0  0  0  0  0  0  0
  1  2  1  0  0  0  0
  1  5  2  0  0  0  0
  2  6  2  0  0  0  0
  3  8  2  0  0  0  0
  3 16  1  0  0  0  0
  4  9  1  0  0  0  0
  4 16  2  0  0  0  0
  5 18  1  0  0  0  0
  6 20  1  0  0  0  0
  7 10  2  0  0  0  0
  7 19  1  0  0  0  0
  8 22  1  0  0  0  0
  9 22  2  0  0  0  0
 10 23  1  0  0  0  0
 11 12  2  0  0  0  0
 11 24  1  0  0  0  0
 12 25  1  0  0  0  0
 13 21  1  0  0  0  0
 13 23  2  0  0  0  0
 14 25  2  0  0  0  0
 14 26  1  0  0  0  0
 15 28  2  0  0  0  0
 15 85  1  0  0  0  0
 16 27  1  0  0  0  0
 17 27  1  0  0  0  0
 17 29  2  0  0  0  0
 17 31  1  0  0  0  0
 18 20  2  0  0  0  0
 18 36  1  0  0  0  0
 19 21  2  0  0  0  0
 19 37  1  0  0  0  0
 20 45  1  0  0  0  0
 21 38  1  0  0  0  0
 22 80  1  0  0  0  0
 23 81  1  0  0  0  0
 24 26  2  0  0  0  0
 24 80  1  0  0  0  0
 25 82  1  0  0  0  0
 26 83  1  0  0  0  0
 27 63  2  0  0  0  0
 28 55  1  0  0  0  0
 28 64  1  0  0  0  0
 29 65  1  0  0  0  0
 29 68  1  0  0  0  0
 30 64  2  0  0  0  0
 30 70  1  0  0  0  0
 30 85  1  0  0  0  0
 31 69  1  0  0  0  0
 31 75  2  0  0  0  0
 32 46  1  0  0  0  0
 32 71  1  0  0  0  0
 32 76  2  0  0  0  0
 33 57  1  0  0  0  0
 33 66  1  0  0  0  0
 33 77  2  0  0  0  0
 34 58  1  0  0  0  0
 34 72  1  0  0  0  0
 34 78  2  0  0  0  0
 35 67  1  0  0  0  0
 35 73  1  0  0  0  0
 35 79  2  0  0  0  0
 36 39  1  0  0  0  0
 37 46  1  0  0  0  0
 38 66  1  0  0  0  0
 39 41  1  0  0  0  0
 40 42  1  0  0  0  0
 40 43  1  0  0  0  0
 41 45  1  0  0  0  0
 42 47  1  0  0  0  0
 43 67  1  0  0  0  0
 44 47  1  0  0  0  0
 44 67  1  0  0  0  0
 45 71  1  0  0  0  0
 46 66  1  0  0  0  0
 47 65  1  0  0  0  0
 48 58  1  0  0  0  0
 49 59  1  0  0  0  0
 50 59  1  0  0  0  0
 51 62  1  0  0  0  0
 52 62  1  0  0  0  0
 53 62  1  0  0  0  0
 54 74  1  0  0  0  0
 55 73  1  0  0  0  0
 56 60  1  0  0  0  0
 56 61  1  0  0  0  0
 57 62  1  0  0  0  0
 57 72  1  0  0  0  0
 58 74  1  0  0  0  0
 59 60  1  0  0  0  0
 60 81  1  0  0  0  0
 61 70  1  0  0  0  0
 61 84  1  0  0  0  0
 63 65  1  0  0  0  0
M  CHG  1  74   1
M  ISO  4  35 100  60 101  73 100  81 101
M  END
> <Batch ID>
0193

> <Smiles>
CNC(C)C(=O)NC(C(=O)N1Cc2cc([101O:1][101CH:1](CC(F)Nc3nc(C[100NH:0][100C:0](=O)N4CCCC(n5nc(-c6ccc(Oc7ccc(F)cc7F)cc6)c(C(N)=O)c5N)C4)cs3)C(C)C)ccc2CC1C(=O)NC1CCCc2ccccc21)C(C)(C)C

> <Shape>
0.223

> <Color>
0.073

> <Negative vol penalty>
0.000

$$$$

  -OEChem-04052305303D

 83 91  0     1  0  0  0  0  0999 V2000
  -18.1911  -32.5426   21.7932 C   0  0  0  0  0  0  0  0  0  0  0  0
  -19.5201  -32.5397   21.3819 C   0  0  0  0  0  0  0  0  0  0  0  0
  -26.4277  -13.0566   21.6660 C   0  0  0  0  0  0  0  0  0  0  0  0
  -25.9725  -14.0802   19.5254 C   0  0  0  0  0  0  0  0  0  0  0  0
  -17.7602  -31.6367   22.7615 C   0  0  0  0  0  0  0  0  0  0  0  0
  -20.4193  -31.6315   21.9396 C   0  0  0  0  0  0  0  0  0  0  0  0
  -25.1229  -28.9050   19.1202 C   0  0  0  0  0  0  0  0  0  0  0  0
  -25.1589  -12.4772   21.6588 C   0  0  0  0  0  0  0  0  0  0  0  0
  -24.7036  -13.5008   19.5182 C   0  0  0  0  0  0  0  0  0  0  0  0
  -26.4885  -29.1843   19.0908 C   0  0  0  0  0  0  0  0  0  0  0  0
  -23.6387   -9.8275   20.2093 C   0  0  0  0  0  0  0  0  0  0  0  0
  -23.5372   -8.4847   20.5727 C   0  0  0  0  0  0  0  0  0  0  0  0
  -29.7784  -23.6629   16.9565 C   0  0  0  0  0  0  0  0  0  0  0  0
  -26.8490  -27.5770   20.8531 C   0  0  0  0  0  0  0  0  0  0  0  0
  -22.0735   -9.0891   22.3974 C   0  0  0  0  0  0  0  0  0  0  0  0
  -29.2223  -22.4265   16.6986 C   0  0  0  0  0  0  0  0  0  0  0  0
  -26.8345  -13.8582   20.5993 C   0  0  0  0  0  0  0  0  0  0  0  0
  -29.3337  -13.9078   20.0905 C   0  0  0  0  0  0  0  0  0  0  0  0
  -18.6524  -30.7105   23.3243 C   0  0  0  0  0  0  0  0  0  0  0  0
  -24.6077  -27.9659   20.0252 C   0  0  0  0  0  0  0  0  0  0  0  0
  -20.0003  -30.7132   22.9173 C   0  0  0  0  0  0  0  0  0  0  0  0
  -25.4768  -27.2857   20.8902 C   0  0  0  0  0  0  0  0  0  0  0  0
  -24.2969  -12.6993   20.5849 C   0  0  0  0  0  0  0  0  0  0  0  0
  -27.3514  -28.5224   19.9594 C   0  0  0  0  0  0  0  0  0  0  0  0
  -22.9577  -10.8012   20.9399 C   0  0  0  0  0  0  0  0  0  0  0  0
  -22.7546   -8.1155   21.6667 C   0  0  0  0  0  0  0  0  0  0  0  0
  -22.1750  -10.4320   22.0339 C   0  0  0  0  0  0  0  0  0  0  0  0
  -28.1448  -14.4574   20.6064 C   0  0  0  0  0  0  0  0  0  0  0  0
  -30.2671  -23.8429   18.2344 C   0  0  0  0  0  0  0  0  0  0  0  0
  -30.2901  -14.8610   20.3420 C   0  0  0  0  0  0  0  0  0  0  0  0
  -29.6555  -21.7333   18.8197 C   0  0  0  0  0  0  0  0  0  0  0  0
  -29.5540  -12.6483   19.4419 C   0  0  0  0  0  0  0  0  0  0  0  0
  -22.5442  -28.0761   22.4405 C   0  0  0  0  0  0  0  0  0  0  0  0
  -22.9501  -24.8578   22.4232 C   0  0  0  0  0  0  0  0  0  0  0  0
  -24.9193  -22.1904   21.6147 C   0  0  0  0  0  0  0  0  0  0  0  0
  -30.0480  -20.7808   21.1186 C   0  0  0  0  0  0  0  0  0  0  0  0
  -18.1511  -29.7822   24.4020 C   0  0  0  0  0  0  0  0  0  0  0  0
  -23.1358  -27.6565   20.0260 C   0  0  0  0  0  0  0  0  0  0  0  0
  -24.9767  -26.2539   21.8668 C   0  0  0  0  0  0  0  0  0  0  0  0
  -19.0820  -28.6028   24.6716 C   0  0  0  0  0  0  0  0  0  0  0  0
  -31.3502  -18.3844   23.4074 C   0  0  0  0  0  0  0  0  0  0  0  0
  -20.5267  -29.0785   24.7872 C   0  0  0  0  0  0  0  0  0  0  0  0
  -30.7891  -17.0546   22.8984 C   0  0  0  0  0  0  0  0  0  0  0  0
  -30.3466  -19.5241   23.2415 C   0  0  0  0  0  0  0  0  0  0  0  0
  -29.2432  -18.3516   21.3768 C   0  0  0  0  0  0  0  0  0  0  0  0
  -21.0002  -29.7269   23.4807 C   0  0  1  0  0  0  0  0  0  0  0  0
  -22.6521  -27.0562   21.3424 C   0  0  1  0  0  0  0  0  0  0  0  0
  -30.2422  -17.1862   21.4634 C   0  0  2  0  0  0  0  0  0  0  0  0
  -25.0006  -19.6864   21.7590 C   0  0  0  0  0  0  0  0  0  0  0  0
  -23.6313  -25.0534   25.3909 C   0  0  0  0  0  0  0  0  0  0  0  0
  -24.6045  -22.7511   25.2479 C   0  0  0  0  0  0  0  0  0  0  0  0
  -22.1808  -23.1101   24.7794 C   0  0  0  0  0  0  0  0  0  0  0  0
  -25.0287  -21.9084   18.6706 C   0  0  0  0  0  0  0  0  0  0  0  0
  -30.8892  -27.9299   19.5610 C   0  0  0  0  0  0  0  0  0  0  0  0
  -31.3861  -25.4052   19.8259 C   0  0  0  0  0  0  0  0  0  0  0  0
  -29.5701  -27.7342   20.2936 C   0  0  0  0  0  0  0  0  0  1  0  0
  -23.8979  -23.8962   23.0984 C   0  0  1  0  0  0  0  0  0  0  0  0
  -24.6052  -20.8837   20.9088 C   0  0  2  0  0  0  0  0  0  0  0  0
  -31.9241  -26.8368   19.8472 C   0  0  1  0  0  0  0  0  0  0  0  0
  -23.5881  -23.7235   24.6122 C   0  0  0  0  0  0  0  0  0  0  0  0
  -29.1441  -21.4349   17.6102 N   0  0  0  0  0  0  0  0  0  0  0  0
  -28.3267  -15.6660   21.1451 N   0  0  0  0  0  0  0  0  0  0  0  0
  -30.2217  -22.8962   19.1946 N   0  0  0  0  0  0  0  0  0  0  0  0
  -29.6411  -15.8837   20.9692 N   0  0  0  0  0  0  0  0  0  0  0  0
  -23.5285  -25.9909   21.8337 N   0  0  0  0  0  0  0  0  0  0  0  0
  -29.8753  -19.5906   21.8564 N   0  0  0  0  0  0  0  0  0  0  0  0
  -31.6143  -14.9158   20.0858 N   0  0  0  0  0  0  0  0  0  0  0  0
  -28.4616  -11.7884   19.2638 N   0  0  0  0  0  0  0  0  0  0  0  0
  -30.8337  -25.0709   18.5331 N   0  0  0  0  0  0  0  0  0  0  0  0
  -29.5905  -20.7151   19.8030 N   0  0  0  0  0  0  0  0  0  0  0  0
  -21.3188  -28.7120   22.4993 N   0  0  0  0  0  0  0  0  0  0  0  0
  -23.8374  -22.6569   22.3309 N   0  0  0  0  0  0  0  0  0  0  0  0
  -25.3400  -20.8044   19.6147 N   0  3  0  0  0  0  0  0  0  0  0  0
  -30.6890  -12.2888   19.0470 O   0  0  0  0  0  0  0  0  0  0  0  0
  -23.5014  -28.2706   23.1806 O   0  0  0  0  0  0  0  0  0  0  0  0
  -21.7419  -24.6091   22.4127 O   0  0  0  0  0  0  0  0  0  0  0  0
  -26.0161  -22.7402   21.5413 O   0  0  0  0  0  0  0  0  0  0  0  0
  -30.5886  -21.7756   21.6088 O   0  0  0  0  0  0  0  0  0  0  0  0
  -32.9788  -26.9325   18.8879 O   0  0  0  0  0  0  0  0  0  0  0  0
  -23.0588  -12.1339   20.5774 O   0  0  0  0  0  0  0  0  0  0  0  0
  -28.6847  -28.7936   19.9333 O   0  0  0  0  0  0  0  0  0  1  0  0
  -22.6560   -6.8258   22.0147 F   0  0  0  0  0  0  0  0  0  0  0  0
  -21.5175  -11.3628   22.7390 F   0  0  0  0  0  0  0  0  0  0  0  0
  1  2  1  0  0  0  0
  1  5  2  0  0  0  0
  2  6  2  0  0  0  0
  3  8  2  0  0  0  0
  3 17  1  0  0  0  0
  4  9  1  0  0  0  0
  4 17  2  0  0  0  0
  5 19  1  0  0  0  0
  6 21  1  0  0  0  0
  7 10  2  0  0  0  0
  7 20  1  0  0  0  0
  8 23  1  0  0  0  0
  9 23  2  0  0  0  0
 10 24  1  0  0  0  0
 11 12  2  0  0  0  0
 11 25  1  0  0  0  0
 12 26  1  0  0  0  0
 13 16  2  0  0  0  0
 13 29  1  0  0  0  0
 14 22  1  0  0  0  0
 14 24  2  0  0  0  0
 15 26  2  0  0  0  0
 15 27  1  0  0  0  0
 16 61  1  0  0  0  0
 17 28  1  0  0  0  0
 18 28  1  0  0  0  0
 18 30  2  0  0  0  0
 18 32  1  0  0  0  0
 19 21  2  0  0  0  0
 19 37  1  0  0  0  0
 20 22  2  0  0  0  0
 20 38  1  0  0  0  0
 21 46  1  0  0  0  0
 22 39  1  0  0  0  0
 23 80  1  0  0  0  0
 24 81  1  0  0  0  0
 25 27  2  0  0  0  0
 25 80  1  0  0  0  0
 26 82  1  0  0  0  0
 27 83  1  0  0  0  0
 28 62  2  0  0  0  0
 29 63  2  0  0  0  0
 29 69  1  0  0  0  0
 30 64  1  0  0  0  0
 30 67  1  0  0  0  0
 31 61  2  0  0  0  0
 31 63  1  0  0  0  0
 31 70  1  0  0  0  0
 32 68  1  0  0  0  0
 32 74  2  0  0  0  0
 33 47  1  0  0  0  0
 33 71  1  0  0  0  0
 33 75  2  0  0  0  0
 34 57  1  0  0  0  0
 34 65  1  0  0  0  0
 34 76  2  0  0  0  0
 35 58  1  0  0  0  0
 35 72  1  0  0  0  0
 35 77  2  0  0  0  0
 36 66  1  0  0  0  0
 36 70  1  0  0  0  0
 36 78  2  0  0  0  0
 37 40  1  0  0  0  0
 38 47  1  0  0  0  0
 39 65  1  0  0  0  0
 40 42  1  0  0  0  0
 41 43  1  0  0  0  0
 41 44  1  0  0  0  0
 42 46  1  0  0  0  0
 43 48  1  0  0  0  0
 44 66  1  0  0  0  0
 45 48  1  0  0  0  0
 45 66  1  0  0  0  0
 46 71  1  0  0  0  0
 47 65  1  0  0  0  0
 48 64  1  0  0  0  0
 49 58  1  0  0  0  0
 50 60  1  0  0  0  0
 51 60  1  0  0  0  0
 52 60  1  0  0  0  0
 53 73  1  0  0  0  0
 54 56  1  0  0  0  0
 54 59  1  0  0  0  0
 55 59  1  0  0  0  0
 55 69  1  0  0  0  0
 56 81  1  0  0  0  0
 57 60  1  0  0  0  0
 57 72  1  0  0  0  0
 58 73  1  0  0  0  0
 59 79  1  0  0  0  0
 62 64  1  0  0  0  0
M  CHG  1  73   1
M  ISO  4  36 100  56 101  70 100  81 101
M  END
> <Batch ID>
0193

> <Smiles>
CNC(C)C(=O)NC(C(=O)N1Cc2cc([101O:1][101CH2:1]CC(O)CNc3ccnc([100NH:0][100C:0](=O)N4CCCC(n5nc(-c6ccc(Oc7ccc(F)cc7F)cc6)c(C(N)=O)c5N)C4)n3)ccc2CC1C(=O)NC1CCCc2ccccc21)C(C)(C)C

> <Shape>
0.282

> <Color>
0.092

> <Negative vol penalty>
0.000

$$$$

  -OEChem-04052305303D

 84 92  0     1  0  0  0  0  0999 V2000
  -19.1120  -32.5855   23.8489 C   0  0  0  0  0  0  0  0  0  0  0  0
  -20.4437  -32.4919   23.4571 C   0  0  0  0  0  0  0  0  0  0  0  0
  -24.4507   -9.0835   21.2178 C   0  0  0  0  0  0  0  0  0  0  0  0
  -22.6198  -10.6559   21.1061 C   0  0  0  0  0  0  0  0  0  0  0  0
  -18.4231  -31.4422   24.2515 C   0  0  0  0  0  0  0  0  0  0  0  0
  -21.0874  -31.2550   23.4688 C   0  0  0  0  0  0  0  0  0  0  0  0
  -25.3687  -29.2959   19.5525 C   0  0  0  0  0  0  0  0  0  0  0  0
  -27.4135  -20.6061   19.6992 C   0  0  0  0  0  0  0  0  0  0  0  0
  -23.5412   -8.0332   21.3416 C   0  0  0  0  0  0  0  0  0  0  0  0
  -21.7102   -9.6056   21.2299 C   0  0  0  0  0  0  0  0  0  0  0  0
  -26.7598  -29.2461   19.6313 C   0  0  0  0  0  0  0  0  0  0  0  0
  -21.7081   -4.9732   22.0487 C   0  0  0  0  0  0  0  0  0  0  0  0
  -21.9662   -4.0003   23.0143 C   0  0  0  0  0  0  0  0  0  0  0  0
  -27.0696  -19.3817   20.2615 C   0  0  0  0  0  0  0  0  0  0  0  0
  -26.6306  -26.9489   20.3559 C   0  0  0  0  0  0  0  0  0  0  0  0
  -21.8881   -5.6908   24.7386 C   0  0  0  0  0  0  0  0  0  0  0  0
  -28.4744  -21.1893   21.7464 C   0  0  0  0  0  0  0  0  0  0  0  0
  -23.9900  -10.3948   21.1001 C   0  0  0  0  0  0  0  0  0  0  0  0
  -25.4577  -12.0115   19.7810 C   0  0  0  0  0  0  0  0  0  0  0  0
  -19.0559  -30.1891   24.2589 C   0  0  0  0  0  0  0  0  0  0  0  0
  -24.5964  -28.1739   19.8858 C   0  0  0  0  0  0  0  0  0  0  0  0
  -20.4067  -30.0941   23.8732 C   0  0  0  0  0  0  0  0  0  0  0  0
  -25.2300  -26.9862   20.2781 C   0  0  0  0  0  0  0  0  0  0  0  0
  -28.1293  -21.5326   20.4492 C   0  0  0  0  0  0  0  0  0  0  0  0
  -22.1710   -8.2943   21.3477 C   0  0  0  0  0  0  0  0  0  0  0  0
  -27.3908  -28.0734   20.0358 C   0  0  0  0  0  0  0  0  0  0  0  0
  -21.5401   -6.3050   22.4280 C   0  0  0  0  0  0  0  0  0  0  0  0
  -22.0561   -4.3591   24.3592 C   0  0  0  0  0  0  0  0  0  0  0  0
  -21.6301   -6.6638   23.7729 C   0  0  0  0  0  0  0  0  0  0  0  0
  -24.9290  -11.4802   20.9727 C   0  0  0  0  0  0  0  0  0  0  0  0
  -27.4624  -19.1346   21.5670 C   0  0  0  0  0  0  0  0  0  0  0  0
  -26.2955  -13.0178   20.1957 C   0  0  0  0  0  0  0  0  0  0  0  0
  -25.2133  -11.6296   18.4208 C   0  0  0  0  0  0  0  0  0  0  0  0
  -22.3943  -27.5409   22.0890 C   0  0  0  0  0  0  0  0  0  0  0  0
  -29.4475  -24.9781   19.7539 C   0  0  0  0  0  0  0  0  0  0  0  0
  -22.1387  -24.7421   20.4692 C   0  0  0  0  0  0  0  0  0  0  0  0
  -23.5888  -22.4515   18.3963 C   0  0  0  0  0  0  0  0  0  0  0  0
  -27.3929  -17.4253   23.4163 C   0  0  0  0  0  0  0  0  0  0  0  0
  -18.2840  -28.9889   24.7472 C   0  0  0  0  0  0  0  0  0  0  0  0
  -23.0980  -28.2356   19.7699 C   0  0  0  0  0  0  0  0  0  0  0  0
  -24.4472  -25.7477   20.6273 C   0  0  0  0  0  0  0  0  0  0  0  0
  -18.9289  -27.6567   24.3736 C   0  0  0  0  0  0  0  0  0  0  0  0
  -27.9806  -14.2058   24.8186 C   0  0  0  0  0  0  0  0  0  0  0  0
  -20.4243  -27.6848   24.6736 C   0  0  0  0  0  0  0  0  0  0  0  0
  -27.2826  -13.2534   23.8450 C   0  0  0  0  0  0  0  0  0  0  0  0
  -27.2051  -15.5108   24.9894 C   0  0  0  0  0  0  0  0  0  0  0  0
  -26.1784  -15.2536   22.7648 C   0  0  0  0  0  0  0  0  0  0  0  0
  -21.1323  -28.7663   23.8487 C   0  0  1  0  0  0  0  0  0  0  0  0
  -22.3889  -27.1920   20.6276 C   0  0  1  0  0  0  0  0  0  0  0  0
  -26.9556  -13.9517   22.5104 C   0  0  2  0  0  0  0  0  0  0  0  0
  -23.1473  -20.2484   17.2789 C   0  0  0  0  0  0  0  0  0  0  0  0
  -30.0952  -27.9985   22.0747 C   0  0  0  0  0  0  0  0  0  0  0  0
  -22.5823  -23.3085   23.1258 C   0  0  0  0  0  0  0  0  0  0  0  0
  -23.0768  -21.2201   21.8366 C   0  0  0  0  0  0  0  0  0  0  0  0
  -20.8270  -22.2845   21.6682 C   0  0  0  0  0  0  0  0  0  0  0  0
  -23.8966  -23.6269   15.6977 C   0  0  0  0  0  0  0  0  0  0  0  0
  -30.2171  -26.1238   20.4001 C   0  0  0  0  0  0  0  0  0  0  0  0
  -29.2271  -23.7655   20.6355 C   0  0  0  0  0  0  0  0  0  0  0  0
  -22.8086  -23.3920   20.5553 C   0  0  1  0  0  0  0  0  0  0  0  0
  -23.0792  -21.7616   17.1438 C   0  0  2  0  0  0  0  0  0  0  0  0
  -29.3102  -27.1444   21.0890 C   0  0  2  0  0  0  0  0  0  1  0  0
  -22.3386  -22.5750   21.7918 C   0  0  0  0  0  0  0  0  0  0  0  0
  -28.1583  -20.0099   22.3267 N   0  0  0  0  0  0  0  0  0  0  0  0
  -25.3923  -12.0978   22.0626 N   0  0  0  0  0  0  0  0  0  0  0  0
  -26.2209  -13.0275   21.5575 N   0  0  0  0  0  0  0  0  0  0  0  0
  -22.9844  -25.8599   20.5044 N   0  0  0  0  0  0  0  0  0  0  0  0
  -26.9351  -16.1178   23.6842 N   0  0  0  0  0  0  0  0  0  0  0  0
  -27.0815  -13.8863   19.5246 N   0  0  0  0  0  0  0  0  0  0  0  0
  -24.3239  -10.5752   18.1724 N   0  0  0  0  0  0  0  0  0  0  0  0
  -28.4870  -22.7619   19.9142 N   0  0  0  0  0  0  0  0  0  0  0  0
  -27.1059  -17.8847   22.1313 N   0  0  0  0  0  0  0  0  0  0  0  0
  -21.3231  -28.3184   22.4858 N   0  0  0  0  0  0  0  0  0  0  0  0
  -22.5655  -22.7334   19.2764 N   0  0  0  0  0  0  0  0  0  0  0  0
  -23.8933  -22.1651   15.9625 N   0  3  0  0  0  0  0  0  0  0  0  0
  -25.7797  -12.1954   17.4551 O   0  0  0  0  0  0  0  0  0  0  0  0
  -23.3024  -27.1336   22.8041 O   0  0  0  0  0  0  0  0  0  0  0  0
  -29.0362  -25.0349   18.5958 O   0  0  0  0  0  0  0  0  0  0  0  0
  -20.9109  -24.8026   20.3671 O   0  0  0  0  0  0  0  0  0  0  0  0
  -24.7765  -22.7107   18.5777 O   0  0  0  0  0  0  0  0  0  0  0  0
  -28.0190  -18.0783   24.2551 O   0  0  0  0  0  0  0  0  0  0  0  0
  -21.2832   -7.2697   21.4683 O   0  0  0  0  0  0  0  0  0  0  0  0
  -28.7484  -28.0224   20.1143 O   0  0  0  0  0  0  0  0  0  1  0  0
  -22.3024   -3.4244   25.2865 F   0  0  0  0  0  0  0  0  0  0  0  0
  -21.4684   -7.9414   24.1436 F   0  0  0  0  0  0  0  0  0  0  0  0
  1  2  1  0  0  0  0
  1  5  2  0  0  0  0
  2  6  2  0  0  0  0
  3  9  2  0  0  0  0
  3 18  1  0  0  0  0
  4 10  1  0  0  0  0
  4 18  2  0  0  0  0
  5 20  1  0  0  0  0
  6 22  1  0  0  0  0
  7 11  2  0  0  0  0
  7 21  1  0  0  0  0
  8 14  2  0  0  0  0
  8 24  1  0  0  0  0
  9 25  1  0  0  0  0
 10 25  2  0  0  0  0
 11 26  1  0  0  0  0
 12 13  2  0  0  0  0
 12 27  1  0  0  0  0
 13 28  1  0  0  0  0
 14 31  1  0  0  0  0
 15 23  1  0  0  0  0
 15 26  2  0  0  0  0
 16 28  2  0  0  0  0
 16 29  1  0  0  0  0
 17 24  2  0  0  0  0
 17 63  1  0  0  0  0
 18 30  1  0  0  0  0
 19 30  1  0  0  0  0
 19 32  2  0  0  0  0
 19 33  1  0  0  0  0
 20 22  2  0  0  0  0
 20 39  1  0  0  0  0
 21 23  2  0  0  0  0
 21 40  1  0  0  0  0
 22 48  1  0  0  0  0
 23 41  1  0  0  0  0
 24 70  1  0  0  0  0
 25 81  1  0  0  0  0
 26 82  1  0  0  0  0
 27 29  2  0  0  0  0
 27 81  1  0  0  0  0
 28 83  1  0  0  0  0
 29 84  1  0  0  0  0
 30 64  2  0  0  0  0
 31 63  2  0  0  0  0
 31 71  1  0  0  0  0
 32 65  1  0  0  0  0
 32 68  1  0  0  0  0
 33 69  1  0  0  0  0
 33 75  2  0  0  0  0
 34 49  1  0  0  0  0
 34 72  1  0  0  0  0
 34 76  2  0  0  0  0
 35 57  1  0  0  0  0
 35 58  1  0  0  0  0
 35 77  2  0  0  0  0
 36 59  1  0  0  0  0
 36 66  1  0  0  0  0
 36 78  2  0  0  0  0
 37 60  1  0  0  0  0
 37 73  1  0  0  0  0
 37 79  2  0  0  0  0
 38 67  1  0  0  0  0
 38 71  1  0  0  0  0
 38 80  2  0  0  0  0
 39 42  1  0  0  0  0
 40 49  1  0  0  0  0
 41 66  1  0  0  0  0
 42 44  1  0  0  0  0
 43 45  1  0  0  0  0
 43 46  1  0  0  0  0
 44 48  1  0  0  0  0
 45 50  1  0  0  0  0
 46 67  1  0  0  0  0
 47 50  1  0  0  0  0
 47 67  1  0  0  0  0
 48 72  1  0  0  0  0
 49 66  1  0  0  0  0
 50 65  1  0  0  0  0
 51 60  1  0  0  0  0
 52 61  1  0  0  0  0
 53 62  1  0  0  0  0
 54 62  1  0  0  0  0
 55 62  1  0  0  0  0
 56 74  1  0  0  0  0
 57 61  1  0  0  0  0
 58 70  1  0  0  0  0
 59 62  1  0  0  0  0
 59 73  1  0  0  0  0
 60 74  1  0  0  0  0
 61 82  1  0  0  0  0
 64 65  1  0  0  0  0
M  CHG  1  74   1
M  ISO  4  38 100  61 101  71 100  82 101
M  END
> <Batch ID>
0193

> <Smiles>
CNC(C)C(=O)NC(C(=O)N1Cc2cc([101O:1][101CH:1](C)CC(=O)CNc3ccc([100NH:0][100C:0](=O)N4CCCC(n5nc(-c6ccc(Oc7ccc(F)cc7F)cc6)c(C(N)=O)c5N)C4)nc3)ccc2CC1C(=O)NC1CCCc2ccccc21)C(C)(C)C

> <Shape>
0.251

> <Color>
0.097

> <Negative vol penalty>
0.000

$$$$

  -OEChem-04052305303D

 85 93  0     1  0  0  0  0  0999 V2000
  -32.4701  -25.5768   23.6527 C   0  0  0  0  0  0  0  0  0  0  0  0
  -31.8169  -25.7020   22.4308 C   0  0  0  0  0  0  0  0  0  0  0  0
  -26.2701  -12.9496   21.6228 C   0  0  0  0  0  0  0  0  0  0  0  0
  -25.7807  -13.7758   19.4058 C   0  0  0  0  0  0  0  0  0  0  0  0
  -31.7374  -25.3174   24.8101 C   0  0  0  0  0  0  0  0  0  0  0  0
  -30.4306  -25.5667   22.3654 C   0  0  0  0  0  0  0  0  0  0  0  0
  -28.2624  -29.1412   19.5078 C   0  0  0  0  0  0  0  0  0  0  0  0
  -25.0568  -12.2617   21.6343 C   0  0  0  0  0  0  0  0  0  0  0  0
  -24.5674  -13.0879   19.4173 C   0  0  0  0  0  0  0  0  0  0  0  0
  -28.3358  -28.9821   18.1246 C   0  0  0  0  0  0  0  0  0  0  0  0
  -22.2523   -9.9966   22.1026 C   0  0  0  0  0  0  0  0  0  0  0  0
  -22.2575   -8.6802   22.5637 C   0  0  0  0  0  0  0  0  0  0  0  0
  -26.0812  -28.1244   18.1096 C   0  0  0  0  0  0  0  0  0  0  0  0
  -23.8123   -8.0744   20.8165 C   0  0  0  0  0  0  0  0  0  0  0  0
  -29.2459  -23.7633   17.4910 C   0  0  0  0  0  0  0  0  0  0  0  0
  -26.6321  -13.7067   20.5085 C   0  0  0  0  0  0  0  0  0  0  0  0
  -29.1294  -13.9402   20.0433 C   0  0  0  0  0  0  0  0  0  0  0  0
  -30.3404  -25.1884   24.7605 C   0  0  0  0  0  0  0  0  0  0  0  0
  -27.0997  -28.7823   20.2048 C   0  0  0  0  0  0  0  0  0  0  0  0
  -29.6787  -25.3039   23.5231 C   0  0  0  0  0  0  0  0  0  0  0  0
  -25.9946  -28.2824   19.5013 C   0  0  0  0  0  0  0  0  0  0  0  0
  -28.8062  -23.4515   16.2207 C   0  0  0  0  0  0  0  0  0  0  0  0
  -24.2054  -12.3308   20.5316 C   0  0  0  0  0  0  0  0  0  0  0  0
  -27.2462  -28.4709   17.4257 C   0  0  0  0  0  0  0  0  0  0  0  0
  -23.0270  -10.3520   20.9984 C   0  0  0  0  0  0  0  0  0  0  0  0
  -23.0375   -7.7191   21.9207 C   0  0  0  0  0  0  0  0  0  0  0  0
  -23.8071   -9.3909   20.3554 C   0  0  0  0  0  0  0  0  0  0  0  0
  -27.8851  -14.4180   20.4963 C   0  0  0  0  0  0  0  0  0  0  0  0
  -28.3655  -22.1560   16.0426 C   0  0  0  0  0  0  0  0  0  0  0  0
  -29.9933  -14.9892   20.2426 C   0  0  0  0  0  0  0  0  0  0  0  0
  -28.8043  -21.6546   18.2159 C   0  0  0  0  0  0  0  0  0  0  0  0
  -29.4737  -12.6624   19.4916 C   0  0  0  0  0  0  0  0  0  0  0  0
  -26.4087  -26.6702   22.4774 C   0  0  0  0  0  0  0  0  0  0  0  0
  -23.5101  -28.1247   22.4049 C   0  0  0  0  0  0  0  0  0  0  0  0
  -21.2363  -29.9672   20.6494 C   0  0  0  0  0  0  0  0  0  0  0  0
  -29.2212  -20.9047   20.5845 C   0  0  0  0  0  0  0  0  0  0  0  0
  -29.5960  -24.8611   26.0307 C   0  0  0  0  0  0  0  0  0  0  0  0
  -27.0268  -28.9852   21.6934 C   0  0  0  0  0  0  0  0  0  0  0  0
  -24.7160  -27.9010   20.2001 C   0  0  0  0  0  0  0  0  0  0  0  0
  -28.0919  -25.1036   25.9349 C   0  0  0  0  0  0  0  0  0  0  0  0
  -30.6692  -18.7994   23.0641 C   0  0  0  0  0  0  0  0  0  0  0  0
  -27.5382  -24.5183   24.6397 C   0  0  0  0  0  0  0  0  0  0  0  0
  -30.2379  -17.3929   22.6423 C   0  0  0  0  0  0  0  0  0  0  0  0
  -29.5751  -19.8318   22.7978 C   0  0  0  0  0  0  0  0  0  0  0  0
  -28.6233  -18.4383   21.0030 C   0  0  0  0  0  0  0  0  0  0  0  0
  -28.1736  -25.1883   23.4155 C   0  0  1  0  0  0  0  0  0  0  0  0
  -25.9774  -28.1052   22.3656 C   0  0  1  0  0  0  0  0  0  0  0  0
  -29.7170  -17.3744   21.1918 C   0  0  2  0  0  0  0  0  0  0  0  0
  -18.9433  -30.9685   20.8408 C   0  0  0  0  0  0  0  0  0  0  0  0
  -30.8036  -25.7584   15.3931 C   0  0  0  0  0  0  0  0  0  0  0  0
  -22.2740  -25.3635   22.0078 C   0  0  0  0  0  0  0  0  0  0  0  0
  -20.1648  -26.4910   21.2671 C   0  0  0  0  0  0  0  0  0  0  0  0
  -21.0224  -26.8502   23.5819 C   0  0  0  0  0  0  0  0  0  0  0  0
  -22.2772  -32.7123   20.2753 C   0  0  0  0  0  0  0  0  0  0  0  0
  -28.7330  -26.6543   14.2725 C   0  0  0  0  0  0  0  0  0  0  0  0
  -26.5458  -27.2568   15.5044 C   0  0  0  0  0  0  0  0  0  1  0  0
  -22.2291  -27.9177   21.6334 C   0  0  1  0  0  0  0  0  0  0  0  0
  -20.4350  -31.2009   21.0239 C   0  0  2  0  0  0  0  0  0  0  0  0
  -29.2777  -25.7569   15.3910 C   0  0  1  0  0  0  0  0  0  0  0  0
  -27.2000  -26.7578   14.2181 C   0  0  1  0  0  0  0  0  0  0  0  0
  -21.4472  -26.6609   22.1093 C   0  0  0  0  0  0  0  0  0  0  0  0
  -29.2589  -22.8861   18.5161 N   0  0  0  0  0  0  0  0  0  0  0  0
  -27.9485  -15.6728   20.9494 N   0  0  0  0  0  0  0  0  0  0  0  0
  -28.3508  -21.2279   17.0218 N   0  0  0  0  0  0  0  0  0  0  0  0
  -29.2432  -15.9924   20.7822 N   0  0  0  0  0  0  0  0  0  0  0  0
  -24.6960  -28.1120   21.6570 N   0  0  0  0  0  0  0  0  0  0  0  0
  -29.1340  -19.7588   21.4032 N   0  0  0  0  0  0  0  0  0  0  0  0
  -27.9004  -21.7722   14.7599 N   0  0  0  0  0  0  0  0  0  0  0  0
  -31.3138  -15.1422   20.0073 N   0  0  0  0  0  0  0  0  0  0  0  0
  -28.4645  -11.6993   19.3562 N   0  0  0  0  0  0  0  0  0  0  0  0
  -28.8167  -24.3966   15.2102 N   0  0  0  0  0  0  0  0  0  0  0  0
  -28.8034  -20.7064   19.2689 N   0  0  0  0  0  0  0  0  0  0  0  0
  -27.5808  -26.4885   23.1864 N   0  0  0  0  0  0  0  0  0  0  0  0
  -21.4801  -29.1648   21.7439 N   0  0  0  0  0  0  0  0  0  0  0  0
  -20.8381  -32.3577   20.1753 N   0  3  0  0  0  0  0  0  0  0  0  0
  -30.6449  -12.3773   19.1445 O   0  0  0  0  0  0  0  0  0  0  0  0
  -25.7276  -25.7926   21.9601 O   0  0  0  0  0  0  0  0  0  0  0  0
  -23.4599  -28.2986   23.6251 O   0  0  0  0  0  0  0  0  0  0  0  0
  -21.6057  -29.7364   19.5001 O   0  0  0  0  0  0  0  0  0  0  0  0
  -29.6614  -21.9752   21.0112 O   0  0  0  0  0  0  0  0  0  0  0  0
  -26.8496  -27.6700   13.1737 O   0  0  0  0  0  0  0  0  0  0  0  0
  -23.0214  -11.6595   20.5424 O   0  0  0  0  0  0  0  0  0  0  0  0
  -27.3155  -28.3139   16.0757 O   0  0  0  0  0  0  0  0  0  1  0  0
  -23.0436   -6.4553   22.3645 F   0  0  0  0  0  0  0  0  0  0  0  0
  -24.5544   -9.7265   19.2949 F   0  0  0  0  0  0  0  0  0  0  0  0
  1  2  1  0  0  0  0
  1  5  2  0  0  0  0
  2  6  2  0  0  0  0
  3  8  2  0  0  0  0
  3 16  1  0  0  0  0
  4  9  1  0  0  0  0
  4 16  2  0  0  0  0
  5 18  1  0  0  0  0
  6 20  1  0  0  0  0
  7 10  2  0  0  0  0
  7 19  1  0  0  0  0
  8 23  1  0  0  0  0
  9 23  2  0  0  0  0
 10 24  1  0  0  0  0
 11 12  2  0  0  0  0
 11 25  1  0  0  0  0
 12 26  1  0  0  0  0
 13 21  1  0  0  0  0
 13 24  2  0  0  0  0
 14 26  2  0  0  0  0
 14 27  1  0  0  0  0
 15 22  1  0  0  0  0
 15 62  2  0  0  0  0
 16 28  1  0  0  0  0
 17 28  1  0  0  0  0
 17 30  2  0  0  0  0
 17 32  1  0  0  0  0
 18 20  2  0  0  0  0
 18 37  1  0  0  0  0
 19 21  2  0  0  0  0
 19 38  1  0  0  0  0
 20 46  1  0  0  0  0
 21 39  1  0  0  0  0
 22 29  2  0  0  0  0
 22 71  1  0  0  0  0
 23 82  1  0  0  0  0
 24 83  1  0  0  0  0
 25 27  2  0  0  0  0
 25 82  1  0  0  0  0
 26 84  1  0  0  0  0
 27 85  1  0  0  0  0
 28 63  2  0  0  0  0
 29 64  1  0  0  0  0
 29 68  1  0  0  0  0
 30 65  1  0  0  0  0
 30 69  1  0  0  0  0
 31 62  1  0  0  0  0
 31 64  2  0  0  0  0
 31 72  1  0  0  0  0
 32 70  1  0  0  0  0
 32 76  2  0  0  0  0
 33 47  1  0  0  0  0
 33 73  1  0  0  0  0
 33 77  2  0  0  0  0
 34 57  1  0  0  0  0
 34 66  1  0  0  0  0
 34 78  2  0  0  0  0
 35 58  1  0  0  0  0
 35 74  1  0  0  0  0
 35 79  2  0  0  0  0
 36 67  1  0  0  0  0
 36 72  1  0  0  0  0
 36 80  2  0  0  0  0
 37 40  1  0  0  0  0
 38 47  1  0  0  0  0
 39 66  1  0  0  0  0
 40 42  1  0  0  0  0
 41 43  1  0  0  0  0
 41 44  1  0  0  0  0
 42 46  1  0  0  0  0
 43 48  1  0  0  0  0
 44 67  1  0  0  0  0
 45 48  1  0  0  0  0
 45 67  1  0  0  0  0
 46 73  1  0  0  0  0
 47 66  1  0  0  0  0
 48 65  1  0  0  0  0
 49 58  1  0  0  0  0
 50 59  1  0  0  0  0
 51 61  1  0  0  0  0
 52 61  1  0  0  0  0
 53 61  1  0  0  0  0
 54 75  1  0  0  0  0
 55 59  1  0  0  0  0
 55 60  1  0  0  0  0
 56 60  1  0  0  0  0
 56 83  1  0  0  0  0
 57 61  1  0  0  0  0
 57 74  1  0  0  0  0
 58 75  1  0  0  0  0
 59 71  1  0  0  0  0
 60 81  1  0  0  0  0
 63 65  1  0  0  0  0
M  CHG  1  75   1
M  ISO  4  36 100  56 101  72 100  83 101
M  END
> <Batch ID>
0193

> <Smiles>
CNC(C)C(=O)NC(C(=O)N1Cc2cc([101O:1][101CH2:1]C(O)CC(C)Nc3cnc([100NH:0][100C:0](=O)N4CCCC(n5nc(-c6ccc(Oc7ccc(F)cc7F)cc6)c(C(N)=O)c5N)C4)nc3N)ccc2CC1C(=O)NC1CCCc2ccccc21)C(C)(C)C

> <Shape>
0.235

> <Color>
0.091

> <Negative vol penalty>
0.000

$$$$

  -OEChem-04052305303D

 86 94  0     1  0  0  0  0  0999 V2000
  -22.6890  -21.6090   25.2495 C   0  0  0  0  0  0  0  0  0  0  0  0
  -23.9411  -21.6763   24.6471 C   0  0  0  0  0  0  0  0  0  0  0  0
  -24.5388   -9.6708   21.5436 C   0  0  0  0  0  0  0  0  0  0  0  0
  -24.8417  -10.8306   23.6413 C   0  0  0  0  0  0  0  0  0  0  0  0
  -21.7476  -22.6097   25.0118 C   0  0  0  0  0  0  0  0  0  0  0  0
  -24.2523  -22.7438   23.8056 C   0  0  0  0  0  0  0  0  0  0  0  0
  -29.7121  -25.4371   23.1406 C   0  0  0  0  0  0  0  0  0  0  0  0
  -24.2448   -8.4960   22.2356 C   0  0  0  0  0  0  0  0  0  0  0  0
  -24.5476   -9.6557   24.3333 C   0  0  0  0  0  0  0  0  0  0  0  0
  -30.7207  -25.2905   22.1892 C   0  0  0  0  0  0  0  0  0  0  0  0
  -21.6021   -7.1628   23.8702 C   0  0  0  0  0  0  0  0  0  0  0  0
  -20.5081   -6.4129   23.4386 C   0  0  0  0  0  0  0  0  0  0  0  0
  -29.8430  -27.1821   20.9763 C   0  0  0  0  0  0  0  0  0  0  0  0
  -21.9636   -4.5305   23.0199 C   0  0  0  0  0  0  0  0  0  0  0  0
  -24.8374  -10.8382   22.2465 C   0  0  0  0  0  0  0  0  0  0  0  0
  -24.2336  -13.0435   21.1154 C   0  0  0  0  0  0  0  0  0  0  0  0
  -22.0508  -23.6950   24.1746 C   0  0  0  0  0  0  0  0  0  0  0  0
  -28.7534  -26.4522   23.0109 C   0  0  0  0  0  0  0  0  0  0  0  0
  -23.3136  -23.7592   23.5554 C   0  0  0  0  0  0  0  0  0  0  0  0
  -28.8249  -27.3410   21.9288 C   0  0  0  0  0  0  0  0  0  0  0  0
  -24.2491   -8.4884   23.6304 C   0  0  0  0  0  0  0  0  0  0  0  0
  -30.7845  -26.1613   21.1053 C   0  0  0  0  0  0  0  0  0  0  0  0
  -22.8769   -6.5966   23.8765 C   0  0  0  0  0  0  0  0  0  0  0  0
  -20.6888   -5.0967   23.0135 C   0  0  0  0  0  0  0  0  0  0  0  0
  -23.0576   -5.2805   23.4514 C   0  0  0  0  0  0  0  0  0  0  0  0
  -25.1418  -12.0519   21.5322 C   0  0  0  0  0  0  0  0  0  0  0  0
  -28.8397  -21.4847   20.1114 C   0  0  0  0  0  0  0  0  0  0  0  0
  -25.0145  -13.9813   20.4851 C   0  0  0  0  0  0  0  0  0  0  0  0
  -27.5717  -21.6157   20.6378 C   0  0  0  0  0  0  0  0  0  0  0  0
  -28.4272  -19.3676   20.5085 C   0  0  0  0  0  0  0  0  0  0  0  0
  -22.8112  -13.1110   21.2829 C   0  0  0  0  0  0  0  0  0  0  0  0
  -25.5954  -26.5230   22.6565 C   0  0  0  0  0  0  0  0  0  0  0  0
  -26.0219  -29.7226   22.9774 C   0  0  0  0  0  0  0  0  0  0  0  0
  -28.1103  -32.4083   22.7091 C   0  0  0  0  0  0  0  0  0  0  0  0
  -29.5888  -17.1473   20.2490 C   0  0  0  0  0  0  0  0  0  0  0  0
  -20.9842  -24.7279   23.9102 C   0  0  0  0  0  0  0  0  0  0  0  0
  -27.6877  -26.6135   24.0600 C   0  0  0  0  0  0  0  0  0  0  0  0
  -27.8318  -28.4598   21.7546 C   0  0  0  0  0  0  0  0  0  0  0  0
  -21.5246  -26.0198   23.3025 C   0  0  0  0  0  0  0  0  0  0  0  0
  -29.8672  -13.8042   19.0560 C   0  0  0  0  0  0  0  0  0  0  0  0
  -22.4851  -25.7106   22.1585 C   0  0  0  0  0  0  0  0  0  0  0  0
  -28.5879  -13.1319   19.5596 C   0  0  0  0  0  0  0  0  0  0  0  0
  -30.4145  -14.8106   20.0666 C   0  0  0  0  0  0  0  0  0  0  0  0
  -28.1706  -15.1472   21.0263 C   0  0  0  0  0  0  0  0  0  0  0  0
  -23.6974  -24.9141   22.6559 C   0  0  1  0  0  0  0  0  0  0  0  0
  -26.4594  -27.3633   23.5537 C   0  0  1  0  0  0  0  0  0  0  0  0
  -27.5460  -14.1725   20.0147 C   0  0  2  0  0  0  0  0  0  0  0  0
  -28.1631  -34.8998   23.0042 C   0  0  0  0  0  0  0  0  0  0  0  0
  -32.9268  -23.2742   17.0659 C   0  0  0  0  0  0  0  0  0  0  0  0
  -28.9389  -22.0521   17.2748 C   0  0  0  0  0  0  0  0  0  0  0  0
  -24.4919  -30.0627   20.3595 C   0  0  0  0  0  0  0  0  0  0  0  0
  -25.3853  -32.3974   20.2215 C   0  0  0  0  0  0  0  0  0  0  0  0
  -23.9186  -31.7357   22.1277 C   0  0  0  0  0  0  0  0  0  0  0  0
  -30.2055  -32.2336   24.7920 C   0  0  0  0  0  0  0  0  0  0  0  0
  -32.2848  -25.5797   17.8740 C   0  0  0  0  0  0  0  0  0  0  0  0
  -31.4620  -26.4242   18.8408 C   0  0  0  0  0  0  0  0  0  1  0  0
  -29.7227  -22.6077   19.6184 C   0  0  2  0  0  0  0  0  0  0  0  0
  -26.2904  -30.8658   22.0287 C   0  0  1  0  0  0  0  0  0  0  0  0
  -28.4091  -33.5512   23.6626 C   0  0  2  0  0  0  0  0  0  0  0  0
  -32.0260  -24.0766   17.9954 C   0  0  1  0  0  0  0  0  0  0  0  0
  -30.1207  -22.4681   18.1420 C   0  0  2  0  0  0  0  0  0  0  0  0
  -25.0393  -31.2432   21.1863 C   0  0  0  0  0  0  0  0  0  0  0  0
  -26.4031  -12.3334   21.1951 N   0  0  0  0  0  0  0  0  0  0  0  0
  -29.3321  -20.1963   20.0369 N   0  0  0  0  0  0  0  0  0  0  0  0
  -26.2931  -13.5125   20.5596 N   0  0  0  0  0  0  0  0  0  0  0  0
  -26.8048  -28.5725   22.8035 N   0  0  0  0  0  0  0  0  0  0  0  0
  -29.3733  -15.7672   20.4483 N   0  0  0  0  0  0  0  0  0  0  0  0
  -24.7254  -15.1529   19.8800 N   0  0  0  0  0  0  0  0  0  0  0  0
  -26.8571  -22.7520   20.8240 N   0  0  0  0  0  0  0  0  0  0  0  0
  -22.1672  -12.0629   21.9545 N   0  0  0  0  0  0  0  0  0  0  0  0
  -28.5161  -17.9577   20.6192 N   0  0  0  0  0  0  0  0  0  0  0  0
  -24.6358  -25.7883   23.3265 N   0  0  0  0  0  0  0  0  0  0  0  0
  -26.8142  -31.9573   22.8428 N   0  0  0  0  0  0  0  0  0  0  0  0
  -29.8307  -33.4972   24.1065 N   0  3  0  0  0  0  0  0  0  0  0  0
  -30.6120  -23.7762   17.6364 N   0  3  0  0  0  0  0  0  0  0  0  0
  -22.1295  -14.0642   20.8356 O   0  0  0  0  0  0  0  0  0  0  0  0
  -25.7843  -26.5410   21.4458 O   0  0  0  0  0  0  0  0  0  0  0  0
  -25.1545  -29.8481   23.8454 O   0  0  0  0  0  0  0  0  0  0  0  0
  -28.9423  -31.9629   21.9217 O   0  0  0  0  0  0  0  0  0  0  0  0
  -30.6365  -17.5764   19.7589 O   0  0  0  0  0  0  0  0  0  0  0  0
  -23.9620   -7.3422   24.3059 O   0  0  0  0  0  0  0  0  0  0  0  0
  -31.7675  -26.0200   20.1748 O   0  0  0  0  0  0  0  0  0  1  0  0
  -19.6378   -4.3762   22.6006 F   0  0  0  0  0  0  0  0  0  0  0  0
  -24.2798   -4.7307   23.4564 F   0  0  0  0  0  0  0  0  0  0  0  0
  -30.8635  -22.7459   20.3594 F   0  0  0  0  0  0  0  0  0  0  0  0
  -26.9607  -20.0693   21.0581 S   0  0  0  0  0  0  0  0  0  0  0  0
  1  2  1  0  0  0  0
  1  5  2  0  0  0  0
  2  6  2  0  0  0  0
  3  8  2  0  0  0  0
  3 15  1  0  0  0  0
  4  9  1  0  0  0  0
  4 15  2  0  0  0  0
  5 17  1  0  0  0  0
  6 19  1  0  0  0  0
  7 10  2  0  0  0  0
  7 18  1  0  0  0  0
  8 21  1  0  0  0  0
  9 21  2  0  0  0  0
 10 22  1  0  0  0  0
 11 12  2  0  0  0  0
 11 23  1  0  0  0  0
 12 24  1  0  0  0  0
 13 20  1  0  0  0  0
 13 22  2  0  0  0  0
 14 24  2  0  0  0  0
 14 25  1  0  0  0  0
 15 26  1  0  0  0  0
 16 26  1  0  0  0  0
 16 28  2  0  0  0  0
 16 31  1  0  0  0  0
 17 19  2  0  0  0  0
 17 36  1  0  0  0  0
 18 20  2  0  0  0  0
 18 37  1  0  0  0  0
 19 45  1  0  0  0  0
 20 38  1  0  0  0  0
 21 81  1  0  0  0  0
 22 82  1  0  0  0  0
 23 25  2  0  0  0  0
 23 81  1  0  0  0  0
 24 83  1  0  0  0  0
 25 84  1  0  0  0  0
 26 63  2  0  0  0  0
 27 29  2  0  0  0  0
 27 57  1  0  0  0  0
 27 64  1  0  0  0  0
 28 65  1  0  0  0  0
 28 68  1  0  0  0  0
 29 69  1  0  0  0  0
 29 86  1  0  0  0  0
 30 64  2  0  0  0  0
 30 71  1  0  0  0  0
 30 86  1  0  0  0  0
 31 70  1  0  0  0  0
 31 76  2  0  0  0  0
 32 46  1  0  0  0  0
 32 72  1  0  0  0  0
 32 77  2  0  0  0  0
 33 58  1  0  0  0  0
 33 66  1  0  0  0  0
 33 78  2  0  0  0  0
 34 59  1  0  0  0  0
 34 73  1  0  0  0  0
 34 79  2  0  0  0  0
 35 67  1  0  0  0  0
 35 71  1  0  0  0  0
 35 80  2  0  0  0  0
 36 39  1  0  0  0  0
 37 46  1  0  0  0  0
 38 66  1  0  0  0  0
 39 41  1  0  0  0  0
 40 42  1  0  0  0  0
 40 43  1  0  0  0  0
 41 45  1  0  0  0  0
 42 47  1  0  0  0  0
 43 67  1  0  0  0  0
 44 47  1  0  0  0  0
 44 67  1  0  0  0  0
 45 72  1  0  0  0  0
 46 66  1  0  0  0  0
 47 65  1  0  0  0  0
 48 59  1  0  0  0  0
 49 60  1  0  0  0  0
 50 61  1  0  0  0  0
 51 62  1  0  0  0  0
 52 62  1  0  0  0  0
 53 62  1  0  0  0  0
 54 74  1  0  0  0  0
 55 56  1  0  0  0  0
 55 60  1  0  0  0  0
 56 82  1  0  0  0  0
 57 61  1  0  0  0  0
 57 85  1  0  0  0  0
 58 62  1  0  0  0  0
 58 73  1  0  0  0  0
 59 74  1  0  0  0  0
 60 75  1  0  0  0  0
 61 75  1  0  0  0  0
 63 65  1  0  0  0  0
M  CHG  2  74   1  75   1
M  ISO  4  35 100  56 101  71 100  82 101
M  END
> <Batch ID>
0193

> <Smiles>
CNC(C)C(=O)NC(C(=O)N1Cc2cc([101O:1][101CH2:1]CC(C)NC(C)C(F)c3nc([100NH:0][100C:0](=O)N4CCCC(n5nc(-c6ccc(Oc7ccc(F)cc7F)cc6)c(C(N)=O)c5N)C4)sc3N)ccc2CC1C(=O)NC1CCCc2ccccc21)C(C)(C)C

> <Shape>
0.283

> <Color>
0.113

> <Negative vol penalty>
0.000

$$$$

  -OEChem-04052305303D

 89 97  0     1  0  0  0  0  0999 V2000
  -27.7934  -37.0836   23.0996 C   0  0  0  0  0  0  0  0  0  0  0  0
  -28.1150  -35.7403   23.2658 C   0  0  0  0  0  0  0  0  0  0  0  0
  -24.1039   -9.4337   19.8241 C   0  0  0  0  0  0  0  0  0  0  0  0
  -24.6445   -9.7181   22.1616 C   0  0  0  0  0  0  0  0  0  0  0  0
  -26.4577  -37.4831   23.0881 C   0  0  0  0  0  0  0  0  0  0  0  0
  -27.1011  -34.7959   23.4217 C   0  0  0  0  0  0  0  0  0  0  0  0
  -27.8649  -30.6454   20.6225 C   0  0  0  0  0  0  0  0  0  0  0  0
  -23.8718   -8.0759   20.0430 C   0  0  0  0  0  0  0  0  0  0  0  0
  -24.4123   -8.3603   22.3805 C   0  0  0  0  0  0  0  0  0  0  0  0
  -28.7914  -29.7185   21.0979 C   0  0  0  0  0  0  0  0  0  0  0  0
  -21.7455   -6.3243   22.7843 C   0  0  0  0  0  0  0  0  0  0  0  0
  -20.9934   -5.9692   23.9041 C   0  0  0  0  0  0  0  0  0  0  0  0
  -26.9880  -28.3620   21.9505 C   0  0  0  0  0  0  0  0  0  0  0  0
  -22.8578   -4.6859   24.7493 C   0  0  0  0  0  0  0  0  0  0  0  0
  -26.9280  -19.3999   22.9136 C   0  0  0  0  0  0  0  0  0  0  0  0
  -24.4903  -10.2549   20.8834 C   0  0  0  0  0  0  0  0  0  0  0  0
  -23.7950  -12.7055   20.7470 C   0  0  0  0  0  0  0  0  0  0  0  0
  -25.4265  -36.5418   23.2342 C   0  0  0  0  0  0  0  0  0  0  0  0
  -26.4911  -30.4427   20.8175 C   0  0  0  0  0  0  0  0  0  0  0  0
  -25.7503  -35.1833   23.4135 C   0  0  0  0  0  0  0  0  0  0  0  0
  -26.0459  -29.2866   21.4743 C   0  0  0  0  0  0  0  0  0  0  0  0
  -24.0260   -7.5391   21.3212 C   0  0  0  0  0  0  0  0  0  0  0  0
  -28.3532  -28.5780   21.7645 C   0  0  0  0  0  0  0  0  0  0  0  0
  -23.0537   -5.8601   22.6470 C   0  0  0  0  0  0  0  0  0  0  0  0
  -21.5495   -5.1500   24.8866 C   0  0  0  0  0  0  0  0  0  0  0  0
  -23.6099   -5.0410   23.6295 C   0  0  0  0  0  0  0  0  0  0  0  0
  -24.7307  -11.6575   20.6579 C   0  0  0  0  0  0  0  0  0  0  0  0
  -27.9744  -18.9086   22.1615 C   0  0  0  0  0  0  0  0  0  0  0  0
  -24.5149  -13.8353   20.4439 C   0  0  0  0  0  0  0  0  0  0  0  0
  -28.6657  -20.9789   22.3757 C   0  0  0  0  0  0  0  0  0  0  0  0
  -22.3998  -12.6617   21.0745 C   0  0  0  0  0  0  0  0  0  0  0  0
  -24.1876  -32.0088   22.3489 C   0  0  0  0  0  0  0  0  0  0  0  0
  -28.5165  -22.9827   20.0538 C   0  0  0  0  0  0  0  0  0  0  0  0
  -22.2858  -29.7718   20.9700 C   0  0  0  0  0  0  0  0  0  0  0  0
  -21.9983  -26.6592   19.6004 C   0  0  0  0  0  0  0  0  0  0  0  0
  -29.0748  -16.9891   20.9570 C   0  0  0  0  0  0  0  0  0  0  0  0
  -23.9989  -37.0275   23.2627 C   0  0  0  0  0  0  0  0  0  0  0  0
  -25.5032  -31.4388   20.2751 C   0  0  0  0  0  0  0  0  0  0  0  0
  -24.5810  -29.0122   21.6914 C   0  0  0  0  0  0  0  0  0  0  0  0
  -22.9731  -35.9155   23.0589 C   0  0  0  0  0  0  0  0  0  0  0  0
  -29.1833  -14.3594   18.5590 C   0  0  0  0  0  0  0  0  0  0  0  0
  -23.3103  -34.7115   23.9326 C   0  0  0  0  0  0  0  0  0  0  0  0
  -27.9576  -13.5083   18.8986 C   0  0  0  0  0  0  0  0  0  0  0  0
  -29.8481  -14.9226   19.8139 C   0  0  0  0  0  0  0  0  0  0  0  0
  -27.7245  -14.8022   21.0570 C   0  0  0  0  0  0  0  0  0  0  0  0
  -24.6779  -34.1258   23.5608 C   0  0  1  0  0  0  0  0  0  0  0  0
  -24.1522  -31.3861   20.9819 C   0  0  1  0  0  0  0  0  0  0  0  0
  -26.9832  -14.2664   19.8213 C   0  0  2  0  0  0  0  0  0  0  0  0
  -26.6400  -21.1520   18.4139 C   0  0  0  0  0  0  0  0  0  0  0  0
  -20.3103  -25.0967   18.5972 C   0  0  0  0  0  0  0  0  0  0  0  0
  -21.2064  -29.1530   23.7561 C   0  0  0  0  0  0  0  0  0  0  0  0
  -20.2781  -27.0137   22.8452 C   0  0  0  0  0  0  0  0  0  0  0  0
  -19.4741  -29.1999   21.9528 C   0  0  0  0  0  0  0  0  0  0  0  0
  -23.4287  -26.5914   17.0103 C   0  0  0  0  0  0  0  0  0  0  0  0
  -31.5463  -23.8338   19.5256 C   0  0  0  0  0  0  0  0  0  0  0  0
  -29.5147  -22.2209   22.2507 C   0  0  0  0  0  0  0  0  0  0  0  0
  -28.5459  -22.8210   18.5411 C   0  0  0  0  0  0  0  0  0  0  0  0
  -27.1875  -22.4873   17.9297 C   0  0  0  0  0  0  0  0  0  0  0  0
  -30.0213  -25.0708   21.0569 C   0  0  0  0  0  0  0  0  0  0  0  0
  -30.4801  -27.5452   21.5086 C   0  0  0  0  0  0  0  0  0  1  0  0
  -29.7910  -22.6052   20.7951 C   0  0  2  0  0  0  0  0  0  0  0  0
  -21.7969  -28.3975   21.3589 C   0  0  1  0  0  0  0  0  0  0  0  0
  -21.3413  -26.1795   18.3188 C   0  0  2  0  0  0  0  0  0  0  0  0
  -30.9788  -26.1093   21.6350 C   0  0  1  0  0  0  0  0  0  0  0  0
  -20.7166  -28.4469   22.4760 C   0  0  0  0  0  0  0  0  0  0  0  0
  -25.9518  -12.0836   20.3241 N   0  0  0  0  0  0  0  0  0  0  0  0
  -28.9716  -19.8127   21.8517 N   0  0  0  0  0  0  0  0  0  0  0  0
  -25.7883  -13.4118   20.2008 N   0  0  0  0  0  0  0  0  0  0  0  0
  -23.6543  -30.0191   21.1482 N   0  0  0  0  0  0  0  0  0  0  0  0
  -28.8655  -15.6309   20.6370 N   0  0  0  0  0  0  0  0  0  0  0  0
  -24.1764  -15.1397   20.3642 N   0  0  0  0  0  0  0  0  0  0  0  0
  -21.8191  -11.4183   21.3593 N   0  0  0  0  0  0  0  0  0  0  0  0
  -28.0579  -17.5657   21.7172 N   0  0  0  0  0  0  0  0  0  0  0  0
  -24.5775  -33.3345   22.3532 N   0  0  0  0  0  0  0  0  0  0  0  0
  -21.3520  -27.7583   20.1252 N   0  0  0  0  0  0  0  0  0  0  0  0
  -22.3648  -25.6256   17.3879 N   0  3  0  0  0  0  0  0  0  0  0  0
  -30.7240  -23.7911   20.7901 N   0  3  1  0  0  0  0  0  0  0  0  0
  -21.6855  -13.6926   21.0974 O   0  0  0  0  0  0  0  0  0  0  0  0
  -23.8824  -31.3368   23.3271 O   0  0  0  0  0  0  0  0  0  0  0  0
  -27.5325  -23.4167   20.6527 O   0  0  0  0  0  0  0  0  0  0  0  0
  -21.4842  -30.5933   20.5179 O   0  0  0  0  0  0  0  0  0  0  0  0
  -22.9840  -26.1114   20.0892 O   0  0  0  0  0  0  0  0  0  0  0  0
  -30.0688  -17.6033   20.5612 O   0  0  0  0  0  0  0  0  0  0  0  0
  -31.2077  -25.8304   23.0171 O   0  0  0  0  0  0  0  0  0  0  0  0
  -23.7994   -6.2142   21.5351 O   0  0  0  0  0  0  0  0  0  0  0  0
  -29.2555  -27.6719   22.2301 O   0  0  0  0  0  0  0  0  0  1  0  0
  -20.8277   -4.8103   25.9626 F   0  0  0  0  0  0  0  0  0  0  0  0
  -24.8666   -4.5930   23.5037 F   0  0  0  0  0  0  0  0  0  0  0  0
  -27.1938  -21.0596   23.2542 S   0  0  0  0  0  0  0  0  0  0  0  0
  1  2  1  0  0  0  0
  1  5  2  0  0  0  0
  2  6  2  0  0  0  0
  3  8  2  0  0  0  0
  3 16  1  0  0  0  0
  4  9  1  0  0  0  0
  4 16  2  0  0  0  0
  5 18  1  0  0  0  0
  6 20  1  0  0  0  0
  7 10  2  0  0  0  0
  7 19  1  0  0  0  0
  8 22  1  0  0  0  0
  9 22  2  0  0  0  0
 10 23  1  0  0  0  0
 11 12  2  0  0  0  0
 11 24  1  0  0  0  0
 12 25  1  0  0  0  0
 13 21  1  0  0  0  0
 13 23  2  0  0  0  0
 14 25  2  0  0  0  0
 14 26  1  0  0  0  0
 15 28  2  0  0  0  0
 15 89  1  0  0  0  0
 16 27  1  0  0  0  0
 17 27  1  0  0  0  0
 17 29  2  0  0  0  0
 17 31  1  0  0  0  0
 18 20  2  0  0  0  0
 18 37  1  0  0  0  0
 19 21  2  0  0  0  0
 19 38  1  0  0  0  0
 20 46  1  0  0  0  0
 21 39  1  0  0  0  0
 22 85  1  0  0  0  0
 23 86  1  0  0  0  0
 24 26  2  0  0  0  0
 24 85  1  0  0  0  0
 25 87  1  0  0  0  0
 26 88  1  0  0  0  0
 27 66  2  0  0  0  0
 28 67  1  0  0  0  0
 28 73  1  0  0  0  0
 29 68  1  0  0  0  0
 29 71  1  0  0  0  0
 30 56  1  0  0  0  0
 30 67  2  0  0  0  0
 30 89  1  0  0  0  0
 31 72  1  0  0  0  0
 31 78  2  0  0  0  0
 32 47  1  0  0  0  0
 32 74  1  0  0  0  0
 32 79  2  0  0  0  0
 33 57  1  0  0  0  0
 33 61  1  0  0  0  0
 33 80  2  0  0  0  0
 34 62  1  0  0  0  0
 34 69  1  0  0  0  0
 34 81  2  0  0  0  0
 35 63  1  0  0  0  0
 35 75  1  0  0  0  0
 35 82  2  0  0  0  0
 36 70  1  0  0  0  0
 36 73  1  0  0  0  0
 36 83  2  0  0  0  0
 37 40  1  0  0  0  0
 38 47  1  0  0  0  0
 39 69  1  0  0  0  0
 40 42  1  0  0  0  0
 41 43  1  0  0  0  0
 41 44  1  0  0  0  0
 42 46  1  0  0  0  0
 43 48  1  0  0  0  0
 44 70  1  0  0  0  0
 45 48  1  0  0  0  0
 45 70  1  0  0  0  0
 46 74  1  0  0  0  0
 47 69  1  0  0  0  0
 48 68  1  0  0  0  0
 49 58  1  0  0  0  0
 50 63  1  0  0  0  0
 51 65  1  0  0  0  0
 52 65  1  0  0  0  0
 53 65  1  0  0  0  0
 54 76  1  0  0  0  0
 55 77  1  0  0  0  0
 56 61  1  0  0  0  0
 57 58  1  0  0  0  0
 59 64  1  0  0  0  0
 59 77  1  0  0  0  0
 60 64  1  0  0  0  0
 60 86  1  0  0  0  0
 61 77  1  0  0  0  0
 62 65  1  0  0  0  0
 62 75  1  0  0  0  0
 63 76  1  0  0  0  0
 64 84  1  0  0  0  0
 66 68  1  0  0  0  0
M  CHG  2  76   1  77   1
M  ISO  4  36 100  60 101  73 100  86 101
M  END
> <Batch ID>
0193

> <Smiles>
CCCC(=O)C(Cc1nc([100NH:0][100C:0](=O)N2CCCC(n3nc(-c4ccc(Oc5ccc(F)cc5F)cc4)c(C(N)=O)c3N)C2)cs1)N(C)CC(O)[101CH2:1][101O:1]c1ccc2c(c1)CN(C(=O)C(NC(=O)C(C)NC)C(C)(C)C)C(C(=O)NC1CCCc3ccccc31)C2

> <Shape>
0.348

> <Color>
0.094

> <Negative vol penalty>
0.000

$$$$

  -OEChem-04052305303D

 85 93  0     1  0  0  0  0  0999 V2000
  -30.1650  -23.8253   17.6216 C   0  0  0  0  0  0  0  0  0  0  0  0
  -28.9322  -23.8565   18.2656 C   0  0  0  0  0  0  0  0  0  0  0  0
  -27.4572  -14.8616   19.2634 C   0  0  0  0  0  0  0  0  0  0  0  0
  -25.5819  -15.4724   20.6588 C   0  0  0  0  0  0  0  0  0  0  0  0
  -31.2083  -24.6308   18.0762 C   0  0  0  0  0  0  0  0  0  0  0  0
  -28.7424  -24.6925   19.3654 C   0  0  0  0  0  0  0  0  0  0  0  0
  -24.3531  -27.2097   19.1576 C   0  0  0  0  0  0  0  0  0  0  0  0
  -27.2115  -13.5134   19.5233 C   0  0  0  0  0  0  0  0  0  0  0  0
  -25.3362  -14.1242   20.9188 C   0  0  0  0  0  0  0  0  0  0  0  0
  -23.1992  -26.5069   19.5017 C   0  0  0  0  0  0  0  0  0  0  0  0
  -23.8865  -11.5093   19.3435 C   0  0  0  0  0  0  0  0  0  0  0  0
  -22.5653  -11.0676   19.2733 C   0  0  0  0  0  0  0  0  0  0  0  0
  -23.2474  -27.5131   21.6937 C   0  0  0  0  0  0  0  0  0  0  0  0
  -22.6701  -10.3863   21.5889 C   0  0  0  0  0  0  0  0  0  0  0  0
  -26.6424  -15.8411   19.8311 C   0  0  0  0  0  0  0  0  0  0  0  0
  -26.3665  -18.0080   18.5135 C   0  0  0  0  0  0  0  0  0  0  0  0
  -31.0282  -25.4842   19.1761 C   0  0  0  0  0  0  0  0  0  0  0  0
  -24.9701  -28.0625   20.0842 C   0  0  0  0  0  0  0  0  0  0  0  0
  -29.7847  -25.5092   19.8360 C   0  0  0  0  0  0  0  0  0  0  0  0
  -24.4076  -28.2275   21.3580 C   0  0  0  0  0  0  0  0  0  0  0  0
  -26.1511  -13.1447   20.3510 C   0  0  0  0  0  0  0  0  0  0  0  0
  -22.6478  -26.6564   20.7709 C   0  0  0  0  0  0  0  0  0  0  0  0
  -24.5996  -11.3894   20.5364 C   0  0  0  0  0  0  0  0  0  0  0  0
  -21.9571  -10.5061   20.3960 C   0  0  0  0  0  0  0  0  0  0  0  0
  -23.9913  -10.8280   21.6591 C   0  0  0  0  0  0  0  0  0  0  0  0
  -26.8960  -17.2340   19.5634 C   0  0  0  0  0  0  0  0  0  0  0  0
  -25.7363  -22.5650   25.2279 C   0  0  0  0  0  0  0  0  0  0  0  0
  -25.1876  -22.2059   26.4412 C   0  0  0  0  0  0  0  0  0  0  0  0
  -26.9098  -19.2557   18.6989 C   0  0  0  0  0  0  0  0  0  0  0  0
  -23.6411  -22.3912   24.6036 C   0  0  0  0  0  0  0  0  0  0  0  0
  -25.4642  -17.6326   17.4644 C   0  0  0  0  0  0  0  0  0  0  0  0
  -27.8138  -28.1540   21.5014 C   0  0  0  0  0  0  0  0  0  0  0  0
  -26.7231  -30.9903   22.6361 C   0  0  0  0  0  0  0  0  0  0  0  0
  -24.0503  -32.9625   23.4196 C   0  0  0  0  0  0  0  0  0  0  0  0
  -29.0389  -22.1007   23.5180 C   0  0  0  0  0  0  0  0  0  0  0  0
  -32.1997  -26.3014   19.6603 C   0  0  0  0  0  0  0  0  0  0  0  0
  -26.1992  -28.8340   19.6885 C   0  0  0  0  0  0  0  0  0  0  0  0
  -25.0200  -29.1463   22.3823 C   0  0  0  0  0  0  0  0  0  0  0  0
  -31.8033  -27.4366   20.6009 C   0  0  0  0  0  0  0  0  0  0  0  0
  -30.7806  -21.4263   20.4868 C   0  0  0  0  0  0  0  0  0  0  0  0
  -30.8260  -26.9359   21.6596 C   0  0  0  0  0  0  0  0  0  0  0  0
  -29.9348  -20.3452   19.8117 C   0  0  0  0  0  0  0  0  0  0  0  0
  -30.8082  -21.2557   22.0040 C   0  0  0  0  0  0  0  0  0  0  0  0
  -28.6353  -20.0935   21.9673 C   0  0  0  0  0  0  0  0  0  0  0  0
  -29.5324  -26.4212   21.0170 C   0  0  1  0  0  0  0  0  0  0  0  0
  -27.0348  -29.2808   20.8840 C   0  0  1  0  0  0  0  0  0  0  0  0
  -28.5315  -20.2566   20.4412 C   0  0  2  0  0  0  0  0  0  0  0  0
  -25.8323  -22.0033   27.7540 C   0  0  0  0  0  0  0  0  0  0  0  0
  -23.4738  -35.2149   24.3639 C   0  0  0  0  0  0  0  0  0  0  0  0
  -23.0423  -21.5170   21.6248 C   0  0  0  0  0  0  0  0  0  0  0  0
  -27.3931  -29.9845   25.4378 C   0  0  0  0  0  0  0  0  0  0  0  0
  -25.9564  -31.8145   26.3628 C   0  0  0  0  0  0  0  0  0  0  0  0
  -27.9818  -32.3790   25.0205 C   0  0  0  0  0  0  0  0  0  0  0  0
  -22.6731  -33.7819   20.9314 C   0  0  0  0  0  0  0  0  0  0  0  0
  -27.1642  -22.8393   24.9669 C   0  0  0  0  0  0  0  0  0  0  0  0
  -21.1154  -23.1111   21.9276 C   0  0  0  0  0  0  0  0  0  0  0  0
  -21.3641  -25.6197   22.4836 C   0  0  0  0  0  0  0  0  0  1  0  0
  -25.9493  -31.4272   23.8566 C   0  0  1  0  0  0  0  0  0  0  0  0
  -23.7410  -34.4137   23.0992 C   0  0  2  0  0  0  0  0  0  0  0  0
  -22.5237  -22.7260   22.3980 C   0  0  1  0  0  0  0  0  0  0  0  0
  -20.5230  -24.3522   22.6151 C   0  0  1  0  0  0  0  0  0  0  0  0
  -26.8095  -31.3824   25.1510 C   0  0  0  0  0  0  0  0  0  0  0  0
  -27.7131  -17.9316   20.3570 N   0  0  0  0  0  0  0  0  0  0  0  0
  -24.8511  -22.6713   24.1730 N   0  0  0  0  0  0  0  0  0  0  0  0
  -27.7012  -19.1570   19.8053 N   0  0  0  0  0  0  0  0  0  0  0  0
  -26.2246  -29.8739   21.9499 N   0  0  0  0  0  0  0  0  0  0  0  0
  -29.4464  -21.1801   22.5385 N   0  0  0  0  0  0  0  0  0  0  0  0
  -26.7832  -20.4167   18.0217 N   0  0  0  0  0  0  0  0  0  0  0  0
  -25.0025  -16.3100   17.4216 N   0  0  0  0  0  0  0  0  0  0  0  0
  -22.5088  -22.4013   23.8086 N   0  0  0  0  0  0  0  0  0  0  0  0
  -28.6849  -27.5286   20.6299 N   0  0  0  0  0  0  0  0  0  0  0  0
  -25.4060  -32.7449   23.5454 N   0  0  0  0  0  0  0  0  0  0  0  0
  -27.7308  -21.9631   23.9658 N   0  0  0  0  0  0  0  0  0  0  0  0
  -22.5399  -34.5059   22.2218 N   0  3  0  0  0  0  0  0  0  0  0  0
  -25.0916  -18.4418   16.5812 O   0  0  0  0  0  0  0  0  0  0  0  0
  -27.6387  -27.8737   22.6814 O   0  0  0  0  0  0  0  0  0  0  0  0
  -27.7285  -31.6209   22.2999 O   0  0  0  0  0  0  0  0  0  0  0  0
  -23.1763  -32.1081   23.5492 O   0  0  0  0  0  0  0  0  0  0  0  0
  -29.7840  -22.9835   23.9568 O   0  0  0  0  0  0  0  0  0  0  0  0
  -19.2448  -24.6199   22.0319 O   0  0  0  0  0  0  0  0  0  0  0  0
  -25.9109  -11.8292   20.6047 O   0  0  0  0  0  0  0  0  0  0  0  0
  -21.5219  -25.9711   21.1096 O   0  0  0  0  0  0  0  0  0  1  0  0
  -20.6879  -10.0834   20.3289 F   0  0  0  0  0  0  0  0  0  0  0  0
  -24.6709  -10.7113   22.8082 F   0  0  0  0  0  0  0  0  0  0  0  0
  -23.4950  -21.9920   26.2663 S   0  0  0  0  0  0  0  0  0  0  0  0
  1  2  1  0  0  0  0
  1  5  2  0  0  0  0
  2  6  2  0  0  0  0
  3  8  2  0  0  0  0
  3 15  1  0  0  0  0
  4  9  1  0  0  0  0
  4 15  2  0  0  0  0
  5 17  1  0  0  0  0
  6 19  1  0  0  0  0
  7 10  2  0  0  0  0
  7 18  1  0  0  0  0
  8 21  1  0  0  0  0
  9 21  2  0  0  0  0
 10 22  1  0  0  0  0
 11 12  2  0  0  0  0
 11 23  1  0  0  0  0
 12 24  1  0  0  0  0
 13 20  1  0  0  0  0
 13 22  2  0  0  0  0
 14 24  2  0  0  0  0
 14 25  1  0  0  0  0
 15 26  1  0  0  0  0
 16 26  1  0  0  0  0
 16 29  2  0  0  0  0
 16 31  1  0  0  0  0
 17 19  2  0  0  0  0
 17 36  1  0  0  0  0
 18 20  2  0  0  0  0
 18 37  1  0  0  0  0
 19 45  1  0  0  0  0
 20 38  1  0  0  0  0
 21 81  1  0  0  0  0
 22 82  1  0  0  0  0
 23 25  2  0  0  0  0
 23 81  1  0  0  0  0
 24 83  1  0  0  0  0
 25 84  1  0  0  0  0
 26 63  2  0  0  0  0
 27 28  2  0  0  0  0
 27 55  1  0  0  0  0
 27 64  1  0  0  0  0
 28 48  1  0  0  0  0
 28 85  1  0  0  0  0
 29 65  1  0  0  0  0
 29 68  1  0  0  0  0
 30 64  2  0  0  0  0
 30 70  1  0  0  0  0
 30 85  1  0  0  0  0
 31 69  1  0  0  0  0
 31 75  2  0  0  0  0
 32 46  1  0  0  0  0
 32 71  1  0  0  0  0
 32 76  2  0  0  0  0
 33 58  1  0  0  0  0
 33 66  1  0  0  0  0
 33 77  2  0  0  0  0
 34 59  1  0  0  0  0
 34 72  1  0  0  0  0
 34 78  2  0  0  0  0
 35 67  1  0  0  0  0
 35 73  1  0  0  0  0
 35 79  2  0  0  0  0
 36 39  1  0  0  0  0
 37 46  1  0  0  0  0
 38 66  1  0  0  0  0
 39 41  1  0  0  0  0
 40 42  1  0  0  0  0
 40 43  1  0  0  0  0
 41 45  1  0  0  0  0
 42 47  1  0  0  0  0
 43 67  1  0  0  0  0
 44 47  1  0  0  0  0
 44 67  1  0  0  0  0
 45 71  1  0  0  0  0
 46 66  1  0  0  0  0
 47 65  1  0  0  0  0
 49 59  1  0  0  0  0
 50 60  1  0  0  0  0
 51 62  1  0  0  0  0
 52 62  1  0  0  0  0
 53 62  1  0  0  0  0
 54 74  1  0  0  0  0
 55 73  1  0  0  0  0
 56 60  1  0  0  0  0
 56 61  1  0  0  0  0
 57 61  1  0  0  0  0
 57 82  1  0  0  0  0
 58 62  1  0  0  0  0
 58 72  1  0  0  0  0
 59 74  1  0  0  0  0
 60 70  1  0  0  0  0
 61 80  1  0  0  0  0
 63 65  1  0  0  0  0
M  CHG  1  74   1
M  ISO  4  35 100  57 101  73 100  82 101
M  END
> <Batch ID>
0193

> <Smiles>
CNC(C)C(=O)NC(C(=O)N1Cc2cc([101O:1][101CH2:1]C(O)CC(C)Nc3nc(C[100NH:0][100C:0](=O)N4CCCC(n5nc(-c6ccc(Oc7ccc(F)cc7F)cc6)c(C(N)=O)c5N)C4)c(C)s3)ccc2CC1C(=O)NC1CCCc2ccccc21)C(C)(C)C

> <Shape>
0.272

> <Color>
0.058

> <Negative vol penalty>
0.000

$$$$

  -OEChem-04052305303D

 83 91  0     1  0  0  0  0  0999 V2000
  -18.2066  -32.5433   21.8239 C   0  0  0  0  0  0  0  0  0  0  0  0
  -19.5349  -32.5384   21.4106 C   0  0  0  0  0  0  0  0  0  0  0  0
  -26.4276  -13.0465   21.6699 C   0  0  0  0  0  0  0  0  0  0  0  0
  -25.9681  -14.0784   19.5342 C   0  0  0  0  0  0  0  0  0  0  0  0
  -17.7740  -31.6328   22.7870 C   0  0  0  0  0  0  0  0  0  0  0  0
  -20.4318  -31.6236   21.9610 C   0  0  0  0  0  0  0  0  0  0  0  0
  -25.1216  -28.8989   19.1171 C   0  0  0  0  0  0  0  0  0  0  0  0
  -25.1577  -12.4694   21.6642 C   0  0  0  0  0  0  0  0  0  0  0  0
  -24.6983  -13.5012   19.5285 C   0  0  0  0  0  0  0  0  0  0  0  0
  -26.4881  -29.1736   19.0874 C   0  0  0  0  0  0  0  0  0  0  0  0
  -23.6288   -9.8274   20.2098 C   0  0  0  0  0  0  0  0  0  0  0  0
  -23.5260   -8.4835   20.5689 C   0  0  0  0  0  0  0  0  0  0  0  0
  -29.1410  -21.4510   17.5975 C   0  0  0  0  0  0  0  0  0  0  0  0
  -26.8457  -27.5538   20.8389 C   0  0  0  0  0  0  0  0  0  0  0  0
  -22.0685   -9.0842   22.3997 C   0  0  0  0  0  0  0  0  0  0  0  0
  -29.2248  -22.4740   16.6751 C   0  0  0  0  0  0  0  0  0  0  0  0
  -26.8327  -13.8511   20.6049 C   0  0  0  0  0  0  0  0  0  0  0  0
  -29.3307  -13.8982   20.0892 C   0  0  0  0  0  0  0  0  0  0  0  0
  -18.6639  -30.6999   23.3425 C   0  0  0  0  0  0  0  0  0  0  0  0
  -24.6046  -27.9558   20.0169 C   0  0  0  0  0  0  0  0  0  0  0  0
  -20.0111  -30.7005   22.9335 C   0  0  0  0  0  0  0  0  0  0  0  0
  -25.4725  -27.2671   20.8762 C   0  0  0  0  0  0  0  0  0  0  0  0
  -24.2931  -12.6967   20.5936 C   0  0  0  0  0  0  0  0  0  0  0  0
  -27.3500  -28.5032   19.9504 C   0  0  0  0  0  0  0  0  0  0  0  0
  -22.9515  -10.7998   20.9458 C   0  0  0  0  0  0  0  0  0  0  0  0
  -22.7458   -8.1119   21.6638 C   0  0  0  0  0  0  0  0  0  0  0  0
  -22.1714  -10.4281   22.0407 C   0  0  0  0  0  0  0  0  0  0  0  0
  -28.1441  -14.4480   20.6104 C   0  0  0  0  0  0  0  0  0  0  0  0
  -29.6626  -21.7275   18.8448 C   0  0  0  0  0  0  0  0  0  0  0  0
  -30.2894  -14.8488   20.3413 C   0  0  0  0  0  0  0  0  0  0  0  0
  -30.2468  -23.8247   18.1911 C   0  0  0  0  0  0  0  0  0  0  0  0
  -29.5469  -12.6405   19.4356 C   0  0  0  0  0  0  0  0  0  0  0  0
  -22.5451  -28.0577   22.4360 C   0  0  0  0  0  0  0  0  0  0  0  0
  -22.9398  -24.8383   22.3975 C   0  0  0  0  0  0  0  0  0  0  0  0
  -24.8985  -22.1692   21.5690 C   0  0  0  0  0  0  0  0  0  0  0  0
  -30.0599  -20.7663   21.1392 C   0  0  0  0  0  0  0  0  0  0  0  0
  -18.1609  -29.7665   24.4151 C   0  0  0  0  0  0  0  0  0  0  0  0
  -23.1315  -27.6515   20.0180 C   0  0  0  0  0  0  0  0  0  0  0  0
  -24.9703  -26.2308   21.8470 C   0  0  0  0  0  0  0  0  0  0  0  0
  -19.0881  -28.5821   24.6757 C   0  0  0  0  0  0  0  0  0  0  0  0
  -31.3643  -18.3596   23.4160 C   0  0  0  0  0  0  0  0  0  0  0  0
  -20.5346  -29.0522   24.7921 C   0  0  0  0  0  0  0  0  0  0  0  0
  -30.7995  -17.0326   22.9039 C   0  0  0  0  0  0  0  0  0  0  0  0
  -30.3622  -19.5016   23.2569 C   0  0  0  0  0  0  0  0  0  0  0  0
  -29.2515  -18.3376   21.3913 C   0  0  0  0  0  0  0  0  0  0  0  0
  -21.0084  -29.7072   23.4891 C   0  0  1  0  0  0  0  0  0  0  0  0
  -22.6477  -27.0445   21.3313 C   0  0  1  0  0  0  0  0  0  0  0  0
  -30.2487  -17.1701   21.4709 C   0  0  2  0  0  0  0  0  0  0  0  0
  -24.9713  -19.6641   21.6972 C   0  0  0  0  0  0  0  0  0  0  0  0
  -23.6261  -25.0125   25.3654 C   0  0  0  0  0  0  0  0  0  0  0  0
  -24.5911  -22.7078   25.2062 C   0  0  0  0  0  0  0  0  0  0  0  0
  -22.1679  -23.0782   24.7437 C   0  0  0  0  0  0  0  0  0  0  0  0
  -25.0024  -21.9057   18.6231 C   0  0  0  0  0  0  0  0  0  0  0  0
  -30.8852  -27.9010   19.5429 C   0  0  0  0  0  0  0  0  0  0  0  0
  -31.3737  -25.3729   19.7908 C   0  0  0  0  0  0  0  0  0  0  0  0
  -29.5665  -27.7051   20.2762 C   0  0  0  0  0  0  0  0  0  1  0  0
  -23.8852  -23.8690   23.0651 C   0  0  1  0  0  0  0  0  0  0  0  0
  -24.5787  -20.8681   20.8553 C   0  0  2  0  0  0  0  0  0  0  0  0
  -31.9167  -26.8025   19.8205 C   0  0  1  0  0  0  0  0  0  0  0  0
  -23.5771  -23.6877   24.5783 C   0  0  0  0  0  0  0  0  0  0  0  0
  -29.7733  -23.6781   16.9390 N   0  0  0  0  0  0  0  0  0  0  0  0
  -28.3297  -15.6544   21.1528 N   0  0  0  0  0  0  0  0  0  0  0  0
  -30.2252  -22.9079   19.1773 N   0  0  0  0  0  0  0  0  0  0  0  0
  -29.6440  -15.8704   20.9739 N   0  0  0  0  0  0  0  0  0  0  0  0
  -23.5212  -25.9731   21.8144 N   0  0  0  0  0  0  0  0  0  0  0  0
  -29.8872  -19.5738   21.8734 N   0  0  0  0  0  0  0  0  0  0  0  0
  -31.6130  -14.9022   20.0816 N   0  0  0  0  0  0  0  0  0  0  0  0
  -28.4525  -11.7832   19.2576 N   0  0  0  0  0  0  0  0  0  0  0  0
  -29.5986  -20.7060   19.8247 N   0  0  0  0  0  0  0  0  0  0  0  0
  -30.8182  -25.0488   18.4968 N   0  0  0  0  0  0  0  0  0  0  0  0
  -21.3220  -28.6975   22.5008 N   0  0  0  0  0  0  0  0  0  0  0  0
  -23.8192  -22.6349   22.2899 N   0  0  0  0  0  0  0  0  0  0  0  0
  -25.3113  -20.7945   19.5596 N   0  3  0  0  0  0  0  0  0  0  0  0
  -30.6802  -12.2804   19.0362 O   0  0  0  0  0  0  0  0  0  0  0  0
  -23.5040  -28.2442   23.1758 O   0  0  0  0  0  0  0  0  0  0  0  0
  -21.7307  -24.5938   22.3873 O   0  0  0  0  0  0  0  0  0  0  0  0
  -25.9970  -22.7156   21.4975 O   0  0  0  0  0  0  0  0  0  0  0  0
  -30.6036  -21.7583   21.6314 O   0  0  0  0  0  0  0  0  0  0  0  0
  -32.9702  -26.9006   18.8602 O   0  0  0  0  0  0  0  0  0  0  0  0
  -23.0540  -12.1335   20.5876 O   0  0  0  0  0  0  0  0  0  0  0  0
  -28.6842  -28.7699   19.9240 O   0  0  0  0  0  0  0  0  0  1  0  0
  -22.6459   -6.8211   22.0075 F   0  0  0  0  0  0  0  0  0  0  0  0
  -21.5174  -11.3576   22.7508 F   0  0  0  0  0  0  0  0  0  0  0  0
  1  2  1  0  0  0  0
  1  5  2  0  0  0  0
  2  6  2  0  0  0  0
  3  8  2  0  0  0  0
  3 17  1  0  0  0  0
  4  9  1  0  0  0  0
  4 17  2  0  0  0  0
  5 19  1  0  0  0  0
  6 21  1  0  0  0  0
  7 10  2  0  0  0  0
  7 20  1  0  0  0  0
  8 23  1  0  0  0  0
  9 23  2  0  0  0  0
 10 24  1  0  0  0  0
 11 12  2  0  0  0  0
 11 25  1  0  0  0  0
 12 26  1  0  0  0  0
 13 16  1  0  0  0  0
 13 29  2  0  0  0  0
 14 22  1  0  0  0  0
 14 24  2  0  0  0  0
 15 26  2  0  0  0  0
 15 27  1  0  0  0  0
 16 61  2  0  0  0  0
 17 28  1  0  0  0  0
 18 28  1  0  0  0  0
 18 30  2  0  0  0  0
 18 32  1  0  0  0  0
 19 21  2  0  0  0  0
 19 37  1  0  0  0  0
 20 22  2  0  0  0  0
 20 38  1  0  0  0  0
 21 46  1  0  0  0  0
 22 39  1  0  0  0  0
 23 80  1  0  0  0  0
 24 81  1  0  0  0  0
 25 27  2  0  0  0  0
 25 80  1  0  0  0  0
 26 82  1  0  0  0  0
 27 83  1  0  0  0  0
 28 62  2  0  0  0  0
 29 63  1  0  0  0  0
 29 69  1  0  0  0  0
 30 64  1  0  0  0  0
 30 67  1  0  0  0  0
 31 61  1  0  0  0  0
 31 63  2  0  0  0  0
 31 70  1  0  0  0  0
 32 68  1  0  0  0  0
 32 74  2  0  0  0  0
 33 47  1  0  0  0  0
 33 71  1  0  0  0  0
 33 75  2  0  0  0  0
 34 57  1  0  0  0  0
 34 65  1  0  0  0  0
 34 76  2  0  0  0  0
 35 58  1  0  0  0  0
 35 72  1  0  0  0  0
 35 77  2  0  0  0  0
 36 66  1  0  0  0  0
 36 69  1  0  0  0  0
 36 78  2  0  0  0  0
 37 40  1  0  0  0  0
 38 47  1  0  0  0  0
 39 65  1  0  0  0  0
 40 42  1  0  0  0  0
 41 43  1  0  0  0  0
 41 44  1  0  0  0  0
 42 46  1  0  0  0  0
 43 48  1  0  0  0  0
 44 66  1  0  0  0  0
 45 48  1  0  0  0  0
 45 66  1  0  0  0  0
 46 71  1  0  0  0  0
 47 65  1  0  0  0  0
 48 64  1  0  0  0  0
 49 58  1  0  0  0  0
 50 60  1  0  0  0  0
 51 60  1  0  0  0  0
 52 60  1  0  0  0  0
 53 73  1  0  0  0  0
 54 56  1  0  0  0  0
 54 59  1  0  0  0  0
 55 59  1  0  0  0  0
 55 70  1  0  0  0  0
 56 81  1  0  0  0  0
 57 60  1  0  0  0  0
 57 72  1  0  0  0  0
 58 73  1  0  0  0  0
 59 79  1  0  0  0  0
 62 64  1  0  0  0  0
M  CHG  1  73   1
M  ISO  4  36 100  56 101  69 100  81 101
M  END
> <Batch ID>
0193

> <Smiles>
CNC(C)C(=O)NC(C(=O)N1Cc2cc([101O:1][101CH2:1]CC(O)CNc3nccc([100NH:0][100C:0](=O)N4CCCC(n5nc(-c6ccc(Oc7ccc(F)cc7F)cc6)c(C(N)=O)c5N)C4)n3)ccc2CC1C(=O)NC1CCCc2ccccc21)C(C)(C)C

> <Shape>
0.282

> <Color>
0.092

> <Negative vol penalty>
0.000

$$$$

  -OEChem-04052305303D

 87 95  0     1  0  0  0  0  0999 V2000
  -26.3718  -36.9466   21.3125 C   0  0  0  0  0  0  0  0  0  0  0  0
  -27.3485  -36.0018   21.0146 C   0  0  0  0  0  0  0  0  0  0  0  0
  -23.0261   -9.9304   19.8968 C   0  0  0  0  0  0  0  0  0  0  0  0
  -23.8921   -9.7335   22.1437 C   0  0  0  0  0  0  0  0  0  0  0  0
  -25.2052  -36.5581   21.9699 C   0  0  0  0  0  0  0  0  0  0  0  0
  -27.1598  -34.6681   21.3750 C   0  0  0  0  0  0  0  0  0  0  0  0
  -28.6768  -28.0220   19.1737 C   0  0  0  0  0  0  0  0  0  0  0  0
  -22.2780   -8.7680   20.0833 C   0  0  0  0  0  0  0  0  0  0  0  0
  -23.1439   -8.5711   22.3302 C   0  0  0  0  0  0  0  0  0  0  0  0
  -29.2411  -26.8355   19.6400 C   0  0  0  0  0  0  0  0  0  0  0  0
  -19.9361   -7.7587   23.0161 C   0  0  0  0  0  0  0  0  0  0  0  0
  -19.2341   -7.6269   24.2142 C   0  0  0  0  0  0  0  0  0  0  0  0
  -27.1513  -26.2658   20.7017 C   0  0  0  0  0  0  0  0  0  0  0  0
  -20.4802   -5.6208   24.7237 C   0  0  0  0  0  0  0  0  0  0  0  0
  -29.9611  -17.4504   23.0068 C   0  0  0  0  0  0  0  0  0  0  0  0
  -23.8332  -10.4132   20.9270 C   0  0  0  0  0  0  0  0  0  0  0  0
  -24.2057  -12.9356   21.0053 C   0  0  0  0  0  0  0  0  0  0  0  0
  -24.9978  -35.2172   22.3299 C   0  0  0  0  0  0  0  0  0  0  0  0
  -27.3465  -28.3451   19.4776 C   0  0  0  0  0  0  0  0  0  0  0  0
  -25.9900  -34.2615   22.0390 C   0  0  0  0  0  0  0  0  0  0  0  0
  -26.5716  -27.4558   20.2359 C   0  0  0  0  0  0  0  0  0  0  0  0
  -22.3369   -8.0884   21.2999 C   0  0  0  0  0  0  0  0  0  0  0  0
  -28.4792  -25.9585   20.4065 C   0  0  0  0  0  0  0  0  0  0  0  0
  -20.9102   -6.8215   22.6718 C   0  0  0  0  0  0  0  0  0  0  0  0
  -19.5061   -6.5580   25.0679 C   0  0  0  0  0  0  0  0  0  0  0  0
  -21.1822   -5.7526   23.5255 C   0  0  0  0  0  0  0  0  0  0  0  0
  -24.6066  -11.6135   20.7348 C   0  0  0  0  0  0  0  0  0  0  0  0
  -31.6104  -19.0297   23.1279 C   0  0  0  0  0  0  0  0  0  0  0  0
  -30.7091  -16.7391   22.0946 C   0  0  0  0  0  0  0  0  0  0  0  0
  -32.3588  -18.3181   22.2163 C   0  0  0  0  0  0  0  0  0  0  0  0
  -25.2905  -13.7018   20.6553 C   0  0  0  0  0  0  0  0  0  0  0  0
  -22.9637  -13.4271   21.5266 C   0  0  0  0  0  0  0  0  0  0  0  0
  -32.0625  -20.3007   23.7285 C   0  0  0  0  0  0  0  0  0  0  0  0
  -25.9161  -30.6976   21.0661 C   0  0  0  0  0  0  0  0  0  0  0  0
  -23.2165  -29.2725   19.9689 C   0  0  0  0  0  0  0  0  0  0  0  0
  -21.6964  -26.4404   18.8220 C   0  0  0  0  0  0  0  0  0  0  0  0
  -30.7735  -14.6713   20.6572 C   0  0  0  0  0  0  0  0  0  0  0  0
  -23.7418  -34.8532   23.0813 C   0  0  0  0  0  0  0  0  0  0  0  0
  -26.7444  -29.6162   18.9447 C   0  0  0  0  0  0  0  0  0  0  0  0
  -25.1327  -27.7464   20.5728 C   0  0  0  0  0  0  0  0  0  0  0  0
  -23.4528  -33.3543   23.0949 C   0  0  0  0  0  0  0  0  0  0  0  0
  -29.5149  -12.4803   18.1486 C   0  0  0  0  0  0  0  0  0  0  0  0
  -24.7152  -32.5704   23.4394 C   0  0  0  0  0  0  0  0  0  0  0  0
  -28.0928  -12.1682   18.6201 C   0  0  0  0  0  0  0  0  0  0  0  0
  -30.4883  -12.5960   19.3203 C   0  0  0  0  0  0  0  0  0  0  0  0
  -28.6585  -13.2199   20.8474 C   0  0  0  0  0  0  0  0  0  0  0  0
  -25.8108  -32.8007   22.3915 C   0  0  1  0  0  0  0  0  0  0  0  0
  -25.5353  -30.0870   19.7470 C   0  0  1  0  0  0  0  0  0  0  0  0
  -27.6294  -13.1581   19.7068 C   0  0  2  0  0  0  0  0  0  0  0  0
  -19.4738  -25.5759   18.0411 C   0  0  0  0  0  0  0  0  0  0  0  0
  -30.0298  -24.1360   23.5209 C   0  0  0  0  0  0  0  0  0  0  0  0
  -34.2937  -22.5988   23.4761 C   0  0  0  0  0  0  0  0  0  0  0  0
  -22.2381  -29.1856   22.8576 C   0  0  0  0  0  0  0  0  0  0  0  0
  -20.5184  -27.5086   22.1514 C   0  0  0  0  0  0  0  0  0  0  0  0
  -20.4887  -29.8069   21.1819 C   0  0  0  0  0  0  0  0  0  0  0  0
  -22.7680  -25.7665   16.1468 C   0  0  0  0  0  0  0  0  0  0  0  0
  -32.2947  -23.7216   22.4176 C   0  0  0  0  0  0  0  0  0  0  0  0
  -30.4309  -24.8040   21.1236 C   0  0  0  0  0  0  0  0  0  1  0  0
  -22.2980  -28.1877   20.4772 C   0  0  1  0  0  0  0  0  0  0  0  0
  -20.7988  -26.1940   17.6228 C   0  0  2  0  0  0  0  0  0  0  0  0
  -30.7653  -23.7850   22.2229 C   0  0  2  0  0  0  0  0  0  0  0  0
  -32.7742  -22.6409   23.3915 C   0  0  1  0  0  0  0  0  0  0  0  0
  -21.4134  -28.6673   21.6625 C   0  0  0  0  0  0  0  0  0  0  0  0
  -30.3982  -18.6085   23.5397 N   0  0  0  0  0  0  0  0  0  0  0  0
  -25.8491  -11.5405   20.2500 N   0  0  0  0  0  0  0  0  0  0  0  0
  -31.9215  -17.1602   21.6831 N   0  0  0  0  0  0  0  0  0  0  0  0
  -26.2382  -12.8263   20.2132 N   0  0  0  0  0  0  0  0  0  0  0  0
  -24.5913  -29.0050   20.0340 N   0  0  0  0  0  0  0  0  0  0  0  0
  -29.9858  -13.5540   20.3076 N   0  0  0  0  0  0  0  0  0  0  0  0
  -33.6230  -18.8149   21.8262 N   0  0  0  0  0  0  0  0  0  0  0  0
  -25.5166  -15.0324   20.6854 N   0  0  0  0  0  0  0  0  0  0  0  0
  -21.9555  -12.5031   21.8334 N   0  0  0  0  0  0  0  0  0  0  0  0
  -32.1927  -20.3578   25.0539 N   0  0  0  0  0  0  0  0  0  0  0  0
  -30.1784  -15.5298   21.5810 N   0  0  0  0  0  0  0  0  0  0  0  0
  -25.5439  -32.0215   21.2016 N   0  0  0  0  0  0  0  0  0  0  0  0
  -21.5434  -27.7167   19.3208 N   0  0  0  0  0  0  0  0  0  0  0  0
  -32.3165  -21.3312   22.9149 N   0  3  0  0  0  0  0  0  0  0  0  0
  -21.4638  -25.2724   16.6588 N   0  3  0  0  0  0  0  0  0  0  0  0
  -22.7483  -14.6507   21.6992 O   0  0  0  0  0  0  0  0  0  0  0  0
  -26.5027  -30.0176   21.8998 O   0  0  0  0  0  0  0  0  0  0  0  0
  -22.7318  -30.3158   19.5236 O   0  0  0  0  0  0  0  0  0  0  0  0
  -22.4546  -25.5849   19.2736 O   0  0  0  0  0  0  0  0  0  0  0  0
  -31.8819  -14.8674   20.1522 O   0  0  0  0  0  0  0  0  0  0  0  0
  -21.6069   -6.9542   21.4823 O   0  0  0  0  0  0  0  0  0  0  0  0
  -29.0278  -24.8000   20.8634 O   0  0  0  0  0  0  0  0  0  1  0  0
  -18.8330   -6.4324   26.2191 F   0  0  0  0  0  0  0  0  0  0  0  0
  -22.1177   -4.8497   23.2007 F   0  0  0  0  0  0  0  0  0  0  0  0
  1  2  1  0  0  0  0
  1  5  2  0  0  0  0
  2  6  2  0  0  0  0
  3  8  2  0  0  0  0
  3 16  1  0  0  0  0
  4  9  1  0  0  0  0
  4 16  2  0  0  0  0
  5 18  1  0  0  0  0
  6 20  1  0  0  0  0
  7 10  2  0  0  0  0
  7 19  1  0  0  0  0
  8 22  1  0  0  0  0
  9 22  2  0  0  0  0
 10 23  1  0  0  0  0
 11 12  2  0  0  0  0
 11 24  1  0  0  0  0
 12 25  1  0  0  0  0
 13 21  1  0  0  0  0
 13 23  2  0  0  0  0
 14 25  2  0  0  0  0
 14 26  1  0  0  0  0
 15 29  1  0  0  0  0
 15 64  2  0  0  0  0
 16 27  1  0  0  0  0
 17 27  1  0  0  0  0
 17 31  2  0  0  0  0
 17 32  1  0  0  0  0
 18 20  2  0  0  0  0
 18 38  1  0  0  0  0
 19 21  2  0  0  0  0
 19 39  1  0  0  0  0
 20 47  1  0  0  0  0
 21 40  1  0  0  0  0
 22 84  1  0  0  0  0
 23 85  1  0  0  0  0
 24 26  2  0  0  0  0
 24 84  1  0  0  0  0
 25 86  1  0  0  0  0
 26 87  1  0  0  0  0
 27 65  2  0  0  0  0
 28 30  2  0  0  0  0
 28 33  1  0  0  0  0
 28 64  1  0  0  0  0
 29 66  2  0  0  0  0
 29 74  1  0  0  0  0
 30 66  1  0  0  0  0
 30 70  1  0  0  0  0
 31 67  1  0  0  0  0
 31 71  1  0  0  0  0
 32 72  1  0  0  0  0
 32 79  2  0  0  0  0
 33 73  1  0  0  0  0
 33 77  2  0  0  0  0
 34 48  1  0  0  0  0
 34 75  1  0  0  0  0
 34 80  2  0  0  0  0
 35 59  1  0  0  0  0
 35 68  1  0  0  0  0
 35 81  2  0  0  0  0
 36 60  1  0  0  0  0
 36 76  1  0  0  0  0
 36 82  2  0  0  0  0
 37 69  1  0  0  0  0
 37 74  1  0  0  0  0
 37 83  2  0  0  0  0
 38 41  1  0  0  0  0
 39 48  1  0  0  0  0
 40 68  1  0  0  0  0
 41 43  1  0  0  0  0
 42 44  1  0  0  0  0
 42 45  1  0  0  0  0
 43 47  1  0  0  0  0
 44 49  1  0  0  0  0
 45 69  1  0  0  0  0
 46 49  1  0  0  0  0
 46 69  1  0  0  0  0
 47 75  1  0  0  0  0
 48 68  1  0  0  0  0
 49 67  1  0  0  0  0
 50 60  1  0  0  0  0
 51 61  1  0  0  0  0
 52 62  1  0  0  0  0
 53 63  1  0  0  0  0
 54 63  1  0  0  0  0
 55 63  1  0  0  0  0
 56 78  1  0  0  0  0
 57 61  1  0  0  0  0
 57 62  1  0  0  0  0
 58 61  1  0  0  0  0
 58 85  1  0  0  0  0
 59 63  1  0  0  0  0
 59 76  1  0  0  0  0
 60 78  1  0  0  0  0
 62 77  1  0  0  0  0
 65 67  1  0  0  0  0
M  CHG  2  77   1  78   1
M  ISO  4  37 100  58 101  74 100  85 101
M  END
> <Batch ID>
0193

> <Smiles>
CNC(C)C(=O)NC(C(=O)N1Cc2cc([101O:1][101CH2:1]C(C)CC(C)NC(=N)c3ncc([100NH:0][100C:0](=O)N4CCCC(n5nc(-c6ccc(Oc7ccc(F)cc7F)cc6)c(C(N)=O)c5N)C4)nc3N)ccc2CC1C(=O)NC1CCCc2ccccc21)C(C)(C)C

> <Shape>
0.328

> <Color>
0.181

> <Negative vol penalty>
0.000

$$$$

  -OEChem-04052305303D

 86 94  0     1  0  0  0  0  0999 V2000
  -19.1935  -29.6574   13.6038 C   0  0  0  0  0  0  0  0  0  0  0  0
  -19.3536  -28.5882   14.4793 C   0  0  0  0  0  0  0  0  0  0  0  0
  -23.0734   -9.8499   19.9082 C   0  0  0  0  0  0  0  0  0  0  0  0
  -23.8516   -9.8096   22.1951 C   0  0  0  0  0  0  0  0  0  0  0  0
  -19.9169  -29.6957   12.4125 C   0  0  0  0  0  0  0  0  0  0  0  0
  -20.2365  -27.5561   14.1635 C   0  0  0  0  0  0  0  0  0  0  0  0
  -23.6790  -24.3319   18.0699 C   0  0  0  0  0  0  0  0  0  0  0  0
  -22.3536   -8.6764   20.1324 C   0  0  0  0  0  0  0  0  0  0  0  0
  -23.1317   -8.6361   22.4194 C   0  0  0  0  0  0  0  0  0  0  0  0
  -23.5085  -23.0785   18.6561 C   0  0  0  0  0  0  0  0  0  0  0  0
  -19.9243   -7.7605   23.0245 C   0  0  0  0  0  0  0  0  0  0  0  0
  -19.1777   -7.6745   24.1996 C   0  0  0  0  0  0  0  0  0  0  0  0
  -24.8690  -22.0909   16.9261 C   0  0  0  0  0  0  0  0  0  0  0  0
  -20.4616   -5.7421   24.8737 C   0  0  0  0  0  0  0  0  0  0  0  0
  -23.8225  -10.4165   20.9395 C   0  0  0  0  0  0  0  0  0  0  0  0
  -24.1154  -12.9501   20.8855 C   0  0  0  0  0  0  0  0  0  0  0  0
  -20.8163  -28.6684   12.0865 C   0  0  0  0  0  0  0  0  0  0  0  0
  -24.4380  -24.4728   16.8992 C   0  0  0  0  0  0  0  0  0  0  0  0
  -20.9716  -27.5801   12.9662 C   0  0  0  0  0  0  0  0  0  0  0  0
  -25.0497  -23.3476   16.3284 C   0  0  0  0  0  0  0  0  0  0  0  0
  -22.3827   -8.0695   21.3880 C   0  0  0  0  0  0  0  0  0  0  0  0
  -24.1012  -21.9573   18.0826 C   0  0  0  0  0  0  0  0  0  0  0  0
  -20.9394   -6.8373   22.7739 C   0  0  0  0  0  0  0  0  0  0  0  0
  -19.4464   -6.6653   25.1242 C   0  0  0  0  0  0  0  0  0  0  0  0
  -21.2081   -5.8281   23.6986 C   0  0  0  0  0  0  0  0  0  0  0  0
  -24.5667  -11.6284   20.7084 C   0  0  0  0  0  0  0  0  0  0  0  0
  -25.1902  -13.7299   20.5344 C   0  0  0  0  0  0  0  0  0  0  0  0
  -30.4433  -18.0928   21.0588 C   0  0  0  0  0  0  0  0  0  0  0  0
  -31.1654  -19.4571   19.4298 C   0  0  0  0  0  0  0  0  0  0  0  0
  -29.0789  -19.6695   20.2286 C   0  0  0  0  0  0  0  0  0  0  0  0
  -22.8388  -13.4299   21.3279 C   0  0  0  0  0  0  0  0  0  0  0  0
  -23.8306  -25.4497   13.9360 C   0  0  0  0  0  0  0  0  0  0  0  0
  -27.0393  -25.1248   13.5876 C   0  0  0  0  0  0  0  0  0  0  0  0
  -29.9333  -23.6527   14.6386 C   0  0  0  0  0  0  0  0  0  0  0  0
  -30.6549  -14.8484   20.7087 C   0  0  0  0  0  0  0  0  0  0  0  0
  -21.5410  -28.7301   10.7653 C   0  0  0  0  0  0  0  0  0  0  0  0
  -24.6345  -25.8358   16.2941 C   0  0  0  0  0  0  0  0  0  0  0  0
  -25.8910  -23.4484   15.0832 C   0  0  0  0  0  0  0  0  0  0  0  0
  -22.7352  -27.7830   10.6807 C   0  0  0  0  0  0  0  0  0  0  0  0
  -29.5435  -12.5078   18.2668 C   0  0  0  0  0  0  0  0  0  0  0  0
  -22.3558  -26.3983   11.1961 C   0  0  0  0  0  0  0  0  0  0  0  0
  -28.1154  -12.1750   18.7025 C   0  0  0  0  0  0  0  0  0  0  0  0
  -30.4659  -12.7137   19.4663 C   0  0  0  0  0  0  0  0  0  0  0  0
  -28.5620  -13.3705   20.8866 C   0  0  0  0  0  0  0  0  0  0  0  0
  -21.9382  -26.4538   12.6705 C   0  0  1  0  0  0  0  0  0  0  0  0
  -25.0025  -25.7852   14.8144 C   0  0  1  0  0  0  0  0  0  0  0  0
  -27.5818  -13.2091   19.7121 C   0  0  2  0  0  0  0  0  0  0  0  0
  -24.5072  -18.1561   17.4556 C   0  0  0  0  0  0  0  0  0  0  0  0
  -32.3898  -23.5560   14.1352 C   0  0  0  0  0  0  0  0  0  0  0  0
  -27.0150  -20.5010   22.4799 C   0  0  0  0  0  0  0  0  0  0  0  0
  -26.4713  -23.3542   11.1685 C   0  0  0  0  0  0  0  0  0  0  0  0
  -28.8360  -22.5415   11.2957 C   0  0  0  0  0  0  0  0  0  0  0  0
  -28.3696  -24.9543   10.8675 C   0  0  0  0  0  0  0  0  0  0  0  0
  -30.6415  -24.6854   17.3202 C   0  0  0  0  0  0  0  0  0  0  0  0
  -30.6900  -16.9657   22.0030 C   0  0  0  0  0  0  0  0  0  0  0  0
  -24.8959  -18.5465   18.8760 C   0  0  0  0  0  0  0  0  0  0  0  0
  -25.4329  -20.4834   20.5203 C   0  0  0  0  0  0  0  0  0  0  0  0
  -27.9617  -24.0035   13.1743 C   0  0  1  0  0  0  0  0  0  0  0  0
  -31.3008  -24.2313   14.9542 C   0  0  2  0  0  0  0  0  0  0  0  0
  -26.7510  -19.9399   21.0852 C   0  0  1  0  0  0  0  0  0  0  0  0
  -25.1142  -20.0506   19.0797 C   0  0  2  0  0  0  0  0  0  1  0  0
  -27.8922  -23.7108   11.6489 C   0  0  0  0  0  0  0  0  0  0  0  0
  -25.8297  -11.5682   20.2781 N   0  0  0  0  0  0  0  0  0  0  0  0
  -31.4591  -18.4356   20.2502 N   0  0  0  0  0  0  0  0  0  0  0  0
  -29.2282  -18.6627   21.1044 N   0  0  0  0  0  0  0  0  0  0  0  0
  -30.0003  -20.1212   19.3627 N   0  0  0  0  0  0  0  0  0  0  0  0
  -26.1812  -12.8617   20.1817 N   0  0  0  0  0  0  0  0  0  0  0  0
  -26.0482  -24.8018   14.5254 N   0  0  0  0  0  0  0  0  0  0  0  0
  -29.9032  -13.7072   20.3840 N   0  0  0  0  0  0  0  0  0  0  0  0
  -25.3747  -15.0666   20.4959 N   0  0  0  0  0  0  0  0  0  0  0  0
  -32.1854  -19.8745   18.5472 N   0  0  0  0  0  0  0  0  0  0  0  0
  -21.8471  -12.4928   21.6480 N   0  0  0  0  0  0  0  0  0  0  0  0
  -27.8505  -20.3060   20.2175 N   0  0  0  0  0  0  0  0  0  0  0  0
  -23.1040  -26.5500   13.5227 N   0  0  0  0  0  0  0  0  0  0  0  0
  -29.2902  -24.3706   13.6525 N   0  0  0  0  0  0  0  0  0  0  0  0
  -30.0451  -15.7425   21.5802 N   0  0  0  0  0  0  0  0  0  0  0  0
  -31.6188  -24.0506   16.3989 N   0  3  0  0  0  0  0  0  0  0  0  0
  -22.5797  -14.6538   21.4204 O   0  0  0  0  0  0  0  0  0  0  0  0
  -23.6033  -24.2792   13.6529 O   0  0  0  0  0  0  0  0  0  0  0  0
  -27.1969  -26.2477   13.1019 O   0  0  0  0  0  0  0  0  0  0  0  0
  -29.4823  -22.6608   15.2072 O   0  0  0  0  0  0  0  0  0  0  0  0
  -31.7836  -15.0578   20.2514 O   0  0  0  0  0  0  0  0  0  0  0  0
  -21.6802   -6.9245   21.6072 O   0  0  0  0  0  0  0  0  0  0  0  0
  -23.9358  -20.7327   18.6525 O   0  0  0  0  0  0  0  0  0  1  0  0
  -18.7304   -6.5838   26.2533 F   0  0  0  0  0  0  0  0  0  0  0  0
  -22.1829   -4.9389   23.4640 F   0  0  0  0  0  0  0  0  0  0  0  0
  1  2  1  0  0  0  0
  1  5  2  0  0  0  0
  2  6  2  0  0  0  0
  3  8  2  0  0  0  0
  3 15  1  0  0  0  0
  4  9  1  0  0  0  0
  4 15  2  0  0  0  0
  5 17  1  0  0  0  0
  6 19  1  0  0  0  0
  7 10  2  0  0  0  0
  7 18  1  0  0  0  0
  8 21  1  0  0  0  0
  9 21  2  0  0  0  0
 10 22  1  0  0  0  0
 11 12  2  0  0  0  0
 11 23  1  0  0  0  0
 12 24  1  0  0  0  0
 13 20  1  0  0  0  0
 13 22  2  0  0  0  0
 14 24  2  0  0  0  0
 14 25  1  0  0  0  0
 15 26  1  0  0  0  0
 16 26  1  0  0  0  0
 16 27  2  0  0  0  0
 16 31  1  0  0  0  0
 17 19  2  0  0  0  0
 17 36  1  0  0  0  0
 18 20  2  0  0  0  0
 18 37  1  0  0  0  0
 19 45  1  0  0  0  0
 20 38  1  0  0  0  0
 21 83  1  0  0  0  0
 22 84  1  0  0  0  0
 23 25  2  0  0  0  0
 23 83  1  0  0  0  0
 24 85  1  0  0  0  0
 25 86  1  0  0  0  0
 26 63  2  0  0  0  0
 27 67  1  0  0  0  0
 27 70  1  0  0  0  0
 28 55  1  0  0  0  0
 28 64  2  0  0  0  0
 28 65  1  0  0  0  0
 29 64  1  0  0  0  0
 29 66  2  0  0  0  0
 29 71  1  0  0  0  0
 30 65  2  0  0  0  0
 30 66  1  0  0  0  0
 30 73  1  0  0  0  0
 31 72  1  0  0  0  0
 31 78  2  0  0  0  0
 32 46  1  0  0  0  0
 32 74  1  0  0  0  0
 32 79  2  0  0  0  0
 33 58  1  0  0  0  0
 33 68  1  0  0  0  0
 33 80  2  0  0  0  0
 34 59  1  0  0  0  0
 34 75  1  0  0  0  0
 34 81  2  0  0  0  0
 35 69  1  0  0  0  0
 35 76  1  0  0  0  0
 35 82  2  0  0  0  0
 36 39  1  0  0  0  0
 37 46  1  0  0  0  0
 38 68  1  0  0  0  0
 39 41  1  0  0  0  0
 40 42  1  0  0  0  0
 40 43  1  0  0  0  0
 41 45  1  0  0  0  0
 42 47  1  0  0  0  0
 43 69  1  0  0  0  0
 44 47  1  0  0  0  0
 44 69  1  0  0  0  0
 45 74  1  0  0  0  0
 46 68  1  0  0  0  0
 47 67  1  0  0  0  0
 48 56  1  0  0  0  0
 49 59  1  0  0  0  0
 50 60  1  0  0  0  0
 51 62  1  0  0  0  0
 52 62  1  0  0  0  0
 53 62  1  0  0  0  0
 54 77  1  0  0  0  0
 55 76  1  0  0  0  0
 56 61  1  0  0  0  0
 57 60  1  0  0  0  0
 57 61  1  0  0  0  0
 58 62  1  0  0  0  0
 58 75  1  0  0  0  0
 59 77  1  0  0  0  0
 60 73  1  0  0  0  0
 61 84  1  0  0  0  0
 63 67  1  0  0  0  0
M  CHG  1  77   1
M  ISO  4  35 100  61 101  76 100  84 101
M  END
> <Batch ID>
0193

> <Smiles>
CC[101CH:1](CC(C)Nc1nc(N)nc(C[100NH:0][100C:0](=O)N2CCCC(n3nc(-c4ccc(Oc5ccc(F)cc5F)cc4)c(C(N)=O)c3N)C2)n1)[101O:1]c1ccc2c(c1)CN(C(=O)C(NC(=O)C(C)NC)C(C)(C)C)C(C(=O)NC1CCCc3ccccc31)C2

> <Shape>
0.204

> <Color>
0.185

> <Negative vol penalty>
0.000

$$$$

  -OEChem-04052305303D

 86 94  0     1  0  0  0  0  0999 V2000
  -31.3201  -28.1627    8.8758 C   0  0  0  0  0  0  0  0  0  0  0  0
  -31.7178  -27.5450   10.0572 C   0  0  0  0  0  0  0  0  0  0  0  0
  -23.0714   -9.8713   19.9401 C   0  0  0  0  0  0  0  0  0  0  0  0
  -23.8335   -9.8744   22.2327 C   0  0  0  0  0  0  0  0  0  0  0  0
  -30.2393  -29.0435    8.8807 C   0  0  0  0  0  0  0  0  0  0  0  0
  -31.0357  -27.8087   11.2444 C   0  0  0  0  0  0  0  0  0  0  0  0
  -30.0734  -23.6093   13.9060 C   0  0  0  0  0  0  0  0  0  0  0  0
  -22.3271   -8.7182   20.1891 C   0  0  0  0  0  0  0  0  0  0  0  0
  -23.0891   -8.7213   22.4817 C   0  0  0  0  0  0  0  0  0  0  0  0
  -31.1265  -23.0656   14.6403 C   0  0  0  0  0  0  0  0  0  0  0  0
  -19.3797   -7.9213   21.6420 C   0  0  0  0  0  0  0  0  0  0  0  0
  -18.0724   -7.8766   21.1580 C   0  0  0  0  0  0  0  0  0  0  0  0
  -30.2521  -24.0900   16.6416 C   0  0  0  0  0  0  0  0  0  0  0  0
  -18.6296   -5.9351   19.8323 C   0  0  0  0  0  0  0  0  0  0  0  0
  -30.7246  -18.9051   22.8931 C   0  0  0  0  0  0  0  0  0  0  0  0
  -23.8247  -10.4493   20.9619 C   0  0  0  0  0  0  0  0  0  0  0  0
  -24.1680  -12.9745   20.8452 C   0  0  0  0  0  0  0  0  0  0  0  0
  -29.5375  -29.3107   10.0667 C   0  0  0  0  0  0  0  0  0  0  0  0
  -29.1062  -24.4078   14.5331 C   0  0  0  0  0  0  0  0  0  0  0  0
  -29.9454  -28.6950   11.2654 C   0  0  0  0  0  0  0  0  0  0  0  0
  -29.1863  -24.6406   15.9135 C   0  0  0  0  0  0  0  0  0  0  0  0
  -29.8730  -17.8386   22.7384 C   0  0  0  0  0  0  0  0  0  0  0  0
  -22.3359   -8.1433   21.4599 C   0  0  0  0  0  0  0  0  0  0  0  0
  -31.2176  -23.3083   16.0078 C   0  0  0  0  0  0  0  0  0  0  0  0
  -20.3121   -6.9730   21.2212 C   0  0  0  0  0  0  0  0  0  0  0  0
  -17.6973   -6.8835   20.2532 C   0  0  0  0  0  0  0  0  0  0  0  0
  -19.9370   -5.9799   20.3164 C   0  0  0  0  0  0  0  0  0  0  0  0
  -24.5943  -11.6401   20.7051 C   0  0  0  0  0  0  0  0  0  0  0  0
  -30.5751  -16.9454   21.9071 C   0  0  0  0  0  0  0  0  0  0  0  0
  -25.2602  -13.7238   20.4820 C   0  0  0  0  0  0  0  0  0  0  0  0
  -22.8982  -13.4904   21.2661 C   0  0  0  0  0  0  0  0  0  0  0  0
  -28.1560  -27.4268   14.2391 C   0  0  0  0  0  0  0  0  0  0  0  0
  -25.8776  -26.5072   16.3571 C   0  0  0  0  0  0  0  0  0  0  0  0
  -24.9147  -24.3542   18.8237 C   0  0  0  0  0  0  0  0  0  0  0  0
  -30.7272  -14.7659   20.6528 C   0  0  0  0  0  0  0  0  0  0  0  0
  -28.4054  -30.3065   10.0317 C   0  0  0  0  0  0  0  0  0  0  0  0
  -27.9616  -24.9649   13.7319 C   0  0  0  0  0  0  0  0  0  0  0  0
  -28.1623  -25.4743   16.6379 C   0  0  0  0  0  0  0  0  0  0  0  0
  -27.5009  -30.2440   11.2598 C   0  0  0  0  0  0  0  0  0  0  0  0
  -29.6091  -12.3561   18.2823 C   0  0  0  0  0  0  0  0  0  0  0  0
  -28.3357  -30.1922   12.5355 C   0  0  0  0  0  0  0  0  0  0  0  0
  -28.1697  -12.0647   18.7128 C   0  0  0  0  0  0  0  0  0  0  0  0
  -30.5255  -12.5827   19.4834 C   0  0  0  0  0  0  0  0  0  0  0  0
  -28.6203  -13.3063   20.8675 C   0  0  0  0  0  0  0  0  0  0  0  0
  -29.2151  -28.9364   12.5687 C   0  0  1  0  0  0  0  0  0  0  0  0
  -27.3182  -26.1874   14.3792 C   0  0  1  0  0  0  0  0  0  0  0  0
  -27.6462  -13.1353   19.6903 C   0  0  2  0  0  0  0  0  0  0  0  0
  -27.5289  -18.7601   22.8360 C   0  0  0  0  0  0  0  0  0  0  0  0
  -28.5365  -17.6602   24.8682 C   0  0  0  0  0  0  0  0  0  0  0  0
  -23.0132  -23.8767   20.3901 C   0  0  0  0  0  0  0  0  0  0  0  0
  -34.9461  -20.0984   20.4868 C   0  0  0  0  0  0  0  0  0  0  0  0
  -26.7280  -28.8606   18.1029 C   0  0  0  0  0  0  0  0  0  0  0  0
  -25.5041  -27.7976   20.0108 C   0  0  0  0  0  0  0  0  0  0  0  0
  -24.2568  -28.5010   17.9682 C   0  0  0  0  0  0  0  0  0  0  0  0
  -24.4831  -21.6652   17.6653 C   0  0  0  0  0  0  0  0  0  0  0  0
  -32.5893  -20.9409   20.0067 C   0  0  0  0  0  0  0  0  0  0  0  0
  -33.0754  -19.4548   22.0241 C   0  0  0  0  0  0  0  0  0  0  0  0
  -31.9899  -22.4770   18.0978 C   0  0  0  0  0  0  0  0  0  1  0  0
  -28.5288  -17.6832   23.3209 C   0  0  0  0  0  0  0  0  0  0  0  0
  -25.7672  -26.4763   17.8623 C   0  0  1  0  0  0  0  0  0  0  0  0
  -23.6304  -23.5727   19.0339 C   0  0  2  0  0  0  0  0  0  0  0  0
  -33.4487  -19.7778   20.5582 C   0  0  2  0  0  0  0  0  0  0  0  0
  -32.8701  -21.3112   18.5449 C   0  0  2  0  0  0  0  0  0  0  0  0
  -25.5846  -27.8947   18.4724 C   0  0  0  0  0  0  0  0  0  0  0  0
  -25.8587  -11.5441   20.2855 N   0  0  0  0  0  0  0  0  0  0  0  0
  -31.7798  -17.4045   21.5580 N   0  0  0  0  0  0  0  0  0  0  0  0
  -31.8413  -18.5979   22.1728 N   0  0  0  0  0  0  0  0  0  0  0  0
  -26.2362  -12.8277   20.1587 N   0  0  0  0  0  0  0  0  0  0  0  0
  -27.0655  -26.0022   15.8096 N   0  0  0  0  0  0  0  0  0  0  0  0
  -29.9679  -13.6126   20.3627 N   0  0  0  0  0  0  0  0  0  0  0  0
  -25.4714  -15.0552   20.4107 N   0  0  0  0  0  0  0  0  0  0  0  0
  -21.8861  -12.5814   21.6031 N   0  0  0  0  0  0  0  0  0  0  0  0
  -30.0811  -15.6902   21.4731 N   0  0  0  0  0  0  0  0  0  0  0  0
  -28.4275  -27.7773   12.9303 N   0  0  0  0  0  0  0  0  0  0  0  0
  -24.6854  -25.5482   18.1734 N   0  0  0  0  0  0  0  0  0  0  0  0
  -23.8964  -22.1084   18.9562 N   0  3  0  0  0  0  0  0  0  0  0  0
  -22.6628  -14.7211   21.3255 O   0  0  0  0  0  0  0  0  0  0  0  0
  -28.5272  -28.0220   15.2439 O   0  0  0  0  0  0  0  0  0  0  0  0
  -24.9413  -26.9560   15.6911 O   0  0  0  0  0  0  0  0  0  0  0  0
  -26.0112  -23.9479   19.2022 O   0  0  0  0  0  0  0  0  0  0  0  0
  -31.8559  -14.9346   20.1844 O   0  0  0  0  0  0  0  0  0  0  0  0
  -32.5876  -20.1821   17.7197 O   0  0  0  0  0  0  0  0  0  0  0  0
  -21.6095   -7.0182   21.7033 O   0  0  0  0  0  0  0  0  0  0  0  0
  -32.2448  -22.7793   16.7267 O   0  0  0  0  0  0  0  0  0  1  0  0
  -16.4413   -6.8397   19.7896 F   0  0  0  0  0  0  0  0  0  0  0  0
  -20.8280   -5.0654   19.9093 F   0  0  0  0  0  0  0  0  0  0  0  0
  1  2  1  0  0  0  0
  1  5  2  0  0  0  0
  2  6  2  0  0  0  0
  3  8  2  0  0  0  0
  3 16  1  0  0  0  0
  4  9  1  0  0  0  0
  4 16  2  0  0  0  0
  5 18  1  0  0  0  0
  6 20  1  0  0  0  0
  7 10  2  0  0  0  0
  7 19  1  0  0  0  0
  8 23  1  0  0  0  0
  9 23  2  0  0  0  0
 10 24  1  0  0  0  0
 11 12  2  0  0  0  0
 11 25  1  0  0  0  0
 12 26  1  0  0  0  0
 13 21  1  0  0  0  0
 13 24  2  0  0  0  0
 14 26  2  0  0  0  0
 14 27  1  0  0  0  0
 15 22  2  0  0  0  0
 15 67  1  0  0  0  0
 16 28  1  0  0  0  0
 17 28  1  0  0  0  0
 17 30  2  0  0  0  0
 17 31  1  0  0  0  0
 18 20  2  0  0  0  0
 18 36  1  0  0  0  0
 19 21  2  0  0  0  0
 19 37  1  0  0  0  0
 20 45  1  0  0  0  0
 21 38  1  0  0  0  0
 22 29  1  0  0  0  0
 22 59  1  0  0  0  0
 23 83  1  0  0  0  0
 24 84  1  0  0  0  0
 25 27  2  0  0  0  0
 25 83  1  0  0  0  0
 26 85  1  0  0  0  0
 27 86  1  0  0  0  0
 28 65  2  0  0  0  0
 29 66  2  0  0  0  0
 29 73  1  0  0  0  0
 30 68  1  0  0  0  0
 30 71  1  0  0  0  0
 31 72  1  0  0  0  0
 31 77  2  0  0  0  0
 32 46  1  0  0  0  0
 32 74  1  0  0  0  0
 32 78  2  0  0  0  0
 33 60  1  0  0  0  0
 33 69  1  0  0  0  0
 33 79  2  0  0  0  0
 34 61  1  0  0  0  0
 34 75  1  0  0  0  0
 34 80  2  0  0  0  0
 35 70  1  0  0  0  0
 35 73  1  0  0  0  0
 35 81  2  0  0  0  0
 36 39  1  0  0  0  0
 37 46  1  0  0  0  0
 38 69  1  0  0  0  0
 39 41  1  0  0  0  0
 40 42  1  0  0  0  0
 40 43  1  0  0  0  0
 41 45  1  0  0  0  0
 42 47  1  0  0  0  0
 43 70  1  0  0  0  0
 44 47  1  0  0  0  0
 44 70  1  0  0  0  0
 45 74  1  0  0  0  0
 46 69  1  0  0  0  0
 47 68  1  0  0  0  0
 48 59  1  0  0  0  0
 49 59  1  0  0  0  0
 50 61  1  0  0  0  0
 51 62  1  0  0  0  0
 52 64  1  0  0  0  0
 53 64  1  0  0  0  0
 54 64  1  0  0  0  0
 55 76  1  0  0  0  0
 56 62  1  0  0  0  0
 56 63  1  0  0  0  0
 57 62  1  0  0  0  0
 57 67  1  0  0  0  0
 58 63  1  0  0  0  0
 58 84  1  0  0  0  0
 60 64  1  0  0  0  0
 60 75  1  0  0  0  0
 61 76  1  0  0  0  0
 63 82  1  0  0  0  0
 65 68  1  0  0  0  0
 66 67  1  0  0  0  0
M  CHG  1  76   1
M  ISO  4  35 100  58 101  73 100  84 101
M  END
> <Batch ID>
0193

> <Smiles>
CNC(C)C(=O)NC(C(=O)N1Cc2cc([101O:1][101CH2:1]C(O)CC(C)Cn3cc(C(C)C)c([100NH:0][100C:0](=O)N4CCCC(n5nc(-c6ccc(Oc7ccc(F)cc7F)cc6)c(C(N)=O)c5N)C4)n3)ccc2CC1C(=O)NC1CCCc2ccccc21)C(C)(C)C

> <Shape>
0.179

> <Color>
0.180

> <Negative vol penalty>
0.000

$$$$

  -OEChem-04052305303D

 84 92  0     1  0  0  0  0  0999 V2000
  -17.1192  -28.6607   23.4246 C   0  0  0  0  0  0  0  0  0  0  0  0
  -18.4053  -28.3370   23.0042 C   0  0  0  0  0  0  0  0  0  0  0  0
  -24.6605   -9.4069   21.7453 C   0  0  0  0  0  0  0  0  0  0  0  0
  -24.1997  -10.9261   23.5665 C   0  0  0  0  0  0  0  0  0  0  0  0
  -16.8605  -29.9183   23.9681 C   0  0  0  0  0  0  0  0  0  0  0  0
  -19.4332  -29.2712   23.1262 C   0  0  0  0  0  0  0  0  0  0  0  0
  -23.6911  -27.2449   24.9728 C   0  0  0  0  0  0  0  0  0  0  0  0
  -24.2198   -8.3379   22.5255 C   0  0  0  0  0  0  0  0  0  0  0  0
  -23.7590   -9.8571   24.3467 C   0  0  0  0  0  0  0  0  0  0  0  0
  -24.4781  -26.5046   24.0917 C   0  0  0  0  0  0  0  0  0  0  0  0
  -21.2635   -7.0054   23.4834 C   0  0  0  0  0  0  0  0  0  0  0  0
  -20.4119   -6.0754   22.8871 C   0  0  0  0  0  0  0  0  0  0  0  0
  -25.9406  -28.4027   23.8129 C   0  0  0  0  0  0  0  0  0  0  0  0
  -22.0227   -4.3262   23.3149 C   0  0  0  0  0  0  0  0  0  0  0  0
  -28.5583  -21.2275   19.4626 C   0  0  0  0  0  0  0  0  0  0  0  0
  -24.6504  -10.7010   22.2659 C   0  0  0  0  0  0  0  0  0  0  0  0
  -24.3321  -12.6050   20.5982 C   0  0  0  0  0  0  0  0  0  0  0  0
  -17.8879  -30.8650   24.1057 C   0  0  0  0  0  0  0  0  0  0  0  0
  -24.0172  -28.5753   25.2726 C   0  0  0  0  0  0  0  0  0  0  0  0
  -19.1878  -30.5432   23.6708 C   0  0  0  0  0  0  0  0  0  0  0  0
  -25.1575  -29.1569   24.7001 C   0  0  0  0  0  0  0  0  0  0  0  0
  -23.7690   -8.5630   23.8262 C   0  0  0  0  0  0  0  0  0  0  0  0
  -25.6015  -27.0844   23.5094 C   0  0  0  0  0  0  0  0  0  0  0  0
  -22.4948   -6.5958   23.9953 C   0  0  0  0  0  0  0  0  0  0  0  0
  -20.7915   -4.7358   22.8029 C   0  0  0  0  0  0  0  0  0  0  0  0
  -22.8743   -5.2563   23.9111 C   0  0  0  0  0  0  0  0  0  0  0  0
  -25.1061  -11.8056   21.4606 C   0  0  0  0  0  0  0  0  0  0  0  0
  -27.1831  -21.3021   19.5346 C   0  0  0  0  0  0  0  0  0  0  0  0
  -25.2248  -13.5070   20.0728 C   0  0  0  0  0  0  0  0  0  0  0  0
  -28.1501  -19.1726   20.1113 C   0  0  0  0  0  0  0  0  0  0  0  0
  -22.9315  -12.5383   20.2989 C   0  0  0  0  0  0  0  0  0  0  0  0
  -26.2696  -22.4393   19.2527 C   0  0  0  0  0  0  0  0  0  0  0  0
  -22.5793  -31.3819   24.8738 C   0  0  0  0  0  0  0  0  0  0  0  0
  -25.1005  -32.4785   26.5952 C   0  0  0  0  0  0  0  0  0  0  0  0
  -28.3242  -32.0276   27.6204 C   0  0  0  0  0  0  0  0  0  0  0  0
  -29.4496  -17.0858   20.6613 C   0  0  0  0  0  0  0  0  0  0  0  0
  -17.5500  -32.2281   24.6555 C   0  0  0  0  0  0  0  0  0  0  0  0
  -23.1731  -29.3518   26.2457 C   0  0  0  0  0  0  0  0  0  0  0  0
  -25.5623  -30.5752   25.0048 C   0  0  0  0  0  0  0  0  0  0  0  0
  -18.7735  -33.0278   25.0955 C   0  0  0  0  0  0  0  0  0  0  0  0
  -30.2802  -13.6439   20.2859 C   0  0  0  0  0  0  0  0  0  0  0  0
  -19.8644  -32.9635   24.0312 C   0  0  0  0  0  0  0  0  0  0  0  0
  -28.9445  -12.9246   20.4871 C   0  0  0  0  0  0  0  0  0  0  0  0
  -30.4131  -14.8597   21.2012 C   0  0  0  0  0  0  0  0  0  0  0  0
  -27.9643  -15.0956   21.3314 C   0  0  0  0  0  0  0  0  0  0  0  0
  -20.3345  -31.5209   23.8095 C   0  0  1  0  0  0  0  0  0  0  0  0
  -23.3079  -30.8625   26.0808 C   0  0  1  0  0  0  0  0  0  0  0  0
  -27.7571  -13.9019   20.3849 C   0  0  2  0  0  0  0  0  0  0  0  0
  -30.1251  -33.1112   28.9915 C   0  0  0  0  0  0  0  0  0  0  0  0
  -25.6054  -34.4785   24.3468 C   0  0  0  0  0  0  0  0  0  0  0  0
  -27.8934  -34.8559   25.2905 C   0  0  0  0  0  0  0  0  0  0  0  0
  -25.8778  -35.4096   26.6519 C   0  0  0  0  0  0  0  0  0  0  0  0
  -28.4490  -29.7312   29.4832 C   0  0  0  0  0  0  0  0  0  0  0  0
  -25.9434  -25.6991   19.8020 C   0  0  0  0  0  0  0  0  0  0  0  0
  -26.1272  -24.8194   18.5664 C   0  0  0  0  0  0  0  0  0  0  0  0
  -27.0485  -27.0880   21.6221 C   0  0  0  0  0  0  0  0  0  1  0  0
  -26.4827  -32.9859   26.2621 C   0  0  1  0  0  0  0  0  0  0  0  0
  -28.9679  -32.1245   28.9918 C   0  0  2  0  0  0  0  0  0  0  0  0
  -27.2681  -26.1946   20.4038 C   0  0  2  0  0  0  0  0  0  0  0  0
  -26.4564  -34.4063   25.6304 C   0  0  0  0  0  0  0  0  0  0  0  0
  -29.1147  -20.0073   19.7933 N   0  0  0  0  0  0  0  0  0  0  0  0
  -26.3915  -12.1677   21.4845 N   0  0  0  0  0  0  0  0  0  0  0  0
  -26.4321  -13.2046   20.6304 N   0  0  0  0  0  0  0  0  0  0  0  0
  -24.7013  -31.2954   25.9574 N   0  0  0  0  0  0  0  0  0  0  0  0
  -29.2549  -15.7427   21.0473 N   0  0  0  0  0  0  0  0  0  0  0  0
  -25.0869  -14.5213   19.1927 N   0  0  0  0  0  0  0  0  0  0  0  0
  -22.1605  -11.5506   20.9267 N   0  0  0  0  0  0  0  0  0  0  0  0
  -28.2732  -17.8201   20.5152 N   0  0  0  0  0  0  0  0  0  0  0  0
  -26.8739  -23.6256   18.8514 N   0  0  0  0  0  0  0  0  0  0  0  0
  -21.2245  -31.1101   24.8743 N   0  0  0  0  0  0  0  0  0  0  0  0
  -27.2591  -32.8941   27.4939 N   0  0  0  0  0  0  0  0  0  0  0  0
  -29.4858  -30.7930   29.4162 N   0  3  0  0  0  0  0  0  0  0  0  0
  -22.3833  -13.3206   19.4859 O   0  0  0  0  0  0  0  0  0  0  0  0
  -25.0600  -22.2888   19.4028 O   0  0  0  0  0  0  0  0  0  0  0  0
  -23.2000  -31.9860   24.0069 O   0  0  0  0  0  0  0  0  0  0  0  0
  -24.4034  -33.1049   27.3973 O   0  0  0  0  0  0  0  0  0  0  0  0
  -28.7283  -31.2626   26.7475 O   0  0  0  0  0  0  0  0  0  0  0  0
  -30.5754  -17.5429   20.4478 O   0  0  0  0  0  0  0  0  0  0  0  0
  -28.0017  -26.9293   19.4284 O   0  0  0  0  0  0  0  0  0  0  0  0
  -23.3388   -7.5202   24.5877 O   0  0  0  0  0  0  0  0  0  0  0  0
  -26.3711  -26.3643   22.6486 O   0  0  0  0  0  0  0  0  0  1  0  0
  -19.9729   -3.8426   22.2317 F   0  0  0  0  0  0  0  0  0  0  0  0
  -24.0554   -4.8566   24.4022 F   0  0  0  0  0  0  0  0  0  0  0  0
  -26.5502  -19.7883   20.0338 S   0  0  0  0  0  0  0  0  0  0  0  0
  1  2  1  0  0  0  0
  1  5  2  0  0  0  0
  2  6  2  0  0  0  0
  3  8  2  0  0  0  0
  3 16  1  0  0  0  0
  4  9  1  0  0  0  0
  4 16  2  0  0  0  0
  5 18  1  0  0  0  0
  6 20  1  0  0  0  0
  7 10  2  0  0  0  0
  7 19  1  0  0  0  0
  8 22  1  0  0  0  0
  9 22  2  0  0  0  0
 10 23  1  0  0  0  0
 11 12  2  0  0  0  0
 11 24  1  0  0  0  0
 12 25  1  0  0  0  0
 13 21  1  0  0  0  0
 13 23  2  0  0  0  0
 14 25  2  0  0  0  0
 14 26  1  0  0  0  0
 15 28  2  0  0  0  0
 15 61  1  0  0  0  0
 16 27  1  0  0  0  0
 17 27  1  0  0  0  0
 17 29  2  0  0  0  0
 17 31  1  0  0  0  0
 18 20  2  0  0  0  0
 18 37  1  0  0  0  0
 19 21  2  0  0  0  0
 19 38  1  0  0  0  0
 20 46  1  0  0  0  0
 21 39  1  0  0  0  0
 22 80  1  0  0  0  0
 23 81  1  0  0  0  0
 24 26  2  0  0  0  0
 24 80  1  0  0  0  0
 25 82  1  0  0  0  0
 26 83  1  0  0  0  0
 27 62  2  0  0  0  0
 28 32  1  0  0  0  0
 28 84  1  0  0  0  0
 29 63  1  0  0  0  0
 29 66  1  0  0  0  0
 30 61  2  0  0  0  0
 30 68  1  0  0  0  0
 30 84  1  0  0  0  0
 31 67  1  0  0  0  0
 31 73  2  0  0  0  0
 32 69  1  0  0  0  0
 32 74  2  0  0  0  0
 33 47  1  0  0  0  0
 33 70  1  0  0  0  0
 33 75  2  0  0  0  0
 34 57  1  0  0  0  0
 34 64  1  0  0  0  0
 34 76  2  0  0  0  0
 35 58  1  0  0  0  0
 35 71  1  0  0  0  0
 35 77  2  0  0  0  0
 36 65  1  0  0  0  0
 36 68  1  0  0  0  0
 36 78  2  0  0  0  0
 37 40  1  0  0  0  0
 38 47  1  0  0  0  0
 39 64  1  0  0  0  0
 40 42  1  0  0  0  0
 41 43  1  0  0  0  0
 41 44  1  0  0  0  0
 42 46  1  0  0  0  0
 43 48  1  0  0  0  0
 44 65  1  0  0  0  0
 45 48  1  0  0  0  0
 45 65  1  0  0  0  0
 46 70  1  0  0  0  0
 47 64  1  0  0  0  0
 48 63  1  0  0  0  0
 49 58  1  0  0  0  0
 50 60  1  0  0  0  0
 51 60  1  0  0  0  0
 52 60  1  0  0  0  0
 53 72  1  0  0  0  0
 54 55  1  0  0  0  0
 54 59  1  0  0  0  0
 55 69  1  0  0  0  0
 56 59  1  0  0  0  0
 56 81  1  0  0  0  0
 57 60  1  0  0  0  0
 57 71  1  0  0  0  0
 58 72  1  0  0  0  0
 59 79  1  0  0  0  0
 62 63  1  0  0  0  0
M  CHG  1  72   1
M  ISO  4  36 100  56 101  68 100  81 101
M  END
> <Batch ID>
0193

> <Smiles>
CNC(C)C(=O)NC(C(=O)N1Cc2cc([101O:1][101CH2:1]C(O)CCNC(=O)c3cnc([100NH:0][100C:0](=O)N4CCCC(n5nc(-c6ccc(Oc7ccc(F)cc7F)cc6)c(C(N)=O)c5N)C4)s3)ccc2CC1C(=O)NC1CCCc2ccccc21)C(C)(C)C

> <Shape>
0.274

> <Color>
0.116

> <Negative vol penalty>
0.000

$$$$

  -OEChem-04052305303D

 84 92  0     1  0  0  0  0  0999 V2000
  -29.1430  -33.5760   24.4275 C   0  0  0  0  0  0  0  0  0  0  0  0
  -29.2531  -32.2079   24.2002 C   0  0  0  0  0  0  0  0  0  0  0  0
  -26.9593  -12.9591   21.0120 C   0  0  0  0  0  0  0  0  0  0  0  0
  -26.8855  -13.2778   18.6183 C   0  0  0  0  0  0  0  0  0  0  0  0
  -27.8867  -34.1804   24.4410 C   0  0  0  0  0  0  0  0  0  0  0  0
  -28.1066  -31.4432   23.9873 C   0  0  0  0  0  0  0  0  0  0  0  0
  -28.6170  -28.2119   20.1216 C   0  0  0  0  0  0  0  0  0  0  0  0
  -26.3329  -11.7214   20.8666 C   0  0  0  0  0  0  0  0  0  0  0  0
  -26.2591  -12.0400   18.4728 C   0  0  0  0  0  0  0  0  0  0  0  0
  -29.3425  -27.0451   20.3586 C   0  0  0  0  0  0  0  0  0  0  0  0
  -23.1995  -10.5605   20.3578 C   0  0  0  0  0  0  0  0  0  0  0  0
  -22.1547  -10.2572   21.2307 C   0  0  0  0  0  0  0  0  0  0  0  0
  -27.2794  -25.8236   20.6247 C   0  0  0  0  0  0  0  0  0  0  0  0
  -23.3807   -8.3352   22.0304 C   0  0  0  0  0  0  0  0  0  0  0  0
  -26.8321  -23.0448   15.0369 C   0  0  0  0  0  0  0  0  0  0  0  0
  -27.2356  -13.7374   19.8879 C   0  0  0  0  0  0  0  0  0  0  0  0
  -29.2658  -15.2755   20.0292 C   0  0  0  0  0  0  0  0  0  0  0  0
  -26.7250  -33.4244   24.2185 C   0  0  0  0  0  0  0  0  0  0  0  0
  -27.2150  -28.1954   20.1453 C   0  0  0  0  0  0  0  0  0  0  0  0
  -26.8335  -32.0378   23.9991 C   0  0  0  0  0  0  0  0  0  0  0  0
  -26.5385  -26.9909   20.3852 C   0  0  0  0  0  0  0  0  0  0  0  0
  -25.9828  -11.2618   19.5969 C   0  0  0  0  0  0  0  0  0  0  0  0
  -28.6738  -25.8513   20.6130 C   0  0  0  0  0  0  0  0  0  0  0  0
  -24.3350   -9.7511   20.3212 C   0  0  0  0  0  0  0  0  0  0  0  0
  -22.2453   -9.1446   22.0670 C   0  0  0  0  0  0  0  0  0  0  0  0
  -24.4256   -8.6384   21.1575 C   0  0  0  0  0  0  0  0  0  0  0  0
  -27.8821  -15.0163   20.0375 C   0  0  0  0  0  0  0  0  0  0  0  0
  -26.7774  -22.3955   16.2533 C   0  0  0  0  0  0  0  0  0  0  0  0
  -27.9975  -23.7387   14.7824 C   0  0  0  0  0  0  0  0  0  0  0  0
  -29.3617  -16.6342   20.2063 C   0  0  0  0  0  0  0  0  0  0  0  0
  -28.8610  -23.1260   16.7939 C   0  0  0  0  0  0  0  0  0  0  0  0
  -30.3661  -14.3692   19.8751 C   0  0  0  0  0  0  0  0  0  0  0  0
  -24.9844  -29.6162   21.9087 C   0  0  0  0  0  0  0  0  0  0  0  0
  -22.9696  -28.2260   19.7803 C   0  0  0  0  0  0  0  0  0  0  0  0
  -22.4193  -25.7365   17.5117 C   0  0  0  0  0  0  0  0  0  0  0  0
  -25.6250  -21.1695   19.0579 C   0  0  0  0  0  0  0  0  0  0  0  0
  -25.3855  -34.1139   24.2894 C   0  0  0  0  0  0  0  0  0  0  0  0
  -26.4468  -29.4570   19.8612 C   0  0  0  0  0  0  0  0  0  0  0  0
  -25.0343  -26.9158   20.4014 C   0  0  0  0  0  0  0  0  0  0  0  0
  -24.2472  -33.2972   23.6830 C   0  0  0  0  0  0  0  0  0  0  0  0
  -27.0592  -20.3216   22.2044 C   0  0  0  0  0  0  0  0  0  0  0  0
  -24.3072  -31.8533   24.1712 C   0  0  0  0  0  0  0  0  0  0  0  0
  -27.5576  -18.8892   22.0051 C   0  0  0  0  0  0  0  0  0  0  0  0
  -25.7503  -20.5726   21.4588 C   0  0  0  0  0  0  0  0  0  0  0  0
  -26.2806  -18.8071   19.8231 C   0  0  0  0  0  0  0  0  0  0  0  0
  -25.6149  -31.1788   23.7394 C   0  0  1  0  0  0  0  0  0  0  0  0
  -25.0269  -29.4302   20.4183 C   0  0  1  0  0  0  0  0  0  0  0  0
  -27.6270  -18.5224   20.5105 C   0  0  2  0  0  0  0  0  0  0  0  0
  -20.6632  -24.8375   15.9608 C   0  0  0  0  0  0  0  0  0  0  0  0
  -30.1558  -21.0139   18.7715 C   0  0  0  0  0  0  0  0  0  0  0  0
  -21.4892  -27.0193   22.1599 C   0  0  0  0  0  0  0  0  0  0  0  0
  -20.3890  -25.4222   20.5765 C   0  0  0  0  0  0  0  0  0  0  0  0
  -20.0086  -27.8757   20.3354 C   0  0  0  0  0  0  0  0  0  0  0  0
  -24.1260  -26.1805   15.1349 C   0  0  0  0  0  0  0  0  0  0  0  0
  -25.5571  -21.6186   16.6180 C   0  0  0  0  0  0  0  0  0  0  0  0
  -30.9215  -23.1215   19.9191 C   0  0  0  0  0  0  0  0  0  0  0  0
  -30.6521  -24.5944   20.2105 C   0  0  0  0  0  0  0  0  0  1  0  0
  -22.2519  -26.9006   19.6961 C   0  0  1  0  0  0  0  0  0  0  0  0
  -21.8602  -25.7651   16.1007 C   0  0  2  0  0  0  0  0  0  0  0  0
  -29.8804  -22.4993   18.9833 C   0  0  1  0  0  0  0  0  0  0  0  0
  -21.0630  -26.8059   20.6936 C   0  0  0  0  0  0  0  0  0  0  0  0
  -27.1515  -16.1216   20.2067 N   0  0  0  0  0  0  0  0  0  0  0  0
  -27.7772  -22.4151   17.1591 N   0  0  0  0  0  0  0  0  0  0  0  0
  -29.0358  -23.8009   15.6417 N   0  0  0  0  0  0  0  0  0  0  0  0
  -28.0796  -17.0885   20.3064 N   0  0  0  0  0  0  0  0  0  0  0  0
  -24.3279  -28.1775   20.1243 N   0  0  0  0  0  0  0  0  0  0  0  0
  -25.8838  -20.2061   20.0468 N   0  0  0  0  0  0  0  0  0  0  0  0
  -28.0940  -24.4195   13.5441 N   0  0  0  0  0  0  0  0  0  0  0  0
  -30.4168  -17.4727   20.2847 N   0  0  0  0  0  0  0  0  0  0  0  0
  -30.0897  -13.0061   19.7029 N   0  0  0  0  0  0  0  0  0  0  0  0
  -29.9063  -23.1676   17.6989 N   0  0  0  0  0  0  0  0  0  0  0  0
  -25.5510  -30.7988   22.3444 N   0  0  0  0  0  0  0  0  0  0  0  0
  -21.8735  -26.7294   18.2975 N   0  0  0  0  0  0  0  0  0  0  0  0
  -25.7811  -20.7412   17.7453 N   0  0  0  0  0  0  0  0  0  0  0  0
  -22.9011  -25.3400   15.1224 N   0  3  0  0  0  0  0  0  0  0  0  0
  -31.5594  -14.7546   19.9061 O   0  0  0  0  0  0  0  0  0  0  0  0
  -24.4741  -28.7515   22.6112 O   0  0  0  0  0  0  0  0  0  0  0  0
  -22.3496  -29.2656   19.5424 O   0  0  0  0  0  0  0  0  0  0  0  0
  -23.2538  -24.9132   17.8810 O   0  0  0  0  0  0  0  0  0  0  0  0
  -25.2854  -22.3272   19.3251 O   0  0  0  0  0  0  0  0  0  0  0  0
  -25.3718  -10.0540   19.4546 O   0  0  0  0  0  0  0  0  0  0  0  0
  -29.3795  -24.7112   20.8453 O   0  0  0  0  0  0  0  0  0  1  0  0
  -21.2425   -8.8543   22.9063 F   0  0  0  0  0  0  0  0  0  0  0  0
  -25.5144   -7.8578   21.1277 F   0  0  0  0  0  0  0  0  0  0  0  0
  1  2  1  0  0  0  0
  1  5  2  0  0  0  0
  2  6  2  0  0  0  0
  3  8  2  0  0  0  0
  3 16  1  0  0  0  0
  4  9  1  0  0  0  0
  4 16  2  0  0  0  0
  5 18  1  0  0  0  0
  6 20  1  0  0  0  0
  7 10  2  0  0  0  0
  7 19  1  0  0  0  0
  8 22  1  0  0  0  0
  9 22  2  0  0  0  0
 10 23  1  0  0  0  0
 11 12  2  0  0  0  0
 11 24  1  0  0  0  0
 12 25  1  0  0  0  0
 13 21  1  0  0  0  0
 13 23  2  0  0  0  0
 14 25  2  0  0  0  0
 14 26  1  0  0  0  0
 15 28  2  0  0  0  0
 15 29  1  0  0  0  0
 16 27  1  0  0  0  0
 17 27  1  0  0  0  0
 17 30  2  0  0  0  0
 17 32  1  0  0  0  0
 18 20  2  0  0  0  0
 18 37  1  0  0  0  0
 19 21  2  0  0  0  0
 19 38  1  0  0  0  0
 20 46  1  0  0  0  0
 21 39  1  0  0  0  0
 22 81  1  0  0  0  0
 23 82  1  0  0  0  0
 24 26  2  0  0  0  0
 24 81  1  0  0  0  0
 25 83  1  0  0  0  0
 26 84  1  0  0  0  0
 27 62  2  0  0  0  0
 28 55  1  0  0  0  0
 28 63  1  0  0  0  0
 29 64  2  0  0  0  0
 29 68  1  0  0  0  0
 30 65  1  0  0  0  0
 30 69  1  0  0  0  0
 31 63  2  0  0  0  0
 31 64  1  0  0  0  0
 31 71  1  0  0  0  0
 32 70  1  0  0  0  0
 32 76  2  0  0  0  0
 33 47  1  0  0  0  0
 33 72  1  0  0  0  0
 33 77  2  0  0  0  0
 34 58  1  0  0  0  0
 34 66  1  0  0  0  0
 34 78  2  0  0  0  0
 35 59  1  0  0  0  0
 35 73  1  0  0  0  0
 35 79  2  0  0  0  0
 36 67  1  0  0  0  0
 36 74  1  0  0  0  0
 36 80  2  0  0  0  0
 37 40  1  0  0  0  0
 38 47  1  0  0  0  0
 39 66  1  0  0  0  0
 40 42  1  0  0  0  0
 41 43  1  0  0  0  0
 41 44  1  0  0  0  0
 42 46  1  0  0  0  0
 43 48  1  0  0  0  0
 44 67  1  0  0  0  0
 45 48  1  0  0  0  0
 45 67  1  0  0  0  0
 46 72  1  0  0  0  0
 47 66  1  0  0  0  0
 48 65  1  0  0  0  0
 49 59  1  0  0  0  0
 50 60  1  0  0  0  0
 51 61  1  0  0  0  0
 52 61  1  0  0  0  0
 53 61  1  0  0  0  0
 54 75  1  0  0  0  0
 55 74  1  0  0  0  0
 56 57  1  0  0  0  0
 56 60  1  0  0  0  0
 57 82  1  0  0  0  0
 58 61  1  0  0  0  0
 58 73  1  0  0  0  0
 59 75  1  0  0  0  0
 60 71  1  0  0  0  0
 62 65  1  0  0  0  0
M  CHG  1  75   1
M  ISO  4  36 100  57 101  74 100  82 101
M  END
> <Batch ID>
0193

> <Smiles>
CNC(C)C(=O)NC(C(=O)N1Cc2cc([101O:1][101CH2:1]CC(C)Nc3nc(N)cc(C[100NH:0][100C:0](=O)N4CCCC(n5nc(-c6ccc(Oc7ccc(F)cc7F)cc6)c(C(N)=O)c5N)C4)n3)ccc2CC1C(=O)NC1CCCc2ccccc21)C(C)(C)C

> <Shape>
0.269

> <Color>
0.072

> <Negative vol penalty>
0.000

$$$$

  -OEChem-04052305303D

 84 92  0     1  0  0  0  0  0999 V2000
  -30.2239  -23.9687   13.8528 C   0  0  0  0  0  0  0  0  0  0  0  0
  -29.5534  -23.2945   14.8684 C   0  0  0  0  0  0  0  0  0  0  0  0
  -29.5283  -17.7338   20.2175 C   0  0  0  0  0  0  0  0  0  0  0  0
  -27.2445  -17.8706   20.9936 C   0  0  0  0  0  0  0  0  0  0  0  0
  -30.7316  -25.2466   14.0831 C   0  0  0  0  0  0  0  0  0  0  0  0
  -29.3912  -23.8974   16.1152 C   0  0  0  0  0  0  0  0  0  0  0  0
  -24.5937  -23.3360   19.8801 C   0  0  0  0  0  0  0  0  0  0  0  0
  -29.2412  -16.5239   19.5857 C   0  0  0  0  0  0  0  0  0  0  0  0
  -26.9573  -16.6607   20.3617 C   0  0  0  0  0  0  0  0  0  0  0  0
  -24.3711  -22.5413   21.0038 C   0  0  0  0  0  0  0  0  0  0  0  0
  -29.2000  -13.2186   18.0702 C   0  0  0  0  0  0  0  0  0  0  0  0
  -30.1124  -12.1742   18.2202 C   0  0  0  0  0  0  0  0  0  0  0  0
  -25.0402  -24.3728   22.4241 C   0  0  0  0  0  0  0  0  0  0  0  0
  -29.7870  -12.2339   20.6135 C   0  0  0  0  0  0  0  0  0  0  0  0
  -25.0183  -19.8611   29.6859 C   0  0  0  0  0  0  0  0  0  0  0  0
  -28.5300  -18.4072   20.9215 C   0  0  0  0  0  0  0  0  0  0  0  0
  -28.7173  -20.9491   21.0273 C   0  0  0  0  0  0  0  0  0  0  0  0
  -30.5672  -25.8694   15.3304 C   0  0  0  0  0  0  0  0  0  0  0  0
  -25.0524  -24.6538   20.0198 C   0  0  0  0  0  0  0  0  0  0  0  0
  -29.8984  -25.1843   16.3628 C   0  0  0  0  0  0  0  0  0  0  0  0
  -25.2653  -25.1830   21.3007 C   0  0  0  0  0  0  0  0  0  0  0  0
  -27.9556  -15.9874   19.6577 C   0  0  0  0  0  0  0  0  0  0  0  0
  -24.5971  -23.0587   22.2759 C   0  0  0  0  0  0  0  0  0  0  0  0
  -28.5812  -13.7706   19.1918 C   0  0  0  0  0  0  0  0  0  0  0  0
  -30.4059  -11.6819   19.4918 C   0  0  0  0  0  0  0  0  0  0  0  0
  -28.8747  -13.2783   20.4634 C   0  0  0  0  0  0  0  0  0  0  0  0
  -28.8262  -19.6567   21.5749 C   0  0  0  0  0  0  0  0  0  0  0  0
  -25.5557  -20.7294   28.7588 C   0  0  0  0  0  0  0  0  0  0  0  0
  -29.1115  -21.7863   22.0423 C   0  0  0  0  0  0  0  0  0  0  0  0
  -23.7101  -20.2108   27.6937 C   0  0  0  0  0  0  0  0  0  0  0  0
  -28.2974  -21.3563   19.7183 C   0  0  0  0  0  0  0  0  0  0  0  0
  -27.6570  -26.2309   19.1075 C   0  0  0  0  0  0  0  0  0  0  0  0
  -26.0497  -28.7877   20.2913 C   0  0  0  0  0  0  0  0  0  0  0  0
  -23.6491  -29.9749   22.4067 C   0  0  0  0  0  0  0  0  0  0  0  0
  -29.1469  -21.2315   28.0040 C   0  0  0  0  0  0  0  0  0  0  0  0
  -31.1748  -27.2327   15.5467 C   0  0  0  0  0  0  0  0  0  0  0  0
  -25.2620  -25.5067   18.7987 C   0  0  0  0  0  0  0  0  0  0  0  0
  -25.7383  -26.5982   21.5055 C   0  0  0  0  0  0  0  0  0  0  0  0
  -30.6334  -27.9522   16.7795 C   0  0  0  0  0  0  0  0  0  0  0  0
  -31.9363  -21.9209   25.9015 C   0  0  0  0  0  0  0  0  0  0  0  0
  -30.6068  -27.0099   17.9787 C   0  0  0  0  0  0  0  0  0  0  0  0
  -31.4457  -21.5354   24.5048 C   0  0  0  0  0  0  0  0  0  0  0  0
  -31.3852  -20.9820   26.9723 C   0  0  0  0  0  0  0  0  0  0  0  0
  -29.4271  -20.4487   25.5740 C   0  0  0  0  0  0  0  0  0  0  0  0
  -29.6808  -25.8151   17.7211 C   0  0  1  0  0  0  0  0  0  0  0  0
  -26.2212  -26.6684   19.0388 C   0  0  1  0  0  0  0  0  0  0  0  0
  -29.9116  -21.4004   24.4668 C   0  0  2  0  0  0  0  0  0  0  0  0
  -20.4374  -21.7842   25.8609 C   0  0  0  0  0  0  0  0  0  0  0  0
  -22.5892  -32.1134   23.1818 C   0  0  0  0  0  0  0  0  0  0  0  0
  -28.5071  -29.3840   21.9987 C   0  0  0  0  0  0  0  0  0  0  0  0
  -27.0822  -30.8937   23.3983 C   0  0  0  0  0  0  0  0  0  0  0  0
  -27.4306  -31.3986   20.9803 C   0  0  0  0  0  0  0  0  0  0  0  0
  -20.9822  -29.1429   21.4297 C   0  0  0  0  0  0  0  0  0  0  0  0
  -26.8394  -21.4465   28.8919 C   0  0  0  0  0  0  0  0  0  0  0  0
  -21.3988  -21.1056   24.8921 C   0  0  0  0  0  0  0  0  0  0  0  0
  -23.9234  -20.9521   23.1502 C   0  0  0  0  0  0  0  0  0  1  0  0
  -25.9513  -29.4575   21.6406 C   0  0  1  0  0  0  0  0  0  0  0  0
  -22.5156  -30.9614   22.1917 C   0  0  2  0  0  0  0  0  0  0  0  0
  -22.8054  -20.9343   25.4837 C   0  0  2  0  0  0  0  0  0  0  0  0
  -23.7756  -20.2531   24.5011 C   0  0  1  0  0  0  0  0  0  0  0  0
  -27.2358  -30.2561   22.0009 C   0  0  0  0  0  0  0  0  0  0  0  0
  -29.2560  -19.6671   22.8395 N   0  0  0  0  0  0  0  0  0  0  0  0
  -24.8072  -20.9308   27.6157 N   0  0  0  0  0  0  0  0  0  0  0  0
  -29.4208  -20.9761   23.0950 N   0  0  0  0  0  0  0  0  0  0  0  0
  -25.9350  -27.3904   20.2802 N   0  0  0  0  0  0  0  0  0  0  0  0
  -29.9253  -20.8996   26.8829 N   0  0  0  0  0  0  0  0  0  0  0  0
  -29.2203  -23.1292   22.1280 N   0  0  0  0  0  0  0  0  0  0  0  0
  -27.9261  -20.3668   18.7978 N   0  0  0  0  0  0  0  0  0  0  0  0
  -22.7328  -20.1737   26.7181 N   0  0  0  0  0  0  0  0  0  0  0  0
  -28.2964  -26.2045   17.8828 N   0  0  0  0  0  0  0  0  0  0  0  0
  -24.7358  -30.2637   21.6085 N   0  0  0  0  0  0  0  0  0  0  0  0
  -27.7716  -21.1325   27.8321 N   0  0  0  0  0  0  0  0  0  0  0  0
  -21.1994  -30.2824   22.3578 N   0  3  0  0  0  0  0  0  0  0  0  0
  -28.2684  -22.5610   19.3698 O   0  0  0  0  0  0  0  0  0  0  0  0
  -28.1489  -25.9403   20.1917 O   0  0  0  0  0  0  0  0  0  0  0  0
  -26.2148  -29.4795   19.2834 O   0  0  0  0  0  0  0  0  0  0  0  0
  -23.5792  -29.0436   23.2056 O   0  0  0  0  0  0  0  0  0  0  0  0
  -29.6408  -21.5947   29.0769 O   0  0  0  0  0  0  0  0  0  0  0  0
  -23.3122  -18.9167   24.2787 O   0  0  0  0  0  0  0  0  0  0  0  0
  -27.6750  -14.8069   19.0411 O   0  0  0  0  0  0  0  0  0  0  0  0
  -24.3813  -22.2850   23.3743 O   0  0  0  0  0  0  0  0  0  1  0  0
  -31.2809  -10.6780   19.6356 F   0  0  0  0  0  0  0  0  0  0  0  0
  -28.2824  -13.8038   21.5446 F   0  0  0  0  0  0  0  0  0  0  0  0
  -23.5139  -19.2683   29.1143 S   0  0  0  0  0  0  0  0  0  0  0  0
  1  2  1  0  0  0  0
  1  5  2  0  0  0  0
  2  6  2  0  0  0  0
  3  8  2  0  0  0  0
  3 16  1  0  0  0  0
  4  9  1  0  0  0  0
  4 16  2  0  0  0  0
  5 18  1  0  0  0  0
  6 20  1  0  0  0  0
  7 10  2  0  0  0  0
  7 19  1  0  0  0  0
  8 22  1  0  0  0  0
  9 22  2  0  0  0  0
 10 23  1  0  0  0  0
 11 12  2  0  0  0  0
 11 24  1  0  0  0  0
 12 25  1  0  0  0  0
 13 21  1  0  0  0  0
 13 23  2  0  0  0  0
 14 25  2  0  0  0  0
 14 26  1  0  0  0  0
 15 28  2  0  0  0  0
 15 84  1  0  0  0  0
 16 27  1  0  0  0  0
 17 27  1  0  0  0  0
 17 29  2  0  0  0  0
 17 31  1  0  0  0  0
 18 20  2  0  0  0  0
 18 36  1  0  0  0  0
 19 21  2  0  0  0  0
 19 37  1  0  0  0  0
 20 45  1  0  0  0  0
 21 38  1  0  0  0  0
 22 80  1  0  0  0  0
 23 81  1  0  0  0  0
 24 26  2  0  0  0  0
 24 80  1  0  0  0  0
 25 82  1  0  0  0  0
 26 83  1  0  0  0  0
 27 62  2  0  0  0  0
 28 54  1  0  0  0  0
 28 63  1  0  0  0  0
 29 64  1  0  0  0  0
 29 67  1  0  0  0  0
 30 63  2  0  0  0  0
 30 69  1  0  0  0  0
 30 84  1  0  0  0  0
 31 68  1  0  0  0  0
 31 74  2  0  0  0  0
 32 46  1  0  0  0  0
 32 70  1  0  0  0  0
 32 75  2  0  0  0  0
 33 57  1  0  0  0  0
 33 65  1  0  0  0  0
 33 76  2  0  0  0  0
 34 58  1  0  0  0  0
 34 71  1  0  0  0  0
 34 77  2  0  0  0  0
 35 66  1  0  0  0  0
 35 72  1  0  0  0  0
 35 78  2  0  0  0  0
 36 39  1  0  0  0  0
 37 46  1  0  0  0  0
 38 65  1  0  0  0  0
 39 41  1  0  0  0  0
 40 42  1  0  0  0  0
 40 43  1  0  0  0  0
 41 45  1  0  0  0  0
 42 47  1  0  0  0  0
 43 66  1  0  0  0  0
 44 47  1  0  0  0  0
 44 66  1  0  0  0  0
 45 70  1  0  0  0  0
 46 65  1  0  0  0  0
 47 64  1  0  0  0  0
 48 55  1  0  0  0  0
 49 58  1  0  0  0  0
 50 61  1  0  0  0  0
 51 61  1  0  0  0  0
 52 61  1  0  0  0  0
 53 73  1  0  0  0  0
 54 72  1  0  0  0  0
 55 59  1  0  0  0  0
 56 60  1  0  0  0  0
 56 81  1  0  0  0  0
 57 61  1  0  0  0  0
 57 71  1  0  0  0  0
 58 73  1  0  0  0  0
 59 60  1  0  0  0  0
 59 69  1  0  0  0  0
 60 79  1  0  0  0  0
 62 64  1  0  0  0  0
M  CHG  1  73   1
M  ISO  4  35 100  56 101  72 100  81 101
M  END
> <Batch ID>
0193

> <Smiles>
CCC(Nc1nc(C[100NH:0][100C:0](=O)N2CCCC(n3nc(-c4ccc(Oc5ccc(F)cc5F)cc4)c(C(N)=O)c3N)C2)cs1)C(O)[101CH2:1][101O:1]c1ccc2c(c1)CN(C(=O)C(NC(=O)C(C)NC)C(C)(C)C)C(C(=O)NC1CCCc3ccccc31)C2

> <Shape>
0.196

> <Color>
0.053

> <Negative vol penalty>
0.000

$$$$

  -OEChem-04052305303D

 83 91  0     1  0  0  0  0  0999 V2000
  -27.4566  -33.9058   26.0581 C   0  0  0  0  0  0  0  0  0  0  0  0
  -27.6966  -32.5478   25.8744 C   0  0  0  0  0  0  0  0  0  0  0  0
  -26.8940  -12.8263   21.0538 C   0  0  0  0  0  0  0  0  0  0  0  0
  -26.7956  -13.1924   18.6677 C   0  0  0  0  0  0  0  0  0  0  0  0
  -26.2332  -34.4543   25.6756 C   0  0  0  0  0  0  0  0  0  0  0  0
  -26.7128  -31.7373   25.3090 C   0  0  0  0  0  0  0  0  0  0  0  0
  -28.5660  -28.5963   21.7956 C   0  0  0  0  0  0  0  0  0  0  0  0
  -26.3325  -11.5610   20.8828 C   0  0  0  0  0  0  0  0  0  0  0  0
  -26.2341  -11.9270   18.4967 C   0  0  0  0  0  0  0  0  0  0  0  0
  -29.2336  -27.4586   22.2471 C   0  0  0  0  0  0  0  0  0  0  0  0
  -23.2623  -10.2492   20.3560 C   0  0  0  0  0  0  0  0  0  0  0  0
  -22.2377   -9.8729   21.2244 C   0  0  0  0  0  0  0  0  0  0  0  0
  -27.2513  -26.1436   21.8460 C   0  0  0  0  0  0  0  0  0  0  0  0
  -23.5651   -8.0007   21.9794 C   0  0  0  0  0  0  0  0  0  0  0  0
  -29.0940  -23.9276   16.5060 C   0  0  0  0  0  0  0  0  0  0  0  0
  -27.1254  -13.6421   19.9462 C   0  0  0  0  0  0  0  0  0  0  0  0
  -29.0731  -15.2808   20.1164 C   0  0  0  0  0  0  0  0  0  0  0  0
  -25.2375  -33.6520   25.0964 C   0  0  0  0  0  0  0  0  0  0  0  0
  -27.2304  -28.5181   21.3755 C   0  0  0  0  0  0  0  0  0  0  0  0
  -25.4744  -32.2754   24.9196 C   0  0  0  0  0  0  0  0  0  0  0  0
  -26.5699  -27.2813   21.3873 C   0  0  0  0  0  0  0  0  0  0  0  0
  -26.0026  -11.1113   19.6043 C   0  0  0  0  0  0  0  0  0  0  0  0
  -28.5754  -26.2326   22.2751 C   0  0  0  0  0  0  0  0  0  0  0  0
  -24.4384   -9.5012   20.2992 C   0  0  0  0  0  0  0  0  0  0  0  0
  -22.3891   -8.7487   22.0361 C   0  0  0  0  0  0  0  0  0  0  0  0
  -24.5898   -8.3770   21.1109 C   0  0  0  0  0  0  0  0  0  0  0  0
  -27.7048  -14.9495   20.1222 C   0  0  0  0  0  0  0  0  0  0  0  0
  -28.3995  -23.0491   17.3110 C   0  0  0  0  0  0  0  0  0  0  0  0
  -29.0985  -16.6385   20.3228 C   0  0  0  0  0  0  0  0  0  0  0  0
  -29.9611  -23.6364   18.7345 C   0  0  0  0  0  0  0  0  0  0  0  0
  -30.2186  -14.4368   19.9401 C   0  0  0  0  0  0  0  0  0  0  0  0
  -24.4938  -29.8103   22.3477 C   0  0  0  0  0  0  0  0  0  0  0  0
  -23.3198  -28.3689   19.6894 C   0  0  0  0  0  0  0  0  0  0  0  0
  -23.6296  -25.8959   17.3582 C   0  0  0  0  0  0  0  0  0  0  0  0
  -26.1213  -21.4193   18.9832 C   0  0  0  0  0  0  0  0  0  0  0  0
  -23.9133  -34.2809   24.7423 C   0  0  0  0  0  0  0  0  0  0  0  0
  -26.5327  -29.7494   20.8661 C   0  0  0  0  0  0  0  0  0  0  0  0
  -25.1425  -27.1402   20.9278 C   0  0  0  0  0  0  0  0  0  0  0  0
  -23.0636  -33.4255   23.8061 C   0  0  0  0  0  0  0  0  0  0  0  0
  -25.9365  -19.9350   22.2142 C   0  0  0  0  0  0  0  0  0  0  0  0
  -23.0342  -31.9776   24.2853 C   0  0  0  0  0  0  0  0  0  0  0  0
  -26.5009  -18.5289   22.0036 C   0  0  0  0  0  0  0  0  0  0  0  0
  -25.1228  -20.4028   21.0096 C   0  0  0  0  0  0  0  0  0  0  0  0
  -26.3938  -18.9197   19.5067 C   0  0  0  0  0  0  0  0  0  0  0  0
  -24.4414  -31.3683   24.2869 C   0  0  1  0  0  0  0  0  0  0  0  0
  -25.0125  -29.6512   20.9465 C   0  0  1  0  0  0  0  0  0  0  0  0
  -27.2686  -18.4265   20.6719 C   0  0  2  0  0  0  0  0  0  0  0  0
  -22.4959  -24.9468   15.3305 C   0  0  0  0  0  0  0  0  0  0  0  0
  -30.8661  -21.5198   20.8972 C   0  0  0  0  0  0  0  0  0  0  0  0
  -21.2231  -27.0591   21.4778 C   0  0  0  0  0  0  0  0  0  0  0  0
  -20.7540  -25.4420   19.6250 C   0  0  0  0  0  0  0  0  0  0  0  0
  -20.3546  -27.8802   19.2810 C   0  0  0  0  0  0  0  0  0  0  0  0
  -25.9756  -26.4536   15.6423 C   0  0  0  0  0  0  0  0  0  0  0  0
  -27.1921  -22.2936   16.9221 C   0  0  0  0  0  0  0  0  0  0  0  0
  -30.6363  -25.0703   22.5149 C   0  0  0  0  0  0  0  0  0  1  0  0
  -22.7281  -27.0149   19.3804 C   0  0  1  0  0  0  0  0  0  0  0  0
  -23.5430  -25.9234   15.8429 C   0  0  2  0  0  0  0  0  0  0  0  0
  -30.4028  -22.9610   21.0955 C   0  0  1  0  0  0  0  0  0  0  0  0
  -31.0543  -23.6129   22.3262 C   0  0  1  0  0  0  0  0  0  0  0  0
  -21.2912  -26.8517   19.9516 C   0  0  0  0  0  0  0  0  0  0  0  0
  -26.9181  -16.0112   20.3170 N   0  0  0  0  0  0  0  0  0  0  0  0
  -28.8955  -22.8805   18.5890 N   0  0  0  0  0  0  0  0  0  0  0  0
  -27.7947  -17.0228   20.4356 N   0  0  0  0  0  0  0  0  0  0  0  0
  -24.5012  -28.3742   20.4444 N   0  0  0  0  0  0  0  0  0  0  0  0
  -25.9086  -20.2817   19.7792 N   0  0  0  0  0  0  0  0  0  0  0  0
  -30.1086  -17.5291   20.4170 N   0  0  0  0  0  0  0  0  0  0  0  0
  -30.0132  -13.0651   19.7389 N   0  0  0  0  0  0  0  0  0  0  0  0
  -30.7099  -23.7119   19.8943 N   0  0  0  0  0  0  0  0  0  0  0  0
  -24.8382  -31.0092   22.9423 N   0  0  0  0  0  0  0  0  0  0  0  0
  -22.8181  -26.8507   17.9336 N   0  0  0  0  0  0  0  0  0  0  0  0
  -26.8820  -21.2184   17.8379 N   0  0  0  0  0  0  0  0  0  0  0  0
  -24.8578  -25.5606   15.2422 N   0  3  0  0  0  0  0  0  0  0  0  0
  -31.3903  -14.8832   19.9768 O   0  0  0  0  0  0  0  0  0  0  0  0
  -23.8292  -28.9125   22.8515 O   0  0  0  0  0  0  0  0  0  0  0  0
  -22.7585  -29.3842   19.2702 O   0  0  0  0  0  0  0  0  0  0  0  0
  -24.3427  -25.1039   17.9703 O   0  0  0  0  0  0  0  0  0  0  0  0
  -25.6716  -22.5328   19.2747 O   0  0  0  0  0  0  0  0  0  0  0  0
  -32.4766  -23.5471   22.2094 O   0  0  0  0  0  0  0  0  0  0  0  0
  -25.4550   -9.8765   19.4371 O   0  0  0  0  0  0  0  0  0  0  0  0
  -29.2244  -25.1207   22.7159 O   0  0  0  0  0  0  0  0  0  1  0  0
  -21.4057   -8.3884   22.8711 F   0  0  0  0  0  0  0  0  0  0  0  0
  -25.7177   -7.6551   21.0616 F   0  0  0  0  0  0  0  0  0  0  0  0
  -30.4228  -24.5763   17.3749 S   0  0  0  0  0  0  0  0  0  0  0  0
  1  2  1  0  0  0  0
  1  5  2  0  0  0  0
  2  6  2  0  0  0  0
  3  8  2  0  0  0  0
  3 16  1  0  0  0  0
  4  9  1  0  0  0  0
  4 16  2  0  0  0  0
  5 18  1  0  0  0  0
  6 20  1  0  0  0  0
  7 10  2  0  0  0  0
  7 19  1  0  0  0  0
  8 22  1  0  0  0  0
  9 22  2  0  0  0  0
 10 23  1  0  0  0  0
 11 12  2  0  0  0  0
 11 24  1  0  0  0  0
 12 25  1  0  0  0  0
 13 21  1  0  0  0  0
 13 23  2  0  0  0  0
 14 25  2  0  0  0  0
 14 26  1  0  0  0  0
 15 28  2  0  0  0  0
 15 83  1  0  0  0  0
 16 27  1  0  0  0  0
 17 27  1  0  0  0  0
 17 29  2  0  0  0  0
 17 31  1  0  0  0  0
 18 20  2  0  0  0  0
 18 36  1  0  0  0  0
 19 21  2  0  0  0  0
 19 37  1  0  0  0  0
 20 45  1  0  0  0  0
 21 38  1  0  0  0  0
 22 79  1  0  0  0  0
 23 80  1  0  0  0  0
 24 26  2  0  0  0  0
 24 79  1  0  0  0  0
 25 81  1  0  0  0  0
 26 82  1  0  0  0  0
 27 61  2  0  0  0  0
 28 54  1  0  0  0  0
 28 62  1  0  0  0  0
 29 63  1  0  0  0  0
 29 66  1  0  0  0  0
 30 62  2  0  0  0  0
 30 68  1  0  0  0  0
 30 83  1  0  0  0  0
 31 67  1  0  0  0  0
 31 73  2  0  0  0  0
 32 46  1  0  0  0  0
 32 69  1  0  0  0  0
 32 74  2  0  0  0  0
 33 56  1  0  0  0  0
 33 64  1  0  0  0  0
 33 75  2  0  0  0  0
 34 57  1  0  0  0  0
 34 70  1  0  0  0  0
 34 76  2  0  0  0  0
 35 65  1  0  0  0  0
 35 71  1  0  0  0  0
 35 77  2  0  0  0  0
 36 39  1  0  0  0  0
 37 46  1  0  0  0  0
 38 64  1  0  0  0  0
 39 41  1  0  0  0  0
 40 42  1  0  0  0  0
 40 43  1  0  0  0  0
 41 45  1  0  0  0  0
 42 47  1  0  0  0  0
 43 65  1  0  0  0  0
 44 47  1  0  0  0  0
 44 65  1  0  0  0  0
 45 69  1  0  0  0  0
 46 64  1  0  0  0  0
 47 63  1  0  0  0  0
 48 57  1  0  0  0  0
 49 58  1  0  0  0  0
 50 60  1  0  0  0  0
 51 60  1  0  0  0  0
 52 60  1  0  0  0  0
 53 72  1  0  0  0  0
 54 71  1  0  0  0  0
 55 59  1  0  0  0  0
 55 80  1  0  0  0  0
 56 60  1  0  0  0  0
 56 70  1  0  0  0  0
 57 72  1  0  0  0  0
 58 59  1  0  0  0  0
 58 68  1  0  0  0  0
 59 78  1  0  0  0  0
 61 63  1  0  0  0  0
M  CHG  1  72   1
M  ISO  4  35 100  55 101  71 100  80 101
M  END
> <Batch ID>
0193

> <Smiles>
CNC(C)C(=O)NC(C(=O)N1Cc2cc([101O:1][101CH2:1]C(O)C(C)Nc3nc(C[100NH:0][100C:0](=O)N4CCCC(n5nc(-c6ccc(Oc7ccc(F)cc7F)cc6)c(C(N)=O)c5N)C4)cs3)ccc2CC1C(=O)NC1CCCc2ccccc21)C(C)(C)C

> <Shape>
0.259

> <Color>
0.088

> <Negative vol penalty>
0.000

$$$$

  -OEChem-04052305303D

 85 93  0     1  0  0  0  0  0999 V2000
  -18.0725  -28.2773   22.7570 C   0  0  0  0  0  0  0  0  0  0  0  0
  -18.0268  -27.0686   22.0697 C   0  0  0  0  0  0  0  0  0  0  0  0
  -29.6178  -22.9120   21.0377 C   0  0  0  0  0  0  0  0  0  0  0  0
  -29.7149  -22.3119   18.6995 C   0  0  0  0  0  0  0  0  0  0  0  0
  -19.2703  -28.7107   23.3239 C   0  0  0  0  0  0  0  0  0  0  0  0
  -19.1792  -26.2930   21.9481 C   0  0  0  0  0  0  0  0  0  0  0  0
  -19.5120  -20.1781   21.8862 C   0  0  0  0  0  0  0  0  0  0  0  0
  -30.1706  -24.1577   20.7410 C   0  0  0  0  0  0  0  0  0  0  0  0
  -30.2677  -23.5576   18.4027 C   0  0  0  0  0  0  0  0  0  0  0  0
  -19.6120  -19.2547   20.8465 C   0  0  0  0  0  0  0  0  0  0  0  0
  -29.1193  -27.1120   19.4761 C   0  0  0  0  0  0  0  0  0  0  0  0
  -28.5388  -28.2356   20.0645 C   0  0  0  0  0  0  0  0  0  0  0  0
  -22.0066  -19.2007   21.1330 C   0  0  0  0  0  0  0  0  0  0  0  0
  -30.6390  -28.7585   21.1382 C   0  0  0  0  0  0  0  0  0  0  0  0
  -29.3900  -21.9890   20.0170 C   0  0  0  0  0  0  0  0  0  0  0  0
  -27.4535  -20.3628   20.3531 C   0  0  0  0  0  0  0  0  0  0  0  0
  -20.4357  -27.9354   23.2175 C   0  0  0  0  0  0  0  0  0  0  0  0
  -20.6615  -20.6288   22.5510 C   0  0  0  0  0  0  0  0  0  0  0  0
  -20.3941  -26.7170   22.5130 C   0  0  0  0  0  0  0  0  0  0  0  0
  -21.9182  -20.1279   22.1825 C   0  0  0  0  0  0  0  0  0  0  0  0
  -30.4956  -24.4806   19.4235 C   0  0  0  0  0  0  0  0  0  0  0  0
  -20.8597  -18.7680   20.4678 C   0  0  0  0  0  0  0  0  0  0  0  0
  -30.4597  -26.8116   19.7189 C   0  0  0  0  0  0  0  0  0  0  0  0
  -29.2986  -29.0589   20.8955 C   0  0  0  0  0  0  0  0  0  0  0  0
  -31.2195  -27.6349   20.5499 C   0  0  0  0  0  0  0  0  0  0  0  0
  -28.8195  -20.7018   20.3230 C   0  0  0  0  0  0  0  0  0  0  0  0
  -27.4373  -19.0321   20.6931 C   0  0  0  0  0  0  0  0  0  0  0  0
  -26.1367  -12.6336   19.7690 C   0  0  0  0  0  0  0  0  0  0  0  0
  -24.7766  -11.8253   21.3607 C   0  0  0  0  0  0  0  0  0  0  0  0
  -24.0046  -13.3255   19.8808 C   0  0  0  0  0  0  0  0  0  0  0  0
  -26.3021  -21.1778   20.0965 C   0  0  0  0  0  0  0  0  0  0  0  0
  -22.0729  -23.4518   22.9284 C   0  0  0  0  0  0  0  0  0  0  0  0
  -24.0045  -21.7814   24.9287 C   0  0  0  0  0  0  0  0  0  0  0  0
  -25.3194  -18.7669   25.8400 C   0  0  0  0  0  0  0  0  0  0  0  0
  -29.4136  -13.8427   20.1371 C   0  0  0  0  0  0  0  0  0  0  0  0
  -21.7181  -28.4679   23.8063 C   0  0  0  0  0  0  0  0  0  0  0  0
  -20.5341  -21.6049   23.6882 C   0  0  0  0  0  0  0  0  0  0  0  0
  -23.1809  -20.5645   22.8778 C   0  0  0  0  0  0  0  0  0  0  0  0
  -22.8067  -27.4079   23.9541 C   0  0  0  0  0  0  0  0  0  0  0  0
  -31.1371  -16.0170   22.3684 C   0  0  0  0  0  0  0  0  0  0  0  0
  -22.9239  -26.5814   22.6774 C   0  0  0  0  0  0  0  0  0  0  0  0
  -30.5798  -17.4016   22.0333 C   0  0  0  0  0  0  0  0  0  0  0  0
  -31.2756  -15.1473   21.1208 C   0  0  0  0  0  0  0  0  0  0  0  0
  -29.4896  -16.4051   19.9797 C   0  0  0  0  0  0  0  0  0  0  0  0
  -21.6172  -25.8358   22.3810 C   0  0  1  0  0  0  0  0  0  0  0  0
  -21.8188  -22.3835   23.9541 C   0  0  1  0  0  0  0  0  0  0  0  0
  -29.2795  -17.2993   21.2136 C   0  0  2  0  0  0  0  0  0  0  0  0
  -26.8979  -17.7237   27.4885 C   0  0  0  0  0  0  0  0  0  0  0  0
  -23.0503  -14.1659   16.9770 C   0  0  0  0  0  0  0  0  0  0  0  0
  -26.3745  -22.8581   23.3370 C   0  0  0  0  0  0  0  0  0  0  0  0
  -27.7957  -21.0837   24.3860 C   0  0  0  0  0  0  0  0  0  0  0  0
  -26.7133  -22.8188   25.8146 C   0  0  0  0  0  0  0  0  0  0  0  0
  -25.5876  -10.1569   23.0294 C   0  0  0  0  0  0  0  0  0  0  0  0
  -23.1828  -17.0718   26.9890 C   0  0  0  0  0  0  0  0  0  0  0  0
  -27.4756  -12.6773   19.1148 C   0  0  0  0  0  0  0  0  0  0  0  0
  -21.9904  -16.0439   18.2790 C   0  0  0  0  0  0  0  0  0  0  0  0
  -22.0417  -16.9380   19.5139 C   0  0  0  0  0  0  0  0  0  1  0  0
  -25.2907  -21.0065   24.7733 C   0  0  1  0  0  0  0  0  0  0  0  0
  -25.4525  -18.0940   27.1942 C   0  0  2  0  0  0  0  0  0  0  0  0
  -23.1050  -14.9932   18.2575 C   0  0  1  0  0  0  0  0  0  0  0  0
  -26.5201  -21.9348   24.5631 C   0  0  0  0  0  0  0  0  0  0  0  0
  -29.6135  -19.6697   20.6203 N   0  0  0  0  0  0  0  0  0  0  0  0
  -26.0075  -11.8135   20.8246 N   0  0  0  0  0  0  0  0  0  0  0  0
  -25.1821  -13.4175   19.2421 N   0  0  0  0  0  0  0  0  0  0  0  0
  -23.7282  -12.5533   20.9440 N   0  0  0  0  0  0  0  0  0  0  0  0
  -28.7437  -18.6692   20.8405 N   0  0  0  0  0  0  0  0  0  0  0  0
  -23.0049  -21.5252   23.9795 N   0  0  0  0  0  0  0  0  0  0  0  0
  -30.0075  -15.0903   20.3897 N   0  0  0  0  0  0  0  0  0  0  0  0
  -26.4332  -18.1489   20.8773 N   0  0  0  0  0  0  0  0  0  0  0  0
  -26.4982  -22.5242   19.7599 N   0  0  0  0  0  0  0  0  0  0  0  0
  -24.5638  -10.9876   22.4773 N   0  0  0  0  0  0  0  0  0  0  0  0
  -22.9712  -14.1058   19.3939 N   0  0  0  0  0  0  0  0  0  0  0  0
  -21.4962  -24.6706   23.2307 N   0  0  0  0  0  0  0  0  0  0  0  0
  -25.3891  -20.1402   25.9430 N   0  0  0  0  0  0  0  0  0  0  0  0
  -28.2099  -13.8787   19.4440 N   0  0  0  0  0  0  0  0  0  0  0  0
  -24.6307  -16.8516   27.2383 N   0  3  0  0  0  0  0  0  0  0  0  0
  -25.1334  -20.7298   20.1799 O   0  0  0  0  0  0  0  0  0  0  0  0
  -22.7438  -23.1900   21.9369 O   0  0  0  0  0  0  0  0  0  0  0  0
  -23.8881  -22.5793   25.8623 O   0  0  0  0  0  0  0  0  0  0  0  0
  -25.1723  -18.1372   24.7949 O   0  0  0  0  0  0  0  0  0  0  0  0
  -29.9161  -12.7761   20.5070 O   0  0  0  0  0  0  0  0  0  0  0  0
  -31.0348  -25.6962   19.1335 O   0  0  0  0  0  0  0  0  0  0  0  0
  -20.9603  -17.8671   19.4528 O   0  0  0  0  0  0  0  0  0  1  0  0
  -28.7414  -30.1387   21.4591 F   0  0  0  0  0  0  0  0  0  0  0  0
  -32.5080  -27.3521   20.7859 F   0  0  0  0  0  0  0  0  0  0  0  0
  1  2  1  0  0  0  0
  1  5  2  0  0  0  0
  2  6  2  0  0  0  0
  3  8  2  0  0  0  0
  3 15  1  0  0  0  0
  4  9  1  0  0  0  0
  4 15  2  0  0  0  0
  5 17  1  0  0  0  0
  6 19  1  0  0  0  0
  7 10  2  0  0  0  0
  7 18  1  0  0  0  0
  8 21  1  0  0  0  0
  9 21  2  0  0  0  0
 10 22  1  0  0  0  0
 11 12  2  0  0  0  0
 11 23  1  0  0  0  0
 12 24  1  0  0  0  0
 13 20  1  0  0  0  0
 13 22  2  0  0  0  0
 14 24  2  0  0  0  0
 14 25  1  0  0  0  0
 15 26  1  0  0  0  0
 16 26  1  0  0  0  0
 16 27  2  0  0  0  0
 16 31  1  0  0  0  0
 17 19  2  0  0  0  0
 17 36  1  0  0  0  0
 18 20  2  0  0  0  0
 18 37  1  0  0  0  0
 19 45  1  0  0  0  0
 20 38  1  0  0  0  0
 21 82  1  0  0  0  0
 22 83  1  0  0  0  0
 23 25  2  0  0  0  0
 23 82  1  0  0  0  0
 24 84  1  0  0  0  0
 25 85  1  0  0  0  0
 26 62  2  0  0  0  0
 27 66  1  0  0  0  0
 27 69  1  0  0  0  0
 28 55  1  0  0  0  0
 28 63  2  0  0  0  0
 28 64  1  0  0  0  0
 29 63  1  0  0  0  0
 29 65  2  0  0  0  0
 29 71  1  0  0  0  0
 30 64  2  0  0  0  0
 30 65  1  0  0  0  0
 30 72  1  0  0  0  0
 31 70  1  0  0  0  0
 31 77  2  0  0  0  0
 32 46  1  0  0  0  0
 32 73  1  0  0  0  0
 32 78  2  0  0  0  0
 33 58  1  0  0  0  0
 33 67  1  0  0  0  0
 33 79  2  0  0  0  0
 34 59  1  0  0  0  0
 34 74  1  0  0  0  0
 34 80  2  0  0  0  0
 35 68  1  0  0  0  0
 35 75  1  0  0  0  0
 35 81  2  0  0  0  0
 36 39  1  0  0  0  0
 37 46  1  0  0  0  0
 38 67  1  0  0  0  0
 39 41  1  0  0  0  0
 40 42  1  0  0  0  0
 40 43  1  0  0  0  0
 41 45  1  0  0  0  0
 42 47  1  0  0  0  0
 43 68  1  0  0  0  0
 44 47  1  0  0  0  0
 44 68  1  0  0  0  0
 45 73  1  0  0  0  0
 46 67  1  0  0  0  0
 47 66  1  0  0  0  0
 48 59  1  0  0  0  0
 49 60  1  0  0  0  0
 50 61  1  0  0  0  0
 51 61  1  0  0  0  0
 52 61  1  0  0  0  0
 53 71  1  0  0  0  0
 54 76  1  0  0  0  0
 55 75  1  0  0  0  0
 56 57  1  0  0  0  0
 56 60  1  0  0  0  0
 57 83  1  0  0  0  0
 58 61  1  0  0  0  0
 58 74  1  0  0  0  0
 59 76  1  0  0  0  0
 60 72  1  0  0  0  0
 62 66  1  0  0  0  0
M  CHG  1  76   1
M  ISO  4  35 100  57 101  75 100  83 101
M  END
> <Batch ID>
0193

> <Smiles>
CNc1nc(C[100NH:0][100C:0](=O)N2CCCC(n3nc(-c4ccc(Oc5ccc(F)cc5F)cc4)c(C(N)=O)c3N)C2)nc(NC(C)C[101CH2:1][101O:1]c2ccc3c(c2)CN(C(=O)C(NC(=O)C(C)NC)C(C)(C)C)C(C(=O)NC2CCCc4ccccc42)C3)n1

> <Shape>
0.241

> <Color>
0.069

> <Negative vol penalty>
0.000

$$$$

  -OEChem-04052305303D

 85 93  0     1  0  0  0  0  0999 V2000
  -28.1691  -30.4019   27.9347 C   0  0  0  0  0  0  0  0  0  0  0  0
  -28.2675  -29.7609   26.7039 C   0  0  0  0  0  0  0  0  0  0  0  0
  -24.2393  -10.5444   23.3112 C   0  0  0  0  0  0  0  0  0  0  0  0
  -24.1133  -12.3336   24.9298 C   0  0  0  0  0  0  0  0  0  0  0  0
  -26.9148  -30.6910   28.4705 C   0  0  0  0  0  0  0  0  0  0  0  0
  -27.1116  -29.4077   26.0086 C   0  0  0  0  0  0  0  0  0  0  0  0
  -27.3810  -30.5520   21.0829 C   0  0  0  0  0  0  0  0  0  0  0  0
  -23.6946   -9.6620   24.2441 C   0  0  0  0  0  0  0  0  0  0  0  0
  -23.5686  -11.4513   25.8627 C   0  0  0  0  0  0  0  0  0  0  0  0
  -28.1229  -29.6961   20.2700 C   0  0  0  0  0  0  0  0  0  0  0  0
  -20.6377   -8.9264   25.4880 C   0  0  0  0  0  0  0  0  0  0  0  0
  -19.6260   -8.0691   25.0557 C   0  0  0  0  0  0  0  0  0  0  0  0
  -26.0839  -28.6379   19.5339 C   0  0  0  0  0  0  0  0  0  0  0  0
  -20.9873   -6.1634   25.6491 C   0  0  0  0  0  0  0  0  0  0  0  0
  -24.4487  -11.8802   23.6540 C   0  0  0  0  0  0  0  0  0  0  0  0
  -24.3128  -13.5845   21.7608 C   0  0  0  0  0  0  0  0  0  0  0  0
  -25.7430  -30.3498   27.7769 C   0  0  0  0  0  0  0  0  0  0  0  0
  -25.9834  -30.4499   21.1357 C   0  0  0  0  0  0  0  0  0  0  0  0
  -25.8404  -29.6913   26.5363 C   0  0  0  0  0  0  0  0  0  0  0  0
  -25.3264  -29.4954   20.3463 C   0  0  0  0  0  0  0  0  0  0  0  0
  -23.3592  -10.1154   25.5199 C   0  0  0  0  0  0  0  0  0  0  0  0
  -27.4745  -28.7369   19.4975 C   0  0  0  0  0  0  0  0  0  0  0  0
  -21.8243   -8.4023   26.0009 C   0  0  0  0  0  0  0  0  0  0  0  0
  -19.8008   -6.6876   25.1362 C   0  0  0  0  0  0  0  0  0  0  0  0
  -21.9991   -7.0208   26.0814 C   0  0  0  0  0  0  0  0  0  0  0  0
  -25.0118  -12.7920   22.6909 C   0  0  0  0  0  0  0  0  0  0  0  0
  -29.6732  -21.2494   19.3124 C   0  0  0  0  0  0  0  0  0  0  0  0
  -25.2946  -14.2666   21.0845 C   0  0  0  0  0  0  0  0  0  0  0  0
  -28.3296  -21.5390   19.4259 C   0  0  0  0  0  0  0  0  0  0  0  0
  -29.0110  -19.3803   20.2493 C   0  0  0  0  0  0  0  0  0  0  0  0
  -22.9022  -13.6944   21.5288 C   0  0  0  0  0  0  0  0  0  0  0  0
  -30.6583  -22.1815   18.7281 C   0  0  0  0  0  0  0  0  0  0  0  0
  -23.8670  -29.7911   23.4140 C   0  0  0  0  0  0  0  0  0  0  0  0
  -21.7233  -30.5362   21.0963 C   0  0  0  0  0  0  0  0  0  0  0  0
  -21.0348  -30.8046   17.7645 C   0  0  0  0  0  0  0  0  0  0  0  0
  -30.0230  -17.2063   21.0214 C   0  0  0  0  0  0  0  0  0  0  0  0
  -24.4092  -30.6403   28.4182 C   0  0  0  0  0  0  0  0  0  0  0  0
  -25.1958  -31.3984   21.9973 C   0  0  0  0  0  0  0  0  0  0  0  0
  -23.8266  -29.3584   20.3517 C   0  0  0  0  0  0  0  0  0  0  0  0
  -23.2363  -30.5687   27.4438 C   0  0  0  0  0  0  0  0  0  0  0  0
  -30.3198  -13.6587   21.0767 C   0  0  0  0  0  0  0  0  0  0  0  0
  -23.3307  -29.3107   26.5863 C   0  0  0  0  0  0  0  0  0  0  0  0
  -28.9078  -13.1821   21.4251 C   0  0  0  0  0  0  0  0  0  0  0  0
  -30.6823  -14.9458   21.8153 C   0  0  0  0  0  0  0  0  0  0  0  0
  -28.3060  -15.5660   22.0098 C   0  0  0  0  0  0  0  0  0  0  0  0
  -24.6097  -29.3144   25.7403 C   0  0  1  0  0  0  0  0  0  0  0  0
  -23.8144  -30.8652   22.3646 C   0  0  1  0  0  0  0  0  0  0  0  0
  -27.8714  -14.3079   21.2404 C   0  0  2  0  0  0  0  0  0  0  0  0
  -19.1851  -31.4015   16.1771 C   0  0  0  0  0  0  0  0  0  0  0  0
  -29.8868  -26.1329   17.0990 C   0  0  0  0  0  0  0  0  0  0  0  0
  -20.4010  -27.8380   21.6263 C   0  0  0  0  0  0  0  0  0  0  0  0
  -19.2055  -28.0727   19.4391 C   0  0  0  0  0  0  0  0  0  0  0  0
  -18.8047  -29.7283   21.2615 C   0  0  0  0  0  0  0  0  0  0  0  0
  -22.5848  -33.0512   16.6203 C   0  0  0  0  0  0  0  0  0  0  0  0
  -31.2745  -25.7765   19.2104 C   0  0  0  0  0  0  0  0  0  0  0  0
  -31.7627  -24.3881   18.8154 C   0  0  0  0  0  0  0  0  0  0  0  0
  -29.5149  -27.5692   19.1377 C   0  0  0  0  0  0  0  0  0  1  0  0
  -21.0048  -29.7640   20.0163 C   0  0  1  0  0  0  0  0  0  0  0  0
  -20.3865  -31.9139   16.9561 C   0  0  2  0  0  0  0  0  0  0  0  0
  -29.9015  -26.1721   18.6311 C   0  0  1  0  0  0  0  0  0  0  0  0
  -19.8824  -28.8518   20.5870 C   0  0  0  0  0  0  0  0  0  0  0  0
  -26.3354  -12.9545   22.6151 N   0  0  0  0  0  0  0  0  0  0  0  0
  -30.0659  -20.0121   19.7844 N   0  0  0  0  0  0  0  0  0  0  0  0
  -26.4760  -13.8569   21.6292 N   0  0  0  0  0  0  0  0  0  0  0  0
  -23.1010  -30.3047   21.2152 N   0  0  0  0  0  0  0  0  0  0  0  0
  -29.6579  -15.9681   21.5908 N   0  0  0  0  0  0  0  0  0  0  0  0
  -25.2540  -15.1708   20.0829 N   0  0  0  0  0  0  0  0  0  0  0  0
  -27.6793  -22.6668   19.0485 N   0  0  0  0  0  0  0  0  0  0  0  0
  -22.0341  -12.9227   22.3132 N   0  0  0  0  0  0  0  0  0  0  0  0
  -31.3403  -21.7828   17.6544 N   0  0  0  0  0  0  0  0  0  0  0  0
  -28.9594  -18.0867   20.8252 N   0  0  0  0  0  0  0  0  0  0  0  0
  -24.4575  -30.1897   24.5980 N   0  0  0  0  0  0  0  0  0  0  0  0
  -20.5380  -30.7520   19.0497 N   0  0  0  0  0  0  0  0  0  0  0  0
  -30.8222  -23.3800   19.3038 N   0  3  0  0  0  0  0  0  0  0  0  0
  -21.3636  -32.4887   15.9886 N   0  3  0  0  0  0  0  0  0  0  0  0
  -22.4266  -14.4421   20.6410 O   0  0  0  0  0  0  0  0  0  0  0  0
  -23.4047  -28.6832   23.1682 O   0  0  0  0  0  0  0  0  0  0  0  0
  -21.0870  -31.3215   21.8035 O   0  0  0  0  0  0  0  0  0  0  0  0
  -21.8931  -30.0569   17.3010 O   0  0  0  0  0  0  0  0  0  0  0  0
  -31.1887  -17.4562   20.7042 O   0  0  0  0  0  0  0  0  0  0  0  0
  -22.8275   -9.2548   26.4304 O   0  0  0  0  0  0  0  0  0  0  0  0
  -28.1963  -27.8997   18.7037 O   0  0  0  0  0  0  0  0  0  1  0  0
  -18.8285   -5.8644   24.7225 F   0  0  0  0  0  0  0  0  0  0  0  0
  -23.1363   -6.5113   26.5743 F   0  0  0  0  0  0  0  0  0  0  0  0
  -27.5148  -20.2149   20.1498 S   0  0  0  0  0  0  0  0  0  0  0  0
  1  2  1  0  0  0  0
  1  5  2  0  0  0  0
  2  6  2  0  0  0  0
  3  8  2  0  0  0  0
  3 15  1  0  0  0  0
  4  9  1  0  0  0  0
  4 15  2  0  0  0  0
  5 17  1  0  0  0  0
  6 19  1  0  0  0  0
  7 10  2  0  0  0  0
  7 18  1  0  0  0  0
  8 21  1  0  0  0  0
  9 21  2  0  0  0  0
 10 22  1  0  0  0  0
 11 12  2  0  0  0  0
 11 23  1  0  0  0  0
 12 24  1  0  0  0  0
 13 20  1  0  0  0  0
 13 22  2  0  0  0  0
 14 24  2  0  0  0  0
 14 25  1  0  0  0  0
 15 26  1  0  0  0  0
 16 26  1  0  0  0  0
 16 28  2  0  0  0  0
 16 31  1  0  0  0  0
 17 19  2  0  0  0  0
 17 37  1  0  0  0  0
 18 20  2  0  0  0  0
 18 38  1  0  0  0  0
 19 46  1  0  0  0  0
 20 39  1  0  0  0  0
 21 81  1  0  0  0  0
 22 82  1  0  0  0  0
 23 25  2  0  0  0  0
 23 81  1  0  0  0  0
 24 83  1  0  0  0  0
 25 84  1  0  0  0  0
 26 62  2  0  0  0  0
 27 29  2  0  0  0  0
 27 32  1  0  0  0  0
 27 63  1  0  0  0  0
 28 64  1  0  0  0  0
 28 67  1  0  0  0  0
 29 68  1  0  0  0  0
 29 85  1  0  0  0  0
 30 63  2  0  0  0  0
 30 71  1  0  0  0  0
 30 85  1  0  0  0  0
 31 69  1  0  0  0  0
 31 76  2  0  0  0  0
 32 70  1  0  0  0  0
 32 74  2  0  0  0  0
 33 47  1  0  0  0  0
 33 72  1  0  0  0  0
 33 77  2  0  0  0  0
 34 58  1  0  0  0  0
 34 65  1  0  0  0  0
 34 78  2  0  0  0  0
 35 59  1  0  0  0  0
 35 73  1  0  0  0  0
 35 79  2  0  0  0  0
 36 66  1  0  0  0  0
 36 71  1  0  0  0  0
 36 80  2  0  0  0  0
 37 40  1  0  0  0  0
 38 47  1  0  0  0  0
 39 65  1  0  0  0  0
 40 42  1  0  0  0  0
 41 43  1  0  0  0  0
 41 44  1  0  0  0  0
 42 46  1  0  0  0  0
 43 48  1  0  0  0  0
 44 66  1  0  0  0  0
 45 48  1  0  0  0  0
 45 66  1  0  0  0  0
 46 72  1  0  0  0  0
 47 65  1  0  0  0  0
 48 64  1  0  0  0  0
 49 59  1  0  0  0  0
 50 60  1  0  0  0  0
 51 61  1  0  0  0  0
 52 61  1  0  0  0  0
 53 61  1  0  0  0  0
 54 75  1  0  0  0  0
 55 56  1  0  0  0  0
 55 60  1  0  0  0  0
 56 74  1  0  0  0  0
 57 60  1  0  0  0  0
 57 82  1  0  0  0  0
 58 61  1  0  0  0  0
 58 73  1  0  0  0  0
 59 75  1  0  0  0  0
 62 64  1  0  0  0  0
M  CHG  2  74   1  75   1
M  ISO  4  36 100  57 101  71 100  82 101
M  END
> <Batch ID>
0193

> <Smiles>
CNC(C)C(=O)NC(C(=O)N1Cc2cc([101O:1][101CH2:1]C(C)CCNC(=N)c3nc([100NH:0][100C:0](=O)N4CCCC(n5nc(-c6ccc(Oc7ccc(F)cc7F)cc6)c(C(N)=O)c5N)C4)sc3N)ccc2CC1C(=O)NC1CCCc2ccccc21)C(C)(C)C

> <Shape>
0.256

> <Color>
0.122

> <Negative vol penalty>
0.000

$$$$

  -OEChem-04052305303D

 85 93  0     1  0  0  0  0  0999 V2000
  -27.5185  -38.0219   25.9355 C   0  0  0  0  0  0  0  0  0  0  0  0
  -28.2632  -36.8558   25.7907 C   0  0  0  0  0  0  0  0  0  0  0  0
  -23.7515   -9.6270   21.9845 C   0  0  0  0  0  0  0  0  0  0  0  0
  -23.0563  -11.9250   22.2542 C   0  0  0  0  0  0  0  0  0  0  0  0
  -26.1257  -37.9607   25.9519 C   0  0  0  0  0  0  0  0  0  0  0  0
  -27.6154  -35.6275   25.6634 C   0  0  0  0  0  0  0  0  0  0  0  0
  -29.4280  -30.8407   22.3008 C   0  0  0  0  0  0  0  0  0  0  0  0
  -22.9555   -9.2589   23.0692 C   0  0  0  0  0  0  0  0  0  0  0  0
  -22.2602  -11.5569   23.3389 C   0  0  0  0  0  0  0  0  0  0  0  0
  -30.1080  -29.6684   22.6279 C   0  0  0  0  0  0  0  0  0  0  0  0
  -19.6806   -8.6688   23.6689 C   0  0  0  0  0  0  0  0  0  0  0  0
  -18.8887   -7.5284   23.5344 C   0  0  0  0  0  0  0  0  0  0  0  0
  -28.0021  -28.5068   22.8163 C   0  0  0  0  0  0  0  0  0  0  0  0
  -20.0314   -6.5142   25.4059 C   0  0  0  0  0  0  0  0  0  0  0  0
  -28.1953  -18.1730   20.5007 C   0  0  0  0  0  0  0  0  0  0  0  0
  -30.6013  -19.2527   20.0850 C   0  0  0  0  0  0  0  0  0  0  0  0
  -23.8019  -10.9601   21.5770 C   0  0  0  0  0  0  0  0  0  0  0  0
  -24.2470  -11.3861   19.1016 C   0  0  0  0  0  0  0  0  0  0  0  0
  -25.4604  -36.7321   25.8150 C   0  0  0  0  0  0  0  0  0  0  0  0
  -28.0272  -30.8577   22.2395 C   0  0  0  0  0  0  0  0  0  0  0  0
  -26.2124  -35.5496   25.6793 C   0  0  0  0  0  0  0  0  0  0  0  0
  -27.3069  -29.6801   22.4857 C   0  0  0  0  0  0  0  0  0  0  0  0
  -22.2099  -10.2238   23.7463 C   0  0  0  0  0  0  0  0  0  0  0  0
  -29.3949  -28.5019   22.8885 C   0  0  0  0  0  0  0  0  0  0  0  0
  -20.6480   -8.7318   24.6719 C   0  0  0  0  0  0  0  0  0  0  0  0
  -19.0641   -6.4511   24.4029 C   0  0  0  0  0  0  0  0  0  0  0  0
  -20.8234   -7.6545   25.5404 C   0  0  0  0  0  0  0  0  0  0  0  0
  -24.6244  -11.3411   20.4570 C   0  0  0  0  0  0  0  0  0  0  0  0
  -29.3045  -17.3814   20.2995 C   0  0  0  0  0  0  0  0  0  0  0  0
  -29.4920  -20.0444   20.2853 C   0  0  0  0  0  0  0  0  0  0  0  0
  -25.3774  -11.8061   18.4441 C   0  0  0  0  0  0  0  0  0  0  0  0
  -22.9871  -11.0761   18.4913 C   0  0  0  0  0  0  0  0  0  0  0  0
  -25.7320  -32.4014   23.8057 C   0  0  0  0  0  0  0  0  0  0  0  0
  -23.8134  -30.9712   21.6156 C   0  0  0  0  0  0  0  0  0  0  0  0
  -23.3367  -28.4033   19.4189 C   0  0  0  0  0  0  0  0  0  0  0  0
  -30.1312  -15.0074   20.1349 C   0  0  0  0  0  0  0  0  0  0  0  0
  -23.9540  -36.7105   25.8860 C   0  0  0  0  0  0  0  0  0  0  0  0
  -27.3099  -32.1239   21.8591 C   0  0  0  0  0  0  0  0  0  0  0  0
  -25.8031  -29.6405   22.4132 C   0  0  0  0  0  0  0  0  0  0  0  0
  -23.3384  -35.4127   25.3692 C   0  0  0  0  0  0  0  0  0  0  0  0
  -30.1540  -11.7163   18.7764 C   0  0  0  0  0  0  0  0  0  0  0  0
  -24.0742  -34.2067   25.9446 C   0  0  0  0  0  0  0  0  0  0  0  0
  -28.7029  -11.2530   18.9243 C   0  0  0  0  0  0  0  0  0  0  0  0
  -30.5992  -12.5731   19.9602 C   0  0  0  0  0  0  0  0  0  0  0  0
  -28.2740  -13.2497   20.4129 C   0  0  0  0  0  0  0  0  0  0  0  0
  -25.5459  -34.2011   25.5136 C   0  0  1  0  0  0  0  0  0  0  0  0
  -25.8589  -32.1529   22.3292 C   0  0  1  0  0  0  0  0  0  0  0  0
  -27.7598  -12.4373   19.2132 C   0  0  2  0  0  0  0  0  0  0  0  0
  -21.6543  -27.4818   17.8010 C   0  0  0  0  0  0  0  0  0  0  0  0
  -27.7628  -22.4446   19.1670 C   0  0  0  0  0  0  0  0  0  0  0  0
  -22.1627  -29.8985   23.9468 C   0  0  0  0  0  0  0  0  0  0  0  0
  -21.1190  -28.2631   22.3644 C   0  0  0  0  0  0  0  0  0  0  0  0
  -20.8165  -30.7127   22.0028 C   0  0  0  0  0  0  0  0  0  0  0  0
  -25.1935  -28.7090   17.1347 C   0  0  0  0  0  0  0  0  0  0  0  0
  -30.5119  -25.0857   22.5346 C   0  0  0  0  0  0  0  0  0  0  0  0
  -29.1197  -23.7339   20.8589 C   0  0  0  0  0  0  0  0  0  0  0  0
  -29.4401  -26.1247   22.8344 C   0  0  0  0  0  0  0  0  0  1  0  0
  -23.0685  -29.6603   21.5408 C   0  0  1  0  0  0  0  0  0  0  0  0
  -22.8641  -28.3864   17.9764 C   0  0  2  0  0  0  0  0  0  0  0  0
  -28.5661  -22.3547   20.4612 C   0  0  2  0  0  0  0  0  0  0  0  0
  -29.9557  -23.7107   22.1495 C   0  0  2  0  0  0  0  0  0  0  0  0
  -21.8199  -29.6345   22.4670 C   0  0  0  0  0  0  0  0  0  0  0  0
  -30.5274  -17.9069   20.0884 N   0  0  0  0  0  0  0  0  0  0  0  0
  -28.2691  -19.5188   20.4968 N   0  0  0  0  0  0  0  0  0  0  0  0
  -25.8953  -11.7034   20.6507 N   0  0  0  0  0  0  0  0  0  0  0  0
  -26.3264  -11.9800   19.4082 N   0  0  0  0  0  0  0  0  0  0  0  0
  -25.1471  -30.9056   22.0434 N   0  0  0  0  0  0  0  0  0  0  0  0
  -29.6609  -13.6776   20.1714 N   0  0  0  0  0  0  0  0  0  0  0  0
  -25.6423  -12.0399   17.1412 N   0  0  0  0  0  0  0  0  0  0  0  0
  -21.9312  -10.6594   19.3132 N   0  0  0  0  0  0  0  0  0  0  0  0
  -29.1424  -15.9738   20.3163 N   0  0  0  0  0  0  0  0  0  0  0  0
  -29.6532  -21.4181   20.2656 N   0  0  0  0  0  0  0  0  0  0  0  0
  -25.6708  -33.7387   24.1479 N   0  0  0  0  0  0  0  0  0  0  0  0
  -22.7703  -29.4402   20.1297 N   0  0  0  0  0  0  0  0  0  0  0  0
  -23.9505  -27.8972   17.0811 N   0  3  0  0  0  0  0  0  0  0  0  0
  -22.8081  -11.1502   17.2520 O   0  0  0  0  0  0  0  0  0  0  0  0
  -25.6910  -31.4501   24.5771 O   0  0  0  0  0  0  0  0  0  0  0  0
  -23.2356  -32.0141   21.2991 O   0  0  0  0  0  0  0  0  0  0  0  0
  -24.1262  -27.5770   19.8709 O   0  0  0  0  0  0  0  0  0  0  0  0
  -31.3188  -15.2703   19.9287 O   0  0  0  0  0  0  0  0  0  0  0  0
  -29.1463  -23.2469   23.2315 O   0  0  0  0  0  0  0  0  0  0  0  0
  -21.4329   -9.8650   24.8047 O   0  0  0  0  0  0  0  0  0  0  0  0
  -30.0560  -27.3563   23.2087 O   0  0  0  0  0  0  0  0  0  1  0  0
  -18.3025   -5.3567   24.2746 F   0  0  0  0  0  0  0  0  0  0  0  0
  -21.7503   -7.7097   26.5067 F   0  0  0  0  0  0  0  0  0  0  0  0
  1  2  1  0  0  0  0
  1  5  2  0  0  0  0
  2  6  2  0  0  0  0
  3  8  2  0  0  0  0
  3 17  1  0  0  0  0
  4  9  1  0  0  0  0
  4 17  2  0  0  0  0
  5 19  1  0  0  0  0
  6 21  1  0  0  0  0
  7 10  2  0  0  0  0
  7 20  1  0  0  0  0
  8 23  1  0  0  0  0
  9 23  2  0  0  0  0
 10 24  1  0  0  0  0
 11 12  2  0  0  0  0
 11 25  1  0  0  0  0
 12 26  1  0  0  0  0
 13 22  1  0  0  0  0
 13 24  2  0  0  0  0
 14 26  2  0  0  0  0
 14 27  1  0  0  0  0
 15 29  2  0  0  0  0
 15 64  1  0  0  0  0
 16 30  1  0  0  0  0
 16 63  2  0  0  0  0
 17 28  1  0  0  0  0
 18 28  1  0  0  0  0
 18 31  2  0  0  0  0
 18 32  1  0  0  0  0
 19 21  2  0  0  0  0
 19 37  1  0  0  0  0
 20 22  2  0  0  0  0
 20 38  1  0  0  0  0
 21 46  1  0  0  0  0
 22 39  1  0  0  0  0
 23 82  1  0  0  0  0
 24 83  1  0  0  0  0
 25 27  2  0  0  0  0
 25 82  1  0  0  0  0
 26 84  1  0  0  0  0
 27 85  1  0  0  0  0
 28 65  2  0  0  0  0
 29 63  1  0  0  0  0
 29 71  1  0  0  0  0
 30 64  2  0  0  0  0
 30 72  1  0  0  0  0
 31 66  1  0  0  0  0
 31 69  1  0  0  0  0
 32 70  1  0  0  0  0
 32 76  2  0  0  0  0
 33 47  1  0  0  0  0
 33 73  1  0  0  0  0
 33 77  2  0  0  0  0
 34 58  1  0  0  0  0
 34 67  1  0  0  0  0
 34 78  2  0  0  0  0
 35 59  1  0  0  0  0
 35 74  1  0  0  0  0
 35 79  2  0  0  0  0
 36 68  1  0  0  0  0
 36 71  1  0  0  0  0
 36 80  2  0  0  0  0
 37 40  1  0  0  0  0
 38 47  1  0  0  0  0
 39 67  1  0  0  0  0
 40 42  1  0  0  0  0
 41 43  1  0  0  0  0
 41 44  1  0  0  0  0
 42 46  1  0  0  0  0
 43 48  1  0  0  0  0
 44 68  1  0  0  0  0
 45 48  1  0  0  0  0
 45 68  1  0  0  0  0
 46 73  1  0  0  0  0
 47 67  1  0  0  0  0
 48 66  1  0  0  0  0
 49 59  1  0  0  0  0
 50 60  1  0  0  0  0
 51 62  1  0  0  0  0
 52 62  1  0  0  0  0
 53 62  1  0  0  0  0
 54 75  1  0  0  0  0
 55 57  1  0  0  0  0
 55 61  1  0  0  0  0
 56 60  1  0  0  0  0
 56 61  1  0  0  0  0
 57 83  1  0  0  0  0
 58 62  1  0  0  0  0
 58 74  1  0  0  0  0
 59 75  1  0  0  0  0
 60 72  1  0  0  0  0
 61 81  1  0  0  0  0
 65 66  1  0  0  0  0
M  CHG  1  75   1
M  ISO  4  36 100  57 101  71 100  83 101
M  END
> <Batch ID>
0193

> <Smiles>
CNC(C)C(=O)NC(C(=O)N1Cc2cc([101O:1][101CH2:1]CC(O)CC(C)Nc3cnc([100NH:0][100C:0](=O)N4CCCC(n5nc(-c6ccc(Oc7ccc(F)cc7F)cc6)c(C(N)=O)c5N)C4)cn3)ccc2CC1C(=O)NC1CCCc2ccccc21)C(C)(C)C

> <Shape>
0.297

> <Color>
0.084

> <Negative vol penalty>
0.000

$$$$

  -OEChem-04052305303D

 87 95  0     1  0  0  0  0  0999 V2000
  -18.2319  -33.3619   22.9861 C   0  0  0  0  0  0  0  0  0  0  0  0
  -19.5475  -33.1664   23.3940 C   0  0  0  0  0  0  0  0  0  0  0  0
  -22.7044  -12.0924   19.4187 C   0  0  0  0  0  0  0  0  0  0  0  0
  -23.5521  -11.8199   21.6647 C   0  0  0  0  0  0  0  0  0  0  0  0
  -17.3800  -32.2685   22.8362 C   0  0  0  0  0  0  0  0  0  0  0  0
  -20.0117  -31.8773   23.6532 C   0  0  0  0  0  0  0  0  0  0  0  0
  -25.6285  -29.1641   20.0502 C   0  0  0  0  0  0  0  0  0  0  0  0
  -22.1621  -10.8082   19.4676 C   0  0  0  0  0  0  0  0  0  0  0  0
  -23.0097  -10.5357   21.7136 C   0  0  0  0  0  0  0  0  0  0  0  0
  -26.8270  -28.6518   19.5530 C   0  0  0  0  0  0  0  0  0  0  0  0
  -19.9757   -9.1322   22.2089 C   0  0  0  0  0  0  0  0  0  0  0  0
  -19.2856   -8.7653   23.3643 C   0  0  0  0  0  0  0  0  0  0  0  0
  -26.4637  -26.5931   20.7686 C   0  0  0  0  0  0  0  0  0  0  0  0
  -20.8461   -6.9559   23.7217 C   0  0  0  0  0  0  0  0  0  0  0  0
  -28.2767  -20.4156   23.4828 C   0  0  0  0  0  0  0  0  0  0  0  0
  -23.3994  -12.5982   20.5173 C   0  0  0  0  0  0  0  0  0  0  0  0
  -23.3355  -15.1267   20.8491 C   0  0  0  0  0  0  0  0  0  0  0  0
  -17.8367  -30.9644   23.0843 C   0  0  0  0  0  0  0  0  0  0  0  0
  -24.8345  -28.3860   20.8973 C   0  0  0  0  0  0  0  0  0  0  0  0
  -19.1647  -30.7655   23.5076 C   0  0  0  0  0  0  0  0  0  0  0  0
  -25.2561  -27.0962   21.2598 C   0  0  0  0  0  0  0  0  0  0  0  0
  -22.3147  -10.0299   20.6150 C   0  0  0  0  0  0  0  0  0  0  0  0
  -27.2436  -27.3695   19.9115 C   0  0  0  0  0  0  0  0  0  0  0  0
  -21.1009   -8.4109   21.8099 C   0  0  0  0  0  0  0  0  0  0  0  0
  -19.7208   -7.6772   24.1207 C   0  0  0  0  0  0  0  0  0  0  0  0
  -21.5361   -7.3227   22.5664 C   0  0  0  0  0  0  0  0  0  0  0  0
  -23.9604  -13.9244   20.4672 C   0  0  0  0  0  0  0  0  0  0  0  0
  -29.0761  -19.8392   22.5180 C   0  0  0  0  0  0  0  0  0  0  0  0
  -24.2799  -16.0952   20.6111 C   0  0  0  0  0  0  0  0  0  0  0  0
  -30.2874  -21.6209   22.9285 C   0  0  0  0  0  0  0  0  0  0  0  0
  -22.0191  -15.3482   21.3724 C   0  0  0  0  0  0  0  0  0  0  0  0
  -21.6813  -28.1260   22.9136 C   0  0  0  0  0  0  0  0  0  0  0  0
  -22.0992  -25.4059   21.5584 C   0  0  0  0  0  0  0  0  0  0  0  0
  -22.6942  -22.7094   19.5554 C   0  0  0  0  0  0  0  0  0  0  0  0
  -29.5168  -17.9657   20.8925 C   0  0  0  0  0  0  0  0  0  0  0  0
  -16.8653  -29.8180   22.9541 C   0  0  0  0  0  0  0  0  0  0  0  0
  -23.5664  -28.9204   21.5057 C   0  0  0  0  0  0  0  0  0  0  0  0
  -24.3867  -26.3084   22.2013 C   0  0  0  0  0  0  0  0  0  0  0  0
  -17.5418  -28.4512   22.8870 C   0  0  0  0  0  0  0  0  0  0  0  0
  -28.6937  -15.8565   18.1446 C   0  0  0  0  0  0  0  0  0  0  0  0
  -18.6109  -28.3310   23.9684 C   0  0  0  0  0  0  0  0  0  0  0  0
  -27.3375  -15.2647   18.5353 C   0  0  0  0  0  0  0  0  0  0  0  0
  -29.6125  -16.0162   19.3546 C   0  0  0  0  0  0  0  0  0  0  0  0
  -27.6769  -16.1684   20.8710 C   0  0  0  0  0  0  0  0  0  0  0  0
  -19.7123  -29.3802   23.7744 C   0  0  1  0  0  0  0  0  0  0  0  0
  -22.4778  -27.8451   21.6734 C   0  0  1  0  0  0  0  0  0  0  0  0
  -26.6934  -16.0491   19.6953 C   0  0  2  0  0  0  0  0  0  0  0  0
  -32.5530  -22.3106   23.8138 C   0  0  0  0  0  0  0  0  0  0  0  0
  -21.7830  -20.4427   18.9815 C   0  0  0  0  0  0  0  0  0  0  0  0
  -32.7764  -23.4376   18.5871 C   0  0  0  0  0  0  0  0  0  0  0  0
  -30.9850  -21.7105   18.8659 C   0  0  0  0  0  0  0  0  0  0  0  0
  -23.2160  -24.2993   24.1722 C   0  0  0  0  0  0  0  0  0  0  0  0
  -23.1518  -22.0148   23.1500 C   0  0  0  0  0  0  0  0  0  0  0  0
  -21.0364  -23.2994   23.4623 C   0  0  0  0  0  0  0  0  0  0  0  0
  -22.2607  -23.4712   16.7286 C   0  0  0  0  0  0  0  0  0  0  0  0
  -31.4214  -25.0940   20.8229 C   0  0  0  0  0  0  0  0  0  0  0  0
  -29.1180  -25.9419   20.2375 C   0  0  0  0  0  0  0  0  0  1  0  0
  -31.4050  -22.6360   22.8616 C   0  0  1  0  0  0  0  0  0  0  0  0
  -22.6661  -24.0129   21.6659 C   0  0  1  0  0  0  0  0  0  0  0  0
  -21.7848  -21.9221   18.6292 C   0  0  2  0  0  0  0  0  0  0  0  0
  -31.3572  -23.1792   19.1028 C   0  0  0  0  0  0  0  0  0  0  0  0
  -31.1257  -23.6021   20.5753 C   0  0  1  0  0  0  0  0  0  0  0  0
  -30.6115  -26.0562   19.9420 C   0  0  1  0  0  0  0  0  0  0  0  0
  -22.5321  -23.4276   23.1001 C   0  0  0  0  0  0  0  0  0  0  0  0
  -25.2054  -14.1097   20.0203 N   0  0  0  0  0  0  0  0  0  0  0  0
  -30.2293  -20.5291   22.1985 N   0  0  0  0  0  0  0  0  0  0  0  0
  -25.3704  -15.4397   20.1199 N   0  0  0  0  0  0  0  0  0  0  0  0
  -22.9719  -26.4666   21.8300 N   0  0  0  0  0  0  0  0  0  0  0  0
  -28.9372  -16.7727   20.4111 N   0  0  0  0  0  0  0  0  0  0  0  0
  -24.2755  -17.4350   20.7761 N   0  0  0  0  0  0  0  0  0  0  0  0
  -21.1778  -14.2422   21.5549 N   0  0  0  0  0  0  0  0  0  0  0  0
  -28.7682  -18.6155   21.8733 N   0  0  0  0  0  0  0  0  0  0  0  0
  -20.6120  -28.9783   22.7144 N   0  0  0  0  0  0  0  0  0  0  0  0
  -22.0046  -23.2222   20.6337 N   0  0  0  0  0  0  0  0  0  0  0  0
  -22.2335  -22.0680   17.2156 N   0  3  0  0  0  0  0  0  0  0  0  0
  -31.9664  -22.7810   21.4946 N   0  3  0  0  0  0  0  0  0  0  0  0
  -21.5955  -16.4949   21.6538 O   0  0  0  0  0  0  0  0  0  0  0  0
  -22.0106  -27.6070   23.9737 O   0  0  0  0  0  0  0  0  0  0  0  0
  -20.9138  -25.5523   21.2477 O   0  0  0  0  0  0  0  0  0  0  0  0
  -23.8967  -22.8518   19.3453 O   0  0  0  0  0  0  0  0  0  0  0  0
  -30.5842  -18.3945   20.4468 O   0  0  0  0  0  0  0  0  0  0  0  0
  -31.0294  -27.3935   20.2139 O   0  0  0  0  0  0  0  0  0  0  0  0
  -21.7854   -8.7768   20.6631 O   0  0  0  0  0  0  0  0  0  0  0  0
  -28.4125  -26.8738   19.4188 O   0  0  0  0  0  0  0  0  0  1  0  0
  -19.0589   -7.3260   25.2310 F   0  0  0  0  0  0  0  0  0  0  0  0
  -22.6172   -6.6267   22.1887 F   0  0  0  0  0  0  0  0  0  0  0  0
  -28.9890  -21.8803   24.0202 S   0  0  0  0  0  0  0  0  0  0  0  0
  1  2  1  0  0  0  0
  1  5  2  0  0  0  0
  2  6  2  0  0  0  0
  3  8  2  0  0  0  0
  3 16  1  0  0  0  0
  4  9  1  0  0  0  0
  4 16  2  0  0  0  0
  5 18  1  0  0  0  0
  6 20  1  0  0  0  0
  7 10  2  0  0  0  0
  7 19  1  0  0  0  0
  8 22  1  0  0  0  0
  9 22  2  0  0  0  0
 10 23  1  0  0  0  0
 11 12  2  0  0  0  0
 11 24  1  0  0  0  0
 12 25  1  0  0  0  0
 13 21  1  0  0  0  0
 13 23  2  0  0  0  0
 14 25  2  0  0  0  0
 14 26  1  0  0  0  0
 15 28  2  0  0  0  0
 15 87  1  0  0  0  0
 16 27  1  0  0  0  0
 17 27  1  0  0  0  0
 17 29  2  0  0  0  0
 17 31  1  0  0  0  0
 18 20  2  0  0  0  0
 18 36  1  0  0  0  0
 19 21  2  0  0  0  0
 19 37  1  0  0  0  0
 20 45  1  0  0  0  0
 21 38  1  0  0  0  0
 22 83  1  0  0  0  0
 23 84  1  0  0  0  0
 24 26  2  0  0  0  0
 24 83  1  0  0  0  0
 25 85  1  0  0  0  0
 26 86  1  0  0  0  0
 27 65  2  0  0  0  0
 28 66  1  0  0  0  0
 28 72  1  0  0  0  0
 29 67  1  0  0  0  0
 29 70  1  0  0  0  0
 30 58  1  0  0  0  0
 30 66  2  0  0  0  0
 30 87  1  0  0  0  0
 31 71  1  0  0  0  0
 31 77  2  0  0  0  0
 32 46  1  0  0  0  0
 32 73  1  0  0  0  0
 32 78  2  0  0  0  0
 33 59  1  0  0  0  0
 33 68  1  0  0  0  0
 33 79  2  0  0  0  0
 34 60  1  0  0  0  0
 34 74  1  0  0  0  0
 34 80  2  0  0  0  0
 35 69  1  0  0  0  0
 35 72  1  0  0  0  0
 35 81  2  0  0  0  0
 36 39  1  0  0  0  0
 37 46  1  0  0  0  0
 38 68  1  0  0  0  0
 39 41  1  0  0  0  0
 40 42  1  0  0  0  0
 40 43  1  0  0  0  0
 41 45  1  0  0  0  0
 42 47  1  0  0  0  0
 43 69  1  0  0  0  0
 44 47  1  0  0  0  0
 44 69  1  0  0  0  0
 45 73  1  0  0  0  0
 46 68  1  0  0  0  0
 47 67  1  0  0  0  0
 48 58  1  0  0  0  0
 49 60  1  0  0  0  0
 50 61  1  0  0  0  0
 51 61  1  0  0  0  0
 52 64  1  0  0  0  0
 53 64  1  0  0  0  0
 54 64  1  0  0  0  0
 55 75  1  0  0  0  0
 56 62  1  0  0  0  0
 56 63  1  0  0  0  0
 57 63  1  0  0  0  0
 57 84  1  0  0  0  0
 58 76  1  0  0  0  0
 59 64  1  0  0  0  0
 59 74  1  0  0  0  0
 60 75  1  0  0  0  0
 61 62  1  0  0  0  0
 62 76  1  0  0  0  0
 63 82  1  0  0  0  0
 65 67  1  0  0  0  0
M  CHG  2  75   1  76   1
M  ISO  4  35 100  57 101  72 100  84 101
M  END
> <Batch ID>
0193

> <Smiles>
CNC(C)C(=O)NC(C(=O)N1Cc2cc([101O:1][101CH2:1]C(O)CC(NC(C)c3nc([100NH:0][100C:0](=O)N4CCCC(n5nc(-c6ccc(Oc7ccc(F)cc7F)cc6)c(C(N)=O)c5N)C4)cs3)C(C)C)ccc2CC1C(=O)NC1CCCc2ccccc21)C(C)(C)C

> <Shape>
0.231

> <Color>
0.062

> <Negative vol penalty>
0.000

$$$$

  -OEChem-04052305303D

 89 97  0     1  0  0  0  0  0999 V2000
  -23.0056   -8.0217   23.2840 C   0  0  0  0  0  0  0  0  0  0  0  0
  -23.8604   -8.8041   22.5141 C   0  0  0  0  0  0  0  0  0  0  0  0
  -22.8906  -29.5042   21.2878 C   0  0  0  0  0  0  0  0  0  0  0  0
  -24.0480  -28.4984   23.1548 C   0  0  0  0  0  0  0  0  0  0  0  0
  -21.6764   -8.4057   23.4560 C   0  0  0  0  0  0  0  0  0  0  0  0
  -23.3860   -9.9704   21.9148 C   0  0  0  0  0  0  0  0  0  0  0  0
  -26.5731  -13.8682   22.4579 C   0  0  0  0  0  0  0  0  0  0  0  0
  -21.8058  -29.7928   22.1158 C   0  0  0  0  0  0  0  0  0  0  0  0
  -22.9633  -28.7870   23.9828 C   0  0  0  0  0  0  0  0  0  0  0  0
  -27.6880  -13.9004   21.6213 C   0  0  0  0  0  0  0  0  0  0  0  0
  -18.5835  -30.4727   23.6579 C   0  0  0  0  0  0  0  0  0  0  0  0
  -17.3047  -30.1989   23.1730 C   0  0  0  0  0  0  0  0  0  0  0  0
  -26.5670  -15.4938   20.1988 C   0  0  0  0  0  0  0  0  0  0  0  0
  -17.8885  -27.8650   22.9508 C   0  0  0  0  0  0  0  0  0  0  0  0
  -24.0117  -28.8569   21.8073 C   0  0  0  0  0  0  0  0  0  0  0  0
  -26.2505  -29.3751   20.6996 C   0  0  0  0  0  0  0  0  0  0  0  0
  -21.1880   -9.5824   22.8665 C   0  0  0  0  0  0  0  0  0  0  0  0
  -25.4407  -14.6416   22.1647 C   0  0  0  0  0  0  0  0  0  0  0  0
  -22.0487  -10.3698   22.0780 C   0  0  0  0  0  0  0  0  0  0  0  0
  -25.4401  -15.4716   21.0346 C   0  0  0  0  0  0  0  0  0  0  0  0
  -30.4367  -20.0949   21.9377 C   0  0  0  0  0  0  0  0  0  0  0  0
  -21.8422  -29.4342   23.4633 C   0  0  0  0  0  0  0  0  0  0  0  0
  -27.6840  -14.7111   20.4900 C   0  0  0  0  0  0  0  0  0  0  0  0
  -19.5149  -29.4426   23.7892 C   0  0  0  0  0  0  0  0  0  0  0  0
  -16.9572  -28.8951   22.8195 C   0  0  0  0  0  0  0  0  0  0  0  0
  -19.1674  -28.1388   23.4357 C   0  0  0  0  0  0  0  0  0  0  0  0
  -25.1323  -28.5580   20.9523 C   0  0  0  0  0  0  0  0  0  0  0  0
  -29.9213  -21.1900   22.6007 C   0  0  0  0  0  0  0  0  0  0  0  0
  -30.0691  -19.9713   20.6134 C   0  0  0  0  0  0  0  0  0  0  0  0
  -27.0207  -28.6435   19.8290 C   0  0  0  0  0  0  0  0  0  0  0  0
  -28.8241  -21.8696   20.7295 C   0  0  0  0  0  0  0  0  0  0  0  0
  -26.5649  -30.6789   21.2065 C   0  0  0  0  0  0  0  0  0  0  0  0
  -22.3983  -14.0028   21.5019 C   0  0  0  0  0  0  0  0  0  0  0  0
  -22.0971  -17.2299   21.6361 C   0  0  0  0  0  0  0  0  0  0  0  0
  -23.5836  -20.2914   21.3826 C   0  0  0  0  0  0  0  0  0  0  0  0
  -27.5361  -22.7857   18.7678 C   0  0  0  0  0  0  0  0  0  0  0  0
  -19.7313   -9.9318   23.0418 C   0  0  0  0  0  0  0  0  0  0  0  0
  -24.2564  -14.6160   23.0917 C   0  0  0  0  0  0  0  0  0  0  0  0
  -24.2572  -16.3365   20.6865 C   0  0  0  0  0  0  0  0  0  0  0  0
  -19.4043  -11.3787   22.6816 C   0  0  0  0  0  0  0  0  0  0  0  0
  -26.6663  -25.3084   16.4105 C   0  0  0  0  0  0  0  0  0  0  0  0
  -20.0498  -11.7568   21.3523 C   0  0  0  0  0  0  0  0  0  0  0  0
  -26.2818  -26.5043   17.2846 C   0  0  0  0  0  0  0  0  0  0  0  0
  -26.2228  -23.9854   17.0325 C   0  0  0  0  0  0  0  0  0  0  0  0
  -26.2789  -24.9677   19.2911 C   0  0  0  0  0  0  0  0  0  0  0  0
  -21.5778  -11.6549   21.4322 C   0  0  1  0  0  0  0  0  0  0  0  0
  -22.9600  -15.0539   22.4170 C   0  0  1  0  0  0  0  0  0  0  0  0
  -26.7621  -26.3181   18.7373 C   0  0  2  0  0  0  0  0  0  0  0  0
  -29.3492  -22.4867   24.6690 C   0  0  0  0  0  0  0  0  0  0  0  0
  -23.0730  -22.7453   21.5050 C   0  0  0  0  0  0  0  0  0  0  0  0
  -30.7447  -17.6906   22.6135 C   0  0  0  0  0  0  0  0  0  0  0  0
  -32.7434  -19.0912   22.0014 C   0  0  0  0  0  0  0  0  0  0  0  0
  -20.8268  -17.1013   18.8649 C   0  0  0  0  0  0  0  0  0  0  0  0
  -21.2132  -19.5655   18.6498 C   0  0  0  0  0  0  0  0  0  0  0  0
  -19.7204  -18.6911   20.4469 C   0  0  0  0  0  0  0  0  0  0  0  0
  -25.4264  -20.6792   23.6658 C   0  0  0  0  0  0  0  0  0  0  0  0
  -30.2493  -21.4287   24.0379 C   0  0  0  0  0  0  0  0  0  0  0  0
  -30.5165  -16.0867   18.7265 C   0  0  0  0  0  0  0  0  0  0  0  0
  -30.2450  -18.6496   18.5044 C   0  0  0  0  0  0  0  0  0  0  0  0
  -29.0201  -15.9623   18.9717 C   0  0  0  0  0  0  0  0  0  1  0  0
  -22.2191  -18.3573   20.6396 C   0  0  1  0  0  0  0  0  0  0  0  0
  -23.5261  -21.5162   22.2775 C   0  0  2  0  0  0  0  0  0  0  0  0
  -30.9194  -17.3734   17.9984 C   0  0  1  0  0  0  0  0  0  0  0  0
  -31.3302  -19.1163   22.6163 C   0  0  0  0  0  0  0  0  0  0  0  0
  -21.0166  -18.4112   19.6555 C   0  0  0  0  0  0  0  0  0  0  0  0
  -25.1836  -27.3963   20.2953 N   0  0  0  0  0  0  0  0  0  0  0  0
  -29.1090  -22.1007   22.0252 N   0  0  0  0  0  0  0  0  0  0  0  0
  -29.2613  -20.8433   19.9751 N   0  0  0  0  0  0  0  0  0  0  0  0
  -26.3432  -27.4781   19.6210 N   0  0  0  0  0  0  0  0  0  0  0  0
  -23.1208  -16.2719   21.6204 N   0  0  0  0  0  0  0  0  0  0  0  0
  -26.7179  -23.8770   18.4066 N   0  0  0  0  0  0  0  0  0  0  0  0
  -28.2045  -28.8897   19.2287 N   0  0  0  0  0  0  0  0  0  0  0  0
  -25.6640  -31.2868   22.0916 N   0  0  0  0  0  0  0  0  0  0  0  0
  -30.5550  -18.8916   19.8949 N   0  0  0  0  0  0  0  0  0  0  0  0
  -27.9732  -22.8062   20.0918 N   0  0  0  0  0  0  0  0  0  0  0  0
  -22.1251  -12.8008   22.1264 N   0  0  0  0  0  0  0  0  0  0  0  0
  -22.4063  -19.5747   21.4216 N   0  0  0  0  0  0  0  0  0  0  0  0
  -24.8692  -21.7958   22.8598 N   0  3  0  0  0  0  0  0  0  0  0  0
  -27.6056  -31.2938   20.8714 O   0  0  0  0  0  0  0  0  0  0  0  0
  -22.2240  -14.2637   20.3173 O   0  0  0  0  0  0  0  0  0  0  0  0
  -21.1329  -17.2040   22.4050 O   0  0  0  0  0  0  0  0  0  0  0  0
  -24.5725  -20.0016   20.7129 O   0  0  0  0  0  0  0  0  0  0  0  0
  -27.8498  -21.9127   17.9545 O   0  0  0  0  0  0  0  0  0  0  0  0
  -32.3342  -17.5435   18.1033 O   0  0  0  0  0  0  0  0  0  0  0  0
  -20.7839  -29.7159   24.2716 O   0  0  0  0  0  0  0  0  0  0  0  0
  -28.7706  -14.7439   19.6715 O   0  0  0  0  0  0  0  0  0  1  0  0
  -15.7285  -28.6321   22.3552 F   0  0  0  0  0  0  0  0  0  0  0  0
  -20.0576  -27.1450   23.5608 F   0  0  0  0  0  0  0  0  0  0  0  0
  -31.5347  -19.4094   23.9545 F   0  0  0  0  0  0  0  0  0  0  0  0
  1  2  1  0  0  0  0
  1  5  2  0  0  0  0
  2  6  2  0  0  0  0
  3  8  2  0  0  0  0
  3 15  1  0  0  0  0
  4  9  1  0  0  0  0
  4 15  2  0  0  0  0
  5 17  1  0  0  0  0
  6 19  1  0  0  0  0
  7 10  2  0  0  0  0
  7 18  1  0  0  0  0
  8 22  1  0  0  0  0
  9 22  2  0  0  0  0
 10 23  1  0  0  0  0
 11 12  2  0  0  0  0
 11 24  1  0  0  0  0
 12 25  1  0  0  0  0
 13 20  1  0  0  0  0
 13 23  2  0  0  0  0
 14 25  2  0  0  0  0
 14 26  1  0  0  0  0
 15 27  1  0  0  0  0
 16 27  1  0  0  0  0
 16 30  2  0  0  0  0
 16 32  1  0  0  0  0
 17 19  2  0  0  0  0
 17 37  1  0  0  0  0
 18 20  2  0  0  0  0
 18 38  1  0  0  0  0
 19 46  1  0  0  0  0
 20 39  1  0  0  0  0
 21 28  2  0  0  0  0
 21 29  1  0  0  0  0
 21 64  1  0  0  0  0
 22 85  1  0  0  0  0
 23 86  1  0  0  0  0
 24 26  2  0  0  0  0
 24 85  1  0  0  0  0
 25 87  1  0  0  0  0
 26 88  1  0  0  0  0
 27 66  2  0  0  0  0
 28 57  1  0  0  0  0
 28 67  1  0  0  0  0
 29 68  2  0  0  0  0
 29 74  1  0  0  0  0
 30 69  1  0  0  0  0
 30 72  1  0  0  0  0
 31 67  2  0  0  0  0
 31 68  1  0  0  0  0
 31 75  1  0  0  0  0
 32 73  1  0  0  0  0
 32 79  2  0  0  0  0
 33 47  1  0  0  0  0
 33 76  1  0  0  0  0
 33 80  2  0  0  0  0
 34 61  1  0  0  0  0
 34 70  1  0  0  0  0
 34 81  2  0  0  0  0
 35 62  1  0  0  0  0
 35 77  1  0  0  0  0
 35 82  2  0  0  0  0
 36 71  1  0  0  0  0
 36 75  1  0  0  0  0
 36 83  2  0  0  0  0
 37 40  1  0  0  0  0
 38 47  1  0  0  0  0
 39 70  1  0  0  0  0
 40 42  1  0  0  0  0
 41 43  1  0  0  0  0
 41 44  1  0  0  0  0
 42 46  1  0  0  0  0
 43 48  1  0  0  0  0
 44 71  1  0  0  0  0
 45 48  1  0  0  0  0
 45 71  1  0  0  0  0
 46 76  1  0  0  0  0
 47 70  1  0  0  0  0
 48 69  1  0  0  0  0
 49 57  1  0  0  0  0
 50 62  1  0  0  0  0
 51 64  1  0  0  0  0
 52 64  1  0  0  0  0
 53 65  1  0  0  0  0
 54 65  1  0  0  0  0
 55 65  1  0  0  0  0
 56 78  1  0  0  0  0
 58 60  1  0  0  0  0
 58 63  1  0  0  0  0
 59 63  1  0  0  0  0
 59 74  1  0  0  0  0
 60 86  1  0  0  0  0
 61 65  1  0  0  0  0
 61 77  1  0  0  0  0
 62 78  1  0  0  0  0
 63 84  1  0  0  0  0
 64 89  1  0  0  0  0
 66 69  1  0  0  0  0
M  CHG  1  78   1
M  ISO  4  36 100  60 101  75 100  86 101
M  END
> <Batch ID>
0193

> <Smiles>
CCc1nc([100NH:0][100C:0](=O)N2CCCC(n3nc(-c4ccc(Oc5ccc(F)cc5F)cc4)c(C(N)=O)c3N)C2)nc(NCC(O)C[101CH2:1][101O:1]c2ccc3c(c2)CN(C(=O)C(NC(=O)C(C)NC)C(C)(C)C)C(C(=O)NC2CCCc4ccccc42)C3)c1C(C)(C)F

> <Shape>
0.237

> <Color>
0.080

> <Negative vol penalty>
0.000

$$$$

  -OEChem-04052305303D

 85 93  0     1  0  0  0  0  0999 V2000
  -23.2436  -23.8928   19.3017 C   0  0  0  0  0  0  0  0  0  0  0  0
  -24.3709  -23.1413   19.6175 C   0  0  0  0  0  0  0  0  0  0  0  0
  -25.5000  -27.1686   19.7921 C   0  0  0  0  0  0  0  0  0  0  0  0
  -27.2698  -28.7676   20.1770 C   0  0  0  0  0  0  0  0  0  0  0  0
  -21.9803  -23.4495   19.6907 C   0  0  0  0  0  0  0  0  0  0  0  0
  -24.2357  -21.9465   20.3236 C   0  0  0  0  0  0  0  0  0  0  0  0
  -27.0412  -18.2089   18.3733 C   0  0  0  0  0  0  0  0  0  0  0  0
  -24.6421  -27.9262   20.5893 C   0  0  0  0  0  0  0  0  0  0  0  0
  -26.4119  -29.5253   20.9742 C   0  0  0  0  0  0  0  0  0  0  0  0
  -28.4047  -18.2179   18.6640 C   0  0  0  0  0  0  0  0  0  0  0  0
  -25.2060  -29.4244   24.1312 C   0  0  0  0  0  0  0  0  0  0  0  0
  -25.7015  -29.9018   25.3445 C   0  0  0  0  0  0  0  0  0  0  0  0
  -28.0448  -16.5558   20.3749 C   0  0  0  0  0  0  0  0  0  0  0  0
  -25.2916  -32.1697   24.6197 C   0  0  0  0  0  0  0  0  0  0  0  0
  -31.3567  -22.4846   24.8325 C   0  0  0  0  0  0  0  0  0  0  0  0
  -26.8139  -27.5893   19.5859 C   0  0  0  0  0  0  0  0  0  0  0  0
  -27.8968  -26.9246   17.3739 C   0  0  0  0  0  0  0  0  0  0  0  0
  -21.8285  -22.2438   20.3935 C   0  0  0  0  0  0  0  0  0  0  0  0
  -26.1662  -17.3798   19.0898 C   0  0  0  0  0  0  0  0  0  0  0  0
  -22.9692  -21.4873   20.7236 C   0  0  0  0  0  0  0  0  0  0  0  0
  -26.6710  -16.5362   20.0896 C   0  0  0  0  0  0  0  0  0  0  0  0
  -25.0980  -29.1046   21.1804 C   0  0  0  0  0  0  0  0  0  0  0  0
  -28.9063  -17.3935   19.6669 C   0  0  0  0  0  0  0  0  0  0  0  0
  -24.7534  -30.3197   23.1620 C   0  0  0  0  0  0  0  0  0  0  0  0
  -25.7442  -31.2744   25.5888 C   0  0  0  0  0  0  0  0  0  0  0  0
  -24.7962  -31.6924   23.4063 C   0  0  0  0  0  0  0  0  0  0  0  0
  -27.7008  -26.8068   18.7629 C   0  0  0  0  0  0  0  0  0  0  0  0
  -30.7614  -22.6467   23.5990 C   0  0  0  0  0  0  0  0  0  0  0  0
  -28.8314  -25.9631   17.0763 C   0  0  0  0  0  0  0  0  0  0  0  0
  -32.0573  -20.9439   23.1184 C   0  0  0  0  0  0  0  0  0  0  0  0
  -27.2885  -27.8228   16.4364 C   0  0  0  0  0  0  0  0  0  0  0  0
  -23.6624  -17.8675   20.9863 C   0  0  0  0  0  0  0  0  0  0  0  0
  -23.4521  -14.6319   20.8899 C   0  0  0  0  0  0  0  0  0  0  0  0
  -25.0194  -11.6400   20.4013 C   0  0  0  0  0  0  0  0  0  0  0  0
  -29.1989  -23.7858   22.0341 C   0  0  0  0  0  0  0  0  0  0  0  0
  -20.4470  -21.8292   20.8341 C   0  0  0  0  0  0  0  0  0  0  0  0
  -24.7020  -17.3621   18.7458 C   0  0  0  0  0  0  0  0  0  0  0  0
  -25.7766  -15.6127   20.8741 C   0  0  0  0  0  0  0  0  0  0  0  0
  -20.3552  -20.3641   21.2528 C   0  0  0  0  0  0  0  0  0  0  0  0
  -31.8750  -25.1130   20.1114 C   0  0  0  0  0  0  0  0  0  0  0  0
  -21.5129  -19.9994   22.1766 C   0  0  0  0  0  0  0  0  0  0  0  0
  -31.5527  -24.7084   18.6752 C   0  0  0  0  0  0  0  0  0  0  0  0
  -31.4821  -24.0176   21.0926 C   0  0  0  0  0  0  0  0  0  0  0  0
  -29.6765  -23.2213   19.5899 C   0  0  0  0  0  0  0  0  0  0  0  0
  -22.8610  -20.1735   21.4668 C   0  0  1  0  0  0  0  0  0  0  0  0
  -23.8261  -16.8556   19.8876 C   0  0  1  0  0  0  0  0  0  0  0  0
  -30.1093  -24.2102   18.4861 C   0  0  1  0  0  0  0  0  0  0  0  0
  -28.1229  -23.6256   25.1449 C   0  0  0  0  0  0  0  0  0  0  0  0
  -24.5956   -9.1667   20.4276 C   0  0  0  0  0  0  0  0  0  0  0  0
  -33.1306  -20.6791   20.1563 C   0  0  0  0  0  0  0  0  0  0  0  0
  -23.4597  -14.6655   23.9410 C   0  0  0  0  0  0  0  0  0  0  0  0
  -23.9914  -12.2193   23.8972 C   0  0  0  0  0  0  0  0  0  0  0  0
  -21.8506  -13.0463   22.9195 C   0  0  0  0  0  0  0  0  0  0  0  0
  -25.7455  -11.3679   17.5451 C   0  0  0  0  0  0  0  0  0  0  0  0
  -32.8508  -18.2267   20.6595 C   0  0  0  0  0  0  0  0  0  0  0  0
  -29.2015  -24.4166   24.4329 C   0  0  0  0  0  0  0  0  0  0  0  0
  -30.6132  -17.1093   21.2984 C   0  0  0  0  0  0  0  0  0  1  0  0
  -24.0229  -13.4986   21.7077 C   0  0  1  0  0  0  0  0  0  0  0  0
  -24.6366  -10.4254   19.5750 C   0  0  2  0  0  0  0  0  0  0  0  0
  -32.3995  -19.6496   21.0129 C   0  0  1  0  0  0  0  0  0  0  0  0
  -32.1337  -17.1111   21.4374 C   0  0  1  0  0  0  0  0  0  0  0  0
  -23.3480  -13.3761   23.1031 C   0  0  0  0  0  0  0  0  0  0  0  0
  -28.4505  -25.8462   19.3099 N   0  0  0  0  0  0  0  0  0  0  0  0
  -31.1622  -21.7644   22.6148 N   0  0  0  0  0  0  0  0  0  0  0  0
  -29.1266  -25.3515   18.2590 N   0  0  0  0  0  0  0  0  0  0  0  0
  -24.3515  -15.6362   20.5050 N   0  0  0  0  0  0  0  0  0  0  0  0
  -30.0775  -23.6408   20.9412 N   0  0  0  0  0  0  0  0  0  0  0  0
  -29.4211  -25.5895   15.9208 N   0  0  0  0  0  0  0  0  0  0  0  0
  -26.3485  -28.7479   16.9108 N   0  0  0  0  0  0  0  0  0  0  0  0
  -32.6728  -19.9295   22.4067 N   0  0  0  0  0  0  0  0  0  0  0  0
  -23.1080  -19.0634   20.5717 N   0  0  0  0  0  0  0  0  0  0  0  0
  -23.9091  -12.3015   20.8818 N   0  0  0  0  0  0  0  0  0  0  0  0
  -29.7771  -23.6635   23.3147 N   0  0  0  0  0  0  0  0  0  0  0  0
  -25.6201  -10.2162   18.4751 N   0  3  0  0  0  0  0  0  0  0  0  0
  -27.5580  -27.7947   15.2116 O   0  0  0  0  0  0  0  0  0  0  0  0
  -24.0117  -17.5836   22.1261 O   0  0  0  0  0  0  0  0  0  0  0  0
  -22.2538  -14.6226   20.5972 O   0  0  0  0  0  0  0  0  0  0  0  0
  -26.1868  -11.9670   20.6035 O   0  0  0  0  0  0  0  0  0  0  0  0
  -27.9941  -24.0190   21.8800 O   0  0  0  0  0  0  0  0  0  0  0  0
  -32.6126  -15.8516   20.9575 O   0  0  0  0  0  0  0  0  0  0  0  0
  -24.2611  -29.8442   21.9582 O   0  0  0  0  0  0  0  0  0  0  0  0
  -30.2366  -17.4009   19.9532 O   0  0  0  0  0  0  0  0  0  1  0  0
  -26.2186  -31.7326   26.7547 F   0  0  0  0  0  0  0  0  0  0  0  0
  -24.3616  -32.5573   22.4795 F   0  0  0  0  0  0  0  0  0  0  0  0
  -32.4636  -21.1761   24.7695 S   0  0  0  0  0  0  0  0  0  0  0  0
  1  2  1  0  0  0  0
  1  5  2  0  0  0  0
  2  6  2  0  0  0  0
  3  8  2  0  0  0  0
  3 16  1  0  0  0  0
  4  9  1  0  0  0  0
  4 16  2  0  0  0  0
  5 18  1  0  0  0  0
  6 20  1  0  0  0  0
  7 10  2  0  0  0  0
  7 19  1  0  0  0  0
  8 22  1  0  0  0  0
  9 22  2  0  0  0  0
 10 23  1  0  0  0  0
 11 12  2  0  0  0  0
 11 24  1  0  0  0  0
 12 25  1  0  0  0  0
 13 21  1  0  0  0  0
 13 23  2  0  0  0  0
 14 25  2  0  0  0  0
 14 26  1  0  0  0  0
 15 28  2  0  0  0  0
 15 85  1  0  0  0  0
 16 27  1  0  0  0  0
 17 27  1  0  0  0  0
 17 29  2  0  0  0  0
 17 31  1  0  0  0  0
 18 20  2  0  0  0  0
 18 36  1  0  0  0  0
 19 21  2  0  0  0  0
 19 37  1  0  0  0  0
 20 45  1  0  0  0  0
 21 38  1  0  0  0  0
 22 81  1  0  0  0  0
 23 82  1  0  0  0  0
 24 26  2  0  0  0  0
 24 81  1  0  0  0  0
 25 83  1  0  0  0  0
 26 84  1  0  0  0  0
 27 63  2  0  0  0  0
 28 64  1  0  0  0  0
 28 73  1  0  0  0  0
 29 65  1  0  0  0  0
 29 68  1  0  0  0  0
 30 64  2  0  0  0  0
 30 70  1  0  0  0  0
 30 85  1  0  0  0  0
 31 69  1  0  0  0  0
 31 75  2  0  0  0  0
 32 46  1  0  0  0  0
 32 71  1  0  0  0  0
 32 76  2  0  0  0  0
 33 58  1  0  0  0  0
 33 66  1  0  0  0  0
 33 77  2  0  0  0  0
 34 59  1  0  0  0  0
 34 72  1  0  0  0  0
 34 78  2  0  0  0  0
 35 67  1  0  0  0  0
 35 73  1  0  0  0  0
 35 79  2  0  0  0  0
 36 39  1  0  0  0  0
 37 46  1  0  0  0  0
 38 66  1  0  0  0  0
 39 41  1  0  0  0  0
 40 42  1  0  0  0  0
 40 43  1  0  0  0  0
 41 45  1  0  0  0  0
 42 47  1  0  0  0  0
 43 67  1  0  0  0  0
 44 47  1  0  0  0  0
 44 67  1  0  0  0  0
 45 71  1  0  0  0  0
 46 66  1  0  0  0  0
 47 65  1  0  0  0  0
 48 56  1  0  0  0  0
 49 59  1  0  0  0  0
 50 60  1  0  0  0  0
 51 62  1  0  0  0  0
 52 62  1  0  0  0  0
 53 62  1  0  0  0  0
 54 74  1  0  0  0  0
 55 60  1  0  0  0  0
 55 61  1  0  0  0  0
 56 73  1  0  0  0  0
 57 61  1  0  0  0  0
 57 82  1  0  0  0  0
 58 62  1  0  0  0  0
 58 72  1  0  0  0  0
 59 74  1  0  0  0  0
 60 70  1  0  0  0  0
 61 80  1  0  0  0  0
 63 65  1  0  0  0  0
M  CHG  1  74   1
M  ISO  4  35 100  57 101  73 100  82 101
M  END
> <Batch ID>
0193

> <Smiles>
CC[100N:0](c1csc(NC(C)CC(O)[101CH2:1][101O:1]c2ccc3c(c2)CN(C(=O)C(NC(=O)C(C)NC)C(C)(C)C)C(C(=O)NC2CCCc4ccccc42)C3)n1)[100C:0](=O)N1CCCC(n2nc(-c3ccc(Oc4ccc(F)cc4F)cc3)c(C(N)=O)c2N)C1

> <Shape>
0.205

> <Color>
0.076

> <Negative vol penalty>
0.000

$$$$

  -OEChem-04052305303D

 81 89  0     1  0  0  0  0  0999 V2000
  -28.3397  -11.0260   19.1087 C   0  0  0  0  0  0  0  0  0  0  0  0
  -28.5391  -12.3481   18.7244 C   0  0  0  0  0  0  0  0  0  0  0  0
  -19.1513  -27.0069   20.6930 C   0  0  0  0  0  0  0  0  0  0  0  0
  -20.4045  -25.3312   21.9007 C   0  0  0  0  0  0  0  0  0  0  0  0
  -27.1778  -10.6671   19.7907 C   0  0  0  0  0  0  0  0  0  0  0  0
  -27.5760  -13.3120   19.0208 C   0  0  0  0  0  0  0  0  0  0  0  0
  -29.5984  -17.5853   20.8355 C   0  0  0  0  0  0  0  0  0  0  0  0
  -18.3336  -26.0108   20.1594 C   0  0  0  0  0  0  0  0  0  0  0  0
  -19.5867  -24.3351   21.3672 C   0  0  0  0  0  0  0  0  0  0  0  0
  -30.1770  -18.4572   19.9142 C   0  0  0  0  0  0  0  0  0  0  0  0
  -18.0566  -21.3163   20.0421 C   0  0  0  0  0  0  0  0  0  0  0  0
  -18.6728  -20.1641   19.5538 C   0  0  0  0  0  0  0  0  0  0  0  0
  -28.1852  -19.8173   19.9595 C   0  0  0  0  0  0  0  0  0  0  0  0
  -19.9063  -21.4984   17.9616 C   0  0  0  0  0  0  0  0  0  0  0  0
  -29.9748  -26.5249   20.2084 C   0  0  0  0  0  0  0  0  0  0  0  0
  -20.1868  -26.6671   21.5636 C   0  0  0  0  0  0  0  0  0  0  0  0
  -20.8329  -28.4090   23.3117 C   0  0  0  0  0  0  0  0  0  0  0  0
  -26.2044  -11.6289   20.1041 C   0  0  0  0  0  0  0  0  0  0  0  0
  -28.3025  -17.8173   21.3182 C   0  0  0  0  0  0  0  0  0  0  0  0
  -26.3993  -12.9654   19.7064 C   0  0  0  0  0  0  0  0  0  0  0  0
  -27.5934  -18.9482   20.8888 C   0  0  0  0  0  0  0  0  0  0  0  0
  -18.5512  -24.6749   20.4966 C   0  0  0  0  0  0  0  0  0  0  0  0
  -29.4693  -19.5718   19.4738 C   0  0  0  0  0  0  0  0  0  0  0  0
  -18.3652  -22.5596   19.4900 C   0  0  0  0  0  0  0  0  0  0  0  0
  -19.5976  -20.2551   18.5136 C   0  0  0  0  0  0  0  0  0  0  0  0
  -19.2901  -22.6506   18.4498 C   0  0  0  0  0  0  0  0  0  0  0  0
  -21.0323  -27.6955   22.1146 C   0  0  0  0  0  0  0  0  0  0  0  0
  -29.3724  -26.3960   21.4423 C   0  0  0  0  0  0  0  0  0  0  0  0
  -21.9060  -29.2631   23.3851 C   0  0  0  0  0  0  0  0  0  0  0  0
  -30.1126  -24.3460   20.4166 C   0  0  0  0  0  0  0  0  0  0  0  0
  -19.7726  -28.3085   24.2716 C   0  0  0  0  0  0  0  0  0  0  0  0
  -25.5467  -16.2380   21.1951 C   0  0  0  0  0  0  0  0  0  0  0  0
  -24.5509  -18.6020   23.1805 C   0  0  0  0  0  0  0  0  0  0  0  0
  -24.9615  -21.7921   24.3214 C   0  0  0  0  0  0  0  0  0  0  0  0
  -27.4326  -29.0737   21.0891 C   0  0  0  0  0  0  0  0  0  0  0  0
  -24.9429  -11.1845   20.8011 C   0  0  0  0  0  0  0  0  0  0  0  0
  -27.7028  -16.8819   22.3320 C   0  0  0  0  0  0  0  0  0  0  0  0
  -26.2069  -19.2532   21.3919 C   0  0  0  0  0  0  0  0  0  0  0  0
  -24.1438  -12.3356   21.4067 C   0  0  0  0  0  0  0  0  0  0  0  0
  -25.0027  -31.6320   20.6120 C   0  0  0  0  0  0  0  0  0  0  0  0
  -24.0135  -13.4795   20.4061 C   0  0  0  0  0  0  0  0  0  0  0  0
  -23.6916  -30.9776   21.0510 C   0  0  0  0  0  0  0  0  0  0  0  0
  -25.9205  -30.6376   19.9042 C   0  0  0  0  0  0  0  0  0  0  0  0
  -24.8851  -28.7478   21.1001 C   0  0  0  0  0  0  0  0  0  0  0  0
  -25.3892  -14.0443   20.0316 C   0  0  1  0  0  0  0  0  0  0  0  0
  -26.1786  -16.9354   22.3664 C   0  0  1  0  0  0  0  0  0  0  0  0
  -23.9500  -29.6974   21.8682 C   0  0  2  0  0  0  0  0  0  0  0  0
  -23.9710  -23.4561   25.9175 C   0  0  0  0  0  0  0  0  0  0  0  0
  -32.3299  -20.6253   17.9869 C   0  0  0  0  0  0  0  0  0  0  0  0
  -22.2545  -19.0987   21.2338 C   0  0  0  0  0  0  0  0  0  0  0  0
  -21.8830  -21.3111   22.3452 C   0  0  0  0  0  0  0  0  0  0  0  0
  -21.6151  -19.2015   23.6493 C   0  0  0  0  0  0  0  0  0  0  0  0
  -27.4690  -21.9598   25.8845 C   0  0  0  0  0  0  0  0  0  0  0  0
  -28.8150  -27.4311   22.3341 C   0  0  0  0  0  0  0  0  0  0  0  0
  -31.0565  -22.5816   18.9261 C   0  0  0  0  0  0  0  0  0  0  0  0
  -23.9335  -19.9668   22.9925 C   0  0  1  0  0  0  0  0  0  0  0  0
  -25.0085  -22.3605   25.7283 C   0  0  2  0  0  0  0  0  0  0  0  0
  -31.2459  -21.0668   18.9594 C   0  0  1  0  0  0  0  0  0  1  0  0
  -22.4469  -19.8880   22.5441 C   0  0  0  0  0  0  0  0  0  0  0  0
  -30.4003  -25.3505   19.6188 N   0  0  0  0  0  0  0  0  0  0  0  0
  -22.1444  -28.0644   21.4735 N   0  0  0  0  0  0  0  0  0  0  0  0
  -22.6536  -29.0191   22.2707 N   0  0  0  0  0  0  0  0  0  0  0  0
  -25.6613  -18.3053   22.3774 N   0  0  0  0  0  0  0  0  0  0  0  0
  -26.1263  -29.4472   20.7327 N   0  0  0  0  0  0  0  0  0  0  0  0
  -22.2736  -30.1917   24.2934 N   0  0  0  0  0  0  0  0  0  0  0  0
  -18.7493  -27.3788   24.0419 N   0  0  0  0  0  0  0  0  0  0  0  0
  -30.4007  -23.0206   20.1369 N   0  0  0  0  0  0  0  0  0  0  0  0
  -25.8867  -14.9032   21.0848 N   0  0  0  0  0  0  0  0  0  0  0  0
  -24.1426  -20.6854   24.2449 N   0  0  0  0  0  0  0  0  0  0  0  0
  -27.5384  -27.9369   21.8811 N   0  0  0  0  0  0  0  0  0  0  0  0
  -26.3547  -22.9342   26.0103 N   0  3  0  0  0  0  0  0  0  0  0  0
  -19.7252  -29.0336   25.2941 O   0  0  0  0  0  0  0  0  0  0  0  0
  -24.8045  -16.8641   20.4476 O   0  0  0  0  0  0  0  0  0  0  0  0
  -24.0703  -17.8305   24.0143 O   0  0  0  0  0  0  0  0  0  0  0  0
  -25.5855  -22.2832   23.3834 O   0  0  0  0  0  0  0  0  0  0  0  0
  -28.4305  -29.7095   20.7326 O   0  0  0  0  0  0  0  0  0  0  0  0
  -17.7533  -23.7027   19.9763 O   0  0  0  0  0  0  0  0  0  0  0  0
  -30.0315  -20.4241   18.5741 O   0  0  0  0  0  0  0  0  0  1  0  0
  -20.1903  -19.1487   18.0459 F   0  0  0  0  0  0  0  0  0  0  0  0
  -19.5915  -23.8423   17.9162 F   0  0  0  0  0  0  0  0  0  0  0  0
  -29.3298  -24.7414   21.8916 S   0  0  0  0  0  0  0  0  0  0  0  0
  1  2  1  0  0  0  0
  1  5  2  0  0  0  0
  2  6  2  0  0  0  0
  3  8  2  0  0  0  0
  3 16  1  0  0  0  0
  4  9  1  0  0  0  0
  4 16  2  0  0  0  0
  5 18  1  0  0  0  0
  6 20  1  0  0  0  0
  7 10  2  0  0  0  0
  7 19  1  0  0  0  0
  8 22  1  0  0  0  0
  9 22  2  0  0  0  0
 10 23  1  0  0  0  0
 11 12  2  0  0  0  0
 11 24  1  0  0  0  0
 12 25  1  0  0  0  0
 13 21  1  0  0  0  0
 13 23  2  0  0  0  0
 14 25  2  0  0  0  0
 14 26  1  0  0  0  0
 15 28  2  0  0  0  0
 15 60  1  0  0  0  0
 16 27  1  0  0  0  0
 17 27  1  0  0  0  0
 17 29  2  0  0  0  0
 17 31  1  0  0  0  0
 18 20  2  0  0  0  0
 18 36  1  0  0  0  0
 19 21  2  0  0  0  0
 19 37  1  0  0  0  0
 20 45  1  0  0  0  0
 21 38  1  0  0  0  0
 22 77  1  0  0  0  0
 23 78  1  0  0  0  0
 24 26  2  0  0  0  0
 24 77  1  0  0  0  0
 25 79  1  0  0  0  0
 26 80  1  0  0  0  0
 27 61  2  0  0  0  0
 28 54  1  0  0  0  0
 28 81  1  0  0  0  0
 29 62  1  0  0  0  0
 29 65  1  0  0  0  0
 30 60  2  0  0  0  0
 30 67  1  0  0  0  0
 30 81  1  0  0  0  0
 31 66  1  0  0  0  0
 31 72  2  0  0  0  0
 32 46  1  0  0  0  0
 32 68  1  0  0  0  0
 32 73  2  0  0  0  0
 33 56  1  0  0  0  0
 33 63  1  0  0  0  0
 33 74  2  0  0  0  0
 34 57  1  0  0  0  0
 34 69  1  0  0  0  0
 34 75  2  0  0  0  0
 35 64  1  0  0  0  0
 35 70  1  0  0  0  0
 35 76  2  0  0  0  0
 36 39  1  0  0  0  0
 37 46  1  0  0  0  0
 38 63  1  0  0  0  0
 39 41  1  0  0  0  0
 40 42  1  0  0  0  0
 40 43  1  0  0  0  0
 41 45  1  0  0  0  0
 42 47  1  0  0  0  0
 43 64  1  0  0  0  0
 44 47  1  0  0  0  0
 44 64  1  0  0  0  0
 45 68  1  0  0  0  0
 46 63  1  0  0  0  0
 47 62  1  0  0  0  0
 48 57  1  0  0  0  0
 49 58  1  0  0  0  0
 50 59  1  0  0  0  0
 51 59  1  0  0  0  0
 52 59  1  0  0  0  0
 53 71  1  0  0  0  0
 54 70  1  0  0  0  0
 55 58  1  0  0  0  0
 55 67  1  0  0  0  0
 56 59  1  0  0  0  0
 56 69  1  0  0  0  0
 57 71  1  0  0  0  0
 58 78  1  0  0  0  0
 61 62  1  0  0  0  0
M  CHG  1  71   1
M  ISO  4  35 100  58 101  70 100  78 101
M  END
> <Batch ID>
0193

> <Smiles>
CNC(C)C(=O)NC(C(=O)N1Cc2cc([101O:1][101CH:1](C)CNc3ncc(C[100NH:0][100C:0](=O)N4CCCC(n5nc(-c6ccc(Oc7ccc(F)cc7F)cc6)c(C(N)=O)c5N)C4)s3)ccc2CC1C(=O)NC1CCCc2ccccc21)C(C)(C)C

> <Shape>
0.238

> <Color>
0.064

> <Negative vol penalty>
0.000

$$$$

  -OEChem-04052305303D

 84 92  0     1  0  0  0  0  0999 V2000
  -17.3673  -24.3319   24.3731 C   0  0  0  0  0  0  0  0  0  0  0  0
  -18.0983  -23.6317   23.4187 C   0  0  0  0  0  0  0  0  0  0  0  0
  -25.2438  -16.2507   21.6415 C   0  0  0  0  0  0  0  0  0  0  0  0
  -25.1166  -16.2715   19.2289 C   0  0  0  0  0  0  0  0  0  0  0  0
  -17.4947  -25.7169   24.4691 C   0  0  0  0  0  0  0  0  0  0  0  0
  -18.9566  -24.3165   22.5591 C   0  0  0  0  0  0  0  0  0  0  0  0
  -24.3088  -22.3265   20.3457 C   0  0  0  0  0  0  0  0  0  0  0  0
  -23.9755  -15.6735   21.7034 C   0  0  0  0  0  0  0  0  0  0  0  0
  -23.8483  -15.6942   19.2908 C   0  0  0  0  0  0  0  0  0  0  0  0
  -24.6638  -21.7504   19.1267 C   0  0  0  0  0  0  0  0  0  0  0  0
  -20.9221  -13.8626   22.4860 C   0  0  0  0  0  0  0  0  0  0  0  0
  -20.7386  -12.7929   23.3620 C   0  0  0  0  0  0  0  0  0  0  0  0
  -33.9214  -22.6492   14.8176 C   0  0  0  0  0  0  0  0  0  0  0  0
  -25.3370  -23.9165   18.3058 C   0  0  0  0  0  0  0  0  0  0  0  0
  -22.4284  -11.5346   22.1795 C   0  0  0  0  0  0  0  0  0  0  0  0
  -33.6726  -22.9222   13.4880 C   0  0  0  0  0  0  0  0  0  0  0  0
  -25.8143  -16.5498   20.4042 C   0  0  0  0  0  0  0  0  0  0  0  0
  -28.3607  -16.4775   20.2684 C   0  0  0  0  0  0  0  0  0  0  0  0
  -18.3623  -26.4179   23.6167 C   0  0  0  0  0  0  0  0  0  0  0  0
  -24.4553  -23.7060   20.5504 C   0  0  0  0  0  0  0  0  0  0  0  0
  -19.0948  -25.7124   22.6430 C   0  0  0  0  0  0  0  0  0  0  0  0
  -24.9855  -24.5073   19.5292 C   0  0  0  0  0  0  0  0  0  0  0  0
  -23.2778  -15.3952   20.5281 C   0  0  0  0  0  0  0  0  0  0  0  0
  -25.1752  -22.5458   18.1056 C   0  0  0  0  0  0  0  0  0  0  0  0
  -21.8587  -13.7684   21.4566 C   0  0  0  0  0  0  0  0  0  0  0  0
  -21.4917  -11.6289   23.2088 C   0  0  0  0  0  0  0  0  0  0  0  0
  -22.6119  -12.6044   21.3034 C   0  0  0  0  0  0  0  0  0  0  0  0
  -27.1242  -17.1467   20.3396 C   0  0  0  0  0  0  0  0  0  0  0  0
  -32.8852  -22.0559   15.5093 C   0  0  0  0  0  0  0  0  0  0  0  0
  -29.2940  -17.4843   20.2270 C   0  0  0  0  0  0  0  0  0  0  0  0
  -31.5741  -22.0639   13.6524 C   0  0  0  0  0  0  0  0  0  0  0  0
  -28.6406  -15.0716   20.2420 C   0  0  0  0  0  0  0  0  0  0  0  0
  -22.4664  -26.1035   21.1828 C   0  0  0  0  0  0  0  0  0  0  0  0
  -25.2185  -27.7971   21.4660 C   0  0  0  0  0  0  0  0  0  0  0  0
  -28.5199  -28.1159   20.6623 C   0  0  0  0  0  0  0  0  0  0  0  0
  -31.0669  -22.3995   18.2666 C   0  0  0  0  0  0  0  0  0  0  0  0
  -18.4311  -27.9205   23.7268 C   0  0  0  0  0  0  0  0  0  0  0  0
  -24.0928  -24.3079   21.8803 C   0  0  0  0  0  0  0  0  0  0  0  0
  -25.1814  -25.9902   19.7056 C   0  0  0  0  0  0  0  0  0  0  0  0
  -19.6443  -28.5276   23.0270 C   0  0  0  0  0  0  0  0  0  0  0  0
  -28.8104  -22.4566   21.0201 C   0  0  0  0  0  0  0  0  0  0  0  0
  -19.8120  -27.9290   21.6340 C   0  0  0  0  0  0  0  0  0  0  0  0
  -28.2683  -21.0274   21.0785 C   0  0  0  0  0  0  0  0  0  0  0  0
  -29.0323  -22.9177   19.5813 C   0  0  0  0  0  0  0  0  0  0  0  0
  -29.3302  -20.5913   18.8244 C   0  0  0  0  0  0  0  0  0  0  0  0
  -20.0548  -26.4168   21.7090 C   0  0  1  0  0  0  0  0  0  0  0  0
  -23.8030  -25.8036   21.8002 C   0  0  1  0  0  0  0  0  0  0  0  0
  -29.1432  -20.0618   20.2565 C   0  0  2  0  0  0  0  0  0  0  0  0
  -30.4956  -29.6232   21.0115 C   0  0  0  0  0  0  0  0  0  0  0  0
  -28.3482  -20.4762   12.7197 C   0  0  0  0  0  0  0  0  0  0  0  0
  -24.0593  -29.7782   19.4556 C   0  0  0  0  0  0  0  0  0  0  0  0
  -26.3676  -30.6915   19.1300 C   0  0  0  0  0  0  0  0  0  0  0  0
  -25.2787  -30.8279   21.3702 C   0  0  0  0  0  0  0  0  0  0  0  0
  -30.0655  -25.9734   21.9963 C   0  0  0  0  0  0  0  0  0  0  0  0
  -33.0608  -21.7231   16.9529 C   0  0  0  0  0  0  0  0  0  0  0  0
  -27.3246  -21.5689   15.3573 C   0  0  0  0  0  0  0  0  0  0  0  0
  -28.4901  -22.1833   14.5696 C   0  0  0  0  0  0  0  0  0  0  0  0
  -26.5809  -22.6085   16.1883 C   0  0  0  0  0  0  0  0  0  1  0  0
  -26.0887  -28.5888   20.5200 C   0  0  1  0  0  0  0  0  0  0  0  0
  -29.7414  -28.4031   21.5167 C   0  0  2  0  0  0  0  0  0  0  0  0
  -29.2589  -21.1386   13.7486 C   0  0  2  0  0  0  0  0  0  0  0  0
  -25.4432  -29.9440   20.1146 C   0  0  0  0  0  0  0  0  0  0  0  0
  -32.5060  -22.6419   12.8708 N   0  0  0  0  0  0  0  0  0  0  0  0
  -27.2566  -18.4757   20.3435 N   0  0  0  0  0  0  0  0  0  0  0  0
  -31.6937  -21.7483   14.9562 N   0  0  0  0  0  0  0  0  0  0  0  0
  -28.5874  -18.6499   20.2744 N   0  0  0  0  0  0  0  0  0  0  0  0
  -24.8062  -26.5328   21.0218 N   0  0  0  0  0  0  0  0  0  0  0  0
  -29.8708  -21.9594   18.8571 N   0  0  0  0  0  0  0  0  0  0  0  0
  -30.6421  -17.4774   20.1552 N   0  0  0  0  0  0  0  0  0  0  0  0
  -27.5645  -14.1750   20.2918 N   0  0  0  0  0  0  0  0  0  0  0  0
  -30.3648  -21.7623   13.0522 N   0  0  0  0  0  0  0  0  0  0  0  0
  -21.4241  -26.1430   22.0891 N   0  0  0  0  0  0  0  0  0  0  0  0
  -27.3880  -28.7169   21.1711 N   0  0  0  0  0  0  0  0  0  0  0  0
  -31.8049  -21.4258   17.6049 N   0  0  0  0  0  0  0  0  0  0  0  0
  -30.6696  -27.2373   21.5018 N   0  3  0  0  0  0  0  0  0  0  0  0
  -29.8112  -14.6235   20.1928 O   0  0  0  0  0  0  0  0  0  0  0  0
  -22.3869  -26.2871   19.9738 O   0  0  0  0  0  0  0  0  0  0  0  0
  -24.9215  -28.2797   22.5617 O   0  0  0  0  0  0  0  0  0  0  0  0
  -28.5660  -27.4303   19.6433 O   0  0  0  0  0  0  0  0  0  0  0  0
  -31.4514  -23.5722   18.3293 O   0  0  0  0  0  0  0  0  0  0  0  0
  -22.0403  -14.8316   20.5882 O   0  0  0  0  0  0  0  0  0  0  0  0
  -25.5219  -21.9862   16.9146 O   0  0  0  0  0  0  0  0  0  1  0  0
  -21.3165  -10.6022   24.0511 F   0  0  0  0  0  0  0  0  0  0  0  0
  -23.5140  -12.5084   20.3171 F   0  0  0  0  0  0  0  0  0  0  0  0
  1  2  1  0  0  0  0
  1  5  2  0  0  0  0
  2  6  2  0  0  0  0
  3  8  2  0  0  0  0
  3 17  1  0  0  0  0
  4  9  1  0  0  0  0
  4 17  2  0  0  0  0
  5 19  1  0  0  0  0
  6 21  1  0  0  0  0
  7 10  2  0  0  0  0
  7 20  1  0  0  0  0
  8 23  1  0  0  0  0
  9 23  2  0  0  0  0
 10 24  1  0  0  0  0
 11 12  2  0  0  0  0
 11 25  1  0  0  0  0
 12 26  1  0  0  0  0
 13 16  1  0  0  0  0
 13 29  2  0  0  0  0
 14 22  1  0  0  0  0
 14 24  2  0  0  0  0
 15 26  2  0  0  0  0
 15 27  1  0  0  0  0
 16 63  2  0  0  0  0
 17 28  1  0  0  0  0
 18 28  1  0  0  0  0
 18 30  2  0  0  0  0
 18 32  1  0  0  0  0
 19 21  2  0  0  0  0
 19 37  1  0  0  0  0
 20 22  2  0  0  0  0
 20 38  1  0  0  0  0
 21 46  1  0  0  0  0
 22 39  1  0  0  0  0
 23 81  1  0  0  0  0
 24 82  1  0  0  0  0
 25 27  2  0  0  0  0
 25 81  1  0  0  0  0
 26 83  1  0  0  0  0
 27 84  1  0  0  0  0
 28 64  2  0  0  0  0
 29 55  1  0  0  0  0
 29 65  1  0  0  0  0
 30 66  1  0  0  0  0
 30 69  1  0  0  0  0
 31 63  1  0  0  0  0
 31 65  2  0  0  0  0
 31 71  1  0  0  0  0
 32 70  1  0  0  0  0
 32 76  2  0  0  0  0
 33 47  1  0  0  0  0
 33 72  1  0  0  0  0
 33 77  2  0  0  0  0
 34 59  1  0  0  0  0
 34 67  1  0  0  0  0
 34 78  2  0  0  0  0
 35 60  1  0  0  0  0
 35 73  1  0  0  0  0
 35 79  2  0  0  0  0
 36 68  1  0  0  0  0
 36 74  1  0  0  0  0
 36 80  2  0  0  0  0
 37 40  1  0  0  0  0
 38 47  1  0  0  0  0
 39 67  1  0  0  0  0
 40 42  1  0  0  0  0
 41 43  1  0  0  0  0
 41 44  1  0  0  0  0
 42 46  1  0  0  0  0
 43 48  1  0  0  0  0
 44 68  1  0  0  0  0
 45 48  1  0  0  0  0
 45 68  1  0  0  0  0
 46 72  1  0  0  0  0
 47 67  1  0  0  0  0
 48 66  1  0  0  0  0
 49 60  1  0  0  0  0
 50 61  1  0  0  0  0
 51 62  1  0  0  0  0
 52 62  1  0  0  0  0
 53 62  1  0  0  0  0
 54 75  1  0  0  0  0
 55 74  1  0  0  0  0
 56 57  1  0  0  0  0
 56 58  1  0  0  0  0
 57 61  1  0  0  0  0
 58 82  1  0  0  0  0
 59 62  1  0  0  0  0
 59 73  1  0  0  0  0
 60 75  1  0  0  0  0
 61 71  1  0  0  0  0
 64 66  1  0  0  0  0
M  CHG  1  75   1
M  ISO  4  36 100  58 101  74 100  82 101
M  END
> <Batch ID>
0193

> <Smiles>
CNC(C)C(=O)NC(C(=O)N1Cc2cc([101O:1][101CH2:1]CCC(C)Nc3nccc(C[100NH:0][100C:0](=O)N4CCCC(n5nc(-c6ccc(Oc7ccc(F)cc7F)cc6)c(C(N)=O)c5N)C4)n3)ccc2CC1C(=O)NC1CCCc2ccccc21)C(C)(C)C

> <Shape>
0.221

> <Color>
0.056

> <Negative vol penalty>
0.000

$$$$

  -OEChem-04052305303D

 87 95  0     1  0  0  0  0  0999 V2000
  -29.8965  -20.0426   15.5115 C   0  0  0  0  0  0  0  0  0  0  0  0
  -30.9739  -19.6088   16.2773 C   0  0  0  0  0  0  0  0  0  0  0  0
  -23.2887   -9.7999   19.9122 C   0  0  0  0  0  0  0  0  0  0  0  0
  -23.7420   -9.9391   22.2812 C   0  0  0  0  0  0  0  0  0  0  0  0
  -29.0652  -21.0545   15.9900 C   0  0  0  0  0  0  0  0  0  0  0  0
  -31.2212  -20.1874   17.5217 C   0  0  0  0  0  0  0  0  0  0  0  0
  -32.2727  -16.7497   21.0884 C   0  0  0  0  0  0  0  0  0  0  0  0
  -22.5636   -8.6266   20.1199 C   0  0  0  0  0  0  0  0  0  0  0  0
  -23.0169   -8.7658   22.4890 C   0  0  0  0  0  0  0  0  0  0  0  0
  -33.5578  -16.2090   21.0924 C   0  0  0  0  0  0  0  0  0  0  0  0
  -20.9815   -6.0030   23.6900 C   0  0  0  0  0  0  0  0  0  0  0  0
  -20.0812   -5.9761   24.7550 C   0  0  0  0  0  0  0  0  0  0  0  0
  -34.1764  -17.7082   22.8781 C   0  0  0  0  0  0  0  0  0  0  0  0
  -18.8689   -7.8229   23.7767 C   0  0  0  0  0  0  0  0  0  0  0  0
  -30.8573  -13.1064   25.0869 C   0  0  0  0  0  0  0  0  0  0  0  0
  -23.8780  -10.4561   20.9929 C   0  0  0  0  0  0  0  0  0  0  0  0
  -24.1349  -12.9865   20.7959 C   0  0  0  0  0  0  0  0  0  0  0  0
  -29.2968  -21.6392   17.2450 C   0  0  0  0  0  0  0  0  0  0  0  0
  -31.9325  -17.7830   21.9733 C   0  0  0  0  0  0  0  0  0  0  0  0
  -30.3931  -21.2091   18.0168 C   0  0  0  0  0  0  0  0  0  0  0  0
  -32.8856  -18.2585   22.8851 C   0  0  0  0  0  0  0  0  0  0  0  0
  -22.4276   -8.1095   21.4083 C   0  0  0  0  0  0  0  0  0  0  0  0
  -34.5107  -16.6902   21.9854 C   0  0  0  0  0  0  0  0  0  0  0  0
  -20.8257   -6.9399   22.6684 C   0  0  0  0  0  0  0  0  0  0  0  0
  -19.0248   -6.8860   24.7983 C   0  0  0  0  0  0  0  0  0  0  0  0
  -19.7693   -7.8498   22.7117 C   0  0  0  0  0  0  0  0  0  0  0  0
  -24.6276  -11.6679   20.7789 C   0  0  0  0  0  0  0  0  0  0  0  0
  -31.4548  -13.2078   23.8499 C   0  0  0  0  0  0  0  0  0  0  0  0
  -32.8161  -13.7365   26.0848 C   0  0  0  0  0  0  0  0  0  0  0  0
  -33.4139  -13.8372   24.8479 C   0  0  0  0  0  0  0  0  0  0  0  0
  -25.2354  -13.7675   20.5403 C   0  0  0  0  0  0  0  0  0  0  0  0
  -22.8017  -13.4628   21.0226 C   0  0  0  0  0  0  0  0  0  0  0  0
  -30.9774  -20.7966   21.6419 C   0  0  0  0  0  0  0  0  0  0  0  0
  -37.7119  -17.0353   23.0838 C   0  0  0  0  0  0  0  0  0  0  0  0
  -30.6300  -20.6311   24.8628 C   0  0  0  0  0  0  0  0  0  0  0  0
  -31.5265  -19.1445   27.8009 C   0  0  0  0  0  0  0  0  0  0  0  0
  -31.0974  -12.9577   21.3688 C   0  0  0  0  0  0  0  0  0  0  0  0
  -28.3989  -22.7626   17.6993 C   0  0  0  0  0  0  0  0  0  0  0  0
  -30.5341  -18.3371   21.9745 C   0  0  0  0  0  0  0  0  0  0  0  0
  -32.5648  -19.3525   23.8693 C   0  0  0  0  0  0  0  0  0  0  0  0
  -28.5081  -23.0640   19.1918 C   0  0  0  0  0  0  0  0  0  0  0  0
  -29.4599  -13.6630   18.2869 C   0  0  0  0  0  0  0  0  0  0  0  0
  -29.9714  -23.1349   19.6165 C   0  0  0  0  0  0  0  0  0  0  0  0
  -27.9891  -13.3572   18.5795 C   0  0  0  0  0  0  0  0  0  0  0  0
  -30.3947  -12.6881   19.0006 C   0  0  0  0  0  0  0  0  0  0  0  0
  -28.7038  -12.2573   20.7397 C   0  0  0  0  0  0  0  0  0  0  0  0
  -30.6794  -21.7949   19.3824 C   0  0  1  0  0  0  0  0  0  0  0  0
  -30.4477  -19.7395   22.5690 C   0  0  1  0  0  0  0  0  0  0  0  0
  -27.7259  -13.2528   20.0946 C   0  0  2  0  0  0  0  0  0  0  0  0
  -39.2979  -18.5524   24.3362 C   0  0  0  0  0  0  0  0  0  0  0  0
  -31.1020  -19.2501   30.2720 C   0  0  0  0  0  0  0  0  0  0  0  0
  -36.0743  -12.3552   23.9931 C   0  0  0  0  0  0  0  0  0  0  0  0
  -32.3774  -23.1251   25.0539 C   0  0  0  0  0  0  0  0  0  0  0  0
  -32.6980  -22.6291   27.4868 C   0  0  0  0  0  0  0  0  0  0  0  0
  -30.4144  -23.1055   26.6033 C   0  0  0  0  0  0  0  0  0  0  0  0
  -30.4834  -16.3754   27.8575 C   0  0  0  0  0  0  0  0  0  0  0  0
  -38.5657  -17.2220   24.3284 C   0  0  0  0  0  0  0  0  0  0  0  0
  -36.8388  -14.7274   23.6042 C   0  0  0  0  0  0  0  0  0  0  0  0
  -36.4654  -16.1669   23.2348 C   0  0  2  0  0  0  0  0  0  1  0  0
  -31.5227  -20.9016   26.0497 C   0  0  1  0  0  0  0  0  0  0  0  0
  -30.6961  -18.6097   28.9537 C   0  0  2  0  0  0  0  0  0  0  0  0
  -35.6282  -13.7843   23.6991 C   0  0  2  0  0  0  0  0  0  0  0  0
  -31.7601  -22.4210   26.2787 C   0  0  0  0  0  0  0  0  0  0  0  0
  -31.5272  -13.3690   26.2266 N   0  0  0  0  0  0  0  0  0  0  0  0
  -25.9390  -11.6105   20.5318 N   0  0  0  0  0  0  0  0  0  0  0  0
  -32.7439  -13.5750   23.7082 N   0  0  0  0  0  0  0  0  0  0  0  0
  -26.2796  -12.9029   20.3912 N   0  0  0  0  0  0  0  0  0  0  0  0
  -31.1858  -19.8664   23.8274 N   0  0  0  0  0  0  0  0  0  0  0  0
  -30.0895  -12.6448   20.4323 N   0  0  0  0  0  0  0  0  0  0  0  0
  -33.5650  -14.0237   27.2488 N   0  0  0  0  0  0  0  0  0  0  0  0
  -25.4021  -15.1027   20.4306 N   0  0  0  0  0  0  0  0  0  0  0  0
  -21.7902  -12.5248   21.2705 N   0  0  0  0  0  0  0  0  0  0  0  0
  -30.6817  -12.9148   22.6992 N   0  0  0  0  0  0  0  0  0  0  0  0
  -34.7406  -14.2181   24.7580 N   0  0  0  0  0  0  0  0  0  0  0  0
  -30.3305  -20.8506   20.4220 N   0  0  0  0  0  0  0  0  0  0  0  0
  -30.9139  -20.2144   27.1834 N   0  0  0  0  0  0  0  0  0  0  0  0
  -30.8682  -17.1344   29.0753 N   0  3  0  0  0  0  0  0  0  0  0  0
  -22.5127  -14.6830   20.9895 O   0  0  0  0  0  0  0  0  0  0  0  0
  -31.9036  -21.5113   22.0067 O   0  0  0  0  0  0  0  0  0  0  0  0
  -38.0061  -17.5581   22.0085 O   0  0  0  0  0  0  0  0  0  0  0  0
  -29.4793  -21.0757   24.8578 O   0  0  0  0  0  0  0  0  0  0  0  0
  -32.6119  -18.6638   27.4826 O   0  0  0  0  0  0  0  0  0  0  0  0
  -32.2376  -13.2692   21.0154 O   0  0  0  0  0  0  0  0  0  0  0  0
  -21.7199   -6.9648   21.6113 O   0  0  0  0  0  0  0  0  0  0  0  0
  -35.7659  -16.1647   21.9910 O   0  0  0  0  0  0  0  0  0  1  0  0
  -18.1594   -6.8591   25.8203 F   0  0  0  0  0  0  0  0  0  0  0  0
  -19.6138   -8.7514   21.7326 F   0  0  0  0  0  0  0  0  0  0  0  0
  1  2  1  0  0  0  0
  1  5  2  0  0  0  0
  2  6  2  0  0  0  0
  3  8  2  0  0  0  0
  3 16  1  0  0  0  0
  4  9  1  0  0  0  0
  4 16  2  0  0  0  0
  5 18  1  0  0  0  0
  6 20  1  0  0  0  0
  7 10  2  0  0  0  0
  7 19  1  0  0  0  0
  8 22  1  0  0  0  0
  9 22  2  0  0  0  0
 10 23  1  0  0  0  0
 11 12  2  0  0  0  0
 11 24  1  0  0  0  0
 12 25  1  0  0  0  0
 13 21  1  0  0  0  0
 13 23  2  0  0  0  0
 14 25  2  0  0  0  0
 14 26  1  0  0  0  0
 15 28  1  0  0  0  0
 15 64  2  0  0  0  0
 16 27  1  0  0  0  0
 17 27  1  0  0  0  0
 17 31  2  0  0  0  0
 17 32  1  0  0  0  0
 18 20  2  0  0  0  0
 18 38  1  0  0  0  0
 19 21  2  0  0  0  0
 19 39  1  0  0  0  0
 20 47  1  0  0  0  0
 21 40  1  0  0  0  0
 22 84  1  0  0  0  0
 23 85  1  0  0  0  0
 24 26  2  0  0  0  0
 24 84  1  0  0  0  0
 25 86  1  0  0  0  0
 26 87  1  0  0  0  0
 27 65  2  0  0  0  0
 28 66  2  0  0  0  0
 28 73  1  0  0  0  0
 29 30  2  0  0  0  0
 29 64  1  0  0  0  0
 29 70  1  0  0  0  0
 30 66  1  0  0  0  0
 30 74  1  0  0  0  0
 31 67  1  0  0  0  0
 31 71  1  0  0  0  0
 32 72  1  0  0  0  0
 32 78  2  0  0  0  0
 33 48  1  0  0  0  0
 33 75  1  0  0  0  0
 33 79  2  0  0  0  0
 34 57  1  0  0  0  0
 34 59  1  0  0  0  0
 34 80  2  0  0  0  0
 35 60  1  0  0  0  0
 35 68  1  0  0  0  0
 35 81  2  0  0  0  0
 36 61  1  0  0  0  0
 36 76  1  0  0  0  0
 36 82  2  0  0  0  0
 37 69  1  0  0  0  0
 37 73  1  0  0  0  0
 37 83  2  0  0  0  0
 38 41  1  0  0  0  0
 39 48  1  0  0  0  0
 40 68  1  0  0  0  0
 41 43  1  0  0  0  0
 42 44  1  0  0  0  0
 42 45  1  0  0  0  0
 43 47  1  0  0  0  0
 44 49  1  0  0  0  0
 45 69  1  0  0  0  0
 46 49  1  0  0  0  0
 46 69  1  0  0  0  0
 47 75  1  0  0  0  0
 48 68  1  0  0  0  0
 49 67  1  0  0  0  0
 50 57  1  0  0  0  0
 51 61  1  0  0  0  0
 52 62  1  0  0  0  0
 53 63  1  0  0  0  0
 54 63  1  0  0  0  0
 55 63  1  0  0  0  0
 56 77  1  0  0  0  0
 58 59  1  0  0  0  0
 58 62  1  0  0  0  0
 59 85  1  0  0  0  0
 60 63  1  0  0  0  0
 60 76  1  0  0  0  0
 61 77  1  0  0  0  0
 62 74  1  0  0  0  0
 65 67  1  0  0  0  0
M  CHG  1  77   1
M  ISO  4  37 100  59 101  73 100  85 101
M  END
> <Batch ID>
0193

> <Smiles>
CCC(=O)[101CH:1](CC(C)Nc1nc([100NH:0][100C:0](=O)N2CCCC(n3nc(-c4ccc(Oc5ccc(F)cc5F)cc4)c(C(N)=O)c3N)C2)cnc1N)[101O:1]c1ccc2c(c1)CN(C(=O)C(NC(=O)C(C)NC)C(C)(C)C)C(C(=O)NC1CCCc3ccccc31)C2

> <Shape>
0.167

> <Color>
0.158

> <Negative vol penalty>
0.000

$$$$

  -OEChem-04052305303D

 84 92  0     1  0  0  0  0  0999 V2000
  -32.3798  -12.7599   21.1314 C   0  0  0  0  0  0  0  0  0  0  0  0
  -31.9980  -14.0676   21.4132 C   0  0  0  0  0  0  0  0  0  0  0  0
  -24.4899  -28.6786   22.3006 C   0  0  0  0  0  0  0  0  0  0  0  0
  -25.6319  -30.3734   21.0120 C   0  0  0  0  0  0  0  0  0  0  0  0
  -31.5378  -11.9339   20.3880 C   0  0  0  0  0  0  0  0  0  0  0  0
  -30.7744  -14.5505   20.9508 C   0  0  0  0  0  0  0  0  0  0  0  0
  -25.5096  -19.0601   22.7570 C   0  0  0  0  0  0  0  0  0  0  0  0
  -23.7905  -29.6715   22.9867 C   0  0  0  0  0  0  0  0  0  0  0  0
  -24.9325  -31.3663   21.6980 C   0  0  0  0  0  0  0  0  0  0  0  0
  -24.7851  -20.1328   22.2390 C   0  0  0  0  0  0  0  0  0  0  0  0
  -23.7125  -34.3601   23.3589 C   0  0  0  0  0  0  0  0  0  0  0  0
  -24.4327  -35.4657   23.8113 C   0  0  0  0  0  0  0  0  0  0  0  0
  -23.3769  -18.5906   21.0316 C   0  0  0  0  0  0  0  0  0  0  0  0
  -25.8178  -34.0130   25.1561 C   0  0  0  0  0  0  0  0  0  0  0  0
  -25.4106  -29.0296   21.3132 C   0  0  0  0  0  0  0  0  0  0  0  0
  -25.7474  -27.3600   19.4141 C   0  0  0  0  0  0  0  0  0  0  0  0
  -30.2989  -12.4039   19.9244 C   0  0  0  0  0  0  0  0  0  0  0  0
  -25.1795  -17.7430   22.4070 C   0  0  0  0  0  0  0  0  0  0  0  0
  -29.9155  -13.7305   20.1993 C   0  0  0  0  0  0  0  0  0  0  0  0
  -24.0971  -17.5029   21.5486 C   0  0  0  0  0  0  0  0  0  0  0  0
  -24.0118  -31.0153   22.6854 C   0  0  0  0  0  0  0  0  0  0  0  0
  -23.7204  -19.8983   21.3738 C   0  0  0  0  0  0  0  0  0  0  0  0
  -24.0449  -33.0810   23.8052 C   0  0  0  0  0  0  0  0  0  0  0  0
  -25.4854  -35.2921   24.7099 C   0  0  0  0  0  0  0  0  0  0  0  0
  -25.0975  -32.9075   24.7038 C   0  0  0  0  0  0  0  0  0  0  0  0
  -26.1338  -28.0045   20.6046 C   0  0  0  0  0  0  0  0  0  0  0  0
  -26.7671  -26.4771   19.1550 C   0  0  0  0  0  0  0  0  0  0  0  0
  -28.2935  -20.2224   18.8124 C   0  0  0  0  0  0  0  0  0  0  0  0
  -26.2466  -20.0354   18.0979 C   0  0  0  0  0  0  0  0  0  0  0  0
  -24.5718  -27.5431   18.6140 C   0  0  0  0  0  0  0  0  0  0  0  0
  -29.5247  -20.7466   19.4575 C   0  0  0  0  0  0  0  0  0  0  0  0
  -26.6845  -15.3742   20.9146 C   0  0  0  0  0  0  0  0  0  0  0  0
  -24.0494  -13.6847   21.7657 C   0  0  0  0  0  0  0  0  0  0  0  0
  -20.7479  -13.7066   22.6296 C   0  0  0  0  0  0  0  0  0  0  0  0
  -30.4217  -22.6402   20.7740 C   0  0  0  0  0  0  0  0  0  0  0  0
  -29.4435  -11.4889   19.0844 C   0  0  0  0  0  0  0  0  0  0  0  0
  -25.9539  -16.5957   22.9955 C   0  0  0  0  0  0  0  0  0  0  0  0
  -23.6894  -16.1067   21.1577 C   0  0  0  0  0  0  0  0  0  0  0  0
  -27.9975  -11.9595   18.9505 C   0  0  0  0  0  0  0  0  0  0  0  0
  -31.3462  -26.0161   21.2700 C   0  0  0  0  0  0  0  0  0  0  0  0
  -27.9490  -13.4476   18.6187 C   0  0  0  0  0  0  0  0  0  0  0  0
  -30.0433  -26.7854   21.0358 C   0  0  0  0  0  0  0  0  0  0  0  0
  -31.1010  -24.6909   21.9902 C   0  0  0  0  0  0  0  0  0  0  0  0
  -28.7930  -24.5923   21.1408 C   0  0  0  0  0  0  0  0  0  0  0  0
  -28.5850  -14.2830   19.7363 C   0  0  1  0  0  0  0  0  0  0  0  0
  -25.8542  -15.3194   22.1657 C   0  0  1  0  0  0  0  0  0  0  0  0
  -28.9786  -25.9012   20.3562 C   0  0  1  0  0  0  0  0  0  0  0  0
  -18.8586  -12.1680   23.2301 C   0  0  0  0  0  0  0  0  0  0  0  0
  -25.0265  -22.9133   17.5932 C   0  0  0  0  0  0  0  0  0  0  0  0
  -20.9160  -20.8918   19.6994 C   0  0  0  0  0  0  0  0  0  0  0  0
  -23.7547  -12.9051   18.8306 C   0  0  0  0  0  0  0  0  0  0  0  0
  -21.4040  -12.2000   19.3260 C   0  0  0  0  0  0  0  0  0  0  0  0
  -23.3119  -11.0528   20.4515 C   0  0  0  0  0  0  0  0  0  0  0  0
  -20.4417  -14.9376   25.3035 C   0  0  0  0  0  0  0  0  0  0  0  0
  -22.9945  -21.8264   18.6190 C   0  0  0  0  0  0  0  0  0  0  0  0
  -22.7057  -13.4102   21.1350 C   0  0  1  0  0  0  0  0  0  0  0  0
  -19.9979  -13.0249   23.7597 C   0  0  2  0  0  0  0  0  0  0  0  0
  -24.5275  -21.7971   18.5067 C   0  0  1  0  0  0  0  0  0  0  0  0
  -22.4293  -20.7673   19.5756 C   0  0  1  0  0  0  0  0  0  1  0  0
  -22.8027  -12.4185   19.9414 C   0  0  0  0  0  0  0  0  0  0  0  0
  -27.3073  -27.5680   21.0697 N   0  0  0  0  0  0  0  0  0  0  0  0
  -27.1340  -20.8422   18.7897 N   0  0  0  0  0  0  0  0  0  0  0  0
  -26.6366  -18.8622   17.5998 N   0  0  0  0  0  0  0  0  0  0  0  0
  -27.6671  -26.6398   20.1668 N   0  0  0  0  0  0  0  0  0  0  0  0
  -24.4815  -15.0185   21.7543 N   0  0  0  0  0  0  0  0  0  0  0  0
  -30.0880  -23.9091   21.2789 N   0  0  0  0  0  0  0  0  0  0  0  0
  -26.9727  -25.5852   18.1628 N   0  0  0  0  0  0  0  0  0  0  0  0
  -23.6254  -28.4918   19.0244 N   0  0  0  0  0  0  0  0  0  0  0  0
  -24.9593  -20.5249   17.9665 N   0  0  0  0  0  0  0  0  0  0  0  0
  -29.3984  -21.9919   20.0736 N   0  0  0  0  0  0  0  0  0  0  0  0
  -27.6733  -14.4109   20.8529 N   0  0  0  0  0  0  0  0  0  0  0  0
  -21.8320  -12.9626   22.2142 N   0  0  0  0  0  0  0  0  0  0  0  0
  -19.4289  -14.0403   24.6904 N   0  3  0  0  0  0  0  0  0  0  0  0
  -24.3590  -26.8733   17.5750 O   0  0  0  0  0  0  0  0  0  0  0  0
  -30.5430  -20.0603   19.4488 O   0  0  0  0  0  0  0  0  0  0  0  0
  -26.4448  -16.2263   20.0672 O   0  0  0  0  0  0  0  0  0  0  0  0
  -24.6889  -12.7512   22.2570 O   0  0  0  0  0  0  0  0  0  0  0  0
  -20.4042  -14.7889   22.1596 O   0  0  0  0  0  0  0  0  0  0  0  0
  -31.5451  -22.1434   20.9023 O   0  0  0  0  0  0  0  0  0  0  0  0
  -23.3294  -31.9844   23.3545 O   0  0  0  0  0  0  0  0  0  0  0  0
  -23.0120  -20.9435   20.8662 O   0  0  0  0  0  0  0  0  0  1  0  0
  -26.1779  -36.3537   25.1430 F   0  0  0  0  0  0  0  0  0  0  0  0
  -25.4222  -31.6810   25.1351 F   0  0  0  0  0  0  0  0  0  0  0  0
  -28.2530  -18.7087   18.0050 S   0  0  0  0  0  0  0  0  0  0  0  0
  1  2  1  0  0  0  0
  1  5  2  0  0  0  0
  2  6  2  0  0  0  0
  3  8  2  0  0  0  0
  3 15  1  0  0  0  0
  4  9  1  0  0  0  0
  4 15  2  0  0  0  0
  5 17  1  0  0  0  0
  6 19  1  0  0  0  0
  7 10  2  0  0  0  0
  7 18  1  0  0  0  0
  8 21  1  0  0  0  0
  9 21  2  0  0  0  0
 10 22  1  0  0  0  0
 11 12  2  0  0  0  0
 11 23  1  0  0  0  0
 12 24  1  0  0  0  0
 13 20  1  0  0  0  0
 13 22  2  0  0  0  0
 14 24  2  0  0  0  0
 14 25  1  0  0  0  0
 15 26  1  0  0  0  0
 16 26  1  0  0  0  0
 16 27  2  0  0  0  0
 16 30  1  0  0  0  0
 17 19  2  0  0  0  0
 17 36  1  0  0  0  0
 18 20  2  0  0  0  0
 18 37  1  0  0  0  0
 19 45  1  0  0  0  0
 20 38  1  0  0  0  0
 21 80  1  0  0  0  0
 22 81  1  0  0  0  0
 23 25  2  0  0  0  0
 23 80  1  0  0  0  0
 24 82  1  0  0  0  0
 25 83  1  0  0  0  0
 26 61  2  0  0  0  0
 27 64  1  0  0  0  0
 27 67  1  0  0  0  0
 28 31  1  0  0  0  0
 28 62  2  0  0  0  0
 28 84  1  0  0  0  0
 29 62  1  0  0  0  0
 29 63  2  0  0  0  0
 29 69  1  0  0  0  0
 30 68  1  0  0  0  0
 30 74  2  0  0  0  0
 31 70  1  0  0  0  0
 31 75  2  0  0  0  0
 32 46  1  0  0  0  0
 32 71  1  0  0  0  0
 32 76  2  0  0  0  0
 33 56  1  0  0  0  0
 33 65  1  0  0  0  0
 33 77  2  0  0  0  0
 34 57  1  0  0  0  0
 34 72  1  0  0  0  0
 34 78  2  0  0  0  0
 35 66  1  0  0  0  0
 35 70  1  0  0  0  0
 35 79  2  0  0  0  0
 36 39  1  0  0  0  0
 37 46  1  0  0  0  0
 38 65  1  0  0  0  0
 39 41  1  0  0  0  0
 40 42  1  0  0  0  0
 40 43  1  0  0  0  0
 41 45  1  0  0  0  0
 42 47  1  0  0  0  0
 43 66  1  0  0  0  0
 44 47  1  0  0  0  0
 44 66  1  0  0  0  0
 45 71  1  0  0  0  0
 46 65  1  0  0  0  0
 47 64  1  0  0  0  0
 48 57  1  0  0  0  0
 49 58  1  0  0  0  0
 50 59  1  0  0  0  0
 51 60  1  0  0  0  0
 52 60  1  0  0  0  0
 53 60  1  0  0  0  0
 54 73  1  0  0  0  0
 55 58  1  0  0  0  0
 55 59  1  0  0  0  0
 56 60  1  0  0  0  0
 56 72  1  0  0  0  0
 57 73  1  0  0  0  0
 58 69  1  0  0  0  0
 59 81  1  0  0  0  0
 61 64  1  0  0  0  0
 63 84  1  0  0  0  0
M  CHG  1  73   1
M  ISO  4  35 100  59 101  70 100  81 101
M  END
> <Batch ID>
0193

> <Smiles>
CNC(C)C(=O)NC(C(=O)N1Cc2cc([101O:1][101CH:1](C)CC(C)Nc3nsc(C(=O)[100NH:0][100C:0](=O)N4CCCC(n5nc(-c6ccc(Oc7ccc(F)cc7F)cc6)c(C(N)=O)c5N)C4)n3)ccc2CC1C(=O)NC1CCCc2ccccc21)C(C)(C)C

> <Shape>
0.266

> <Color>
0.065

> <Negative vol penalty>
0.000

$$$$

  -OEChem-04052305303D

 86 94  0     1  0  0  0  0  0999 V2000
  -16.9325  -30.3816   24.1231 C   0  0  0  0  0  0  0  0  0  0  0  0
  -16.9527  -29.0782   24.6092 C   0  0  0  0  0  0  0  0  0  0  0  0
  -22.8533  -10.2813   19.9716 C   0  0  0  0  0  0  0  0  0  0  0  0
  -23.9123   -9.7388   22.0743 C   0  0  0  0  0  0  0  0  0  0  0  0
  -17.4028  -30.6528   22.8389 C   0  0  0  0  0  0  0  0  0  0  0  0
  -17.4421  -28.0451   23.8108 C   0  0  0  0  0  0  0  0  0  0  0  0
  -23.1428  -22.8965   25.2327 C   0  0  0  0  0  0  0  0  0  0  0  0
  -22.0301   -9.1623   20.0975 C   0  0  0  0  0  0  0  0  0  0  0  0
  -23.0890   -8.6198   22.2002 C   0  0  0  0  0  0  0  0  0  0  0  0
  -24.2367  -22.0337   25.3045 C   0  0  0  0  0  0  0  0  0  0  0  0
  -19.9048   -7.9632   23.1223 C   0  0  0  0  0  0  0  0  0  0  0  0
  -19.3131   -7.7323   24.3641 C   0  0  0  0  0  0  0  0  0  0  0  0
  -24.3976  -22.0197   22.8916 C   0  0  0  0  0  0  0  0  0  0  0  0
  -20.4265   -5.5922   24.4967 C   0  0  0  0  0  0  0  0  0  0  0  0
  -31.3567  -16.9640   24.4704 C   0  0  0  0  0  0  0  0  0  0  0  0
  -23.7944  -10.5695   20.9600 C   0  0  0  0  0  0  0  0  0  0  0  0
  -24.3870  -13.0278   21.2968 C   0  0  0  0  0  0  0  0  0  0  0  0
  -17.9072  -29.6239   22.0280 C   0  0  0  0  0  0  0  0  0  0  0  0
  -22.6813  -23.3370   23.9891 C   0  0  0  0  0  0  0  0  0  0  0  0
  -17.9183  -28.3025   22.5140 C   0  0  0  0  0  0  0  0  0  0  0  0
  -23.3102  -22.8939   22.8140 C   0  0  0  0  0  0  0  0  0  0  0  0
  -22.1479   -8.3316   21.2118 C   0  0  0  0  0  0  0  0  0  0  0  0
  -24.8623  -21.5962   24.1368 C   0  0  0  0  0  0  0  0  0  0  0  0
  -20.7574   -7.0086   22.5676 C   0  0  0  0  0  0  0  0  0  0  0  0
  -19.5740   -6.5468   25.0513 C   0  0  0  0  0  0  0  0  0  0  0  0
  -21.0182   -5.8232   23.2548 C   0  0  0  0  0  0  0  0  0  0  0  0
  -24.6455  -11.7249   20.8303 C   0  0  0  0  0  0  0  0  0  0  0  0
  -30.8602  -16.8479   23.1890 C   0  0  0  0  0  0  0  0  0  0  0  0
  -25.4944  -13.7510   20.9267 C   0  0  0  0  0  0  0  0  0  0  0  0
  -29.2723  -18.0944   24.0461 C   0  0  0  0  0  0  0  0  0  0  0  0
  -23.2478  -13.5385   22.0018 C   0  0  0  0  0  0  0  0  0  0  0  0
  -20.2091  -25.4331   22.0996 C   0  0  0  0  0  0  0  0  0  0  0  0
  -27.7771  -20.0831   22.1149 C   0  0  0  0  0  0  0  0  0  0  0  0
  -22.9190  -25.7755   20.7032 C   0  0  0  0  0  0  0  0  0  0  0  0
  -26.1544  -26.2130   19.7145 C   0  0  0  0  0  0  0  0  0  0  0  0
  -31.0310  -14.2797   20.4653 C   0  0  0  0  0  0  0  0  0  0  0  0
  -18.3607  -29.9584   20.6290 C   0  0  0  0  0  0  0  0  0  0  0  0
  -21.4681  -24.2176   23.8615 C   0  0  0  0  0  0  0  0  0  0  0  0
  -22.7577  -23.3662   21.4969 C   0  0  0  0  0  0  0  0  0  0  0  0
  -19.2103  -28.8651   19.9863 C   0  0  0  0  0  0  0  0  0  0  0  0
  -29.3311  -12.5561   17.8544 C   0  0  0  0  0  0  0  0  0  0  0  0
  -18.5677  -27.4975   20.1954 C   0  0  0  0  0  0  0  0  0  0  0  0
  -27.9421  -12.2884   18.4367 C   0  0  0  0  0  0  0  0  0  0  0  0
  -30.4205  -12.4434   18.9187 C   0  0  0  0  0  0  0  0  0  0  0  0
  -28.8134  -13.0055   20.7006 C   0  0  0  0  0  0  0  0  0  0  0  0
  -18.4646  -27.1587   21.6874 C   0  0  1  0  0  0  0  0  0  0  0  0
  -21.5689  -25.2187   22.6966 C   0  0  1  0  0  0  0  0  0  0  0  0
  -27.6760  -13.1627   19.6769 C   0  0  2  0  0  0  0  0  0  0  0  0
  -28.0673  -20.9913   19.7719 C   0  0  0  0  0  0  0  0  0  0  0  0
  -24.9857  -17.0996   23.9241 C   0  0  0  0  0  0  0  0  0  0  0  0
  -27.5486  -27.4282   18.0184 C   0  0  0  0  0  0  0  0  0  0  0  0
  -22.0436  -23.7857   18.5635 C   0  0  0  0  0  0  0  0  0  0  0  0
  -24.0839  -24.4066   17.2521 C   0  0  0  0  0  0  0  0  0  0  0  0
  -22.3491  -26.1296   17.7465 C   0  0  0  0  0  0  0  0  0  0  0  0
  -27.6319  -27.6862   21.8134 C   0  0  0  0  0  0  0  0  0  0  0  0
  -31.4946  -16.1042   22.0825 C   0  0  0  0  0  0  0  0  0  0  0  0
  -27.4572  -19.9037   20.6382 C   0  0  0  0  0  0  0  0  0  0  0  0
  -25.2054  -18.4672   24.5587 C   0  0  0  0  0  0  0  0  0  0  0  0
  -27.1845  -19.0438   23.0635 C   0  0  2  0  0  0  0  0  0  0  0  0
  -23.8468  -25.3082   19.6104 C   0  0  1  0  0  0  0  0  0  0  0  0
  -26.9567  -27.4673   19.4187 C   0  0  2  0  0  0  0  0  0  0  0  0
  -25.8071  -19.4857   23.5793 C   0  0  2  0  0  0  0  0  0  1  0  0
  -23.0832  -24.8978   18.3198 C   0  0  0  0  0  0  0  0  0  0  0  0
  -25.8245  -11.6235   20.2109 N   0  0  0  0  0  0  0  0  0  0  0  0
  -29.6648  -17.4950   22.9439 N   0  0  0  0  0  0  0  0  0  0  0  0
  -26.3167  -12.8717   20.2856 N   0  0  0  0  0  0  0  0  0  0  0  0
  -22.4261  -24.7975   21.5756 N   0  0  0  0  0  0  0  0  0  0  0  0
  -30.1087  -13.2979   20.0670 N   0  0  0  0  0  0  0  0  0  0  0  0
  -25.8353  -15.0470   21.0902 N   0  0  0  0  0  0  0  0  0  0  0  0
  -22.1987  -12.6592   22.3025 N   0  0  0  0  0  0  0  0  0  0  0  0
  -28.1107  -18.8369   24.1578 N   0  0  0  0  0  0  0  0  0  0  0  0
  -19.7496  -26.7325   22.1988 N   0  0  0  0  0  0  0  0  0  0  0  0
  -24.8187  -26.3785   19.4148 N   0  0  0  0  0  0  0  0  0  0  0  0
  -30.6546  -15.0503   21.5586 N   0  0  0  0  0  0  0  0  0  0  0  0
  -28.0721  -27.6114   20.3965 N   0  3  0  0  0  0  0  0  0  0  0  0
  -23.1555  -14.7429   22.3403 O   0  0  0  0  0  0  0  0  0  0  0  0
  -19.6197  -24.4900   21.5849 O   0  0  0  0  0  0  0  0  0  0  0  0
  -28.4604  -21.0224   22.5240 O   0  0  0  0  0  0  0  0  0  0  0  0
  -22.6327  -26.9736   20.7801 O   0  0  0  0  0  0  0  0  0  0  0  0
  -26.6625  -25.1876   20.1628 O   0  0  0  0  0  0  0  0  0  0  0  0
  -32.1075  -14.4599   19.8860 O   0  0  0  0  0  0  0  0  0  0  0  0
  -21.3447   -7.2397   21.3350 O   0  0  0  0  0  0  0  0  0  0  0  0
  -25.9325  -20.7575   24.2143 O   0  0  0  0  0  0  0  0  0  1  0  0
  -19.0069   -6.3258   26.2445 F   0  0  0  0  0  0  0  0  0  0  0  0
  -21.8373   -4.9029   22.7275 F   0  0  0  0  0  0  0  0  0  0  0  0
  -30.2928  -17.9218   25.4149 S   0  0  0  0  0  0  0  0  0  0  0  0
  1  2  1  0  0  0  0
  1  5  2  0  0  0  0
  2  6  2  0  0  0  0
  3  8  2  0  0  0  0
  3 16  1  0  0  0  0
  4  9  1  0  0  0  0
  4 16  2  0  0  0  0
  5 18  1  0  0  0  0
  6 20  1  0  0  0  0
  7 10  2  0  0  0  0
  7 19  1  0  0  0  0
  8 22  1  0  0  0  0
  9 22  2  0  0  0  0
 10 23  1  0  0  0  0
 11 12  2  0  0  0  0
 11 24  1  0  0  0  0
 12 25  1  0  0  0  0
 13 21  1  0  0  0  0
 13 23  2  0  0  0  0
 14 25  2  0  0  0  0
 14 26  1  0  0  0  0
 15 28  2  0  0  0  0
 15 86  1  0  0  0  0
 16 27  1  0  0  0  0
 17 27  1  0  0  0  0
 17 29  2  0  0  0  0
 17 31  1  0  0  0  0
 18 20  2  0  0  0  0
 18 37  1  0  0  0  0
 19 21  2  0  0  0  0
 19 38  1  0  0  0  0
 20 46  1  0  0  0  0
 21 39  1  0  0  0  0
 22 82  1  0  0  0  0
 23 83  1  0  0  0  0
 24 26  2  0  0  0  0
 24 82  1  0  0  0  0
 25 84  1  0  0  0  0
 26 85  1  0  0  0  0
 27 64  2  0  0  0  0
 28 56  1  0  0  0  0
 28 65  1  0  0  0  0
 29 66  1  0  0  0  0
 29 69  1  0  0  0  0
 30 65  2  0  0  0  0
 30 71  1  0  0  0  0
 30 86  1  0  0  0  0
 31 70  1  0  0  0  0
 31 76  2  0  0  0  0
 32 47  1  0  0  0  0
 32 72  1  0  0  0  0
 32 77  2  0  0  0  0
 33 57  1  0  0  0  0
 33 59  1  0  0  0  0
 33 78  2  0  0  0  0
 34 60  1  0  0  0  0
 34 67  1  0  0  0  0
 34 79  2  0  0  0  0
 35 61  1  0  0  0  0
 35 73  1  0  0  0  0
 35 80  2  0  0  0  0
 36 68  1  0  0  0  0
 36 74  1  0  0  0  0
 36 81  2  0  0  0  0
 37 40  1  0  0  0  0
 38 47  1  0  0  0  0
 39 67  1  0  0  0  0
 40 42  1  0  0  0  0
 41 43  1  0  0  0  0
 41 44  1  0  0  0  0
 42 46  1  0  0  0  0
 43 48  1  0  0  0  0
 44 68  1  0  0  0  0
 45 48  1  0  0  0  0
 45 68  1  0  0  0  0
 46 72  1  0  0  0  0
 47 67  1  0  0  0  0
 48 66  1  0  0  0  0
 49 57  1  0  0  0  0
 50 58  1  0  0  0  0
 51 61  1  0  0  0  0
 52 63  1  0  0  0  0
 53 63  1  0  0  0  0
 54 63  1  0  0  0  0
 55 75  1  0  0  0  0
 56 74  1  0  0  0  0
 58 62  1  0  0  0  0
 59 62  1  0  0  0  0
 59 71  1  0  0  0  0
 60 63  1  0  0  0  0
 60 73  1  0  0  0  0
 61 75  1  0  0  0  0
 62 83  1  0  0  0  0
 64 66  1  0  0  0  0
M  CHG  1  75   1
M  ISO  4  36 100  62 101  74 100  83 101
M  END
> <Batch ID>
0193

> <Smiles>
CCC(=O)C(Nc1nc(C[100NH:0][100C:0](=O)N2CCCC(n3nc(-c4ccc(Oc5ccc(F)cc5F)cc4)c(C(N)=O)c3N)C2)cs1)[101CH:1](CC)[101O:1]c1ccc2c(c1)CN(C(=O)C(NC(=O)C(C)NC)C(C)(C)C)C(C(=O)NC1CCCc3ccccc31)C2

> <Shape>
0.272

> <Color>
0.159

> <Negative vol penalty>
0.000

$$$$

  -OEChem-04052305303D

 87 95  0     1  0  0  0  0  0999 V2000
  -27.7278  -29.1519   28.6251 C   0  0  0  0  0  0  0  0  0  0  0  0
  -27.6083  -28.6038   27.3520 C   0  0  0  0  0  0  0  0  0  0  0  0
  -23.0120   -9.8667   19.9577 C   0  0  0  0  0  0  0  0  0  0  0  0
  -23.7526   -9.8910   22.2572 C   0  0  0  0  0  0  0  0  0  0  0  0
  -28.9768  -29.5571   29.0940 C   0  0  0  0  0  0  0  0  0  0  0  0
  -28.7376  -28.4617   26.5465 C   0  0  0  0  0  0  0  0  0  0  0  0
  -28.9406  -23.9453   24.2650 C   0  0  0  0  0  0  0  0  0  0  0  0
  -22.2661   -8.7154   20.2100 C   0  0  0  0  0  0  0  0  0  0  0  0
  -23.0066   -8.7397   22.5097 C   0  0  0  0  0  0  0  0  0  0  0  0
  -28.1287  -23.7597   23.1469 C   0  0  0  0  0  0  0  0  0  0  0  0
  -23.3021   -5.4136   21.9799 C   0  0  0  0  0  0  0  0  0  0  0  0
  -23.9115   -4.3938   22.7107 C   0  0  0  0  0  0  0  0  0  0  0  0
  -30.0257  -24.1573   21.7108 C   0  0  0  0  0  0  0  0  0  0  0  0
  -22.1957   -4.5802   24.4015 C   0  0  0  0  0  0  0  0  0  0  0  0
  -23.7554  -10.4544   20.9813 C   0  0  0  0  0  0  0  0  0  0  0  0
  -24.0983  -12.9786   20.8451 C   0  0  0  0  0  0  0  0  0  0  0  0
  -30.1235  -29.4109   28.2975 C   0  0  0  0  0  0  0  0  0  0  0  0
  -30.3011  -24.2495   24.1140 C   0  0  0  0  0  0  0  0  0  0  0  0
  -30.0029  -28.8666   27.0046 C   0  0  0  0  0  0  0  0  0  0  0  0
  -30.8533  -24.3437   22.8285 C   0  0  0  0  0  0  0  0  0  0  0  0
  -22.2633   -8.1520   21.4860 C   0  0  0  0  0  0  0  0  0  0  0  0
  -28.6705  -23.8685   21.8695 C   0  0  0  0  0  0  0  0  0  0  0  0
  -22.1395   -6.0169   22.4599 C   0  0  0  0  0  0  0  0  0  0  0  0
  -23.3583   -3.9771   23.9215 C   0  0  0  0  0  0  0  0  0  0  0  0
  -21.5864   -5.6001   23.6706 C   0  0  0  0  0  0  0  0  0  0  0  0
  -24.5266  -11.6434   20.7210 C   0  0  0  0  0  0  0  0  0  0  0  0
  -25.1935  -13.7254   20.4854 C   0  0  0  0  0  0  0  0  0  0  0  0
  -30.5213  -18.0040   20.9471 C   0  0  0  0  0  0  0  0  0  0  0  0
  -31.2957  -19.2972   19.2844 C   0  0  0  0  0  0  0  0  0  0  0  0
  -29.2012  -19.5765   20.0406 C   0  0  0  0  0  0  0  0  0  0  0  0
  -22.8243  -13.4975   21.2494 C   0  0  0  0  0  0  0  0  0  0  0  0
  -32.1532  -26.7046   24.9177 C   0  0  0  0  0  0  0  0  0  0  0  0
  -34.5203  -24.7733   23.8271 C   0  0  0  0  0  0  0  0  0  0  0  0
  -35.4407  -22.1619   21.8321 C   0  0  0  0  0  0  0  0  0  0  0  0
  -30.6754  -14.7460   20.7122 C   0  0  0  0  0  0  0  0  0  0  0  0
  -31.4448  -29.9070   28.8293 C   0  0  0  0  0  0  0  0  0  0  0  0
  -31.1693  -24.4204   25.3303 C   0  0  0  0  0  0  0  0  0  0  0  0
  -32.3124  -24.6486   22.6126 C   0  0  0  0  0  0  0  0  0  0  0  0
  -32.6500  -29.3767   28.0570 C   0  0  0  0  0  0  0  0  0  0  0  0
  -29.5579  -12.3435   18.3340 C   0  0  0  0  0  0  0  0  0  0  0  0
  -32.4191  -29.5033   26.5545 C   0  0  0  0  0  0  0  0  0  0  0  0
  -28.1169  -12.0530   18.7570 C   0  0  0  0  0  0  0  0  0  0  0  0
  -30.4649  -12.5734   19.5409 C   0  0  0  0  0  0  0  0  0  0  0  0
  -28.5516  -13.3149   20.9058 C   0  0  0  0  0  0  0  0  0  0  0  0
  -31.2085  -28.6733   26.1106 C   0  0  1  0  0  0  0  0  0  0  0  0
  -32.4300  -25.2342   25.0550 C   0  0  1  0  0  0  0  0  0  0  0  0
  -27.5874  -13.1314   19.7214 C   0  0  2  0  0  0  0  0  0  0  0  0
  -37.4513  -20.8389   21.1216 C   0  0  0  0  0  0  0  0  0  0  0  0
  -34.6361  -19.9475   17.7565 C   0  0  0  0  0  0  0  0  0  0  0  0
  -33.5054  -17.6980   17.6724 C   0  0  0  0  0  0  0  0  0  0  0  0
  -27.4100  -20.7196   17.6882 C   0  0  0  0  0  0  0  0  0  0  0  0
  -35.3869  -27.0690   22.0136 C   0  0  0  0  0  0  0  0  0  0  0  0
  -36.7337  -25.4239   20.6914 C   0  0  0  0  0  0  0  0  0  0  0  0
  -37.2687  -25.8260   23.0945 C   0  0  0  0  0  0  0  0  0  0  0  0
  -34.3182  -19.6504   22.9237 C   0  0  0  0  0  0  0  0  0  0  0  0
  -30.7309  -16.9059   21.9334 C   0  0  0  0  0  0  0  0  0  0  0  0
  -26.5079  -22.1329   19.5680 C   0  0  0  0  0  0  0  0  0  0  0  0
  -26.7735  -22.7982   20.9148 C   0  0  0  0  0  0  0  0  0  1  0  0
  -35.1781  -24.5398   22.4885 C   0  0  1  0  0  0  0  0  0  0  0  0
  -36.2960  -20.9380   22.1057 C   0  0  2  0  0  0  0  0  0  0  0  0
  -33.6161  -19.0252   18.4084 C   0  0  0  0  0  0  0  0  0  0  0  0
  -27.6994  -21.3129   19.0634 C   0  0  1  0  0  0  0  0  0  0  0  0
  -36.1139  -25.7108   22.0757 C   0  0  0  0  0  0  0  0  0  0  0  0
  -25.7950  -11.5444   20.3142 N   0  0  0  0  0  0  0  0  0  0  0  0
  -31.5564  -18.2994   20.1441 N   0  0  0  0  0  0  0  0  0  0  0  0
  -29.3170  -18.5979   20.9528 N   0  0  0  0  0  0  0  0  0  0  0  0
  -30.1450  -19.9804   19.1751 N   0  0  0  0  0  0  0  0  0  0  0  0
  -26.1730  -12.8270   20.1793 N   0  0  0  0  0  0  0  0  0  0  0  0
  -33.1188  -24.8134   23.8332 N   0  0  0  0  0  0  0  0  0  0  0  0
  -29.9069  -13.6086   20.4144 N   0  0  0  0  0  0  0  0  0  0  0  0
  -25.4045  -15.0563   20.4041 N   0  0  0  0  0  0  0  0  0  0  0  0
  -21.8096  -12.5909   21.5850 N   0  0  0  0  0  0  0  0  0  0  0  0
  -32.3377  -19.6644   18.4051 N   0  0  0  0  0  0  0  0  0  0  0  0
  -27.9859  -20.2352   19.9871 N   0  0  0  0  0  0  0  0  0  0  0  0
  -31.5592  -27.2715   26.0291 N   0  0  0  0  0  0  0  0  0  0  0  0
  -35.8455  -23.2459   22.5819 N   0  0  0  0  0  0  0  0  0  0  0  0
  -30.0692  -15.6811   21.5421 N   0  0  0  0  0  0  0  0  0  0  0  0
  -35.4767  -19.6981   21.9949 N   0  3  0  0  0  0  0  0  0  0  0  0
  -22.5876  -14.7286   21.2954 O   0  0  0  0  0  0  0  0  0  0  0  0
  -32.4575  -27.2824   23.8807 O   0  0  0  0  0  0  0  0  0  0  0  0
  -35.2238  -24.9079   24.8313 O   0  0  0  0  0  0  0  0  0  0  0  0
  -34.5091  -22.1578   21.0304 O   0  0  0  0  0  0  0  0  0  0  0  0
  -31.8152  -14.9181   20.2669 O   0  0  0  0  0  0  0  0  0  0  0  0
  -21.5353   -7.0287   21.7327 O   0  0  0  0  0  0  0  0  0  0  0  0
  -27.8801  -23.6885   20.7765 O   0  0  0  0  0  0  0  0  0  1  0  0
  -23.9427   -2.9966   24.6224 F   0  0  0  0  0  0  0  0  0  0  0  0
  -20.4690   -6.1750   24.1363 F   0  0  0  0  0  0  0  0  0  0  0  0
  1  2  1  0  0  0  0
  1  5  2  0  0  0  0
  2  6  2  0  0  0  0
  3  8  2  0  0  0  0
  3 15  1  0  0  0  0
  4  9  1  0  0  0  0
  4 15  2  0  0  0  0
  5 17  1  0  0  0  0
  6 19  1  0  0  0  0
  7 10  2  0  0  0  0
  7 18  1  0  0  0  0
  8 21  1  0  0  0  0
  9 21  2  0  0  0  0
 10 22  1  0  0  0  0
 11 12  2  0  0  0  0
 11 23  1  0  0  0  0
 12 24  1  0  0  0  0
 13 20  1  0  0  0  0
 13 22  2  0  0  0  0
 14 24  2  0  0  0  0
 14 25  1  0  0  0  0
 15 26  1  0  0  0  0
 16 26  1  0  0  0  0
 16 27  2  0  0  0  0
 16 31  1  0  0  0  0
 17 19  2  0  0  0  0
 17 36  1  0  0  0  0
 18 20  2  0  0  0  0
 18 37  1  0  0  0  0
 19 45  1  0  0  0  0
 20 38  1  0  0  0  0
 21 84  1  0  0  0  0
 22 85  1  0  0  0  0
 23 25  2  0  0  0  0
 23 84  1  0  0  0  0
 24 86  1  0  0  0  0
 25 87  1  0  0  0  0
 26 64  2  0  0  0  0
 27 68  1  0  0  0  0
 27 71  1  0  0  0  0
 28 56  1  0  0  0  0
 28 65  1  0  0  0  0
 28 66  2  0  0  0  0
 29 65  2  0  0  0  0
 29 67  1  0  0  0  0
 29 73  1  0  0  0  0
 30 66  1  0  0  0  0
 30 67  2  0  0  0  0
 30 74  1  0  0  0  0
 31 72  1  0  0  0  0
 31 79  2  0  0  0  0
 32 46  1  0  0  0  0
 32 75  1  0  0  0  0
 32 80  2  0  0  0  0
 33 59  1  0  0  0  0
 33 69  1  0  0  0  0
 33 81  2  0  0  0  0
 34 60  1  0  0  0  0
 34 76  1  0  0  0  0
 34 82  2  0  0  0  0
 35 70  1  0  0  0  0
 35 77  1  0  0  0  0
 35 83  2  0  0  0  0
 36 39  1  0  0  0  0
 37 46  1  0  0  0  0
 38 69  1  0  0  0  0
 39 41  1  0  0  0  0
 40 42  1  0  0  0  0
 40 43  1  0  0  0  0
 41 45  1  0  0  0  0
 42 47  1  0  0  0  0
 43 70  1  0  0  0  0
 44 47  1  0  0  0  0
 44 70  1  0  0  0  0
 45 75  1  0  0  0  0
 46 69  1  0  0  0  0
 47 68  1  0  0  0  0
 48 60  1  0  0  0  0
 49 61  1  0  0  0  0
 50 61  1  0  0  0  0
 51 62  1  0  0  0  0
 52 63  1  0  0  0  0
 53 63  1  0  0  0  0
 54 63  1  0  0  0  0
 55 78  1  0  0  0  0
 56 77  1  0  0  0  0
 57 58  1  0  0  0  0
 57 62  1  0  0  0  0
 58 85  1  0  0  0  0
 59 63  1  0  0  0  0
 59 76  1  0  0  0  0
 60 78  1  0  0  0  0
 61 73  1  0  0  0  0
 62 74  1  0  0  0  0
 64 68  1  0  0  0  0
M  CHG  1  78   1
M  ISO  4  35 100  58 101  77 100  85 101
M  END
> <Batch ID>
0193

> <Smiles>
CNC(C)C(=O)NC(C(=O)N1Cc2cc([101O:1][101CH2:1]CC(C)Nc3nc(C[100NH:0][100C:0](=O)N4CCCC(n5nc(-c6ccc(Oc7ccc(F)cc7F)cc6)c(C(N)=O)c5N)C4)nc(NC(C)C)n3)ccc2CC1C(=O)NC1CCCc2ccccc21)C(C)(C)C

> <Shape>
0.211

> <Color>
0.192

> <Negative vol penalty>
0.000

$$$$

  -OEChem-04052305303D

 84 92  0     1  0  0  0  0  0999 V2000
  -28.1946  -11.2873   19.4678 C   0  0  0  0  0  0  0  0  0  0  0  0
  -28.3322  -12.5585   18.9196 C   0  0  0  0  0  0  0  0  0  0  0  0
  -19.9803  -26.4112   23.4326 C   0  0  0  0  0  0  0  0  0  0  0  0
  -19.6818  -28.1005   21.7314 C   0  0  0  0  0  0  0  0  0  0  0  0
  -27.0265  -10.9452   20.1477 C   0  0  0  0  0  0  0  0  0  0  0  0
  -27.3011  -13.4881   19.0501 C   0  0  0  0  0  0  0  0  0  0  0  0
  -28.9818  -18.0828   20.3573 C   0  0  0  0  0  0  0  0  0  0  0  0
  -18.6430  -26.5491   23.8042 C   0  0  0  0  0  0  0  0  0  0  0  0
  -18.3444  -28.2384   22.1030 C   0  0  0  0  0  0  0  0  0  0  0  0
  -29.5486  -18.8636   19.3509 C   0  0  0  0  0  0  0  0  0  0  0  0
  -14.7584  -28.7776   22.3637 C   0  0  0  0  0  0  0  0  0  0  0  0
  -13.8048  -28.8353   21.3474 C   0  0  0  0  0  0  0  0  0  0  0  0
  -27.4794  -20.0859   19.1422 C   0  0  0  0  0  0  0  0  0  0  0  0
  -14.4825  -26.6444   20.5871 C   0  0  0  0  0  0  0  0  0  0  0  0
  -29.5286  -26.0210   18.7589 C   0  0  0  0  0  0  0  0  0  0  0  0
  -20.4997  -27.1869   22.3962 C   0  0  0  0  0  0  0  0  0  0  0  0
  -22.4096  -26.1671   21.0472 C   0  0  0  0  0  0  0  0  0  0  0  0
  -25.9845  -11.8743   20.2950 C   0  0  0  0  0  0  0  0  0  0  0  0
  -27.6538  -18.2909   20.7569 C   0  0  0  0  0  0  0  0  0  0  0  0
  -26.1173  -13.1577   19.7315 C   0  0  0  0  0  0  0  0  0  0  0  0
  -26.8989  -19.3082   20.1557 C   0  0  0  0  0  0  0  0  0  0  0  0
  -17.8250  -27.4627   23.1394 C   0  0  0  0  0  0  0  0  0  0  0  0
  -28.7964  -19.8634   18.7412 C   0  0  0  0  0  0  0  0  0  0  0  0
  -15.5742  -27.6534   22.4917 C   0  0  0  0  0  0  0  0  0  0  0  0
  -13.6668  -27.7687   20.4591 C   0  0  0  0  0  0  0  0  0  0  0  0
  -15.4362  -26.5868   21.6034 C   0  0  0  0  0  0  0  0  0  0  0  0
  -21.8813  -27.0454   22.0122 C   0  0  0  0  0  0  0  0  0  0  0  0
  -29.5207  -28.2869   18.4503 C   0  0  0  0  0  0  0  0  0  0  0  0
  -30.3532  -25.8749   17.6652 C   0  0  0  0  0  0  0  0  0  0  0  0
  -30.3459  -28.1410   17.3570 C   0  0  0  0  0  0  0  0  0  0  0  0
  -23.7601  -26.4176   21.0577 C   0  0  0  0  0  0  0  0  0  0  0  0
  -21.7397  -25.2105   20.2155 C   0  0  0  0  0  0  0  0  0  0  0  0
  -25.0052  -16.5335   20.7417 C   0  0  0  0  0  0  0  0  0  0  0  0
  -23.7819  -19.0654   22.3589 C   0  0  0  0  0  0  0  0  0  0  0  0
  -30.4263  -23.3696   17.9147 C   0  0  0  0  0  0  0  0  0  0  0  0
  -23.9500  -22.3963   23.0823 C   0  0  0  0  0  0  0  0  0  0  0  0
  -28.0466  -29.9902   21.1456 C   0  0  0  0  0  0  0  0  0  0  0  0
  -24.7214  -11.4431   20.9974 C   0  0  0  0  0  0  0  0  0  0  0  0
  -27.0656  -17.4578   21.8626 C   0  0  0  0  0  0  0  0  0  0  0  0
  -25.4754  -19.5852   20.5624 C   0  0  0  0  0  0  0  0  0  0  0  0
  -23.8287  -12.6087   21.4154 C   0  0  0  0  0  0  0  0  0  0  0  0
  -26.5826  -29.1177   24.2716 C   0  0  0  0  0  0  0  0  0  0  0  0
  -23.6760  -13.6024   20.2682 C   0  0  0  0  0  0  0  0  0  0  0  0
  -25.2704  -28.4344   23.8830 C   0  0  0  0  0  0  0  0  0  0  0  0
  -26.9167  -30.2740   23.3317 C   0  0  0  0  0  0  0  0  0  0  0  0
  -25.6174  -29.2403   21.5104 C   0  0  0  0  0  0  0  0  0  0  0  0
  -25.0311  -14.2018   19.8736 C   0  0  1  0  0  0  0  0  0  0  0  0
  -25.5409  -17.4164   21.8331 C   0  0  1  0  0  0  0  0  0  0  0  0
  -25.2666  -28.0323   22.3958 C   0  0  2  0  0  0  0  0  0  0  0  0
  -22.7912  -24.1855   24.4065 C   0  0  0  0  0  0  0  0  0  0  0  0
  -21.5504  -19.1554   20.2799 C   0  0  0  0  0  0  0  0  0  0  0  0
  -20.9981  -21.4644   21.0745 C   0  0  0  0  0  0  0  0  0  0  0  0
  -20.7974  -19.5289   22.6353 C   0  0  0  0  0  0  0  0  0  0  0  0
  -26.3699  -22.9276   24.7013 C   0  0  0  0  0  0  0  0  0  0  0  0
  -29.0458  -29.6262   18.9032 C   0  0  0  0  0  0  0  0  0  0  0  0
  -31.0809  -22.1972   17.1929 C   0  0  0  0  0  0  0  0  0  0  0  0
  -30.7548  -20.8510   17.8217 C   0  0  0  0  0  0  0  0  0  1  0  0
  -23.0936  -20.3513   21.9694 C   0  0  1  0  0  0  0  0  0  0  0  0
  -23.8995  -23.1442   24.4024 C   0  0  2  0  0  0  0  0  0  0  0  0
  -21.6360  -20.1187   21.4805 C   0  0  0  0  0  0  0  0  0  0  0  0
  -29.0975  -27.2296   19.1710 N   0  0  0  0  0  0  0  0  0  0  0  0
  -22.8195  -27.7974   22.5937 N   0  0  0  0  0  0  0  0  0  0  0  0
  -30.7767  -26.9323   16.9446 N   0  0  0  0  0  0  0  0  0  0  0  0
  -23.9511  -27.3924   21.9923 N   0  0  0  0  0  0  0  0  0  0  0  0
  -24.9431  -18.7397   21.6438 N   0  0  0  0  0  0  0  0  0  0  0  0
  -26.8980  -29.8257   21.9372 N   0  0  0  0  0  0  0  0  0  0  0  0
  -30.7564  -29.2888   16.6428 N   0  0  0  0  0  0  0  0  0  0  0  0
  -24.7909  -25.8968   20.3587 N   0  0  0  0  0  0  0  0  0  0  0  0
  -20.3490  -25.0815   20.3324 N   0  0  0  0  0  0  0  0  0  0  0  0
  -30.7603  -24.5710   17.2952 N   0  0  0  0  0  0  0  0  0  0  0  0
  -25.4286  -15.2205   20.8216 N   0  0  0  0  0  0  0  0  0  0  0  0
  -23.2027  -21.2382   23.1225 N   0  0  0  0  0  0  0  0  0  0  0  0
  -27.9462  -29.5325   19.8374 N   0  0  0  0  0  0  0  0  0  0  0  0
  -25.1951  -23.8358   24.6558 N   0  3  0  0  0  0  0  0  0  0  0  0
  -22.3580  -24.4799   19.4047 O   0  0  0  0  0  0  0  0  0  0  0  0
  -24.2616  -17.0079   19.8910 O   0  0  0  0  0  0  0  0  0  0  0  0
  -23.3108  -18.3789   23.2691 O   0  0  0  0  0  0  0  0  0  0  0  0
  -29.7141  -23.2136   18.9009 O   0  0  0  0  0  0  0  0  0  0  0  0
  -24.5855  -22.8011   22.1113 O   0  0  0  0  0  0  0  0  0  0  0  0
  -29.0865  -30.5017   21.5744 O   0  0  0  0  0  0  0  0  0  0  0  0
  -16.5199  -27.5973   23.5016 O   0  0  0  0  0  0  0  0  0  0  0  0
  -29.3470  -20.6265   17.7581 O   0  0  0  0  0  0  0  0  0  1  0  0
  -12.7499  -27.8236   19.4842 F   0  0  0  0  0  0  0  0  0  0  0  0
  -16.2162  -25.5036   21.7221 F   0  0  0  0  0  0  0  0  0  0  0  0
  1  2  1  0  0  0  0
  1  5  2  0  0  0  0
  2  6  2  0  0  0  0
  3  8  2  0  0  0  0
  3 16  1  0  0  0  0
  4  9  1  0  0  0  0
  4 16  2  0  0  0  0
  5 18  1  0  0  0  0
  6 20  1  0  0  0  0
  7 10  2  0  0  0  0
  7 19  1  0  0  0  0
  8 22  1  0  0  0  0
  9 22  2  0  0  0  0
 10 23  1  0  0  0  0
 11 12  2  0  0  0  0
 11 24  1  0  0  0  0
 12 25  1  0  0  0  0
 13 21  1  0  0  0  0
 13 23  2  0  0  0  0
 14 25  2  0  0  0  0
 14 26  1  0  0  0  0
 15 29  1  0  0  0  0
 15 61  2  0  0  0  0
 16 27  1  0  0  0  0
 17 27  1  0  0  0  0
 17 31  2  0  0  0  0
 17 32  1  0  0  0  0
 18 20  2  0  0  0  0
 18 38  1  0  0  0  0
 19 21  2  0  0  0  0
 19 39  1  0  0  0  0
 20 47  1  0  0  0  0
 21 40  1  0  0  0  0
 22 81  1  0  0  0  0
 23 82  1  0  0  0  0
 24 26  2  0  0  0  0
 24 81  1  0  0  0  0
 25 83  1  0  0  0  0
 26 84  1  0  0  0  0
 27 62  2  0  0  0  0
 28 30  2  0  0  0  0
 28 55  1  0  0  0  0
 28 61  1  0  0  0  0
 29 63  2  0  0  0  0
 29 70  1  0  0  0  0
 30 63  1  0  0  0  0
 30 67  1  0  0  0  0
 31 64  1  0  0  0  0
 31 68  1  0  0  0  0
 32 69  1  0  0  0  0
 32 75  2  0  0  0  0
 33 48  1  0  0  0  0
 33 71  1  0  0  0  0
 33 76  2  0  0  0  0
 34 58  1  0  0  0  0
 34 65  1  0  0  0  0
 34 77  2  0  0  0  0
 35 56  1  0  0  0  0
 35 70  1  0  0  0  0
 35 78  2  0  0  0  0
 36 59  1  0  0  0  0
 36 72  1  0  0  0  0
 36 79  2  0  0  0  0
 37 66  1  0  0  0  0
 37 73  1  0  0  0  0
 37 80  2  0  0  0  0
 38 41  1  0  0  0  0
 39 48  1  0  0  0  0
 40 65  1  0  0  0  0
 41 43  1  0  0  0  0
 42 44  1  0  0  0  0
 42 45  1  0  0  0  0
 43 47  1  0  0  0  0
 44 49  1  0  0  0  0
 45 66  1  0  0  0  0
 46 49  1  0  0  0  0
 46 66  1  0  0  0  0
 47 71  1  0  0  0  0
 48 65  1  0  0  0  0
 49 64  1  0  0  0  0
 50 59  1  0  0  0  0
 51 60  1  0  0  0  0
 52 60  1  0  0  0  0
 53 60  1  0  0  0  0
 54 74  1  0  0  0  0
 55 73  1  0  0  0  0
 56 57  1  0  0  0  0
 57 82  1  0  0  0  0
 58 60  1  0  0  0  0
 58 72  1  0  0  0  0
 59 74  1  0  0  0  0
 62 64  1  0  0  0  0
M  CHG  1  74   1
M  ISO  4  37 100  57 101  73 100  82 101
M  END
> <Batch ID>
0193

> <Smiles>
CNC(C)C(=O)NC(C(=O)N1Cc2cc([101O:1][101CH2:1]CC(=O)Nc3cnc(C[100NH:0][100C:0](=O)N4CCCC(n5nc(-c6ccc(Oc7ccc(F)cc7F)cc6)c(C(N)=O)c5N)C4)c(N)n3)ccc2CC1C(=O)NC1CCCc2ccccc21)C(C)(C)C

> <Shape>
0.216

> <Color>
0.062

> <Negative vol penalty>
0.000

$$$$

  -OEChem-04052305303D

 85 93  0     1  0  0  0  0  0999 V2000
  -30.3452  -35.9952   19.8123 C   0  0  0  0  0  0  0  0  0  0  0  0
  -30.0726  -34.7339   19.2924 C   0  0  0  0  0  0  0  0  0  0  0  0
  -23.7902   -9.2818   21.5954 C   0  0  0  0  0  0  0  0  0  0  0  0
  -23.1141  -11.5552   22.0553 C   0  0  0  0  0  0  0  0  0  0  0  0
  -30.0597  -36.2738   21.1483 C   0  0  0  0  0  0  0  0  0  0  0  0
  -29.5155  -33.7501   20.1086 C   0  0  0  0  0  0  0  0  0  0  0  0
  -25.5198  -29.4165   18.4473 C   0  0  0  0  0  0  0  0  0  0  0  0
  -22.9927   -8.8318   22.6475 C   0  0  0  0  0  0  0  0  0  0  0  0
  -22.3164  -11.1052   23.1074 C   0  0  0  0  0  0  0  0  0  0  0  0
  -25.6793  -28.0730   18.1104 C   0  0  0  0  0  0  0  0  0  0  0  0
  -19.7138   -8.2204   23.2027 C   0  0  0  0  0  0  0  0  0  0  0  0
  -18.9125   -7.1014   22.9760 C   0  0  0  0  0  0  0  0  0  0  0  0
  -25.1385  -27.4470   20.3765 C   0  0  0  0  0  0  0  0  0  0  0  0
  -20.0492   -5.9269   24.7552 C   0  0  0  0  0  0  0  0  0  0  0  0
  -28.4158  -18.0241   20.8061 C   0  0  0  0  0  0  0  0  0  0  0  0
  -30.3754  -18.9982   20.5459 C   0  0  0  0  0  0  0  0  0  0  0  0
  -23.8510  -10.6436   21.2993 C   0  0  0  0  0  0  0  0  0  0  0  0
  -24.2964  -11.2691   18.8666 C   0  0  0  0  0  0  0  0  0  0  0  0
  -29.4899  -35.2959   21.9787 C   0  0  0  0  0  0  0  0  0  0  0  0
  -25.1786  -29.7865   19.7561 C   0  0  0  0  0  0  0  0  0  0  0  0
  -29.2235  -34.0155   21.4573 C   0  0  0  0  0  0  0  0  0  0  0  0
  -24.9728  -28.7957   20.7267 C   0  0  0  0  0  0  0  0  0  0  0  0
  -22.2557   -9.7434   23.4035 C   0  0  0  0  0  0  0  0  0  0  0  0
  -25.4914  -27.0882   19.0758 C   0  0  0  0  0  0  0  0  0  0  0  0
  -20.6829   -8.1926   24.2056 C   0  0  0  0  0  0  0  0  0  0  0  0
  -19.0802   -5.9547   23.7522 C   0  0  0  0  0  0  0  0  0  0  0  0
  -20.8506   -7.0459   24.9818 C   0  0  0  0  0  0  0  0  0  0  0  0
  -24.6752  -11.1092   20.2130 C   0  0  0  0  0  0  0  0  0  0  0  0
  -29.4040  -17.1043   20.5457 C   0  0  0  0  0  0  0  0  0  0  0  0
  -25.4294  -11.7329   18.2440 C   0  0  0  0  0  0  0  0  0  0  0  0
  -23.0333  -11.0207   18.2353 C   0  0  0  0  0  0  0  0  0  0  0  0
  -26.5723  -31.5077   22.0362 C   0  0  0  0  0  0  0  0  0  0  0  0
  -23.7511  -31.0447   23.5689 C   0  0  0  0  0  0  0  0  0  0  0  0
  -20.9383  -29.1503   23.9508 C   0  0  0  0  0  0  0  0  0  0  0  0
  -30.2111  -14.7455   20.1842 C   0  0  0  0  0  0  0  0  0  0  0  0
  -29.2428  -35.6292   23.4287 C   0  0  0  0  0  0  0  0  0  0  0  0
  -24.9841  -31.2386   20.0968 C   0  0  0  0  0  0  0  0  0  0  0  0
  -24.5857  -29.1394   22.1411 C   0  0  0  0  0  0  0  0  0  0  0  0
  -28.3062  -34.6475   24.1283 C   0  0  0  0  0  0  0  0  0  0  0  0
  -30.2055  -11.5776   18.5587 C   0  0  0  0  0  0  0  0  0  0  0  0
  -28.7039  -33.2100   23.8083 C   0  0  0  0  0  0  0  0  0  0  0  0
  -28.7509  -11.1153   18.6706 C   0  0  0  0  0  0  0  0  0  0  0  0
  -30.6591  -12.3303   19.8083 C   0  0  0  0  0  0  0  0  0  0  0  0
  -28.3401  -12.9858   20.3197 C   0  0  0  0  0  0  0  0  0  0  0  0
  -28.5964  -32.9296   22.3045 C   0  0  1  0  0  0  0  0  0  0  0  0
  -25.1387  -31.5287   21.5865 C   0  0  1  0  0  0  0  0  0  0  0  0
  -27.8179  -12.2793   19.0580 C   0  0  2  0  0  0  0  0  0  0  0  0
  -25.8414  -20.1376   19.3687 C   0  0  0  0  0  0  0  0  0  0  0  0
  -30.3934  -22.6994   19.8008 C   0  0  0  0  0  0  0  0  0  0  0  0
  -18.8331  -29.0012   25.3085 C   0  0  0  0  0  0  0  0  0  0  0  0
  -25.3549  -29.9739   25.9335 C   0  0  0  0  0  0  0  0  0  0  0  0
  -23.2379  -28.9839   26.8314 C   0  0  0  0  0  0  0  0  0  0  0  0
  -23.4389  -31.4552   26.5576 C   0  0  0  0  0  0  0  0  0  0  0  0
  -19.2317  -29.4329   21.5494 C   0  0  0  0  0  0  0  0  0  0  0  0
  -27.1679  -20.6413   18.8057 C   0  0  0  0  0  0  0  0  0  0  0  0
  -29.3733  -21.8819   19.0134 C   0  0  0  0  0  0  0  0  0  0  0  0
  -26.8578  -23.7240   19.1782 C   0  0  0  0  0  0  0  0  0  0  0  0
  -27.3477  -22.7632   20.2688 C   0  0  0  0  0  0  0  0  0  0  0  0
  -28.4127  -20.5850   21.0375 C   0  0  0  0  0  0  0  0  0  0  0  0
  -26.0918  -24.8978   19.7812 C   0  0  0  0  0  0  0  0  0  1  0  0
  -23.2034  -29.9959   24.5064 C   0  0  1  0  0  0  0  0  0  0  0  0
  -19.4711  -29.5309   24.0337 C   0  0  2  0  0  0  0  0  0  0  0  0
  -23.8179  -30.0955   25.9312 C   0  0  0  0  0  0  0  0  0  0  0  0
  -28.0740  -21.4642   19.7795 C   0  0  0  0  0  0  0  0  0  0  0  0
  -30.6215  -17.7170   20.3850 N   0  0  0  0  0  0  0  0  0  0  0  0
  -25.9493  -11.4441   20.4335 N   0  0  0  0  0  0  0  0  0  0  0  0
  -29.0533  -19.2328   20.8035 N   0  0  0  0  0  0  0  0  0  0  0  0
  -26.3810  -11.8189   19.2173 N   0  0  0  0  0  0  0  0  0  0  0  0
  -24.4137  -30.5734   22.4266 N   0  0  0  0  0  0  0  0  0  0  0  0
  -29.7301  -13.4210   20.1117 N   0  0  0  0  0  0  0  0  0  0  0  0
  -25.6946  -12.0714   16.9643 N   0  0  0  0  0  0  0  0  0  0  0  0
  -21.9750  -10.5459   19.0220 N   0  0  0  0  0  0  0  0  0  0  0  0
  -29.2305  -15.7015   20.4466 N   0  0  0  0  0  0  0  0  0  0  0  0
  -27.2145  -32.7263   21.9259 N   0  0  0  0  0  0  0  0  0  0  0  0
  -21.7515  -30.1349   24.4709 N   0  0  0  0  0  0  0  0  0  0  0  0
  -18.7253  -28.9757   22.8691 N   0  3  0  0  0  0  0  0  0  0  0  0
  -22.8533  -11.1983   17.0066 O   0  0  0  0  0  0  0  0  0  0  0  0
  -27.0593  -30.4636   22.4538 O   0  0  0  0  0  0  0  0  0  0  0  0
  -23.5907  -32.2381   23.8364 O   0  0  0  0  0  0  0  0  0  0  0  0
  -21.3241  -28.0844   23.4759 O   0  0  0  0  0  0  0  0  0  0  0  0
  -31.4006  -15.0150   19.9982 O   0  0  0  0  0  0  0  0  0  0  0  0
  -21.4771   -9.3046   24.4300 O   0  0  0  0  0  0  0  0  0  0  0  0
  -25.6482  -25.7667   18.7475 O   0  0  0  0  0  0  0  0  0  1  0  0
  -18.3095   -4.8808   23.5354 F   0  0  0  0  0  0  0  0  0  0  0  0
  -21.7791   -7.0136   25.9476 F   0  0  0  0  0  0  0  0  0  0  0  0
  1  2  1  0  0  0  0
  1  5  2  0  0  0  0
  2  6  2  0  0  0  0
  3  8  2  0  0  0  0
  3 17  1  0  0  0  0
  4  9  1  0  0  0  0
  4 17  2  0  0  0  0
  5 19  1  0  0  0  0
  6 21  1  0  0  0  0
  7 10  2  0  0  0  0
  7 20  1  0  0  0  0
  8 23  1  0  0  0  0
  9 23  2  0  0  0  0
 10 24  1  0  0  0  0
 11 12  2  0  0  0  0
 11 25  1  0  0  0  0
 12 26  1  0  0  0  0
 13 22  1  0  0  0  0
 13 24  2  0  0  0  0
 14 26  2  0  0  0  0
 14 27  1  0  0  0  0
 15 29  2  0  0  0  0
 15 67  1  0  0  0  0
 16 65  2  0  0  0  0
 16 67  1  0  0  0  0
 17 28  1  0  0  0  0
 18 28  1  0  0  0  0
 18 30  2  0  0  0  0
 18 31  1  0  0  0  0
 19 21  2  0  0  0  0
 19 36  1  0  0  0  0
 20 22  2  0  0  0  0
 20 37  1  0  0  0  0
 21 45  1  0  0  0  0
 22 38  1  0  0  0  0
 23 82  1  0  0  0  0
 24 83  1  0  0  0  0
 25 27  2  0  0  0  0
 25 82  1  0  0  0  0
 26 84  1  0  0  0  0
 27 85  1  0  0  0  0
 28 66  2  0  0  0  0
 29 65  1  0  0  0  0
 29 73  1  0  0  0  0
 30 68  1  0  0  0  0
 30 71  1  0  0  0  0
 31 72  1  0  0  0  0
 31 77  2  0  0  0  0
 32 46  1  0  0  0  0
 32 74  1  0  0  0  0
 32 78  2  0  0  0  0
 33 61  1  0  0  0  0
 33 69  1  0  0  0  0
 33 79  2  0  0  0  0
 34 62  1  0  0  0  0
 34 75  1  0  0  0  0
 34 80  2  0  0  0  0
 35 70  1  0  0  0  0
 35 73  1  0  0  0  0
 35 81  2  0  0  0  0
 36 39  1  0  0  0  0
 37 46  1  0  0  0  0
 38 69  1  0  0  0  0
 39 41  1  0  0  0  0
 40 42  1  0  0  0  0
 40 43  1  0  0  0  0
 41 45  1  0  0  0  0
 42 47  1  0  0  0  0
 43 70  1  0  0  0  0
 44 47  1  0  0  0  0
 44 70  1  0  0  0  0
 45 74  1  0  0  0  0
 46 69  1  0  0  0  0
 47 68  1  0  0  0  0
 48 55  1  0  0  0  0
 49 56  1  0  0  0  0
 50 62  1  0  0  0  0
 51 63  1  0  0  0  0
 52 63  1  0  0  0  0
 53 63  1  0  0  0  0
 54 76  1  0  0  0  0
 55 64  1  0  0  0  0
 56 64  1  0  0  0  0
 57 58  1  0  0  0  0
 57 60  1  0  0  0  0
 58 64  1  0  0  0  0
 59 64  1  0  0  0  0
 59 67  1  0  0  0  0
 60 83  1  0  0  0  0
 61 63  1  0  0  0  0
 61 75  1  0  0  0  0
 62 76  1  0  0  0  0
 66 68  1  0  0  0  0
M  CHG  1  76   1
M  ISO  4  35 100  60 101  73 100  83 101
M  END
> <Batch ID>
0193

> <Smiles>
CCC(CC)(CC[101CH2:1][101O:1]c1ccc2c(c1)CN(C(=O)C(NC(=O)C(C)NC)C(C)(C)C)C(C(=O)NC1CCCc3ccccc31)C2)Cn1cnc([100NH:0][100C:0](=O)N2CCCC(n3nc(-c4ccc(Oc5ccc(F)cc5F)cc4)c(C(N)=O)c3N)C2)c1

> <Shape>
0.279

> <Color>
0.098

> <Negative vol penalty>
0.000

$$$$

  -OEChem-04052305303D

 87 95  0     1  0  0  0  0  0999 V2000
  -26.2314  -29.6511   19.5587 C   0  0  0  0  0  0  0  0  0  0  0  0
  -26.1516  -28.2936   19.2650 C   0  0  0  0  0  0  0  0  0  0  0  0
  -29.5496  -23.2116   21.2262 C   0  0  0  0  0  0  0  0  0  0  0  0
  -27.6735  -23.1001   19.7079 C   0  0  0  0  0  0  0  0  0  0  0  0
  -25.3963  -30.2036   20.5289 C   0  0  0  0  0  0  0  0  0  0  0  0
  -25.2373  -27.4875   19.9422 C   0  0  0  0  0  0  0  0  0  0  0  0
  -22.1732  -22.6926   17.6782 C   0  0  0  0  0  0  0  0  0  0  0  0
  -29.6025  -24.5954   21.0592 C   0  0  0  0  0  0  0  0  0  0  0  0
  -27.7264  -24.4839   19.5410 C   0  0  0  0  0  0  0  0  0  0  0  0
  -22.3935  -21.3180   17.7540 C   0  0  0  0  0  0  0  0  0  0  0  0
  -30.7597  -26.7838   18.7579 C   0  0  0  0  0  0  0  0  0  0  0  0
  -32.0120  -27.3642   18.5569 C   0  0  0  0  0  0  0  0  0  0  0  0
  -20.8673  -21.1822   19.6171 C   0  0  0  0  0  0  0  0  0  0  0  0
  -31.7147  -28.6962   20.5505 C   0  0  0  0  0  0  0  0  0  0  0  0
  -25.1851  -12.3421   21.7576 C   0  0  0  0  0  0  0  0  0  0  0  0
  -28.5851  -22.4639   20.5505 C   0  0  0  0  0  0  0  0  0  0  0  0
  -27.7924  -20.3215   21.6859 C   0  0  0  0  0  0  0  0  0  0  0  0
  -24.4646  -29.4057   21.2115 C   0  0  0  0  0  0  0  0  0  0  0  0
  -21.3052  -23.3251   18.5798 C   0  0  0  0  0  0  0  0  0  0  0  0
  -24.3898  -28.0295   20.9235 C   0  0  0  0  0  0  0  0  0  0  0  0
  -20.6357  -22.5645   19.5491 C   0  0  0  0  0  0  0  0  0  0  0  0
  -28.6909  -25.2316   20.2167 C   0  0  0  0  0  0  0  0  0  0  0  0
  -21.7428  -20.5630   18.7254 C   0  0  0  0  0  0  0  0  0  0  0  0
  -29.9848  -27.1596   19.8552 C   0  0  0  0  0  0  0  0  0  0  0  0
  -32.4895  -28.3204   19.4532 C   0  0  0  0  0  0  0  0  0  0  0  0
  -30.4623  -28.1158   20.7515 C   0  0  0  0  0  0  0  0  0  0  0  0
  -28.5304  -21.0344   20.7220 C   0  0  0  0  0  0  0  0  0  0  0  0
  -26.0411  -13.0876   19.6330 C   0  0  0  0  0  0  0  0  0  0  0  0
  -24.8198  -13.6091   20.0052 C   0  0  0  0  0  0  0  0  0  0  0  0
  -28.0770  -19.0025   21.4298 C   0  0  0  0  0  0  0  0  0  0  0  0
  -26.9270  -20.8081   22.7203 C   0  0  0  0  0  0  0  0  0  0  0  0
  -21.6278  -25.5783   20.7985 C   0  0  0  0  0  0  0  0  0  0  0  0
  -18.3989  -25.3208   20.9733 C   0  0  0  0  0  0  0  0  0  0  0  0
  -15.6131  -23.4149   20.4699 C   0  0  0  0  0  0  0  0  0  0  0  0
  -28.7723  -14.7807   17.8467 C   0  0  0  0  0  0  0  0  0  0  0  0
  -23.6158  -30.0386   22.2856 C   0  0  0  0  0  0  0  0  0  0  0  0
  -21.0577  -24.8045   18.4678 C   0  0  0  0  0  0  0  0  0  0  0  0
  -19.6783  -23.1924   20.5277 C   0  0  0  0  0  0  0  0  0  0  0  0
  -22.4144  -29.1890   22.6921 C   0  0  0  0  0  0  0  0  0  0  0  0
  -31.5663  -16.9109   18.4236 C   0  0  0  0  0  0  0  0  0  0  0  0
  -22.8351  -27.7389   22.9094 C   0  0  0  0  0  0  0  0  0  0  0  0
  -30.9637  -18.1169   19.1465 C   0  0  0  0  0  0  0  0  0  0  0  0
  -30.6189  -16.3588   17.3607 C   0  0  0  0  0  0  0  0  0  0  0  0
  -28.6612  -17.2429   18.5688 C   0  0  0  0  0  0  0  0  0  0  0  0
  -23.3937  -27.1273   21.6190 C   0  0  1  0  0  0  0  0  0  0  0  0
  -20.5480  -25.4249   19.7649 C   0  0  1  0  0  0  0  0  0  0  0  0
  -29.5568  -17.8002   19.6885 C   0  0  2  0  0  0  0  0  0  0  0  0
  -13.1189  -23.4613   20.7425 C   0  0  0  0  0  0  0  0  0  0  0  0
  -20.2697  -14.6956   21.2889 C   0  0  0  0  0  0  0  0  0  0  0  0
  -19.2278  -13.4117   19.4115 C   0  0  0  0  0  0  0  0  0  0  0  0
  -18.7215  -24.8848   23.9759 C   0  0  0  0  0  0  0  0  0  0  0  0
  -16.3764  -24.0099   24.0303 C   0  0  0  0  0  0  0  0  0  0  0  0
  -16.8108  -26.3662   23.3362 C   0  0  0  0  0  0  0  0  0  0  0  0
  -15.1726  -23.0699   17.5637 C   0  0  0  0  0  0  0  0  0  0  0  0
  -26.8499  -13.3190   18.4184 C   0  0  0  0  0  0  0  0  0  0  0  0
  -21.7081  -14.0224   19.3404 C   0  0  0  0  0  0  0  0  0  0  0  0
  -22.5557  -16.3530   18.8503 C   0  0  0  0  0  0  0  0  0  0  0  0
  -23.2365  -18.7435   18.3876 C   0  0  0  0  0  0  0  0  0  1  0  0
  -17.4354  -24.4787   21.7743 C   0  0  1  0  0  0  0  0  0  0  0  0
  -14.2853  -23.7279   19.8039 C   0  0  2  0  0  0  0  0  0  0  0  0
  -20.2903  -14.4489   19.7775 C   0  0  0  0  0  0  0  0  0  0  0  0
  -22.8176  -15.0502   19.6308 C   0  0  2  0  0  0  0  0  0  0  0  0
  -23.5860  -17.4568   19.1326 C   0  0  1  0  0  0  0  0  0  0  0  0
  -17.3555  -24.9231   23.2621 C   0  0  0  0  0  0  0  0  0  0  0  0
  -24.3272  -13.1824   21.2230 N   0  0  0  0  0  0  0  0  0  0  0  0
  -29.2312  -20.2345   19.9140 N   0  0  0  0  0  0  0  0  0  0  0  0
  -28.9350  -19.0053   20.3696 N   0  0  0  0  0  0  0  0  0  0  0  0
  -19.4745  -24.6431   20.3818 N   0  0  0  0  0  0  0  0  0  0  0  0
  -29.3030  -16.0779   17.9399 N   0  0  0  0  0  0  0  0  0  0  0  0
  -27.6747  -17.8520   22.0103 N   0  0  0  0  0  0  0  0  0  0  0  0
  -26.7459  -22.1925   22.8436 N   0  0  0  0  0  0  0  0  0  0  0  0
  -24.1004  -14.5050   19.2355 N   0  0  0  0  0  0  0  0  0  0  0  0
  -22.3163  -26.7738   20.7196 N   0  0  0  0  0  0  0  0  0  0  0  0
  -16.1612  -24.5310   21.0658 N   0  0  0  0  0  0  0  0  0  0  0  0
  -27.5232  -14.5986   18.4273 N   0  0  0  0  0  0  0  0  0  0  0  0
  -14.1077  -22.8907   18.5839 N   0  3  0  0  0  0  0  0  0  0  0  0
  -26.3448  -20.0390   23.5222 O   0  0  0  0  0  0  0  0  0  0  0  0
  -21.8209  -24.6793   21.6085 O   0  0  0  0  0  0  0  0  0  0  0  0
  -18.2005  -26.5339   20.8701 O   0  0  0  0  0  0  0  0  0  0  0  0
  -16.1121  -22.2918   20.4653 O   0  0  0  0  0  0  0  0  0  0  0  0
  -29.3701  -13.8522   17.2922 O   0  0  0  0  0  0  0  0  0  0  0  0
  -23.6233  -17.7343   20.5325 O   0  0  0  0  0  0  0  0  0  0  0  0
  -28.7420  -26.5819   20.0538 O   0  0  0  0  0  0  0  0  0  0  0  0
  -21.9579  -19.2127   18.8025 O   0  0  0  0  0  0  0  0  0  1  0  0
  -33.6928  -28.8765   19.2610 F   0  0  0  0  0  0  0  0  0  0  0  0
  -29.7229  -28.4800   21.8081 F   0  0  0  0  0  0  0  0  0  0  0  0
  -26.6058  -12.0199   20.8506 S   0  0  0  0  0  0  0  0  0  0  0  0
  1  2  1  0  0  0  0
  1  5  2  0  0  0  0
  2  6  2  0  0  0  0
  3  8  2  0  0  0  0
  3 16  1  0  0  0  0
  4  9  1  0  0  0  0
  4 16  2  0  0  0  0
  5 18  1  0  0  0  0
  6 20  1  0  0  0  0
  7 10  2  0  0  0  0
  7 19  1  0  0  0  0
  8 22  1  0  0  0  0
  9 22  2  0  0  0  0
 10 23  1  0  0  0  0
 11 12  2  0  0  0  0
 11 24  1  0  0  0  0
 12 25  1  0  0  0  0
 13 21  1  0  0  0  0
 13 23  2  0  0  0  0
 14 25  2  0  0  0  0
 14 26  1  0  0  0  0
 15 65  2  0  0  0  0
 15 87  1  0  0  0  0
 16 27  1  0  0  0  0
 17 27  1  0  0  0  0
 17 30  2  0  0  0  0
 17 31  1  0  0  0  0
 18 20  2  0  0  0  0
 18 36  1  0  0  0  0
 19 21  2  0  0  0  0
 19 37  1  0  0  0  0
 20 45  1  0  0  0  0
 21 38  1  0  0  0  0
 22 83  1  0  0  0  0
 23 84  1  0  0  0  0
 24 26  2  0  0  0  0
 24 83  1  0  0  0  0
 25 85  1  0  0  0  0
 26 86  1  0  0  0  0
 27 66  2  0  0  0  0
 28 29  2  0  0  0  0
 28 55  1  0  0  0  0
 28 87  1  0  0  0  0
 29 65  1  0  0  0  0
 29 72  1  0  0  0  0
 30 67  1  0  0  0  0
 30 70  1  0  0  0  0
 31 71  1  0  0  0  0
 31 77  2  0  0  0  0
 32 46  1  0  0  0  0
 32 73  1  0  0  0  0
 32 78  2  0  0  0  0
 33 59  1  0  0  0  0
 33 68  1  0  0  0  0
 33 79  2  0  0  0  0
 34 60  1  0  0  0  0
 34 74  1  0  0  0  0
 34 80  2  0  0  0  0
 35 69  1  0  0  0  0
 35 75  1  0  0  0  0
 35 81  2  0  0  0  0
 36 39  1  0  0  0  0
 37 46  1  0  0  0  0
 38 68  1  0  0  0  0
 39 41  1  0  0  0  0
 40 42  1  0  0  0  0
 40 43  1  0  0  0  0
 41 45  1  0  0  0  0
 42 47  1  0  0  0  0
 43 69  1  0  0  0  0
 44 47  1  0  0  0  0
 44 69  1  0  0  0  0
 45 73  1  0  0  0  0
 46 68  1  0  0  0  0
 47 67  1  0  0  0  0
 48 60  1  0  0  0  0
 49 61  1  0  0  0  0
 50 61  1  0  0  0  0
 51 64  1  0  0  0  0
 52 64  1  0  0  0  0
 53 64  1  0  0  0  0
 54 76  1  0  0  0  0
 55 75  1  0  0  0  0
 56 61  1  0  0  0  0
 56 62  1  0  0  0  0
 57 62  1  0  0  0  0
 57 63  1  0  0  0  0
 58 63  1  0  0  0  0
 58 84  1  0  0  0  0
 59 64  1  0  0  0  0
 59 74  1  0  0  0  0
 60 76  1  0  0  0  0
 62 72  1  0  0  0  0
 63 82  1  0  0  0  0
 66 67  1  0  0  0  0
M  CHG  1  76   1
M  ISO  4  35 100  58 101  75 100  84 101
M  END
> <Batch ID>
0193

> <Smiles>
CNC(C)C(=O)NC(C(=O)N1Cc2cc([101O:1][101CH2:1]C(O)CC(CC(C)C)Nc3ncsc3C[100NH:0][100C:0](=O)N3CCCC(n4nc(-c5ccc(Oc6ccc(F)cc6F)cc5)c(C(N)=O)c4N)C3)ccc2CC1C(=O)NC1CCCc2ccccc21)C(C)(C)C

> <Shape>
0.197

> <Color>
0.059

> <Negative vol penalty>
0.000

$$$$

  -OEChem-04052305303D

 83 91  0     1  0  0  0  0  0999 V2000
  -22.7112  -26.8617   24.7269 C   0  0  0  0  0  0  0  0  0  0  0  0
  -22.7234  -25.4762   24.6022 C   0  0  0  0  0  0  0  0  0  0  0  0
  -30.0202  -23.7037   19.1642 C   0  0  0  0  0  0  0  0  0  0  0  0
  -28.8937  -23.7975   21.2994 C   0  0  0  0  0  0  0  0  0  0  0  0
  -21.9483  -27.6326   23.8507 C   0  0  0  0  0  0  0  0  0  0  0  0
  -21.9718  -24.8606   23.6019 C   0  0  0  0  0  0  0  0  0  0  0  0
  -23.4399  -19.8001   20.4807 C   0  0  0  0  0  0  0  0  0  0  0  0
  -29.6950  -25.0404   18.9339 C   0  0  0  0  0  0  0  0  0  0  0  0
  -28.5684  -25.1343   21.0691 C   0  0  0  0  0  0  0  0  0  0  0  0
  -23.0636  -18.4656   20.6269 C   0  0  0  0  0  0  0  0  0  0  0  0
  -26.2832  -26.8698   19.2812 C   0  0  0  0  0  0  0  0  0  0  0  0
  -24.9791  -27.2771   19.5621 C   0  0  0  0  0  0  0  0  0  0  0  0
  -21.3448  -18.7742   18.9627 C   0  0  0  0  0  0  0  0  0  0  0  0
  -25.8235  -28.8751   21.1654 C   0  0  0  0  0  0  0  0  0  0  0  0
  -23.0845  -11.8375   19.4213 C   0  0  0  0  0  0  0  0  0  0  0  0
  -29.6195  -23.0823   20.3470 C   0  0  0  0  0  0  0  0  0  0  0  0
  -31.1102  -21.2038   21.2170 C   0  0  0  0  0  0  0  0  0  0  0  0
  -21.1946  -27.0268   22.8331 C   0  0  0  0  0  0  0  0  0  0  0  0
  -22.7632  -20.6359   19.5808 C   0  0  0  0  0  0  0  0  0  0  0  0
  -21.1970  -25.6241   22.7121 C   0  0  0  0  0  0  0  0  0  0  0  0
  -21.7161  -20.1182   18.8051 C   0  0  0  0  0  0  0  0  0  0  0  0
  -24.0897  -12.4940   20.1017 C   0  0  0  0  0  0  0  0  0  0  0  0
  -28.9691  -25.7557   19.8863 C   0  0  0  0  0  0  0  0  0  0  0  0
  -22.0141  -17.9532   19.8700 C   0  0  0  0  0  0  0  0  0  0  0  0
  -27.3575  -27.4651   19.9425 C   0  0  0  0  0  0  0  0  0  0  0  0
  -24.7492  -28.2798   20.5041 C   0  0  0  0  0  0  0  0  0  0  0  0
  -27.1277  -28.4677   20.8845 C   0  0  0  0  0  0  0  0  0  0  0  0
  -29.9547  -21.7013   20.5853 C   0  0  0  0  0  0  0  0  0  0  0  0
  -23.7181  -13.6630   20.7338 C   0  0  0  0  0  0  0  0  0  0  0  0
  -30.9532  -19.8395   21.1950 C   0  0  0  0  0  0  0  0  0  0  0  0
  -21.5746  -13.4302   20.0137 C   0  0  0  0  0  0  0  0  0  0  0  0
  -32.2258  -21.9117   21.7740 C   0  0  0  0  0  0  0  0  0  0  0  0
  -21.0395  -23.2931   19.8495 C   0  0  0  0  0  0  0  0  0  0  0  0
  -21.0817  -23.1838   16.6078 C   0  0  0  0  0  0  0  0  0  0  0  0
  -21.4078  -21.3070   13.7762 C   0  0  0  0  0  0  0  0  0  0  0  0
  -26.1318  -16.4380   20.9957 C   0  0  0  0  0  0  0  0  0  0  0  0
  -20.3482  -27.8986   21.9396 C   0  0  0  0  0  0  0  0  0  0  0  0
  -23.1986  -22.0661   19.4154 C   0  0  0  0  0  0  0  0  0  0  0  0
  -20.9707  -20.9686   17.8103 C   0  0  0  0  0  0  0  0  0  0  0  0
  -19.8751  -27.1932   20.6713 C   0  0  0  0  0  0  0  0  0  0  0  0
  -28.8895  -16.3481   18.6537 C   0  0  0  0  0  0  0  0  0  0  0  0
  -19.3288  -25.8081   21.0029 C   0  0  0  0  0  0  0  0  0  0  0  0
  -29.5857  -17.6770   18.9525 C   0  0  0  0  0  0  0  0  0  0  0  0
  -27.3727  -16.4850   18.7484 C   0  0  0  0  0  0  0  0  0  0  0  0
  -27.5768  -18.3457   20.3514 C   0  0  0  0  0  0  0  0  0  0  0  0
  -20.4144  -24.9211   21.6243 C   0  0  1  0  0  0  0  0  0  0  0  0
  -22.1043  -22.9615   18.8426 C   0  0  1  0  0  0  0  0  0  0  0  0
  -29.1133  -18.2679   20.2941 C   0  0  2  0  0  0  0  0  0  0  0  0
  -21.3570  -21.4913   11.2741 C   0  0  0  0  0  0  0  0  0  0  0  0
  -18.3473  -15.0915   20.8178 C   0  0  0  0  0  0  0  0  0  0  0  0
  -18.0376  -23.3779   16.6864 C   0  0  0  0  0  0  0  0  0  0  0  0
  -17.9968  -22.6112   14.3034 C   0  0  0  0  0  0  0  0  0  0  0  0
  -19.1250  -24.7537   14.9033 C   0  0  0  0  0  0  0  0  0  0  0  0
  -24.2060  -20.3740   13.5347 C   0  0  0  0  0  0  0  0  0  0  0  0
  -24.7201  -14.4612   21.5020 C   0  0  0  0  0  0  0  0  0  0  0  0
  -20.2723  -16.3366   19.7773 C   0  0  0  0  0  0  0  0  0  1  0  0
  -20.2060  -22.5609   15.5476 C   0  0  1  0  0  0  0  0  0  0  0  0
  -22.2312  -21.5165   12.5182 C   0  0  2  0  0  0  0  0  0  0  0  0
  -19.8572  -15.1346   20.6229 C   0  0  2  0  0  0  0  0  0  0  0  0
  -18.8539  -23.3101   15.3802 C   0  0  0  0  0  0  0  0  0  0  0  0
  -21.8112  -12.2789   19.3563 N   0  0  0  0  0  0  0  0  0  0  0  0
  -29.1249  -20.7319   20.1906 N   0  0  0  0  0  0  0  0  0  0  0  0
  -22.4649  -14.1622   20.7102 N   0  0  0  0  0  0  0  0  0  0  0  0
  -29.7598  -19.6116   20.5753 N   0  0  0  0  0  0  0  0  0  0  0  0
  -21.4297  -22.3623   17.6894 N   0  0  0  0  0  0  0  0  0  0  0  0
  -26.9882  -17.0352   20.0559 N   0  0  0  0  0  0  0  0  0  0  0  0
  -25.3952  -11.9898   20.1370 N   0  0  0  0  0  0  0  0  0  0  0  0
  -31.7209  -18.8246   21.6455 N   0  0  0  0  0  0  0  0  0  0  0  0
  -32.2269  -23.3118   21.7122 N   0  0  0  0  0  0  0  0  0  0  0  0
  -20.2795  -13.9123   19.9687 N   0  0  0  0  0  0  0  0  0  0  0  0
  -21.3068  -24.4221   20.6000 N   0  0  0  0  0  0  0  0  0  0  0  0
  -21.0124  -22.5048   14.3332 N   0  0  0  0  0  0  0  0  0  0  0  0
  -25.6112  -15.2009   20.6361 N   0  0  0  0  0  0  0  0  0  0  0  0
  -23.2621  -20.4480   12.3899 N   0  3  0  0  0  0  0  0  0  0  0  0
  -33.2007  -21.3194   22.2959 O   0  0  0  0  0  0  0  0  0  0  0  0
  -20.0480  -22.5784   19.9379 O   0  0  0  0  0  0  0  0  0  0  0  0
  -21.4495  -24.3541   16.4775 O   0  0  0  0  0  0  0  0  0  0  0  0
  -21.1389  -20.1923   14.2184 O   0  0  0  0  0  0  0  0  0  0  0  0
  -25.8557  -16.9658   22.0784 O   0  0  0  0  0  0  0  0  0  0  0  0
  -28.6517  -27.0601   19.6619 O   0  0  0  0  0  0  0  0  0  0  0  0
  -21.6444  -16.6512   20.0112 O   0  0  0  0  0  0  0  0  0  1  0  0
  -23.4969  -28.6719   20.7726 F   0  0  0  0  0  0  0  0  0  0  0  0
  -28.1558  -29.0441   21.5221 F   0  0  0  0  0  0  0  0  0  0  0  0
  1  2  1  0  0  0  0
  1  5  2  0  0  0  0
  2  6  2  0  0  0  0
  3  8  2  0  0  0  0
  3 16  1  0  0  0  0
  4  9  1  0  0  0  0
  4 16  2  0  0  0  0
  5 18  1  0  0  0  0
  6 20  1  0  0  0  0
  7 10  2  0  0  0  0
  7 19  1  0  0  0  0
  8 23  1  0  0  0  0
  9 23  2  0  0  0  0
 10 24  1  0  0  0  0
 11 12  2  0  0  0  0
 11 25  1  0  0  0  0
 12 26  1  0  0  0  0
 13 21  1  0  0  0  0
 13 24  2  0  0  0  0
 14 26  2  0  0  0  0
 14 27  1  0  0  0  0
 15 22  1  0  0  0  0
 15 61  2  0  0  0  0
 16 28  1  0  0  0  0
 17 28  1  0  0  0  0
 17 30  2  0  0  0  0
 17 32  1  0  0  0  0
 18 20  2  0  0  0  0
 18 37  1  0  0  0  0
 19 21  2  0  0  0  0
 19 38  1  0  0  0  0
 20 46  1  0  0  0  0
 21 39  1  0  0  0  0
 22 29  2  0  0  0  0
 22 67  1  0  0  0  0
 23 80  1  0  0  0  0
 24 81  1  0  0  0  0
 25 27  2  0  0  0  0
 25 80  1  0  0  0  0
 26 82  1  0  0  0  0
 27 83  1  0  0  0  0
 28 62  2  0  0  0  0
 29 55  1  0  0  0  0
 29 63  1  0  0  0  0
 30 64  1  0  0  0  0
 30 68  1  0  0  0  0
 31 61  1  0  0  0  0
 31 63  2  0  0  0  0
 31 70  1  0  0  0  0
 32 69  1  0  0  0  0
 32 75  2  0  0  0  0
 33 47  1  0  0  0  0
 33 71  1  0  0  0  0
 33 76  2  0  0  0  0
 34 57  1  0  0  0  0
 34 65  1  0  0  0  0
 34 77  2  0  0  0  0
 35 58  1  0  0  0  0
 35 72  1  0  0  0  0
 35 78  2  0  0  0  0
 36 66  1  0  0  0  0
 36 73  1  0  0  0  0
 36 79  2  0  0  0  0
 37 40  1  0  0  0  0
 38 47  1  0  0  0  0
 39 65  1  0  0  0  0
 40 42  1  0  0  0  0
 41 43  1  0  0  0  0
 41 44  1  0  0  0  0
 42 46  1  0  0  0  0
 43 48  1  0  0  0  0
 44 66  1  0  0  0  0
 45 48  1  0  0  0  0
 45 66  1  0  0  0  0
 46 71  1  0  0  0  0
 47 65  1  0  0  0  0
 48 64  1  0  0  0  0
 49 58  1  0  0  0  0
 50 59  1  0  0  0  0
 51 60  1  0  0  0  0
 52 60  1  0  0  0  0
 53 60  1  0  0  0  0
 54 74  1  0  0  0  0
 55 73  1  0  0  0  0
 56 59  1  0  0  0  0
 56 81  1  0  0  0  0
 57 60  1  0  0  0  0
 57 72  1  0  0  0  0
 58 74  1  0  0  0  0
 59 70  1  0  0  0  0
 62 64  1  0  0  0  0
M  CHG  1  74   1
M  ISO  4  36 100  56 101  73 100  81 101
M  END
> <Batch ID>
0193

> <Smiles>
CNC(C)C(=O)NC(C(=O)N1Cc2cc([101O:1][101CH2:1]C(C)Nc3ncc(N)c(C[100NH:0][100C:0](=O)N4CCCC(n5nc(-c6ccc(Oc7ccc(F)cc7F)cc6)c(C(N)=O)c5N)C4)n3)ccc2CC1C(=O)NC1CCCc2ccccc21)C(C)(C)C

> <Shape>
0.184

> <Color>
0.089

> <Negative vol penalty>
0.000

$$$$

  -OEChem-04052305303D

 84 92  0     1  0  0  0  0  0999 V2000
  -27.1700   -9.9664   23.3269 C   0  0  0  0  0  0  0  0  0  0  0  0
  -27.8804  -11.1285   23.0435 C   0  0  0  0  0  0  0  0  0  0  0  0
  -20.1440  -28.9752   22.8427 C   0  0  0  0  0  0  0  0  0  0  0  0
  -21.0170  -26.8842   23.6809 C   0  0  0  0  0  0  0  0  0  0  0  0
  -25.9602   -9.7153   22.6809 C   0  0  0  0  0  0  0  0  0  0  0  0
  -27.3819  -12.0397   22.1131 C   0  0  0  0  0  0  0  0  0  0  0  0
  -27.9159  -18.1382   22.2818 C   0  0  0  0  0  0  0  0  0  0  0  0
  -18.9461  -28.3422   22.5112 C   0  0  0  0  0  0  0  0  0  0  0  0
  -19.8191  -26.2511   23.3494 C   0  0  0  0  0  0  0  0  0  0  0  0
  -28.7896  -19.0211   21.6487 C   0  0  0  0  0  0  0  0  0  0  0  0
  -16.7062  -25.9826   24.6373 C   0  0  0  0  0  0  0  0  0  0  0  0
  -16.1490  -25.1189   25.5801 C   0  0  0  0  0  0  0  0  0  0  0  0
  -27.1498  -19.3945   19.9193 C   0  0  0  0  0  0  0  0  0  0  0  0
  -16.3010  -23.2969   24.0007 C   0  0  0  0  0  0  0  0  0  0  0  0
  -21.1795  -28.2462   23.4275 C   0  0  0  0  0  0  0  0  0  0  0  0
  -22.7405  -29.5231   24.9897 C   0  0  0  0  0  0  0  0  0  0  0  0
  -25.4419  -10.6285   21.7492 C   0  0  0  0  0  0  0  0  0  0  0  0
  -26.6547  -17.8680   21.7316 C   0  0  0  0  0  0  0  0  0  0  0  0
  -26.1647  -11.7999   21.4530 C   0  0  0  0  0  0  0  0  0  0  0  0
  -26.2609  -18.5097   20.5487 C   0  0  0  0  0  0  0  0  0  0  0  0
  -18.7836  -26.9802   22.7646 C   0  0  0  0  0  0  0  0  0  0  0  0
  -28.4078  -19.6472   20.4658 C   0  0  0  0  0  0  0  0  0  0  0  0
  -17.0609  -25.5035   23.3761 C   0  0  0  0  0  0  0  0  0  0  0  0
  -15.9464  -23.7760   25.2619 C   0  0  0  0  0  0  0  0  0  0  0  0
  -16.8583  -24.1607   23.0579 C   0  0  0  0  0  0  0  0  0  0  0  0
  -22.4174  -28.8994   23.7697 C   0  0  0  0  0  0  0  0  0  0  0  0
  -24.0215  -29.9851   24.8104 C   0  0  0  0  0  0  0  0  0  0  0  0
  -30.7389  -26.6675   19.5673 C   0  0  0  0  0  0  0  0  0  0  0  0
  -30.9696  -26.1177   17.4037 C   0  0  0  0  0  0  0  0  0  0  0  0
  -30.4714  -24.5363   18.9163 C   0  0  0  0  0  0  0  0  0  0  0  0
  -21.9532  -29.6716   26.1787 C   0  0  0  0  0  0  0  0  0  0  0  0
  -25.2035  -15.2685   20.6179 C   0  0  0  0  0  0  0  0  0  0  0  0
  -22.6495  -17.2577   20.4109 C   0  0  0  0  0  0  0  0  0  0  0  0
  -21.4798  -20.4526   20.1439 C   0  0  0  0  0  0  0  0  0  0  0  0
  -28.4036  -28.1652   21.2974 C   0  0  0  0  0  0  0  0  0  0  0  0
  -24.1536  -10.2909   21.0414 C   0  0  0  0  0  0  0  0  0  0  0  0
  -25.7134  -16.9335   22.4410 C   0  0  0  0  0  0  0  0  0  0  0  0
  -24.9099  -18.2692   19.9280 C   0  0  0  0  0  0  0  0  0  0  0  0
  -23.5094  -11.4872   20.3456 C   0  0  0  0  0  0  0  0  0  0  0  0
  -27.0109  -31.5041   21.3951 C   0  0  0  0  0  0  0  0  0  0  0  0
  -24.5514  -12.2661   19.5490 C   0  0  0  0  0  0  0  0  0  0  0  0
  -25.6958  -31.2635   22.1387 C   0  0  0  0  0  0  0  0  0  0  0  0
  -27.3364  -30.3446   20.4583 C   0  0  0  0  0  0  0  0  0  0  0  0
  -26.0676  -28.7681   21.8649 C   0  0  0  0  0  0  0  0  0  0  0  0
  -25.6445  -12.8243   20.4682 C   0  0  1  0  0  0  0  0  0  0  0  0
  -24.6540  -16.3385   21.5184 C   0  0  1  0  0  0  0  0  0  0  0  0
  -25.6939  -29.8949   22.8452 C   0  0  2  0  0  0  0  0  0  0  0  0
  -19.3459  -21.7600   19.9583 C   0  0  0  0  0  0  0  0  0  0  0  0
  -28.4815  -23.1168   20.9235 C   0  0  0  0  0  0  0  0  0  0  0  0
  -31.5937  -20.8290   20.3170 C   0  0  0  0  0  0  0  0  0  0  0  0
  -22.3976  -16.4266   17.4859 C   0  0  0  0  0  0  0  0  0  0  0  0
  -20.9169  -18.4123   17.1216 C   0  0  0  0  0  0  0  0  0  0  0  0
  -20.2236  -16.6159   18.7075 C   0  0  0  0  0  0  0  0  0  0  0  0
  -22.0159  -21.9073   22.6648 C   0  0  0  0  0  0  0  0  0  0  0  0
  -30.7516  -27.6958   20.6466 C   0  0  0  0  0  0  0  0  0  0  0  0
  -22.0987  -18.1839   19.3537 C   0  0  1  0  0  0  0  0  0  0  0  0
  -20.3949  -21.1948   20.9032 C   0  0  2  0  0  0  0  0  0  0  0  0
  -29.9194  -22.7474   20.5657 C   0  0  1  0  0  0  0  0  0  0  0  0
  -30.1675  -21.2334   20.6737 C   0  0  1  0  0  0  0  0  0  1  0  0
  -21.4355  -17.4130   18.1776 C   0  0  0  0  0  0  0  0  0  0  0  0
  -23.4127  -28.9582   22.8810 N   0  0  0  0  0  0  0  0  0  0  0  0
  -30.9995  -27.0969   18.3218 N   0  0  0  0  0  0  0  0  0  0  0  0
  -30.4668  -25.4061   19.9392 N   0  0  0  0  0  0  0  0  0  0  0  0
  -30.7136  -24.8185   17.6260 N   0  0  0  0  0  0  0  0  0  0  0  0
  -24.3739  -29.6244   23.5431 N   0  0  0  0  0  0  0  0  0  0  0  0
  -24.0275  -17.3423   20.6558 N   0  0  0  0  0  0  0  0  0  0  0  0
  -27.3368  -29.0736   21.1964 N   0  0  0  0  0  0  0  0  0  0  0  0
  -24.8695  -30.6608   25.6146 N   0  0  0  0  0  0  0  0  0  0  0  0
  -31.2357  -26.4926   16.0686 N   0  0  0  0  0  0  0  0  0  0  0  0
  -20.6576  -29.1373   26.1932 N   0  0  0  0  0  0  0  0  0  0  0  0
  -30.1994  -23.2159   19.2229 N   0  0  0  0  0  0  0  0  0  0  0  0
  -25.1676  -13.9999   21.1646 N   0  0  0  0  0  0  0  0  0  0  0  0
  -21.2032  -19.1054   20.0446 N   0  0  0  0  0  0  0  0  0  0  0  0
  -29.5676  -28.5258   20.6298 N   0  0  0  0  0  0  0  0  0  0  0  0
  -20.9845  -22.3221   21.6793 N   0  3  0  0  0  0  0  0  0  0  0  0
  -22.3798  -30.2749   27.1924 O   0  0  0  0  0  0  0  0  0  0  0  0
  -25.6272  -15.5712   19.5086 O   0  0  0  0  0  0  0  0  0  0  0  0
  -21.8842  -16.4925   21.0028 O   0  0  0  0  0  0  0  0  0  0  0  0
  -22.4714  -21.0125   19.6816 O   0  0  0  0  0  0  0  0  0  0  0  0
  -28.3263  -27.1124   21.9399 O   0  0  0  0  0  0  0  0  0  0  0  0
  -17.6148  -26.3622   22.4415 O   0  0  0  0  0  0  0  0  0  0  0  0
  -29.2589  -20.5090   19.8455 O   0  0  0  0  0  0  0  0  0  1  0  0
  -15.4126  -22.9463   26.1679 F   0  0  0  0  0  0  0  0  0  0  0  0
  -17.1981  -23.6944   21.8484 F   0  0  0  0  0  0  0  0  0  0  0  0
  1  2  1  0  0  0  0
  1  5  2  0  0  0  0
  2  6  2  0  0  0  0
  3  8  2  0  0  0  0
  3 15  1  0  0  0  0
  4  9  1  0  0  0  0
  4 15  2  0  0  0  0
  5 17  1  0  0  0  0
  6 19  1  0  0  0  0
  7 10  2  0  0  0  0
  7 18  1  0  0  0  0
  8 21  1  0  0  0  0
  9 21  2  0  0  0  0
 10 22  1  0  0  0  0
 11 12  2  0  0  0  0
 11 23  1  0  0  0  0
 12 24  1  0  0  0  0
 13 20  1  0  0  0  0
 13 22  2  0  0  0  0
 14 24  2  0  0  0  0
 14 25  1  0  0  0  0
 15 26  1  0  0  0  0
 16 26  1  0  0  0  0
 16 27  2  0  0  0  0
 16 31  1  0  0  0  0
 17 19  2  0  0  0  0
 17 36  1  0  0  0  0
 18 20  2  0  0  0  0
 18 37  1  0  0  0  0
 19 45  1  0  0  0  0
 20 38  1  0  0  0  0
 21 81  1  0  0  0  0
 22 82  1  0  0  0  0
 23 25  2  0  0  0  0
 23 81  1  0  0  0  0
 24 83  1  0  0  0  0
 25 84  1  0  0  0  0
 26 61  2  0  0  0  0
 27 65  1  0  0  0  0
 27 68  1  0  0  0  0
 28 55  1  0  0  0  0
 28 62  2  0  0  0  0
 28 63  1  0  0  0  0
 29 62  1  0  0  0  0
 29 64  2  0  0  0  0
 29 69  1  0  0  0  0
 30 63  2  0  0  0  0
 30 64  1  0  0  0  0
 30 71  1  0  0  0  0
 31 70  1  0  0  0  0
 31 76  2  0  0  0  0
 32 46  1  0  0  0  0
 32 72  1  0  0  0  0
 32 77  2  0  0  0  0
 33 56  1  0  0  0  0
 33 66  1  0  0  0  0
 33 78  2  0  0  0  0
 34 57  1  0  0  0  0
 34 73  1  0  0  0  0
 34 79  2  0  0  0  0
 35 67  1  0  0  0  0
 35 74  1  0  0  0  0
 35 80  2  0  0  0  0
 36 39  1  0  0  0  0
 37 46  1  0  0  0  0
 38 66  1  0  0  0  0
 39 41  1  0  0  0  0
 40 42  1  0  0  0  0
 40 43  1  0  0  0  0
 41 45  1  0  0  0  0
 42 47  1  0  0  0  0
 43 67  1  0  0  0  0
 44 47  1  0  0  0  0
 44 67  1  0  0  0  0
 45 72  1  0  0  0  0
 46 66  1  0  0  0  0
 47 65  1  0  0  0  0
 48 57  1  0  0  0  0
 49 58  1  0  0  0  0
 50 59  1  0  0  0  0
 51 60  1  0  0  0  0
 52 60  1  0  0  0  0
 53 60  1  0  0  0  0
 54 75  1  0  0  0  0
 55 74  1  0  0  0  0
 56 60  1  0  0  0  0
 56 73  1  0  0  0  0
 57 75  1  0  0  0  0
 58 59  1  0  0  0  0
 58 71  1  0  0  0  0
 59 82  1  0  0  0  0
 61 65  1  0  0  0  0
M  CHG  1  75   1
M  ISO  4  35 100  59 101  74 100  82 101
M  END
> <Batch ID>
0193

> <Smiles>
CNC(C)C(=O)NC(C(=O)N1Cc2cc([101O:1][101CH:1](C)C(C)Nc3nc(N)nc(C[100NH:0][100C:0](=O)N4CCCC(n5nc(-c6ccc(Oc7ccc(F)cc7F)cc6)c(C(N)=O)c5N)C4)n3)ccc2CC1C(=O)NC1CCCc2ccccc21)C(C)(C)C

> <Shape>
0.236

> <Color>
0.069

> <Negative vol penalty>
0.000

$$$$

  -OEChem-04052305303D

 87 95  0     1  0  0  0  0  0999 V2000
  -25.7559  -38.6860   23.7913 C   0  0  0  0  0  0  0  0  0  0  0  0
  -26.4929  -37.9051   22.9067 C   0  0  0  0  0  0  0  0  0  0  0  0
  -24.6748   -8.6874   21.3459 C   0  0  0  0  0  0  0  0  0  0  0  0
  -23.2289  -10.6161   21.1835 C   0  0  0  0  0  0  0  0  0  0  0  0
  -25.2716  -38.1289   24.9741 C   0  0  0  0  0  0  0  0  0  0  0  0
  -26.7470  -36.5669   23.2050 C   0  0  0  0  0  0  0  0  0  0  0  0
  -27.6122  -30.2056   20.0267 C   0  0  0  0  0  0  0  0  0  0  0  0
  -23.8656   -8.1657   22.3552 C   0  0  0  0  0  0  0  0  0  0  0  0
  -22.4197  -10.0945   22.1928 C   0  0  0  0  0  0  0  0  0  0  0  0
  -28.5063  -29.1368   19.9817 C   0  0  0  0  0  0  0  0  0  0  0  0
  -20.9136   -6.5334   22.5872 C   0  0  0  0  0  0  0  0  0  0  0  0
  -20.5759   -5.1821   22.5139 C   0  0  0  0  0  0  0  0  0  0  0  0
  -27.0294  -21.9980   20.6953 C   0  0  0  0  0  0  0  0  0  0  0  0
  -27.5522  -28.2608   22.0168 C   0  0  0  0  0  0  0  0  0  0  0  0
  -21.6394   -4.8005   24.6494 C   0  0  0  0  0  0  0  0  0  0  0  0
  -26.6234  -20.7019   20.8995 C   0  0  0  0  0  0  0  0  0  0  0  0
  -24.3565   -9.9126   20.7601 C   0  0  0  0  0  0  0  0  0  0  0  0
  -25.0659  -10.2410   18.3318 C   0  0  0  0  0  0  0  0  0  0  0  0
  -25.5117  -36.7806   25.2825 C   0  0  0  0  0  0  0  0  0  0  0  0
  -26.6871  -30.3160   21.0748 C   0  0  0  0  0  0  0  0  0  0  0  0
  -26.2666  -35.9916   24.3937 C   0  0  0  0  0  0  0  0  0  0  0  0
  -26.6457  -29.3306   22.0714 C   0  0  0  0  0  0  0  0  0  0  0  0
  -22.7380   -8.8692   22.7786 C   0  0  0  0  0  0  0  0  0  0  0  0
  -28.4783  -28.1657   20.9784 C   0  0  0  0  0  0  0  0  0  0  0  0
  -21.6142   -7.0183   23.6916 C   0  0  0  0  0  0  0  0  0  0  0  0
  -20.9388   -4.3156   23.5450 C   0  0  0  0  0  0  0  0  0  0  0  0
  -21.9771   -6.1519   24.7227 C   0  0  0  0  0  0  0  0  0  0  0  0
  -25.1923  -10.4523   19.7179 C   0  0  0  0  0  0  0  0  0  0  0  0
  -28.3969  -21.8926   20.3781 C   0  0  0  0  0  0  0  0  0  0  0  0
  -26.0933  -10.9657   17.7789 C   0  0  0  0  0  0  0  0  0  0  0  0
  -24.1055   -9.4596   17.6087 C   0  0  0  0  0  0  0  0  0  0  0  0
  -26.1473  -32.4417   23.3757 C   0  0  0  0  0  0  0  0  0  0  0  0
  -23.5595  -30.5742   23.9574 C   0  0  0  0  0  0  0  0  0  0  0  0
  -28.8869  -24.3423   20.0577 C   0  0  0  0  0  0  0  0  0  0  0  0
  -22.0826  -27.5084   23.7008 C   0  0  0  0  0  0  0  0  0  0  0  0
  -29.1736  -15.7495   19.6439 C   0  0  0  0  0  0  0  0  0  0  0  0
  -25.0082  -36.2354   26.5955 C   0  0  0  0  0  0  0  0  0  0  0  0
  -25.7115  -31.4607   21.0945 C   0  0  0  0  0  0  0  0  0  0  0  0
  -25.6584  -29.3922   23.2071 C   0  0  0  0  0  0  0  0  0  0  0  0
  -25.0020  -34.7103   26.6595 C   0  0  0  0  0  0  0  0  0  0  0  0
  -30.4956  -12.5655   18.7543 C   0  0  0  0  0  0  0  0  0  0  0  0
  -26.3215  -34.1488   26.1392 C   0  0  0  0  0  0  0  0  0  0  0  0
  -29.2749  -11.6438   18.7753 C   0  0  0  0  0  0  0  0  0  0  0  0
  -30.4243  -13.6217   19.8550 C   0  0  0  0  0  0  0  0  0  0  0  0
  -27.9631  -13.4976   19.8895 C   0  0  0  0  0  0  0  0  0  0  0  0
  -26.5420  -34.5295   24.6702 C   0  0  1  0  0  0  0  0  0  0  0  0
  -25.1552  -31.7478   22.4857 C   0  0  1  0  0  0  0  0  0  0  0  0
  -27.9627  -12.4507   18.7624 C   0  0  2  0  0  0  0  0  0  0  0  0
  -25.4546  -17.9337   16.2689 C   0  0  0  0  0  0  0  0  0  0  0  0
  -19.9797  -26.2783   24.3025 C   0  0  0  0  0  0  0  0  0  0  0  0
  -25.2144  -17.7470   19.2901 C   0  0  0  0  0  0  0  0  0  0  0  0
  -24.4961  -30.3957   26.8558 C   0  0  0  0  0  0  0  0  0  0  0  0
  -22.9540  -28.4471   27.1610 C   0  0  0  0  0  0  0  0  0  0  0  0
  -22.0285  -30.6877   26.5730 C   0  0  0  0  0  0  0  0  0  0  0  0
  -21.4553  -26.9562   20.8617 C   0  0  0  0  0  0  0  0  0  0  0  0
  -30.0957  -25.1984   19.6972 C   0  0  0  0  0  0  0  0  0  0  0  0
  -26.6174  -17.5528   17.1757 C   0  0  0  0  0  0  0  0  0  0  0  0
  -27.7993  -18.4910   20.8029 C   0  0  0  0  0  0  0  0  0  0  0  0
  -29.7813  -26.6859   19.6486 C   0  0  0  0  0  0  0  0  0  1  0  0
  -23.2847  -29.3669   24.8210 C   0  0  1  0  0  0  0  0  0  0  0  0
  -20.6978  -27.0929   23.2379 C   0  0  2  0  0  0  0  0  0  0  0  0
  -26.5201  -18.1555   18.5959 C   0  0  2  0  0  0  0  0  0  0  0  0
  -27.7828  -17.7936   19.4282 C   0  0  2  0  0  0  0  0  0  0  0  0
  -23.2109  -29.7239   26.3325 C   0  0  0  0  0  0  0  0  0  0  0  0
  -26.2192  -11.2487   20.0265 N   0  0  0  0  0  0  0  0  0  0  0  0
  -28.8306  -20.6293   20.3795 N   0  0  0  0  0  0  0  0  0  0  0  0
  -27.7294  -19.9290   20.7002 N   0  0  0  0  0  0  0  0  0  0  0  0
  -26.7474  -11.5442   18.8266 N   0  0  0  0  0  0  0  0  0  0  0  0
  -24.7294  -30.5342   23.1857 N   0  0  0  0  0  0  0  0  0  0  0  0
  -29.1564  -14.3522   19.7861 N   0  0  0  0  0  0  0  0  0  0  0  0
  -26.4920  -11.1581   16.5036 N   0  0  0  0  0  0  0  0  0  0  0  0
  -23.1172   -8.7787   18.3325 N   0  0  0  0  0  0  0  0  0  0  0  0
  -29.2354  -22.9946   20.0864 N   0  0  0  0  0  0  0  0  0  0  0  0
  -25.7408  -33.6906   23.8050 N   0  0  0  0  0  0  0  0  0  0  0  0
  -22.0712  -28.7541   24.2918 N   0  0  0  0  0  0  0  0  0  0  0  0
  -27.9285  -16.3630   19.5803 N   0  0  0  0  0  0  0  0  0  0  0  0
  -20.7911  -26.2694   21.9993 N   0  3  0  0  0  0  0  0  0  0  0  0
  -24.1332   -9.3547   16.3590 O   0  0  0  0  0  0  0  0  0  0  0  0
  -27.2028  -31.8845   23.6536 O   0  0  0  0  0  0  0  0  0  0  0  0
  -22.7617  -31.5151   23.9617 O   0  0  0  0  0  0  0  0  0  0  0  0
  -27.7841  -24.8307   20.2803 O   0  0  0  0  0  0  0  0  0  0  0  0
  -23.0745  -26.7972   23.5562 O   0  0  0  0  0  0  0  0  0  0  0  0
  -30.2210  -16.4014   19.5730 O   0  0  0  0  0  0  0  0  0  0  0  0
  -21.9481   -8.3604   23.7633 O   0  0  0  0  0  0  0  0  0  0  0  0
  -29.3504  -27.1218   20.9372 O   0  0  0  0  0  0  0  0  0  1  0  0
  -20.6131   -3.0182   23.4751 F   0  0  0  0  0  0  0  0  0  0  0  0
  -22.6493   -6.6121   25.7867 F   0  0  0  0  0  0  0  0  0  0  0  0
  1  2  1  0  0  0  0
  1  5  2  0  0  0  0
  2  6  2  0  0  0  0
  3  8  2  0  0  0  0
  3 17  1  0  0  0  0
  4  9  1  0  0  0  0
  4 17  2  0  0  0  0
  5 19  1  0  0  0  0
  6 21  1  0  0  0  0
  7 10  2  0  0  0  0
  7 20  1  0  0  0  0
  8 23  1  0  0  0  0
  9 23  2  0  0  0  0
 10 24  1  0  0  0  0
 11 12  2  0  0  0  0
 11 25  1  0  0  0  0
 12 26  1  0  0  0  0
 13 16  2  0  0  0  0
 13 29  1  0  0  0  0
 14 22  1  0  0  0  0
 14 24  2  0  0  0  0
 15 26  2  0  0  0  0
 15 27  1  0  0  0  0
 16 67  1  0  0  0  0
 17 28  1  0  0  0  0
 18 28  1  0  0  0  0
 18 30  2  0  0  0  0
 18 31  1  0  0  0  0
 19 21  2  0  0  0  0
 19 37  1  0  0  0  0
 20 22  2  0  0  0  0
 20 38  1  0  0  0  0
 21 46  1  0  0  0  0
 22 39  1  0  0  0  0
 23 84  1  0  0  0  0
 24 85  1  0  0  0  0
 25 27  2  0  0  0  0
 25 84  1  0  0  0  0
 26 86  1  0  0  0  0
 27 87  1  0  0  0  0
 28 65  2  0  0  0  0
 29 66  2  0  0  0  0
 29 73  1  0  0  0  0
 30 68  1  0  0  0  0
 30 71  1  0  0  0  0
 31 72  1  0  0  0  0
 31 78  2  0  0  0  0
 32 47  1  0  0  0  0
 32 74  1  0  0  0  0
 32 79  2  0  0  0  0
 33 60  1  0  0  0  0
 33 69  1  0  0  0  0
 33 80  2  0  0  0  0
 34 56  1  0  0  0  0
 34 73  1  0  0  0  0
 34 81  2  0  0  0  0
 35 61  1  0  0  0  0
 35 75  1  0  0  0  0
 35 82  2  0  0  0  0
 36 70  1  0  0  0  0
 36 76  1  0  0  0  0
 36 83  2  0  0  0  0
 37 40  1  0  0  0  0
 38 47  1  0  0  0  0
 39 69  1  0  0  0  0
 40 42  1  0  0  0  0
 41 43  1  0  0  0  0
 41 44  1  0  0  0  0
 42 46  1  0  0  0  0
 43 48  1  0  0  0  0
 44 70  1  0  0  0  0
 45 48  1  0  0  0  0
 45 70  1  0  0  0  0
 46 74  1  0  0  0  0
 47 69  1  0  0  0  0
 48 68  1  0  0  0  0
 49 57  1  0  0  0  0
 50 61  1  0  0  0  0
 51 62  1  0  0  0  0
 52 64  1  0  0  0  0
 53 64  1  0  0  0  0
 54 64  1  0  0  0  0
 55 77  1  0  0  0  0
 56 59  1  0  0  0  0
 57 62  1  0  0  0  0
 58 63  1  0  0  0  0
 58 67  1  0  0  0  0
 59 85  1  0  0  0  0
 60 64  1  0  0  0  0
 60 75  1  0  0  0  0
 61 77  1  0  0  0  0
 62 63  1  0  0  0  0
 63 76  1  0  0  0  0
 65 68  1  0  0  0  0
 66 67  1  0  0  0  0
M  CHG  1  77   1
M  ISO  4  36 100  59 101  76 100  85 101
M  END
> <Batch ID>
0193

> <Smiles>
CCC(C)C(Cn1ccc(NC(=O)C[101CH2:1][101O:1]c2ccc3c(c2)CN(C(=O)C(NC(=O)C(C)NC)C(C)(C)C)C(C(=O)NC2CCCc4ccccc42)C3)n1)[100NH:0][100C:0](=O)N1CCCC(n2nc(-c3ccc(Oc4ccc(F)cc4F)cc3)c(C(N)=O)c2N)C1

> <Shape>
0.333

> <Color>
0.091

> <Negative vol penalty>
0.000

$$$$

  -OEChem-04052305303D

 85 93  0     1  0  0  0  0  0999 V2000
  -16.8986  -30.5997   22.8952 C   0  0  0  0  0  0  0  0  0  0  0  0
  -18.1854  -31.0913   22.7001 C   0  0  0  0  0  0  0  0  0  0  0  0
  -23.7501  -12.6009   21.4298 C   0  0  0  0  0  0  0  0  0  0  0  0
  -25.4492  -13.0967   23.0743 C   0  0  0  0  0  0  0  0  0  0  0  0
  -16.7017  -29.2401   23.1331 C   0  0  0  0  0  0  0  0  0  0  0  0
  -19.2761  -30.2237   22.7440 C   0  0  0  0  0  0  0  0  0  0  0  0
  -25.7511  -29.2446   19.8401 C   0  0  0  0  0  0  0  0  0  0  0  0
  -23.6614  -11.2961   21.9148 C   0  0  0  0  0  0  0  0  0  0  0  0
  -25.3605  -11.7918   23.5593 C   0  0  0  0  0  0  0  0  0  0  0  0
  -27.0785  -29.0373   20.2128 C   0  0  0  0  0  0  0  0  0  0  0  0
  -22.2306   -9.7030   24.5316 C   0  0  0  0  0  0  0  0  0  0  0  0
  -20.9569   -9.1695   24.7277 C   0  0  0  0  0  0  0  0  0  0  0  0
  -26.6109  -26.6952   20.5526 C   0  0  0  0  0  0  0  0  0  0  0  0
  -21.4533   -7.4057   23.1530 C   0  0  0  0  0  0  0  0  0  0  0  0
  -24.6440  -13.5012   22.0096 C   0  0  0  0  0  0  0  0  0  0  0  0
  -23.9963  -15.9675   21.9365 C   0  0  0  0  0  0  0  0  0  0  0  0
  -17.7898  -28.3538   23.1703 C   0  0  0  0  0  0  0  0  0  0  0  0
  -24.8395  -28.1790   19.8314 C   0  0  0  0  0  0  0  0  0  0  0  0
  -19.0937  -28.8512   22.9840 C   0  0  0  0  0  0  0  0  0  0  0  0
  -25.2732  -26.8912   20.1770 C   0  0  0  0  0  0  0  0  0  0  0  0
  -30.7180  -21.4871   16.9782 C   0  0  0  0  0  0  0  0  0  0  0  0
  -24.4666  -10.8915   22.9795 C   0  0  0  0  0  0  0  0  0  0  0  0
  -27.5079  -27.7630   20.5719 C   0  0  0  0  0  0  0  0  0  0  0  0
  -23.1157   -9.0879   23.6461 C   0  0  0  0  0  0  0  0  0  0  0  0
  -20.5682   -8.0208   24.0384 C   0  0  0  0  0  0  0  0  0  0  0  0
  -22.7270   -7.9393   22.9568 C   0  0  0  0  0  0  0  0  0  0  0  0
  -30.6040  -22.8203   17.3310 C   0  0  0  0  0  0  0  0  0  0  0  0
  -24.7364  -14.8490   21.5087 C   0  0  0  0  0  0  0  0  0  0  0  0
  -31.3652  -20.6398   17.8549 C   0  0  0  0  0  0  0  0  0  0  0  0
  -31.1445  -23.2179   18.5374 C   0  0  0  0  0  0  0  0  0  0  0  0
  -24.4526  -17.0006   21.1548 C   0  0  0  0  0  0  0  0  0  0  0  0
  -22.9867  -16.0640   22.9499 C   0  0  0  0  0  0  0  0  0  0  0  0
  -22.1467  -27.5180   21.3857 C   0  0  0  0  0  0  0  0  0  0  0  0
  -22.0596  -24.9837   19.3628 C   0  0  0  0  0  0  0  0  0  0  0  0
  -23.7704  -22.8244   17.3485 C   0  0  0  0  0  0  0  0  0  0  0  0
  -29.6072  -17.8793   18.4139 C   0  0  0  0  0  0  0  0  0  0  0  0
  -17.5317  -26.9000   23.4778 C   0  0  0  0  0  0  0  0  0  0  0  0
  -23.4175  -28.4141   19.4012 C   0  0  0  0  0  0  0  0  0  0  0  0
  -24.3389  -25.7098   20.1645 C   0  0  0  0  0  0  0  0  0  0  0  0
  -18.7067  -25.9873   23.1364 C   0  0  0  0  0  0  0  0  0  0  0  0
  -26.3444  -17.8852   16.8483 C   0  0  0  0  0  0  0  0  0  0  0  0
  -20.0124  -26.5815   23.6550 C   0  0  0  0  0  0  0  0  0  0  0  0
  -25.4909  -17.2069   17.9214 C   0  0  0  0  0  0  0  0  0  0  0  0
  -27.7341  -17.2602   16.7705 C   0  0  0  0  0  0  0  0  0  0  0  0
  -27.6278  -16.5740   19.1351 C   0  0  0  0  0  0  0  0  0  0  0  0
  -20.3001  -27.9377   22.9996 C   0  0  1  0  0  0  0  0  0  0  0  0
  -22.4523  -27.3545   19.9236 C   0  0  1  0  0  0  0  0  0  0  0  0
  -26.2181  -17.1757   19.2788 C   0  0  2  0  0  0  0  0  0  0  0  0
  -23.4323  -20.8357   15.8558 C   0  0  0  0  0  0  0  0  0  0  0  0
  -33.0611  -25.2873   19.9841 C   0  0  0  0  0  0  0  0  0  0  0  0
  -21.7675  -23.1943   21.8170 C   0  0  0  0  0  0  0  0  0  0  0  0
  -22.3858  -21.2400   20.3794 C   0  0  0  0  0  0  0  0  0  0  0  0
  -20.3234  -22.5511   19.8792 C   0  0  0  0  0  0  0  0  0  0  0  0
  -24.7813  -24.2839   14.9806 C   0  0  0  0  0  0  0  0  0  0  0  0
  -31.5280  -19.1889   17.5462 C   0  0  0  0  0  0  0  0  0  0  0  0
  -30.8617  -26.4241   20.4487 C   0  0  0  0  0  0  0  0  0  0  0  0
  -29.3590  -26.2727   20.6628 C   0  0  0  0  0  0  0  0  0  1  0  0
  -22.5868  -23.5695   19.3974 C   0  0  1  0  0  0  0  0  0  0  0  0
  -23.5126  -22.3526   15.9288 C   0  0  2  0  0  0  0  0  0  0  0  0
  -31.5545  -25.0959   20.1281 C   0  0  1  0  0  0  0  0  0  0  0  0
  -21.7833  -22.6612   20.3704 C   0  0  0  0  0  0  0  0  0  0  0  0
  -25.5974  -15.1437   20.5310 N   0  0  0  0  0  0  0  0  0  0  0  0
  -31.8847  -21.0564   19.0291 N   0  0  0  0  0  0  0  0  0  0  0  0
  -31.7723  -22.3667   19.3760 N   0  0  0  0  0  0  0  0  0  0  0  0
  -25.4011  -16.4591   20.3379 N   0  0  0  0  0  0  0  0  0  0  0  0
  -22.9569  -25.9918   19.7426 N   0  0  0  0  0  0  0  0  0  0  0  0
  -28.3792  -17.2785   18.0910 N   0  0  0  0  0  0  0  0  0  0  0  0
  -30.1851  -21.0263   15.7608 N   0  0  0  0  0  0  0  0  0  0  0  0
  -24.1309  -18.3102   21.0934 N   0  0  0  0  0  0  0  0  0  0  0  0
  -22.6381  -14.9060   23.6582 N   0  0  0  0  0  0  0  0  0  0  0  0
  -31.0321  -24.5500   18.8928 N   0  0  0  0  0  0  0  0  0  0  0  0
  -20.8126  -27.7525   21.6589 N   0  0  0  0  0  0  0  0  0  0  0  0
  -22.5960  -23.1033   18.0151 N   0  0  0  0  0  0  0  0  0  0  0  0
  -30.2586  -18.5200   17.3670 N   0  0  0  0  0  0  0  0  0  0  0  0
  -24.6057  -22.8094   15.0247 N   0  3  0  0  0  0  0  0  0  0  0  0
  -22.3991  -17.1418   23.2081 O   0  0  0  0  0  0  0  0  0  0  0  0
  -23.0540  -27.4359   22.2054 O   0  0  0  0  0  0  0  0  0  0  0  0
  -20.8968  -25.1870   19.0048 O   0  0  0  0  0  0  0  0  0  0  0  0
  -24.9002  -22.9310   17.8202 O   0  0  0  0  0  0  0  0  0  0  0  0
  -30.0858  -17.8517   19.5529 O   0  0  0  0  0  0  0  0  0  0  0  0
  -24.3802   -9.6184   23.4531 O   0  0  0  0  0  0  0  0  0  0  0  0
  -28.8028  -27.5580   20.9366 O   0  0  0  0  0  0  0  0  0  1  0  0
  -19.3455   -7.5076   24.2280 F   0  0  0  0  0  0  0  0  0  0  0  0
  -23.5734   -7.3433   22.1058 F   0  0  0  0  0  0  0  0  0  0  0  0
  -29.9877  -23.6951   16.5240 F   0  0  0  0  0  0  0  0  0  0  0  0
  1  2  1  0  0  0  0
  1  5  2  0  0  0  0
  2  6  2  0  0  0  0
  3  8  2  0  0  0  0
  3 15  1  0  0  0  0
  4  9  1  0  0  0  0
  4 15  2  0  0  0  0
  5 17  1  0  0  0  0
  6 19  1  0  0  0  0
  7 10  2  0  0  0  0
  7 18  1  0  0  0  0
  8 22  1  0  0  0  0
  9 22  2  0  0  0  0
 10 23  1  0  0  0  0
 11 12  2  0  0  0  0
 11 24  1  0  0  0  0
 12 25  1  0  0  0  0
 13 20  1  0  0  0  0
 13 23  2  0  0  0  0
 14 25  2  0  0  0  0
 14 26  1  0  0  0  0
 15 28  1  0  0  0  0
 16 28  1  0  0  0  0
 16 31  2  0  0  0  0
 16 32  1  0  0  0  0
 17 19  2  0  0  0  0
 17 37  1  0  0  0  0
 18 20  2  0  0  0  0
 18 38  1  0  0  0  0
 19 46  1  0  0  0  0
 20 39  1  0  0  0  0
 21 27  1  0  0  0  0
 21 29  2  0  0  0  0
 21 68  1  0  0  0  0
 22 81  1  0  0  0  0
 23 82  1  0  0  0  0
 24 26  2  0  0  0  0
 24 81  1  0  0  0  0
 25 83  1  0  0  0  0
 26 84  1  0  0  0  0
 27 30  2  0  0  0  0
 27 85  1  0  0  0  0
 28 62  2  0  0  0  0
 29 55  1  0  0  0  0
 29 63  1  0  0  0  0
 30 64  1  0  0  0  0
 30 71  1  0  0  0  0
 31 65  1  0  0  0  0
 31 69  1  0  0  0  0
 32 70  1  0  0  0  0
 32 76  2  0  0  0  0
 33 47  1  0  0  0  0
 33 72  1  0  0  0  0
 33 77  2  0  0  0  0
 34 58  1  0  0  0  0
 34 66  1  0  0  0  0
 34 78  2  0  0  0  0
 35 59  1  0  0  0  0
 35 73  1  0  0  0  0
 35 79  2  0  0  0  0
 36 67  1  0  0  0  0
 36 74  1  0  0  0  0
 36 80  2  0  0  0  0
 37 40  1  0  0  0  0
 38 47  1  0  0  0  0
 39 66  1  0  0  0  0
 40 42  1  0  0  0  0
 41 43  1  0  0  0  0
 41 44  1  0  0  0  0
 42 46  1  0  0  0  0
 43 48  1  0  0  0  0
 44 67  1  0  0  0  0
 45 48  1  0  0  0  0
 45 67  1  0  0  0  0
 46 72  1  0  0  0  0
 47 66  1  0  0  0  0
 48 65  1  0  0  0  0
 49 59  1  0  0  0  0
 50 60  1  0  0  0  0
 51 61  1  0  0  0  0
 52 61  1  0  0  0  0
 53 61  1  0  0  0  0
 54 75  1  0  0  0  0
 55 74  1  0  0  0  0
 56 57  1  0  0  0  0
 56 60  1  0  0  0  0
 57 82  1  0  0  0  0
 58 61  1  0  0  0  0
 58 73  1  0  0  0  0
 59 75  1  0  0  0  0
 60 71  1  0  0  0  0
 62 65  1  0  0  0  0
 63 64  2  0  0  0  0
M  CHG  1  75   1
M  ISO  4  36 100  57 101  74 100  82 101
M  END
> <Batch ID>
0193

> <Smiles>
CNC(C)C(=O)NC(C(=O)N1Cc2cc([101O:1][101CH2:1]CC(C)Nc3nnc(C[100NH:0][100C:0](=O)N4CCCC(n5nc(-c6ccc(Oc7ccc(F)cc7F)cc6)c(C(N)=O)c5N)C4)c(N)c3F)ccc2CC1C(=O)NC1CCCc2ccccc21)C(C)(C)C

> <Shape>
0.207

> <Color>
0.074

> <Negative vol penalty>
0.000

$$$$

  -OEChem-04052305303D

 85 93  0     1  0  0  0  0  0999 V2000
  -31.5969  -29.9878   16.3382 C   0  0  0  0  0  0  0  0  0  0  0  0
  -30.2978  -29.5296   16.1438 C   0  0  0  0  0  0  0  0  0  0  0  0
  -23.8780   -9.6052   22.0856 C   0  0  0  0  0  0  0  0  0  0  0  0
  -22.2439  -10.1677   20.3973 C   0  0  0  0  0  0  0  0  0  0  0  0
  -32.0803  -30.1812   17.6316 C   0  0  0  0  0  0  0  0  0  0  0  0
  -29.4817  -29.2635   17.2427 C   0  0  0  0  0  0  0  0  0  0  0  0
  -22.6187  -29.4865   19.2840 C   0  0  0  0  0  0  0  0  0  0  0  0
  -23.4717   -8.2718   22.0346 C   0  0  0  0  0  0  0  0  0  0  0  0
  -21.8376   -8.8343   20.3463 C   0  0  0  0  0  0  0  0  0  0  0  0
  -21.6383  -28.6769   19.8560 C   0  0  0  0  0  0  0  0  0  0  0  0
  -20.9279   -6.3961   23.2327 C   0  0  0  0  0  0  0  0  0  0  0  0
  -20.7382   -5.7304   24.4437 C   0  0  0  0  0  0  0  0  0  0  0  0
  -22.5540  -29.1233   22.0426 C   0  0  0  0  0  0  0  0  0  0  0  0
  -22.4272   -4.1185   23.8222 C   0  0  0  0  0  0  0  0  0  0  0  0
  -23.2641  -10.5532   21.2669 C   0  0  0  0  0  0  0  0  0  0  0  0
  -24.6895  -12.5432   20.5490 C   0  0  0  0  0  0  0  0  0  0  0  0
  -31.2665  -29.9266   18.7467 C   0  0  0  0  0  0  0  0  0  0  0  0
  -23.5824  -30.1129   20.0874 C   0  0  0  0  0  0  0  0  0  0  0  0
  -29.9551  -29.4524   18.5522 C   0  0  0  0  0  0  0  0  0  0  0  0
  -23.5440  -29.9424   21.4786 C   0  0  0  0  0  0  0  0  0  0  0  0
  -22.4515   -7.8864   21.1650 C   0  0  0  0  0  0  0  0  0  0  0  0
  -21.6076  -28.4929   21.2352 C   0  0  0  0  0  0  0  0  0  0  0  0
  -21.8672   -5.9229   22.3163 C   0  0  0  0  0  0  0  0  0  0  0  0
  -21.4879   -4.5917   24.7384 C   0  0  0  0  0  0  0  0  0  0  0  0
  -22.6168   -4.7841   22.6111 C   0  0  0  0  0  0  0  0  0  0  0  0
  -23.6830  -11.9308   21.3195 C   0  0  0  0  0  0  0  0  0  0  0  0
  -19.4454  -19.1515   21.0235 C   0  0  0  0  0  0  0  0  0  0  0  0
  -19.9216  -19.0690   19.7318 C   0  0  0  0  0  0  0  0  0  0  0  0
  -24.6997  -13.8495   20.9733 C   0  0  0  0  0  0  0  0  0  0  0  0
  -20.0496  -21.2433   20.7607 C   0  0  0  0  0  0  0  0  0  0  0  0
  -25.5393  -11.9816   19.5400 C   0  0  0  0  0  0  0  0  0  0  0  0
  -26.7496  -29.9691   20.3158 C   0  0  0  0  0  0  0  0  0  0  0  0
  -26.3187  -32.4013   22.4184 C   0  0  0  0  0  0  0  0  0  0  0  0
  -20.0522  -23.3807   22.0933 C   0  0  0  0  0  0  0  0  0  0  0  0
  -24.2431  -34.0193   24.5911 C   0  0  0  0  0  0  0  0  0  0  0  0
  -20.5513  -17.3463   23.5060 C   0  0  0  0  0  0  0  0  0  0  0  0
  -31.8489  -30.1054   20.1264 C   0  0  0  0  0  0  0  0  0  0  0  0
  -24.6171  -31.0045   19.4575 C   0  0  0  0  0  0  0  0  0  0  0  0
  -24.5435  -30.6088   22.3871 C   0  0  0  0  0  0  0  0  0  0  0  0
  -30.7956  -30.1576   21.2301 C   0  0  0  0  0  0  0  0  0  0  0  0
  -23.7653  -16.5468   24.8129 C   0  0  0  0  0  0  0  0  0  0  0  0
  -29.7780  -29.0355   21.0503 C   0  0  0  0  0  0  0  0  0  0  0  0
  -24.1995  -15.3284   23.9962 C   0  0  0  0  0  0  0  0  0  0  0  0
  -22.2651  -16.5299   25.0976 C   0  0  0  0  0  0  0  0  0  0  0  0
  -21.8441  -15.1667   23.0881 C   0  0  0  0  0  0  0  0  0  0  0  0
  -29.0311  -29.1763   19.7184 C   0  0  1  0  0  0  0  0  0  0  0  0
  -25.8609  -31.1806   20.3232 C   0  0  1  0  0  0  0  0  0  0  0  0
  -23.3397  -15.1680   22.7281 C   0  0  2  0  0  0  0  0  0  0  0  0
  -19.9960  -17.9123   18.8172 C   0  0  0  0  0  0  0  0  0  0  0  0
  -24.1854  -35.9517   26.1912 C   0  0  0  0  0  0  0  0  0  0  0  0
  -27.9253  -30.7737   24.4382 C   0  0  0  0  0  0  0  0  0  0  0  0
  -27.0398  -32.2677   26.2416 C   0  0  0  0  0  0  0  0  0  0  0  0
  -28.4490  -33.2191   24.4162 C   0  0  0  0  0  0  0  0  0  0  0  0
  -22.0874  -35.3628   23.0722 C   0  0  0  0  0  0  0  0  0  0  0  0
  -18.8752  -18.0406   21.8126 C   0  0  0  0  0  0  0  0  0  0  0  0
  -20.4860  -24.8274   21.8780 C   0  0  0  0  0  0  0  0  0  0  0  0
  -20.9972  -27.0230   23.0024 C   0  0  0  0  0  0  0  0  0  1  0  0
  -26.0798  -32.4991   23.9058 C   0  0  1  0  0  0  0  0  0  0  0  0
  -23.9182  -35.4918   24.7664 C   0  0  2  0  0  0  0  0  0  0  0  0
  -20.2007  -25.7242   23.0821 C   0  0  1  0  0  0  0  0  0  0  0  0
  -27.3557  -32.1756   24.7334 C   0  0  0  0  0  0  0  0  0  0  0  0
  -23.0964  -12.7783   22.1690 N   0  0  0  0  0  0  0  0  0  0  0  0
  -19.5184  -20.3974   21.6152 N   0  0  0  0  0  0  0  0  0  0  0  0
  -23.7364  -13.9366   21.9349 N   0  0  0  0  0  0  0  0  0  0  0  0
  -25.5394  -31.4659   21.7230 N   0  0  0  0  0  0  0  0  0  0  0  0
  -21.5067  -16.3770   23.8536 N   0  0  0  0  0  0  0  0  0  0  0  0
  -25.4386  -14.9206   20.6140 N   0  0  0  0  0  0  0  0  0  0  0  0
  -25.3965  -10.6230   19.2266 N   0  0  0  0  0  0  0  0  0  0  0  0
  -20.3067  -22.6214   20.9542 N   0  0  0  0  0  0  0  0  0  0  0  0
  -28.0158  -30.2031   19.8144 N   0  0  0  0  0  0  0  0  0  0  0  0
  -25.5341  -33.8307   24.1449 N   0  0  0  0  0  0  0  0  0  0  0  0
  -19.8819  -17.1285   22.3080 N   0  0  0  0  0  0  0  0  0  0  0  0
  -22.4841  -35.7469   24.4513 N   0  3  0  0  0  0  0  0  0  0  0  0
  -26.4110  -12.6604   18.9459 O   0  0  0  0  0  0  0  0  0  0  0  0
  -26.3189  -28.9013   20.7355 O   0  0  0  0  0  0  0  0  0  0  0  0
  -27.1605  -33.1332   21.8917 O   0  0  0  0  0  0  0  0  0  0  0  0
  -19.5557  -22.9973   23.1472 O   0  0  0  0  0  0  0  0  0  0  0  0
  -23.4339  -33.1256   24.8300 O   0  0  0  0  0  0  0  0  0  0  0  0
  -20.3163  -18.3353   24.2085 O   0  0  0  0  0  0  0  0  0  0  0  0
  -18.8083  -26.0459   23.0791 O   0  0  0  0  0  0  0  0  0  0  0  0
  -22.0549   -6.5853   21.1148 O   0  0  0  0  0  0  0  0  0  0  0  0
  -20.6521  -27.7027   21.7960 O   0  0  0  0  0  0  0  0  0  1  0  0
  -21.3067   -3.9534   25.9021 F   0  0  0  0  0  0  0  0  0  0  0  0
  -23.5215   -4.3255   21.7353 F   0  0  0  0  0  0  0  0  0  0  0  0
  -20.4843  -20.6084   19.2267 S   0  0  0  0  0  0  0  0  0  0  0  0
  1  2  1  0  0  0  0
  1  5  2  0  0  0  0
  2  6  2  0  0  0  0
  3  8  2  0  0  0  0
  3 15  1  0  0  0  0
  4  9  1  0  0  0  0
  4 15  2  0  0  0  0
  5 17  1  0  0  0  0
  6 19  1  0  0  0  0
  7 10  2  0  0  0  0
  7 18  1  0  0  0  0
  8 21  1  0  0  0  0
  9 21  2  0  0  0  0
 10 22  1  0  0  0  0
 11 12  2  0  0  0  0
 11 23  1  0  0  0  0
 12 24  1  0  0  0  0
 13 20  1  0  0  0  0
 13 22  2  0  0  0  0
 14 24  2  0  0  0  0
 14 25  1  0  0  0  0
 15 26  1  0  0  0  0
 16 26  1  0  0  0  0
 16 29  2  0  0  0  0
 16 31  1  0  0  0  0
 17 19  2  0  0  0  0
 17 37  1  0  0  0  0
 18 20  2  0  0  0  0
 18 38  1  0  0  0  0
 19 46  1  0  0  0  0
 20 39  1  0  0  0  0
 21 81  1  0  0  0  0
 22 82  1  0  0  0  0
 23 25  2  0  0  0  0
 23 81  1  0  0  0  0
 24 83  1  0  0  0  0
 25 84  1  0  0  0  0
 26 62  2  0  0  0  0
 27 28  2  0  0  0  0
 27 55  1  0  0  0  0
 27 63  1  0  0  0  0
 28 49  1  0  0  0  0
 28 85  1  0  0  0  0
 29 64  1  0  0  0  0
 29 67  1  0  0  0  0
 30 63  2  0  0  0  0
 30 69  1  0  0  0  0
 30 85  1  0  0  0  0
 31 68  1  0  0  0  0
 31 74  2  0  0  0  0
 32 47  1  0  0  0  0
 32 70  1  0  0  0  0
 32 75  2  0  0  0  0
 33 58  1  0  0  0  0
 33 65  1  0  0  0  0
 33 76  2  0  0  0  0
 34 56  1  0  0  0  0
 34 69  1  0  0  0  0
 34 77  2  0  0  0  0
 35 59  1  0  0  0  0
 35 71  1  0  0  0  0
 35 78  2  0  0  0  0
 36 66  1  0  0  0  0
 36 72  1  0  0  0  0
 36 79  2  0  0  0  0
 37 40  1  0  0  0  0
 38 47  1  0  0  0  0
 39 65  1  0  0  0  0
 40 42  1  0  0  0  0
 41 43  1  0  0  0  0
 41 44  1  0  0  0  0
 42 46  1  0  0  0  0
 43 48  1  0  0  0  0
 44 66  1  0  0  0  0
 45 48  1  0  0  0  0
 45 66  1  0  0  0  0
 46 70  1  0  0  0  0
 47 65  1  0  0  0  0
 48 64  1  0  0  0  0
 50 59  1  0  0  0  0
 51 61  1  0  0  0  0
 52 61  1  0  0  0  0
 53 61  1  0  0  0  0
 54 73  1  0  0  0  0
 55 72  1  0  0  0  0
 56 60  1  0  0  0  0
 57 60  1  0  0  0  0
 57 82  1  0  0  0  0
 58 61  1  0  0  0  0
 58 71  1  0  0  0  0
 59 73  1  0  0  0  0
 60 80  1  0  0  0  0
 62 64  1  0  0  0  0
M  CHG  1  73   1
M  ISO  4  36 100  57 101  72 100  82 101
M  END
> <Batch ID>
0193

> <Smiles>
CNC(C)C(=O)NC(C(=O)N1Cc2cc([101O:1][101CH2:1]C(O)CC(=O)Nc3nc(C[100NH:0][100C:0](=O)N4CCCC(n5nc(-c6ccc(Oc7ccc(F)cc7F)cc6)c(C(N)=O)c5N)C4)c(C)s3)ccc2CC1C(=O)NC1CCCc2ccccc21)C(C)(C)C

> <Shape>
0.267

> <Color>
0.123

> <Negative vol penalty>
0.000

$$$$

  -OEChem-04052305303D

 85 93  0     1  0  0  0  0  0999 V2000
  -28.1764  -36.8747   18.2697 C   0  0  0  0  0  0  0  0  0  0  0  0
  -28.5719  -35.5411   18.2915 C   0  0  0  0  0  0  0  0  0  0  0  0
  -22.2122  -10.7720   21.3958 C   0  0  0  0  0  0  0  0  0  0  0  0
  -24.5828  -10.9877   21.8095 C   0  0  0  0  0  0  0  0  0  0  0  0
  -27.3117  -37.3603   19.2498 C   0  0  0  0  0  0  0  0  0  0  0  0
  -28.1038  -34.6925   19.2940 C   0  0  0  0  0  0  0  0  0  0  0  0
  -26.7966  -28.7333   18.7599 C   0  0  0  0  0  0  0  0  0  0  0  0
  -22.3289   -9.3832   21.4511 C   0  0  0  0  0  0  0  0  0  0  0  0
  -24.6995   -9.5988   21.8648 C   0  0  0  0  0  0  0  0  0  0  0  0
  -27.5170  -27.5828   19.0779 C   0  0  0  0  0  0  0  0  0  0  0  0
  -22.5867   -6.9979   23.8337 C   0  0  0  0  0  0  0  0  0  0  0  0
  -21.6333   -6.2961   24.5713 C   0  0  0  0  0  0  0  0  0  0  0  0
  -26.3709  -27.4581   21.1969 C   0  0  0  0  0  0  0  0  0  0  0  0
  -20.9849   -5.0870   22.5827 C   0  0  0  0  0  0  0  0  0  0  0  0
  -23.3392  -11.5743   21.5750 C   0  0  0  0  0  0  0  0  0  0  0  0
  -22.9531  -13.8834   22.5881 C   0  0  0  0  0  0  0  0  0  0  0  0
  -26.8252  -36.5148   20.2593 C   0  0  0  0  0  0  0  0  0  0  0  0
  -25.8642  -29.2619   19.6642 C   0  0  0  0  0  0  0  0  0  0  0  0
  -27.2329  -35.1675   20.2893 C   0  0  0  0  0  0  0  0  0  0  0  0
  -25.6381  -28.6140   20.8869 C   0  0  0  0  0  0  0  0  0  0  0  0
  -23.5725   -8.7965   21.6856 C   0  0  0  0  0  0  0  0  0  0  0  0
  -27.3064  -26.9467   20.2978 C   0  0  0  0  0  0  0  0  0  0  0  0
  -22.7392   -6.7443   22.4705 C   0  0  0  0  0  0  0  0  0  0  0  0
  -20.8324   -5.3406   23.9458 C   0  0  0  0  0  0  0  0  0  0  0  0
  -21.9383   -5.7888   21.8451 C   0  0  0  0  0  0  0  0  0  0  0  0
  -23.2193  -13.0090   21.5175 C   0  0  0  0  0  0  0  0  0  0  0  0
  -28.4255  -19.1608   19.5469 C   0  0  0  0  0  0  0  0  0  0  0  0
  -28.0978  -18.9693   18.2210 C   0  0  0  0  0  0  0  0  0  0  0  0
  -22.9401  -15.1322   22.0164 C   0  0  0  0  0  0  0  0  0  0  0  0
  -28.2717  -21.2623   18.9384 C   0  0  0  0  0  0  0  0  0  0  0  0
  -22.7370  -13.5929   23.9754 C   0  0  0  0  0  0  0  0  0  0  0  0
  -25.5791  -32.0046   21.2453 C   0  0  0  0  0  0  0  0  0  0  0  0
  -22.7169  -30.7531   22.1195 C   0  0  0  0  0  0  0  0  0  0  0  0
  -28.5250  -23.5412   19.9760 C   0  0  0  0  0  0  0  0  0  0  0  0
  -20.7964  -27.9738   22.6033 C   0  0  0  0  0  0  0  0  0  0  0  0
  -25.4813  -17.3859   17.0855 C   0  0  0  0  0  0  0  0  0  0  0  0
  -25.9299  -37.0966   21.3246 C   0  0  0  0  0  0  0  0  0  0  0  0
  -25.0759  -30.4885   19.2949 C   0  0  0  0  0  0  0  0  0  0  0  0
  -24.6338  -29.1297   21.8838 C   0  0  0  0  0  0  0  0  0  0  0  0
  -25.1826  -36.0410   22.1354 C   0  0  0  0  0  0  0  0  0  0  0  0
  -22.0105  -17.3465   17.8784 C   0  0  0  0  0  0  0  0  0  0  0  0
  -26.1318  -34.9265   22.5642 C   0  0  0  0  0  0  0  0  0  0  0  0
  -21.9027  -16.3093   18.9975 C   0  0  0  0  0  0  0  0  0  0  0  0
  -23.0556  -16.9483   16.8386 C   0  0  0  0  0  0  0  0  0  0  0  0
  -24.2841  -15.6122   18.5058 C   0  0  0  0  0  0  0  0  0  0  0  0
  -26.7271  -34.2098   21.3462 C   0  0  1  0  0  0  0  0  0  0  0  0
  -24.5232  -31.2311   20.5075 C   0  0  1  0  0  0  0  0  0  0  0  0
  -23.2824  -15.9975   19.6078 C   0  0  2  0  0  0  0  0  0  0  0  0
  -18.5103  -27.2661   23.3584 C   0  0  0  0  0  0  0  0  0  0  0  0
  -23.5157  -31.2740   25.0179 C   0  0  0  0  0  0  0  0  0  0  0  0
  -21.6832  -29.7231   25.7285 C   0  0  0  0  0  0  0  0  0  0  0  0
  -21.1332  -31.8113   24.4797 C   0  0  0  0  0  0  0  0  0  0  0  0
  -20.1890  -26.7334   19.9858 C   0  0  0  0  0  0  0  0  0  0  0  0
  -27.9123  -17.7191   17.4579 C   0  0  0  0  0  0  0  0  0  0  0  0
  -28.4112  -24.9864   19.5279 C   0  0  0  0  0  0  0  0  0  1  0  0
  -22.2308  -29.8891   23.2580 C   0  0  1  0  0  0  0  0  0  0  0  0
  -19.3809  -27.6394   22.1687 C   0  0  2  0  0  0  0  0  0  0  0  0
  -28.6738  -18.0991   20.5434 C   0  0  0  0  0  0  0  0  0  0  0  0
  -22.1611  -30.6655   24.6033 C   0  0  0  0  0  0  0  0  0  0  0  0
  -23.3648  -13.6481   20.3537 N   0  0  0  0  0  0  0  0  0  0  0  0
  -28.5261  -20.4750   19.9600 N   0  0  0  0  0  0  0  0  0  0  0  0
  -23.1893  -14.9374   20.6897 N   0  0  0  0  0  0  0  0  0  0  0  0
  -23.8924  -30.3356   21.4794 N   0  0  0  0  0  0  0  0  0  0  0  0
  -24.3413  -16.6676   17.4822 N   0  0  0  0  0  0  0  0  0  0  0  0
  -22.7399  -16.3669   22.5242 N   0  0  0  0  0  0  0  0  0  0  0  0
  -22.7849  -12.2560   24.3934 N   0  0  0  0  0  0  0  0  0  0  0  0
  -28.2643  -22.6772   18.9178 N   0  0  0  0  0  0  0  0  0  0  0  0
  -25.7626  -33.2922   20.7785 N   0  0  0  0  0  0  0  0  0  0  0  0
  -20.9563  -29.3250   22.8270 N   0  0  0  0  0  0  0  0  0  0  0  0
  -26.6577  -17.0624   17.7505 N   0  0  0  0  0  0  0  0  0  0  0  0
  -19.3888  -26.4947   21.2145 N   0  3  0  0  0  0  0  0  0  0  0  0
  -22.4919  -14.4906   24.8165 O   0  0  0  0  0  0  0  0  0  0  0  0
  -26.1815  -31.4732   22.1707 O   0  0  0  0  0  0  0  0  0  0  0  0
  -22.0734  -31.7573   21.8049 O   0  0  0  0  0  0  0  0  0  0  0  0
  -28.8118  -23.2475   21.1319 O   0  0  0  0  0  0  0  0  0  0  0  0
  -21.6717  -27.1211   22.7351 O   0  0  0  0  0  0  0  0  0  0  0  0
  -25.4519  -18.2551   16.2076 O   0  0  0  0  0  0  0  0  0  0  0  0
  -23.6867   -7.4413   21.7398 O   0  0  0  0  0  0  0  0  0  0  0  0
  -28.0087  -25.8239   20.6109 O   0  0  0  0  0  0  0  0  0  1  0  0
  -19.9180   -4.6656   24.6546 F   0  0  0  0  0  0  0  0  0  0  0  0
  -22.0810   -5.5400   20.5360 F   0  0  0  0  0  0  0  0  0  0  0  0
  -29.5626  -18.4514   21.5289 F   0  0  0  0  0  0  0  0  0  0  0  0
  -29.1949  -16.9441   20.0147 F   0  0  0  0  0  0  0  0  0  0  0  0
  -27.9034  -20.4895   17.4511 S   0  0  0  0  0  0  0  0  0  0  0  0
  -26.9734  -17.6379   21.4153 Br  0  0  0  0  0  0  0  0  0  0  0  0
  1  2  1  0  0  0  0
  1  5  2  0  0  0  0
  2  6  2  0  0  0  0
  3  8  2  0  0  0  0
  3 15  1  0  0  0  0
  4  9  1  0  0  0  0
  4 15  2  0  0  0  0
  5 17  1  0  0  0  0
  6 19  1  0  0  0  0
  7 10  2  0  0  0  0
  7 18  1  0  0  0  0
  8 21  1  0  0  0  0
  9 21  2  0  0  0  0
 10 22  1  0  0  0  0
 11 12  2  0  0  0  0
 11 23  1  0  0  0  0
 12 24  1  0  0  0  0
 13 20  1  0  0  0  0
 13 22  2  0  0  0  0
 14 24  2  0  0  0  0
 14 25  1  0  0  0  0
 15 26  1  0  0  0  0
 16 26  1  0  0  0  0
 16 29  2  0  0  0  0
 16 31  1  0  0  0  0
 17 19  2  0  0  0  0
 17 37  1  0  0  0  0
 18 20  2  0  0  0  0
 18 38  1  0  0  0  0
 19 46  1  0  0  0  0
 20 39  1  0  0  0  0
 21 78  1  0  0  0  0
 22 79  1  0  0  0  0
 23 25  2  0  0  0  0
 23 78  1  0  0  0  0
 24 80  1  0  0  0  0
 25 81  1  0  0  0  0
 26 60  2  0  0  0  0
 27 28  2  0  0  0  0
 27 58  1  0  0  0  0
 27 61  1  0  0  0  0
 28 54  1  0  0  0  0
 28 84  1  0  0  0  0
 29 62  1  0  0  0  0
 29 65  1  0  0  0  0
 30 61  2  0  0  0  0
 30 67  1  0  0  0  0
 30 84  1  0  0  0  0
 31 66  1  0  0  0  0
 31 72  2  0  0  0  0
 32 47  1  0  0  0  0
 32 68  1  0  0  0  0
 32 73  2  0  0  0  0
 33 56  1  0  0  0  0
 33 63  1  0  0  0  0
 33 74  2  0  0  0  0
 34 55  1  0  0  0  0
 34 67  1  0  0  0  0
 34 75  2  0  0  0  0
 35 57  1  0  0  0  0
 35 69  1  0  0  0  0
 35 76  2  0  0  0  0
 36 64  1  0  0  0  0
 36 70  1  0  0  0  0
 36 77  2  0  0  0  0
 37 40  1  0  0  0  0
 38 47  1  0  0  0  0
 39 63  1  0  0  0  0
 40 42  1  0  0  0  0
 41 43  1  0  0  0  0
 41 44  1  0  0  0  0
 42 46  1  0  0  0  0
 43 48  1  0  0  0  0
 44 64  1  0  0  0  0
 45 48  1  0  0  0  0
 45 64  1  0  0  0  0
 46 68  1  0  0  0  0
 47 63  1  0  0  0  0
 48 62  1  0  0  0  0
 49 57  1  0  0  0  0
 50 59  1  0  0  0  0
 51 59  1  0  0  0  0
 52 59  1  0  0  0  0
 53 71  1  0  0  0  0
 54 70  1  0  0  0  0
 55 79  1  0  0  0  0
 56 59  1  0  0  0  0
 56 69  1  0  0  0  0
 57 71  1  0  0  0  0
 58 82  1  0  0  0  0
 58 83  1  0  0  0  0
 58 85  1  0  0  0  0
 60 62  1  0  0  0  0
M  CHG  1  71   1
M  ISO  4  36 100  55 101  70 100  79 101
M  END
> <Batch ID>
0193

> <Smiles>
CNC(C)C(=O)NC(C(=O)N1Cc2cc([101O:1][101CH2:1]C(=O)Nc3nc(C(F)(F)Br)c(C[100NH:0][100C:0](=O)N4CCCC(n5nc(-c6ccc(Oc7ccc(F)cc7F)cc6)c(C(N)=O)c5N)C4)s3)ccc2CC1C(=O)NC1CCCc2ccccc21)C(C)(C)C

> <Shape>
0.282

> <Color>
0.070

> <Negative vol penalty>
0.000

$$$$

  -OEChem-04052305303D

 84 92  0     1  0  0  0  0  0999 V2000
  -29.1346  -33.5714   24.4395 C   0  0  0  0  0  0  0  0  0  0  0  0
  -29.2445  -32.2034   24.2116 C   0  0  0  0  0  0  0  0  0  0  0  0
  -26.9577  -12.9588   21.0118 C   0  0  0  0  0  0  0  0  0  0  0  0
  -26.8835  -13.2782   18.6181 C   0  0  0  0  0  0  0  0  0  0  0  0
  -27.8784  -34.1762   24.4515 C   0  0  0  0  0  0  0  0  0  0  0  0
  -28.0981  -31.4392   23.9966 C   0  0  0  0  0  0  0  0  0  0  0  0
  -28.6128  -28.2099   20.1299 C   0  0  0  0  0  0  0  0  0  0  0  0
  -26.3310  -11.7212   20.8660 C   0  0  0  0  0  0  0  0  0  0  0  0
  -26.2569  -12.0406   18.4724 C   0  0  0  0  0  0  0  0  0  0  0  0
  -29.3375  -27.0427   20.3672 C   0  0  0  0  0  0  0  0  0  0  0  0
  -23.1974  -10.5610   20.3575 C   0  0  0  0  0  0  0  0  0  0  0  0
  -22.1526  -10.2577   21.2305 C   0  0  0  0  0  0  0  0  0  0  0  0
  -27.2737  -25.8217   20.6297 C   0  0  0  0  0  0  0  0  0  0  0  0
  -23.3785   -8.3352   22.0295 C   0  0  0  0  0  0  0  0  0  0  0  0
  -27.9990  -23.7403   14.7875 C   0  0  0  0  0  0  0  0  0  0  0  0
  -27.2339  -13.7374   19.8878 C   0  0  0  0  0  0  0  0  0  0  0  0
  -29.2644  -15.2751   20.0292 C   0  0  0  0  0  0  0  0  0  0  0  0
  -26.7167  -33.4207   24.2270 C   0  0  0  0  0  0  0  0  0  0  0  0
  -27.2107  -28.1939   20.1515 C   0  0  0  0  0  0  0  0  0  0  0  0
  -26.8251  -32.0343   24.0070 C   0  0  0  0  0  0  0  0  0  0  0  0
  -26.5334  -26.9895   20.3898 C   0  0  0  0  0  0  0  0  0  0  0  0
  -25.9806  -11.2621   19.5964 C   0  0  0  0  0  0  0  0  0  0  0  0
  -28.6680  -25.8490   20.6201 C   0  0  0  0  0  0  0  0  0  0  0  0
  -24.3327   -9.7514   20.3205 C   0  0  0  0  0  0  0  0  0  0  0  0
  -22.2432   -9.1448   22.0665 C   0  0  0  0  0  0  0  0  0  0  0  0
  -24.4232   -8.6385   21.1564 C   0  0  0  0  0  0  0  0  0  0  0  0
  -26.8329  -23.0470   15.0401 C   0  0  0  0  0  0  0  0  0  0  0  0
  -27.8807  -15.0162   20.0377 C   0  0  0  0  0  0  0  0  0  0  0  0
  -26.7765  -22.3967   16.2559 C   0  0  0  0  0  0  0  0  0  0  0  0
  -29.3605  -16.6337   20.2067 C   0  0  0  0  0  0  0  0  0  0  0  0
  -28.8597  -23.1258   16.7996 C   0  0  0  0  0  0  0  0  0  0  0  0
  -30.3645  -14.3687   19.8746 C   0  0  0  0  0  0  0  0  0  0  0  0
  -24.9782  -29.6145   21.9126 C   0  0  0  0  0  0  0  0  0  0  0  0
  -22.9658  -28.2262   19.7806 C   0  0  0  0  0  0  0  0  0  0  0  0
  -22.4179  -25.7381   17.5098 C   0  0  0  0  0  0  0  0  0  0  0  0
  -25.6244  -21.1700   19.0603 C   0  0  0  0  0  0  0  0  0  0  0  0
  -25.3774  -34.1106   24.2964 C   0  0  0  0  0  0  0  0  0  0  0  0
  -26.4434  -29.4559   19.8671 C   0  0  0  0  0  0  0  0  0  0  0  0
  -25.0292  -26.9149   20.4039 C   0  0  0  0  0  0  0  0  0  0  0  0
  -24.2397  -33.2947   23.6880 C   0  0  0  0  0  0  0  0  0  0  0  0
  -27.0590  -20.3209   22.2063 C   0  0  0  0  0  0  0  0  0  0  0  0
  -24.2985  -31.8505   24.1754 C   0  0  0  0  0  0  0  0  0  0  0  0
  -27.5571  -18.8884   22.0065 C   0  0  0  0  0  0  0  0  0  0  0  0
  -25.7501  -20.5724   21.4610 C   0  0  0  0  0  0  0  0  0  0  0  0
  -26.2797  -18.8072   19.8247 C   0  0  0  0  0  0  0  0  0  0  0  0
  -25.6066  -31.1759   23.7451 C   0  0  1  0  0  0  0  0  0  0  0  0
  -25.0226  -29.4293   20.4222 C   0  0  1  0  0  0  0  0  0  0  0  0
  -27.6262  -18.5222   20.5117 C   0  0  2  0  0  0  0  0  0  0  0  0
  -20.6637  -24.8406   15.9559 C   0  0  0  0  0  0  0  0  0  0  0  0
  -30.1510  -21.0121   18.7779 C   0  0  0  0  0  0  0  0  0  0  0  0
  -21.4817  -27.0186   22.1574 C   0  0  0  0  0  0  0  0  0  0  0  0
  -20.3832  -25.4228   20.5716 C   0  0  0  0  0  0  0  0  0  0  0  0
  -20.0039  -27.8766   20.3313 C   0  0  0  0  0  0  0  0  0  0  0  0
  -24.1281  -26.1828   15.1357 C   0  0  0  0  0  0  0  0  0  0  0  0
  -25.5562  -21.6198   16.6206 C   0  0  0  0  0  0  0  0  0  0  0  0
  -30.9158  -23.1188   19.9277 C   0  0  0  0  0  0  0  0  0  0  0  0
  -30.6465  -24.5916   20.2196 C   0  0  0  0  0  0  0  0  0  1  0  0
  -22.2478  -26.9010   19.6946 C   0  0  1  0  0  0  0  0  0  0  0  0
  -21.8609  -25.7677   16.0980 C   0  0  2  0  0  0  0  0  0  0  0  0
  -29.8758  -22.4974   18.9901 C   0  0  1  0  0  0  0  0  0  0  0  0
  -21.0575  -26.8062   20.6904 C   0  0  0  0  0  0  0  0  0  0  0  0
  -29.0363  -23.8011   15.6480 N   0  0  0  0  0  0  0  0  0  0  0  0
  -27.1503  -16.1215   20.2073 N   0  0  0  0  0  0  0  0  0  0  0  0
  -27.7752  -22.4148   17.1629 N   0  0  0  0  0  0  0  0  0  0  0  0
  -28.0785  -17.0881   20.3071 N   0  0  0  0  0  0  0  0  0  0  0  0
  -24.3237  -28.1770   20.1264 N   0  0  0  0  0  0  0  0  0  0  0  0
  -25.8832  -20.2063   20.0489 N   0  0  0  0  0  0  0  0  0  0  0  0
  -30.4158  -17.4720   20.2851 N   0  0  0  0  0  0  0  0  0  0  0  0
  -30.0878  -13.0056   19.7021 N   0  0  0  0  0  0  0  0  0  0  0  0
  -29.9038  -23.1665   17.7062 N   0  0  0  0  0  0  0  0  0  0  0  0
  -25.5445  -30.7966   22.3498 N   0  0  0  0  0  0  0  0  0  0  0  0
  -21.8713  -26.7308   18.2954 N   0  0  0  0  0  0  0  0  0  0  0  0
  -25.7802  -20.7420   17.7476 N   0  0  0  0  0  0  0  0  0  0  0  0
  -22.9029  -25.3428   15.1210 N   0  3  0  0  0  0  0  0  0  0  0  0
  -31.5579  -14.7538   19.9055 O   0  0  0  0  0  0  0  0  0  0  0  0
  -24.4665  -28.7495   22.6139 O   0  0  0  0  0  0  0  0  0  0  0  0
  -22.3466  -29.2661   19.5424 O   0  0  0  0  0  0  0  0  0  0  0  0
  -23.2516  -24.9144   17.8799 O   0  0  0  0  0  0  0  0  0  0  0  0
  -25.2851  -22.3277   19.3279 O   0  0  0  0  0  0  0  0  0  0  0  0
  -25.3694  -10.0544   19.4538 O   0  0  0  0  0  0  0  0  0  0  0  0
  -29.3730  -24.7085   20.8527 O   0  0  0  0  0  0  0  0  0  1  0  0
  -21.2405   -8.8545   22.9059 F   0  0  0  0  0  0  0  0  0  0  0  0
  -25.5119   -7.8577   21.1262 F   0  0  0  0  0  0  0  0  0  0  0  0
  -25.8292  -23.0137   14.1579 F   0  0  0  0  0  0  0  0  0  0  0  0
  1  2  1  0  0  0  0
  1  5  2  0  0  0  0
  2  6  2  0  0  0  0
  3  8  2  0  0  0  0
  3 16  1  0  0  0  0
  4  9  1  0  0  0  0
  4 16  2  0  0  0  0
  5 18  1  0  0  0  0
  6 20  1  0  0  0  0
  7 10  2  0  0  0  0
  7 19  1  0  0  0  0
  8 22  1  0  0  0  0
  9 22  2  0  0  0  0
 10 23  1  0  0  0  0
 11 12  2  0  0  0  0
 11 24  1  0  0  0  0
 12 25  1  0  0  0  0
 13 21  1  0  0  0  0
 13 23  2  0  0  0  0
 14 25  2  0  0  0  0
 14 26  1  0  0  0  0
 15 27  1  0  0  0  0
 15 62  2  0  0  0  0
 16 28  1  0  0  0  0
 17 28  1  0  0  0  0
 17 30  2  0  0  0  0
 17 32  1  0  0  0  0
 18 20  2  0  0  0  0
 18 37  1  0  0  0  0
 19 21  2  0  0  0  0
 19 38  1  0  0  0  0
 20 46  1  0  0  0  0
 21 39  1  0  0  0  0
 22 80  1  0  0  0  0
 23 81  1  0  0  0  0
 24 26  2  0  0  0  0
 24 80  1  0  0  0  0
 25 82  1  0  0  0  0
 26 83  1  0  0  0  0
 27 29  2  0  0  0  0
 27 84  1  0  0  0  0
 28 63  2  0  0  0  0
 29 55  1  0  0  0  0
 29 64  1  0  0  0  0
 30 65  1  0  0  0  0
 30 68  1  0  0  0  0
 31 62  1  0  0  0  0
 31 64  2  0  0  0  0
 31 70  1  0  0  0  0
 32 69  1  0  0  0  0
 32 75  2  0  0  0  0
 33 47  1  0  0  0  0
 33 71  1  0  0  0  0
 33 76  2  0  0  0  0
 34 58  1  0  0  0  0
 34 66  1  0  0  0  0
 34 77  2  0  0  0  0
 35 59  1  0  0  0  0
 35 72  1  0  0  0  0
 35 78  2  0  0  0  0
 36 67  1  0  0  0  0
 36 73  1  0  0  0  0
 36 79  2  0  0  0  0
 37 40  1  0  0  0  0
 38 47  1  0  0  0  0
 39 66  1  0  0  0  0
 40 42  1  0  0  0  0
 41 43  1  0  0  0  0
 41 44  1  0  0  0  0
 42 46  1  0  0  0  0
 43 48  1  0  0  0  0
 44 67  1  0  0  0  0
 45 48  1  0  0  0  0
 45 67  1  0  0  0  0
 46 71  1  0  0  0  0
 47 66  1  0  0  0  0
 48 65  1  0  0  0  0
 49 59  1  0  0  0  0
 50 60  1  0  0  0  0
 51 61  1  0  0  0  0
 52 61  1  0  0  0  0
 53 61  1  0  0  0  0
 54 74  1  0  0  0  0
 55 73  1  0  0  0  0
 56 57  1  0  0  0  0
 56 60  1  0  0  0  0
 57 81  1  0  0  0  0
 58 61  1  0  0  0  0
 58 72  1  0  0  0  0
 59 74  1  0  0  0  0
 60 70  1  0  0  0  0
 63 65  1  0  0  0  0
M  CHG  1  74   1
M  ISO  4  36 100  57 101  73 100  81 101
M  END
> <Batch ID>
0193

> <Smiles>
CNC(C)C(=O)NC(C(=O)N1Cc2cc([101O:1][101CH2:1]CC(C)Nc3ncc(F)c(C[100NH:0][100C:0](=O)N4CCCC(n5nc(-c6ccc(Oc7ccc(F)cc7F)cc6)c(C(N)=O)c5N)C4)n3)ccc2CC1C(=O)NC1CCCc2ccccc21)C(C)(C)C

> <Shape>
0.269

> <Color>
0.075

> <Negative vol penalty>
0.000

$$$$

  -OEChem-04052305303D

 82 90  0     1  0  0  0  0  0999 V2000
  -32.1056  -15.3839   19.2703 C   0  0  0  0  0  0  0  0  0  0  0  0
  -31.1660  -16.4074   19.2004 C   0  0  0  0  0  0  0  0  0  0  0  0
  -28.7444  -25.7399   19.5924 C   0  0  0  0  0  0  0  0  0  0  0  0
  -26.5649  -24.7247   19.3548 C   0  0  0  0  0  0  0  0  0  0  0  0
  -31.6880  -14.0676   19.4623 C   0  0  0  0  0  0  0  0  0  0  0  0
  -29.8079  -16.1150   19.3214 C   0  0  0  0  0  0  0  0  0  0  0  0
  -25.5120  -19.5988   21.9509 C   0  0  0  0  0  0  0  0  0  0  0  0
  -29.3382  -24.4792   19.5321 C   0  0  0  0  0  0  0  0  0  0  0  0
  -27.1587  -23.4640   19.2945 C   0  0  0  0  0  0  0  0  0  0  0  0
  -24.5697  -20.4820   21.4259 C   0  0  0  0  0  0  0  0  0  0  0  0
  -28.7790  -21.5828   17.0018 C   0  0  0  0  0  0  0  0  0  0  0  0
  -28.3284  -20.7023   16.0184 C   0  0  0  0  0  0  0  0  0  0  0  0
  -22.9134  -18.7286   21.4650 C   0  0  0  0  0  0  0  0  0  0  0  0
  -27.6742  -19.1266   17.7291 C   0  0  0  0  0  0  0  0  0  0  0  0
  -18.4825  -28.1556   22.8902 C   0  0  0  0  0  0  0  0  0  0  0  0
  -27.3577  -25.8627   19.5038 C   0  0  0  0  0  0  0  0  0  0  0  0
  -26.4607  -28.0240   18.4880 C   0  0  0  0  0  0  0  0  0  0  0  0
  -30.3248  -13.7601   19.5954 C   0  0  0  0  0  0  0  0  0  0  0  0
  -25.1645  -18.2686   22.2272 C   0  0  0  0  0  0  0  0  0  0  0  0
  -29.3716  -14.7932   19.5141 C   0  0  0  0  0  0  0  0  0  0  0  0
  -23.8525  -17.8312   21.9959 C   0  0  0  0  0  0  0  0  0  0  0  0
  -28.5454  -23.3413   19.3831 C   0  0  0  0  0  0  0  0  0  0  0  0
  -23.2710  -20.0462   21.1801 C   0  0  0  0  0  0  0  0  0  0  0  0
  -28.6774  -21.2353   18.3489 C   0  0  0  0  0  0  0  0  0  0  0  0
  -27.7759  -19.4742   16.3821 C   0  0  0  0  0  0  0  0  0  0  0  0
  -28.1249  -20.0072   18.7125 C   0  0  0  0  0  0  0  0  0  0  0  0
  -26.7437  -27.1646   19.5666 C   0  0  0  0  0  0  0  0  0  0  0  0
  -19.8219  -28.0393   23.1977 C   0  0  0  0  0  0  0  0  0  0  0  0
  -25.8830  -29.1261   19.0696 C   0  0  0  0  0  0  0  0  0  0  0  0
  -19.5966  -26.2101   22.0089 C   0  0  0  0  0  0  0  0  0  0  0  0
  -26.6987  -27.8423   17.0859 C   0  0  0  0  0  0  0  0  0  0  0  0
  -26.1291  -15.4316   21.1670 C   0  0  0  0  0  0  0  0  0  0  0  0
  -24.1607  -14.3267   23.4965 C   0  0  0  0  0  0  0  0  0  0  0  0
  -21.4657  -14.8798   25.5159 C   0  0  0  0  0  0  0  0  0  0  0  0
  -22.8955  -29.9373   24.1947 C   0  0  0  0  0  0  0  0  0  0  0  0
  -29.9184  -12.3164   19.7544 C   0  0  0  0  0  0  0  0  0  0  0  0
  -26.1855  -17.3356   22.8184 C   0  0  0  0  0  0  0  0  0  0  0  0
  -23.4234  -16.4186   22.2943 C   0  0  0  0  0  0  0  0  0  0  0  0
  -28.4849  -12.1380   20.2480 C   0  0  0  0  0  0  0  0  0  0  0  0
  -25.8524  -31.6233   23.1505 C   0  0  0  0  0  0  0  0  0  0  0  0
  -27.5351  -13.0407   19.4672 C   0  0  0  0  0  0  0  0  0  0  0  0
  -26.3906  -30.7493   22.0162 C   0  0  0  0  0  0  0  0  0  0  0  0
  -25.2227  -30.7837   24.2597 C   0  0  0  0  0  0  0  0  0  0  0  0
  -24.7222  -28.9651   22.6735 C   0  0  0  0  0  0  0  0  0  0  0  0
  -27.8910  -14.5191   19.6656 C   0  0  1  0  0  0  0  0  0  0  0  0
  -25.8593  -15.8645   22.5803 C   0  0  1  0  0  0  0  0  0  0  0  0
  -25.3169  -29.7700   21.5052 C   0  0  2  0  0  0  0  0  0  0  0  0
  -20.0734  -13.7773   27.2889 C   0  0  0  0  0  0  0  0  0  0  0  0
  -22.7988  -12.6220   21.3636 C   0  0  0  0  0  0  0  0  0  0  0  0
  -20.8837  -12.2994   22.9437 C   0  0  0  0  0  0  0  0  0  0  0  0
  -23.1547  -11.4661   23.5526 C   0  0  0  0  0  0  0  0  0  0  0  0
  -22.1424  -16.9629   27.5062 C   0  0  0  0  0  0  0  0  0  0  0  0
  -20.6077  -28.9945   24.0039 C   0  0  0  0  0  0  0  0  0  0  0  0
  -21.2163  -24.4227   21.3708 C   0  0  0  0  0  0  0  0  0  0  0  0
  -22.4962  -22.2870   20.9950 C   0  0  0  0  0  0  0  0  0  1  0  0
  -22.7001  -13.9530   23.5738 C   0  0  1  0  0  0  0  0  0  0  0  0
  -21.2661  -14.6778   27.0071 C   0  0  2  0  0  0  0  0  0  0  0  0
  -21.1207  -22.9451   20.9956 C   0  0  1  0  0  0  0  0  0  0  0  0
  -22.3926  -12.6113   22.8509 C   0  0  0  0  0  0  0  0  0  0  0  0
  -26.3761  -27.6768   20.7441 N   0  0  0  0  0  0  0  0  0  0  0  0
  -20.4623  -26.9241   22.6936 N   0  0  0  0  0  0  0  0  0  0  0  0
  -25.8564  -28.8700   20.4089 N   0  0  0  0  0  0  0  0  0  0  0  0
  -24.4595  -15.5426   22.8655 N   0  0  0  0  0  0  0  0  0  0  0  0
  -24.2120  -29.8776   23.7088 N   0  0  0  0  0  0  0  0  0  0  0  0
  -25.4004  -30.2796   18.5608 N   0  0  0  0  0  0  0  0  0  0  0  0
  -27.3011  -26.6508   16.6594 N   0  0  0  0  0  0  0  0  0  0  0  0
  -19.9008  -25.0224   21.3655 N   0  0  0  0  0  0  0  0  0  0  0  0
  -27.4188  -14.9843   20.9521 N   0  0  0  0  0  0  0  0  0  0  0  0
  -22.3507  -13.9624   24.9902 N   0  0  0  0  0  0  0  0  0  0  0  0
  -21.9991  -29.0484   23.6141 N   0  0  0  0  0  0  0  0  0  0  0  0
  -21.0361  -15.9870   27.6809 N   0  3  0  0  0  0  0  0  0  0  0  0
  -26.4015  -28.7177   16.2381 O   0  0  0  0  0  0  0  0  0  0  0  0
  -25.2332  -15.4970   20.3335 O   0  0  0  0  0  0  0  0  0  0  0  0
  -25.0048  -13.5711   23.9846 O   0  0  0  0  0  0  0  0  0  0  0  0
  -20.8910  -15.7607   24.8802 O   0  0  0  0  0  0  0  0  0  0  0  0
  -22.5436  -30.7282   25.0766 O   0  0  0  0  0  0  0  0  0  0  0  0
  -20.3154  -22.2685   21.9631 O   0  0  0  0  0  0  0  0  0  0  0  0
  -29.1245  -22.1110   19.3240 O   0  0  0  0  0  0  0  0  0  0  0  0
  -22.3494  -20.9060   20.6670 O   0  0  0  0  0  0  0  0  0  1  0  0
  -27.3418  -18.6293   15.4377 F   0  0  0  0  0  0  0  0  0  0  0  0
  -28.0236  -19.6683   20.0051 F   0  0  0  0  0  0  0  0  0  0  0  0
  -17.9949  -26.8211   21.9297 S   0  0  0  0  0  0  0  0  0  0  0  0
  1  2  1  0  0  0  0
  1  5  2  0  0  0  0
  2  6  2  0  0  0  0
  3  8  2  0  0  0  0
  3 16  1  0  0  0  0
  4  9  1  0  0  0  0
  4 16  2  0  0  0  0
  5 18  1  0  0  0  0
  6 20  1  0  0  0  0
  7 10  2  0  0  0  0
  7 19  1  0  0  0  0
  8 22  1  0  0  0  0
  9 22  2  0  0  0  0
 10 23  1  0  0  0  0
 11 12  2  0  0  0  0
 11 24  1  0  0  0  0
 12 25  1  0  0  0  0
 13 21  1  0  0  0  0
 13 23  2  0  0  0  0
 14 25  2  0  0  0  0
 14 26  1  0  0  0  0
 15 28  2  0  0  0  0
 15 82  1  0  0  0  0
 16 27  1  0  0  0  0
 17 27  1  0  0  0  0
 17 29  2  0  0  0  0
 17 31  1  0  0  0  0
 18 20  2  0  0  0  0
 18 36  1  0  0  0  0
 19 21  2  0  0  0  0
 19 37  1  0  0  0  0
 20 45  1  0  0  0  0
 21 38  1  0  0  0  0
 22 78  1  0  0  0  0
 23 79  1  0  0  0  0
 24 26  2  0  0  0  0
 24 78  1  0  0  0  0
 25 80  1  0  0  0  0
 26 81  1  0  0  0  0
 27 60  2  0  0  0  0
 28 53  1  0  0  0  0
 28 61  1  0  0  0  0
 29 62  1  0  0  0  0
 29 65  1  0  0  0  0
 30 61  2  0  0  0  0
 30 67  1  0  0  0  0
 30 82  1  0  0  0  0
 31 66  1  0  0  0  0
 31 72  2  0  0  0  0
 32 46  1  0  0  0  0
 32 68  1  0  0  0  0
 32 73  2  0  0  0  0
 33 56  1  0  0  0  0
 33 63  1  0  0  0  0
 33 74  2  0  0  0  0
 34 57  1  0  0  0  0
 34 69  1  0  0  0  0
 34 75  2  0  0  0  0
 35 64  1  0  0  0  0
 35 70  1  0  0  0  0
 35 76  2  0  0  0  0
 36 39  1  0  0  0  0
 37 46  1  0  0  0  0
 38 63  1  0  0  0  0
 39 41  1  0  0  0  0
 40 42  1  0  0  0  0
 40 43  1  0  0  0  0
 41 45  1  0  0  0  0
 42 47  1  0  0  0  0
 43 64  1  0  0  0  0
 44 47  1  0  0  0  0
 44 64  1  0  0  0  0
 45 68  1  0  0  0  0
 46 63  1  0  0  0  0
 47 62  1  0  0  0  0
 48 57  1  0  0  0  0
 49 59  1  0  0  0  0
 50 59  1  0  0  0  0
 51 59  1  0  0  0  0
 52 71  1  0  0  0  0
 53 70  1  0  0  0  0
 54 58  1  0  0  0  0
 54 67  1  0  0  0  0
 55 58  1  0  0  0  0
 55 79  1  0  0  0  0
 56 59  1  0  0  0  0
 56 69  1  0  0  0  0
 57 71  1  0  0  0  0
 58 77  1  0  0  0  0
 60 62  1  0  0  0  0
M  CHG  1  71   1
M  ISO  4  35 100  55 101  70 100  79 101
M  END
> <Batch ID>
0193

> <Smiles>
CNC(C)C(=O)NC(C(=O)N1Cc2cc([101O:1][101CH2:1]C(O)CNc3nc(C[100NH:0][100C:0](=O)N4CCCC(n5nc(-c6ccc(Oc7ccc(F)cc7F)cc6)c(C(N)=O)c5N)C4)cs3)ccc2CC1C(=O)NC1CCCc2ccccc21)C(C)(C)C

> <Shape>
0.216

> <Color>
0.068

> <Negative vol penalty>
0.000

$$$$

  -OEChem-04052305303D

 82 90  0     1  0  0  0  0  0999 V2000
  -20.6320  -34.5489   23.3174 C   0  0  0  0  0  0  0  0  0  0  0  0
  -21.8628  -34.0480   22.9051 C   0  0  0  0  0  0  0  0  0  0  0  0
  -24.6344  -12.4961   21.4888 C   0  0  0  0  0  0  0  0  0  0  0  0
  -24.5611  -12.7598   19.0884 C   0  0  0  0  0  0  0  0  0  0  0  0
  -19.7018  -33.7017   23.9181 C   0  0  0  0  0  0  0  0  0  0  0  0
  -22.1644  -32.6998   23.0944 C   0  0  0  0  0  0  0  0  0  0  0  0
  -25.5028  -29.1220   19.4121 C   0  0  0  0  0  0  0  0  0  0  0  0
  -23.7183  -11.4479   21.4017 C   0  0  0  0  0  0  0  0  0  0  0  0
  -23.6450  -11.7115   19.0012 C   0  0  0  0  0  0  0  0  0  0  0  0
  -26.8358  -28.7157   19.4553 C   0  0  0  0  0  0  0  0  0  0  0  0
  -23.7583   -8.1660   20.5890 C   0  0  0  0  0  0  0  0  0  0  0  0
  -24.0182   -7.0145   21.3320 C   0  0  0  0  0  0  0  0  0  0  0  0
  -31.7994  -22.3360   16.9941 C   0  0  0  0  0  0  0  0  0  0  0  0
  -26.1699  -26.6670   20.5409 C   0  0  0  0  0  0  0  0  0  0  0  0
  -21.9354   -7.3108   22.5199 C   0  0  0  0  0  0  0  0  0  0  0  0
  -31.6795  -20.9648   16.8940 C   0  0  0  0  0  0  0  0  0  0  0  0
  -25.0557  -13.1521   20.3322 C   0  0  0  0  0  0  0  0  0  0  0  0
  -27.4054  -14.1448   20.3686 C   0  0  0  0  0  0  0  0  0  0  0  0
  -19.9884  -32.3404   24.1061 C   0  0  0  0  0  0  0  0  0  0  0  0
  -24.4928  -28.3073   19.9436 C   0  0  0  0  0  0  0  0  0  0  0  0
  -21.2376  -31.8339   23.6995 C   0  0  0  0  0  0  0  0  0  0  0  0
  -24.8246  -27.0641   20.5009 C   0  0  0  0  0  0  0  0  0  0  0  0
  -23.2237  -11.0555   20.1579 C   0  0  0  0  0  0  0  0  0  0  0  0
  -27.1698  -27.4894   20.0224 C   0  0  0  0  0  0  0  0  0  0  0  0
  -22.5869   -8.8900   20.8114 C   0  0  0  0  0  0  0  0  0  0  0  0
  -23.1067   -6.5869   22.2974 C   0  0  0  0  0  0  0  0  0  0  0  0
  -21.6755   -8.4624   21.7769 C   0  0  0  0  0  0  0  0  0  0  0  0
  -26.0015  -14.2354   20.4216 C   0  0  0  0  0  0  0  0  0  0  0  0
  -30.7663  -22.9798   17.6440 C   0  0  0  0  0  0  0  0  0  0  0  0
  -27.8383  -15.4420   20.4970 C   0  0  0  0  0  0  0  0  0  0  0  0
  -29.6933  -21.0075   17.9988 C   0  0  0  0  0  0  0  0  0  0  0  0
  -28.2432  -12.9912   20.2167 C   0  0  0  0  0  0  0  0  0  0  0  0
  -22.3655  -28.6118   22.2858 C   0  0  0  0  0  0  0  0  0  0  0  0
  -21.2805  -25.7769   21.1420 C   0  0  0  0  0  0  0  0  0  0  0  0
  -21.9377  -22.9058   19.4180 C   0  0  0  0  0  0  0  0  0  0  0  0
  -27.4855  -20.8456   19.2011 C   0  0  0  0  0  0  0  0  0  0  0  0
  -18.9698  -31.4736   24.8030 C   0  0  0  0  0  0  0  0  0  0  0  0
  -23.0568  -28.7480   19.8652 C   0  0  0  0  0  0  0  0  0  0  0  0
  -23.7756  -26.1434   21.0670 C   0  0  0  0  0  0  0  0  0  0  0  0
  -19.2203  -29.9781   24.6273 C   0  0  0  0  0  0  0  0  0  0  0  0
  -25.3173  -19.6463   21.7580 C   0  0  0  0  0  0  0  0  0  0  0  0
  -20.6897  -29.6504   24.8732 C   0  0  0  0  0  0  0  0  0  0  0  0
  -25.4175  -18.1242   21.6339 C   0  0  0  0  0  0  0  0  0  0  0  0
  -25.3668  -20.3310   20.3933 C   0  0  0  0  0  0  0  0  0  0  0  0
  -26.6125  -18.4369   19.4291 C   0  0  0  0  0  0  0  0  0  0  0  0
  -21.5920  -30.3721   23.8650 C   0  0  1  0  0  0  0  0  0  0  0  0
  -22.1656  -28.0676   20.8996 C   0  0  1  0  0  0  0  0  0  0  0  0
  -26.6323  -17.7070   20.7820 C   0  0  2  0  0  0  0  0  0  0  0  0
  -20.8634  -20.7612   18.6805 C   0  0  0  0  0  0  0  0  0  0  0  0
  -21.5278  -24.6803   23.9786 C   0  0  0  0  0  0  0  0  0  0  0  0
  -21.3726  -22.3707   23.0246 C   0  0  0  0  0  0  0  0  0  0  0  0
  -19.4679  -23.9593   22.7573 C   0  0  0  0  0  0  0  0  0  0  0  0
  -22.3446  -23.5502   16.5582 C   0  0  0  0  0  0  0  0  0  0  0  0
  -29.8451  -25.1651   18.4196 C   0  0  0  0  0  0  0  0  0  0  0  0
  -29.3273  -27.5540   19.0238 C   0  0  0  0  0  0  0  0  0  1  0  0
  -21.5834  -24.3247   21.4219 C   0  0  1  0  0  0  0  0  0  0  0  0
  -21.1789  -22.2015   18.3078 C   0  0  2  0  0  0  0  0  0  0  0  0
  -30.4295  -26.5256   18.7946 C   0  0  1  0  0  0  0  0  0  0  0  0
  -21.0081  -23.8517   22.7868 C   0  0  0  0  0  0  0  0  0  0  0  0
  -30.6360  -20.2657   17.3868 N   0  0  0  0  0  0  0  0  0  0  0  0
  -25.5712  -15.4909   20.5722 N   0  0  0  0  0  0  0  0  0  0  0  0
  -29.6939  -22.3445   18.1604 N   0  0  0  0  0  0  0  0  0  0  0  0
  -26.7113  -16.2011   20.6149 N   0  0  0  0  0  0  0  0  0  0  0  0
  -22.3864  -26.6219   20.9725 N   0  0  0  0  0  0  0  0  0  0  0  0
  -26.5460  -19.8909   19.6446 N   0  0  0  0  0  0  0  0  0  0  0  0
  -29.0692  -15.9958   20.5196 N   0  0  0  0  0  0  0  0  0  0  0  0
  -27.6345  -11.7344   20.0980 N   0  0  0  0  0  0  0  0  0  0  0  0
  -30.8495  -24.3565   17.7655 N   0  0  0  0  0  0  0  0  0  0  0  0
  -28.5818  -20.3065   18.5287 N   0  0  0  0  0  0  0  0  0  0  0  0
  -21.5627  -29.6957   22.5859 N   0  0  0  0  0  0  0  0  0  0  0  0
  -21.0875  -23.5753   20.2726 N   0  0  0  0  0  0  0  0  0  0  0  0
  -21.9828  -22.1969   17.0529 N   0  3  0  0  0  0  0  0  0  0  0  0
  -29.4950  -13.0708   20.2037 O   0  0  0  0  0  0  0  0  0  0  0  0
  -23.1863  -28.0862   23.0286 O   0  0  0  0  0  0  0  0  0  0  0  0
  -20.1059  -26.1465   21.0690 O   0  0  0  0  0  0  0  0  0  0  0  0
  -23.1618  -22.8631   19.5193 O   0  0  0  0  0  0  0  0  0  0  0  0
  -27.3426  -22.0500   19.4266 O   0  0  0  0  0  0  0  0  0  0  0  0
  -31.1654  -26.3982   20.0130 O   0  0  0  0  0  0  0  0  0  0  0  0
  -22.3299  -10.0325   20.0724 O   0  0  0  0  0  0  0  0  0  0  0  0
  -28.4702  -27.0907   20.0664 O   0  0  0  0  0  0  0  0  0  1  0  0
  -23.3557   -5.4802   23.0098 F   0  0  0  0  0  0  0  0  0  0  0  0
  -20.5479   -9.1531   21.9942 F   0  0  0  0  0  0  0  0  0  0  0  0
  1  2  1  0  0  0  0
  1  5  2  0  0  0  0
  2  6  2  0  0  0  0
  3  8  2  0  0  0  0
  3 17  1  0  0  0  0
  4  9  1  0  0  0  0
  4 17  2  0  0  0  0
  5 19  1  0  0  0  0
  6 21  1  0  0  0  0
  7 10  2  0  0  0  0
  7 20  1  0  0  0  0
  8 23  1  0  0  0  0
  9 23  2  0  0  0  0
 10 24  1  0  0  0  0
 11 12  2  0  0  0  0
 11 25  1  0  0  0  0
 12 26  1  0  0  0  0
 13 16  2  0  0  0  0
 13 29  1  0  0  0  0
 14 22  1  0  0  0  0
 14 24  2  0  0  0  0
 15 26  2  0  0  0  0
 15 27  1  0  0  0  0
 16 60  1  0  0  0  0
 17 28  1  0  0  0  0
 18 28  1  0  0  0  0
 18 30  2  0  0  0  0
 18 32  1  0  0  0  0
 19 21  2  0  0  0  0
 19 37  1  0  0  0  0
 20 22  2  0  0  0  0
 20 38  1  0  0  0  0
 21 46  1  0  0  0  0
 22 39  1  0  0  0  0
 23 79  1  0  0  0  0
 24 80  1  0  0  0  0
 25 27  2  0  0  0  0
 25 79  1  0  0  0  0
 26 81  1  0  0  0  0
 27 82  1  0  0  0  0
 28 61  2  0  0  0  0
 29 62  2  0  0  0  0
 29 68  1  0  0  0  0
 30 63  1  0  0  0  0
 30 66  1  0  0  0  0
 31 60  2  0  0  0  0
 31 62  1  0  0  0  0
 31 69  1  0  0  0  0
 32 67  1  0  0  0  0
 32 73  2  0  0  0  0
 33 47  1  0  0  0  0
 33 70  1  0  0  0  0
 33 74  2  0  0  0  0
 34 56  1  0  0  0  0
 34 64  1  0  0  0  0
 34 75  2  0  0  0  0
 35 57  1  0  0  0  0
 35 71  1  0  0  0  0
 35 76  2  0  0  0  0
 36 65  1  0  0  0  0
 36 69  1  0  0  0  0
 36 77  2  0  0  0  0
 37 40  1  0  0  0  0
 38 47  1  0  0  0  0
 39 64  1  0  0  0  0
 40 42  1  0  0  0  0
 41 43  1  0  0  0  0
 41 44  1  0  0  0  0
 42 46  1  0  0  0  0
 43 48  1  0  0  0  0
 44 65  1  0  0  0  0
 45 48  1  0  0  0  0
 45 65  1  0  0  0  0
 46 70  1  0  0  0  0
 47 64  1  0  0  0  0
 48 63  1  0  0  0  0
 49 57  1  0  0  0  0
 50 59  1  0  0  0  0
 51 59  1  0  0  0  0
 52 59  1  0  0  0  0
 53 72  1  0  0  0  0
 54 58  1  0  0  0  0
 54 68  1  0  0  0  0
 55 58  1  0  0  0  0
 55 80  1  0  0  0  0
 56 59  1  0  0  0  0
 56 71  1  0  0  0  0
 57 72  1  0  0  0  0
 58 78  1  0  0  0  0
 61 63  1  0  0  0  0
M  CHG  1  72   1
M  ISO  4  36 100  55 101  69 100  80 101
M  END
> <Batch ID>
0193

> <Smiles>
CNC(C)C(=O)NC(C(=O)N1Cc2cc([101O:1][101CH2:1]C(O)CNc3ccnc([100NH:0][100C:0](=O)N4CCCC(n5nc(-c6ccc(Oc7ccc(F)cc7F)cc6)c(C(N)=O)c5N)C4)n3)ccc2CC1C(=O)NC1CCCc2ccccc21)C(C)(C)C

> <Shape>
0.247

> <Color>
0.085

> <Negative vol penalty>
0.000

$$$$

  -OEChem-04052305303D

 87 95  0     1  0  0  0  0  0999 V2000
  -24.9072  -35.6446   20.7742 C   0  0  0  0  0  0  0  0  0  0  0  0
  -25.6443  -34.4684   20.8665 C   0  0  0  0  0  0  0  0  0  0  0  0
  -20.8295  -11.4892   20.6762 C   0  0  0  0  0  0  0  0  0  0  0  0
  -23.0491  -11.1839   21.5804 C   0  0  0  0  0  0  0  0  0  0  0  0
  -23.6659  -35.7392   21.4022 C   0  0  0  0  0  0  0  0  0  0  0  0
  -25.1410  -33.3863   21.5878 C   0  0  0  0  0  0  0  0  0  0  0  0
  -25.6982  -28.9900   19.1369 C   0  0  0  0  0  0  0  0  0  0  0  0
  -20.7782  -10.1353   20.3450 C   0  0  0  0  0  0  0  0  0  0  0  0
  -22.9977   -9.8299   21.2492 C   0  0  0  0  0  0  0  0  0  0  0  0
  -26.9639  -28.4057   19.1572 C   0  0  0  0  0  0  0  0  0  0  0  0
  -21.6150   -7.0119   22.5010 C   0  0  0  0  0  0  0  0  0  0  0  0
  -22.0495   -6.0952   23.4584 C   0  0  0  0  0  0  0  0  0  0  0  0
  -28.6962  -17.1865   21.1289 C   0  0  0  0  0  0  0  0  0  0  0  0
  -26.2400  -26.9131   20.9086 C   0  0  0  0  0  0  0  0  0  0  0  0
  -23.7430   -5.3010   21.9292 C   0  0  0  0  0  0  0  0  0  0  0  0
  -21.9650  -12.0136   21.2938 C   0  0  0  0  0  0  0  0  0  0  0  0
  -30.0087  -17.5410   21.4203 C   0  0  0  0  0  0  0  0  0  0  0  0
  -21.6092  -14.0086   22.8433 C   0  0  0  0  0  0  0  0  0  0  0  0
  -23.1429  -34.6544   22.1234 C   0  0  0  0  0  0  0  0  0  0  0  0
  -24.6956  -28.5469   20.0113 C   0  0  0  0  0  0  0  0  0  0  0  0
  -23.8922  -33.4669   22.2271 C   0  0  0  0  0  0  0  0  0  0  0  0
  -24.9617  -27.4918   20.8956 C   0  0  0  0  0  0  0  0  0  0  0  0
  -30.5401  -18.7124   20.8922 C   0  0  0  0  0  0  0  0  0  0  0  0
  -21.8623   -9.3056   20.6315 C   0  0  0  0  0  0  0  0  0  0  0  0
  -27.2358  -27.3690   20.0451 C   0  0  0  0  0  0  0  0  0  0  0  0
  -22.2444   -7.0731   21.2578 C   0  0  0  0  0  0  0  0  0  0  0  0
  -23.1135   -5.2398   23.1725 C   0  0  0  0  0  0  0  0  0  0  0  0
  -23.3085   -6.2177   20.9719 C   0  0  0  0  0  0  0  0  0  0  0  0
  -22.0189  -13.4123   21.6357 C   0  0  0  0  0  0  0  0  0  0  0  0
  -27.9627  -18.0306   20.3108 C   0  0  0  0  0  0  0  0  0  0  0  0
  -29.7241  -19.4881   20.0845 C   0  0  0  0  0  0  0  0  0  0  0  0
  -21.8650  -15.3469   22.6695 C   0  0  0  0  0  0  0  0  0  0  0  0
  -30.7958  -16.6653   22.2792 C   0  0  0  0  0  0  0  0  0  0  0  0
  -21.0477  -13.4067   24.0172 C   0  0  0  0  0  0  0  0  0  0  0  0
  -23.0152  -29.8799   22.3572 C   0  0  0  0  0  0  0  0  0  0  0  0
  -21.4360  -27.0468   22.3098 C   0  0  0  0  0  0  0  0  0  0  0  0
  -21.4693  -23.7241   21.5318 C   0  0  0  0  0  0  0  0  0  0  0  0
  -25.7124  -18.3539   19.2255 C   0  0  0  0  0  0  0  0  0  0  0  0
  -21.8180  -34.8201   22.8248 C   0  0  0  0  0  0  0  0  0  0  0  0
  -23.3274  -29.1697   19.9584 C   0  0  0  0  0  0  0  0  0  0  0  0
  -23.9137  -26.9657   21.8408 C   0  0  0  0  0  0  0  0  0  0  0  0
  -21.1877  -33.4984   23.2562 C   0  0  0  0  0  0  0  0  0  0  0  0
  -22.1677  -18.6886   19.2526 C   0  0  0  0  0  0  0  0  0  0  0  0
  -22.2236  -32.6104   23.9382 C   0  0  0  0  0  0  0  0  0  0  0  0
  -21.6903  -17.4308   19.9820 C   0  0  0  0  0  0  0  0  0  0  0  0
  -23.3806  -18.4054   18.3680 C   0  0  0  0  0  0  0  0  0  0  0  0
  -24.0272  -16.4906   19.7768 C   0  0  0  0  0  0  0  0  0  0  0  0
  -23.3690  -32.2628   22.9797 C   0  0  1  0  0  0  0  0  0  0  0  0
  -22.5363  -28.9845   21.2496 C   0  0  1  0  0  0  0  0  0  0  0  0
  -22.8473  -16.7400   20.7303 C   0  0  2  0  0  0  0  0  0  0  0  0
  -20.0463  -21.6601   21.6447 C   0  0  0  0  0  0  0  0  0  0  0  0
  -21.9961  -26.8273   25.3012 C   0  0  0  0  0  0  0  0  0  0  0  0
  -21.4205  -24.3948   25.1597 C   0  0  0  0  0  0  0  0  0  0  0  0
  -19.6988  -26.1158   24.6149 C   0  0  0  0  0  0  0  0  0  0  0  0
  -21.4936  -23.4057   18.5895 C   0  0  0  0  0  0  0  0  0  0  0  0
  -30.1213  -25.5683   18.8329 C   0  0  0  0  0  0  0  0  0  0  0  0
  -29.3334  -24.2633   18.9673 C   0  0  0  0  0  0  0  0  0  0  0  0
  -29.4271  -21.7448   19.0625 C   0  0  0  0  0  0  0  0  0  0  0  0
  -29.2013  -26.7815   18.8419 C   0  0  0  0  0  0  0  0  0  1  0  0
  -21.6055  -25.7166   23.0034 C   0  0  1  0  0  0  0  0  0  0  0  0
  -20.4671  -22.8513   20.7981 C   0  0  2  0  0  0  0  0  0  0  0  0
  -30.2488  -23.0330   18.9898 C   0  0  1  0  0  0  0  0  0  0  0  0
  -21.2008  -25.7746   24.5034 C   0  0  0  0  0  0  0  0  0  0  0  0
  -22.4984  -14.2990   20.7594 N   0  0  0  0  0  0  0  0  0  0  0  0
  -28.4446  -19.1764   19.7792 N   0  0  0  0  0  0  0  0  0  0  0  0
  -30.3343  -15.5646   22.7902 N   0  0  0  0  0  0  0  0  0  0  0  0
  -22.3915  -15.4661   21.4170 N   0  0  0  0  0  0  0  0  0  0  0  0
  -22.5935  -27.6116   21.7555 N   0  0  0  0  0  0  0  0  0  0  0  0
  -24.4375  -17.7546   19.1454 N   0  0  0  0  0  0  0  0  0  0  0  0
  -31.8686  -19.0912   21.1739 N   0  0  0  0  0  0  0  0  0  0  0  0
  -21.6885  -16.4215   23.4673 N   0  0  0  0  0  0  0  0  0  0  0  0
  -20.8516  -12.0190   24.0280 N   0  0  0  0  0  0  0  0  0  0  0  0
  -26.6262  -17.6612   20.0191 N   0  0  0  0  0  0  0  0  0  0  0  0
  -30.2430  -20.6569   19.5539 N   0  0  0  0  0  0  0  0  0  0  0  0
  -22.9582  -31.2273   22.0559 N   0  0  0  0  0  0  0  0  0  0  0  0
  -20.8496  -24.7473   22.2175 N   0  0  0  0  0  0  0  0  0  0  0  0
  -21.0570  -22.3404   19.5284 N   0  3  0  0  0  0  0  0  0  0  0  0
  -20.7140  -14.0817   25.0205 O   0  0  0  0  0  0  0  0  0  0  0  0
  -23.4059  -29.3850   23.4079 O   0  0  0  0  0  0  0  0  0  0  0  0
  -20.3166  -27.5621   22.2554 O   0  0  0  0  0  0  0  0  0  0  0  0
  -22.6803  -23.5165   21.5028 O   0  0  0  0  0  0  0  0  0  0  0  0
  -25.9660  -19.4184   18.6559 O   0  0  0  0  0  0  0  0  0  0  0  0
  -31.0247  -23.0277   17.7922 O   0  0  0  0  0  0  0  0  0  0  0  0
  -21.8124   -7.9843   20.3087 O   0  0  0  0  0  0  0  0  0  0  0  0
  -28.4706  -26.7973   20.0675 O   0  0  0  0  0  0  0  0  0  1  0  0
  -23.5316   -4.3606   24.0924 F   0  0  0  0  0  0  0  0  0  0  0  0
  -23.9179   -6.2727   19.7796 F   0  0  0  0  0  0  0  0  0  0  0  0
  1  2  1  0  0  0  0
  1  5  2  0  0  0  0
  2  6  2  0  0  0  0
  3  8  2  0  0  0  0
  3 16  1  0  0  0  0
  4  9  1  0  0  0  0
  4 16  2  0  0  0  0
  5 19  1  0  0  0  0
  6 21  1  0  0  0  0
  7 10  2  0  0  0  0
  7 20  1  0  0  0  0
  8 24  1  0  0  0  0
  9 24  2  0  0  0  0
 10 25  1  0  0  0  0
 11 12  2  0  0  0  0
 11 26  1  0  0  0  0
 12 27  1  0  0  0  0
 13 17  2  0  0  0  0
 13 30  1  0  0  0  0
 14 22  1  0  0  0  0
 14 25  2  0  0  0  0
 15 27  2  0  0  0  0
 15 28  1  0  0  0  0
 16 29  1  0  0  0  0
 17 23  1  0  0  0  0
 17 33  1  0  0  0  0
 18 29  1  0  0  0  0
 18 32  2  0  0  0  0
 18 34  1  0  0  0  0
 19 21  2  0  0  0  0
 19 39  1  0  0  0  0
 20 22  2  0  0  0  0
 20 40  1  0  0  0  0
 21 48  1  0  0  0  0
 22 41  1  0  0  0  0
 23 31  2  0  0  0  0
 23 70  1  0  0  0  0
 24 84  1  0  0  0  0
 25 85  1  0  0  0  0
 26 28  2  0  0  0  0
 26 84  1  0  0  0  0
 27 86  1  0  0  0  0
 28 87  1  0  0  0  0
 29 64  2  0  0  0  0
 30 65  2  0  0  0  0
 30 73  1  0  0  0  0
 31 65  1  0  0  0  0
 31 74  1  0  0  0  0
 32 67  1  0  0  0  0
 32 71  1  0  0  0  0
 33 66  2  0  0  0  0
 34 72  1  0  0  0  0
 34 78  2  0  0  0  0
 35 49  1  0  0  0  0
 35 75  1  0  0  0  0
 35 79  2  0  0  0  0
 36 60  1  0  0  0  0
 36 68  1  0  0  0  0
 36 80  2  0  0  0  0
 37 61  1  0  0  0  0
 37 76  1  0  0  0  0
 37 81  2  0  0  0  0
 38 69  1  0  0  0  0
 38 73  1  0  0  0  0
 38 82  2  0  0  0  0
 39 42  1  0  0  0  0
 40 49  1  0  0  0  0
 41 68  1  0  0  0  0
 42 44  1  0  0  0  0
 43 45  1  0  0  0  0
 43 46  1  0  0  0  0
 44 48  1  0  0  0  0
 45 50  1  0  0  0  0
 46 69  1  0  0  0  0
 47 50  1  0  0  0  0
 47 69  1  0  0  0  0
 48 75  1  0  0  0  0
 49 68  1  0  0  0  0
 50 67  1  0  0  0  0
 51 61  1  0  0  0  0
 52 63  1  0  0  0  0
 53 63  1  0  0  0  0
 54 63  1  0  0  0  0
 55 77  1  0  0  0  0
 56 57  1  0  0  0  0
 56 59  1  0  0  0  0
 57 62  1  0  0  0  0
 58 62  1  0  0  0  0
 58 74  1  0  0  0  0
 59 85  1  0  0  0  0
 60 63  1  0  0  0  0
 60 76  1  0  0  0  0
 61 77  1  0  0  0  0
 62 83  1  0  0  0  0
 64 67  1  0  0  0  0
M  CHG  1  77   1
M  ISO  4  38 100  59 101  73 100  85 101
M  END
> <Batch ID>
0193

> <Smiles>
CNC(C)C(=O)NC(C(=O)N1Cc2cc([101O:1][101CH2:1]CCC(O)CNc3nc([100NH:0][100C:0](=O)N4CCCC(n5nc(-c6ccc(Oc7ccc(F)cc7F)cc6)c(C(N)=O)c5N)C4)cc(C=N)c3N)ccc2CC1C(=O)NC1CCCc2ccccc21)C(C)(C)C

> <Shape>
0.245

> <Color>
0.065

> <Negative vol penalty>
0.000

$$$$

  -OEChem-04052305303D

 86 94  0     1  0  0  0  0  0999 V2000
  -21.9306  -10.9557   19.6267 C   0  0  0  0  0  0  0  0  0  0  0  0
  -21.5984  -12.1929   20.1693 C   0  0  0  0  0  0  0  0  0  0  0  0
  -19.5631  -26.4604   19.9902 C   0  0  0  0  0  0  0  0  0  0  0  0
  -20.3972  -24.6337   21.3335 C   0  0  0  0  0  0  0  0  0  0  0  0
  -23.2617  -10.5417   19.6013 C   0  0  0  0  0  0  0  0  0  0  0  0
  -22.5971  -13.0164   20.6878 C   0  0  0  0  0  0  0  0  0  0  0  0
  -22.7790  -19.1356   20.5190 C   0  0  0  0  0  0  0  0  0  0  0  0
  -18.5376  -25.6430   19.5153 C   0  0  0  0  0  0  0  0  0  0  0  0
  -19.3716  -23.8162   20.8586 C   0  0  0  0  0  0  0  0  0  0  0  0
  -22.4466  -20.1102   21.4589 C   0  0  0  0  0  0  0  0  0  0  0  0
  -16.0799  -23.3474   21.4633 C   0  0  0  0  0  0  0  0  0  0  0  0
  -15.3959  -22.5629   22.3919 C   0  0  0  0  0  0  0  0  0  0  0  0
  -24.7594  -20.2413   22.1320 C   0  0  0  0  0  0  0  0  0  0  0  0
  -16.0755  -20.5693   21.2083 C   0  0  0  0  0  0  0  0  0  0  0  0
  -29.4657  -22.6950   23.1650 C   0  0  0  0  0  0  0  0  0  0  0  0
  -20.4930  -25.9558   20.8993 C   0  0  0  0  0  0  0  0  0  0  0  0
  -21.5242  -27.6246   22.5301 C   0  0  0  0  0  0  0  0  0  0  0  0
  -24.2784  -11.3647   20.1110 C   0  0  0  0  0  0  0  0  0  0  0  0
  -24.1046  -18.6979   20.3858 C   0  0  0  0  0  0  0  0  0  0  0  0
  -23.9429  -12.6125   20.6704 C   0  0  0  0  0  0  0  0  0  0  0  0
  -25.1064  -19.2629   21.1879 C   0  0  0  0  0  0  0  0  0  0  0  0
  -18.4417  -24.3209   19.9495 C   0  0  0  0  0  0  0  0  0  0  0  0
  -23.4364  -20.6611   22.2676 C   0  0  0  0  0  0  0  0  0  0  0  0
  -16.7617  -22.7429   20.4071 C   0  0  0  0  0  0  0  0  0  0  0  0
  -15.3937  -21.1739   22.2644 C   0  0  0  0  0  0  0  0  0  0  0  0
  -16.7595  -21.3538   20.2796 C   0  0  0  0  0  0  0  0  0  0  0  0
  -21.5530  -26.7995   21.3898 C   0  0  0  0  0  0  0  0  0  0  0  0
  -28.6717  -23.7350   22.7292 C   0  0  0  0  0  0  0  0  0  0  0  0
  -22.7652  -28.2122   22.5602 C   0  0  0  0  0  0  0  0  0  0  0  0
  -27.2527  -22.7936   24.1113 C   0  0  0  0  0  0  0  0  0  0  0  0
  -20.4698  -27.8404   23.4774 C   0  0  0  0  0  0  0  0  0  0  0  0
  -25.5963  -15.9158   20.7574 C   0  0  0  0  0  0  0  0  0  0  0  0
  -25.1515  -24.6395   25.5568 C   0  0  0  0  0  0  0  0  0  0  0  0
  -28.1320  -17.5618   19.5814 C   0  0  0  0  0  0  0  0  0  0  0  0
  -29.6503  -20.5776   19.0850 C   0  0  0  0  0  0  0  0  0  0  0  0
  -28.0981  -26.5917   20.3727 C   0  0  0  0  0  0  0  0  0  0  0  0
  -25.6975  -10.8540   20.1045 C   0  0  0  0  0  0  0  0  0  0  0  0
  -24.4512  -17.6651   19.3487 C   0  0  0  0  0  0  0  0  0  0  0  0
  -26.5478  -18.8421   21.0703 C   0  0  0  0  0  0  0  0  0  0  0  0
  -26.7389  -11.9463   20.3340 C   0  0  0  0  0  0  0  0  0  0  0  0
  -26.3227  -29.5985   19.6769 C   0  0  0  0  0  0  0  0  0  0  0  0
  -26.3306  -12.8359   21.5039 C   0  0  0  0  0  0  0  0  0  0  0  0
  -24.8964  -29.2965   20.1399 C   0  0  0  0  0  0  0  0  0  0  0  0
  -26.9862  -28.3712   19.0560 C   0  0  0  0  0  0  0  0  0  0  0  0
  -25.5440  -26.8617   20.3656 C   0  0  0  0  0  0  0  0  0  0  0  0
  -25.0007  -13.5447   21.2201 C   0  0  1  0  0  0  0  0  0  0  0  0
  -25.7493  -16.9241   19.6539 C   0  0  1  0  0  0  0  0  0  0  0  0
  -24.8533  -28.0540   21.0495 C   0  0  2  0  0  0  0  0  0  0  0  0
  -24.7473  -27.1106   25.9167 C   0  0  0  0  0  0  0  0  0  0  0  0
  -31.7332  -21.6010   18.1300 C   0  0  0  0  0  0  0  0  0  0  0  0
  -22.1898  -20.6009   25.1563 C   0  0  0  0  0  0  0  0  0  0  0  0
  -29.7011  -16.6520   22.0349 C   0  0  0  0  0  0  0  0  0  0  0  0
  -31.3914  -18.4274   21.5261 C   0  0  0  0  0  0  0  0  0  0  0  0
  -30.9873  -16.5872   19.8911 C   0  0  0  0  0  0  0  0  0  0  0  0
  -28.1115  -22.1346   17.0934 C   0  0  0  0  0  0  0  0  0  0  0  0
  -29.0655  -24.7701   21.7528 C   0  0  0  0  0  0  0  0  0  0  0  0
  -24.4762  -25.9009   25.0402 C   0  0  0  0  0  0  0  0  0  0  0  0
  -23.6923  -22.6208   25.3006 C   0  0  0  0  0  0  0  0  0  0  0  0
  -24.9100  -23.3709   24.7472 C   0  0  2  0  0  0  0  0  0  0  0  0
  -29.2404  -18.3914   20.1834 C   0  0  1  0  0  0  0  0  0  0  0  0
  -30.2949  -21.1905   17.8548 C   0  0  2  0  0  0  0  0  0  0  0  0
  -23.3933  -21.3146   24.5538 C   0  0  2  0  0  0  0  0  0  1  0  0
  -30.3027  -17.5212   20.9127 C   0  0  0  0  0  0  0  0  0  0  0  0
  -22.7199  -26.8555   20.7422 N   0  0  0  0  0  0  0  0  0  0  0  0
  -27.4022  -23.7930   23.2704 N   0  0  0  0  0  0  0  0  0  0  0  0
  -23.4357  -27.7228   21.4780 N   0  0  0  0  0  0  0  0  0  0  0  0
  -26.8354  -17.8245   20.0459 N   0  0  0  0  0  0  0  0  0  0  0  0
  -26.9127  -27.2286   19.9698 N   0  0  0  0  0  0  0  0  0  0  0  0
  -23.3374  -29.0948   23.4064 N   0  0  0  0  0  0  0  0  0  0  0  0
  -19.2597  -27.1566   23.2976 N   0  0  0  0  0  0  0  0  0  0  0  0
  -26.0977  -22.5483   24.8329 N   0  0  0  0  0  0  0  0  0  0  0  0
  -25.2051  -14.6631   20.3246 N   0  0  0  0  0  0  0  0  0  0  0  0
  -29.7773  -19.2047   19.0978 N   0  0  0  0  0  0  0  0  0  0  0  0
  -27.9396  -25.5216   21.2446 N   0  0  0  0  0  0  0  0  0  0  0  0
  -29.5368  -22.3975   17.4196 N   0  3  0  0  0  0  0  0  0  0  0  0
  -20.5914  -28.6291   24.4453 O   0  0  0  0  0  0  0  0  0  0  0  0
  -25.8183  -16.2492   21.9155 O   0  0  0  0  0  0  0  0  0  0  0  0
  -25.8369  -24.6373   26.5798 O   0  0  0  0  0  0  0  0  0  0  0  0
  -28.4057  -16.7170   18.7252 O   0  0  0  0  0  0  0  0  0  0  0  0
  -29.0934  -21.2500   19.9501 O   0  0  0  0  0  0  0  0  0  0  0  0
  -29.2154  -26.9536   19.9883 O   0  0  0  0  0  0  0  0  0  0  0  0
  -17.4410  -23.5230   19.4865 O   0  0  0  0  0  0  0  0  0  0  0  0
  -23.1145  -21.6120   23.1863 O   0  0  0  0  0  0  0  0  0  1  0  0
  -14.7381  -20.4206   23.1571 F   0  0  0  0  0  0  0  0  0  0  0  0
  -17.4136  -20.7673   19.2678 F   0  0  0  0  0  0  0  0  0  0  0  0
  -28.5985  -21.7457   24.3000 S   0  0  0  0  0  0  0  0  0  0  0  0
  1  2  1  0  0  0  0
  1  5  2  0  0  0  0
  2  6  2  0  0  0  0
  3  8  2  0  0  0  0
  3 16  1  0  0  0  0
  4  9  1  0  0  0  0
  4 16  2  0  0  0  0
  5 18  1  0  0  0  0
  6 20  1  0  0  0  0
  7 10  2  0  0  0  0
  7 19  1  0  0  0  0
  8 22  1  0  0  0  0
  9 22  2  0  0  0  0
 10 23  1  0  0  0  0
 11 12  2  0  0  0  0
 11 24  1  0  0  0  0
 12 25  1  0  0  0  0
 13 21  1  0  0  0  0
 13 23  2  0  0  0  0
 14 25  2  0  0  0  0
 14 26  1  0  0  0  0
 15 28  2  0  0  0  0
 15 86  1  0  0  0  0
 16 27  1  0  0  0  0
 17 27  1  0  0  0  0
 17 29  2  0  0  0  0
 17 31  1  0  0  0  0
 18 20  2  0  0  0  0
 18 37  1  0  0  0  0
 19 21  2  0  0  0  0
 19 38  1  0  0  0  0
 20 46  1  0  0  0  0
 21 39  1  0  0  0  0
 22 82  1  0  0  0  0
 23 83  1  0  0  0  0
 24 26  2  0  0  0  0
 24 82  1  0  0  0  0
 25 84  1  0  0  0  0
 26 85  1  0  0  0  0
 27 64  2  0  0  0  0
 28 56  1  0  0  0  0
 28 65  1  0  0  0  0
 29 66  1  0  0  0  0
 29 69  1  0  0  0  0
 30 65  2  0  0  0  0
 30 71  1  0  0  0  0
 30 86  1  0  0  0  0
 31 70  1  0  0  0  0
 31 76  2  0  0  0  0
 32 47  1  0  0  0  0
 32 72  1  0  0  0  0
 32 77  2  0  0  0  0
 33 57  1  0  0  0  0
 33 59  1  0  0  0  0
 33 78  2  0  0  0  0
 34 60  1  0  0  0  0
 34 67  1  0  0  0  0
 34 79  2  0  0  0  0
 35 61  1  0  0  0  0
 35 73  1  0  0  0  0
 35 80  2  0  0  0  0
 36 68  1  0  0  0  0
 36 74  1  0  0  0  0
 36 81  2  0  0  0  0
 37 40  1  0  0  0  0
 38 47  1  0  0  0  0
 39 67  1  0  0  0  0
 40 42  1  0  0  0  0
 41 43  1  0  0  0  0
 41 44  1  0  0  0  0
 42 46  1  0  0  0  0
 43 48  1  0  0  0  0
 44 68  1  0  0  0  0
 45 48  1  0  0  0  0
 45 68  1  0  0  0  0
 46 72  1  0  0  0  0
 47 67  1  0  0  0  0
 48 66  1  0  0  0  0
 49 57  1  0  0  0  0
 50 61  1  0  0  0  0
 51 62  1  0  0  0  0
 52 63  1  0  0  0  0
 53 63  1  0  0  0  0
 54 63  1  0  0  0  0
 55 75  1  0  0  0  0
 56 74  1  0  0  0  0
 58 59  1  0  0  0  0
 58 62  1  0  0  0  0
 59 71  1  0  0  0  0
 60 63  1  0  0  0  0
 60 73  1  0  0  0  0
 61 75  1  0  0  0  0
 62 83  1  0  0  0  0
 64 66  1  0  0  0  0
M  CHG  1  75   1
M  ISO  4  36 100  62 101  74 100  83 101
M  END
> <Batch ID>
0193

> <Smiles>
CCC(=O)C(C[101CH:1](C)[101O:1]c1ccc2c(c1)CN(C(=O)C(NC(=O)C(C)NC)C(C)(C)C)C(C(=O)NC1CCCc3ccccc31)C2)Nc1nc(C[100NH:0][100C:0](=O)N2CCCC(n3nc(-c4ccc(Oc5ccc(F)cc5F)cc4)c(C(N)=O)c3N)C2)cs1

> <Shape>
0.198

> <Color>
0.083

> <Negative vol penalty>
0.000

$$$$

  -OEChem-04052305303D

 84 92  0     1  0  0  0  0  0999 V2000
  -17.5116  -29.1746   21.9140 C   0  0  0  0  0  0  0  0  0  0  0  0
  -18.8764  -29.3255   21.6908 C   0  0  0  0  0  0  0  0  0  0  0  0
  -26.4658  -12.8188   21.5781 C   0  0  0  0  0  0  0  0  0  0  0  0
  -25.8596  -13.7591   19.4367 C   0  0  0  0  0  0  0  0  0  0  0  0
  -17.0313  -28.0231   22.5364 C   0  0  0  0  0  0  0  0  0  0  0  0
  -19.7619  -28.3254   22.0909 C   0  0  0  0  0  0  0  0  0  0  0  0
  -24.9222  -26.6300   19.2619 C   0  0  0  0  0  0  0  0  0  0  0  0
  -25.2251  -12.1857   21.6514 C   0  0  0  0  0  0  0  0  0  0  0  0
  -24.6189  -13.1260   19.5100 C   0  0  0  0  0  0  0  0  0  0  0  0
  -26.2615  -26.9470   19.4844 C   0  0  0  0  0  0  0  0  0  0  0  0
  -23.7530   -9.4322   20.3535 C   0  0  0  0  0  0  0  0  0  0  0  0
  -23.7292   -8.0975   20.7577 C   0  0  0  0  0  0  0  0  0  0  0  0
  -26.5195  -24.9251   20.7747 C   0  0  0  0  0  0  0  0  0  0  0  0
  -22.3330   -8.6918   22.6378 C   0  0  0  0  0  0  0  0  0  0  0  0
  -28.5950  -21.1987   17.1259 C   0  0  0  0  0  0  0  0  0  0  0  0
  -26.7831  -13.6055   20.4708 C   0  0  0  0  0  0  0  0  0  0  0  0
  -29.2492  -13.7471   19.8339 C   0  0  0  0  0  0  0  0  0  0  0  0
  -17.9104  -27.0041   22.9356 C   0  0  0  0  0  0  0  0  0  0  0  0
  -24.3678  -25.4616   19.8042 C   0  0  0  0  0  0  0  0  0  0  0  0
  -19.2931  -27.1598   22.7204 C   0  0  0  0  0  0  0  0  0  0  0  0
  -25.1736  -24.5943   20.5555 C   0  0  0  0  0  0  0  0  0  0  0  0
  -24.3016  -12.3393   20.6173 C   0  0  0  0  0  0  0  0  0  0  0  0
  -27.0597  -26.0960   20.2433 C   0  0  0  0  0  0  0  0  0  0  0  0
  -23.0669  -10.3968   21.0914 C   0  0  0  0  0  0  0  0  0  0  0  0
  -23.0192   -7.7272   21.8998 C   0  0  0  0  0  0  0  0  0  0  0  0
  -22.3569  -10.0266   22.2335 C   0  0  0  0  0  0  0  0  0  0  0  0
  -28.0644  -14.2602   20.3948 C   0  0  0  0  0  0  0  0  0  0  0  0
  -28.5909  -22.1929   16.1688 C   0  0  0  0  0  0  0  0  0  0  0  0
  -29.1612  -21.5388   18.3375 C   0  0  0  0  0  0  0  0  0  0  0  0
  -30.1739  -14.7473   20.0104 C   0  0  0  0  0  0  0  0  0  0  0  0
  -29.6218  -23.6358   17.5909 C   0  0  0  0  0  0  0  0  0  0  0  0
  -29.4923  -12.4797   19.2091 C   0  0  0  0  0  0  0  0  0  0  0  0
  -22.0381  -24.8356   21.8742 C   0  0  0  0  0  0  0  0  0  0  0  0
  -22.6481  -21.7622   21.0350 C   0  0  0  0  0  0  0  0  0  0  0  0
  -24.8634  -19.4838   19.7907 C   0  0  0  0  0  0  0  0  0  0  0  0
  -29.7096  -20.6714   20.6382 C   0  0  0  0  0  0  0  0  0  0  0  0
  -17.3492  -25.7986   23.6473 C   0  0  0  0  0  0  0  0  0  0  0  0
  -22.9282  -25.1205   19.5327 C   0  0  0  0  0  0  0  0  0  0  0  0
  -24.6317  -23.3175   21.1427 C   0  0  0  0  0  0  0  0  0  0  0  0
  -18.3165  -24.6190   23.7029 C   0  0  0  0  0  0  0  0  0  0  0  0
  -31.2288  -18.4007   22.9214 C   0  0  0  0  0  0  0  0  0  0  0  0
  -19.7050  -25.0868   24.1271 C   0  0  0  0  0  0  0  0  0  0  0  0
  -30.7023  -17.0339   22.4777 C   0  0  0  0  0  0  0  0  0  0  0  0
  -30.1688  -19.4912   22.7762 C   0  0  0  0  0  0  0  0  0  0  0  0
  -29.0267  -18.2186   21.0027 C   0  0  0  0  0  0  0  0  0  0  0  0
  -20.2828  -26.0861   23.1176 C   0  0  1  0  0  0  0  0  0  0  0  0
  -22.3361  -24.1642   20.5634 C   0  0  1  0  0  0  0  0  0  0  0  0
  -30.0793  -17.1000   21.0695 C   0  0  2  0  0  0  0  0  0  0  0  0
  -27.9972  -21.9203   14.8276 C   0  0  0  0  0  0  0  0  0  0  0  0
  -25.7027  -17.2782   18.9372 C   0  0  0  0  0  0  0  0  0  0  0  0
  -22.9707  -21.1466   24.0060 C   0  0  0  0  0  0  0  0  0  0  0  0
  -24.0989  -19.0044   23.3683 C   0  0  0  0  0  0  0  0  0  0  0  0
  -21.7270  -19.4071   22.7092 C   0  0  0  0  0  0  0  0  0  0  0  0
  -31.1911  -27.0911   20.7526 C   0  0  0  0  0  0  0  0  0  0  0  0
  -31.2188  -27.6576   18.3181 C   0  0  0  0  0  0  0  0  0  0  0  0
  -24.0411  -20.1123   17.0180 C   0  0  0  0  0  0  0  0  0  0  0  0
  -30.7493  -25.2839   19.0869 C   0  0  0  0  0  0  0  0  0  0  0  0
  -29.0363  -27.1544   19.4503 C   0  0  0  0  0  0  0  0  0  1  0  0
  -23.5717  -20.6796   21.5389 C   0  0  1  0  0  0  0  0  0  0  0  0
  -24.7164  -18.4156   18.7222 C   0  0  2  0  0  0  0  0  0  0  0  0
  -23.1021  -20.0844   22.8963 C   0  0  0  0  0  0  0  0  0  0  0  0
  -30.5359  -26.7871   19.3892 C   0  0  0  0  0  0  0  0  0  0  0  0
  -28.2193  -15.4907   20.8907 N   0  0  0  0  0  0  0  0  0  0  0  0
  -29.0976  -23.4273   16.3681 N   0  0  0  0  0  0  0  0  0  0  0  0
  -29.6862  -22.7524   18.6054 N   0  0  0  0  0  0  0  0  0  0  0  0
  -29.5125  -15.7591   20.6420 N   0  0  0  0  0  0  0  0  0  0  0  0
  -23.2167  -23.0311   20.8546 N   0  0  0  0  0  0  0  0  0  0  0  0
  -29.6266  -19.4970   21.4158 N   0  0  0  0  0  0  0  0  0  0  0  0
  -31.4800  -14.8512   19.6855 N   0  0  0  0  0  0  0  0  0  0  0  0
  -28.4315  -11.5691   19.1103 N   0  0  0  0  0  0  0  0  0  0  0  0
  -29.1903  -20.5479   19.3499 N   0  0  0  0  0  0  0  0  0  0  0  0
  -30.1496  -24.8935   17.8314 N   0  0  0  0  0  0  0  0  0  0  0  0
  -20.7760  -25.3934   21.9465 N   0  0  0  0  0  0  0  0  0  0  0  0
  -23.6789  -19.7008   20.4624 N   0  0  0  0  0  0  0  0  0  0  0  0
  -24.9572  -18.9975   17.3715 N   0  3  0  0  0  0  0  0  0  0  0  0
  -30.6210  -12.1577   18.7666 O   0  0  0  0  0  0  0  0  0  0  0  0
  -22.8898  -24.8455   22.7553 O   0  0  0  0  0  0  0  0  0  0  0  0
  -21.4675  -21.4903   20.8030 O   0  0  0  0  0  0  0  0  0  0  0  0
  -25.9240  -20.0648   20.0103 O   0  0  0  0  0  0  0  0  0  0  0  0
  -30.2294  -21.7023   21.0731 O   0  0  0  0  0  0  0  0  0  0  0  0
  -23.0909  -11.7215   20.6883 O   0  0  0  0  0  0  0  0  0  0  0  0
  -28.3671  -26.4034   20.4625 O   0  0  0  0  0  0  0  0  0  1  0  0
  -22.9951   -6.4452   22.2871 F   0  0  0  0  0  0  0  0  0  0  0  0
  -21.6948  -10.9486   22.9458 F   0  0  0  0  0  0  0  0  0  0  0  0
  1  2  1  0  0  0  0
  1  5  2  0  0  0  0
  2  6  2  0  0  0  0
  3  8  2  0  0  0  0
  3 16  1  0  0  0  0
  4  9  1  0  0  0  0
  4 16  2  0  0  0  0
  5 18  1  0  0  0  0
  6 20  1  0  0  0  0
  7 10  2  0  0  0  0
  7 19  1  0  0  0  0
  8 22  1  0  0  0  0
  9 22  2  0  0  0  0
 10 23  1  0  0  0  0
 11 12  2  0  0  0  0
 11 24  1  0  0  0  0
 12 25  1  0  0  0  0
 13 21  1  0  0  0  0
 13 23  2  0  0  0  0
 14 25  2  0  0  0  0
 14 26  1  0  0  0  0
 15 28  1  0  0  0  0
 15 29  2  0  0  0  0
 16 27  1  0  0  0  0
 17 27  1  0  0  0  0
 17 30  2  0  0  0  0
 17 32  1  0  0  0  0
 18 20  2  0  0  0  0
 18 37  1  0  0  0  0
 19 21  2  0  0  0  0
 19 38  1  0  0  0  0
 20 46  1  0  0  0  0
 21 39  1  0  0  0  0
 22 81  1  0  0  0  0
 23 82  1  0  0  0  0
 24 26  2  0  0  0  0
 24 81  1  0  0  0  0
 25 83  1  0  0  0  0
 26 84  1  0  0  0  0
 27 63  2  0  0  0  0
 28 49  1  0  0  0  0
 28 64  2  0  0  0  0
 29 65  1  0  0  0  0
 29 71  1  0  0  0  0
 30 66  1  0  0  0  0
 30 69  1  0  0  0  0
 31 64  1  0  0  0  0
 31 65  2  0  0  0  0
 31 72  1  0  0  0  0
 32 70  1  0  0  0  0
 32 76  2  0  0  0  0
 33 47  1  0  0  0  0
 33 73  1  0  0  0  0
 33 77  2  0  0  0  0
 34 59  1  0  0  0  0
 34 67  1  0  0  0  0
 34 78  2  0  0  0  0
 35 60  1  0  0  0  0
 35 74  1  0  0  0  0
 35 79  2  0  0  0  0
 36 68  1  0  0  0  0
 36 71  1  0  0  0  0
 36 80  2  0  0  0  0
 37 40  1  0  0  0  0
 38 47  1  0  0  0  0
 39 67  1  0  0  0  0
 40 42  1  0  0  0  0
 41 43  1  0  0  0  0
 41 44  1  0  0  0  0
 42 46  1  0  0  0  0
 43 48  1  0  0  0  0
 44 68  1  0  0  0  0
 45 48  1  0  0  0  0
 45 68  1  0  0  0  0
 46 73  1  0  0  0  0
 47 67  1  0  0  0  0
 48 66  1  0  0  0  0
 50 60  1  0  0  0  0
 51 61  1  0  0  0  0
 52 61  1  0  0  0  0
 53 61  1  0  0  0  0
 54 62  1  0  0  0  0
 55 62  1  0  0  0  0
 56 75  1  0  0  0  0
 57 62  1  0  0  0  0
 57 72  1  0  0  0  0
 58 62  1  0  0  0  0
 58 82  1  0  0  0  0
 59 61  1  0  0  0  0
 59 74  1  0  0  0  0
 60 75  1  0  0  0  0
 63 66  1  0  0  0  0
M  CHG  1  75   1
M  ISO  4  36 100  58 101  71 100  82 101
M  END
> <Batch ID>
0193

> <Smiles>
CNC(C)C(=O)NC(C(=O)N1Cc2cc([101O:1][101CH2:1]C(C)(C)CNc3nc(C)cc([100NH:0][100C:0](=O)N4CCCC(n5nc(-c6ccc(Oc7ccc(F)cc7F)cc6)c(C(N)=O)c5N)C4)n3)ccc2CC1C(=O)NC1CCCc2ccccc21)C(C)(C)C

> <Shape>
0.270

> <Color>
0.076

> <Negative vol penalty>
0.000

$$$$

  -OEChem-04052305303D

 84 92  0     1  0  0  0  0  0999 V2000
  -34.8483  -23.6476    8.6404 C   0  0  0  0  0  0  0  0  0  0  0  0
  -35.2434  -23.3060    9.9299 C   0  0  0  0  0  0  0  0  0  0  0  0
  -22.9284   -9.9782   19.9801 C   0  0  0  0  0  0  0  0  0  0  0  0
  -23.6349  -10.0302   22.2899 C   0  0  0  0  0  0  0  0  0  0  0  0
  -34.0502  -24.7717    8.4319 C   0  0  0  0  0  0  0  0  0  0  0  0
  -34.8415  -24.0890   11.0115 C   0  0  0  0  0  0  0  0  0  0  0  0
  -33.2236  -21.3121   14.9251 C   0  0  0  0  0  0  0  0  0  0  0  0
  -22.1285   -8.8678   20.2497 C   0  0  0  0  0  0  0  0  0  0  0  0
  -22.8349   -8.9198   22.5596 C   0  0  0  0  0  0  0  0  0  0  0  0
  -34.1953  -20.7155   15.7273 C   0  0  0  0  0  0  0  0  0  0  0  0
  -22.9907   -5.5712   22.1196 C   0  0  0  0  0  0  0  0  0  0  0  0
  -23.5433   -4.5451   22.8859 C   0  0  0  0  0  0  0  0  0  0  0  0
  -33.9325  -22.4820   17.3489 C   0  0  0  0  0  0  0  0  0  0  0  0
  -29.9158  -17.6308   22.6820 C   0  0  0  0  0  0  0  0  0  0  0  0
  -31.7621  -19.1770   22.7414 C   0  0  0  0  0  0  0  0  0  0  0  0
  -21.8124   -4.8508   24.5436 C   0  0  0  0  0  0  0  0  0  0  0  0
  -23.6817  -10.5594   21.0002 C   0  0  0  0  0  0  0  0  0  0  0  0
  -24.1381  -13.0616   20.8052 C   0  0  0  0  0  0  0  0  0  0  0  0
  -33.6303  -25.5633    9.5125 C   0  0  0  0  0  0  0  0  0  0  0  0
  -32.6059  -22.5061   15.3243 C   0  0  0  0  0  0  0  0  0  0  0  0
  -34.0382  -25.2255   10.8170 C   0  0  0  0  0  0  0  0  0  0  0  0
  -32.9515  -23.0905   16.5511 C   0  0  0  0  0  0  0  0  0  0  0  0
  -30.4584  -18.8434   23.0961 C   0  0  0  0  0  0  0  0  0  0  0  0
  -22.0817   -8.3386   21.5395 C   0  0  0  0  0  0  0  0  0  0  0  0
  -34.5520  -21.3020   16.9381 C   0  0  0  0  0  0  0  0  0  0  0  0
  -21.8490   -6.2372   22.5653 C   0  0  0  0  0  0  0  0  0  0  0  0
  -22.9542   -4.1849   24.0979 C   0  0  0  0  0  0  0  0  0  0  0  0
  -21.2598   -5.8770   23.7772 C   0  0  0  0  0  0  0  0  0  0  0  0
  -24.5087  -11.7061   20.7222 C   0  0  0  0  0  0  0  0  0  0  0  0
  -25.2705  -13.7499   20.4443 C   0  0  0  0  0  0  0  0  0  0  0  0
  -30.6966  -16.7754   21.9176 C   0  0  0  0  0  0  0  0  0  0  0  0
  -32.4962  -18.2825   21.9757 C   0  0  0  0  0  0  0  0  0  0  0  0
  -22.8824  -13.6464   21.1756 C   0  0  0  0  0  0  0  0  0  0  0  0
  -32.4483  -25.4535   14.1447 C   0  0  0  0  0  0  0  0  0  0  0  0
  -30.3548  -25.8984   16.5822 C   0  0  0  0  0  0  0  0  0  0  0  0
  -29.2439  -24.9301   19.6604 C   0  0  0  0  0  0  0  0  0  0  0  0
  -30.7723  -14.5613   20.7183 C   0  0  0  0  0  0  0  0  0  0  0  0
  -32.8074  -26.7958    9.2328 C   0  0  0  0  0  0  0  0  0  0  0  0
  -31.5404  -23.1228   14.4601 C   0  0  0  0  0  0  0  0  0  0  0  0
  -32.3036  -24.3612   17.0347 C   0  0  0  0  0  0  0  0  0  0  0  0
  -32.1141  -27.3592   10.4706 C   0  0  0  0  0  0  0  0  0  0  0  0
  -29.6066  -12.1191   18.4044 C   0  0  0  0  0  0  0  0  0  0  0  0
  -33.0885  -27.4307   11.6421 C   0  0  0  0  0  0  0  0  0  0  0  0
  -28.1459  -11.9055   18.8080 C   0  0  0  0  0  0  0  0  0  0  0  0
  -30.5030  -12.3486   19.6199 C   0  0  0  0  0  0  0  0  0  0  0  0
  -28.5988  -13.2023   20.9294 C   0  0  0  0  0  0  0  0  0  0  0  0
  -33.6020  -26.0357   12.0185 C   0  0  1  0  0  0  0  0  0  0  0  0
  -31.3456  -24.6128   14.7235 C   0  0  1  0  0  0  0  0  0  0  0  0
  -27.6467  -13.0316   19.7344 C   0  0  2  0  0  0  0  0  0  0  0  0
  -27.5425  -25.5079   21.4122 C   0  0  0  0  0  0  0  0  0  0  0  0
  -32.0463  -28.2914   17.4323 C   0  0  0  0  0  0  0  0  0  0  0  0
  -30.8885  -28.2330   19.6514 C   0  0  0  0  0  0  0  0  0  0  0  0
  -29.5763  -28.6572   17.5727 C   0  0  0  0  0  0  0  0  0  0  0  0
  -27.9521  -22.2759   19.4468 C   0  0  0  0  0  0  0  0  0  0  0  0
  -35.9949  -19.7155   19.8410 C   0  0  0  0  0  0  0  0  0  0  0  0
  -34.4962  -19.7742   21.9486 C   0  0  0  0  0  0  0  0  0  0  0  0
  -35.3850  -20.9155   19.1318 C   0  0  0  0  0  0  0  0  0  1  0  0
  -30.4685  -26.3349   18.0229 C   0  0  1  0  0  0  0  0  0  0  0  0
  -27.8464  -24.6590   20.1876 C   0  0  2  0  0  0  0  0  0  0  0  0
  -35.9116  -19.7917   21.3692 C   0  0  1  0  0  0  0  0  0  0  0  0
  -30.7587  -27.8562   18.1601 C   0  0  0  0  0  0  0  0  0  0  0  0
  -25.7773  -11.5409   20.3384 N   0  0  0  0  0  0  0  0  0  0  0  0
  -26.2137  -12.8017   20.1771 N   0  0  0  0  0  0  0  0  0  0  0  0
  -31.9491  -17.1215   21.5904 N   0  3  0  0  0  0  0  0  0  0  0  0
  -31.2719  -24.9294   16.1513 N   0  0  0  0  0  0  0  0  0  0  0  0
  -29.9703  -13.4322   20.4488 N   0  0  0  0  0  0  0  0  0  0  0  0
  -29.6881  -19.7338   23.8719 N   0  0  0  0  0  0  0  0  0  0  0  0
  -25.5415  -15.0677   20.3325 N   0  0  0  0  0  0  0  0  0  0  0  0
  -21.8236  -12.7943   21.5179 N   0  0  0  0  0  0  0  0  0  0  0  0
  -30.1480  -15.5411   21.4896 N   0  0  0  0  0  0  0  0  0  0  0  0
  -33.7986  -18.5594   21.5941 N   0  0  0  0  0  0  0  0  0  0  0  0
  -32.6018  -25.3169   12.7782 N   0  0  0  0  0  0  0  0  0  0  0  0
  -29.2407  -25.8992   18.6796 N   0  0  0  0  0  0  0  0  0  0  0  0
  -27.7039  -23.2239   20.5634 N   0  3  0  0  0  0  0  0  0  0  0  0
  -22.6999  -14.8874   21.1865 O   0  0  0  0  0  0  0  0  0  0  0  0
  -33.1098  -26.1740   14.8829 O   0  0  0  0  0  0  0  0  0  0  0  0
  -29.4798  -26.3936   15.8676 O   0  0  0  0  0  0  0  0  0  0  0  0
  -30.2394  -24.3437   20.0797 O   0  0  0  0  0  0  0  0  0  0  0  0
  -31.9182  -14.6646   20.2732 O   0  0  0  0  0  0  0  0  0  0  0  0
  -36.6378  -18.6961   21.9295 O   0  0  0  0  0  0  0  0  0  0  0  0
  -21.3011   -7.2552   21.8030 O   0  0  0  0  0  0  0  0  0  0  0  0
  -35.5006  -20.7220   17.7227 O   0  0  0  0  0  0  0  0  0  1  0  0
  -23.4841   -3.1984   24.8329 F   0  0  0  0  0  0  0  0  0  0  0  0
  -20.1622   -6.5124   24.2100 F   0  0  0  0  0  0  0  0  0  0  0  0
  1  2  1  0  0  0  0
  1  5  2  0  0  0  0
  2  6  2  0  0  0  0
  3  8  2  0  0  0  0
  3 17  1  0  0  0  0
  4  9  1  0  0  0  0
  4 17  2  0  0  0  0
  5 19  1  0  0  0  0
  6 21  1  0  0  0  0
  7 10  2  0  0  0  0
  7 20  1  0  0  0  0
  8 24  1  0  0  0  0
  9 24  2  0  0  0  0
 10 25  1  0  0  0  0
 11 12  2  0  0  0  0
 11 26  1  0  0  0  0
 12 27  1  0  0  0  0
 13 22  1  0  0  0  0
 13 25  2  0  0  0  0
 14 23  1  0  0  0  0
 14 31  2  0  0  0  0
 15 23  2  0  0  0  0
 15 32  1  0  0  0  0
 16 27  2  0  0  0  0
 16 28  1  0  0  0  0
 17 29  1  0  0  0  0
 18 29  1  0  0  0  0
 18 30  2  0  0  0  0
 18 33  1  0  0  0  0
 19 21  2  0  0  0  0
 19 38  1  0  0  0  0
 20 22  2  0  0  0  0
 20 39  1  0  0  0  0
 21 47  1  0  0  0  0
 22 40  1  0  0  0  0
 23 67  1  0  0  0  0
 24 81  1  0  0  0  0
 25 82  1  0  0  0  0
 26 28  2  0  0  0  0
 26 81  1  0  0  0  0
 27 83  1  0  0  0  0
 28 84  1  0  0  0  0
 29 62  2  0  0  0  0
 30 63  1  0  0  0  0
 30 68  1  0  0  0  0
 31 64  1  0  0  0  0
 31 70  1  0  0  0  0
 32 64  2  0  0  0  0
 32 71  1  0  0  0  0
 33 69  1  0  0  0  0
 33 75  2  0  0  0  0
 34 48  1  0  0  0  0
 34 72  1  0  0  0  0
 34 76  2  0  0  0  0
 35 58  1  0  0  0  0
 35 65  1  0  0  0  0
 35 77  2  0  0  0  0
 36 59  1  0  0  0  0
 36 73  1  0  0  0  0
 36 78  2  0  0  0  0
 37 66  1  0  0  0  0
 37 70  1  0  0  0  0
 37 79  2  0  0  0  0
 38 41  1  0  0  0  0
 39 48  1  0  0  0  0
 40 65  1  0  0  0  0
 41 43  1  0  0  0  0
 42 44  1  0  0  0  0
 42 45  1  0  0  0  0
 43 47  1  0  0  0  0
 44 49  1  0  0  0  0
 45 66  1  0  0  0  0
 46 49  1  0  0  0  0
 46 66  1  0  0  0  0
 47 72  1  0  0  0  0
 48 65  1  0  0  0  0
 49 63  1  0  0  0  0
 50 59  1  0  0  0  0
 51 61  1  0  0  0  0
 52 61  1  0  0  0  0
 53 61  1  0  0  0  0
 54 74  1  0  0  0  0
 55 57  1  0  0  0  0
 55 60  1  0  0  0  0
 56 60  1  0  0  0  0
 56 71  1  0  0  0  0
 57 82  1  0  0  0  0
 58 61  1  0  0  0  0
 58 73  1  0  0  0  0
 59 74  1  0  0  0  0
 60 80  1  0  0  0  0
 62 63  1  0  0  0  0
M  CHG  2  64   1  74   1
M  ISO  4  37 100  57 101  70 100  82 101
M  END
> <Batch ID>
0193

> <Smiles>
CNC(C)C(=O)NC(C(=O)N1Cc2cc([101O:1][101CH2:1]CC(O)CNc3cc(N)cc([100NH:0][100C:0](=O)N4CCCC(n5nc(-c6ccc(Oc7ccc(F)cc7F)cc6)c(C(N)=O)c5N)C4)n3)ccc2CC1C(=O)NC1CCCc2ccccc21)C(C)(C)C

> <Shape>
0.225

> <Color>
0.184

> <Negative vol penalty>
0.000

$$$$

  -OEChem-04052305303D

 83 91  0     1  0  0  0  0  0999 V2000
  -28.2516  -16.4292   14.5879 C   0  0  0  0  0  0  0  0  0  0  0  0
  -27.4310  -16.7119   15.6752 C   0  0  0  0  0  0  0  0  0  0  0  0
  -23.1158   -9.8284   20.0257 C   0  0  0  0  0  0  0  0  0  0  0  0
  -23.8574   -9.9659   22.3210 C   0  0  0  0  0  0  0  0  0  0  0  0
  -29.5906  -16.8174   14.6070 C   0  0  0  0  0  0  0  0  0  0  0  0
  -27.9493  -17.3821   16.7827 C   0  0  0  0  0  0  0  0  0  0  0  0
  -25.0232  -21.4089   20.3504 C   0  0  0  0  0  0  0  0  0  0  0  0
  -22.3866   -8.6790   20.3301 C   0  0  0  0  0  0  0  0  0  0  0  0
  -23.1281   -8.8165   22.6254 C   0  0  0  0  0  0  0  0  0  0  0  0
  -24.3929  -21.2814   21.5874 C   0  0  0  0  0  0  0  0  0  0  0  0
  -20.6182   -5.5029   20.4232 C   0  0  0  0  0  0  0  0  0  0  0  0
  -20.7036   -4.4261   19.5407 C   0  0  0  0  0  0  0  0  0  0  0  0
  -26.4015  -22.0459   22.6829 C   0  0  0  0  0  0  0  0  0  0  0  0
  -23.0878   -4.3094   19.9139 C   0  0  0  0  0  0  0  0  0  0  0  0
  -31.0099  -17.9111   24.0540 C   0  0  0  0  0  0  0  0  0  0  0  0
  -23.8513  -10.4718   21.0211 C   0  0  0  0  0  0  0  0  0  0  0  0
  -24.1579  -12.9921   20.7721 C   0  0  0  0  0  0  0  0  0  0  0  0
  -30.1231  -17.5012   15.7113 C   0  0  0  0  0  0  0  0  0  0  0  0
  -26.3532  -21.8462   20.2710 C   0  0  0  0  0  0  0  0  0  0  0  0
  -29.2970  -17.7786   16.8172 C   0  0  0  0  0  0  0  0  0  0  0  0
  -27.0456  -22.1805   21.4435 C   0  0  0  0  0  0  0  0  0  0  0  0
  -22.3927   -8.1731   21.6300 C   0  0  0  0  0  0  0  0  0  0  0  0
  -25.0829  -21.5972   22.7541 C   0  0  0  0  0  0  0  0  0  0  0  0
  -21.7676   -5.9830   21.0510 C   0  0  0  0  0  0  0  0  0  0  0  0
  -21.9384   -3.8293   19.2860 C   0  0  0  0  0  0  0  0  0  0  0  0
  -23.0024   -5.3862   20.7963 C   0  0  0  0  0  0  0  0  0  0  0  0
  -24.6053  -11.6589   20.7071 C   0  0  0  0  0  0  0  0  0  0  0  0
  -30.2421  -17.6367   22.9417 C   0  0  0  0  0  0  0  0  0  0  0  0
  -25.2421  -13.7376   20.3780 C   0  0  0  0  0  0  0  0  0  0  0  0
  -28.6667  -18.4381   24.2401 C   0  0  0  0  0  0  0  0  0  0  0  0
  -22.8769  -13.5102   21.1544 C   0  0  0  0  0  0  0  0  0  0  0  0
  -29.0712  -20.5807   19.2151 C   0  0  0  0  0  0  0  0  0  0  0  0
  -30.2378  -23.5430   19.8366 C   0  0  0  0  0  0  0  0  0  0  0  0
  -26.1892  -18.8806   24.1382 C   0  0  0  0  0  0  0  0  0  0  0  0
  -29.9533  -26.4612   21.5832 C   0  0  0  0  0  0  0  0  0  0  0  0
  -30.7090  -14.8455   20.5521 C   0  0  0  0  0  0  0  0  0  0  0  0
  -31.5883  -17.8588   15.7061 C   0  0  0  0  0  0  0  0  0  0  0  0
  -27.0102  -22.0039   18.9271 C   0  0  0  0  0  0  0  0  0  0  0  0
  -28.4683  -22.6737   21.4111 C   0  0  0  0  0  0  0  0  0  0  0  0
  -31.9658  -18.8962   16.7604 C   0  0  0  0  0  0  0  0  0  0  0  0
  -29.6245  -12.3236   18.2849 C   0  0  0  0  0  0  0  0  0  0  0  0
  -31.3474  -18.5374   18.1079 C   0  0  0  0  0  0  0  0  0  0  0  0
  -28.1881  -12.0317   18.7222 C   0  0  0  0  0  0  0  0  0  0  0  0
  -30.5289  -12.6201   19.4791 C   0  0  0  0  0  0  0  0  0  0  0  0
  -28.6060  -13.3943   20.8121 C   0  0  0  0  0  0  0  0  0  0  0  0
  -29.8161  -18.5257   18.0265 C   0  0  1  0  0  0  0  0  0  0  0  0
  -28.5337  -21.9671   18.9989 C   0  0  1  0  0  0  0  0  0  0  0  0
  -27.6438  -13.1444   19.6382 C   0  0  2  0  0  0  0  0  0  0  0  0
  -31.0773  -28.6815   21.9056 C   0  0  0  0  0  0  0  0  0  0  0  0
  -22.7666  -20.3301   25.2003 C   0  0  0  0  0  0  0  0  0  0  0  0
  -32.3971  -22.2020   21.5246 C   0  0  0  0  0  0  0  0  0  0  0  0
  -32.8770  -24.4320   22.5567 C   0  0  0  0  0  0  0  0  0  0  0  0
  -33.2074  -24.0964   20.1071 C   0  0  0  0  0  0  0  0  0  0  0  0
  -27.5654  -27.9368   20.6454 C   0  0  0  0  0  0  0  0  0  0  0  0
  -30.7343  -17.0583   21.6756 C   0  0  0  0  0  0  0  0  0  0  0  0
  -25.1186  -19.4427   25.0683 C   0  0  0  0  0  0  0  0  0  0  0  0
  -30.8591  -24.2174   21.0359 C   0  0  1  0  0  0  0  0  0  0  0  0
  -30.0139  -27.9113   21.1384 C   0  0  2  0  0  0  0  0  0  0  0  0
  -24.0019  -20.1742   24.3233 C   0  0  2  0  0  0  0  0  0  1  0  0
  -32.3090  -23.7258   21.3071 C   0  0  0  0  0  0  0  0  0  0  0  0
  -25.8747  -11.5600   20.3035 N   0  0  0  0  0  0  0  0  0  0  0  0
  -28.8982  -17.9378   23.0467 N   0  0  0  0  0  0  0  0  0  0  0  0
  -26.2342  -12.8405   20.1111 N   0  0  0  0  0  0  0  0  0  0  0  0
  -29.0693  -22.8052   20.0735 N   0  0  0  0  0  0  0  0  0  0  0  0
  -29.9567  -13.6851   20.3063 N   0  0  0  0  0  0  0  0  0  0  0  0
  -25.4340  -15.0664   20.2372 N   0  0  0  0  0  0  0  0  0  0  0  0
  -21.8755  -12.6051   21.5314 N   0  0  0  0  0  0  0  0  0  0  0  0
  -27.4306  -18.8800   24.7688 N   0  0  0  0  0  0  0  0  0  0  0  0
  -29.2985  -19.8770   18.0478 N   0  0  0  0  0  0  0  0  0  0  0  0
  -30.7492  -25.6528   20.7994 N   0  0  0  0  0  0  0  0  0  0  0  0
  -30.0900  -15.8080   21.3403 N   0  0  0  0  0  0  0  0  0  0  0  0
  -28.6991  -28.5768   21.3610 N   0  3  0  0  0  0  0  0  0  0  0  0
  -22.6226  -14.7386   21.1458 O   0  0  0  0  0  0  0  0  0  0  0  0
  -29.2667  -20.1797   20.3565 O   0  0  0  0  0  0  0  0  0  0  0  0
  -30.7656  -23.6722   18.7292 O   0  0  0  0  0  0  0  0  0  0  0  0
  -25.9320  -18.4971   23.0020 O   0  0  0  0  0  0  0  0  0  0  0  0
  -29.2712  -26.0838   22.5334 O   0  0  0  0  0  0  0  0  0  0  0  0
  -31.8459  -15.0139   20.0981 O   0  0  0  0  0  0  0  0  0  0  0  0
  -21.6810   -7.0516   21.9274 O   0  0  0  0  0  0  0  0  0  0  0  0
  -24.4703  -21.4730   23.9629 O   0  0  0  0  0  0  0  0  0  1  0  0
  -22.0201   -2.7943   18.4397 F   0  0  0  0  0  0  0  0  0  0  0  0
  -24.1099   -5.8423   21.3974 F   0  0  0  0  0  0  0  0  0  0  0  0
  -30.0197  -18.5752   25.2869 S   0  0  0  0  0  0  0  0  0  0  0  0
  1  2  1  0  0  0  0
  1  5  2  0  0  0  0
  2  6  2  0  0  0  0
  3  8  2  0  0  0  0
  3 16  1  0  0  0  0
  4  9  1  0  0  0  0
  4 16  2  0  0  0  0
  5 18  1  0  0  0  0
  6 20  1  0  0  0  0
  7 10  2  0  0  0  0
  7 19  1  0  0  0  0
  8 22  1  0  0  0  0
  9 22  2  0  0  0  0
 10 23  1  0  0  0  0
 11 12  2  0  0  0  0
 11 24  1  0  0  0  0
 12 25  1  0  0  0  0
 13 21  1  0  0  0  0
 13 23  2  0  0  0  0
 14 25  2  0  0  0  0
 14 26  1  0  0  0  0
 15 28  2  0  0  0  0
 15 83  1  0  0  0  0
 16 27  1  0  0  0  0
 17 27  1  0  0  0  0
 17 29  2  0  0  0  0
 17 31  1  0  0  0  0
 18 20  2  0  0  0  0
 18 37  1  0  0  0  0
 19 21  2  0  0  0  0
 19 38  1  0  0  0  0
 20 46  1  0  0  0  0
 21 39  1  0  0  0  0
 22 79  1  0  0  0  0
 23 80  1  0  0  0  0
 24 26  2  0  0  0  0
 24 79  1  0  0  0  0
 25 81  1  0  0  0  0
 26 82  1  0  0  0  0
 27 61  2  0  0  0  0
 28 55  1  0  0  0  0
 28 62  1  0  0  0  0
 29 63  1  0  0  0  0
 29 66  1  0  0  0  0
 30 62  2  0  0  0  0
 30 68  1  0  0  0  0
 30 83  1  0  0  0  0
 31 67  1  0  0  0  0
 31 73  2  0  0  0  0
 32 47  1  0  0  0  0
 32 69  1  0  0  0  0
 32 74  2  0  0  0  0
 33 57  1  0  0  0  0
 33 64  1  0  0  0  0
 33 75  2  0  0  0  0
 34 56  1  0  0  0  0
 34 68  1  0  0  0  0
 34 76  2  0  0  0  0
 35 58  1  0  0  0  0
 35 70  1  0  0  0  0
 35 77  2  0  0  0  0
 36 65  1  0  0  0  0
 36 71  1  0  0  0  0
 36 78  2  0  0  0  0
 37 40  1  0  0  0  0
 38 47  1  0  0  0  0
 39 64  1  0  0  0  0
 40 42  1  0  0  0  0
 41 43  1  0  0  0  0
 41 44  1  0  0  0  0
 42 46  1  0  0  0  0
 43 48  1  0  0  0  0
 44 65  1  0  0  0  0
 45 48  1  0  0  0  0
 45 65  1  0  0  0  0
 46 69  1  0  0  0  0
 47 64  1  0  0  0  0
 48 63  1  0  0  0  0
 49 58  1  0  0  0  0
 50 59  1  0  0  0  0
 51 60  1  0  0  0  0
 52 60  1  0  0  0  0
 53 60  1  0  0  0  0
 54 72  1  0  0  0  0
 55 71  1  0  0  0  0
 56 59  1  0  0  0  0
 57 60  1  0  0  0  0
 57 70  1  0  0  0  0
 58 72  1  0  0  0  0
 59 80  1  0  0  0  0
 61 63  1  0  0  0  0
M  CHG  1  72   1
M  ISO  4  36 100  59 101  71 100  80 101
M  END
> <Batch ID>
0193

> <Smiles>
CNC(C)C(=O)NC(C(=O)N1Cc2cc([101O:1][101CH:1](C)CC(=O)Nc3nc(C[100NH:0][100C:0](=O)N4CCCC(n5nc(-c6ccc(Oc7ccc(F)cc7F)cc6)c(C(N)=O)c5N)C4)cs3)ccc2CC1C(=O)NC1CCCc2ccccc21)C(C)(C)C

> <Shape>
0.246

> <Color>
0.205

> <Negative vol penalty>
0.000

$$$$

  -OEChem-04052305303D

 83 91  0     1  0  0  0  0  0999 V2000
  -29.6364  -34.4452   22.6599 C   0  0  0  0  0  0  0  0  0  0  0  0
  -29.8557  -33.0750   22.5602 C   0  0  0  0  0  0  0  0  0  0  0  0
  -27.0153  -12.9761   20.9988 C   0  0  0  0  0  0  0  0  0  0  0  0
  -26.9123  -13.2543   18.6011 C   0  0  0  0  0  0  0  0  0  0  0  0
  -28.3507  -34.9285   22.8993 C   0  0  0  0  0  0  0  0  0  0  0  0
  -28.7896  -32.1873   22.7009 C   0  0  0  0  0  0  0  0  0  0  0  0
  -28.8224  -28.5396   19.1884 C   0  0  0  0  0  0  0  0  0  0  0  0
  -26.3643  -11.7478   20.8843 C   0  0  0  0  0  0  0  0  0  0  0  0
  -26.2613  -12.0260   18.4865 C   0  0  0  0  0  0  0  0  0  0  0  0
  -29.7154  -27.4851   19.3738 C   0  0  0  0  0  0  0  0  0  0  0  0
  -24.4080   -8.7050   21.2552 C   0  0  0  0  0  0  0  0  0  0  0  0
  -23.3717   -8.4328   22.1482 C   0  0  0  0  0  0  0  0  0  0  0  0
  -27.9205  -26.1250   20.2383 C   0  0  0  0  0  0  0  0  0  0  0  0
  -22.1650  -10.3619   21.3359 C   0  0  0  0  0  0  0  0  0  0  0  0
  -27.2893  -13.7294   19.8572 C   0  0  0  0  0  0  0  0  0  0  0  0
  -29.3491  -15.2319   19.9422 C   0  0  0  0  0  0  0  0  0  0  0  0
  -27.2667  -34.0468   23.0334 C   0  0  0  0  0  0  0  0  0  0  0  0
  -27.4716  -28.3980   19.5373 C   0  0  0  0  0  0  0  0  0  0  0  0
  -27.4884  -32.6593   22.9436 C   0  0  0  0  0  0  0  0  0  0  0  0
  -27.0119  -27.1783   20.0540 C   0  0  0  0  0  0  0  0  0  0  0  0
  -25.9873  -11.2727   19.6282 C   0  0  0  0  0  0  0  0  0  0  0  0
  -29.2652  -26.2785   19.9015 C   0  0  0  0  0  0  0  0  0  0  0  0
  -24.3229   -9.8057   20.4026 C   0  0  0  0  0  0  0  0  0  0  0  0
  -22.2502   -9.2612   22.1885 C   0  0  0  0  0  0  0  0  0  0  0  0
  -23.2014  -10.6341   20.4429 C   0  0  0  0  0  0  0  0  0  0  0  0
  -27.9612  -14.9985   19.9749 C   0  0  0  0  0  0  0  0  0  0  0  0
  -26.9143  -22.3408   16.0810 C   0  0  0  0  0  0  0  0  0  0  0  0
  -29.4724  -16.5914   20.0938 C   0  0  0  0  0  0  0  0  0  0  0  0
  -27.1028  -23.0167   14.8937 C   0  0  0  0  0  0  0  0  0  0  0  0
  -28.9351  -23.1068   16.4549 C   0  0  0  0  0  0  0  0  0  0  0  0
  -30.4302  -14.3028   19.7884 C   0  0  0  0  0  0  0  0  0  0  0  0
  -25.5281  -29.8265   21.6075 C   0  0  0  0  0  0  0  0  0  0  0  0
  -23.2763  -27.9918   20.1633 C   0  0  0  0  0  0  0  0  0  0  0  0
  -22.5429  -25.1876   18.3617 C   0  0  0  0  0  0  0  0  0  0  0  0
  -25.8027  -21.1745   18.9189 C   0  0  0  0  0  0  0  0  0  0  0  0
  -25.9029  -34.6140   23.3385 C   0  0  0  0  0  0  0  0  0  0  0  0
  -26.5157  -29.5361   19.3062 C   0  0  0  0  0  0  0  0  0  0  0  0
  -25.5675  -26.9685   20.4257 C   0  0  0  0  0  0  0  0  0  0  0  0
  -24.7648  -33.6245   23.1024 C   0  0  0  0  0  0  0  0  0  0  0  0
  -27.2671  -20.3551   22.0591 C   0  0  0  0  0  0  0  0  0  0  0  0
  -25.1012  -32.2682   23.7141 C   0  0  0  0  0  0  0  0  0  0  0  0
  -27.7363  -18.9104   21.8781 C   0  0  0  0  0  0  0  0  0  0  0  0
  -25.9523  -20.6173   21.3279 C   0  0  0  0  0  0  0  0  0  0  0  0
  -26.4262  -18.8140   19.7163 C   0  0  0  0  0  0  0  0  0  0  0  0
  -26.3534  -31.6658   23.0658 C   0  0  1  0  0  0  0  0  0  0  0  0
  -25.2654  -29.4522   20.1762 C   0  0  1  0  0  0  0  0  0  0  0  0
  -27.7771  -18.5165   20.3893 C   0  0  2  0  0  0  0  0  0  0  0  0
  -20.6097  -23.9369   17.3639 C   0  0  0  0  0  0  0  0  0  0  0  0
  -30.8724  -21.3984   18.2925 C   0  0  0  0  0  0  0  0  0  0  0  0
  -22.5061  -26.9755   22.9353 C   0  0  0  0  0  0  0  0  0  0  0  0
  -21.2840  -25.0914   21.8286 C   0  0  0  0  0  0  0  0  0  0  0  0
  -20.5714  -27.4472   21.4225 C   0  0  0  0  0  0  0  0  0  0  0  0
  -23.6235  -25.4720   15.6212 C   0  0  0  0  0  0  0  0  0  0  0  0
  -25.7074  -21.5821   16.4727 C   0  0  0  0  0  0  0  0  0  0  0  0
  -31.6147  -23.6989   19.0008 C   0  0  0  0  0  0  0  0  0  0  0  0
  -31.2426  -25.1663   19.1883 C   0  0  0  0  0  0  0  0  0  1  0  0
  -22.7202  -26.6065   20.3890 C   0  0  1  0  0  0  0  0  0  0  0  0
  -21.6895  -24.9805   17.1235 C   0  0  2  0  0  0  0  0  0  0  0  0
  -30.4756  -22.8672   18.4029 C   0  0  1  0  0  0  0  0  0  0  0  0
  -21.7981  -26.5344   21.6388 C   0  0  0  0  0  0  0  0  0  0  0  0
  -27.2534  -16.1199   20.1349 N   0  0  0  0  0  0  0  0  0  0  0  0
  -27.9641  -22.3910   16.9773 N   0  0  0  0  0  0  0  0  0  0  0  0
  -28.2004  -17.0710   20.2042 N   0  0  0  0  0  0  0  0  0  0  0  0
  -24.6729  -28.1132   20.1869 N   0  0  0  0  0  0  0  0  0  0  0  0
  -26.0584  -20.2238   19.9209 N   0  0  0  0  0  0  0  0  0  0  0  0
  -30.5437  -17.4114   20.1422 N   0  0  0  0  0  0  0  0  0  0  0  0
  -26.2447  -23.1305   13.8513 N   0  0  0  0  0  0  0  0  0  0  0  0
  -30.1265  -12.9422   19.6444 N   0  0  0  0  0  0  0  0  0  0  0  0
  -30.1405  -23.3617   17.0838 N   0  0  0  0  0  0  0  0  0  0  0  0
  -26.0316  -31.1027   21.7720 N   0  0  0  0  0  0  0  0  0  0  0  0
  -22.0682  -26.2204   19.1423 N   0  0  0  0  0  0  0  0  0  0  0  0
  -25.9318  -20.7205   17.6120 N   0  0  0  0  0  0  0  0  0  0  0  0
  -22.5342  -24.5284   15.9819 N   0  3  0  0  0  0  0  0  0  0  0  0
  -31.6307  -14.6665   19.7955 O   0  0  0  0  0  0  0  0  0  0  0  0
  -25.2901  -29.0178   22.4969 O   0  0  0  0  0  0  0  0  0  0  0  0
  -22.5004  -28.9302   19.9662 O   0  0  0  0  0  0  0  0  0  0  0  0
  -23.5297  -24.4995   18.6134 O   0  0  0  0  0  0  0  0  0  0  0  0
  -25.4883  -22.3427   19.1703 O   0  0  0  0  0  0  0  0  0  0  0  0
  -25.3523  -10.0741   19.5160 O   0  0  0  0  0  0  0  0  0  0  0  0
  -30.1349  -25.2479   20.0842 O   0  0  0  0  0  0  0  0  0  1  0  0
  -21.2543   -8.9988   23.0451 F   0  0  0  0  0  0  0  0  0  0  0  0
  -23.1135  -11.6923   19.6254 F   0  0  0  0  0  0  0  0  0  0  0  0
  -28.6531  -23.7502   14.8892 S   0  0  0  0  0  0  0  0  0  0  0  0
  1  2  1  0  0  0  0
  1  5  2  0  0  0  0
  2  6  2  0  0  0  0
  3  8  2  0  0  0  0
  3 15  1  0  0  0  0
  4  9  1  0  0  0  0
  4 15  2  0  0  0  0
  5 17  1  0  0  0  0
  6 19  1  0  0  0  0
  7 10  2  0  0  0  0
  7 18  1  0  0  0  0
  8 21  1  0  0  0  0
  9 21  2  0  0  0  0
 10 22  1  0  0  0  0
 11 12  2  0  0  0  0
 11 23  1  0  0  0  0
 12 24  1  0  0  0  0
 13 20  1  0  0  0  0
 13 22  2  0  0  0  0
 14 24  2  0  0  0  0
 14 25  1  0  0  0  0
 15 26  1  0  0  0  0
 16 26  1  0  0  0  0
 16 28  2  0  0  0  0
 16 31  1  0  0  0  0
 17 19  2  0  0  0  0
 17 36  1  0  0  0  0
 18 20  2  0  0  0  0
 18 37  1  0  0  0  0
 19 45  1  0  0  0  0
 20 38  1  0  0  0  0
 21 79  1  0  0  0  0
 22 80  1  0  0  0  0
 23 25  2  0  0  0  0
 23 79  1  0  0  0  0
 24 81  1  0  0  0  0
 25 82  1  0  0  0  0
 26 61  2  0  0  0  0
 27 29  2  0  0  0  0
 27 54  1  0  0  0  0
 27 62  1  0  0  0  0
 28 63  1  0  0  0  0
 28 66  1  0  0  0  0
 29 67  1  0  0  0  0
 29 83  1  0  0  0  0
 30 62  2  0  0  0  0
 30 69  1  0  0  0  0
 30 83  1  0  0  0  0
 31 68  1  0  0  0  0
 31 74  2  0  0  0  0
 32 46  1  0  0  0  0
 32 70  1  0  0  0  0
 32 75  2  0  0  0  0
 33 57  1  0  0  0  0
 33 64  1  0  0  0  0
 33 76  2  0  0  0  0
 34 58  1  0  0  0  0
 34 71  1  0  0  0  0
 34 77  2  0  0  0  0
 35 65  1  0  0  0  0
 35 72  1  0  0  0  0
 35 78  2  0  0  0  0
 36 39  1  0  0  0  0
 37 46  1  0  0  0  0
 38 64  1  0  0  0  0
 39 41  1  0  0  0  0
 40 42  1  0  0  0  0
 40 43  1  0  0  0  0
 41 45  1  0  0  0  0
 42 47  1  0  0  0  0
 43 65  1  0  0  0  0
 44 47  1  0  0  0  0
 44 65  1  0  0  0  0
 45 70  1  0  0  0  0
 46 64  1  0  0  0  0
 47 63  1  0  0  0  0
 48 58  1  0  0  0  0
 49 59  1  0  0  0  0
 50 60  1  0  0  0  0
 51 60  1  0  0  0  0
 52 60  1  0  0  0  0
 53 73  1  0  0  0  0
 54 72  1  0  0  0  0
 55 56  1  0  0  0  0
 55 59  1  0  0  0  0
 56 80  1  0  0  0  0
 57 60  1  0  0  0  0
 57 71  1  0  0  0  0
 58 73  1  0  0  0  0
 59 69  1  0  0  0  0
 61 63  1  0  0  0  0
M  CHG  1  73   1
M  ISO  4  35 100  56 101  72 100  80 101
M  END
> <Batch ID>
0193

> <Smiles>
CNC(C)C(=O)NC(C(=O)N1Cc2cc([101O:1][101CH2:1]CC(C)Nc3nc(C[100NH:0][100C:0](=O)N4CCCC(n5nc(-c6ccc(Oc7ccc(F)cc7F)cc6)c(C(N)=O)c5N)C4)c(N)s3)ccc2CC1C(=O)NC1CCCc2ccccc21)C(C)(C)C

> <Shape>
0.256

> <Color>
0.078

> <Negative vol penalty>
0.000

$$$$

  -OEChem-04052305303D

 83 91  0     1  0  0  0  0  0999 V2000
  -26.9953  -32.1133   18.7168 C   0  0  0  0  0  0  0  0  0  0  0  0
  -27.2289  -30.7883   18.3630 C   0  0  0  0  0  0  0  0  0  0  0  0
  -30.1620  -22.9137   20.1486 C   0  0  0  0  0  0  0  0  0  0  0  0
  -28.4254  -22.6932   18.4835 C   0  0  0  0  0  0  0  0  0  0  0  0
  -26.0730  -32.4140   19.7182 C   0  0  0  0  0  0  0  0  0  0  0  0
  -26.5410  -29.7631   19.0112 C   0  0  0  0  0  0  0  0  0  0  0  0
  -23.8114  -23.2480   17.8198 C   0  0  0  0  0  0  0  0  0  0  0  0
  -30.6575  -24.0351   19.4834 C   0  0  0  0  0  0  0  0  0  0  0  0
  -28.9209  -23.8146   17.8182 C   0  0  0  0  0  0  0  0  0  0  0  0
  -23.8400  -21.9561   18.3431 C   0  0  0  0  0  0  0  0  0  0  0  0
  -32.1619  -27.1698   18.4224 C   0  0  0  0  0  0  0  0  0  0  0  0
  -32.4996  -28.2834   19.1914 C   0  0  0  0  0  0  0  0  0  0  0  0
  -22.2118  -22.5989   20.0030 C   0  0  0  0  0  0  0  0  0  0  0  0
  -30.2206  -28.4297   19.9802 C   0  0  0  0  0  0  0  0  0  0  0  0
  -29.0459  -22.2428   19.6487 C   0  0  0  0  0  0  0  0  0  0  0  0
  -27.5612  -21.0595   21.3525 C   0  0  0  0  0  0  0  0  0  0  0  0
  -25.3664  -31.3925   20.3723 C   0  0  0  0  0  0  0  0  0  0  0  0
  -22.9895  -24.2297   18.3920 C   0  0  0  0  0  0  0  0  0  0  0  0
  -25.6094  -30.0503   20.0232 C   0  0  0  0  0  0  0  0  0  0  0  0
  -22.1727  -23.9018   19.4835 C   0  0  0  0  0  0  0  0  0  0  0  0
  -30.0370  -24.4856   18.3182 C   0  0  0  0  0  0  0  0  0  0  0  0
  -23.0423  -21.6321   19.4367 C   0  0  0  0  0  0  0  0  0  0  0  0
  -30.8536  -26.6861   18.4323 C   0  0  0  0  0  0  0  0  0  0  0  0
  -31.5290  -28.9134   19.9703 C   0  0  0  0  0  0  0  0  0  0  0  0
  -29.8830  -27.3161   19.2112 C   0  0  0  0  0  0  0  0  0  0  0  0
  -28.5339  -21.0840   20.3351 C   0  0  0  0  0  0  0  0  0  0  0  0
  -27.4271  -19.7293   21.6673 C   0  0  0  0  0  0  0  0  0  0  0  0
  -23.3891  -14.5206   21.3225 C   0  0  0  0  0  0  0  0  0  0  0  0
  -21.9014  -15.2181   22.6098 C   0  0  0  0  0  0  0  0  0  0  0  0
  -26.8431  -22.1422   21.9587 C   0  0  0  0  0  0  0  0  0  0  0  0
  -23.4937  -27.0283   19.8122 C   0  0  0  0  0  0  0  0  0  0  0  0
  -20.2550  -27.1998   19.7551 C   0  0  0  0  0  0  0  0  0  0  0  0
  -17.2685  -25.5540   19.6154 C   0  0  0  0  0  0  0  0  0  0  0  0
  -26.9323  -14.3889   20.1243 C   0  0  0  0  0  0  0  0  0  0  0  0
  -24.4140  -31.7638   21.4813 C   0  0  0  0  0  0  0  0  0  0  0  0
  -22.9502  -25.6114   17.7990 C   0  0  0  0  0  0  0  0  0  0  0  0
  -21.2577  -24.9139   20.1214 C   0  0  0  0  0  0  0  0  0  0  0  0
  -23.4521  -30.6405   21.8597 C   0  0  0  0  0  0  0  0  0  0  0  0
  -30.2233  -15.7316   20.3307 C   0  0  0  0  0  0  0  0  0  0  0  0
  -24.2036  -29.3214   22.0077 C   0  0  0  0  0  0  0  0  0  0  0  0
  -29.9970  -17.2414   20.4278 C   0  0  0  0  0  0  0  0  0  0  0  0
  -29.2047  -15.0664   19.4077 C   0  0  0  0  0  0  0  0  0  0  0  0
  -27.5684  -16.8599   19.8317 C   0  0  0  0  0  0  0  0  0  0  0  0
  -24.8647  -28.9118   20.6861 C   0  0  1  0  0  0  0  0  0  0  0  0
  -22.4600  -26.6699   18.7823 C   0  0  1  0  0  0  0  0  0  0  0  0
  -28.5368  -17.5669   20.7954 C   0  0  2  0  0  0  0  0  0  0  0  0
  -14.7924  -25.9616   19.6244 C   0  0  0  0  0  0  0  0  0  0  0  0
  -20.3545  -27.7240   22.7593 C   0  0  0  0  0  0  0  0  0  0  0  0
  -17.9133  -27.1786   22.8649 C   0  0  0  0  0  0  0  0  0  0  0  0
  -18.6981  -29.1211   21.5109 C   0  0  0  0  0  0  0  0  0  0  0  0
  -16.9419  -24.3400   16.9362 C   0  0  0  0  0  0  0  0  0  0  0  0
  -24.6204  -13.8684   20.8617 C   0  0  0  0  0  0  0  0  0  0  0  0
  -20.5345  -17.8079   21.0337 C   0  0  0  0  0  0  0  0  0  0  0  0
  -20.4010  -16.2982   20.8007 C   0  0  0  0  0  0  0  0  0  0  0  0
  -21.8709  -19.8942   20.5607 C   0  0  0  0  0  0  0  0  0  1  0  0
  -19.1452  -26.7736   20.6855 C   0  0  1  0  0  0  0  0  0  0  0  0
  -16.0327  -25.7801   18.7633 C   0  0  2  0  0  0  0  0  0  0  0  0
  -21.7911  -18.3824   20.3738 C   0  0  2  0  0  0  0  0  0  0  0  0
  -19.0464  -27.6805   21.9446 C   0  0  0  0  0  0  0  0  0  0  0  0
  -28.9858  -19.8661   20.0243 N   0  0  0  0  0  0  0  0  0  0  0  0
  -23.0384  -14.5627   22.6415 N   0  0  0  0  0  0  0  0  0  0  0  0
  -22.5406  -15.1088   20.4766 N   0  0  0  0  0  0  0  0  0  0  0  0
  -28.2941  -19.0639   20.8513 N   0  0  0  0  0  0  0  0  0  0  0  0
  -21.5982  -15.5467   21.3253 N   0  0  0  0  0  0  0  0  0  0  0  0
  -21.2594  -26.2529   19.5095 N   0  0  0  0  0  0  0  0  0  0  0  0
  -27.8401  -15.4140   19.8115 N   0  0  0  0  0  0  0  0  0  0  0  0
  -26.6534  -19.0756   22.5597 N   0  0  0  0  0  0  0  0  0  0  0  0
  -21.0732  -15.5684   23.6191 N   0  0  0  0  0  0  0  0  0  0  0  0
  -27.1025  -23.4466   21.5165 N   0  0  0  0  0  0  0  0  0  0  0  0
  -23.8827  -28.3539   19.7812 N   0  0  0  0  0  0  0  0  0  0  0  0
  -17.9294  -26.7349   19.8801 N   0  0  0  0  0  0  0  0  0  0  0  0
  -25.6621  -14.8053   20.5037 N   0  0  0  0  0  0  0  0  0  0  0  0
  -15.8094  -24.6188   17.8564 N   0  3  0  0  0  0  0  0  0  0  0  0
  -26.0083  -21.9600   22.8771 O   0  0  0  0  0  0  0  0  0  0  0  0
  -23.9067  -26.1664   20.5792 O   0  0  0  0  0  0  0  0  0  0  0  0
  -20.2277  -28.3287   19.2585 O   0  0  0  0  0  0  0  0  0  0  0  0
  -17.6111  -24.4417   20.0102 O   0  0  0  0  0  0  0  0  0  0  0  0
  -27.2331  -13.1914   20.0748 O   0  0  0  0  0  0  0  0  0  0  0  0
  -21.7484  -18.0950   18.9762 O   0  0  0  0  0  0  0  0  0  0  0  0
  -30.5201  -25.5799   17.6689 O   0  0  0  0  0  0  0  0  0  0  0  0
  -23.0688  -20.3720   19.9498 O   0  0  0  0  0  0  0  0  0  1  0  0
  -31.8537  -29.9819   20.7099 F   0  0  0  0  0  0  0  0  0  0  0  0
  -28.6247  -26.8553   19.2256 F   0  0  0  0  0  0  0  0  0  0  0  0
  1  2  1  0  0  0  0
  1  5  2  0  0  0  0
  2  6  2  0  0  0  0
  3  8  2  0  0  0  0
  3 15  1  0  0  0  0
  4  9  1  0  0  0  0
  4 15  2  0  0  0  0
  5 17  1  0  0  0  0
  6 19  1  0  0  0  0
  7 10  2  0  0  0  0
  7 18  1  0  0  0  0
  8 21  1  0  0  0  0
  9 21  2  0  0  0  0
 10 22  1  0  0  0  0
 11 12  2  0  0  0  0
 11 23  1  0  0  0  0
 12 24  1  0  0  0  0
 13 20  1  0  0  0  0
 13 22  2  0  0  0  0
 14 24  2  0  0  0  0
 14 25  1  0  0  0  0
 15 26  1  0  0  0  0
 16 26  1  0  0  0  0
 16 27  2  0  0  0  0
 16 30  1  0  0  0  0
 17 19  2  0  0  0  0
 17 35  1  0  0  0  0
 18 20  2  0  0  0  0
 18 36  1  0  0  0  0
 19 44  1  0  0  0  0
 20 37  1  0  0  0  0
 21 80  1  0  0  0  0
 22 81  1  0  0  0  0
 23 25  2  0  0  0  0
 23 80  1  0  0  0  0
 24 82  1  0  0  0  0
 25 83  1  0  0  0  0
 26 60  2  0  0  0  0
 27 63  1  0  0  0  0
 27 67  1  0  0  0  0
 28 52  1  0  0  0  0
 28 61  1  0  0  0  0
 28 62  2  0  0  0  0
 29 61  2  0  0  0  0
 29 64  1  0  0  0  0
 29 68  1  0  0  0  0
 30 69  1  0  0  0  0
 30 74  2  0  0  0  0
 31 45  1  0  0  0  0
 31 70  1  0  0  0  0
 31 75  2  0  0  0  0
 32 56  1  0  0  0  0
 32 65  1  0  0  0  0
 32 76  2  0  0  0  0
 33 57  1  0  0  0  0
 33 71  1  0  0  0  0
 33 77  2  0  0  0  0
 34 66  1  0  0  0  0
 34 72  1  0  0  0  0
 34 78  2  0  0  0  0
 35 38  1  0  0  0  0
 36 45  1  0  0  0  0
 37 65  1  0  0  0  0
 38 40  1  0  0  0  0
 39 41  1  0  0  0  0
 39 42  1  0  0  0  0
 40 44  1  0  0  0  0
 41 46  1  0  0  0  0
 42 66  1  0  0  0  0
 43 46  1  0  0  0  0
 43 66  1  0  0  0  0
 44 70  1  0  0  0  0
 45 65  1  0  0  0  0
 46 63  1  0  0  0  0
 47 57  1  0  0  0  0
 48 59  1  0  0  0  0
 49 59  1  0  0  0  0
 50 59  1  0  0  0  0
 51 73  1  0  0  0  0
 52 72  1  0  0  0  0
 53 54  1  0  0  0  0
 53 58  1  0  0  0  0
 54 64  1  0  0  0  0
 55 58  1  0  0  0  0
 55 81  1  0  0  0  0
 56 59  1  0  0  0  0
 56 71  1  0  0  0  0
 57 73  1  0  0  0  0
 58 79  1  0  0  0  0
 60 63  1  0  0  0  0
 62 64  1  0  0  0  0
M  CHG  1  73   1
M  ISO  4  34 100  55 101  72 100  81 101
M  END
> <Batch ID>
0193

> <Smiles>
CNC(C)C(=O)NC(C(=O)N1Cc2cc([101O:1][101CH2:1]C(O)CCn3nc(C[100NH:0][100C:0](=O)N4CCCC(n5nc(-c6ccc(Oc7ccc(F)cc7F)cc6)c(C(N)=O)c5N)C4)nc3N)ccc2CC1C(=O)NC1CCCc2ccccc21)C(C)(C)C

> <Shape>
0.219

> <Color>
0.055

> <Negative vol penalty>
0.000

$$$$

  -OEChem-04052305303D

 83 91  0     1  0  0  0  0  0999 V2000
  -17.1771  -30.4908   21.2174 C   0  0  0  0  0  0  0  0  0  0  0  0
  -18.3985  -30.4813   20.5513 C   0  0  0  0  0  0  0  0  0  0  0  0
  -26.5820  -12.9024   21.7761 C   0  0  0  0  0  0  0  0  0  0  0  0
  -26.0072  -14.2514   19.8560 C   0  0  0  0  0  0  0  0  0  0  0  0
  -17.1277  -30.2201   22.5842 C   0  0  0  0  0  0  0  0  0  0  0  0
  -19.5713  -30.2020   21.2520 C   0  0  0  0  0  0  0  0  0  0  0  0
  -24.4819  -27.1983   19.1616 C   0  0  0  0  0  0  0  0  0  0  0  0
  -25.3118  -12.3266   21.7519 C   0  0  0  0  0  0  0  0  0  0  0  0
  -24.7369  -13.6756   19.8317 C   0  0  0  0  0  0  0  0  0  0  0  0
  -25.7050  -27.6371   18.6564 C   0  0  0  0  0  0  0  0  0  0  0  0
  -23.6941   -9.9351   19.9922 C   0  0  0  0  0  0  0  0  0  0  0  0
  -23.6067   -8.5512   20.1430 C   0  0  0  0  0  0  0  0  0  0  0  0
  -26.6961  -27.3688   20.8393 C   0  0  0  0  0  0  0  0  0  0  0  0
  -22.2564   -8.8523   22.1237 C   0  0  0  0  0  0  0  0  0  0  0  0
  -30.2734  -24.1115   19.8811 C   0  0  0  0  0  0  0  0  0  0  0  0
  -26.9297  -13.8648   20.8282 C   0  0  0  0  0  0  0  0  0  0  0  0
  -29.3949  -14.0044   20.1871 C   0  0  0  0  0  0  0  0  0  0  0  0
  -18.2993  -29.9278   23.3000 C   0  0  0  0  0  0  0  0  0  0  0  0
  -24.3538  -26.8513   20.5143 C   0  0  0  0  0  0  0  0  0  0  0  0
  -19.5376  -29.9284   22.6299 C   0  0  0  0  0  0  0  0  0  0  0  0
  -25.4709  -26.9235   21.3587 C   0  0  0  0  0  0  0  0  0  0  0  0
  -29.7093  -24.1352   18.6219 C   0  0  0  0  0  0  0  0  0  0  0  0
  -24.3892  -12.7132   20.7797 C   0  0  0  0  0  0  0  0  0  0  0  0
  -26.8116  -27.7252   19.4959 C   0  0  0  0  0  0  0  0  0  0  0  0
  -23.0627  -10.7777   20.9072 C   0  0  0  0  0  0  0  0  0  0  0  0
  -22.8878   -8.0098   21.2087 C   0  0  0  0  0  0  0  0  0  0  0  0
  -22.3438  -10.2363   21.9729 C   0  0  0  0  0  0  0  0  0  0  0  0
  -28.2415  -14.4604   20.8531 C   0  0  0  0  0  0  0  0  0  0  0  0
  -29.1320  -22.9535   18.2041 C   0  0  0  0  0  0  0  0  0  0  0  0
  -30.3697  -14.9092   20.5300 C   0  0  0  0  0  0  0  0  0  0  0  0
  -29.6849  -21.9336   20.1589 C   0  0  0  0  0  0  0  0  0  0  0  0
  -29.5695  -12.8648   19.3348 C   0  0  0  0  0  0  0  0  0  0  0  0
  -22.6351  -27.9404   22.9563 C   0  0  0  0  0  0  0  0  0  0  0  0
  -23.9054  -25.3784   24.4876 C   0  0  0  0  0  0  0  0  0  0  0  0
  -26.4241  -23.0854   24.6990 C   0  0  0  0  0  0  0  0  0  0  0  0
  -30.2068  -20.6294   22.2500 C   0  0  0  0  0  0  0  0  0  0  0  0
  -18.2015  -29.6880   24.7858 C   0  0  0  0  0  0  0  0  0  0  0  0
  -23.0341  -26.3544   21.0377 C   0  0  0  0  0  0  0  0  0  0  0  0
  -25.3909  -26.5434   22.8139 C   0  0  0  0  0  0  0  0  0  0  0  0
  -19.4456  -29.0330   25.3803 C   0  0  0  0  0  0  0  0  0  0  0  0
  -31.6281  -17.9047   24.0482 C   0  0  0  0  0  0  0  0  0  0  0  0
  -20.7070  -29.7255   24.8742 C   0  0  0  0  0  0  0  0  0  0  0  0
  -31.0307  -16.6706   23.3683 C   0  0  0  0  0  0  0  0  0  0  0  0
  -30.6229  -19.0524   24.1249 C   0  0  0  0  0  0  0  0  0  0  0  0
  -29.4050  -18.1869   22.1661 C   0  0  0  0  0  0  0  0  0  0  0  0
  -20.8287  -29.6055   23.3503 C   0  0  1  0  0  0  0  0  0  0  0  0
  -22.8907  -26.5173   22.5478 C   0  0  1  0  0  0  0  0  0  0  0  0
  -30.4009  -17.0264   22.0073 C   0  0  2  0  0  0  0  0  0  0  0  0
  -27.2070  -21.1406   26.0783 C   0  0  0  0  0  0  0  0  0  0  0  0
  -31.8526  -26.4182   18.1287 C   0  0  0  0  0  0  0  0  0  0  0  0
  -24.8470  -27.3020   26.6608 C   0  0  0  0  0  0  0  0  0  0  0  0
  -26.3922  -25.5103   27.4797 C   0  0  0  0  0  0  0  0  0  0  0  0
  -23.9258  -25.1379   27.5108 C   0  0  0  0  0  0  0  0  0  0  0  0
  -26.2635  -21.2365   22.3936 C   0  0  0  0  0  0  0  0  0  0  0  0
  -29.7853  -27.6930   17.4606 C   0  0  0  0  0  0  0  0  0  0  0  0
  -28.2810  -27.8793   17.6323 C   0  0  0  0  0  0  0  0  0  1  0  0
  -25.1529  -25.1291   25.3003 C   0  0  1  0  0  0  0  0  0  0  0  0
  -26.4014  -21.5765   24.8643 C   0  0  2  0  0  0  0  0  0  0  0  0
  -30.3388  -26.5258   18.2840 C   0  0  1  0  0  0  0  0  0  0  0  0
  -25.0808  -25.7789   26.7110 C   0  0  0  0  0  0  0  0  0  0  0  0
  -30.2791  -23.0240   20.6796 N   0  0  0  0  0  0  0  0  0  0  0  0
  -28.4615  -15.5687   21.5652 N   0  0  0  0  0  0  0  0  0  0  0  0
  -29.1018  -21.8292   18.9494 N   0  0  0  0  0  0  0  0  0  0  0  0
  -29.7645  -15.8167   21.3488 N   0  0  0  0  0  0  0  0  0  0  0  0
  -24.0772  -26.0694   23.2798 N   0  0  0  0  0  0  0  0  0  0  0  0
  -30.0712  -19.3364   22.7983 N   0  0  0  0  0  0  0  0  0  0  0  0
  -28.5348  -22.9121   16.9194 N   0  0  0  0  0  0  0  0  0  0  0  0
  -31.6769  -15.0091   20.2079 N   0  0  0  0  0  0  0  0  0  0  0  0
  -28.4638  -12.0399   19.0872 N   0  0  0  0  0  0  0  0  0  0  0  0
  -29.7346  -25.2832   17.8506 N   0  0  0  0  0  0  0  0  0  0  0  0
  -29.6722  -20.7718   20.9700 N   0  0  0  0  0  0  0  0  0  0  0  0
  -21.2976  -28.2866   22.9830 N   0  0  0  0  0  0  0  0  0  0  0  0
  -25.3466  -23.6832   25.3177 N   0  0  0  0  0  0  0  0  0  0  0  0
  -26.9740  -20.9146   23.6580 N   0  3  0  0  0  0  0  0  0  0  0  0
  -30.6773  -12.5770   18.8215 O   0  0  0  0  0  0  0  0  0  0  0  0
  -23.5812  -28.6700   23.2287 O   0  0  0  0  0  0  0  0  0  0  0  0
  -22.8195  -24.9687   24.9054 O   0  0  0  0  0  0  0  0  0  0  0  0
  -27.3112  -23.6750   24.0858 O   0  0  0  0  0  0  0  0  0  0  0  0
  -30.7808  -21.5357   22.8593 O   0  0  0  0  0  0  0  0  0  0  0  0
  -23.1498  -12.1514   20.7556 O   0  0  0  0  0  0  0  0  0  0  0  0
  -28.0065  -28.1537   19.0055 O   0  0  0  0  0  0  0  0  0  1  0  0
  -22.8027   -6.6808   21.3526 F   0  0  0  0  0  0  0  0  0  0  0  0
  -21.7341  -11.0406   22.8544 F   0  0  0  0  0  0  0  0  0  0  0  0
  1  2  1  0  0  0  0
  1  5  2  0  0  0  0
  2  6  2  0  0  0  0
  3  8  2  0  0  0  0
  3 16  1  0  0  0  0
  4  9  1  0  0  0  0
  4 16  2  0  0  0  0
  5 18  1  0  0  0  0
  6 20  1  0  0  0  0
  7 10  2  0  0  0  0
  7 19  1  0  0  0  0
  8 23  1  0  0  0  0
  9 23  2  0  0  0  0
 10 24  1  0  0  0  0
 11 12  2  0  0  0  0
 11 25  1  0  0  0  0
 12 26  1  0  0  0  0
 13 21  1  0  0  0  0
 13 24  2  0  0  0  0
 14 26  2  0  0  0  0
 14 27  1  0  0  0  0
 15 22  1  0  0  0  0
 15 61  2  0  0  0  0
 16 28  1  0  0  0  0
 17 28  1  0  0  0  0
 17 30  2  0  0  0  0
 17 32  1  0  0  0  0
 18 20  2  0  0  0  0
 18 37  1  0  0  0  0
 19 21  2  0  0  0  0
 19 38  1  0  0  0  0
 20 46  1  0  0  0  0
 21 39  1  0  0  0  0
 22 29  2  0  0  0  0
 22 70  1  0  0  0  0
 23 80  1  0  0  0  0
 24 81  1  0  0  0  0
 25 27  2  0  0  0  0
 25 80  1  0  0  0  0
 26 82  1  0  0  0  0
 27 83  1  0  0  0  0
 28 62  2  0  0  0  0
 29 63  1  0  0  0  0
 29 67  1  0  0  0  0
 30 64  1  0  0  0  0
 30 68  1  0  0  0  0
 31 61  1  0  0  0  0
 31 63  2  0  0  0  0
 31 71  1  0  0  0  0
 32 69  1  0  0  0  0
 32 75  2  0  0  0  0
 33 47  1  0  0  0  0
 33 72  1  0  0  0  0
 33 76  2  0  0  0  0
 34 57  1  0  0  0  0
 34 65  1  0  0  0  0
 34 77  2  0  0  0  0
 35 58  1  0  0  0  0
 35 73  1  0  0  0  0
 35 78  2  0  0  0  0
 36 66  1  0  0  0  0
 36 71  1  0  0  0  0
 36 79  2  0  0  0  0
 37 40  1  0  0  0  0
 38 47  1  0  0  0  0
 39 65  1  0  0  0  0
 40 42  1  0  0  0  0
 41 43  1  0  0  0  0
 41 44  1  0  0  0  0
 42 46  1  0  0  0  0
 43 48  1  0  0  0  0
 44 66  1  0  0  0  0
 45 48  1  0  0  0  0
 45 66  1  0  0  0  0
 46 72  1  0  0  0  0
 47 65  1  0  0  0  0
 48 64  1  0  0  0  0
 49 58  1  0  0  0  0
 50 59  1  0  0  0  0
 51 60  1  0  0  0  0
 52 60  1  0  0  0  0
 53 60  1  0  0  0  0
 54 74  1  0  0  0  0
 55 56  1  0  0  0  0
 55 59  1  0  0  0  0
 56 81  1  0  0  0  0
 57 60  1  0  0  0  0
 57 73  1  0  0  0  0
 58 74  1  0  0  0  0
 59 70  1  0  0  0  0
 62 64  1  0  0  0  0
M  CHG  1  74   1
M  ISO  4  36 100  56 101  71 100  81 101
M  END
> <Batch ID>
0193

> <Smiles>
CNC(C)C(=O)NC(C(=O)N1Cc2cc([101O:1][101CH2:1]CC(C)Nc3cnc([100NH:0][100C:0](=O)N4CCCC(n5nc(-c6ccc(Oc7ccc(F)cc7F)cc6)c(C(N)=O)c5N)C4)nc3N)ccc2CC1C(=O)NC1CCCc2ccccc21)C(C)(C)C

> <Shape>
0.261

> <Color>
0.078

> <Negative vol penalty>
0.000

$$$$

  -OEChem-04052305303D

 83 91  0     1  0  0  0  0  0999 V2000
  -28.4144  -11.8954   18.6539 C   0  0  0  0  0  0  0  0  0  0  0  0
  -27.9856  -13.0027   17.9290 C   0  0  0  0  0  0  0  0  0  0  0  0
  -29.4833  -28.1591   20.1117 C   0  0  0  0  0  0  0  0  0  0  0  0
  -27.7711  -26.7430   19.1630 C   0  0  0  0  0  0  0  0  0  0  0  0
  -27.7214  -11.5014   19.7978 C   0  0  0  0  0  0  0  0  0  0  0  0
  -26.8627  -13.7160   18.3471 C   0  0  0  0  0  0  0  0  0  0  0  0
  -24.1987  -20.3647   18.4683 C   0  0  0  0  0  0  0  0  0  0  0  0
  -30.4107  -27.1254   19.9810 C   0  0  0  0  0  0  0  0  0  0  0  0
  -28.6986  -25.7093   19.0322 C   0  0  0  0  0  0  0  0  0  0  0  0
  -23.0512  -21.0719   18.1121 C   0  0  0  0  0  0  0  0  0  0  0  0
  -30.1428  -23.3910   21.0248 C   0  0  0  0  0  0  0  0  0  0  0  0
  -29.7492  -22.1131   21.4217 C   0  0  0  0  0  0  0  0  0  0  0  0
  -21.9796  -20.3465   20.1479 C   0  0  0  0  0  0  0  0  0  0  0  0
  -30.1338  -21.2984   19.1800 C   0  0  0  0  0  0  0  0  0  0  0  0
  -28.1635  -27.9678   19.7028 C   0  0  0  0  0  0  0  0  0  0  0  0
  -26.9040  -30.0326   18.8916 C   0  0  0  0  0  0  0  0  0  0  0  0
  -26.5952  -12.2161   20.2355 C   0  0  0  0  0  0  0  0  0  0  0  0
  -24.2415  -19.6330   19.6638 C   0  0  0  0  0  0  0  0  0  0  0  0
  -26.1532  -13.3304   19.4971 C   0  0  0  0  0  0  0  0  0  0  0  0
  -23.1297  -19.6330   20.5182 C   0  0  0  0  0  0  0  0  0  0  0  0
  -30.0184  -25.9006   19.4412 C   0  0  0  0  0  0  0  0  0  0  0  0
  -21.9404  -21.0605   18.9505 C   0  0  0  0  0  0  0  0  0  0  0  0
  -30.5318  -23.6227   19.7055 C   0  0  0  0  0  0  0  0  0  0  0  0
  -29.7447  -21.0668   20.4993 C   0  0  0  0  0  0  0  0  0  0  0  0
  -30.5274  -22.5764   18.7831 C   0  0  0  0  0  0  0  0  0  0  0  0
  -27.2049  -29.0350   19.8382 C   0  0  0  0  0  0  0  0  0  0  0  0
  -17.9974  -27.7987   22.8655 C   0  0  0  0  0  0  0  0  0  0  0  0
  -25.9359  -30.7976   19.4948 C   0  0  0  0  0  0  0  0  0  0  0  0
  -18.2492  -27.0169   21.7575 C   0  0  0  0  0  0  0  0  0  0  0  0
  -20.1284  -28.2542   22.6179 C   0  0  0  0  0  0  0  0  0  0  0  0
  -27.4508  -30.2484   17.5838 C   0  0  0  0  0  0  0  0  0  0  0  0
  -24.6111  -16.5637   20.4031 C   0  0  0  0  0  0  0  0  0  0  0  0
  -24.6716  -17.7045   23.4391 C   0  0  0  0  0  0  0  0  0  0  0  0
  -23.8061  -20.1817   25.6211 C   0  0  0  0  0  0  0  0  0  0  0  0
  -21.8917  -29.6579   23.7435 C   0  0  0  0  0  0  0  0  0  0  0  0
  -25.8506  -11.7240   21.4513 C   0  0  0  0  0  0  0  0  0  0  0  0
  -25.4963  -18.8972   20.0465 C   0  0  0  0  0  0  0  0  0  0  0  0
  -23.1319  -18.8797   21.8225 C   0  0  0  0  0  0  0  0  0  0  0  0
  -24.8919  -12.7571   22.0378 C   0  0  0  0  0  0  0  0  0  0  0  0
  -24.4071  -32.1766   23.8186 C   0  0  0  0  0  0  0  0  0  0  0  0
  -24.0607  -13.4017   20.9331 C   0  0  0  0  0  0  0  0  0  0  0  0
  -25.3795  -31.7509   22.7162 C   0  0  0  0  0  0  0  0  0  0  0  0
  -23.8335  -30.9732   24.5647 C   0  0  0  0  0  0  0  0  0  0  0  0
  -24.1954  -29.5208   22.6080 C   0  0  0  0  0  0  0  0  0  0  0  0
  -24.9542  -14.1447   19.9326 C   0  0  1  0  0  0  0  0  0  0  0  0
  -25.2467  -17.7670   21.0402 C   0  0  1  0  0  0  0  0  0  0  0  0
  -24.7497  -30.6958   21.7858 C   0  0  2  0  0  0  0  0  0  0  0  0
  -16.6992  -27.9404   23.5582 C   0  0  0  0  0  0  0  0  0  0  0  0
  -23.7146  -21.4541   27.7821 C   0  0  0  0  0  0  0  0  0  0  0  0
  -16.4780  -25.1203   19.0998 C   0  0  0  0  0  0  0  0  0  0  0  0
  -22.4566  -15.7122   24.0986 C   0  0  0  0  0  0  0  0  0  0  0  0
  -22.0065  -17.0114   26.1909 C   0  0  0  0  0  0  0  0  0  0  0  0
  -24.2259  -15.9237   25.8534 C   0  0  0  0  0  0  0  0  0  0  0  0
  -26.2646  -21.6946   24.9686 C   0  0  0  0  0  0  0  0  0  0  0  0
  -19.3036  -23.5305   19.2219 C   0  0  0  0  0  0  0  0  0  0  0  0
  -18.4395  -24.1331   20.3385 C   0  0  0  0  0  0  0  0  0  0  0  0
  -20.0158  -22.2588   19.6689 C   0  0  0  0  0  0  0  0  0  1  0  0
  -23.6326  -17.9753   24.5003 C   0  0  1  0  0  0  0  0  0  0  0  0
  -24.6103  -20.9233   26.6736 C   0  0  2  0  0  0  0  0  0  0  0  0
  -17.7375  -25.4272   19.9038 C   0  0  2  0  0  0  0  0  0  0  0  0
  -23.0794  -16.6684   25.1354 C   0  0  0  0  0  0  0  0  0  0  0  0
  -26.4862  -29.1530   20.9578 N   0  0  0  0  0  0  0  0  0  0  0  0
  -19.0739  -28.5086   23.3605 N   0  0  0  0  0  0  0  0  0  0  0  0
  -25.7242  -30.2338   20.7186 N   0  0  0  0  0  0  0  0  0  0  0  0
  -24.3801  -18.1707   22.1494 N   0  0  0  0  0  0  0  0  0  0  0  0
  -23.2502  -30.0185   23.6197 N   0  0  0  0  0  0  0  0  0  0  0  0
  -25.2535  -31.8908   19.0926 N   0  0  0  0  0  0  0  0  0  0  0  0
  -28.4374  -29.3685   17.1186 N   0  0  0  0  0  0  0  0  0  0  0  0
  -17.3653  -26.2102   21.0636 N   0  0  0  0  0  0  0  0  0  0  0  0
  -21.4401  -28.7683   22.7692 N   0  0  0  0  0  0  0  0  0  0  0  0
  -25.3770  -15.4161   20.4796 N   0  0  0  0  0  0  0  0  0  0  0  0
  -24.2525  -18.8877   25.4551 N   0  0  0  0  0  0  0  0  0  0  0  0
  -25.3303  -22.0745   26.0594 N   0  3  0  0  0  0  0  0  0  0  0  0
  -27.0872  -31.2033   16.8562 O   0  0  0  0  0  0  0  0  0  0  0  0
  -23.5069  -16.6684   19.8821 O   0  0  0  0  0  0  0  0  0  0  0  0
  -25.7069  -17.1077   23.7449 O   0  0  0  0  0  0  0  0  0  0  0  0
  -22.8727  -20.6975   25.0101 O   0  0  0  0  0  0  0  0  0  0  0  0
  -21.1742  -30.1264   24.6310 O   0  0  0  0  0  0  0  0  0  0  0  0
  -30.9231  -24.8918   19.3132 O   0  0  0  0  0  0  0  0  0  0  0  0
  -20.8188  -21.7494   18.6049 O   0  0  0  0  0  0  0  0  0  1  0  0
  -29.3681  -19.8393   20.8810 F   0  0  0  0  0  0  0  0  0  0  0  0
  -30.9012  -22.7925   17.5145 F   0  0  0  0  0  0  0  0  0  0  0  0
  -19.8970  -27.1707   21.3074 S   0  0  0  0  0  0  0  0  0  0  0  0
  1  2  1  0  0  0  0
  1  5  2  0  0  0  0
  2  6  2  0  0  0  0
  3  8  2  0  0  0  0
  3 15  1  0  0  0  0
  4  9  1  0  0  0  0
  4 15  2  0  0  0  0
  5 17  1  0  0  0  0
  6 19  1  0  0  0  0
  7 10  2  0  0  0  0
  7 18  1  0  0  0  0
  8 21  1  0  0  0  0
  9 21  2  0  0  0  0
 10 22  1  0  0  0  0
 11 12  2  0  0  0  0
 11 23  1  0  0  0  0
 12 24  1  0  0  0  0
 13 20  1  0  0  0  0
 13 22  2  0  0  0  0
 14 24  2  0  0  0  0
 14 25  1  0  0  0  0
 15 26  1  0  0  0  0
 16 26  1  0  0  0  0
 16 28  2  0  0  0  0
 16 31  1  0  0  0  0
 17 19  2  0  0  0  0
 17 36  1  0  0  0  0
 18 20  2  0  0  0  0
 18 37  1  0  0  0  0
 19 45  1  0  0  0  0
 20 38  1  0  0  0  0
 21 79  1  0  0  0  0
 22 80  1  0  0  0  0
 23 25  2  0  0  0  0
 23 79  1  0  0  0  0
 24 81  1  0  0  0  0
 25 82  1  0  0  0  0
 26 62  2  0  0  0  0
 27 29  2  0  0  0  0
 27 48  1  0  0  0  0
 27 63  1  0  0  0  0
 28 64  1  0  0  0  0
 28 67  1  0  0  0  0
 29 69  1  0  0  0  0
 29 83  1  0  0  0  0
 30 63  2  0  0  0  0
 30 70  1  0  0  0  0
 30 83  1  0  0  0  0
 31 68  1  0  0  0  0
 31 74  2  0  0  0  0
 32 46  1  0  0  0  0
 32 71  1  0  0  0  0
 32 75  2  0  0  0  0
 33 58  1  0  0  0  0
 33 65  1  0  0  0  0
 33 76  2  0  0  0  0
 34 59  1  0  0  0  0
 34 72  1  0  0  0  0
 34 77  2  0  0  0  0
 35 66  1  0  0  0  0
 35 70  1  0  0  0  0
 35 78  2  0  0  0  0
 36 39  1  0  0  0  0
 37 46  1  0  0  0  0
 38 65  1  0  0  0  0
 39 41  1  0  0  0  0
 40 42  1  0  0  0  0
 40 43  1  0  0  0  0
 41 45  1  0  0  0  0
 42 47  1  0  0  0  0
 43 66  1  0  0  0  0
 44 47  1  0  0  0  0
 44 66  1  0  0  0  0
 45 71  1  0  0  0  0
 46 65  1  0  0  0  0
 47 64  1  0  0  0  0
 49 59  1  0  0  0  0
 50 60  1  0  0  0  0
 51 61  1  0  0  0  0
 52 61  1  0  0  0  0
 53 61  1  0  0  0  0
 54 73  1  0  0  0  0
 55 56  1  0  0  0  0
 55 57  1  0  0  0  0
 56 60  1  0  0  0  0
 57 80  1  0  0  0  0
 58 61  1  0  0  0  0
 58 72  1  0  0  0  0
 59 73  1  0  0  0  0
 60 69  1  0  0  0  0
 62 64  1  0  0  0  0
M  CHG  1  73   1
M  ISO  4  35 100  57 101  70 100  80 101
M  END
> <Batch ID>
0193

> <Smiles>
CNC(C)C(=O)NC(C(=O)N1Cc2cc([101O:1][101CH2:1]CCC(C)Nc3sc([100NH:0][100C:0](=O)N4CCCC(n5nc(-c6ccc(Oc7ccc(F)cc7F)cc6)c(C(N)=O)c5N)C4)nc3C)ccc2CC1C(=O)NC1CCCc2ccccc21)C(C)(C)C

> <Shape>
0.235

> <Color>
0.082

> <Negative vol penalty>
0.000

$$$$

  -OEChem-04052305303D

 86 94  0     1  0  0  0  0  0999 V2000
  -20.1547  -33.4955   20.7684 C   0  0  0  0  0  0  0  0  0  0  0  0
  -21.4706  -33.0481   20.7081 C   0  0  0  0  0  0  0  0  0  0  0  0
  -26.3133  -13.0587   21.6372 C   0  0  0  0  0  0  0  0  0  0  0  0
  -25.9087  -13.9621   19.4333 C   0  0  0  0  0  0  0  0  0  0  0  0
  -19.2495  -32.8809   21.6325 C   0  0  0  0  0  0  0  0  0  0  0  0
  -21.8824  -31.9864   21.5129 C   0  0  0  0  0  0  0  0  0  0  0  0
  -24.6888  -28.6101   18.9891 C   0  0  0  0  0  0  0  0  0  0  0  0
  -25.0700  -12.4271   21.6065 C   0  0  0  0  0  0  0  0  0  0  0  0
  -24.6654  -13.3305   19.4026 C   0  0  0  0  0  0  0  0  0  0  0  0
  -26.0229  -28.9398   18.7540 C   0  0  0  0  0  0  0  0  0  0  0  0
  -23.7194   -9.6518   20.2257 C   0  0  0  0  0  0  0  0  0  0  0  0
  -23.6561   -8.3242   20.6488 C   0  0  0  0  0  0  0  0  0  0  0  0
  -26.6871  -27.5511   20.6112 C   0  0  0  0  0  0  0  0  0  0  0  0
  -22.0935   -8.9508   22.3816 C   0  0  0  0  0  0  0  0  0  0  0  0
  -28.8635  -21.3815   17.2527 C   0  0  0  0  0  0  0  0  0  0  0  0
  -26.7326  -13.8263   20.5506 C   0  0  0  0  0  0  0  0  0  0  0  0
  -29.2472  -13.9567   20.1415 C   0  0  0  0  0  0  0  0  0  0  0  0
  -19.6479  -31.8049   22.4412 C   0  0  0  0  0  0  0  0  0  0  0  0
  -24.3423  -27.7556   20.0456 C   0  0  0  0  0  0  0  0  0  0  0  0
  -20.9820  -31.3577   22.3897 C   0  0  0  0  0  0  0  0  0  0  0  0
  -25.3482  -27.2101   20.8561 C   0  0  0  0  0  0  0  0  0  0  0  0
  -24.2461  -12.5629   20.4893 C   0  0  0  0  0  0  0  0  0  0  0  0
  -27.0220  -28.4126   19.5668 C   0  0  0  0  0  0  0  0  0  0  0  0
  -22.9697  -10.6290   20.8806 C   0  0  0  0  0  0  0  0  0  0  0  0
  -22.8432   -7.9737   21.7267 C   0  0  0  0  0  0  0  0  0  0  0  0
  -22.1568  -10.2785   21.9585 C   0  0  0  0  0  0  0  0  0  0  0  0
  -28.0165  -14.4795   20.5819 C   0  0  0  0  0  0  0  0  0  0  0  0
  -29.3916  -23.4749   16.4989 C   0  0  0  0  0  0  0  0  0  0  0  0
  -29.3105  -21.7215   18.5105 C   0  0  0  0  0  0  0  0  0  0  0  0
  -29.8379  -23.8154   17.7569 C   0  0  0  0  0  0  0  0  0  0  0  0
  -30.1533  -14.9597   20.3854 C   0  0  0  0  0  0  0  0  0  0  0  0
  -29.5448  -12.6788   19.5635 C   0  0  0  0  0  0  0  0  0  0  0  0
  -22.5934  -28.0457   22.6840 C   0  0  0  0  0  0  0  0  0  0  0  0
  -23.1681  -24.8640   22.9469 C   0  0  0  0  0  0  0  0  0  0  0  0
  -25.1630  -22.2063   22.1698 C   0  0  0  0  0  0  0  0  0  0  0  0
  -29.6429  -20.8938   20.8664 C   0  0  0  0  0  0  0  0  0  0  0  0
  -18.6458  -31.2031   23.3942 C   0  0  0  0  0  0  0  0  0  0  0  0
  -22.9010  -27.3886   20.2695 C   0  0  0  0  0  0  0  0  0  0  0  0
  -25.0306  -26.2720   21.9908 C   0  0  0  0  0  0  0  0  0  0  0  0
  -19.0661  -29.8408   23.9399 C   0  0  0  0  0  0  0  0  0  0  0  0
  -30.9414  -18.6625   23.3185 C   0  0  0  0  0  0  0  0  0  0  0  0
  -20.5206  -29.8750   24.3983 C   0  0  0  0  0  0  0  0  0  0  0  0
  -30.4558  -17.2883   22.8515 C   0  0  0  0  0  0  0  0  0  0  0  0
  -29.9011  -19.7503   23.0575 C   0  0  0  0  0  0  0  0  0  0  0  0
  -28.9253  -18.4476   21.2083 C   0  0  0  0  0  0  0  0  0  0  0  0
  -21.4603  -30.1927   23.2289 C   0  0  1  0  0  0  0  0  0  0  0  0
  -22.6186  -26.9169   21.6926 C   0  0  1  0  0  0  0  0  0  0  0  0
  -29.9654  -17.3303   21.3910 C   0  0  2  0  0  0  0  0  0  0  0  0
  -28.0252  -24.7647   14.8187 C   0  0  0  0  0  0  0  0  0  0  0  0
  -30.3384  -23.9649   14.2147 C   0  0  0  0  0  0  0  0  0  0  0  0
  -25.3974  -19.7385   22.5604 C   0  0  0  0  0  0  0  0  0  0  0  0
  -32.7640  -27.1025   18.0148 C   0  0  0  0  0  0  0  0  0  0  0  0
  -24.2027  -25.4108   25.7648 C   0  0  0  0  0  0  0  0  0  0  0  0
  -25.2739  -23.1482   25.7355 C   0  0  0  0  0  0  0  0  0  0  0  0
  -22.7948  -23.3549   25.5511 C   0  0  0  0  0  0  0  0  0  0  0  0
  -24.9193  -21.6084   19.2815 C   0  0  0  0  0  0  0  0  0  0  0  0
  -30.4925  -27.8960   18.7458 C   0  0  0  0  0  0  0  0  0  0  0  0
  -31.1923  -25.4341   19.0876 C   0  0  0  0  0  0  0  0  0  0  0  0
  -29.3047  -27.7565   19.6898 C   0  0  0  0  0  0  0  0  0  1  0  0
  -29.4293  -24.4413   15.3635 C   0  0  0  0  0  0  0  0  0  0  0  0
  -24.2435  -24.0213   23.5891 C   0  0  1  0  0  0  0  0  0  0  0  0
  -24.8346  -20.8185   21.6495 C   0  0  2  0  0  0  0  0  0  0  0  0
  -31.6353  -26.9048   19.0335 C   0  0  1  0  0  0  0  0  0  0  0  0
  -24.1349  -24.0030   25.1400 C   0  0  0  0  0  0  0  0  0  0  0  0
  -28.8961  -22.2520   16.2243 N   0  0  0  0  0  0  0  0  0  0  0  0
  -28.1272  -15.7183   21.0689 N   0  0  0  0  0  0  0  0  0  0  0  0
  -29.8056  -22.9446   18.7852 N   0  0  0  0  0  0  0  0  0  0  0  0
  -29.4382  -15.9823   20.9360 N   0  0  0  0  0  0  0  0  0  0  0  0
  -23.6060  -25.9483   22.1734 N   0  0  0  0  0  0  0  0  0  0  0  0
  -29.4867  -19.7329   21.6530 N   0  0  0  0  0  0  0  0  0  0  0  0
  -31.4840  -15.0579   20.1806 N   0  0  0  0  0  0  0  0  0  0  0  0
  -28.4960  -11.7667   19.3829 N   0  0  0  0  0  0  0  0  0  0  0  0
  -29.2445  -20.7482   19.5381 N   0  0  0  0  0  0  0  0  0  0  0  0
  -30.3357  -25.0896   17.9777 N   0  0  0  0  0  0  0  0  0  0  0  0
  -21.6544  -29.0199   22.4035 N   0  0  0  0  0  0  0  0  0  0  0  0
  -24.1551  -22.7041   22.9683 N   0  0  0  0  0  0  0  0  0  0  0  0
  -25.4054  -20.6279   20.2862 N   0  3  0  0  0  0  0  0  0  0  0  0
  -30.7089  -12.3491   19.2325 O   0  0  0  0  0  0  0  0  0  0  0  0
  -23.3675  -28.0329   23.6339 O   0  0  0  0  0  0  0  0  0  0  0  0
  -21.9834  -24.5667   23.1192 O   0  0  0  0  0  0  0  0  0  0  0  0
  -26.2105  -22.7889   21.8981 O   0  0  0  0  0  0  0  0  0  0  0  0
  -30.1222  -21.9319   21.3298 O   0  0  0  0  0  0  0  0  0  0  0  0
  -23.0330  -11.9465   20.4589 O   0  0  0  0  0  0  0  0  0  0  0  0
  -28.3249  -28.7333   19.3399 O   0  0  0  0  0  0  0  0  0  1  0  0
  -22.7814   -6.6985   22.1319 F   0  0  0  0  0  0  0  0  0  0  0  0
  -21.4334  -11.2126   22.5909 F   0  0  0  0  0  0  0  0  0  0  0  0
  1  2  1  0  0  0  0
  1  5  2  0  0  0  0
  2  6  2  0  0  0  0
  3  8  2  0  0  0  0
  3 16  1  0  0  0  0
  4  9  1  0  0  0  0
  4 16  2  0  0  0  0
  5 18  1  0  0  0  0
  6 20  1  0  0  0  0
  7 10  2  0  0  0  0
  7 19  1  0  0  0  0
  8 22  1  0  0  0  0
  9 22  2  0  0  0  0
 10 23  1  0  0  0  0
 11 12  2  0  0  0  0
 11 24  1  0  0  0  0
 12 25  1  0  0  0  0
 13 21  1  0  0  0  0
 13 23  2  0  0  0  0
 14 25  2  0  0  0  0
 14 26  1  0  0  0  0
 15 29  1  0  0  0  0
 15 65  2  0  0  0  0
 16 27  1  0  0  0  0
 17 27  1  0  0  0  0
 17 31  2  0  0  0  0
 17 32  1  0  0  0  0
 18 20  2  0  0  0  0
 18 37  1  0  0  0  0
 19 21  2  0  0  0  0
 19 38  1  0  0  0  0
 20 46  1  0  0  0  0
 21 39  1  0  0  0  0
 22 83  1  0  0  0  0
 23 84  1  0  0  0  0
 24 26  2  0  0  0  0
 24 83  1  0  0  0  0
 25 85  1  0  0  0  0
 26 86  1  0  0  0  0
 27 66  2  0  0  0  0
 28 30  2  0  0  0  0
 28 60  1  0  0  0  0
 28 65  1  0  0  0  0
 29 67  2  0  0  0  0
 29 73  1  0  0  0  0
 30 67  1  0  0  0  0
 30 74  1  0  0  0  0
 31 68  1  0  0  0  0
 31 71  1  0  0  0  0
 32 72  1  0  0  0  0
 32 78  2  0  0  0  0
 33 47  1  0  0  0  0
 33 75  1  0  0  0  0
 33 79  2  0  0  0  0
 34 61  1  0  0  0  0
 34 69  1  0  0  0  0
 34 80  2  0  0  0  0
 35 62  1  0  0  0  0
 35 76  1  0  0  0  0
 35 81  2  0  0  0  0
 36 70  1  0  0  0  0
 36 73  1  0  0  0  0
 36 82  2  0  0  0  0
 37 40  1  0  0  0  0
 38 47  1  0  0  0  0
 39 69  1  0  0  0  0
 40 42  1  0  0  0  0
 41 43  1  0  0  0  0
 41 44  1  0  0  0  0
 42 46  1  0  0  0  0
 43 48  1  0  0  0  0
 44 70  1  0  0  0  0
 45 48  1  0  0  0  0
 45 70  1  0  0  0  0
 46 75  1  0  0  0  0
 47 69  1  0  0  0  0
 48 68  1  0  0  0  0
 49 60  1  0  0  0  0
 50 60  1  0  0  0  0
 51 62  1  0  0  0  0
 52 63  1  0  0  0  0
 53 64  1  0  0  0  0
 54 64  1  0  0  0  0
 55 64  1  0  0  0  0
 56 77  1  0  0  0  0
 57 59  1  0  0  0  0
 57 63  1  0  0  0  0
 58 63  1  0  0  0  0
 58 74  1  0  0  0  0
 59 84  1  0  0  0  0
 61 64  1  0  0  0  0
 61 76  1  0  0  0  0
 62 77  1  0  0  0  0
 66 68  1  0  0  0  0
M  CHG  1  77   1
M  ISO  4  36 100  59 101  73 100  84 101
M  END
> <Batch ID>
0193

> <Smiles>
CNC(C)C(=O)NC(C(=O)N1Cc2cc([101O:1][101CH2:1]CC(C)CNc3nc([100NH:0][100C:0](=O)N4CCCC(n5nc(-c6ccc(Oc7ccc(F)cc7F)cc6)c(C(N)=O)c5N)C4)cnc3C(C)C)ccc2CC1C(=O)NC1CCCc2ccccc21)C(C)(C)C

> <Shape>
0.266

> <Color>
0.093

> <Negative vol penalty>
0.000

$$$$

  -OEChem-04052305303D

 84 92  0     1  0  0  0  0  0999 V2000
  -22.8612  -31.8658   18.7145 C   0  0  0  0  0  0  0  0  0  0  0  0
  -24.1318  -31.7550   18.1588 C   0  0  0  0  0  0  0  0  0  0  0  0
  -22.9769   -9.9212   20.2665 C   0  0  0  0  0  0  0  0  0  0  0  0
  -23.7061  -10.1890   22.5542 C   0  0  0  0  0  0  0  0  0  0  0  0
  -22.5506  -31.1741   19.8845 C   0  0  0  0  0  0  0  0  0  0  0  0
  -25.0929  -30.9533   18.7736 C   0  0  0  0  0  0  0  0  0  0  0  0
  -30.6682  -26.7332   17.2168 C   0  0  0  0  0  0  0  0  0  0  0  0
  -22.1776   -8.8435   20.6474 C   0  0  0  0  0  0  0  0  0  0  0  0
  -22.9066   -9.1112   22.9352 C   0  0  0  0  0  0  0  0  0  0  0  0
  -32.0077  -26.5491   17.5569 C   0  0  0  0  0  0  0  0  0  0  0  0
  -19.1769   -8.3700   22.1323 C   0  0  0  0  0  0  0  0  0  0  0  0
  -17.8758   -8.3194   21.6322 C   0  0  0  0  0  0  0  0  0  0  0  0
  -31.3336  -25.3380   19.5313 C   0  0  0  0  0  0  0  0  0  0  0  0
  -18.3629   -6.2000   20.5795 C   0  0  0  0  0  0  0  0  0  0  0  0
  -32.4628  -18.3887   21.3409 C   0  0  0  0  0  0  0  0  0  0  0  0
  -29.9939  -17.7671   22.1444 C   0  0  0  0  0  0  0  0  0  0  0  0
  -23.7412  -10.5939   21.2199 C   0  0  0  0  0  0  0  0  0  0  0  0
  -24.2005  -13.0653   20.7852 C   0  0  0  0  0  0  0  0  0  0  0  0
  -23.5053  -30.3559   20.5086 C   0  0  0  0  0  0  0  0  0  0  0  0
  -29.6495  -26.2297   18.0385 C   0  0  0  0  0  0  0  0  0  0  0  0
  -24.7951  -30.2511   19.9538 C   0  0  0  0  0  0  0  0  0  0  0  0
  -29.9820  -25.5149   19.1981 C   0  0  0  0  0  0  0  0  0  0  0  0
  -22.1424   -8.4385   21.9817 C   0  0  0  0  0  0  0  0  0  0  0  0
  -32.3405  -25.8539   18.7158 C   0  0  0  0  0  0  0  0  0  0  0  0
  -20.0711   -7.3357   21.8559 C   0  0  0  0  0  0  0  0  0  0  0  0
  -17.4687   -7.2344   20.8558 C   0  0  0  0  0  0  0  0  0  0  0  0
  -19.6640   -6.2507   21.0795 C   0  0  0  0  0  0  0  0  0  0  0  0
  -24.5676  -11.7069   20.8270 C   0  0  0  0  0  0  0  0  0  0  0  0
  -31.6904  -19.2963   22.0317 C   0  0  0  0  0  0  0  0  0  0  0  0
  -30.7659  -16.8596   21.4530 C   0  0  0  0  0  0  0  0  0  0  0  0
  -25.3306  -13.7133   20.3501 C   0  0  0  0  0  0  0  0  0  0  0  0
  -22.9496  -13.6860   21.1108 C   0  0  0  0  0  0  0  0  0  0  0  0
  -27.2696  -27.5182   19.7057 C   0  0  0  0  0  0  0  0  0  0  0  0
  -26.4595  -24.4173   20.2057 C   0  0  0  0  0  0  0  0  0  0  0  0
  -27.4435  -21.1526   20.3487 C   0  0  0  0  0  0  0  0  0  0  0  0
  -30.8364  -14.5314   20.4936 C   0  0  0  0  0  0  0  0  0  0  0  0
  -23.1378  -29.6650   21.7979 C   0  0  0  0  0  0  0  0  0  0  0  0
  -28.2098  -26.4137   17.6437 C   0  0  0  0  0  0  0  0  0  0  0  0
  -28.9263  -24.9368   20.1034 C   0  0  0  0  0  0  0  0  0  0  0  0
  -24.0966  -28.5407   22.1813 C   0  0  0  0  0  0  0  0  0  0  0  0
  -29.6434  -11.8850   18.4319 C   0  0  0  0  0  0  0  0  0  0  0  0
  -25.5438  -28.9991   22.0318 C   0  0  0  0  0  0  0  0  0  0  0  0
  -28.1863  -11.7145   18.8678 C   0  0  0  0  0  0  0  0  0  0  0  0
  -30.5521  -12.2256   19.6117 C   0  0  0  0  0  0  0  0  0  0  0  0
  -28.6625  -13.2044   20.8528 C   0  0  0  0  0  0  0  0  0  0  0  0
  -25.8571  -29.3717   20.5776 C   0  0  1  0  0  0  0  0  0  0  0  0
  -27.2480  -26.3027   18.8227 C   0  0  1  0  0  0  0  0  0  0  0  0
  -27.6983  -12.9244   19.6885 C   0  0  2  0  0  0  0  0  0  0  0  0
  -26.5653  -18.8492   20.8182 C   0  0  0  0  0  0  0  0  0  0  0  0
  -26.4552  -25.0307   23.1946 C   0  0  0  0  0  0  0  0  0  0  0  0
  -26.5211  -22.5660   23.6297 C   0  0  0  0  0  0  0  0  0  0  0  0
  -24.5782  -23.5670   22.4274 C   0  0  0  0  0  0  0  0  0  0  0  0
  -33.2769  -25.7027   21.4218 C   0  0  0  0  0  0  0  0  0  0  0  0
  -35.4360  -24.8917   20.4353 C   0  0  0  0  0  0  0  0  0  0  0  0
  -28.1229  -20.2127   17.6258 C   0  0  0  0  0  0  0  0  0  0  0  0
  -32.2225  -20.6624   22.3505 C   0  0  0  0  0  0  0  0  0  0  0  0
  -33.3560  -23.5237   20.0950 C   0  0  0  0  0  0  0  0  0  0  0  0
  -33.0557  -22.8246   21.4181 C   0  0  0  0  0  0  0  0  0  0  0  0
  -26.8039  -23.3763   21.2434 C   0  0  1  0  0  0  0  0  0  0  0  0
  -26.8455  -19.8931   19.7483 C   0  0  2  0  0  0  0  0  0  0  0  0
  -26.1097  -23.6474   22.6079 C   0  0  0  0  0  0  0  0  0  0  0  0
  -33.9162  -24.9515   20.2517 C   0  0  0  0  0  0  0  0  0  1  0  0
  -30.4423  -19.0018   22.4461 N   0  0  0  0  0  0  0  0  0  0  0  0
  -32.0142  -17.1541   21.0389 N   0  0  0  0  0  0  0  0  0  0  0  0
  -25.8321  -11.5027   20.4484 N   0  0  0  0  0  0  0  0  0  0  0  0
  -26.2694  -12.7414   20.1645 N   0  0  0  0  0  0  0  0  0  0  0  0
  -27.5329  -25.1487   19.6778 N   0  0  0  0  0  0  0  0  0  0  0  0
  -30.0297  -13.3841   20.3396 N   0  0  0  0  0  0  0  0  0  0  0  0
  -25.6030  -15.0138   20.1118 N   0  0  0  0  0  0  0  0  0  0  0  0
  -21.8926  -12.8729   21.5420 N   0  0  0  0  0  0  0  0  0  0  0  0
  -30.2215  -15.5813   21.1749 N   0  0  0  0  0  0  0  0  0  0  0  0
  -26.0586  -28.1793   19.7826 N   0  0  0  0  0  0  0  0  0  0  0  0
  -26.4734  -22.0846   20.6511 N   0  0  0  0  0  0  0  0  0  0  0  0
  -27.7792  -19.3022   18.7483 N   0  3  0  0  0  0  0  0  0  0  0  0
  -32.5819  -21.4457   21.1376 N   0  3  0  0  0  0  0  0  0  0  0  0
  -22.7695  -14.9229   21.0061 O   0  0  0  0  0  0  0  0  0  0  0  0
  -28.3077  -27.8322   20.2763 O   0  0  0  0  0  0  0  0  0  0  0  0
  -25.2823  -24.5707   19.8705 O   0  0  0  0  0  0  0  0  0  0  0  0
  -28.6502  -21.2939   20.5345 O   0  0  0  0  0  0  0  0  0  0  0  0
  -31.9781  -14.5889   20.0297 O   0  0  0  0  0  0  0  0  0  0  0  0
  -21.3623   -7.3870   22.3538 O   0  0  0  0  0  0  0  0  0  0  0  0
  -33.6472  -25.6733   19.0504 O   0  0  0  0  0  0  0  0  0  1  0  0
  -16.2188   -7.1852   20.3770 F   0  0  0  0  0  0  0  0  0  0  0  0
  -20.5182   -5.2534   20.8117 F   0  0  0  0  0  0  0  0  0  0  0  0
  1  2  1  0  0  0  0
  1  5  2  0  0  0  0
  2  6  2  0  0  0  0
  3  8  2  0  0  0  0
  3 17  1  0  0  0  0
  4  9  1  0  0  0  0
  4 17  2  0  0  0  0
  5 19  1  0  0  0  0
  6 21  1  0  0  0  0
  7 10  2  0  0  0  0
  7 20  1  0  0  0  0
  8 23  1  0  0  0  0
  9 23  2  0  0  0  0
 10 24  1  0  0  0  0
 11 12  2  0  0  0  0
 11 25  1  0  0  0  0
 12 26  1  0  0  0  0
 13 22  1  0  0  0  0
 13 24  2  0  0  0  0
 14 26  2  0  0  0  0
 14 27  1  0  0  0  0
 15 29  1  0  0  0  0
 15 64  2  0  0  0  0
 16 30  2  0  0  0  0
 16 63  1  0  0  0  0
 17 28  1  0  0  0  0
 18 28  1  0  0  0  0
 18 31  2  0  0  0  0
 18 32  1  0  0  0  0
 19 21  2  0  0  0  0
 19 37  1  0  0  0  0
 20 22  2  0  0  0  0
 20 38  1  0  0  0  0
 21 46  1  0  0  0  0
 22 39  1  0  0  0  0
 23 81  1  0  0  0  0
 24 82  1  0  0  0  0
 25 27  2  0  0  0  0
 25 81  1  0  0  0  0
 26 83  1  0  0  0  0
 27 84  1  0  0  0  0
 28 65  2  0  0  0  0
 29 56  1  0  0  0  0
 29 63  2  0  0  0  0
 30 64  1  0  0  0  0
 30 71  1  0  0  0  0
 31 66  1  0  0  0  0
 31 69  1  0  0  0  0
 32 70  1  0  0  0  0
 32 76  2  0  0  0  0
 33 47  1  0  0  0  0
 33 72  1  0  0  0  0
 33 77  2  0  0  0  0
 34 59  1  0  0  0  0
 34 67  1  0  0  0  0
 34 78  2  0  0  0  0
 35 60  1  0  0  0  0
 35 73  1  0  0  0  0
 35 79  2  0  0  0  0
 36 68  1  0  0  0  0
 36 71  1  0  0  0  0
 36 80  2  0  0  0  0
 37 40  1  0  0  0  0
 38 47  1  0  0  0  0
 39 67  1  0  0  0  0
 40 42  1  0  0  0  0
 41 43  1  0  0  0  0
 41 44  1  0  0  0  0
 42 46  1  0  0  0  0
 43 48  1  0  0  0  0
 44 68  1  0  0  0  0
 45 48  1  0  0  0  0
 45 68  1  0  0  0  0
 46 72  1  0  0  0  0
 47 67  1  0  0  0  0
 48 66  1  0  0  0  0
 49 60  1  0  0  0  0
 50 61  1  0  0  0  0
 51 61  1  0  0  0  0
 52 61  1  0  0  0  0
 53 62  1  0  0  0  0
 54 62  1  0  0  0  0
 55 74  1  0  0  0  0
 56 75  1  0  0  0  0
 57 58  1  0  0  0  0
 57 62  1  0  0  0  0
 58 75  1  0  0  0  0
 59 61  1  0  0  0  0
 59 73  1  0  0  0  0
 60 74  1  0  0  0  0
 62 82  1  0  0  0  0
 65 66  1  0  0  0  0
M  CHG  2  74   1  75   1
M  ISO  4  36 100  62 101  71 100  82 101
M  END
> <Batch ID>
0193

> <Smiles>
CNC(C)C(=O)NC(C(=O)N1Cc2cc([101O:1][101C:1](C)(C)CCNCc3cnc([100NH:0][100C:0](=O)N4CCCC(n5nc(-c6ccc(Oc7ccc(F)cc7F)cc6)c(C(N)=O)c5N)C4)cn3)ccc2CC1C(=O)NC1CCCc2ccccc21)C(C)(C)C

> <Shape>
0.279

> <Color>
0.185

> <Negative vol penalty>
0.000

$$$$

  -OEChem-04052305303D

 83 91  0     1  0  0  0  0  0999 V2000
  -27.2226  -33.7960   27.1676 C   0  0  0  0  0  0  0  0  0  0  0  0
  -27.0585  -32.4850   26.7320 C   0  0  0  0  0  0  0  0  0  0  0  0
  -24.7108   -8.6983   21.5068 C   0  0  0  0  0  0  0  0  0  0  0  0
  -22.9848  -10.3164   21.0171 C   0  0  0  0  0  0  0  0  0  0  0  0
  -26.3178  -34.7797   26.7707 C   0  0  0  0  0  0  0  0  0  0  0  0
  -25.9887  -32.1567   25.8999 C   0  0  0  0  0  0  0  0  0  0  0  0
  -27.3699  -29.1807   22.0424 C   0  0  0  0  0  0  0  0  0  0  0  0
  -23.8645   -8.0726   22.4221 C   0  0  0  0  0  0  0  0  0  0  0  0
  -22.1385   -9.6907   21.9324 C   0  0  0  0  0  0  0  0  0  0  0  0
  -27.5607  -27.8275   22.3188 C   0  0  0  0  0  0  0  0  0  0  0  0
  -21.2515   -5.9284   22.3363 C   0  0  0  0  0  0  0  0  0  0  0  0
  -21.1760   -4.5360   22.3025 C   0  0  0  0  0  0  0  0  0  0  0  0
  -25.3729  -27.3427   21.4258 C   0  0  0  0  0  0  0  0  0  0  0  0
  -21.9546   -4.4384   24.5876 C   0  0  0  0  0  0  0  0  0  0  0  0
  -24.2710   -9.8203   20.8043 C   0  0  0  0  0  0  0  0  0  0  0  0
  -25.2698  -10.1853   18.4856 C   0  0  0  0  0  0  0  0  0  0  0  0
  -25.2419  -34.4652   25.9256 C   0  0  0  0  0  0  0  0  0  0  0  0
  -26.1727  -29.6271   21.4647 C   0  0  0  0  0  0  0  0  0  0  0  0
  -25.0679  -33.1369   25.4925 C   0  0  0  0  0  0  0  0  0  0  0  0
  -25.1703  -28.7017   21.1408 C   0  0  0  0  0  0  0  0  0  0  0  0
  -22.5783   -8.5687   22.6350 C   0  0  0  0  0  0  0  0  0  0  0  0
  -26.5610  -26.9087   22.0132 C   0  0  0  0  0  0  0  0  0  0  0  0
  -21.6785   -6.5758   23.4957 C   0  0  0  0  0  0  0  0  0  0  0  0
  -21.5275   -3.7910   23.4281 C   0  0  0  0  0  0  0  0  0  0  0  0
  -22.0300   -5.8308   24.6213 C   0  0  0  0  0  0  0  0  0  0  0  0
  -25.1449  -10.4674   19.8591 C   0  0  0  0  0  0  0  0  0  0  0  0
  -26.2227  -11.0678   18.0390 C   0  0  0  0  0  0  0  0  0  0  0  0
  -26.4356  -20.1537   18.9958 C   0  0  0  0  0  0  0  0  0  0  0  0
  -26.2349  -18.0144   19.3400 C   0  0  0  0  0  0  0  0  0  0  0  0
  -24.5855   -9.2124   17.6849 C   0  0  0  0  0  0  0  0  0  0  0  0
  -23.8445  -31.5949   22.3654 C   0  0  0  0  0  0  0  0  0  0  0  0
  -22.7729  -31.0815   19.3470 C   0  0  0  0  0  0  0  0  0  0  0  0
  -27.4829  -23.4025   20.4488 C   0  0  0  0  0  0  0  0  0  0  0  0
  -22.7096  -29.0572   16.6002 C   0  0  0  0  0  0  0  0  0  0  0  0
  -28.0685  -16.4095   19.9792 C   0  0  0  0  0  0  0  0  0  0  0  0
  -24.2627  -35.5530   25.5616 C   0  0  0  0  0  0  0  0  0  0  0  0
  -25.9930  -31.0866   21.1482 C   0  0  0  0  0  0  0  0  0  0  0  0
  -23.8749  -29.1272   20.5011 C   0  0  0  0  0  0  0  0  0  0  0  0
  -23.3701  -35.1971   24.3755 C   0  0  0  0  0  0  0  0  0  0  0  0
  -30.0692  -13.4983   19.5331 C   0  0  0  0  0  0  0  0  0  0  0  0
  -22.8089  -33.7876   24.5337 C   0  0  0  0  0  0  0  0  0  0  0  0
  -29.0446  -12.3658   19.4350 C   0  0  0  0  0  0  0  0  0  0  0  0
  -29.6393  -14.5666   20.5369 C   0  0  0  0  0  0  0  0  0  0  0  0
  -27.2672  -13.9781   20.2276 C   0  0  0  0  0  0  0  0  0  0  0  0
  -23.9342  -32.7465   24.5692 C   0  0  1  0  0  0  0  0  0  0  0  0
  -24.5283  -31.4967   21.0310 C   0  0  1  0  0  0  0  0  0  0  0  0
  -27.6252  -12.9104   19.1810 C   0  0  2  0  0  0  0  0  0  0  0  0
  -28.0578  -21.6549   17.7683 C   0  0  0  0  0  0  0  0  0  0  0  0
  -21.7164  -28.8856   14.3021 C   0  0  0  0  0  0  0  0  0  0  0  0
  -20.0912  -30.2890   20.5678 C   0  0  0  0  0  0  0  0  0  0  0  0
  -19.4807  -29.2451   18.3756 C   0  0  0  0  0  0  0  0  0  0  0  0
  -19.9242  -31.6964   18.5073 C   0  0  0  0  0  0  0  0  0  0  0  0
  -25.3783  -29.0562   15.3207 C   0  0  0  0  0  0  0  0  0  0  0  0
  -28.0697  -23.6299   21.8331 C   0  0  0  0  0  0  0  0  0  0  0  0
  -28.0833  -25.0955   22.2390 C   0  0  0  0  0  0  0  0  0  1  0  0
  -26.9846  -21.5566   18.8506 C   0  0  2  0  0  0  0  0  0  0  0  0
  -21.8555  -30.0755   18.6949 C   0  0  1  0  0  0  0  0  0  0  0  0
  -22.9062  -29.3550   15.1247 C   0  0  2  0  0  0  0  0  0  0  0  0
  -20.3614  -30.3184   19.0502 C   0  0  0  0  0  0  0  0  0  0  0  0
  -25.9540  -11.4521   20.2588 N   0  0  0  0  0  0  0  0  0  0  0  0
  -27.1203  -19.0786   19.3190 N   0  0  0  0  0  0  0  0  0  0  0  0
  -24.9444  -18.1946   19.0593 N   0  0  0  0  0  0  0  0  0  0  0  0
  -26.5964  -11.7964   19.1298 N   0  0  0  0  0  0  0  0  0  0  0  0
  -23.7441  -30.5658   20.2169 N   0  0  0  0  0  0  0  0  0  0  0  0
  -28.2871  -15.0386   20.2312 N   0  0  0  0  0  0  0  0  0  0  0  0
  -26.7692  -11.2840   16.8236 N   0  0  0  0  0  0  0  0  0  0  0  0
  -23.6368   -8.3864   18.3029 N   0  0  0  0  0  0  0  0  0  0  0  0
  -26.7488  -16.7353   19.6678 N   0  0  0  0  0  0  0  0  0  0  0  0
  -24.4322  -32.4949   23.2338 N   0  0  0  0  0  0  0  0  0  0  0  0
  -27.4856  -22.0568   20.1105 N   0  0  0  0  0  0  0  0  0  0  0  0
  -22.1455  -30.1247   17.2660 N   0  0  0  0  0  0  0  0  0  0  0  0
  -24.1285  -28.6703   14.6164 N   0  3  0  0  0  0  0  0  0  0  0  0
  -24.8206   -9.0685   16.4612 O   0  0  0  0  0  0  0  0  0  0  0  0
  -22.8560  -30.9063   22.5899 O   0  0  0  0  0  0  0  0  0  0  0  0
  -22.6376  -32.2800   19.0884 O   0  0  0  0  0  0  0  0  0  0  0  0
  -27.0648  -24.3114   19.7368 O   0  0  0  0  0  0  0  0  0  0  0  0
  -23.0217  -27.9834   17.1104 O   0  0  0  0  0  0  0  0  0  0  0  0
  -28.9896  -17.2297   20.0087 O   0  0  0  0  0  0  0  0  0  0  0  0
  -21.7522   -7.9582   23.5279 O   0  0  0  0  0  0  0  0  0  0  0  0
  -26.7445  -25.5875   22.2825 O   0  0  0  0  0  0  0  0  0  1  0  0
  -21.4536   -2.4539   23.3961 F   0  0  0  0  0  0  0  0  0  0  0  0
  -22.4399   -6.4472   25.7384 F   0  0  0  0  0  0  0  0  0  0  0  0
  -24.7713  -19.8272   18.7348 S   0  0  0  0  0  0  0  0  0  0  0  0
  1  2  1  0  0  0  0
  1  5  2  0  0  0  0
  2  6  2  0  0  0  0
  3  8  2  0  0  0  0
  3 15  1  0  0  0  0
  4  9  1  0  0  0  0
  4 15  2  0  0  0  0
  5 17  1  0  0  0  0
  6 19  1  0  0  0  0
  7 10  2  0  0  0  0
  7 18  1  0  0  0  0
  8 21  1  0  0  0  0
  9 21  2  0  0  0  0
 10 22  1  0  0  0  0
 11 12  2  0  0  0  0
 11 23  1  0  0  0  0
 12 24  1  0  0  0  0
 13 20  1  0  0  0  0
 13 22  2  0  0  0  0
 14 24  2  0  0  0  0
 14 25  1  0  0  0  0
 15 26  1  0  0  0  0
 16 26  1  0  0  0  0
 16 27  2  0  0  0  0
 16 30  1  0  0  0  0
 17 19  2  0  0  0  0
 17 36  1  0  0  0  0
 18 20  2  0  0  0  0
 18 37  1  0  0  0  0
 19 45  1  0  0  0  0
 20 38  1  0  0  0  0
 21 79  1  0  0  0  0
 22 80  1  0  0  0  0
 23 25  2  0  0  0  0
 23 79  1  0  0  0  0
 24 81  1  0  0  0  0
 25 82  1  0  0  0  0
 26 60  2  0  0  0  0
 27 63  1  0  0  0  0
 27 66  1  0  0  0  0
 28 56  1  0  0  0  0
 28 61  2  0  0  0  0
 28 83  1  0  0  0  0
 29 61  1  0  0  0  0
 29 62  2  0  0  0  0
 29 68  1  0  0  0  0
 30 67  1  0  0  0  0
 30 73  2  0  0  0  0
 31 46  1  0  0  0  0
 31 69  1  0  0  0  0
 31 74  2  0  0  0  0
 32 57  1  0  0  0  0
 32 64  1  0  0  0  0
 32 75  2  0  0  0  0
 33 54  1  0  0  0  0
 33 70  1  0  0  0  0
 33 76  2  0  0  0  0
 34 58  1  0  0  0  0
 34 71  1  0  0  0  0
 34 77  2  0  0  0  0
 35 65  1  0  0  0  0
 35 68  1  0  0  0  0
 35 78  2  0  0  0  0
 36 39  1  0  0  0  0
 37 46  1  0  0  0  0
 38 64  1  0  0  0  0
 39 41  1  0  0  0  0
 40 42  1  0  0  0  0
 40 43  1  0  0  0  0
 41 45  1  0  0  0  0
 42 47  1  0  0  0  0
 43 65  1  0  0  0  0
 44 47  1  0  0  0  0
 44 65  1  0  0  0  0
 45 69  1  0  0  0  0
 46 64  1  0  0  0  0
 47 63  1  0  0  0  0
 48 56  1  0  0  0  0
 49 58  1  0  0  0  0
 50 59  1  0  0  0  0
 51 59  1  0  0  0  0
 52 59  1  0  0  0  0
 53 72  1  0  0  0  0
 54 55  1  0  0  0  0
 55 80  1  0  0  0  0
 56 70  1  0  0  0  0
 57 59  1  0  0  0  0
 57 71  1  0  0  0  0
 58 72  1  0  0  0  0
 60 63  1  0  0  0  0
 62 83  1  0  0  0  0
M  CHG  1  72   1
M  ISO  4  35 100  55 101  68 100  80 101
M  END
> <Batch ID>
0193

> <Smiles>
CNC(C)C(=O)NC(C(=O)N1Cc2cc([101O:1][101CH2:1]CC(=O)NC(C)c3nc([100NH:0][100C:0](=O)N4CCCC(n5nc(-c6ccc(Oc7ccc(F)cc7F)cc6)c(C(N)=O)c5N)C4)ns3)ccc2CC1C(=O)NC1CCCc2ccccc21)C(C)(C)C

> <Shape>
0.243

> <Color>
0.076

> <Negative vol penalty>
0.000

$$$$

  -OEChem-04052305303D

 81 89  0     1  0  0  0  0  0999 V2000
  -27.5928  -36.1405   20.2839 C   0  0  0  0  0  0  0  0  0  0  0  0
  -28.2723  -34.9967   19.8771 C   0  0  0  0  0  0  0  0  0  0  0  0
  -24.9926  -10.0556   21.9607 C   0  0  0  0  0  0  0  0  0  0  0  0
  -24.9677  -11.6233   23.7988 C   0  0  0  0  0  0  0  0  0  0  0  0
  -26.8354  -36.1207   21.4543 C   0  0  0  0  0  0  0  0  0  0  0  0
  -28.1957  -33.8327   20.6411 C   0  0  0  0  0  0  0  0  0  0  0  0
  -28.1723  -28.0677   18.5748 C   0  0  0  0  0  0  0  0  0  0  0  0
  -24.9708   -8.9943   22.8655 C   0  0  0  0  0  0  0  0  0  0  0  0
  -24.9459  -10.5619   24.7037 C   0  0  0  0  0  0  0  0  0  0  0  0
  -29.1763  -27.1065   18.4651 C   0  0  0  0  0  0  0  0  0  0  0  0
  -22.6854   -7.4014   24.7819 C   0  0  0  0  0  0  0  0  0  0  0  0
  -21.8095   -6.3471   24.5233 C   0  0  0  0  0  0  0  0  0  0  0  0
  -28.4927  -26.1603   20.5761 C   0  0  0  0  0  0  0  0  0  0  0  0
  -23.6780   -4.8186   24.4265 C   0  0  0  0  0  0  0  0  0  0  0  0
  -24.9911  -11.3702   22.4273 C   0  0  0  0  0  0  0  0  0  0  0  0
  -23.9060  -13.1201   20.9214 C   0  0  0  0  0  0  0  0  0  0  0  0
  -26.7416  -34.9531   22.2279 C   0  0  0  0  0  0  0  0  0  0  0  0
  -27.3266  -28.0891   19.6932 C   0  0  0  0  0  0  0  0  0  0  0  0
  -27.4374  -33.7977   21.8236 C   0  0  0  0  0  0  0  0  0  0  0  0
  -27.4772  -27.1211   20.6964 C   0  0  0  0  0  0  0  0  0  0  0  0
  -24.9474   -9.2474   24.2370 C   0  0  0  0  0  0  0  0  0  0  0  0
  -29.3385  -26.1544   19.4672 C   0  0  0  0  0  0  0  0  0  0  0  0
  -24.0576   -7.1644   24.8626 C   0  0  0  0  0  0  0  0  0  0  0  0
  -22.3058   -5.0557   24.3456 C   0  0  0  0  0  0  0  0  0  0  0  0
  -24.5539   -5.8730   24.6850 C   0  0  0  0  0  0  0  0  0  0  0  0
  -25.0143  -12.4669   21.4932 C   0  0  0  0  0  0  0  0  0  0  0  0
  -24.4557  -14.0820   20.1096 C   0  0  0  0  0  0  0  0  0  0  0  0
  -29.0076  -19.8350   21.5115 C   0  0  0  0  0  0  0  0  0  0  0  0
  -28.7549  -21.6531   20.3427 C   0  0  0  0  0  0  0  0  0  0  0  0
  -22.5050  -12.8789   21.1075 C   0  0  0  0  0  0  0  0  0  0  0  0
  -26.7315  -30.1759   22.0158 C   0  0  0  0  0  0  0  0  0  0  0  0
  -24.4282  -28.0366   22.8163 C   0  0  0  0  0  0  0  0  0  0  0  0
  -23.2955  -24.8194   22.6998 C   0  0  0  0  0  0  0  0  0  0  0  0
  -29.7118  -16.9493   20.1672 C   0  0  0  0  0  0  0  0  0  0  0  0
  -25.9490  -34.9937   23.5104 C   0  0  0  0  0  0  0  0  0  0  0  0
  -26.2313  -29.1160   19.7837 C   0  0  0  0  0  0  0  0  0  0  0  0
  -26.5823  -27.0884   21.9075 C   0  0  0  0  0  0  0  0  0  0  0  0
  -25.6160  -33.6109   24.0647 C   0  0  0  0  0  0  0  0  0  0  0  0
  -28.3655  -14.9999   17.5093 C   0  0  0  0  0  0  0  0  0  0  0  0
  -26.8511  -32.7160   24.0445 C   0  0  0  0  0  0  0  0  0  0  0  0
  -27.2540  -14.1887   18.1773 C   0  0  0  0  0  0  0  0  0  0  0  0
  -29.5653  -15.1834   18.4360 C   0  0  0  0  0  0  0  0  0  0  0  0
  -28.1333  -14.9400   20.4270 C   0  0  0  0  0  0  0  0  0  0  0  0
  -27.3587  -32.5086   22.6124 C   0  0  1  0  0  0  0  0  0  0  0  0
  -25.7578  -29.3601   21.2132 C   0  0  1  0  0  0  0  0  0  0  0  0
  -26.8792  -14.7761   19.5513 C   0  0  2  0  0  0  0  0  0  0  0  0
  -21.4012  -23.3686   23.4770 C   0  0  0  0  0  0  0  0  0  0  0  0
  -31.5301  -24.5748   17.4165 C   0  0  0  0  0  0  0  0  0  0  0  0
  -25.6057  -28.0111   25.6311 C   0  0  0  0  0  0  0  0  0  0  0  0
  -24.3253  -25.9054   26.0724 C   0  0  0  0  0  0  0  0  0  0  0  0
  -23.1063  -28.0171   25.5459 C   0  0  0  0  0  0  0  0  0  0  0  0
  -22.5125  -24.1551   19.9242 C   0  0  0  0  0  0  0  0  0  0  0  0
  -29.7364  -18.6438   21.9802 C   0  0  0  0  0  0  0  0  0  0  0  0
  -30.1681  -22.8972   18.7055 C   0  0  0  0  0  0  0  0  0  0  0  0
  -24.3624  -26.8197   23.7073 C   0  0  1  0  0  0  0  0  0  0  0  0
  -21.9350  -24.2425   22.3526 C   0  0  2  0  0  0  0  0  0  0  0  0
  -30.2664  -24.3458   18.2327 C   0  0  1  0  0  0  0  0  0  1  0  0
  -24.3682  -27.1899   25.2174 C   0  0  0  0  0  0  0  0  0  0  0  0
  -26.1799  -12.9712   21.0795 N   0  0  0  0  0  0  0  0  0  0  0  0
  -29.6037  -20.6799   20.5908 N   0  0  0  0  0  0  0  0  0  0  0  0
  -27.7840  -20.0866   21.9765 N   0  0  0  0  0  0  0  0  0  0  0  0
  -25.8071  -13.9514   20.2391 N   0  0  0  0  0  0  0  0  0  0  0  0
  -25.5302  -28.1172   21.9532 N   0  0  0  0  0  0  0  0  0  0  0  0
  -29.1420  -15.7454   19.7210 N   0  0  0  0  0  0  0  0  0  0  0  0
  -23.9100  -15.0183   19.3046 N   0  0  0  0  0  0  0  0  0  0  0  0
  -22.1136  -11.8519   21.9772 N   0  0  0  0  0  0  0  0  0  0  0  0
  -28.9591  -22.7136   19.4759 N   0  0  0  0  0  0  0  0  0  0  0  0
  -26.5357  -31.5404   21.9198 N   0  0  0  0  0  0  0  0  0  0  0  0
  -23.1887  -26.0650   23.2815 N   0  0  0  0  0  0  0  0  0  0  0  0
  -29.2501  -17.4156   21.3919 N   0  0  0  0  0  0  0  0  0  0  0  0
  -22.0233  -23.4155   21.1161 N   0  3  0  0  0  0  0  0  0  0  0  0
  -21.6264  -13.5434   20.5075 O   0  0  0  0  0  0  0  0  0  0  0  0
  -27.5955  -29.6092   22.6747 O   0  0  0  0  0  0  0  0  0  0  0  0
  -23.5310  -28.8809   22.8786 O   0  0  0  0  0  0  0  0  0  0  0  0
  -24.3476  -24.2231   22.4806 O   0  0  0  0  0  0  0  0  0  0  0  0
  -30.5645  -17.5658   19.5193 O   0  0  0  0  0  0  0  0  0  0  0  0
  -24.9258   -8.2120   25.1202 O   0  0  0  0  0  0  0  0  0  0  0  0
  -30.3180  -25.2155   19.3629 O   0  0  0  0  0  0  0  0  0  1  0  0
  -21.4645   -4.0431   24.0989 F   0  0  0  0  0  0  0  0  0  0  0  0
  -25.8711   -5.6389   24.7626 F   0  0  0  0  0  0  0  0  0  0  0  0
  -27.2917  -21.4990   21.2259 S   0  0  0  0  0  0  0  0  0  0  0  0
  1  2  1  0  0  0  0
  1  5  2  0  0  0  0
  2  6  2  0  0  0  0
  3  8  2  0  0  0  0
  3 15  1  0  0  0  0
  4  9  1  0  0  0  0
  4 15  2  0  0  0  0
  5 17  1  0  0  0  0
  6 19  1  0  0  0  0
  7 10  2  0  0  0  0
  7 18  1  0  0  0  0
  8 21  1  0  0  0  0
  9 21  2  0  0  0  0
 10 22  1  0  0  0  0
 11 12  2  0  0  0  0
 11 23  1  0  0  0  0
 12 24  1  0  0  0  0
 13 20  1  0  0  0  0
 13 22  2  0  0  0  0
 14 24  2  0  0  0  0
 14 25  1  0  0  0  0
 15 26  1  0  0  0  0
 16 26  1  0  0  0  0
 16 27  2  0  0  0  0
 16 30  1  0  0  0  0
 17 19  2  0  0  0  0
 17 35  1  0  0  0  0
 18 20  2  0  0  0  0
 18 36  1  0  0  0  0
 19 44  1  0  0  0  0
 20 37  1  0  0  0  0
 21 77  1  0  0  0  0
 22 78  1  0  0  0  0
 23 25  2  0  0  0  0
 23 77  1  0  0  0  0
 24 79  1  0  0  0  0
 25 80  1  0  0  0  0
 26 59  2  0  0  0  0
 27 62  1  0  0  0  0
 27 65  1  0  0  0  0
 28 53  1  0  0  0  0
 28 60  1  0  0  0  0
 28 61  2  0  0  0  0
 29 60  2  0  0  0  0
 29 67  1  0  0  0  0
 29 81  1  0  0  0  0
 30 66  1  0  0  0  0
 30 72  2  0  0  0  0
 31 45  1  0  0  0  0
 31 68  1  0  0  0  0
 31 73  2  0  0  0  0
 32 55  1  0  0  0  0
 32 63  1  0  0  0  0
 32 74  2  0  0  0  0
 33 56  1  0  0  0  0
 33 69  1  0  0  0  0
 33 75  2  0  0  0  0
 34 64  1  0  0  0  0
 34 70  1  0  0  0  0
 34 76  2  0  0  0  0
 35 38  1  0  0  0  0
 36 45  1  0  0  0  0
 37 63  1  0  0  0  0
 38 40  1  0  0  0  0
 39 41  1  0  0  0  0
 39 42  1  0  0  0  0
 40 44  1  0  0  0  0
 41 46  1  0  0  0  0
 42 64  1  0  0  0  0
 43 46  1  0  0  0  0
 43 64  1  0  0  0  0
 44 68  1  0  0  0  0
 45 63  1  0  0  0  0
 46 62  1  0  0  0  0
 47 56  1  0  0  0  0
 48 57  1  0  0  0  0
 49 58  1  0  0  0  0
 50 58  1  0  0  0  0
 51 58  1  0  0  0  0
 52 71  1  0  0  0  0
 53 70  1  0  0  0  0
 54 57  1  0  0  0  0
 54 67  1  0  0  0  0
 55 58  1  0  0  0  0
 55 69  1  0  0  0  0
 56 71  1  0  0  0  0
 57 78  1  0  0  0  0
 59 62  1  0  0  0  0
 61 81  1  0  0  0  0
M  CHG  1  71   1
M  ISO  4  34 100  57 101  70 100  78 101
M  END
> <Batch ID>
0193

> <Smiles>
CNC(C)C(=O)NC(C(=O)N1Cc2cc([101O:1][101CH:1](C)CNc3nc(C[100NH:0][100C:0](=O)N4CCCC(n5nc(-c6ccc(Oc7ccc(F)cc7F)cc6)c(C(N)=O)c5N)C4)ns3)ccc2CC1C(=O)NC1CCCc2ccccc21)C(C)(C)C

> <Shape>
0.255

> <Color>
0.094

> <Negative vol penalty>
0.000

$$$$

  -OEChem-04052305303D

 86 94  0     1  0  0  0  0  0999 V2000
  -29.6368  -20.7636   36.1000 C   0  0  0  0  0  0  0  0  0  0  0  0
  -29.8207  -19.5553   35.4354 C   0  0  0  0  0  0  0  0  0  0  0  0
  -23.1896   -9.8198   19.9323 C   0  0  0  0  0  0  0  0  0  0  0  0
  -23.5707   -9.9995   22.3113 C   0  0  0  0  0  0  0  0  0  0  0  0
  -28.6646  -21.6600   35.6582 C   0  0  0  0  0  0  0  0  0  0  0  0
  -29.0317  -19.2423   34.3291 C   0  0  0  0  0  0  0  0  0  0  0  0
  -31.7322  -17.3294   30.4959 C   0  0  0  0  0  0  0  0  0  0  0  0
  -22.4236   -8.6731   20.1416 C   0  0  0  0  0  0  0  0  0  0  0  0
  -22.8046   -8.8528   22.5206 C   0  0  0  0  0  0  0  0  0  0  0  0
  -32.1153  -15.9923   30.5919 C   0  0  0  0  0  0  0  0  0  0  0  0
  -23.2055   -5.5062   22.2552 C   0  0  0  0  0  0  0  0  0  0  0  0
  -23.7049   -4.5446   23.1335 C   0  0  0  0  0  0  0  0  0  0  0  0
  -30.2967  -15.3727   29.1332 C   0  0  0  0  0  0  0  0  0  0  0  0
  -21.7499   -4.8042   24.5292 C   0  0  0  0  0  0  0  0  0  0  0  0
  -32.6302  -12.0847   24.2487 C   0  0  0  0  0  0  0  0  0  0  0  0
  -23.7632  -10.4830   21.0172 C   0  0  0  0  0  0  0  0  0  0  0  0
  -24.1016  -12.9997   20.7737 C   0  0  0  0  0  0  0  0  0  0  0  0
  -27.8699  -21.3620   34.5400 C   0  0  0  0  0  0  0  0  0  0  0  0
  -30.6200  -17.6975   29.7253 C   0  0  0  0  0  0  0  0  0  0  0  0
  -28.0471  -20.1350   33.8726 C   0  0  0  0  0  0  0  0  0  0  0  0
  -29.9031  -16.7154   29.0270 C   0  0  0  0  0  0  0  0  0  0  0  0
  -22.2311   -8.1896   21.4358 C   0  0  0  0  0  0  0  0  0  0  0  0
  -31.3959  -15.0134   29.9128 C   0  0  0  0  0  0  0  0  0  0  0  0
  -21.9783   -6.1169   22.5138 C   0  0  0  0  0  0  0  0  0  0  0  0
  -22.9771   -4.1936   24.2705 C   0  0  0  0  0  0  0  0  0  0  0  0
  -21.2505   -5.7659   23.6508 C   0  0  0  0  0  0  0  0  0  0  0  0
  -24.5551  -11.6673   20.8015 C   0  0  0  0  0  0  0  0  0  0  0  0
  -25.2325  -13.7425   20.5373 C   0  0  0  0  0  0  0  0  0  0  0  0
  -31.3182  -12.4646   24.0580 C   0  0  0  0  0  0  0  0  0  0  0  0
  -31.9734  -12.0637   26.3411 C   0  0  0  0  0  0  0  0  0  0  0  0
  -22.7766  -13.5196   20.9462 C   0  0  0  0  0  0  0  0  0  0  0  0
  -32.0301  -11.9056   27.8190 C   0  0  0  0  0  0  0  0  0  0  0  0
  -27.8232  -19.0777   30.3392 C   0  0  0  0  0  0  0  0  0  0  0  0
  -27.5260  -19.0180   27.1096 C   0  0  0  0  0  0  0  0  0  0  0  0
  -28.4270  -17.5914   24.1431 C   0  0  0  0  0  0  0  0  0  0  0  0
  -31.0382  -12.7816   21.5746 C   0  0  0  0  0  0  0  0  0  0  0  0
  -26.7997  -22.3417   34.1282 C   0  0  0  0  0  0  0  0  0  0  0  0
  -30.2357  -19.1472   29.6105 C   0  0  0  0  0  0  0  0  0  0  0  0
  -28.7136  -17.0608   28.1700 C   0  0  0  0  0  0  0  0  0  0  0  0
  -26.2601  -22.0985   32.7211 C   0  0  0  0  0  0  0  0  0  0  0  0
  -29.5220  -13.4642   18.4262 C   0  0  0  0  0  0  0  0  0  0  0  0
  -25.9575  -20.6178   32.5139 C   0  0  0  0  0  0  0  0  0  0  0  0
  -28.0342  -13.2080   18.6771 C   0  0  0  0  0  0  0  0  0  0  0  0
  -30.4041  -12.4789   19.1910 C   0  0  0  0  0  0  0  0  0  0  0  0
  -28.6462  -12.1369   20.8829 C   0  0  0  0  0  0  0  0  0  0  0  0
  -27.2278  -19.7703   32.6537 C   0  0  1  0  0  0  0  0  0  0  0  0
  -28.7773  -19.3489   29.2106 C   0  0  1  0  0  0  0  0  0  0  0  0
  -27.7196  -13.1456   20.1847 C   0  0  2  0  0  0  0  0  0  0  0  0
  -31.8003   -8.4094   30.0697 C   0  0  0  0  0  0  0  0  0  0  0  0
  -27.9888  -17.7320   21.6762 C   0  0  0  0  0  0  0  0  0  0  0  0
  -28.6009  -10.6259   30.0773 C   0  0  0  0  0  0  0  0  0  0  0  0
  -30.9851  -12.8167   32.0537 C   0  0  0  0  0  0  0  0  0  0  0  0
  -24.8495  -17.6081   27.5072 C   0  0  0  0  0  0  0  0  0  0  0  0
  -24.9225  -16.9397   25.0955 C   0  0  0  0  0  0  0  0  0  0  0  0
  -24.8528  -19.3545   25.7171 C   0  0  0  0  0  0  0  0  0  0  0  0
  -31.2547  -18.2425   23.5604 C   0  0  0  0  0  0  0  0  0  0  0  0
  -30.3985   -8.9102   29.7516 C   0  0  0  0  0  0  0  0  0  0  0  0
  -26.9747  -18.0356   26.1047 C   0  0  1  0  0  0  0  0  0  0  0  0
  -28.8680  -18.2015   22.8249 C   0  0  2  0  0  0  0  0  0  0  0  0
  -30.0711  -10.2907   30.3667 C   0  0  1  0  0  0  0  0  0  0  0  0
  -31.0440  -11.4084   29.9119 C   0  0  2  0  0  0  0  0  0  0  0  0
  -30.8089  -12.7960   30.5411 C   0  0  2  0  0  0  0  0  0  1  0  0
  -25.4211  -17.9774   26.1237 C   0  0  0  0  0  0  0  0  0  0  0  0
  -33.0079  -11.8548   25.5573 N   0  0  0  0  0  0  0  0  0  0  0  0
  -25.8714  -11.5663   20.5988 N   0  0  0  0  0  0  0  0  0  0  0  0
  -30.9702  -11.5529   28.4453 N   0  0  0  0  0  0  0  0  0  0  0  0
  -26.2548  -12.8447   20.4413 N   0  0  0  0  0  0  0  0  0  0  0  0
  -28.3735  -18.4912   28.0946 N   0  0  0  0  0  0  0  0  0  0  0  0
  -30.0520  -12.4770   20.6126 N   0  0  0  0  0  0  0  0  0  0  0  0
  -25.4423  -15.0694   20.4042 N   0  0  0  0  0  0  0  0  0  0  0  0
  -21.7302  -12.6173   21.1812 N   0  0  0  0  0  0  0  0  0  0  0  0
  -33.2500  -12.1721   28.4071 N   0  0  0  0  0  0  0  0  0  0  0  0
  -30.5790  -12.7809   22.8913 N   0  0  0  0  0  0  0  0  0  0  0  0
  -28.0332  -19.8654   31.4550 N   0  0  0  0  0  0  0  0  0  0  0  0
  -27.5429  -18.4095   24.8141 N   0  0  0  0  0  0  0  0  0  0  0  0
  -30.2772  -17.8214   22.5239 N   0  3  0  0  0  0  0  0  0  0  0  0
  -22.5253  -14.7466   20.8772 O   0  0  0  0  0  0  0  0  0  0  0  0
  -26.9595  -18.2185   30.2070 O   0  0  0  0  0  0  0  0  0  0  0  0
  -27.2220  -20.2101   27.0195 O   0  0  0  0  0  0  0  0  0  0  0  0
  -28.8241  -16.4968   24.5365 O   0  0  0  0  0  0  0  0  0  0  0  0
  -32.1979  -13.0518   21.2520 O   0  0  0  0  0  0  0  0  0  0  0  0
  -21.4835   -7.0708   21.6404 O   0  0  0  0  0  0  0  0  0  0  0  0
  -31.7673  -13.7075   30.0054 O   0  0  0  0  0  0  0  0  0  1  0  0
  -23.4561   -3.2691   25.1132 F   0  0  0  0  0  0  0  0  0  0  0  0
  -20.0705   -6.3482   23.9040 F   0  0  0  0  0  0  0  0  0  0  0  0
  -30.5148  -12.5382   25.5715 S   0  0  0  0  0  0  0  0  0  0  0  0
  1  2  1  0  0  0  0
  1  5  2  0  0  0  0
  2  6  2  0  0  0  0
  3  8  2  0  0  0  0
  3 16  1  0  0  0  0
  4  9  1  0  0  0  0
  4 16  2  0  0  0  0
  5 18  1  0  0  0  0
  6 20  1  0  0  0  0
  7 10  2  0  0  0  0
  7 19  1  0  0  0  0
  8 22  1  0  0  0  0
  9 22  2  0  0  0  0
 10 23  1  0  0  0  0
 11 12  2  0  0  0  0
 11 24  1  0  0  0  0
 12 25  1  0  0  0  0
 13 21  1  0  0  0  0
 13 23  2  0  0  0  0
 14 25  2  0  0  0  0
 14 26  1  0  0  0  0
 15 29  2  0  0  0  0
 15 64  1  0  0  0  0
 16 27  1  0  0  0  0
 17 27  1  0  0  0  0
 17 28  2  0  0  0  0
 17 31  1  0  0  0  0
 18 20  2  0  0  0  0
 18 37  1  0  0  0  0
 19 21  2  0  0  0  0
 19 38  1  0  0  0  0
 20 46  1  0  0  0  0
 21 39  1  0  0  0  0
 22 82  1  0  0  0  0
 23 83  1  0  0  0  0
 24 26  2  0  0  0  0
 24 82  1  0  0  0  0
 25 84  1  0  0  0  0
 26 85  1  0  0  0  0
 27 65  2  0  0  0  0
 28 67  1  0  0  0  0
 28 70  1  0  0  0  0
 29 73  1  0  0  0  0
 29 86  1  0  0  0  0
 30 32  1  0  0  0  0
 30 64  2  0  0  0  0
 30 86  1  0  0  0  0
 31 71  1  0  0  0  0
 31 77  2  0  0  0  0
 32 66  2  0  0  0  0
 32 72  1  0  0  0  0
 33 47  1  0  0  0  0
 33 74  1  0  0  0  0
 33 78  2  0  0  0  0
 34 58  1  0  0  0  0
 34 68  1  0  0  0  0
 34 79  2  0  0  0  0
 35 59  1  0  0  0  0
 35 75  1  0  0  0  0
 35 80  2  0  0  0  0
 36 69  1  0  0  0  0
 36 73  1  0  0  0  0
 36 81  2  0  0  0  0
 37 40  1  0  0  0  0
 38 47  1  0  0  0  0
 39 68  1  0  0  0  0
 40 42  1  0  0  0  0
 41 43  1  0  0  0  0
 41 44  1  0  0  0  0
 42 46  1  0  0  0  0
 43 48  1  0  0  0  0
 44 69  1  0  0  0  0
 45 48  1  0  0  0  0
 45 69  1  0  0  0  0
 46 74  1  0  0  0  0
 47 68  1  0  0  0  0
 48 67  1  0  0  0  0
 49 57  1  0  0  0  0
 50 59  1  0  0  0  0
 51 60  1  0  0  0  0
 52 62  1  0  0  0  0
 53 63  1  0  0  0  0
 54 63  1  0  0  0  0
 55 63  1  0  0  0  0
 56 76  1  0  0  0  0
 57 60  1  0  0  0  0
 58 63  1  0  0  0  0
 58 75  1  0  0  0  0
 59 76  1  0  0  0  0
 60 61  1  0  0  0  0
 61 62  1  0  0  0  0
 61 66  1  0  0  0  0
 62 83  1  0  0  0  0
 65 67  1  0  0  0  0
M  CHG  1  76   1
M  ISO  4  36 100  62 101  73 100  83 101
M  END
> <Batch ID>
0193

> <Smiles>
CCC(C)C(NC(=N)c1ncc([100NH:0][100C:0](=O)N2CCCC(n3nc(-c4ccc(Oc5ccc(F)cc5F)cc4)c(C(N)=O)c3N)C2)s1)[101CH:1](C)[101O:1]c1ccc2c(c1)CN(C(=O)C(NC(=O)C(C)NC)C(C)(C)C)C(C(=O)NC1CCCc3ccccc31)C2

> <Shape>
0.151

> <Color>
0.171

> <Negative vol penalty>
0.000

$$$$

  -OEChem-04052305303D

 86 94  0     1  0  0  0  0  0999 V2000
  -24.9183  -17.2129   24.4236 C   0  0  0  0  0  0  0  0  0  0  0  0
  -25.3066  -18.4995   24.7797 C   0  0  0  0  0  0  0  0  0  0  0  0
  -25.7866  -13.4123   21.3380 C   0  0  0  0  0  0  0  0  0  0  0  0
  -25.8831  -13.5738   18.9294 C   0  0  0  0  0  0  0  0  0  0  0  0
  -24.0501  -17.0228   23.3507 C   0  0  0  0  0  0  0  0  0  0  0  0
  -24.8175  -19.5971   24.0706 C   0  0  0  0  0  0  0  0  0  0  0  0
  -26.1102  -25.5307   24.5693 C   0  0  0  0  0  0  0  0  0  0  0  0
  -24.7071  -12.5349   21.2360 C   0  0  0  0  0  0  0  0  0  0  0  0
  -24.8036  -12.6963   18.8273 C   0  0  0  0  0  0  0  0  0  0  0  0
  -27.0037  -26.4402   24.0053 C   0  0  0  0  0  0  0  0  0  0  0  0
  -24.2143   -9.2614   20.5474 C   0  0  0  0  0  0  0  0  0  0  0  0
  -24.2307   -8.1178   21.3458 C   0  0  0  0  0  0  0  0  0  0  0  0
  -25.3049  -27.1269   22.4362 C   0  0  0  0  0  0  0  0  0  0  0  0
  -22.1739   -8.8234   22.3987 C   0  0  0  0  0  0  0  0  0  0  0  0
  -32.4955  -25.8601   20.9245 C   0  0  0  0  0  0  0  0  0  0  0  0
  -26.3746  -13.9318   20.1847 C   0  0  0  0  0  0  0  0  0  0  0  0
  -28.8566  -14.5049   20.3217 C   0  0  0  0  0  0  0  0  0  0  0  0
  -23.5604  -18.1185   22.6207 C   0  0  0  0  0  0  0  0  0  0  0  0
  -24.8085  -25.4045   24.0631 C   0  0  0  0  0  0  0  0  0  0  0  0
  -23.9214  -19.4274   22.9997 C   0  0  0  0  0  0  0  0  0  0  0  0
  -24.3960  -26.2169   22.9973 C   0  0  0  0  0  0  0  0  0  0  0  0
  -24.2156  -12.1769   19.9806 C   0  0  0  0  0  0  0  0  0  0  0  0
  -26.6021  -27.2364   22.9367 C   0  0  0  0  0  0  0  0  0  0  0  0
  -23.1777  -10.1860   20.6746 C   0  0  0  0  0  0  0  0  0  0  0  0
  -23.2105   -7.8988   22.2714 C   0  0  0  0  0  0  0  0  0  0  0  0
  -22.1575   -9.9670   21.6003 C   0  0  0  0  0  0  0  0  0  0  0  0
  -27.4894  -14.8387   20.2895 C   0  0  0  0  0  0  0  0  0  0  0  0
  -31.2710  -26.1756   20.3738 C   0  0  0  0  0  0  0  0  0  0  0  0
  -29.5024  -15.7125   20.4277 C   0  0  0  0  0  0  0  0  0  0  0  0
  -31.5899  -24.2445   19.3842 C   0  0  0  0  0  0  0  0  0  0  0  0
  -29.4678  -27.5579   20.1247 C   0  0  0  0  0  0  0  0  0  0  0  0
  -29.4866  -13.2184   20.2612 C   0  0  0  0  0  0  0  0  0  0  0  0
  -23.1453  -23.0574   22.7108 C   0  0  0  0  0  0  0  0  0  0  0  0
  -20.7119  -25.1931   22.9095 C   0  0  0  0  0  0  0  0  0  0  0  0
  -19.7296  -28.4545   23.1233 C   0  0  0  0  0  0  0  0  0  0  0  0
  -30.1871  -20.8979   18.8185 C   0  0  0  0  0  0  0  0  0  0  0  0
  -22.6171  -17.8559   21.4734 C   0  0  0  0  0  0  0  0  0  0  0  0
  -23.8483  -24.4377   24.7000 C   0  0  0  0  0  0  0  0  0  0  0  0
  -23.0031  -26.1344   22.4302 C   0  0  0  0  0  0  0  0  0  0  0  0
  -22.5060  -19.0357   20.5131 C   0  0  0  0  0  0  0  0  0  0  0  0
  -27.6984  -20.3405   21.3861 C   0  0  0  0  0  0  0  0  0  0  0  0
  -22.2499  -20.3173   21.2919 C   0  0  0  0  0  0  0  0  0  0  0  0
  -27.5372  -18.8203   21.3286 C   0  0  0  0  0  0  0  0  0  0  0  0
  -27.9041  -20.9277   19.9929 C   0  0  0  0  0  0  0  0  0  0  0  0
  -28.8868  -18.8191   19.1795 C   0  0  0  0  0  0  0  0  0  0  0  0
  -23.4263  -20.6345   22.2237 C   0  0  1  0  0  0  0  0  0  0  0  0
  -22.7091  -24.0280   23.7716 C   0  0  1  0  0  0  0  0  0  0  0  0
  -28.6980  -18.1625   20.5591 C   0  0  2  0  0  0  0  0  0  0  0  0
  -28.4898  -29.5719   19.0976 C   0  0  0  0  0  0  0  0  0  0  0  0
  -17.6738  -29.8895   23.2313 C   0  0  0  0  0  0  0  0  0  0  0  0
  -32.0689  -24.2903   14.8533 C   0  0  0  0  0  0  0  0  0  0  0  0
  -33.6596  -23.1988   16.4450 C   0  0  0  0  0  0  0  0  0  0  0  0
  -20.2620  -24.7692   19.9216 C   0  0  0  0  0  0  0  0  0  0  0  0
  -18.8902  -26.8635   19.9019 C   0  0  0  0  0  0  0  0  0  0  0  0
  -18.1683  -24.9146   21.2815 C   0  0  0  0  0  0  0  0  0  0  0  0
  -20.4809  -29.5334   25.7748 C   0  0  0  0  0  0  0  0  0  0  0  0
  -31.1761  -23.3693   17.0146 C   0  0  0  0  0  0  0  0  0  0  0  0
  -27.3111  -28.4138   20.9959 C   0  0  0  0  0  0  0  0  0  1  0  0
  -31.3719  -23.0585   18.5271 C   0  0  2  0  0  0  0  0  0  0  0  0
  -28.6622  -28.8070   20.4040 C   0  0  1  0  0  0  0  0  0  0  0  0
  -20.1667  -26.2791   22.0137 C   0  0  1  0  0  0  0  0  0  0  0  0
  -18.7322  -29.1484   24.0333 C   0  0  2  0  0  0  0  0  0  0  0  0
  -32.3866  -24.0383   16.3302 C   0  0  0  0  0  0  0  0  0  0  0  0
  -19.3987  -25.7070   20.7889 C   0  0  0  0  0  0  0  0  0  0  0  0
  -27.2779  -16.1551   20.3688 N   0  0  0  0  0  0  0  0  0  0  0  0
  -30.7504  -25.2506   19.4900 N   0  0  0  0  0  0  0  0  0  0  0  0
  -30.6092  -27.3701   20.7033 N   0  0  0  0  0  0  0  0  0  0  0  0
  -28.5209  -16.6592   20.4520 N   0  0  0  0  0  0  0  0  0  0  0  0
  -22.1030  -25.1693   23.0829 N   0  0  0  0  0  0  0  0  0  0  0  0
  -29.0349  -20.2714   19.3217 N   0  0  0  0  0  0  0  0  0  0  0  0
  -30.8084  -16.0462   20.5017 N   0  0  0  0  0  0  0  0  0  0  0  0
  -28.6744  -12.0812   20.1531 N   0  0  0  0  0  0  0  0  0  0  0  0
  -23.0588  -21.7318   23.0913 N   0  0  0  0  0  0  0  0  0  0  0  0
  -19.3658  -27.1492   22.8681 N   0  0  0  0  0  0  0  0  0  0  0  0
  -30.2465  -22.2758   18.9872 N   0  0  0  0  0  0  0  0  0  0  0  0
  -19.4287  -30.1300   24.9123 N   0  3  0  0  0  0  0  0  0  0  0  0
  -30.7320  -13.0802   20.3182 O   0  0  0  0  0  0  0  0  0  0  0  0
  -23.5305  -23.4799   21.6269 O   0  0  0  0  0  0  0  0  0  0  0  0
  -19.9315  -24.3997   23.4417 O   0  0  0  0  0  0  0  0  0  0  0  0
  -20.7293  -29.0154   22.6801 O   0  0  0  0  0  0  0  0  0  0  0  0
  -31.0988  -20.2744   18.2642 O   0  0  0  0  0  0  0  0  0  0  0  0
  -23.1624  -11.3205   19.8806 O   0  0  0  0  0  0  0  0  0  0  0  0
  -27.4725  -28.1245   22.3839 O   0  0  0  0  0  0  0  0  0  1  0  0
  -23.2256   -6.7998   23.0370 F   0  0  0  0  0  0  0  0  0  0  0  0
  -21.1584  -10.8512   21.7262 F   0  0  0  0  0  0  0  0  0  0  0  0
  -33.0250  -24.3450   20.3198 S   0  0  0  0  0  0  0  0  0  0  0  0
  1  2  1  0  0  0  0
  1  5  2  0  0  0  0
  2  6  2  0  0  0  0
  3  8  2  0  0  0  0
  3 16  1  0  0  0  0
  4  9  1  0  0  0  0
  4 16  2  0  0  0  0
  5 18  1  0  0  0  0
  6 20  1  0  0  0  0
  7 10  2  0  0  0  0
  7 19  1  0  0  0  0
  8 22  1  0  0  0  0
  9 22  2  0  0  0  0
 10 23  1  0  0  0  0
 11 12  2  0  0  0  0
 11 24  1  0  0  0  0
 12 25  1  0  0  0  0
 13 21  1  0  0  0  0
 13 23  2  0  0  0  0
 14 25  2  0  0  0  0
 14 26  1  0  0  0  0
 15 28  2  0  0  0  0
 15 86  1  0  0  0  0
 16 27  1  0  0  0  0
 17 27  1  0  0  0  0
 17 29  2  0  0  0  0
 17 32  1  0  0  0  0
 18 20  2  0  0  0  0
 18 37  1  0  0  0  0
 19 21  2  0  0  0  0
 19 38  1  0  0  0  0
 20 46  1  0  0  0  0
 21 39  1  0  0  0  0
 22 82  1  0  0  0  0
 23 83  1  0  0  0  0
 24 26  2  0  0  0  0
 24 82  1  0  0  0  0
 25 84  1  0  0  0  0
 26 85  1  0  0  0  0
 27 65  2  0  0  0  0
 28 66  1  0  0  0  0
 28 67  1  0  0  0  0
 29 68  1  0  0  0  0
 29 71  1  0  0  0  0
 30 59  1  0  0  0  0
 30 66  2  0  0  0  0
 30 86  1  0  0  0  0
 31 60  1  0  0  0  0
 31 67  2  0  0  0  0
 32 72  1  0  0  0  0
 32 77  2  0  0  0  0
 33 47  1  0  0  0  0
 33 73  1  0  0  0  0
 33 78  2  0  0  0  0
 34 61  1  0  0  0  0
 34 69  1  0  0  0  0
 34 79  2  0  0  0  0
 35 62  1  0  0  0  0
 35 74  1  0  0  0  0
 35 80  2  0  0  0  0
 36 70  1  0  0  0  0
 36 75  1  0  0  0  0
 36 81  2  0  0  0  0
 37 40  1  0  0  0  0
 38 47  1  0  0  0  0
 39 69  1  0  0  0  0
 40 42  1  0  0  0  0
 41 43  1  0  0  0  0
 41 44  1  0  0  0  0
 42 46  1  0  0  0  0
 43 48  1  0  0  0  0
 44 70  1  0  0  0  0
 45 48  1  0  0  0  0
 45 70  1  0  0  0  0
 46 73  1  0  0  0  0
 47 69  1  0  0  0  0
 48 68  1  0  0  0  0
 49 60  1  0  0  0  0
 50 62  1  0  0  0  0
 51 63  1  0  0  0  0
 52 63  1  0  0  0  0
 53 64  1  0  0  0  0
 54 64  1  0  0  0  0
 55 64  1  0  0  0  0
 56 76  1  0  0  0  0
 57 59  1  0  0  0  0
 57 63  1  0  0  0  0
 58 60  1  0  0  0  0
 58 83  1  0  0  0  0
 59 75  1  0  0  0  0
 61 64  1  0  0  0  0
 61 74  1  0  0  0  0
 62 76  1  0  0  0  0
 65 68  1  0  0  0  0
M  CHG  1  76   1
M  ISO  4  36 100  58 101  75 100  83 101
M  END
> <Batch ID>
0193

> <Smiles>
CNC(C)C(=O)NC(C(=O)N1Cc2cc([101O:1][101CH2:1]C(C)=CNc3csc(C(CC(C)C)[100NH:0][100C:0](=O)N4CCCC(n5nc(-c6ccc(Oc7ccc(F)cc7F)cc6)c(C(N)=O)c5N)C4)n3)ccc2CC1C(=O)NC1CCCc2ccccc21)C(C)(C)C

> <Shape>
0.246

> <Color>
0.047

> <Negative vol penalty>
0.000

$$$$

  -OEChem-04052305303D

 84 92  0     1  0  0  0  0  0999 V2000
  -30.9612  -32.4834   21.3766 C   0  0  0  0  0  0  0  0  0  0  0  0
  -30.6510  -31.3748   22.1578 C   0  0  0  0  0  0  0  0  0  0  0  0
  -23.0447   -9.9802   19.8342 C   0  0  0  0  0  0  0  0  0  0  0  0
  -23.8875   -9.7796   22.0896 C   0  0  0  0  0  0  0  0  0  0  0  0
  -30.6136  -32.5026   20.0265 C   0  0  0  0  0  0  0  0  0  0  0  0
  -29.9922  -30.2851   21.5896 C   0  0  0  0  0  0  0  0  0  0  0  0
  -32.0231  -25.8544   22.9639 C   0  0  0  0  0  0  0  0  0  0  0  0
  -22.3229   -8.7981   19.9988 C   0  0  0  0  0  0  0  0  0  0  0  0
  -23.1656   -8.5974   22.2542 C   0  0  0  0  0  0  0  0  0  0  0  0
  -31.7055  -25.3750   24.2339 C   0  0  0  0  0  0  0  0  0  0  0  0
  -19.9703   -7.7003   22.8909 C   0  0  0  0  0  0  0  0  0  0  0  0
  -19.2569   -7.5384   24.0786 C   0  0  0  0  0  0  0  0  0  0  0  0
  -32.0436  -16.5707   22.7591 C   0  0  0  0  0  0  0  0  0  0  0  0
  -30.0643  -23.8995   23.2598 C   0  0  0  0  0  0  0  0  0  0  0  0
  -29.8838  -17.3270   23.4992 C   0  0  0  0  0  0  0  0  0  0  0  0
  -20.5450   -5.5574   24.5821 C   0  0  0  0  0  0  0  0  0  0  0  0
  -32.6020  -17.3853   23.7310 C   0  0  0  0  0  0  0  0  0  0  0  0
  -23.8271  -10.4709   20.8796 C   0  0  0  0  0  0  0  0  0  0  0  0
  -24.1373  -13.0006   20.9897 C   0  0  0  0  0  0  0  0  0  0  0  0
  -29.9587  -31.4086   19.4392 C   0  0  0  0  0  0  0  0  0  0  0  0
  -31.3550  -25.3670   21.8314 C   0  0  0  0  0  0  0  0  0  0  0  0
  -29.6343  -30.2903   20.2307 C   0  0  0  0  0  0  0  0  0  0  0  0
  -30.3772  -24.3725   21.9763 C   0  0  0  0  0  0  0  0  0  0  0  0
  -30.6579  -16.5467   22.6476 C   0  0  0  0  0  0  0  0  0  0  0  0
  -22.3833   -8.1067   21.2087 C   0  0  0  0  0  0  0  0  0  0  0  0
  -30.7239  -24.3995   24.3823 C   0  0  0  0  0  0  0  0  0  0  0  0
  -20.9709   -6.7907   22.5488 C   0  0  0  0  0  0  0  0  0  0  0  0
  -19.5443   -6.4669   24.9242 C   0  0  0  0  0  0  0  0  0  0  0  0
  -21.2583   -5.7193   23.3944 C   0  0  0  0  0  0  0  0  0  0  0  0
  -24.5735  -11.6917   20.7100 C   0  0  0  0  0  0  0  0  0  0  0  0
  -30.5388  -18.1076   24.4380 C   0  0  0  0  0  0  0  0  0  0  0  0
  -25.2074  -13.7966   20.6616 C   0  0  0  0  0  0  0  0  0  0  0  0
  -22.8775  -13.4562   21.5005 C   0  0  0  0  0  0  0  0  0  0  0  0
  -29.7637  -18.9619   25.3742 C   0  0  0  0  0  0  0  0  0  0  0  0
  -29.4914  -26.6523   19.6001 C   0  0  0  0  0  0  0  0  0  0  0  0
  -29.7109  -23.7017   18.2703 C   0  0  0  0  0  0  0  0  0  0  0  0
  -30.2784  -20.3643   18.7018 C   0  0  0  0  0  0  0  0  0  0  0  0
  -30.6648  -14.8980   20.7428 C   0  0  0  0  0  0  0  0  0  0  0  0
  -29.5610  -31.4948   17.9869 C   0  0  0  0  0  0  0  0  0  0  0  0
  -31.7281  -25.8752   20.4658 C   0  0  0  0  0  0  0  0  0  0  0  0
  -29.6449  -23.8017   20.7904 C   0  0  0  0  0  0  0  0  0  0  0  0
  -29.1984  -30.1449   17.3735 C   0  0  0  0  0  0  0  0  0  0  0  0
  -29.4909  -12.7051   18.1952 C   0  0  0  0  0  0  0  0  0  0  0  0
  -28.2660  -29.3707   18.2999 C   0  0  0  0  0  0  0  0  0  0  0  0
  -28.0710  -12.3537   18.6454 C   0  0  0  0  0  0  0  0  0  0  0  0
  -30.4466  -12.8314   19.3803 C   0  0  0  0  0  0  0  0  0  0  0  0
  -28.5836  -13.3940   20.8908 C   0  0  0  0  0  0  0  0  0  0  0  0
  -28.9423  -29.0787   19.6448 C   0  0  1  0  0  0  0  0  0  0  0  0
  -30.6231  -25.6782   19.4325 C   0  0  1  0  0  0  0  0  0  0  0  0
  -27.5704  -13.3200   19.7368 C   0  0  2  0  0  0  0  0  0  0  0  0
  -30.3515  -18.1987   17.4360 C   0  0  0  0  0  0  0  0  0  0  0  0
  -30.2535  -20.0720   28.6651 C   0  0  0  0  0  0  0  0  0  0  0  0
  -26.6611  -23.6465   18.1935 C   0  0  0  0  0  0  0  0  0  0  0  0
  -26.7845  -21.1719   17.8336 C   0  0  0  0  0  0  0  0  0  0  0  0
  -27.7729  -22.7260   16.1512 C   0  0  0  0  0  0  0  0  0  0  0  0
  -33.1278  -19.9328   19.3753 C   0  0  0  0  0  0  0  0  0  0  0  0
  -30.3344  -22.0214   27.0745 C   0  0  0  0  0  0  0  0  0  0  0  0
  -29.9532  -22.5816   25.7080 C   0  0  0  0  0  0  0  0  0  1  0  0
  -28.9243  -22.4180   18.3809 C   0  0  1  0  0  0  0  0  0  0  0  0
  -31.1561  -19.3854   17.9430 C   0  0  2  0  0  0  0  0  0  0  0  0
  -29.9020  -20.5634   27.2641 C   0  0  1  0  0  0  0  0  0  0  0  0
  -27.5479  -22.5026   17.6626 C   0  0  0  0  0  0  0  0  0  0  0  0
  -31.8828  -18.1571   24.5763 N   0  0  0  0  0  0  0  0  0  0  0  0
  -25.8233  -11.6540   20.2402 N   0  0  0  0  0  0  0  0  0  0  0  0
  -26.1815  -12.9492   20.2221 N   0  0  0  0  0  0  0  0  0  0  0  0
  -30.0408  -24.3354   19.4767 N   0  0  0  0  0  0  0  0  0  0  0  0
  -29.9089  -13.7660   20.3714 N   0  0  0  0  0  0  0  0  0  0  0  0
  -25.4008  -15.1318   20.7089 N   0  0  0  0  0  0  0  0  0  0  0  0
  -21.8883  -12.5048   21.7847 N   0  0  0  0  0  0  0  0  0  0  0  0
  -30.0378  -15.7317   21.6683 N   0  0  0  0  0  0  0  0  0  0  0  0
  -30.5107  -19.7049   26.2754 N   0  0  0  0  0  0  0  0  0  0  0  0
  -29.8725  -27.9777   19.5142 N   0  0  0  0  0  0  0  0  0  0  0  0
  -29.7958  -21.3607   17.8800 N   0  0  0  0  0  0  0  0  0  0  0  0
  -32.2435  -18.8738   18.8244 N   0  3  0  0  0  0  0  0  0  0  0  0
  -22.6303  -14.6723   21.6836 O   0  0  0  0  0  0  0  0  0  0  0  0
  -28.5367  -18.9523   25.3191 O   0  0  0  0  0  0  0  0  0  0  0  0
  -28.3562  -26.2324   19.7916 O   0  0  0  0  0  0  0  0  0  0  0  0
  -30.0273  -24.1229   17.1549 O   0  0  0  0  0  0  0  0  0  0  0  0
  -30.0413  -20.2538   19.9027 O   0  0  0  0  0  0  0  0  0  0  0  0
  -31.7743  -15.1264   20.2540 O   0  0  0  0  0  0  0  0  0  0  0  0
  -21.6788   -6.9533   21.3698 O   0  0  0  0  0  0  0  0  0  0  0  0
  -30.4114  -23.9303   25.6209 O   0  0  0  0  0  0  0  0  0  1  0  0
  -18.8602   -6.3124   26.0654 F   0  0  0  0  0  0  0  0  0  0  0  0
  -22.2194   -4.8429   23.0717 F   0  0  0  0  0  0  0  0  0  0  0  0
  1  2  1  0  0  0  0
  1  5  2  0  0  0  0
  2  6  2  0  0  0  0
  3  8  2  0  0  0  0
  3 18  1  0  0  0  0
  4  9  1  0  0  0  0
  4 18  2  0  0  0  0
  5 20  1  0  0  0  0
  6 22  1  0  0  0  0
  7 10  2  0  0  0  0
  7 21  1  0  0  0  0
  8 25  1  0  0  0  0
  9 25  2  0  0  0  0
 10 26  1  0  0  0  0
 11 12  2  0  0  0  0
 11 27  1  0  0  0  0
 12 28  1  0  0  0  0
 13 17  2  0  0  0  0
 13 24  1  0  0  0  0
 14 23  1  0  0  0  0
 14 26  2  0  0  0  0
 15 24  2  0  0  0  0
 15 31  1  0  0  0  0
 16 28  2  0  0  0  0
 16 29  1  0  0  0  0
 17 63  1  0  0  0  0
 18 30  1  0  0  0  0
 19 30  1  0  0  0  0
 19 32  2  0  0  0  0
 19 33  1  0  0  0  0
 20 22  2  0  0  0  0
 20 39  1  0  0  0  0
 21 23  2  0  0  0  0
 21 40  1  0  0  0  0
 22 48  1  0  0  0  0
 23 41  1  0  0  0  0
 24 70  1  0  0  0  0
 25 81  1  0  0  0  0
 26 82  1  0  0  0  0
 27 29  2  0  0  0  0
 27 81  1  0  0  0  0
 28 83  1  0  0  0  0
 29 84  1  0  0  0  0
 30 64  2  0  0  0  0
 31 34  1  0  0  0  0
 31 63  2  0  0  0  0
 32 65  1  0  0  0  0
 32 68  1  0  0  0  0
 33 69  1  0  0  0  0
 33 75  2  0  0  0  0
 34 71  1  0  0  0  0
 34 76  2  0  0  0  0
 35 49  1  0  0  0  0
 35 72  1  0  0  0  0
 35 77  2  0  0  0  0
 36 59  1  0  0  0  0
 36 66  1  0  0  0  0
 36 78  2  0  0  0  0
 37 60  1  0  0  0  0
 37 73  1  0  0  0  0
 37 79  2  0  0  0  0
 38 67  1  0  0  0  0
 38 70  1  0  0  0  0
 38 80  2  0  0  0  0
 39 42  1  0  0  0  0
 40 49  1  0  0  0  0
 41 66  1  0  0  0  0
 42 44  1  0  0  0  0
 43 45  1  0  0  0  0
 43 46  1  0  0  0  0
 44 48  1  0  0  0  0
 45 50  1  0  0  0  0
 46 67  1  0  0  0  0
 47 50  1  0  0  0  0
 47 67  1  0  0  0  0
 48 72  1  0  0  0  0
 49 66  1  0  0  0  0
 50 65  1  0  0  0  0
 51 60  1  0  0  0  0
 52 61  1  0  0  0  0
 53 62  1  0  0  0  0
 54 62  1  0  0  0  0
 55 62  1  0  0  0  0
 56 74  1  0  0  0  0
 57 58  1  0  0  0  0
 57 61  1  0  0  0  0
 58 82  1  0  0  0  0
 59 62  1  0  0  0  0
 59 73  1  0  0  0  0
 60 74  1  0  0  0  0
 61 71  1  0  0  0  0
 64 65  1  0  0  0  0
M  CHG  1  74   1
M  ISO  4  38 100  58 101  70 100  82 101
M  END
> <Batch ID>
0193

> <Smiles>
CNC(C)C(=O)NC(C(=O)N1Cc2cc([101O:1][101CH2:1]CC(C)NC(=O)c3cc([100NH:0][100C:0](=O)N4CCCC(n5nc(-c6ccc(Oc7ccc(F)cc7F)cc6)c(C(N)=O)c5N)C4)ccn3)ccc2CC1C(=O)NC1CCCc2ccccc21)C(C)(C)C

> <Shape>
0.249

> <Color>
0.210

> <Negative vol penalty>
0.000

$$$$

  -OEChem-04052305303D

 84 92  0     1  0  0  0  0  0999 V2000
  -29.9006  -35.4217   26.1047 C   0  0  0  0  0  0  0  0  0  0  0  0
  -30.2270  -34.6286   25.0093 C   0  0  0  0  0  0  0  0  0  0  0  0
  -23.2204   -9.6665   21.5194 C   0  0  0  0  0  0  0  0  0  0  0  0
  -23.8313  -10.7506   23.5903 C   0  0  0  0  0  0  0  0  0  0  0  0
  -28.9111  -35.0061   26.9947 C   0  0  0  0  0  0  0  0  0  0  0  0
  -29.5648  -33.4188   24.8039 C   0  0  0  0  0  0  0  0  0  0  0  0
  -27.2743  -29.1314   19.5419 C   0  0  0  0  0  0  0  0  0  0  0  0
  -22.5653   -8.6655   22.2366 C   0  0  0  0  0  0  0  0  0  0  0  0
  -23.1761   -9.7496   24.3076 C   0  0  0  0  0  0  0  0  0  0  0  0
  -27.3481  -27.8027   19.1261 C   0  0  0  0  0  0  0  0  0  0  0  0
  -23.4042   -5.8851   23.9657 C   0  0  0  0  0  0  0  0  0  0  0  0
  -23.6190   -4.5631   23.5759 C   0  0  0  0  0  0  0  0  0  0  0  0
  -25.6007  -27.2241   20.6853 C   0  0  0  0  0  0  0  0  0  0  0  0
  -21.2559   -4.3067   23.1434 C   0  0  0  0  0  0  0  0  0  0  0  0
  -23.8535  -10.7090   22.1963 C   0  0  0  0  0  0  0  0  0  0  0  0
  -23.9816  -12.9509   20.9859 C   0  0  0  0  0  0  0  0  0  0  0  0
  -28.2297  -33.7952   26.7947 C   0  0  0  0  0  0  0  0  0  0  0  0
  -26.3693  -29.5151   20.5420 C   0  0  0  0  0  0  0  0  0  0  0  0
  -28.5662  -32.9859   25.6928 C   0  0  0  0  0  0  0  0  0  0  0  0
  -25.5156  -28.5587   21.1102 C   0  0  0  0  0  0  0  0  0  0  0  0
  -22.5431   -8.7071   23.6307 C   0  0  0  0  0  0  0  0  0  0  0  0
  -26.5133  -26.8483   19.6999 C   0  0  0  0  0  0  0  0  0  0  0  0
  -22.1152   -6.4178   23.9444 C   0  0  0  0  0  0  0  0  0  0  0  0
  -22.5449   -3.7739   23.1647 C   0  0  0  0  0  0  0  0  0  0  0  0
  -21.0411   -5.6286   23.5332 C   0  0  0  0  0  0  0  0  0  0  0  0
  -24.5309  -11.7430   21.4559 C   0  0  0  0  0  0  0  0  0  0  0  0
  -30.9911  -19.5152   19.8658 C   0  0  0  0  0  0  0  0  0  0  0  0
  -25.0252  -13.5784   20.3505 C   0  0  0  0  0  0  0  0  0  0  0  0
  -29.8171  -20.0502   20.3531 C   0  0  0  0  0  0  0  0  0  0  0  0
  -29.9367  -17.6447   20.3123 C   0  0  0  0  0  0  0  0  0  0  0  0
  -22.6474  -13.4603   21.1123 C   0  0  0  0  0  0  0  0  0  0  0  0
  -26.6387  -30.7712   23.4494 C   0  0  0  0  0  0  0  0  0  0  0  0
  -23.4030  -30.9079   23.2658 C   0  0  0  0  0  0  0  0  0  0  0  0
  -20.5259  -29.6995   21.8842 C   0  0  0  0  0  0  0  0  0  0  0  0
  -30.3582  -15.1664   20.1489 C   0  0  0  0  0  0  0  0  0  0  0  0
  -27.2005  -33.3651   27.8098 C   0  0  0  0  0  0  0  0  0  0  0  0
  -26.2833  -30.9573   20.9604 C   0  0  0  0  0  0  0  0  0  0  0  0
  -24.5125  -28.9229   22.1730 C   0  0  0  0  0  0  0  0  0  0  0  0
  -26.2849  -32.2490   27.3137 C   0  0  0  0  0  0  0  0  0  0  0  0
  -29.6085  -11.8602   19.0609 C   0  0  0  0  0  0  0  0  0  0  0  0
  -27.1008  -31.1456   26.6476 C   0  0  0  0  0  0  0  0  0  0  0  0
  -28.1755  -11.6343   19.5483 C   0  0  0  0  0  0  0  0  0  0  0  0
  -30.4230  -12.6840   20.0567 C   0  0  0  0  0  0  0  0  0  0  0  0
  -28.3774  -13.7314   20.9443 C   0  0  0  0  0  0  0  0  0  0  0  0
  -27.8531  -31.6789   25.4223 C   0  0  1  0  0  0  0  0  0  0  0  0
  -25.6829  -31.1412   22.3507 C   0  0  1  0  0  0  0  0  0  0  0  0
  -27.4992  -12.9615   19.9445 C   0  0  2  0  0  0  0  0  0  0  0  0
  -32.1606  -20.2753   19.3759 C   0  0  0  0  0  0  0  0  0  0  0  0
  -18.0337  -29.9835   21.9598 C   0  0  0  0  0  0  0  0  0  0  0  0
  -26.8675  -22.8110   18.3515 C   0  0  0  0  0  0  0  0  0  0  0  0
  -28.2331  -21.6977   22.5347 C   0  0  0  0  0  0  0  0  0  0  0  0
  -23.3138  -29.3980   25.9157 C   0  0  0  0  0  0  0  0  0  0  0  0
  -20.9051  -28.8865   25.4632 C   0  0  0  0  0  0  0  0  0  0  0  0
  -21.6494  -31.2539   25.7160 C   0  0  0  0  0  0  0  0  0  0  0  0
  -20.4105  -30.4685   19.0287 C   0  0  0  0  0  0  0  0  0  0  0  0
  -27.9574  -23.3005   20.6089 C   0  0  0  0  0  0  0  0  0  0  0  0
  -27.8505  -25.0811   18.8368 C   0  0  0  0  0  0  0  0  0  1  0  0
  -22.2715  -29.9756   23.6253 C   0  0  1  0  0  0  0  0  0  0  0  0
  -19.3261  -30.4046   21.2778 C   0  0  2  0  0  0  0  0  0  0  0  0
  -27.9754  -23.5711   19.0889 C   0  0  2  0  0  0  0  0  0  0  0  0
  -28.2096  -21.8401   21.0152 C   0  0  1  0  0  0  0  0  0  0  0  0
  -22.0551  -29.8710   25.1614 C   0  0  0  0  0  0  0  0  0  0  0  0
  -25.8231  -11.6089   21.1456 N   0  0  0  0  0  0  0  0  0  0  0  0
  -31.0617  -18.1360   19.8419 N   0  0  0  0  0  0  0  0  0  0  0  0
  -26.0944  -12.7407   20.4736 N   0  0  0  0  0  0  0  0  0  0  0  0
  -24.4709  -30.3447   22.5529 N   0  0  0  0  0  0  0  0  0  0  0  0
  -29.7227  -13.9284   20.3819 N   0  0  0  0  0  0  0  0  0  0  0  0
  -25.1234  -14.7595   19.7042 N   0  0  0  0  0  0  0  0  0  0  0  0
  -21.6991  -12.6872   21.7959 N   0  0  0  0  0  0  0  0  0  0  0  0
  -29.4793  -21.3851   20.4896 N   0  0  0  0  0  0  0  0  0  0  0  0
  -29.5829  -16.2813   20.4660 N   0  0  0  0  0  0  0  0  0  0  0  0
  -26.9533  -31.8161   24.2971 N   0  0  0  0  0  0  0  0  0  0  0  0
  -21.1041  -30.4472   22.8882 N   0  0  0  0  0  0  0  0  0  0  0  0
  -19.2170  -30.0857   19.8262 N   0  3  0  0  0  0  0  0  0  0  0  0
  -22.3020  -14.5607   20.6191 O   0  0  0  0  0  0  0  0  0  0  0  0
  -27.0586  -29.6223   23.5235 O   0  0  0  0  0  0  0  0  0  0  0  0
  -23.3384  -32.0939   23.5987 O   0  0  0  0  0  0  0  0  0  0  0  0
  -20.9094  -28.5942   21.5077 O   0  0  0  0  0  0  0  0  0  0  0  0
  -31.4955  -15.2331   19.6755 O   0  0  0  0  0  0  0  0  0  0  0  0
  -21.9037   -7.7306   24.3309 O   0  0  0  0  0  0  0  0  0  0  0  0
  -26.5837  -25.5506   19.2963 O   0  0  0  0  0  0  0  0  0  1  0  0
  -22.7515   -2.5050   22.7890 F   0  0  0  0  0  0  0  0  0  0  0  0
  -19.8007   -6.1352   23.5095 F   0  0  0  0  0  0  0  0  0  0  0  0
  -28.7503  -18.7842   20.8010 S   0  0  0  0  0  0  0  0  0  0  0  0
  1  2  1  0  0  0  0
  1  5  2  0  0  0  0
  2  6  2  0  0  0  0
  3  8  2  0  0  0  0
  3 15  1  0  0  0  0
  4  9  1  0  0  0  0
  4 15  2  0  0  0  0
  5 17  1  0  0  0  0
  6 19  1  0  0  0  0
  7 10  2  0  0  0  0
  7 18  1  0  0  0  0
  8 21  1  0  0  0  0
  9 21  2  0  0  0  0
 10 22  1  0  0  0  0
 11 12  2  0  0  0  0
 11 23  1  0  0  0  0
 12 24  1  0  0  0  0
 13 20  1  0  0  0  0
 13 22  2  0  0  0  0
 14 24  2  0  0  0  0
 14 25  1  0  0  0  0
 15 26  1  0  0  0  0
 16 26  1  0  0  0  0
 16 28  2  0  0  0  0
 16 31  1  0  0  0  0
 17 19  2  0  0  0  0
 17 36  1  0  0  0  0
 18 20  2  0  0  0  0
 18 37  1  0  0  0  0
 19 45  1  0  0  0  0
 20 38  1  0  0  0  0
 21 80  1  0  0  0  0
 22 81  1  0  0  0  0
 23 25  2  0  0  0  0
 23 80  1  0  0  0  0
 24 82  1  0  0  0  0
 25 83  1  0  0  0  0
 26 63  2  0  0  0  0
 27 29  2  0  0  0  0
 27 48  1  0  0  0  0
 27 64  1  0  0  0  0
 28 65  1  0  0  0  0
 28 68  1  0  0  0  0
 29 70  1  0  0  0  0
 29 84  1  0  0  0  0
 30 64  2  0  0  0  0
 30 71  1  0  0  0  0
 30 84  1  0  0  0  0
 31 69  1  0  0  0  0
 31 75  2  0  0  0  0
 32 46  1  0  0  0  0
 32 72  1  0  0  0  0
 32 76  2  0  0  0  0
 33 58  1  0  0  0  0
 33 66  1  0  0  0  0
 33 77  2  0  0  0  0
 34 59  1  0  0  0  0
 34 73  1  0  0  0  0
 34 78  2  0  0  0  0
 35 67  1  0  0  0  0
 35 71  1  0  0  0  0
 35 79  2  0  0  0  0
 36 39  1  0  0  0  0
 37 46  1  0  0  0  0
 38 66  1  0  0  0  0
 39 41  1  0  0  0  0
 40 42  1  0  0  0  0
 40 43  1  0  0  0  0
 41 45  1  0  0  0  0
 42 47  1  0  0  0  0
 43 67  1  0  0  0  0
 44 47  1  0  0  0  0
 44 67  1  0  0  0  0
 45 72  1  0  0  0  0
 46 66  1  0  0  0  0
 47 65  1  0  0  0  0
 49 59  1  0  0  0  0
 50 60  1  0  0  0  0
 51 61  1  0  0  0  0
 52 62  1  0  0  0  0
 53 62  1  0  0  0  0
 54 62  1  0  0  0  0
 55 74  1  0  0  0  0
 56 60  1  0  0  0  0
 56 61  1  0  0  0  0
 57 60  1  0  0  0  0
 57 81  1  0  0  0  0
 58 62  1  0  0  0  0
 58 73  1  0  0  0  0
 59 74  1  0  0  0  0
 61 70  1  0  0  0  0
 63 65  1  0  0  0  0
M  CHG  1  74   1
M  ISO  4  35 100  57 101  71 100  81 101
M  END
> <Batch ID>
0193

> <Smiles>
CNC(C)C(=O)NC(C(=O)N1Cc2cc([101O:1][101CH2:1]C(C)CC(C)Nc3sc([100NH:0][100C:0](=O)N4CCCC(n5nc(-c6ccc(Oc7ccc(F)cc7F)cc6)c(C(N)=O)c5N)C4)nc3C)ccc2CC1C(=O)NC1CCCc2ccccc21)C(C)(C)C

> <Shape>
0.340

> <Color>
0.196

> <Negative vol penalty>
0.000

$$$$

  -OEChem-04052305303D

 81 89  0     1  0  0  0  0  0999 V2000
  -27.7305  -36.0299   20.2944 C   0  0  0  0  0  0  0  0  0  0  0  0
  -28.3888  -34.8722   19.8922 C   0  0  0  0  0  0  0  0  0  0  0  0
  -25.2432   -9.7459   21.7831 C   0  0  0  0  0  0  0  0  0  0  0  0
  -25.2238  -11.2578   23.6674 C   0  0  0  0  0  0  0  0  0  0  0  0
  -26.9653  -36.0262   21.4599 C   0  0  0  0  0  0  0  0  0  0  0  0
  -28.2832  -33.7104   20.6560 C   0  0  0  0  0  0  0  0  0  0  0  0
  -28.1540  -27.9463   18.5909 C   0  0  0  0  0  0  0  0  0  0  0  0
  -25.2877   -8.6587   22.6558 C   0  0  0  0  0  0  0  0  0  0  0  0
  -25.2682  -10.1706   24.5402 C   0  0  0  0  0  0  0  0  0  0  0  0
  -29.1385  -26.9645   18.4879 C   0  0  0  0  0  0  0  0  0  0  0  0
  -23.1225   -6.9305   24.5944 C   0  0  0  0  0  0  0  0  0  0  0  0
  -22.2759   -5.8536   24.3320 C   0  0  0  0  0  0  0  0  0  0  0  0
  -28.4220  -26.0334   20.5947 C   0  0  0  0  0  0  0  0  0  0  0  0
  -24.1922   -4.3961   24.1304 C   0  0  0  0  0  0  0  0  0  0  0  0
  -27.6294  -19.9891   21.9535 C   0  0  0  0  0  0  0  0  0  0  0  0
  -25.2113  -11.0455   22.2889 C   0  0  0  0  0  0  0  0  0  0  0  0
  -24.0177  -12.7985   20.8712 C   0  0  0  0  0  0  0  0  0  0  0  0
  -26.8424  -34.8611   22.2332 C   0  0  0  0  0  0  0  0  0  0  0  0
  -27.3017  -27.9855   19.7038 C   0  0  0  0  0  0  0  0  0  0  0  0
  -27.5167  -33.6914   21.8336 C   0  0  0  0  0  0  0  0  0  0  0  0
  -27.4258  -27.0151   20.7082 C   0  0  0  0  0  0  0  0  0  0  0  0
  -25.3002   -8.8711   24.0343 C   0  0  0  0  0  0  0  0  0  0  0  0
  -29.2745  -26.0096   19.4912 C   0  0  0  0  0  0  0  0  0  0  0  0
  -24.5041   -6.7403   24.6248 C   0  0  0  0  0  0  0  0  0  0  0  0
  -22.8107   -4.5864   24.1000 C   0  0  0  0  0  0  0  0  0  0  0  0
  -25.0389   -5.4731   24.3928 C   0  0  0  0  0  0  0  0  0  0  0  0
  -25.1660  -12.1690   21.3879 C   0  0  0  0  0  0  0  0  0  0  0  0
  -28.8933  -19.6713   21.5024 C   0  0  0  0  0  0  0  0  0  0  0  0
  -24.5069  -13.8025   20.0718 C   0  0  0  0  0  0  0  0  0  0  0  0
  -28.5925  -21.5216   20.3640 C   0  0  0  0  0  0  0  0  0  0  0  0
  -22.6327  -12.5022   21.0940 C   0  0  0  0  0  0  0  0  0  0  0  0
  -26.7349  -30.0850   22.0221 C   0  0  0  0  0  0  0  0  0  0  0  0
  -24.3828  -27.9941   22.8083 C   0  0  0  0  0  0  0  0  0  0  0  0
  -23.1846  -24.8010   22.6853 C   0  0  0  0  0  0  0  0  0  0  0  0
  -29.6594  -16.8525   20.0499 C   0  0  0  0  0  0  0  0  0  0  0  0
  -26.0425  -34.9185   23.5105 C   0  0  0  0  0  0  0  0  0  0  0  0
  -26.2273  -29.0349   19.7870 C   0  0  0  0  0  0  0  0  0  0  0  0
  -26.5227  -27.0013   21.9135 C   0  0  0  0  0  0  0  0  0  0  0  0
  -25.6775  -33.5431   24.0630 C   0  0  0  0  0  0  0  0  0  0  0  0
  -28.2958  -14.9341   17.3784 C   0  0  0  0  0  0  0  0  0  0  0  0
  -26.8940  -32.6229   24.0509 C   0  0  0  0  0  0  0  0  0  0  0  0
  -27.2354  -14.0647   18.0564 C   0  0  0  0  0  0  0  0  0  0  0  0
  -29.5180  -15.1334   18.2720 C   0  0  0  0  0  0  0  0  0  0  0  0
  -28.1609  -14.7815   20.2988 C   0  0  0  0  0  0  0  0  0  0  0  0
  -27.4063  -32.4045   22.6222 C   0  0  1  0  0  0  0  0  0  0  0  0
  -25.7498  -29.2893   21.2135 C   0  0  1  0  0  0  0  0  0  0  0  0
  -26.8855  -14.5985   19.4585 C   0  0  2  0  0  0  0  0  0  0  0  0
  -21.2558  -23.3899   23.4505 C   0  0  0  0  0  0  0  0  0  0  0  0
  -31.4462  -24.3843   17.4550 C   0  0  0  0  0  0  0  0  0  0  0  0
  -25.5414  -27.9453   25.6305 C   0  0  0  0  0  0  0  0  0  0  0  0
  -24.2150  -25.8666   26.0641 C   0  0  0  0  0  0  0  0  0  0  0  0
  -23.0433  -28.0029   25.5293 C   0  0  0  0  0  0  0  0  0  0  0  0
  -22.4059  -24.1519   19.9047 C   0  0  0  0  0  0  0  0  0  0  0  0
  -29.6841  -18.4936   21.9115 C   0  0  0  0  0  0  0  0  0  0  0  0
  -30.0416  -22.7357   18.7356 C   0  0  0  0  0  0  0  0  0  0  0  0
  -24.2862  -26.7792   23.6991 C   0  0  1  0  0  0  0  0  0  0  0  0
  -21.8147  -24.2522   22.3295 C   0  0  2  0  0  0  0  0  0  0  0  0
  -30.1728  -24.1818   18.2632 C   0  0  1  0  0  0  0  0  0  1  0  0
  -24.2899  -27.1497   25.2091 C   0  0  0  0  0  0  0  0  0  0  0  0
  -26.2993  -12.7262   20.9531 N   0  0  0  0  0  0  0  0  0  0  0  0
  -29.4470  -20.5487   20.5906 N   0  0  0  0  0  0  0  0  0  0  0  0
  -25.8655  -13.7165   20.1547 N   0  0  0  0  0  0  0  0  0  0  0  0
  -25.4918  -28.0516   21.9523 N   0  0  0  0  0  0  0  0  0  0  0  0
  -29.1175  -15.6425   19.5859 N   0  0  0  0  0  0  0  0  0  0  0  0
  -23.9031  -14.7417   19.3129 N   0  0  0  0  0  0  0  0  0  0  0  0
  -22.3057  -11.4371   21.9443 N   0  0  0  0  0  0  0  0  0  0  0  0
  -28.8241  -22.5774   19.4982 N   0  0  0  0  0  0  0  0  0  0  0  0
  -26.5680  -31.4533   21.9245 N   0  0  0  0  0  0  0  0  0  0  0  0
  -23.0999  -26.0487   23.2659 N   0  0  0  0  0  0  0  0  0  0  0  0
  -29.2219  -17.2664   21.3021 N   0  0  0  0  0  0  0  0  0  0  0  0
  -21.8939  -23.4230   21.0937 N   0  3  0  0  0  0  0  0  0  0  0  0
  -21.7125  -13.1521   20.5422 O   0  0  0  0  0  0  0  0  0  0  0  0
  -27.5828  -29.5009   22.6867 O   0  0  0  0  0  0  0  0  0  0  0  0
  -23.5029  -28.8568   22.8646 O   0  0  0  0  0  0  0  0  0  0  0  0
  -24.2255  -24.1829   22.4729 O   0  0  0  0  0  0  0  0  0  0  0  0
  -30.4687  -17.5175   19.3944 O   0  0  0  0  0  0  0  0  0  0  0  0
  -25.3433   -7.8104   24.8862 O   0  0  0  0  0  0  0  0  0  0  0  0
  -30.2351  -25.0507   19.3934 O   0  0  0  0  0  0  0  0  0  1  0  0
  -21.9974   -3.5520   23.8496 F   0  0  0  0  0  0  0  0  0  0  0  0
  -26.3652   -5.2840   24.4218 F   0  0  0  0  0  0  0  0  0  0  0  0
  -27.1037  -21.4446   21.2141 S   0  0  0  0  0  0  0  0  0  0  0  0
  1  2  1  0  0  0  0
  1  5  2  0  0  0  0
  2  6  2  0  0  0  0
  3  8  2  0  0  0  0
  3 16  1  0  0  0  0
  4  9  1  0  0  0  0
  4 16  2  0  0  0  0
  5 18  1  0  0  0  0
  6 20  1  0  0  0  0
  7 10  2  0  0  0  0
  7 19  1  0  0  0  0
  8 22  1  0  0  0  0
  9 22  2  0  0  0  0
 10 23  1  0  0  0  0
 11 12  2  0  0  0  0
 11 24  1  0  0  0  0
 12 25  1  0  0  0  0
 13 21  1  0  0  0  0
 13 23  2  0  0  0  0
 14 25  2  0  0  0  0
 14 26  1  0  0  0  0
 15 28  2  0  0  0  0
 15 81  1  0  0  0  0
 16 27  1  0  0  0  0
 17 27  1  0  0  0  0
 17 29  2  0  0  0  0
 17 31  1  0  0  0  0
 18 20  2  0  0  0  0
 18 36  1  0  0  0  0
 19 21  2  0  0  0  0
 19 37  1  0  0  0  0
 20 45  1  0  0  0  0
 21 38  1  0  0  0  0
 22 77  1  0  0  0  0
 23 78  1  0  0  0  0
 24 26  2  0  0  0  0
 24 77  1  0  0  0  0
 25 79  1  0  0  0  0
 26 80  1  0  0  0  0
 27 60  2  0  0  0  0
 28 54  1  0  0  0  0
 28 61  1  0  0  0  0
 29 62  1  0  0  0  0
 29 65  1  0  0  0  0
 30 61  2  0  0  0  0
 30 67  1  0  0  0  0
 30 81  1  0  0  0  0
 31 66  1  0  0  0  0
 31 72  2  0  0  0  0
 32 46  1  0  0  0  0
 32 68  1  0  0  0  0
 32 73  2  0  0  0  0
 33 56  1  0  0  0  0
 33 63  1  0  0  0  0
 33 74  2  0  0  0  0
 34 57  1  0  0  0  0
 34 69  1  0  0  0  0
 34 75  2  0  0  0  0
 35 64  1  0  0  0  0
 35 70  1  0  0  0  0
 35 76  2  0  0  0  0
 36 39  1  0  0  0  0
 37 46  1  0  0  0  0
 38 63  1  0  0  0  0
 39 41  1  0  0  0  0
 40 42  1  0  0  0  0
 40 43  1  0  0  0  0
 41 45  1  0  0  0  0
 42 47  1  0  0  0  0
 43 64  1  0  0  0  0
 44 47  1  0  0  0  0
 44 64  1  0  0  0  0
 45 68  1  0  0  0  0
 46 63  1  0  0  0  0
 47 62  1  0  0  0  0
 48 57  1  0  0  0  0
 49 58  1  0  0  0  0
 50 59  1  0  0  0  0
 51 59  1  0  0  0  0
 52 59  1  0  0  0  0
 53 71  1  0  0  0  0
 54 70  1  0  0  0  0
 55 58  1  0  0  0  0
 55 67  1  0  0  0  0
 56 59  1  0  0  0  0
 56 69  1  0  0  0  0
 57 71  1  0  0  0  0
 58 78  1  0  0  0  0
 60 62  1  0  0  0  0
M  CHG  1  71   1
M  ISO  4  35 100  58 101  70 100  78 101
M  END
> <Batch ID>
0193

> <Smiles>
CNC(C)C(=O)NC(C(=O)N1Cc2cc([101O:1][101CH:1](C)CNc3nc(C[100NH:0][100C:0](=O)N4CCCC(n5nc(-c6ccc(Oc7ccc(F)cc7F)cc6)c(C(N)=O)c5N)C4)cs3)ccc2CC1C(=O)NC1CCCc2ccccc21)C(C)(C)C

> <Shape>
0.249

> <Color>
0.092

> <Negative vol penalty>
0.000

$$$$

  -OEChem-04052305303D

 82 90  0     1  0  0  0  0  0999 V2000
  -23.5748   -9.1050   22.4945 C   0  0  0  0  0  0  0  0  0  0  0  0
  -24.5532   -9.9951   22.9257 C   0  0  0  0  0  0  0  0  0  0  0  0
  -26.6654  -28.5233   19.0284 C   0  0  0  0  0  0  0  0  0  0  0  0
  -25.8945  -27.2899   20.9575 C   0  0  0  0  0  0  0  0  0  0  0  0
  -22.8479   -9.3772   21.3363 C   0  0  0  0  0  0  0  0  0  0  0  0
  -24.8059  -11.1576   22.1982 C   0  0  0  0  0  0  0  0  0  0  0  0
  -26.4308  -16.6214   24.4370 C   0  0  0  0  0  0  0  0  0  0  0  0
  -25.6938  -29.4963   19.2622 C   0  0  0  0  0  0  0  0  0  0  0  0
  -24.9229  -28.2630   21.1914 C   0  0  0  0  0  0  0  0  0  0  0  0
  -27.6668  -17.2543   24.5611 C   0  0  0  0  0  0  0  0  0  0  0  0
  -24.7720  -31.3540   22.5491 C   0  0  0  0  0  0  0  0  0  0  0  0
  -24.6051  -31.7989   23.8605 C   0  0  0  0  0  0  0  0  0  0  0  0
  -27.2687  -18.4246   22.4896 C   0  0  0  0  0  0  0  0  0  0  0  0
  -22.3081  -31.0509   23.8219 C   0  0  0  0  0  0  0  0  0  0  0  0
  -34.1865  -19.1195   21.8739 C   0  0  0  0  0  0  0  0  0  0  0  0
  -35.4125  -17.5275   20.9951 C   0  0  0  0  0  0  0  0  0  0  0  0
  -26.7657  -27.4200   19.8760 C   0  0  0  0  0  0  0  0  0  0  0  0
  -29.0820  -26.3846   20.1408 C   0  0  0  0  0  0  0  0  0  0  0  0
  -23.0852  -10.5483   20.5996 C   0  0  0  0  0  0  0  0  0  0  0  0
  -25.6078  -16.8775   23.3309 C   0  0  0  0  0  0  0  0  0  0  0  0
  -24.0824  -11.4451   21.0283 C   0  0  0  0  0  0  0  0  0  0  0  0
  -26.0216  -17.7955   22.3551 C   0  0  0  0  0  0  0  0  0  0  0  0
  -24.8226  -29.3663   20.3437 C   0  0  0  0  0  0  0  0  0  0  0  0
  -28.0872  -18.1539   23.5858 C   0  0  0  0  0  0  0  0  0  0  0  0
  -23.7070  -30.7576   21.8740 C   0  0  0  0  0  0  0  0  0  0  0  0
  -23.3731  -31.6474   24.4969 C   0  0  0  0  0  0  0  0  0  0  0  0
  -22.4750  -30.6061   22.5104 C   0  0  0  0  0  0  0  0  0  0  0  0
  -27.7687  -26.4141   19.6346 C   0  0  0  0  0  0  0  0  0  0  0  0
  -33.2397  -18.1169   21.8518 C   0  0  0  0  0  0  0  0  0  0  0  0
  -29.6239  -25.2337   19.6226 C   0  0  0  0  0  0  0  0  0  0  0  0
  -29.7522  -27.3142   21.0024 C   0  0  0  0  0  0  0  0  0  0  0  0
  -24.4325  -15.1227   20.9554 C   0  0  0  0  0  0  0  0  0  0  0  0
  -22.8269  -17.8523   20.2530 C   0  0  0  0  0  0  0  0  0  0  0  0
  -22.6545  -21.2530   20.4826 C   0  0  0  0  0  0  0  0  0  0  0  0
  -29.0203  -19.7054   18.5143 C   0  0  0  0  0  0  0  0  0  0  0  0
  -30.4104  -18.6692   20.3013 C   0  0  0  0  0  0  0  0  0  0  0  0
  -22.3068  -10.7764   19.3281 C   0  0  0  0  0  0  0  0  0  0  0  0
  -24.2657  -16.2068   23.2254 C   0  0  0  0  0  0  0  0  0  0  0  0
  -25.1663  -18.1205   21.1587 C   0  0  0  0  0  0  0  0  0  0  0  0
  -22.3770  -12.2143   18.8205 C   0  0  0  0  0  0  0  0  0  0  0  0
  -27.9577  -22.1214   16.0298 C   0  0  0  0  0  0  0  0  0  0  0  0
  -23.8154  -12.7211   18.8498 C   0  0  0  0  0  0  0  0  0  0  0  0
  -27.8638  -23.4337   16.8016 C   0  0  0  0  0  0  0  0  0  0  0  0
  -27.5906  -20.9363   16.9139 C   0  0  0  0  0  0  0  0  0  0  0  0
  -28.3641  -22.1493   18.9379 C   0  0  0  0  0  0  0  0  0  0  0  0
  -24.3686  -12.7289   20.2799 C   0  0  1  0  0  0  0  0  0  0  0  0
  -23.7347  -16.1541   21.7962 C   0  0  1  0  0  0  0  0  0  0  0  0
  -28.7219  -23.3741   18.0740 C   0  0  2  0  0  0  0  0  0  0  0  0
  -21.2457  -23.2061   19.7769 C   0  0  0  0  0  0  0  0  0  0  0  0
  -23.9481  -17.6357   17.4235 C   0  0  0  0  0  0  0  0  0  0  0  0
  -23.3157  -20.0314   17.0643 C   0  0  0  0  0  0  0  0  0  0  0  0
  -21.5503  -18.3357   17.5447 C   0  0  0  0  0  0  0  0  0  0  0  0
  -22.1071  -22.0203   23.2880 C   0  0  0  0  0  0  0  0  0  0  0  0
  -31.6732  -18.4681   23.8015 C   0  0  0  0  0  0  0  0  0  0  0  0
  -30.3245  -18.0604   24.3870 C   0  0  0  0  0  0  0  0  0  1  0  0
  -31.7941  -18.1378   22.3055 C   0  0  1  0  0  0  0  0  0  0  0  0
  -23.1044  -19.0666   19.4001 C   0  0  1  0  0  0  0  0  0  0  0  0
  -21.5155  -22.1802   20.8666 C   0  0  2  0  0  0  0  0  0  0  0  0
  -22.9968  -18.7600   17.8796 C   0  0  0  0  0  0  0  0  0  0  0  0
  -35.4331  -18.7832   21.3834 N   0  0  0  0  0  0  0  0  0  0  0  0
  -27.4930  -25.3655   18.8546 N   0  0  0  0  0  0  0  0  0  0  0  0
  -28.6406  -24.6663   18.8667 N   0  0  0  0  0  0  0  0  0  0  0  0
  -23.8653  -17.4342   21.0972 N   0  0  0  0  0  0  0  0  0  0  0  0
  -28.3821  -20.9061   18.1473 N   0  0  0  0  0  0  0  0  0  0  0  0
  -30.8408  -24.6621   19.7443 N   0  0  0  0  0  0  0  0  0  0  0  0
  -29.0489  -28.4437   21.4426 N   0  0  0  0  0  0  0  0  0  0  0  0
  -23.8580  -13.8673   21.0132 N   0  0  0  0  0  0  0  0  0  0  0  0
  -22.1955  -20.1086   19.8653 N   0  0  0  0  0  0  0  0  0  0  0  0
  -29.7260  -19.7498   19.7216 N   0  0  0  0  0  0  0  0  0  0  0  0
  -31.0210  -19.0498   21.4953 N   0  0  0  0  0  0  0  0  0  0  0  0
  -21.8415  -22.9071   22.1261 N   0  3  0  0  0  0  0  0  0  0  0  0
  -30.9448  -27.1566   21.3578 O   0  0  0  0  0  0  0  0  0  0  0  0
  -25.4183  -15.4426   20.3014 O   0  0  0  0  0  0  0  0  0  0  0  0
  -21.7266  -17.2996   20.1783 O   0  0  0  0  0  0  0  0  0  0  0  0
  -23.8337  -21.5191   20.7044 O   0  0  0  0  0  0  0  0  0  0  0  0
  -28.9432  -18.6725   17.8416 O   0  0  0  0  0  0  0  0  0  0  0  0
  -30.4755  -17.5406   19.8169 O   0  0  0  0  0  0  0  0  0  0  0  0
  -23.8745  -30.3158   20.5724 O   0  0  0  0  0  0  0  0  0  0  0  0
  -29.2935  -18.7726   23.7041 O   0  0  0  0  0  0  0  0  0  1  0  0
  -23.2134  -32.0732   25.7568 F   0  0  0  0  0  0  0  0  0  0  0  0
  -21.4485  -30.0328   21.8674 F   0  0  0  0  0  0  0  0  0  0  0  0
  -33.9265  -16.6915   21.1904 S   0  0  0  0  0  0  0  0  0  0  0  0
  1  2  1  0  0  0  0
  1  5  2  0  0  0  0
  2  6  2  0  0  0  0
  3  8  2  0  0  0  0
  3 17  1  0  0  0  0
  4  9  1  0  0  0  0
  4 17  2  0  0  0  0
  5 19  1  0  0  0  0
  6 21  1  0  0  0  0
  7 10  2  0  0  0  0
  7 20  1  0  0  0  0
  8 23  1  0  0  0  0
  9 23  2  0  0  0  0
 10 24  1  0  0  0  0
 11 12  2  0  0  0  0
 11 25  1  0  0  0  0
 12 26  1  0  0  0  0
 13 22  1  0  0  0  0
 13 24  2  0  0  0  0
 14 26  2  0  0  0  0
 14 27  1  0  0  0  0
 15 29  2  0  0  0  0
 15 60  1  0  0  0  0
 16 60  2  0  0  0  0
 16 82  1  0  0  0  0
 17 28  1  0  0  0  0
 18 28  1  0  0  0  0
 18 30  2  0  0  0  0
 18 31  1  0  0  0  0
 19 21  2  0  0  0  0
 19 37  1  0  0  0  0
 20 22  2  0  0  0  0
 20 38  1  0  0  0  0
 21 46  1  0  0  0  0
 22 39  1  0  0  0  0
 23 78  1  0  0  0  0
 24 79  1  0  0  0  0
 25 27  2  0  0  0  0
 25 78  1  0  0  0  0
 26 80  1  0  0  0  0
 27 81  1  0  0  0  0
 28 61  2  0  0  0  0
 29 56  1  0  0  0  0
 29 82  1  0  0  0  0
 30 62  1  0  0  0  0
 30 65  1  0  0  0  0
 31 66  1  0  0  0  0
 31 72  2  0  0  0  0
 32 47  1  0  0  0  0
 32 67  1  0  0  0  0
 32 73  2  0  0  0  0
 33 57  1  0  0  0  0
 33 63  1  0  0  0  0
 33 74  2  0  0  0  0
 34 58  1  0  0  0  0
 34 68  1  0  0  0  0
 34 75  2  0  0  0  0
 35 64  1  0  0  0  0
 35 69  1  0  0  0  0
 35 76  2  0  0  0  0
 36 69  1  0  0  0  0
 36 70  1  0  0  0  0
 36 77  2  0  0  0  0
 37 40  1  0  0  0  0
 38 47  1  0  0  0  0
 39 63  1  0  0  0  0
 40 42  1  0  0  0  0
 41 43  1  0  0  0  0
 41 44  1  0  0  0  0
 42 46  1  0  0  0  0
 43 48  1  0  0  0  0
 44 64  1  0  0  0  0
 45 48  1  0  0  0  0
 45 64  1  0  0  0  0
 46 67  1  0  0  0  0
 47 63  1  0  0  0  0
 48 62  1  0  0  0  0
 49 58  1  0  0  0  0
 50 59  1  0  0  0  0
 51 59  1  0  0  0  0
 52 59  1  0  0  0  0
 53 71  1  0  0  0  0
 54 55  1  0  0  0  0
 54 56  1  0  0  0  0
 55 79  1  0  0  0  0
 56 70  1  0  0  0  0
 57 59  1  0  0  0  0
 57 68  1  0  0  0  0
 58 71  1  0  0  0  0
 61 62  1  0  0  0  0
M  CHG  1  71   1
M  ISO  4  35 100  55 101  69 100  79 101
M  END
> <Batch ID>
0193

> <Smiles>
CNC(C)C(=O)NC(C(=O)N1Cc2cc([101O:1][101CH2:1]CC(NC(=O)[100NH:0][100C:0](=O)N3CCCC(n4nc(-c5ccc(Oc6ccc(F)cc6F)cc5)c(C(N)=O)c4N)C3)c3cncs3)ccc2CC1C(=O)NC1CCCc2ccccc21)C(C)(C)C

> <Shape>
0.204

> <Color>
0.067

> <Negative vol penalty>
0.000

$$$$

  -OEChem-04052305303D

 89 97  0     1  0  0  0  0  0999 V2000
  -25.2774  -32.4722   20.0272 C   0  0  0  0  0  0  0  0  0  0  0  0
  -25.7161  -31.1617   20.1864 C   0  0  0  0  0  0  0  0  0  0  0  0
  -23.0757   -9.8652   19.9408 C   0  0  0  0  0  0  0  0  0  0  0  0
  -23.8367   -9.8729   22.2338 C   0  0  0  0  0  0  0  0  0  0  0  0
  -26.1934  -33.5225   20.0671 C   0  0  0  0  0  0  0  0  0  0  0  0
  -27.0715  -30.9006   20.3845 C   0  0  0  0  0  0  0  0  0  0  0  0
  -27.8816  -27.5343   24.0800 C   0  0  0  0  0  0  0  0  0  0  0  0
  -22.3330   -8.7113   20.1911 C   0  0  0  0  0  0  0  0  0  0  0  0
  -23.0939   -8.7190   22.4842 C   0  0  0  0  0  0  0  0  0  0  0  0
  -27.6749  -26.1900   23.7734 C   0  0  0  0  0  0  0  0  0  0  0  0
  -19.8668   -7.9183   23.0882 C   0  0  0  0  0  0  0  0  0  0  0  0
  -19.1104   -7.8777   24.2595 C   0  0  0  0  0  0  0  0  0  0  0  0
  -30.0522  -25.8956   23.4888 C   0  0  0  0  0  0  0  0  0  0  0  0
  -20.3540   -5.9414   24.9954 C   0  0  0  0  0  0  0  0  0  0  0  0
  -30.2540  -18.8674   23.0870 C   0  0  0  0  0  0  0  0  0  0  0  0
  -23.8276  -10.4459   20.9622 C   0  0  0  0  0  0  0  0  0  0  0  0
  -24.1670  -12.9714   20.8419 C   0  0  0  0  0  0  0  0  0  0  0  0
  -27.5594  -33.2749   20.2754 C   0  0  0  0  0  0  0  0  0  0  0  0
  -29.1764  -28.0728   24.0827 C   0  0  0  0  0  0  0  0  0  0  0  0
  -28.0069  -31.9485   20.4258 C   0  0  0  0  0  0  0  0  0  0  0  0
  -30.2729  -27.2463   23.7984 C   0  0  0  0  0  0  0  0  0  0  0  0
  -31.4999  -19.3345   22.7208 C   0  0  0  0  0  0  0  0  0  0  0  0
  -22.3421   -8.1383   21.4628 C   0  0  0  0  0  0  0  0  0  0  0  0
  -28.7600  -25.3711   23.4749 C   0  0  0  0  0  0  0  0  0  0  0  0
  -20.8667   -6.9704   22.8705 C   0  0  0  0  0  0  0  0  0  0  0  0
  -19.3540   -6.8892   25.2131 C   0  0  0  0  0  0  0  0  0  0  0  0
  -21.1103   -5.9820   23.8241 C   0  0  0  0  0  0  0  0  0  0  0  0
  -24.5954  -11.6375   20.7041 C   0  0  0  0  0  0  0  0  0  0  0  0
  -32.2353  -18.4981   21.9062 C   0  0  0  0  0  0  0  0  0  0  0  0
  -25.2583  -13.7219   20.4781 C   0  0  0  0  0  0  0  0  0  0  0  0
  -30.5676  -16.9535   21.9014 C   0  0  0  0  0  0  0  0  0  0  0  0
  -22.8963  -13.4860   21.2614 C   0  0  0  0  0  0  0  0  0  0  0  0
  -30.6636  -30.3465   22.4329 C   0  0  0  0  0  0  0  0  0  0  0  0
  -32.1582  -22.3737   24.7571 C   0  0  0  0  0  0  0  0  0  0  0  0
  -33.0660  -29.7545   24.5306 C   0  0  0  0  0  0  0  0  0  0  0  0
  -34.5563  -27.5694   26.6873 C   0  0  0  0  0  0  0  0  0  0  0  0
  -30.7236  -14.7725   20.6503 C   0  0  0  0  0  0  0  0  0  0  0  0
  -28.5183  -34.4390   20.2635 C   0  0  0  0  0  0  0  0  0  0  0  0
  -29.3850  -29.5184   24.4418 C   0  0  0  0  0  0  0  0  0  0  0  0
  -31.6847  -27.7709   23.8076 C   0  0  0  0  0  0  0  0  0  0  0  0
  -29.8871  -34.1067   20.8519 C   0  0  0  0  0  0  0  0  0  0  0  0
  -29.6103  -12.3576   18.2826 C   0  0  0  0  0  0  0  0  0  0  0  0
  -30.4009  -32.7833   20.2939 C   0  0  0  0  0  0  0  0  0  0  0  0
  -28.1712  -12.0647   18.7128 C   0  0  0  0  0  0  0  0  0  0  0  0
  -30.5258  -12.5873   19.4838 C   0  0  0  0  0  0  0  0  0  0  0  0
  -28.6188  -13.3100   20.8659 C   0  0  0  0  0  0  0  0  0  0  0  0
  -29.4657  -31.6268   20.6675 C   0  0  1  0  0  0  0  0  0  0  0  0
  -30.6998  -30.0820   23.9116 C   0  0  1  0  0  0  0  0  0  0  0  0
  -27.6456  -13.1358   19.6886 C   0  0  2  0  0  0  0  0  0  0  0  0
  -33.5993  -18.8960   21.4453 C   0  0  0  0  0  0  0  0  0  0  0  0
  -36.5265  -27.3560   28.2269 C   0  0  0  0  0  0  0  0  0  0  0  0
  -33.6022  -22.2742   28.3744 C   0  0  0  0  0  0  0  0  0  0  0  0
  -31.7620  -23.7024   27.4589 C   0  0  0  0  0  0  0  0  0  0  0  0
  -28.1104  -22.2519   24.6870 C   0  0  0  0  0  0  0  0  0  0  0  0
  -34.8995  -29.3534   22.1249 C   0  0  0  0  0  0  0  0  0  0  0  0
  -36.5423  -28.2393   23.6508 C   0  0  0  0  0  0  0  0  0  0  0  0
  -35.9245  -30.6282   24.0167 C   0  0  0  0  0  0  0  0  0  0  0  0
  -32.8157  -27.1815   29.0493 C   0  0  0  0  0  0  0  0  0  0  0  0
  -32.7373  -21.8300   26.0584 C   0  0  0  0  0  0  0  0  0  0  0  0
  -30.1453  -22.2167   23.1983 C   0  0  0  0  0  0  0  0  0  0  0  0
  -31.2024  -21.4516   24.0073 C   0  0  1  0  0  0  0  0  0  0  0  0
  -34.2484  -28.8165   24.5650 C   0  0  1  0  0  0  0  0  0  0  0  0
  -35.0605  -27.7429   28.1087 C   0  0  2  0  0  0  0  0  0  0  0  0
  -33.0262  -22.9131   27.1090 C   0  0  0  0  0  0  0  0  0  0  0  0
  -29.1903  -23.0968   24.0209 C   0  0  1  0  0  0  0  0  0  1  0  0
  -35.3770  -29.2496   23.5872 C   0  0  0  0  0  0  0  0  0  0  0  0
  -29.7545  -17.6773   22.6941 N   0  0  0  0  0  0  0  0  0  0  0  0
  -25.8602  -11.5428   20.2852 N   0  0  0  0  0  0  0  0  0  0  0  0
  -31.7986  -17.2962   21.4761 N   0  0  0  0  0  0  0  0  0  0  0  0
  -26.2359  -12.8267   20.1567 N   0  0  0  0  0  0  0  0  0  0  0  0
  -31.8365  -29.1926   24.1586 N   0  0  0  0  0  0  0  0  0  0  0  0
  -29.9663  -13.6176   20.3614 N   0  0  0  0  0  0  0  0  0  0  0  0
  -25.4675  -15.0535   20.4050 N   0  0  0  0  0  0  0  0  0  0  0  0
  -21.8853  -12.5759   21.5992 N   0  0  0  0  0  0  0  0  0  0  0  0
  -31.9630  -20.5647   23.1531 N   0  0  0  0  0  0  0  0  0  0  0  0
  -30.0758  -15.6970   21.4690 N   0  0  0  0  0  0  0  0  0  0  0  0
  -29.6760  -31.2311   22.0436 N   0  0  0  0  0  0  0  0  0  0  0  0
  -34.6653  -28.7362   25.9608 N   0  0  0  0  0  0  0  0  0  0  0  0
  -34.2729  -26.8921   29.0451 N   0  3  0  0  0  0  0  0  0  0  0  0
  -22.6589  -14.7164   21.3189 O   0  0  0  0  0  0  0  0  0  0  0  0
  -31.4729  -29.7904   21.6997 O   0  0  0  0  0  0  0  0  0  0  0  0
  -32.4702  -23.4810   24.3180 O   0  0  0  0  0  0  0  0  0  0  0  0
  -33.2260  -30.9404   24.8300 O   0  0  0  0  0  0  0  0  0  0  0  0
  -34.1138  -26.5043   26.2629 O   0  0  0  0  0  0  0  0  0  0  0  0
  -31.8523  -14.9423   20.1821 O   0  0  0  0  0  0  0  0  0  0  0  0
  -21.6173   -7.0125   21.7075 O   0  0  0  0  0  0  0  0  0  0  0  0
  -28.5597  -24.0504   23.1726 O   0  0  0  0  0  0  0  0  0  1  0  0
  -18.6286   -6.8513   26.3385 F   0  0  0  0  0  0  0  0  0  0  0  0
  -22.0704   -5.0694   23.6210 F   0  0  0  0  0  0  0  0  0  0  0  0
  1  2  1  0  0  0  0
  1  5  2  0  0  0  0
  2  6  2  0  0  0  0
  3  8  2  0  0  0  0
  3 16  1  0  0  0  0
  4  9  1  0  0  0  0
  4 16  2  0  0  0  0
  5 18  1  0  0  0  0
  6 20  1  0  0  0  0
  7 10  2  0  0  0  0
  7 19  1  0  0  0  0
  8 23  1  0  0  0  0
  9 23  2  0  0  0  0
 10 24  1  0  0  0  0
 11 12  2  0  0  0  0
 11 25  1  0  0  0  0
 12 26  1  0  0  0  0
 13 21  1  0  0  0  0
 13 24  2  0  0  0  0
 14 26  2  0  0  0  0
 14 27  1  0  0  0  0
 15 22  1  0  0  0  0
 15 67  2  0  0  0  0
 16 28  1  0  0  0  0
 17 28  1  0  0  0  0
 17 30  2  0  0  0  0
 17 32  1  0  0  0  0
 18 20  2  0  0  0  0
 18 38  1  0  0  0  0
 19 21  2  0  0  0  0
 19 39  1  0  0  0  0
 20 47  1  0  0  0  0
 21 40  1  0  0  0  0
 22 29  2  0  0  0  0
 22 75  1  0  0  0  0
 23 86  1  0  0  0  0
 24 87  1  0  0  0  0
 25 27  2  0  0  0  0
 25 86  1  0  0  0  0
 26 88  1  0  0  0  0
 27 89  1  0  0  0  0
 28 68  2  0  0  0  0
 29 50  1  0  0  0  0
 29 69  1  0  0  0  0
 30 70  1  0  0  0  0
 30 73  1  0  0  0  0
 31 67  1  0  0  0  0
 31 69  2  0  0  0  0
 31 76  1  0  0  0  0
 32 74  1  0  0  0  0
 32 80  2  0  0  0  0
 33 48  1  0  0  0  0
 33 77  1  0  0  0  0
 33 81  2  0  0  0  0
 34 59  1  0  0  0  0
 34 61  1  0  0  0  0
 34 82  2  0  0  0  0
 35 62  1  0  0  0  0
 35 71  1  0  0  0  0
 35 83  2  0  0  0  0
 36 63  1  0  0  0  0
 36 78  1  0  0  0  0
 36 84  2  0  0  0  0
 37 72  1  0  0  0  0
 37 76  1  0  0  0  0
 37 85  2  0  0  0  0
 38 41  1  0  0  0  0
 39 48  1  0  0  0  0
 40 71  1  0  0  0  0
 41 43  1  0  0  0  0
 42 44  1  0  0  0  0
 42 45  1  0  0  0  0
 43 47  1  0  0  0  0
 44 49  1  0  0  0  0
 45 72  1  0  0  0  0
 46 49  1  0  0  0  0
 46 72  1  0  0  0  0
 47 77  1  0  0  0  0
 48 71  1  0  0  0  0
 49 70  1  0  0  0  0
 51 63  1  0  0  0  0
 52 64  1  0  0  0  0
 53 64  1  0  0  0  0
 54 65  1  0  0  0  0
 55 66  1  0  0  0  0
 56 66  1  0  0  0  0
 57 66  1  0  0  0  0
 58 79  1  0  0  0  0
 59 64  1  0  0  0  0
 60 61  1  0  0  0  0
 60 65  1  0  0  0  0
 61 75  1  0  0  0  0
 62 66  1  0  0  0  0
 62 78  1  0  0  0  0
 63 79  1  0  0  0  0
 65 87  1  0  0  0  0
 68 70  1  0  0  0  0
M  CHG  1  79   1
M  ISO  4  37 100  65 101  76 100  87 101
M  END
> <Batch ID>
0193

> <Smiles>
CNC(C)C(=O)NC(C(=O)N1Cc2cc([101O:1][101CH:1](C)CC(Nc3cnc([100NH:0][100C:0](=O)N4CCCC(n5nc(-c6ccc(Oc7ccc(F)cc7F)cc6)c(C(N)=O)c5N)C4)nc3C)C(=O)CC(C)C)ccc2CC1C(=O)NC1CCCc2ccccc21)C(C)(C)C

> <Shape>
0.185

> <Color>
0.180

> <Negative vol penalty>
0.000

$$$$

  -OEChem-04052305303D

 84 92  0     1  0  0  0  0  0999 V2000
  -28.6985  -24.5258   17.2443 C   0  0  0  0  0  0  0  0  0  0  0  0
  -27.5204  -24.6477   17.9740 C   0  0  0  0  0  0  0  0  0  0  0  0
  -26.5408  -12.9815   19.2557 C   0  0  0  0  0  0  0  0  0  0  0  0
  -24.6842  -13.6740   20.6380 C   0  0  0  0  0  0  0  0  0  0  0  0
  -29.8473  -25.1976   17.6600 C   0  0  0  0  0  0  0  0  0  0  0  0
  -27.4907  -25.4407   19.1207 C   0  0  0  0  0  0  0  0  0  0  0  0
  -23.3827  -28.3944   19.3341 C   0  0  0  0  0  0  0  0  0  0  0  0
  -22.5024  -21.9776   22.0227 C   0  0  0  0  0  0  0  0  0  0  0  0
  -26.4448  -11.6900   19.7738 C   0  0  0  0  0  0  0  0  0  0  0  0
  -24.5881  -12.3825   21.1560 C   0  0  0  0  0  0  0  0  0  0  0  0
  -22.1870  -27.7946   19.7267 C   0  0  0  0  0  0  0  0  0  0  0  0
  -23.3330   -9.3985   20.1860 C   0  0  0  0  0  0  0  0  0  0  0  0
  -22.0610   -8.8350   20.2862 C   0  0  0  0  0  0  0  0  0  0  0  0
  -21.4642  -22.8167   21.6334 C   0  0  0  0  0  0  0  0  0  0  0  0
  -22.4824  -28.6763   21.9526 C   0  0  0  0  0  0  0  0  0  0  0  0
  -22.3468   -8.6145   22.6751 C   0  0  0  0  0  0  0  0  0  0  0  0
  -22.6604  -23.2021   24.0555 C   0  0  0  0  0  0  0  0  0  0  0  0
  -25.6605  -13.9736   19.6879 C   0  0  0  0  0  0  0  0  0  0  0  0
  -25.1044  -15.8197   18.0175 C   0  0  0  0  0  0  0  0  0  0  0  0
  -29.8291  -26.0069   18.8069 C   0  0  0  0  0  0  0  0  0  0  0  0
  -24.1441  -29.1318   20.2522 C   0  0  0  0  0  0  0  0  0  0  0  0
  -28.6407  -26.1229   19.5529 C   0  0  0  0  0  0  0  0  0  0  0  0
  -23.6862  -29.2866   21.5685 C   0  0  0  0  0  0  0  0  0  0  0  0
  -23.1172  -22.1672   23.2553 C   0  0  0  0  0  0  0  0  0  0  0  0
  -25.4684  -11.3905   20.7239 C   0  0  0  0  0  0  0  0  0  0  0  0
  -21.7381  -27.9331   21.0369 C   0  0  0  0  0  0  0  0  0  0  0  0
  -24.1120   -9.5699   21.3304 C   0  0  0  0  0  0  0  0  0  0  0  0
  -21.5678   -8.4430   21.5307 C   0  0  0  0  0  0  0  0  0  0  0  0
  -23.6188   -9.1780   22.5749 C   0  0  0  0  0  0  0  0  0  0  0  0
  -25.7596  -15.3081   19.1536 C   0  0  0  0  0  0  0  0  0  0  0  0
  -21.0814  -23.8223   22.5063 C   0  0  0  0  0  0  0  0  0  0  0  0
  -25.5281  -17.1236   17.9349 C   0  0  0  0  0  0  0  0  0  0  0  0
  -24.1940  -15.1741   17.1174 C   0  0  0  0  0  0  0  0  0  0  0  0
  -27.0684  -28.8632   21.4689 C   0  0  0  0  0  0  0  0  0  0  0  0
  -26.3548  -31.7326   22.8030 C   0  0  0  0  0  0  0  0  0  0  0  0
  -25.6130  -21.7849   23.2920 C   0  0  0  0  0  0  0  0  0  0  0  0
  -23.9584  -33.9208   23.8594 C   0  0  0  0  0  0  0  0  0  0  0  0
  -27.5718  -21.0160   21.9797 C   0  0  0  0  0  0  0  0  0  0  0  0
  -31.1084  -26.6759   19.2436 C   0  0  0  0  0  0  0  0  0  0  0  0
  -25.4183  -29.7949   19.8060 C   0  0  0  0  0  0  0  0  0  0  0  0
  -24.4563  -30.0851   22.5873 C   0  0  0  0  0  0  0  0  0  0  0  0
  -30.8944  -27.7952   20.2594 C   0  0  0  0  0  0  0  0  0  0  0  0
  -29.2462  -19.9309   19.0375 C   0  0  0  0  0  0  0  0  0  0  0  0
  -29.9415  -27.3415   21.3608 C   0  0  0  0  0  0  0  0  0  0  0  0
  -28.4808  -18.6709   18.6273 C   0  0  0  0  0  0  0  0  0  0  0  0
  -29.3589  -20.0557   20.5557 C   0  0  0  0  0  0  0  0  0  0  0  0
  -27.3182  -18.7124   20.8717 C   0  0  0  0  0  0  0  0  0  0  0  0
  -28.5622  -26.9935   20.7882 C   0  0  1  0  0  0  0  0  0  0  0  0
  -26.3721  -30.0931   20.9587 C   0  0  1  0  0  0  0  0  0  0  0  0
  -27.1242  -18.5758   19.3524 C   0  0  2  0  0  0  0  0  0  0  0  0
  -23.6821  -36.1681   24.9414 C   0  0  0  0  0  0  0  0  0  0  0  0
  -18.1289  -26.0808   22.4394 C   0  0  0  0  0  0  0  0  0  0  0  0
  -27.0981  -30.5213   25.5030 C   0  0  0  0  0  0  0  0  0  0  0  0
  -25.9229  -32.4364   26.6073 C   0  0  0  0  0  0  0  0  0  0  0  0
  -27.9041  -32.8626   25.1527 C   0  0  0  0  0  0  0  0  0  0  0  0
  -22.5145  -35.0021   21.5131 C   0  0  0  0  0  0  0  0  0  0  0  0
  -24.2444  -21.2759   23.7052 C   0  0  0  0  0  0  0  0  0  0  0  0
  -20.4681  -26.9440   22.7875 C   0  0  0  0  0  0  0  0  0  1  0  0
  -25.7120  -32.1816   24.0930 C   0  0  1  0  0  0  0  0  0  0  0  0
  -23.7815  -35.4104   23.6266 C   0  0  2  0  0  0  0  0  0  0  0  0
  -19.5367  -25.7399   22.9098 C   0  0  2  0  0  0  0  0  0  0  0  0
  -26.6455  -31.9838   25.3205 C   0  0  0  0  0  0  0  0  0  0  0  0
  -21.6548  -24.0375   23.7115 N   0  0  0  0  0  0  0  0  0  0  0  0
  -26.5404  -16.2130   19.7498 N   0  0  0  0  0  0  0  0  0  0  0  0
  -26.3785  -17.3064   18.9854 N   0  0  0  0  0  0  0  0  0  0  0  0
  -25.6993  -30.7090   22.1042 N   0  0  0  0  0  0  0  0  0  0  0  0
  -28.0356  -19.9601   21.1758 N   0  0  0  0  0  0  0  0  0  0  0  0
  -25.2525  -18.1200   17.0668 N   0  0  0  0  0  0  0  0  0  0  0  0
  -23.8659  -13.8312   17.3482 N   0  0  0  0  0  0  0  0  0  0  0  0
  -20.0473  -24.6480   22.1052 N   0  0  0  0  0  0  0  0  0  0  0  0
  -27.8110  -28.1991   20.5114 N   0  0  0  0  0  0  0  0  0  0  0  0
  -26.2834  -20.8490   22.4977 N   0  0  0  0  0  0  0  0  0  0  0  0
  -25.2895  -33.5616   23.8799 N   0  0  0  0  0  0  0  0  0  0  0  0
  -22.5418  -35.6682   22.8407 N   0  3  0  0  0  0  0  0  0  0  0  0
  -23.6993  -15.7657   16.1281 O   0  0  0  0  0  0  0  0  0  0  0  0
  -26.9425  -28.5415   22.6446 O   0  0  0  0  0  0  0  0  0  0  0  0
  -27.3963  -32.2753   22.4254 O   0  0  0  0  0  0  0  0  0  0  0  0
  -26.0627  -22.8734   23.6398 O   0  0  0  0  0  0  0  0  0  0  0  0
  -23.0107  -33.1533   24.0118 O   0  0  0  0  0  0  0  0  0  0  0  0
  -28.2351  -22.0359   22.1922 O   0  0  0  0  0  0  0  0  0  0  0  0
  -25.3743  -10.1303   21.2294 O   0  0  0  0  0  0  0  0  0  0  0  0
  -20.5716  -27.3481   21.4228 O   0  0  0  0  0  0  0  0  0  1  0  0
  -20.3457   -7.9033   21.6269 F   0  0  0  0  0  0  0  0  0  0  0  0
  -24.3620   -9.3413   23.6779 F   0  0  0  0  0  0  0  0  0  0  0  0
  1  2  1  0  0  0  0
  1  5  2  0  0  0  0
  2  6  2  0  0  0  0
  3  9  2  0  0  0  0
  3 18  1  0  0  0  0
  4 10  1  0  0  0  0
  4 18  2  0  0  0  0
  5 20  1  0  0  0  0
  6 22  1  0  0  0  0
  7 11  2  0  0  0  0
  7 21  1  0  0  0  0
  8 14  2  0  0  0  0
  8 24  1  0  0  0  0
  9 25  1  0  0  0  0
 10 25  2  0  0  0  0
 11 26  1  0  0  0  0
 12 13  2  0  0  0  0
 12 27  1  0  0  0  0
 13 28  1  0  0  0  0
 14 31  1  0  0  0  0
 15 23  1  0  0  0  0
 15 26  2  0  0  0  0
 16 28  2  0  0  0  0
 16 29  1  0  0  0  0
 17 24  2  0  0  0  0
 17 63  1  0  0  0  0
 18 30  1  0  0  0  0
 19 30  1  0  0  0  0
 19 32  2  0  0  0  0
 19 33  1  0  0  0  0
 20 22  2  0  0  0  0
 20 39  1  0  0  0  0
 21 23  2  0  0  0  0
 21 40  1  0  0  0  0
 22 48  1  0  0  0  0
 23 41  1  0  0  0  0
 24 57  1  0  0  0  0
 25 81  1  0  0  0  0
 26 82  1  0  0  0  0
 27 29  2  0  0  0  0
 27 81  1  0  0  0  0
 28 83  1  0  0  0  0
 29 84  1  0  0  0  0
 30 64  2  0  0  0  0
 31 63  2  0  0  0  0
 31 70  1  0  0  0  0
 32 65  1  0  0  0  0
 32 68  1  0  0  0  0
 33 69  1  0  0  0  0
 33 75  2  0  0  0  0
 34 49  1  0  0  0  0
 34 71  1  0  0  0  0
 34 76  2  0  0  0  0
 35 59  1  0  0  0  0
 35 66  1  0  0  0  0
 35 77  2  0  0  0  0
 36 57  1  0  0  0  0
 36 72  1  0  0  0  0
 36 78  2  0  0  0  0
 37 60  1  0  0  0  0
 37 73  1  0  0  0  0
 37 79  2  0  0  0  0
 38 67  1  0  0  0  0
 38 72  1  0  0  0  0
 38 80  2  0  0  0  0
 39 42  1  0  0  0  0
 40 49  1  0  0  0  0
 41 66  1  0  0  0  0
 42 44  1  0  0  0  0
 43 45  1  0  0  0  0
 43 46  1  0  0  0  0
 44 48  1  0  0  0  0
 45 50  1  0  0  0  0
 46 67  1  0  0  0  0
 47 50  1  0  0  0  0
 47 67  1  0  0  0  0
 48 71  1  0  0  0  0
 49 66  1  0  0  0  0
 50 65  1  0  0  0  0
 51 60  1  0  0  0  0
 52 61  1  0  0  0  0
 53 62  1  0  0  0  0
 54 62  1  0  0  0  0
 55 62  1  0  0  0  0
 56 74  1  0  0  0  0
 58 61  1  0  0  0  0
 58 82  1  0  0  0  0
 59 62  1  0  0  0  0
 59 73  1  0  0  0  0
 60 74  1  0  0  0  0
 61 70  1  0  0  0  0
 64 65  1  0  0  0  0
M  CHG  1  74   1
M  ISO  4  38 100  58 101  72 100  82 101
M  END
> <Batch ID>
0193

> <Smiles>
CNC(C)C(=O)NC(C(=O)N1Cc2cc([101O:1][101CH2:1]C(C)Nc3ccc(CC(=O)[100NH:0][100C:0](=O)N4CCCC(n5nc(-c6ccc(Oc7ccc(F)cc7F)cc6)c(C(N)=O)c5N)C4)cn3)ccc2CC1C(=O)NC1CCCc2ccccc21)C(C)(C)C

> <Shape>
0.317

> <Color>
0.079

> <Negative vol penalty>
0.000

$$$$

  -OEChem-04052305303D

 86 94  0     1  0  0  0  0  0999 V2000
  -17.3060  -29.2741   19.7290 C   0  0  0  0  0  0  0  0  0  0  0  0
  -18.6014  -29.0239   19.2879 C   0  0  0  0  0  0  0  0  0  0  0  0
  -26.5276  -12.5138   21.2388 C   0  0  0  0  0  0  0  0  0  0  0  0
  -25.5386  -13.7594   19.4202 C   0  0  0  0  0  0  0  0  0  0  0  0
  -17.0846  -29.6773   21.0452 C   0  0  0  0  0  0  0  0  0  0  0  0
  -19.6765  -29.1778   20.1625 C   0  0  0  0  0  0  0  0  0  0  0  0
  -24.8088  -25.8397   20.3111 C   0  0  0  0  0  0  0  0  0  0  0  0
  -25.2930  -11.9220   21.5050 C   0  0  0  0  0  0  0  0  0  0  0  0
  -24.3038  -13.1676   19.6864 C   0  0  0  0  0  0  0  0  0  0  0  0
  -26.0861  -26.0599   19.7975 C   0  0  0  0  0  0  0  0  0  0  0  0
  -23.4000   -9.4270   20.2304 C   0  0  0  0  0  0  0  0  0  0  0  0
  -23.3764   -8.0513   20.4592 C   0  0  0  0  0  0  0  0  0  0  0  0
  -26.7943  -26.9117   21.9405 C   0  0  0  0  0  0  0  0  0  0  0  0
  -22.4583   -8.4331   22.6611 C   0  0  0  0  0  0  0  0  0  0  0  0
  -28.2295  -21.5632   17.4953 C   0  0  0  0  0  0  0  0  0  0  0  0
  -26.6505  -13.4326   20.1964 C   0  0  0  0  0  0  0  0  0  0  0  0
  -28.9262  -13.5705   19.0520 C   0  0  0  0  0  0  0  0  0  0  0  0
  -18.1566  -29.8270   21.9391 C   0  0  0  0  0  0  0  0  0  0  0  0
  -24.5111  -26.1645   21.6423 C   0  0  0  0  0  0  0  0  0  0  0  0
  -19.4694  -29.5847   21.4916 C   0  0  0  0  0  0  0  0  0  0  0  0
  -25.5131  -26.6922   22.4692 C   0  0  0  0  0  0  0  0  0  0  0  0
  -24.1811  -12.2489   20.7288 C   0  0  0  0  0  0  0  0  0  0  0  0
  -27.0783  -26.5986   20.6114 C   0  0  0  0  0  0  0  0  0  0  0  0
  -22.9528  -10.3058   21.2171 C   0  0  0  0  0  0  0  0  0  0  0  0
  -22.9055   -7.5543   21.6745 C   0  0  0  0  0  0  0  0  0  0  0  0
  -22.4819   -9.8089   22.4324 C   0  0  0  0  0  0  0  0  0  0  0  0
  -27.9255  -14.0447   19.9213 C   0  0  0  0  0  0  0  0  0  0  0  0
  -29.9304  -14.5031   19.1434 C   0  0  0  0  0  0  0  0  0  0  0  0
  -29.0042  -21.5002   18.6191 C   0  0  0  0  0  0  0  0  0  0  0  0
  -29.1373  -23.5572   17.8119 C   0  0  0  0  0  0  0  0  0  0  0  0
  -28.9461  -12.3926   18.2349 C   0  0  0  0  0  0  0  0  0  0  0  0
  -22.4996  -28.1726   23.0654 C   0  0  0  0  0  0  0  0  0  0  0  0
  -23.5649  -26.7153   25.7605 C   0  0  0  0  0  0  0  0  0  0  0  0
  -30.3637  -25.7203   18.4988 C   0  0  0  0  0  0  0  0  0  0  0  0
  -26.0352  -24.9463   27.3145 C   0  0  0  0  0  0  0  0  0  0  0  0
  -29.9996  -20.2986   20.5968 C   0  0  0  0  0  0  0  0  0  0  0  0
  -17.8723  -30.3107   23.3391 C   0  0  0  0  0  0  0  0  0  0  0  0
  -23.1357  -25.8960   22.1887 C   0  0  0  0  0  0  0  0  0  0  0  0
  -25.2502  -27.0391   23.9111 C   0  0  0  0  0  0  0  0  0  0  0  0
  -19.0312  -30.0881   24.3075 C   0  0  0  0  0  0  0  0  0  0  0  0
  -31.8222  -17.6834   22.1833 C   0  0  0  0  0  0  0  0  0  0  0  0
  -20.3468  -30.5335   23.6769 C   0  0  0  0  0  0  0  0  0  0  0  0
  -31.1246  -16.4101   21.6993 C   0  0  0  0  0  0  0  0  0  0  0  0
  -30.8292  -18.8211   22.4145 C   0  0  0  0  0  0  0  0  0  0  0  0
  -29.2523  -17.8453   20.7928 C   0  0  0  0  0  0  0  0  0  0  0  0
  -20.6592  -29.7166   22.4173 C   0  0  1  0  0  0  0  0  0  0  0  0
  -22.8034  -26.7428   23.4134 C   0  0  1  0  0  0  0  0  0  0  0  0
  -30.2193  -16.6907   20.4838 C   0  0  2  0  0  0  0  0  0  0  0  0
  -31.9754  -27.3874   17.6387 C   0  0  0  0  0  0  0  0  0  0  0  0
  -26.6366  -23.9317   29.5295 C   0  0  0  0  0  0  0  0  0  0  0  0
  -24.2270  -29.4882   26.8480 C   0  0  0  0  0  0  0  0  0  0  0  0
  -25.6554  -28.3891   28.5859 C   0  0  0  0  0  0  0  0  0  0  0  0
  -23.2044  -27.9303   28.5159 C   0  0  0  0  0  0  0  0  0  0  0  0
  -27.6109  -28.2777   18.3477 C   0  0  0  0  0  0  0  0  0  0  0  0
  -28.3072  -29.1544   20.5902 C   0  0  0  0  0  0  0  0  0  0  0  0
  -27.6667  -23.3502   15.8303 C   0  0  0  0  0  0  0  0  0  0  0  0
  -26.1646  -22.2230   26.1630 C   0  0  0  0  0  0  0  0  0  0  0  0
  -30.0596  -28.1636   19.0873 C   0  0  0  0  0  0  0  0  0  0  0  0
  -24.7000  -26.9529   26.7270 C   0  0  1  0  0  0  0  0  0  0  0  0
  -30.5094  -27.1558   18.0111 C   0  0  2  0  0  0  0  0  0  0  0  0
  -25.9907  -23.6953   28.1732 C   0  0  2  0  0  0  0  0  0  0  0  0
  -24.4515  -28.1855   27.6415 C   0  0  0  0  0  0  0  0  0  0  0  0
  -28.5762  -28.0890   19.5201 C   0  0  0  0  0  0  0  0  0  1  0  0
  -28.2634  -15.1893   20.5209 N   0  0  0  0  0  0  0  0  0  0  0  0
  -28.3301  -22.8473   17.0169 N   0  0  0  0  0  0  0  0  0  0  0  0
  -29.4876  -15.4423   20.0277 N   0  0  0  0  0  0  0  0  0  0  0  0
  -29.5540  -22.7477   18.7909 N   0  3  0  0  0  0  0  0  0  0  0  0
  -23.8880  -26.7640   24.3970 N   0  0  0  0  0  0  0  0  0  0  0  0
  -30.0091  -19.0326   21.2198 N   0  0  0  0  0  0  0  0  0  0  0  0
  -31.1403  -14.6030   18.5529 N   0  0  0  0  0  0  0  0  0  0  0  0
  -27.8317  -11.5430   18.2601 N   0  0  0  0  0  0  0  0  0  0  0  0
  -29.2089  -20.3712   19.4505 N   0  0  0  0  0  0  0  0  0  0  0  0
  -29.4986  -24.9342   17.6569 N   0  0  0  0  0  0  0  0  0  0  0  0
  -21.1696  -28.4106   22.7755 N   0  0  0  0  0  0  0  0  0  0  0  0
  -24.8888  -25.7003   27.4507 N   0  0  0  0  0  0  0  0  0  0  0  0
  -26.7100  -22.5780   27.4985 N   0  3  0  0  0  0  0  0  0  0  0  0
  -29.9300  -12.0934   17.5166 O   0  0  0  0  0  0  0  0  0  0  0  0
  -23.4044  -28.9989   23.0616 O   0  0  0  0  0  0  0  0  0  0  0  0
  -22.4347  -26.4876   26.1992 O   0  0  0  0  0  0  0  0  0  0  0  0
  -30.9294  -25.3109   19.5065 O   0  0  0  0  0  0  0  0  0  0  0  0
  -26.9928  -25.2285   26.5977 O   0  0  0  0  0  0  0  0  0  0  0  0
  -30.6669  -21.2407   21.0316 O   0  0  0  0  0  0  0  0  0  0  0  0
  -22.9761  -11.6714   20.9882 O   0  0  0  0  0  0  0  0  0  0  0  0
  -28.3257  -26.8152   20.1125 O   0  0  0  0  0  0  0  0  0  1  0  0
  -22.8815   -6.2330   21.8934 F   0  0  0  0  0  0  0  0  0  0  0  0
  -22.0499  -10.6482   23.3835 F   0  0  0  0  0  0  0  0  0  0  0  0
  1  2  1  0  0  0  0
  1  5  2  0  0  0  0
  2  6  2  0  0  0  0
  3  8  2  0  0  0  0
  3 16  1  0  0  0  0
  4  9  1  0  0  0  0
  4 16  2  0  0  0  0
  5 18  1  0  0  0  0
  6 20  1  0  0  0  0
  7 10  2  0  0  0  0
  7 19  1  0  0  0  0
  8 22  1  0  0  0  0
  9 22  2  0  0  0  0
 10 23  1  0  0  0  0
 11 12  2  0  0  0  0
 11 24  1  0  0  0  0
 12 25  1  0  0  0  0
 13 21  1  0  0  0  0
 13 23  2  0  0  0  0
 14 25  2  0  0  0  0
 14 26  1  0  0  0  0
 15 29  2  0  0  0  0
 15 65  1  0  0  0  0
 16 27  1  0  0  0  0
 17 27  1  0  0  0  0
 17 28  2  0  0  0  0
 17 31  1  0  0  0  0
 18 20  2  0  0  0  0
 18 37  1  0  0  0  0
 19 21  2  0  0  0  0
 19 38  1  0  0  0  0
 20 46  1  0  0  0  0
 21 39  1  0  0  0  0
 22 83  1  0  0  0  0
 23 84  1  0  0  0  0
 24 26  2  0  0  0  0
 24 83  1  0  0  0  0
 25 85  1  0  0  0  0
 26 86  1  0  0  0  0
 27 64  2  0  0  0  0
 28 66  1  0  0  0  0
 28 70  1  0  0  0  0
 29 67  1  0  0  0  0
 29 72  1  0  0  0  0
 30 65  1  0  0  0  0
 30 67  2  0  0  0  0
 30 73  1  0  0  0  0
 31 71  1  0  0  0  0
 31 77  2  0  0  0  0
 32 47  1  0  0  0  0
 32 74  1  0  0  0  0
 32 78  2  0  0  0  0
 33 59  1  0  0  0  0
 33 68  1  0  0  0  0
 33 79  2  0  0  0  0
 34 60  1  0  0  0  0
 34 73  1  0  0  0  0
 34 80  2  0  0  0  0
 35 61  1  0  0  0  0
 35 75  1  0  0  0  0
 35 81  2  0  0  0  0
 36 69  1  0  0  0  0
 36 72  1  0  0  0  0
 36 82  2  0  0  0  0
 37 40  1  0  0  0  0
 38 47  1  0  0  0  0
 39 68  1  0  0  0  0
 40 42  1  0  0  0  0
 41 43  1  0  0  0  0
 41 44  1  0  0  0  0
 42 46  1  0  0  0  0
 43 48  1  0  0  0  0
 44 69  1  0  0  0  0
 45 48  1  0  0  0  0
 45 69  1  0  0  0  0
 46 74  1  0  0  0  0
 47 68  1  0  0  0  0
 48 66  1  0  0  0  0
 49 60  1  0  0  0  0
 50 61  1  0  0  0  0
 51 62  1  0  0  0  0
 52 62  1  0  0  0  0
 53 62  1  0  0  0  0
 54 63  1  0  0  0  0
 55 63  1  0  0  0  0
 56 65  1  0  0  0  0
 57 76  1  0  0  0  0
 58 60  1  0  0  0  0
 58 63  1  0  0  0  0
 59 62  1  0  0  0  0
 59 75  1  0  0  0  0
 61 76  1  0  0  0  0
 63 84  1  0  0  0  0
 64 66  1  0  0  0  0
M  CHG  2  67   1  76   1
M  ISO  4  36 100  63 101  72 100  84 101
M  END
> <Batch ID>
0193

> <Smiles>
CNC(C)C(=O)NC(C(=O)N1Cc2cc([101O:1][101C:1](C)(C)CC(C)C(=O)Nc3nc([100NH:0][100C:0](=O)N4CCCC(n5nc(-c6ccc(Oc7ccc(F)cc7F)cc6)c(C(N)=O)c5N)C4)cn3C)ccc2CC1C(=O)NC1CCCc2ccccc21)C(C)(C)C

> <Shape>
0.262

> <Color>
0.093

> <Negative vol penalty>
0.000

$$$$

  -OEChem-04052305303D

 87 95  0     1  0  0  0  0  0999 V2000
  -17.1883  -30.4661   23.9213 C   0  0  0  0  0  0  0  0  0  0  0  0
  -18.5703  -30.5784   24.0339 C   0  0  0  0  0  0  0  0  0  0  0  0
  -26.1759  -13.2765   21.2880 C   0  0  0  0  0  0  0  0  0  0  0  0
  -25.3152  -14.1432   19.2035 C   0  0  0  0  0  0  0  0  0  0  0  0
  -16.6276  -29.3321   23.3351 C   0  0  0  0  0  0  0  0  0  0  0  0
  -19.3926  -29.5561   23.5612 C   0  0  0  0  0  0  0  0  0  0  0  0
  -24.9196  -30.1665   20.9951 C   0  0  0  0  0  0  0  0  0  0  0  0
  -25.6657  -12.0167   20.9748 C   0  0  0  0  0  0  0  0  0  0  0  0
  -24.8050  -12.8834   18.8903 C   0  0  0  0  0  0  0  0  0  0  0  0
  -26.2104  -30.0319   21.5047 C   0  0  0  0  0  0  0  0  0  0  0  0
  -22.6686  -10.4556   21.0456 C   0  0  0  0  0  0  0  0  0  0  0  0
  -21.9910   -9.7638   22.0495 C   0  0  0  0  0  0  0  0  0  0  0  0
  -26.2864  -27.7605   20.6959 C   0  0  0  0  0  0  0  0  0  0  0  0
  -23.5970   -7.9655   21.8942 C   0  0  0  0  0  0  0  0  0  0  0  0
  -26.0006  -14.3398   20.4024 C   0  0  0  0  0  0  0  0  0  0  0  0
  -27.8025  -16.1456   20.4082 C   0  0  0  0  0  0  0  0  0  0  0  0
  -17.4437  -28.2998   22.8463 C   0  0  0  0  0  0  0  0  0  0  0  0
  -24.2974  -29.0937   20.3406 C   0  0  0  0  0  0  0  0  0  0  0  0
  -18.8422  -28.4067   22.9691 C   0  0  0  0  0  0  0  0  0  0  0  0
  -24.9887  -27.8848   20.1767 C   0  0  0  0  0  0  0  0  0  0  0  0
  -24.9803  -11.8201   19.7760 C   0  0  0  0  0  0  0  0  0  0  0  0
  -26.8929  -28.8279   21.3577 C   0  0  0  0  0  0  0  0  0  0  0  0
  -23.8104   -9.9024   20.4659 C   0  0  0  0  0  0  0  0  0  0  0  0
  -22.4552   -8.5188   22.4738 C   0  0  0  0  0  0  0  0  0  0  0  0
  -24.2746   -8.6574   20.8903 C   0  0  0  0  0  0  0  0  0  0  0  0
  -26.5269  -15.6416   20.7256 C   0  0  0  0  0  0  0  0  0  0  0  0
  -28.2046  -24.0068   20.6879 C   0  0  0  0  0  0  0  0  0  0  0  0
  -27.8101  -17.4152   20.9321 C   0  0  0  0  0  0  0  0  0  0  0  0
  -29.2180  -23.4925   19.9064 C   0  0  0  0  0  0  0  0  0  0  0  0
  -29.9176  -24.7484   21.8392 C   0  0  0  0  0  0  0  0  0  0  0  0
  -28.8838  -15.5219   19.7029 C   0  0  0  0  0  0  0  0  0  0  0  0
  -21.6928  -27.3500   20.8690 C   0  0  0  0  0  0  0  0  0  0  0  0
  -22.4340  -26.0752   17.9797 C   0  0  0  0  0  0  0  0  0  0  0  0
  -24.8186  -25.4195   15.6280 C   0  0  0  0  0  0  0  0  0  0  0  0
  -25.3287  -22.3391   21.7943 C   0  0  0  0  0  0  0  0  0  0  0  0
  -16.7901  -27.0720   22.2632 C   0  0  0  0  0  0  0  0  0  0  0  0
  -22.9148  -29.2635   19.7731 C   0  0  0  0  0  0  0  0  0  0  0  0
  -24.3729  -26.7094   19.4642 C   0  0  0  0  0  0  0  0  0  0  0  0
  -17.7445  -26.2025   21.4488 C   0  0  0  0  0  0  0  0  0  0  0  0
  -24.5633  -19.7043   24.0634 C   0  0  0  0  0  0  0  0  0  0  0  0
  -19.0537  -25.9952   22.2038 C   0  0  0  0  0  0  0  0  0  0  0  0
  -25.1054  -18.4540   23.3684 C   0  0  0  0  0  0  0  0  0  0  0  0
  -23.9757  -20.6965   23.0623 C   0  0  0  0  0  0  0  0  0  0  0  0
  -25.4242  -19.8271   21.2680 C   0  0  0  0  0  0  0  0  0  0  0  0
  -19.7683  -27.3302   22.4459 C   0  0  1  0  0  0  0  0  0  0  0  0
  -22.1828  -27.9396   19.5767 C   0  0  1  0  0  0  0  0  0  0  0  0
  -26.0777  -18.8216   22.2314 C   0  0  2  0  0  0  0  0  0  0  0  0
  -30.2674  -23.9892   26.1897 C   0  0  0  0  0  0  0  0  0  0  0  0
  -25.1299  -24.3305   13.3887 C   0  0  0  0  0  0  0  0  0  0  0  0
  -32.3421  -26.9606   24.7670 C   0  0  0  0  0  0  0  0  0  0  0  0
  -22.3209  -23.3280   19.3027 C   0  0  0  0  0  0  0  0  0  0  0  0
  -23.5407  -22.4013   17.3224 C   0  0  0  0  0  0  0  0  0  0  0  0
  -21.2889  -23.4333   17.0271 C   0  0  0  0  0  0  0  0  0  0  0  0
  -25.6953  -27.9585   14.3856 C   0  0  0  0  0  0  0  0  0  0  0  0
  -26.7537  -23.8591   20.4459 C   0  0  0  0  0  0  0  0  0  0  0  0
  -31.4495  -24.8073   25.6894 C   0  0  0  0  0  0  0  0  0  0  0  0
  -28.5485  -27.3895   22.2773 C   0  0  0  0  0  0  0  0  0  1  0  0
  -23.2790  -24.9169   17.5072 C   0  0  1  0  0  0  0  0  0  0  0  0
  -24.8348  -25.6283   14.1244 C   0  0  2  0  0  0  0  0  0  0  0  0
  -31.0600  -26.1902   25.1156 C   0  0  2  0  0  0  0  0  0  0  0  0
  -30.0577  -26.1072   23.9272 C   0  0  1  0  0  0  0  0  0  0  0  0
  -29.5574  -27.4812   23.4279 C   0  0  2  0  0  0  0  0  0  0  0  0
  -22.6185  -23.5412   17.8050 C   0  0  0  0  0  0  0  0  0  0  0  0
  -25.7786  -16.5194   21.3990 N   0  0  0  0  0  0  0  0  0  0  0  0
  -28.6039  -24.7269   21.7969 N   0  0  0  0  0  0  0  0  0  0  0  0
  -26.5864  -17.5877   21.5091 N   0  0  0  0  0  0  0  0  0  0  0  0
  -23.0167  -26.9228   18.9325 N   0  0  0  0  0  0  0  0  0  0  0  0
  -24.9485  -21.0044   22.0112 N   0  0  0  0  0  0  0  0  0  0  0  0
  -28.7441  -18.3897   20.9508 N   0  0  0  0  0  0  0  0  0  0  0  0
  -29.1088  -22.7570   18.7736 N   0  0  0  0  0  0  0  0  0  0  0  0
  -28.7080  -14.2134   19.2323 N   0  0  0  0  0  0  0  0  0  0  0  0
  -30.6546  -25.3832   22.8209 N   0  0  0  0  0  0  0  0  0  0  0  0
  -20.4310  -27.7749   21.2386 N   0  0  0  0  0  0  0  0  0  0  0  0
  -23.5474  -25.1573   16.0935 N   0  0  0  0  0  0  0  0  0  0  0  0
  -26.2599  -22.5426   20.7833 N   0  0  0  0  0  0  0  0  0  0  0  0
  -25.8759  -26.6272   13.7514 N   0  3  0  0  0  0  0  0  0  0  0  0
  -29.9795  -16.1015   19.5105 O   0  0  0  0  0  0  0  0  0  0  0  0
  -22.4061  -26.5663   21.4843 O   0  0  0  0  0  0  0  0  0  0  0  0
  -21.3014  -26.2266   17.5150 O   0  0  0  0  0  0  0  0  0  0  0  0
  -25.8327  -25.4790   16.3197 O   0  0  0  0  0  0  0  0  0  0  0  0
  -24.8761  -23.2791   22.4565 O   0  0  0  0  0  0  0  0  0  0  0  0
  -28.9372  -28.1676   24.5161 O   0  0  0  0  0  0  0  0  0  0  0  0
  -24.4825  -10.5908   19.4699 O   0  0  0  0  0  0  0  0  0  0  0  0
  -28.1526  -28.6937   21.8546 O   0  0  0  0  0  0  0  0  0  1  0  0
  -21.8052   -7.8552   23.4389 F   0  0  0  0  0  0  0  0  0  0  0  0
  -25.3716   -8.1213   20.3381 F   0  0  0  0  0  0  0  0  0  0  0  0
  -30.7366  -23.9235   20.5767 S   0  0  0  0  0  0  0  0  0  0  0  0
  1  2  1  0  0  0  0
  1  5  2  0  0  0  0
  2  6  2  0  0  0  0
  3  8  2  0  0  0  0
  3 15  1  0  0  0  0
  4  9  1  0  0  0  0
  4 15  2  0  0  0  0
  5 17  1  0  0  0  0
  6 19  1  0  0  0  0
  7 10  2  0  0  0  0
  7 18  1  0  0  0  0
  8 21  1  0  0  0  0
  9 21  2  0  0  0  0
 10 22  1  0  0  0  0
 11 12  2  0  0  0  0
 11 23  1  0  0  0  0
 12 24  1  0  0  0  0
 13 20  1  0  0  0  0
 13 22  2  0  0  0  0
 14 24  2  0  0  0  0
 14 25  1  0  0  0  0
 15 26  1  0  0  0  0
 16 26  1  0  0  0  0
 16 28  2  0  0  0  0
 16 31  1  0  0  0  0
 17 19  2  0  0  0  0
 17 36  1  0  0  0  0
 18 20  2  0  0  0  0
 18 37  1  0  0  0  0
 19 45  1  0  0  0  0
 20 38  1  0  0  0  0
 21 83  1  0  0  0  0
 22 84  1  0  0  0  0
 23 25  2  0  0  0  0
 23 83  1  0  0  0  0
 24 85  1  0  0  0  0
 25 86  1  0  0  0  0
 26 64  2  0  0  0  0
 27 29  2  0  0  0  0
 27 55  1  0  0  0  0
 27 65  1  0  0  0  0
 28 66  1  0  0  0  0
 28 69  1  0  0  0  0
 29 70  1  0  0  0  0
 29 87  1  0  0  0  0
 30 65  2  0  0  0  0
 30 72  1  0  0  0  0
 30 87  1  0  0  0  0
 31 71  1  0  0  0  0
 31 77  2  0  0  0  0
 32 46  1  0  0  0  0
 32 73  1  0  0  0  0
 32 78  2  0  0  0  0
 33 58  1  0  0  0  0
 33 67  1  0  0  0  0
 33 79  2  0  0  0  0
 34 59  1  0  0  0  0
 34 74  1  0  0  0  0
 34 80  2  0  0  0  0
 35 68  1  0  0  0  0
 35 75  1  0  0  0  0
 35 81  2  0  0  0  0
 36 39  1  0  0  0  0
 37 46  1  0  0  0  0
 38 67  1  0  0  0  0
 39 41  1  0  0  0  0
 40 42  1  0  0  0  0
 40 43  1  0  0  0  0
 41 45  1  0  0  0  0
 42 47  1  0  0  0  0
 43 68  1  0  0  0  0
 44 47  1  0  0  0  0
 44 68  1  0  0  0  0
 45 73  1  0  0  0  0
 46 67  1  0  0  0  0
 47 66  1  0  0  0  0
 48 56  1  0  0  0  0
 49 59  1  0  0  0  0
 50 60  1  0  0  0  0
 51 63  1  0  0  0  0
 52 63  1  0  0  0  0
 53 63  1  0  0  0  0
 54 76  1  0  0  0  0
 55 75  1  0  0  0  0
 56 60  1  0  0  0  0
 57 62  1  0  0  0  0
 57 84  1  0  0  0  0
 58 63  1  0  0  0  0
 58 74  1  0  0  0  0
 59 76  1  0  0  0  0
 60 61  1  0  0  0  0
 61 62  1  0  0  0  0
 61 72  1  0  0  0  0
 62 82  1  0  0  0  0
 64 66  1  0  0  0  0
M  CHG  1  76   1
M  ISO  4  35 100  57 101  75 100  84 101
M  END
> <Batch ID>
0193

> <Smiles>
CCC(C)C(Nc1nc(C[100NH:0][100C:0](=O)N2CCCC(n3nc(-c4ccc(Oc5ccc(F)cc5F)cc4)c(C(N)=O)c3N)C2)c(N)s1)C(O)[101CH2:1][101O:1]c1ccc2c(c1)CN(C(=O)C(NC(=O)C(C)NC)C(C)(C)C)C(C(=O)NC1CCCc3ccccc31)C2

> <Shape>
0.226

> <Color>
0.073

> <Negative vol penalty>
0.000

$$$$

  -OEChem-04052305303D

 86 94  0     1  0  0  0  0  0999 V2000
  -24.0317  -23.2114   17.9062 C   0  0  0  0  0  0  0  0  0  0  0  0
  -24.8964  -22.2055   17.4868 C   0  0  0  0  0  0  0  0  0  0  0  0
  -26.3715  -28.0630   20.9091 C   0  0  0  0  0  0  0  0  0  0  0  0
  -26.5218  -26.5849   22.8142 C   0  0  0  0  0  0  0  0  0  0  0  0
  -23.4184  -23.1257   19.1554 C   0  0  0  0  0  0  0  0  0  0  0  0
  -25.1492  -21.1139   18.3168 C   0  0  0  0  0  0  0  0  0  0  0  0
  -26.1564  -15.3270   16.5841 C   0  0  0  0  0  0  0  0  0  0  0  0
  -25.1803  -28.5879   21.4103 C   0  0  0  0  0  0  0  0  0  0  0  0
  -25.3306  -27.1097   23.3154 C   0  0  0  0  0  0  0  0  0  0  0  0
  -27.3271  -14.5896   16.4120 C   0  0  0  0  0  0  0  0  0  0  0  0
  -21.9236  -27.6923   21.5387 C   0  0  0  0  0  0  0  0  0  0  0  0
  -20.8649  -27.8616   20.6466 C   0  0  0  0  0  0  0  0  0  0  0  0
  -27.0796  -13.6889   18.6361 C   0  0  0  0  0  0  0  0  0  0  0  0
  -20.8508  -30.2321   21.1131 C   0  0  0  0  0  0  0  0  0  0  0  0
  -28.7273  -17.3156   22.1982 C   0  0  0  0  0  0  0  0  0  0  0  0
  -27.0422  -27.0615   21.6110 C   0  0  0  0  0  0  0  0  0  0  0  0
  -29.5783  -26.9789   21.3480 C   0  0  0  0  0  0  0  0  0  0  0  0
  -23.6562  -22.0278   19.9971 C   0  0  0  0  0  0  0  0  0  0  0  0
  -25.4432  -15.2591   17.7895 C   0  0  0  0  0  0  0  0  0  0  0  0
  -24.5395  -21.0142   19.5789 C   0  0  0  0  0  0  0  0  0  0  0  0
  -25.8988  -14.4244   18.8200 C   0  0  0  0  0  0  0  0  0  0  0  0
  -28.5244  -18.5571   21.6309 C   0  0  0  0  0  0  0  0  0  0  0  0
  -24.6599  -28.1112   22.6135 C   0  0  0  0  0  0  0  0  0  0  0  0
  -27.7904  -13.7726   17.4391 C   0  0  0  0  0  0  0  0  0  0  0  0
  -22.4460  -28.7929   22.2181 C   0  0  0  0  0  0  0  0  0  0  0  0
  -20.3284  -29.1315   20.4337 C   0  0  0  0  0  0  0  0  0  0  0  0
  -21.9096  -30.0628   22.0053 C   0  0  0  0  0  0  0  0  0  0  0  0
  -28.2725  -26.5185   21.0936 C   0  0  0  0  0  0  0  0  0  0  0  0
  -29.2490  -18.8156   20.4852 C   0  0  0  0  0  0  0  0  0  0  0  0
  -30.3868  -26.1329   20.6288 C   0  0  0  0  0  0  0  0  0  0  0  0
  -30.2184  -16.7615   20.5743 C   0  0  0  0  0  0  0  0  0  0  0  0
  -30.0209  -28.0733   22.1616 C   0  0  0  0  0  0  0  0  0  0  0  0
  -24.6514  -17.3508   20.0482 C   0  0  0  0  0  0  0  0  0  0  0  0
  -22.9544  -14.8488   21.2239 C   0  0  0  0  0  0  0  0  0  0  0  0
  -22.5335  -11.4675   21.4141 C   0  0  0  0  0  0  0  0  0  0  0  0
  -29.7246  -20.5193   18.6915 C   0  0  0  0  0  0  0  0  0  0  0  0
  -23.0071  -22.0024   21.3582 C   0  0  0  0  0  0  0  0  0  0  0  0
  -24.1678  -16.0401   17.9495 C   0  0  0  0  0  0  0  0  0  0  0  0
  -25.1588  -14.3008   20.1260 C   0  0  0  0  0  0  0  0  0  0  0  0
  -23.0367  -20.6280   22.0217 C   0  0  0  0  0  0  0  0  0  0  0  0
  -30.3888  -23.3949   16.6998 C   0  0  0  0  0  0  0  0  0  0  0  0
  -24.4267  -20.0102   21.9081 C   0  0  0  0  0  0  0  0  0  0  0  0
  -30.0461  -24.5642   17.6257 C   0  0  0  0  0  0  0  0  0  0  0  0
  -29.4376  -22.2162   16.8989 C   0  0  0  0  0  0  0  0  0  0  0  0
  -28.9642  -22.9207   19.2117 C   0  0  0  0  0  0  0  0  0  0  0  0
  -24.8197  -19.8021   20.4405 C   0  0  1  0  0  0  0  0  0  0  0  0
  -23.7997  -16.2909   19.4087 C   0  0  1  0  0  0  0  0  0  0  0  0
  -29.9349  -24.1070   19.0934 C   0  0  2  0  0  0  0  0  0  0  0  0
  -21.0835   -9.7198   22.4821 C   0  0  0  0  0  0  0  0  0  0  0  0
  -32.2400  -14.6807   21.8173 C   0  0  0  0  0  0  0  0  0  0  0  0
  -29.7573  -11.2763   18.6503 C   0  0  0  0  0  0  0  0  0  0  0  0
  -24.3880  -15.2869   23.8815 C   0  0  0  0  0  0  0  0  0  0  0  0
  -23.6412  -13.0021   24.5814 C   0  0  0  0  0  0  0  0  0  0  0  0
  -21.9501  -14.7673   24.0845 C   0  0  0  0  0  0  0  0  0  0  0  0
  -21.6352  -10.4415   18.7874 C   0  0  0  0  0  0  0  0  0  0  0  0
  -31.0862  -13.4246   18.2679 C   0  0  0  0  0  0  0  0  0  0  0  0
  -23.2419  -13.7177   22.1815 C   0  0  1  0  0  0  0  0  0  0  0  0
  -21.3007  -10.5955   21.2579 C   0  0  2  0  0  0  0  0  0  0  0  0
  -31.3268  -14.5262   20.6019 C   0  0  2  0  0  0  0  0  0  0  0  0
  -29.7062  -12.7838   18.4430 C   0  0  1  0  0  0  0  0  0  1  0  0
  -31.9241  -13.5777   19.5465 C   0  0  2  0  0  0  0  0  0  0  0  0
  -23.3205  -14.1971   23.6585 C   0  0  0  0  0  0  0  0  0  0  0  0
  -29.5699  -16.3900   21.6946 N   0  0  0  0  0  0  0  0  0  0  0  0
  -28.2482  -25.4622   20.2765 N   0  0  0  0  0  0  0  0  0  0  0  0
  -30.1082  -17.9375   19.9275 N   0  0  0  0  0  0  0  0  0  0  0  0
  -29.5487  -25.2518   20.0112 N   0  0  0  0  0  0  0  0  0  0  0  0
  -23.9204  -15.0891   20.2366 N   0  0  0  0  0  0  0  0  0  0  0  0
  -29.3865  -21.8356   18.3122 N   0  0  0  0  0  0  0  0  0  0  0  0
  -27.6345  -19.4755   22.2031 N   0  0  0  0  0  0  0  0  0  0  0  0
  -31.7257  -26.0643   20.4708 N   0  0  0  0  0  0  0  0  0  0  0  0
  -29.0577  -28.8400   22.8316 N   0  0  0  0  0  0  0  0  0  0  0  0
  -29.0879  -20.0710   19.8483 N   0  0  0  0  0  0  0  0  0  0  0  0
  -31.0904  -15.8369   20.0300 N   0  0  0  0  0  0  0  0  0  0  0  0
  -24.1583  -18.6333   19.9011 N   0  0  0  0  0  0  0  0  0  0  0  0
  -22.2209  -12.7051   21.9355 N   0  0  0  0  0  0  0  0  0  0  0  0
  -21.4393   -9.7113   20.0662 N   0  3  0  0  0  0  0  0  0  0  0  0
  -31.2334  -28.3729   22.2777 O   0  0  0  0  0  0  0  0  0  0  0  0
  -25.6789  -17.0288   20.6331 O   0  0  0  0  0  0  0  0  0  0  0  0
  -21.9077  -15.4907   21.3430 O   0  0  0  0  0  0  0  0  0  0  0  0
  -23.6614  -11.0873   21.1080 O   0  0  0  0  0  0  0  0  0  0  0  0
  -30.5409  -19.8495   18.0535 O   0  0  0  0  0  0  0  0  0  0  0  0
  -33.2258  -14.0426   19.1772 O   0  0  0  0  0  0  0  0  0  0  0  0
  -23.4976  -28.6233   23.1029 O   0  0  0  0  0  0  0  0  0  0  0  0
  -28.9331  -13.0524   17.2740 O   0  0  0  0  0  0  0  0  0  1  0  0
  -19.3127  -29.2941   19.5758 F   0  0  0  0  0  0  0  0  0  0  0  0
  -22.4080  -31.1241   22.6542 F   0  0  0  0  0  0  0  0  0  0  0  0
  1  2  1  0  0  0  0
  1  5  2  0  0  0  0
  2  6  2  0  0  0  0
  3  8  2  0  0  0  0
  3 16  1  0  0  0  0
  4  9  1  0  0  0  0
  4 16  2  0  0  0  0
  5 18  1  0  0  0  0
  6 20  1  0  0  0  0
  7 10  2  0  0  0  0
  7 19  1  0  0  0  0
  8 23  1  0  0  0  0
  9 23  2  0  0  0  0
 10 24  1  0  0  0  0
 11 12  2  0  0  0  0
 11 25  1  0  0  0  0
 12 26  1  0  0  0  0
 13 21  1  0  0  0  0
 13 24  2  0  0  0  0
 14 26  2  0  0  0  0
 14 27  1  0  0  0  0
 15 22  1  0  0  0  0
 15 63  2  0  0  0  0
 16 28  1  0  0  0  0
 17 28  1  0  0  0  0
 17 30  2  0  0  0  0
 17 32  1  0  0  0  0
 18 20  2  0  0  0  0
 18 37  1  0  0  0  0
 19 21  2  0  0  0  0
 19 38  1  0  0  0  0
 20 46  1  0  0  0  0
 21 39  1  0  0  0  0
 22 29  2  0  0  0  0
 22 69  1  0  0  0  0
 23 83  1  0  0  0  0
 24 84  1  0  0  0  0
 25 27  2  0  0  0  0
 25 83  1  0  0  0  0
 26 85  1  0  0  0  0
 27 86  1  0  0  0  0
 28 64  2  0  0  0  0
 29 65  1  0  0  0  0
 29 72  1  0  0  0  0
 30 66  1  0  0  0  0
 30 70  1  0  0  0  0
 31 63  1  0  0  0  0
 31 65  2  0  0  0  0
 31 73  1  0  0  0  0
 32 71  1  0  0  0  0
 32 77  2  0  0  0  0
 33 47  1  0  0  0  0
 33 74  1  0  0  0  0
 33 78  2  0  0  0  0
 34 57  1  0  0  0  0
 34 67  1  0  0  0  0
 34 79  2  0  0  0  0
 35 58  1  0  0  0  0
 35 75  1  0  0  0  0
 35 80  2  0  0  0  0
 36 68  1  0  0  0  0
 36 72  1  0  0  0  0
 36 81  2  0  0  0  0
 37 40  1  0  0  0  0
 38 47  1  0  0  0  0
 39 67  1  0  0  0  0
 40 42  1  0  0  0  0
 41 43  1  0  0  0  0
 41 44  1  0  0  0  0
 42 46  1  0  0  0  0
 43 48  1  0  0  0  0
 44 68  1  0  0  0  0
 45 48  1  0  0  0  0
 45 68  1  0  0  0  0
 46 74  1  0  0  0  0
 47 67  1  0  0  0  0
 48 66  1  0  0  0  0
 49 58  1  0  0  0  0
 50 59  1  0  0  0  0
 51 60  1  0  0  0  0
 52 62  1  0  0  0  0
 53 62  1  0  0  0  0
 54 62  1  0  0  0  0
 55 76  1  0  0  0  0
 56 60  1  0  0  0  0
 56 61  1  0  0  0  0
 57 62  1  0  0  0  0
 57 75  1  0  0  0  0
 58 76  1  0  0  0  0
 59 61  1  0  0  0  0
 59 73  1  0  0  0  0
 60 84  1  0  0  0  0
 61 82  1  0  0  0  0
 64 66  1  0  0  0  0
M  CHG  1  76   1
M  ISO  4  36 100  60 101  72 100  84 101
M  END
> <Batch ID>
0193

> <Smiles>
CNC(C)C(=O)NC(C(=O)N1Cc2cc([101O:1][101CH:1](C)CC(O)C(C)Nc3ncc(N)c([100NH:0][100C:0](=O)N4CCCC(n5nc(-c6ccc(Oc7ccc(F)cc7F)cc6)c(C(N)=O)c5N)C4)n3)ccc2CC1C(=O)NC1CCCc2ccccc21)C(C)(C)C

> <Shape>
0.239

> <Color>
0.058

> <Negative vol penalty>
0.000

$$$$

  -OEChem-04052305303D

 90 98  0     1  0  0  0  0  0999 V2000
  -29.1363  -30.1616   27.7197 C   0  0  0  0  0  0  0  0  0  0  0  0
  -29.0365  -28.7802   27.5889 C   0  0  0  0  0  0  0  0  0  0  0  0
  -30.2685  -19.5633   19.8359 C   0  0  0  0  0  0  0  0  0  0  0  0
  -27.9937  -19.8084   20.6118 C   0  0  0  0  0  0  0  0  0  0  0  0
  -28.0912  -30.9786   27.2907 C   0  0  0  0  0  0  0  0  0  0  0  0
  -27.8909  -28.2149   27.0298 C   0  0  0  0  0  0  0  0  0  0  0  0
  -25.7896  -22.6527   23.0344 C   0  0  0  0  0  0  0  0  0  0  0  0
  -30.2133  -20.8376   19.2715 C   0  0  0  0  0  0  0  0  0  0  0  0
  -27.9385  -21.0828   20.0474 C   0  0  0  0  0  0  0  0  0  0  0  0
  -24.8656  -21.6087   23.0426 C   0  0  0  0  0  0  0  0  0  0  0  0
  -30.4429  -24.0416   20.3272 C   0  0  0  0  0  0  0  0  0  0  0  0
  -31.5308  -24.8898   20.5339 C   0  0  0  0  0  0  0  0  0  0  0  0
  -23.1569  -23.1230   22.2639 C   0  0  0  0  0  0  0  0  0  0  0  0
  -31.8827  -25.0201   18.1472 C   0  0  0  0  0  0  0  0  0  0  0  0
  -20.6037  -14.4497   19.8641 C   0  0  0  0  0  0  0  0  0  0  0  0
  -29.1586  -19.0486   20.5060 C   0  0  0  0  0  0  0  0  0  0  0  0
  -29.6235  -17.3967   22.3935 C   0  0  0  0  0  0  0  0  0  0  0  0
  -26.9363  -30.4237   26.7172 C   0  0  0  0  0  0  0  0  0  0  0  0
  -25.4010  -23.9442   22.6507 C   0  0  0  0  0  0  0  0  0  0  0  0
  -26.8288  -29.0252   26.5939 C   0  0  0  0  0  0  0  0  0  0  0  0
  -24.0785  -24.1811   22.2492 C   0  0  0  0  0  0  0  0  0  0  0  0
  -29.0484  -21.5974   19.3772 C   0  0  0  0  0  0  0  0  0  0  0  0
  -23.5483  -21.8444   22.6601 C   0  0  0  0  0  0  0  0  0  0  0  0
  -30.0750  -23.6826   19.0304 C   0  0  0  0  0  0  0  0  0  0  0  0
  -32.2506  -25.3791   19.4440 C   0  0  0  0  0  0  0  0  0  0  0  0
  -30.7949  -24.1719   17.9405 C   0  0  0  0  0  0  0  0  0  0  0  0
  -29.2148  -17.7321   21.0888 C   0  0  0  0  0  0  0  0  0  0  0  0
  -21.6155  -15.1764   20.4560 C   0  0  0  0  0  0  0  0  0  0  0  0
  -29.4956  -16.0305   22.4529 C   0  0  0  0  0  0  0  0  0  0  0  0
  -22.6748  -13.2711   20.2164 C   0  0  0  0  0  0  0  0  0  0  0  0
  -30.0780  -18.2444   23.4568 C   0  0  0  0  0  0  0  0  0  0  0  0
  -25.3053  -26.7779   24.0876 C   0  0  0  0  0  0  0  0  0  0  0  0
  -24.4790  -27.8156   21.1275 C   0  0  0  0  0  0  0  0  0  0  0  0
  -23.1392  -27.0924   18.0731 C   0  0  0  0  0  0  0  0  0  0  0  0
  -26.0885  -12.1204   19.4605 C   0  0  0  0  0  0  0  0  0  0  0  0
  -25.8129  -31.3446   26.3115 C   0  0  0  0  0  0  0  0  0  0  0  0
  -26.4162  -25.0537   22.6216 C   0  0  0  0  0  0  0  0  0  0  0  0
  -23.6156  -25.5451   21.8092 C   0  0  0  0  0  0  0  0  0  0  0  0
  -24.7912  -30.6882   25.3866 C   0  0  0  0  0  0  0  0  0  0  0  0
  -29.6420  -12.1322   19.6829 C   0  0  0  0  0  0  0  0  0  0  0  0
  -24.3992  -29.3120   25.9151 C   0  0  0  0  0  0  0  0  0  0  0  0
  -29.9723  -13.5384   20.1862 C   0  0  0  0  0  0  0  0  0  0  0  0
  -28.4536  -12.1406   18.7239 C   0  0  0  0  0  0  0  0  0  0  0  0
  -27.5693  -14.1986   19.7519 C   0  0  0  0  0  0  0  0  0  0  0  0
  -25.6126  -28.3759   25.9698 C   0  0  1  0  0  0  0  0  0  0  0  0
  -25.7874  -26.4412   22.7049 C   0  0  1  0  0  0  0  0  0  0  0  0
  -28.7258  -14.2338   20.7657 C   0  0  2  0  0  0  0  0  0  0  0  0
  -21.0596  -12.0425   24.8130 C   0  0  0  0  0  0  0  0  0  0  0  0
  -22.5612  -28.1544   15.8742 C   0  0  0  0  0  0  0  0  0  0  0  0
  -24.5919  -13.5963   25.2781 C   0  0  0  0  0  0  0  0  0  0  0  0
  -25.3279  -10.8648   24.0696 C   0  0  0  0  0  0  0  0  0  0  0  0
  -22.0377  -29.1264   22.4050 C   0  0  0  0  0  0  0  0  0  0  0  0
  -21.0384  -29.3320   20.1187 C   0  0  0  0  0  0  0  0  0  0  0  0
  -23.1700  -30.5107   20.6568 C   0  0  0  0  0  0  0  0  0  0  0  0
  -24.9765  -25.3043   16.5946 C   0  0  0  0  0  0  0  0  0  0  0  0
  -22.1756  -13.0720   24.9210 C   0  0  0  0  0  0  0  0  0  0  0  0
  -22.5372  -17.2686   21.4554 C   0  0  0  0  0  0  0  0  0  0  0  0
  -23.7421  -11.4221   21.5653 C   0  0  0  0  0  0  0  0  0  0  0  0
  -23.1431  -19.5130   22.4228 C   0  0  0  0  0  0  0  0  0  1  0  0
  -23.7430  -12.2492   20.2611 C   0  0  2  0  0  0  0  0  0  0  0  0
  -23.1785  -27.9973   20.3827 C   0  0  1  0  0  0  0  0  0  0  0  0
  -23.6175  -27.3988   16.6653 C   0  0  2  0  0  0  0  0  0  0  0  0
  -23.5835  -12.4549   25.0814 C   0  0  1  0  0  0  0  0  0  0  0  0
  -23.9654  -11.5303   23.9022 C   0  0  1  0  0  0  0  0  0  0  0  0
  -22.0461  -18.6808   21.7678 C   0  0  1  0  0  0  0  0  0  0  0  0
  -22.3641  -29.2162   20.9009 C   0  0  0  0  0  0  0  0  0  0  0  0
  -28.8544  -16.6649   20.3710 N   0  0  0  0  0  0  0  0  0  0  0  0
  -22.8037  -14.5021   20.6592 N   0  0  0  0  0  0  0  0  0  0  0  0
  -29.0363  -15.6455   21.2277 N   0  0  0  0  0  0  0  0  0  0  0  0
  -24.6440  -26.5986   21.8039 N   0  0  0  0  0  0  0  0  0  0  0  0
  -27.3041  -12.8128   19.3345 N   0  0  0  0  0  0  0  0  0  0  0  0
  -29.7324  -15.1328   23.4330 N   0  0  0  0  0  0  0  0  0  0  0  0
  -30.1491  -19.6250   23.2267 N   0  0  0  0  0  0  0  0  0  0  0  0
  -21.4807  -16.5014   20.8346 N   0  0  0  0  0  0  0  0  0  0  0  0
  -25.9266  -27.8777   24.6479 N   0  0  0  0  0  0  0  0  0  0  0  0
  -23.5252  -28.0685   18.9673 N   0  0  0  0  0  0  0  0  0  0  0  0
  -25.0519  -12.8285   20.0561 N   0  0  0  0  0  0  0  0  0  0  0  0
  -23.9344  -26.1362   15.9397 N   0  3  0  0  0  0  0  0  0  0  0  0
  -30.4269  -17.7892   24.5725 O   0  0  0  0  0  0  0  0  0  0  0  0
  -24.4330  -26.0916   24.6071 O   0  0  0  0  0  0  0  0  0  0  0  0
  -25.3205  -28.7172   21.1038 O   0  0  0  0  0  0  0  0  0  0  0  0
  -22.4853  -26.0896   18.3510 O   0  0  0  0  0  0  0  0  0  0  0  0
  -25.9397  -10.9556   19.0758 O   0  0  0  0  0  0  0  0  0  0  0  0
  -21.6789  -19.3283   20.5479 O   0  0  0  0  0  0  0  0  0  0  0  0
  -28.9943  -22.8411   18.8268 O   0  0  0  0  0  0  0  0  0  0  0  0
  -22.6442  -20.8274   22.6678 O   0  0  0  0  0  0  0  0  0  1  0  0
  -23.9618  -12.2686   22.6889 O   0  0  0  0  0  0  0  0  0  0  0  0
  -33.2943  -26.1949   19.6426 F   0  0  0  0  0  0  0  0  0  0  0  0
  -30.4454  -23.8315   16.6924 F   0  0  0  0  0  0  0  0  0  0  0  0
  -21.1518  -12.8567   19.5428 S   0  0  0  0  0  0  0  0  0  0  0  0
  1  2  1  0  0  0  0
  1  5  2  0  0  0  0
  2  6  2  0  0  0  0
  3  8  2  0  0  0  0
  3 16  1  0  0  0  0
  4  9  1  0  0  0  0
  4 16  2  0  0  0  0
  5 18  1  0  0  0  0
  6 20  1  0  0  0  0
  7 10  2  0  0  0  0
  7 19  1  0  0  0  0
  8 22  1  0  0  0  0
  9 22  2  0  0  0  0
 10 23  1  0  0  0  0
 11 12  2  0  0  0  0
 11 24  1  0  0  0  0
 12 25  1  0  0  0  0
 13 21  1  0  0  0  0
 13 23  2  0  0  0  0
 14 25  2  0  0  0  0
 14 26  1  0  0  0  0
 15 28  2  0  0  0  0
 15 90  1  0  0  0  0
 16 27  1  0  0  0  0
 17 27  1  0  0  0  0
 17 29  2  0  0  0  0
 17 31  1  0  0  0  0
 18 20  2  0  0  0  0
 18 36  1  0  0  0  0
 19 21  2  0  0  0  0
 19 37  1  0  0  0  0
 20 45  1  0  0  0  0
 21 38  1  0  0  0  0
 22 85  1  0  0  0  0
 23 86  1  0  0  0  0
 24 26  2  0  0  0  0
 24 85  1  0  0  0  0
 25 88  1  0  0  0  0
 26 89  1  0  0  0  0
 27 67  2  0  0  0  0
 28 68  1  0  0  0  0
 28 74  1  0  0  0  0
 29 69  1  0  0  0  0
 29 72  1  0  0  0  0
 30 60  1  0  0  0  0
 30 68  2  0  0  0  0
 30 90  1  0  0  0  0
 31 73  1  0  0  0  0
 31 79  2  0  0  0  0
 32 46  1  0  0  0  0
 32 75  1  0  0  0  0
 32 80  2  0  0  0  0
 33 61  1  0  0  0  0
 33 70  1  0  0  0  0
 33 81  2  0  0  0  0
 34 62  1  0  0  0  0
 34 76  1  0  0  0  0
 34 82  2  0  0  0  0
 35 71  1  0  0  0  0
 35 77  1  0  0  0  0
 35 83  2  0  0  0  0
 36 39  1  0  0  0  0
 37 46  1  0  0  0  0
 38 70  1  0  0  0  0
 39 41  1  0  0  0  0
 40 42  1  0  0  0  0
 40 43  1  0  0  0  0
 41 45  1  0  0  0  0
 42 47  1  0  0  0  0
 43 71  1  0  0  0  0
 44 47  1  0  0  0  0
 44 71  1  0  0  0  0
 45 75  1  0  0  0  0
 46 70  1  0  0  0  0
 47 69  1  0  0  0  0
 48 56  1  0  0  0  0
 49 62  1  0  0  0  0
 50 63  1  0  0  0  0
 51 64  1  0  0  0  0
 52 66  1  0  0  0  0
 53 66  1  0  0  0  0
 54 66  1  0  0  0  0
 55 78  1  0  0  0  0
 56 63  1  0  0  0  0
 57 65  1  0  0  0  0
 57 74  1  0  0  0  0
 58 60  1  0  0  0  0
 58 87  1  0  0  0  0
 59 65  1  0  0  0  0
 59 86  1  0  0  0  0
 60 77  1  0  0  0  0
 61 66  1  0  0  0  0
 61 76  1  0  0  0  0
 62 78  1  0  0  0  0
 63 64  1  0  0  0  0
 64 87  1  0  0  0  0
 65 84  1  0  0  0  0
 67 69  1  0  0  0  0
M  CHG  1  78   1
M  ISO  4  35 100  59 101  77 100  86 101
M  END
> <Batch ID>
0193

> <Smiles>
CCC(C)C(C)OCC([100NH:0][100C:0](=O)N1CCCC(n2nc(-c3ccc(Oc4ccc(F)cc4F)cc3)c(C(N)=O)c2N)C1)c1nc(NCC(O)[101CH2:1][101O:1]c2ccc3c(c2)CN(C(=O)C(NC(=O)C(C)NC)C(C)(C)C)C(C(=O)NC2CCCc4ccccc42)C3)cs1

> <Shape>
0.217

> <Color>
0.044

> <Negative vol penalty>
0.000

$$$$

  -OEChem-04052305303D

 86 94  0     1  0  0  0  0  0999 V2000
  -25.3939  -34.6773   21.9847 C   0  0  0  0  0  0  0  0  0  0  0  0
  -26.0704  -33.4645   21.9006 C   0  0  0  0  0  0  0  0  0  0  0  0
  -23.3676   -9.8074   21.0816 C   0  0  0  0  0  0  0  0  0  0  0  0
  -24.0374  -10.6197   23.2561 C   0  0  0  0  0  0  0  0  0  0  0  0
  -24.1387  -34.7335   22.5892 C   0  0  0  0  0  0  0  0  0  0  0  0
  -25.4925  -32.3075   22.4218 C   0  0  0  0  0  0  0  0  0  0  0  0
  -25.9182  -28.3457   19.2965 C   0  0  0  0  0  0  0  0  0  0  0  0
  -22.7284   -8.7235   21.6834 C   0  0  0  0  0  0  0  0  0  0  0  0
  -23.3981   -9.5359   23.8579 C   0  0  0  0  0  0  0  0  0  0  0  0
  -27.1531  -27.7000   19.2515 C   0  0  0  0  0  0  0  0  0  0  0  0
  -19.8176   -8.1316   23.2988 C   0  0  0  0  0  0  0  0  0  0  0  0
  -18.5401   -7.8002   22.8475 C   0  0  0  0  0  0  0  0  0  0  0  0
  -26.3016  -25.9824   20.7158 C   0  0  0  0  0  0  0  0  0  0  0  0
  -19.3315   -5.6059   22.2183 C   0  0  0  0  0  0  0  0  0  0  0  0
  -24.0222  -10.7555   21.8680 C   0  0  0  0  0  0  0  0  0  0  0  0
  -24.1258  -13.1329   20.9489 C   0  0  0  0  0  0  0  0  0  0  0  0
  -23.5410  -33.5748   23.1094 C   0  0  0  0  0  0  0  0  0  0  0  0
  -24.8674  -27.8195   20.0615 C   0  0  0  0  0  0  0  0  0  0  0  0
  -24.2288  -32.3485   23.0350 C   0  0  0  0  0  0  0  0  0  0  0  0
  -25.0536  -26.6220   20.7668 C   0  0  0  0  0  0  0  0  0  0  0  0
  -22.7436   -8.5877   23.0715 C   0  0  0  0  0  0  0  0  0  0  0  0
  -27.3458  -26.5197   19.9635 C   0  0  0  0  0  0  0  0  0  0  0  0
  -20.8521   -7.2001   23.2099 C   0  0  0  0  0  0  0  0  0  0  0  0
  -18.2970   -6.5374   22.3072 C   0  0  0  0  0  0  0  0  0  0  0  0
  -20.6090   -5.9373   22.6696 C   0  0  0  0  0  0  0  0  0  0  0  0
  -24.6832  -11.8750   21.2469 C   0  0  0  0  0  0  0  0  0  0  0  0
  -25.1542  -13.8359   20.3704 C   0  0  0  0  0  0  0  0  0  0  0  0
  -30.0768  -17.8741   20.7156 C   0  0  0  0  0  0  0  0  0  0  0  0
  -31.2406  -19.5783   20.4022 C   0  0  0  0  0  0  0  0  0  0  0  0
  -22.7972  -13.6222   21.1748 C   0  0  0  0  0  0  0  0  0  0  0  0
  -23.1770  -28.8394   22.5527 C   0  0  0  0  0  0  0  0  0  0  0  0
  -27.6641  -21.6813   19.7723 C   0  0  0  0  0  0  0  0  0  0  0  0
  -21.4662  -26.1389   22.0021 C   0  0  0  0  0  0  0  0  0  0  0  0
  -21.3656  -22.9901   20.6900 C   0  0  0  0  0  0  0  0  0  0  0  0
  -30.4853  -15.4365   20.2281 C   0  0  0  0  0  0  0  0  0  0  0  0
  -22.2033  -33.6937   23.7959 C   0  0  0  0  0  0  0  0  0  0  0  0
  -23.5332  -28.5138   20.0782 C   0  0  0  0  0  0  0  0  0  0  0  0
  -23.9512  -26.0050   21.5868 C   0  0  0  0  0  0  0  0  0  0  0  0
  -21.4966  -32.3544   23.9889 C   0  0  0  0  0  0  0  0  0  0  0  0
  -29.6955  -12.2949   18.7504 C   0  0  0  0  0  0  0  0  0  0  0  0
  -22.4659  -31.3140   24.5409 C   0  0  0  0  0  0  0  0  0  0  0  0
  -28.2752  -12.0091   19.2436 C   0  0  0  0  0  0  0  0  0  0  0  0
  -30.5391  -12.9858   19.8203 C   0  0  0  0  0  0  0  0  0  0  0  0
  -28.5215  -13.9122   20.8882 C   0  0  0  0  0  0  0  0  0  0  0  0
  -23.6240  -31.0672   23.5666 C   0  0  1  0  0  0  0  0  0  0  0  0
  -22.6922  -28.1628   21.3017 C   0  0  1  0  0  0  0  0  0  0  0  0
  -27.6143  -13.2753   19.8228 C   0  0  2  0  0  0  0  0  0  0  0  0
  -26.0722  -20.7413   18.0499 C   0  0  0  0  0  0  0  0  0  0  0  0
  -19.8424  -21.0131   20.4276 C   0  0  0  0  0  0  0  0  0  0  0  0
  -29.4298  -24.5296   18.1618 C   0  0  0  0  0  0  0  0  0  0  0  0
  -21.9169  -25.4062   24.9295 C   0  0  0  0  0  0  0  0  0  0  0  0
  -21.2304  -23.0630   24.3764 C   0  0  0  0  0  0  0  0  0  0  0  0
  -19.6119  -24.9379   24.0799 C   0  0  0  0  0  0  0  0  0  0  0  0
  -21.4709  -23.1542   17.7368 C   0  0  0  0  0  0  0  0  0  0  0  0
  -27.5046  -21.1334   18.3638 C   0  0  0  0  0  0  0  0  0  0  0  0
  -29.0703  -23.6224   20.5284 C   0  0  0  0  0  0  0  0  0  0  0  0
  -29.5604  -21.2919   21.3723 C   0  0  0  0  0  0  0  0  0  0  0  0
  -29.0728  -22.1259   20.1712 C   0  0  1  0  0  0  0  0  0  0  0  0
  -21.5490  -24.7066   22.4717 C   0  0  1  0  0  0  0  0  0  0  0  0
  -20.3473  -22.3024   19.7986 C   0  0  2  0  0  0  0  0  0  0  0  0
  -28.5666  -24.5535   19.4162 C   0  0  1  0  0  0  0  0  0  1  0  0
  -21.0986  -24.5408   23.9506 C   0  0  0  0  0  0  0  0  0  0  0  0
  -25.9662  -11.7813   20.8873 N   0  0  0  0  0  0  0  0  0  0  0  0
  -31.2837  -18.2787   20.2215 N   0  0  0  0  0  0  0  0  0  0  0  0
  -29.2896  -18.8415   21.1906 N   0  0  0  0  0  0  0  0  0  0  0  0
  -26.2234  -12.9892   20.3573 N   0  0  0  0  0  0  0  0  0  0  0  0
  -30.0573  -19.9212   20.9784 N   0  0  0  0  0  0  0  0  0  0  0  0
  -22.6669  -26.7247   21.5765 N   0  0  0  0  0  0  0  0  0  0  0  0
  -29.8520  -14.1790   20.3194 N   0  0  0  0  0  0  0  0  0  0  0  0
  -25.2392  -15.0895   19.8767 N   0  0  0  0  0  0  0  0  0  0  0  0
  -32.1572  -20.5264   20.1048 N   0  0  0  0  0  0  0  0  0  0  0  0
  -21.8647  -12.7686   21.7800 N   0  0  0  0  0  0  0  0  0  0  0  0
  -29.7226  -16.5021   20.7047 N   0  0  0  0  0  0  0  0  0  0  0  0
  -23.1945  -30.2190   22.4755 N   0  0  0  0  0  0  0  0  0  0  0  0
  -20.7736  -23.9193   21.5191 N   0  0  0  0  0  0  0  0  0  0  0  0
  -20.9532  -21.9747   18.4770 N   0  3  0  0  0  0  0  0  0  0  0  0
  -22.4426  -14.7764   20.8347 O   0  0  0  0  0  0  0  0  0  0  0  0
  -23.5090  -28.1602   23.5171 O   0  0  0  0  0  0  0  0  0  0  0  0
  -26.7175  -21.7702   20.5546 O   0  0  0  0  0  0  0  0  0  0  0  0
  -20.3752  -26.7145   22.0057 O   0  0  0  0  0  0  0  0  0  0  0  0
  -22.5656  -22.7266   20.6568 O   0  0  0  0  0  0  0  0  0  0  0  0
  -31.6098  -15.5626   19.7366 O   0  0  0  0  0  0  0  0  0  0  0  0
  -22.1197   -7.5304   23.6591 O   0  0  0  0  0  0  0  0  0  0  0  0
  -28.5503  -25.8878   19.9218 O   0  0  0  0  0  0  0  0  0  1  0  0
  -17.0698   -6.2188   21.8753 F   0  0  0  0  0  0  0  0  0  0  0  0
  -21.5986   -5.0379   22.5827 F   0  0  0  0  0  0  0  0  0  0  0  0
  1  2  1  0  0  0  0
  1  5  2  0  0  0  0
  2  6  2  0  0  0  0
  3  8  2  0  0  0  0
  3 15  1  0  0  0  0
  4  9  1  0  0  0  0
  4 15  2  0  0  0  0
  5 17  1  0  0  0  0
  6 19  1  0  0  0  0
  7 10  2  0  0  0  0
  7 18  1  0  0  0  0
  8 21  1  0  0  0  0
  9 21  2  0  0  0  0
 10 22  1  0  0  0  0
 11 12  2  0  0  0  0
 11 23  1  0  0  0  0
 12 24  1  0  0  0  0
 13 20  1  0  0  0  0
 13 22  2  0  0  0  0
 14 24  2  0  0  0  0
 14 25  1  0  0  0  0
 15 26  1  0  0  0  0
 16 26  1  0  0  0  0
 16 27  2  0  0  0  0
 16 30  1  0  0  0  0
 17 19  2  0  0  0  0
 17 36  1  0  0  0  0
 18 20  2  0  0  0  0
 18 37  1  0  0  0  0
 19 45  1  0  0  0  0
 20 38  1  0  0  0  0
 21 83  1  0  0  0  0
 22 84  1  0  0  0  0
 23 25  2  0  0  0  0
 23 83  1  0  0  0  0
 24 85  1  0  0  0  0
 25 86  1  0  0  0  0
 26 63  2  0  0  0  0
 27 66  1  0  0  0  0
 27 70  1  0  0  0  0
 28 64  1  0  0  0  0
 28 65  2  0  0  0  0
 28 73  1  0  0  0  0
 29 64  2  0  0  0  0
 29 67  1  0  0  0  0
 29 71  1  0  0  0  0
 30 72  1  0  0  0  0
 30 77  2  0  0  0  0
 31 46  1  0  0  0  0
 31 74  1  0  0  0  0
 31 78  2  0  0  0  0
 32 55  1  0  0  0  0
 32 58  1  0  0  0  0
 32 79  2  0  0  0  0
 33 59  1  0  0  0  0
 33 68  1  0  0  0  0
 33 80  2  0  0  0  0
 34 60  1  0  0  0  0
 34 75  1  0  0  0  0
 34 81  2  0  0  0  0
 35 69  1  0  0  0  0
 35 73  1  0  0  0  0
 35 82  2  0  0  0  0
 36 39  1  0  0  0  0
 37 46  1  0  0  0  0
 38 68  1  0  0  0  0
 39 41  1  0  0  0  0
 40 42  1  0  0  0  0
 40 43  1  0  0  0  0
 41 45  1  0  0  0  0
 42 47  1  0  0  0  0
 43 69  1  0  0  0  0
 44 47  1  0  0  0  0
 44 69  1  0  0  0  0
 45 74  1  0  0  0  0
 46 68  1  0  0  0  0
 47 66  1  0  0  0  0
 48 55  1  0  0  0  0
 49 60  1  0  0  0  0
 50 61  1  0  0  0  0
 51 62  1  0  0  0  0
 52 62  1  0  0  0  0
 53 62  1  0  0  0  0
 54 76  1  0  0  0  0
 56 58  1  0  0  0  0
 56 61  1  0  0  0  0
 57 58  1  0  0  0  0
 57 67  1  0  0  0  0
 59 62  1  0  0  0  0
 59 75  1  0  0  0  0
 60 76  1  0  0  0  0
 61 84  1  0  0  0  0
 63 66  1  0  0  0  0
 65 67  1  0  0  0  0
M  CHG  1  76   1
M  ISO  4  35 100  61 101  73 100  84 101
M  END
> <Batch ID>
0193

> <Smiles>
CCC(=O)C(Cn1nc([100NH:0][100C:0](=O)N2CCCC(n3nc(-c4ccc(Oc5ccc(F)cc5F)cc4)c(C(N)=O)c3N)C2)nc1N)C[101CH:1](C)[101O:1]c1ccc2c(c1)CN(C(=O)C(NC(=O)C(C)NC)C(C)(C)C)C(C(=O)NC1CCCc3ccccc31)C2

> <Shape>
0.298

> <Color>
0.160

> <Negative vol penalty>
0.000

$$$$

  -OEChem-04052305303D

 85 93  0     1  0  0  0  0  0999 V2000
  -28.3107  -25.5701   23.7401 C   0  0  0  0  0  0  0  0  0  0  0  0
  -28.3329  -24.4045   22.9811 C   0  0  0  0  0  0  0  0  0  0  0  0
  -26.5837  -28.6834   19.0474 C   0  0  0  0  0  0  0  0  0  0  0  0
  -26.1222  -27.4571   21.0772 C   0  0  0  0  0  0  0  0  0  0  0  0
  -27.8601  -25.5333   25.0590 C   0  0  0  0  0  0  0  0  0  0  0  0
  -27.9055  -23.2010   23.5409 C   0  0  0  0  0  0  0  0  0  0  0  0
  -24.9806  -18.6436   20.6806 C   0  0  0  0  0  0  0  0  0  0  0  0
  -25.5688  -29.5869   19.3625 C   0  0  0  0  0  0  0  0  0  0  0  0
  -25.1073  -28.3606   21.3923 C   0  0  0  0  0  0  0  0  0  0  0  0
  -25.4246  -17.4381   20.1391 C   0  0  0  0  0  0  0  0  0  0  0  0
  -21.9032  -28.9279   20.4743 C   0  0  0  0  0  0  0  0  0  0  0  0
  -20.6888  -28.4081   20.9222 C   0  0  0  0  0  0  0  0  0  0  0  0
  -24.8162  -16.3044   22.1797 C   0  0  0  0  0  0  0  0  0  0  0  0
  -20.9385  -29.6153   23.0000 C   0  0  0  0  0  0  0  0  0  0  0  0
  -26.8603  -27.6184   19.9047 C   0  0  0  0  0  0  0  0  0  0  0  0
  -29.2661  -26.7707   19.9406 C   0  0  0  0  0  0  0  0  0  0  0  0
  -27.4179  -24.3306   25.6323 C   0  0  0  0  0  0  0  0  0  0  0  0
  -24.4602  -18.6906   21.9819 C   0  0  0  0  0  0  0  0  0  0  0  0
  -27.4498  -23.1478   24.8691 C   0  0  0  0  0  0  0  0  0  0  0  0
  -24.3639  -17.5114   22.7344 C   0  0  0  0  0  0  0  0  0  0  0  0
  -24.8306  -29.4256   20.5349 C   0  0  0  0  0  0  0  0  0  0  0  0
  -25.3451  -16.2687   20.8897 C   0  0  0  0  0  0  0  0  0  0  0  0
  -22.6353  -29.7913   21.2893 C   0  0  0  0  0  0  0  0  0  0  0  0
  -20.2064  -28.7518   22.1850 C   0  0  0  0  0  0  0  0  0  0  0  0
  -22.1529  -30.1350   22.5521 C   0  0  0  0  0  0  0  0  0  0  0  0
  -27.9082  -26.6845   19.5795 C   0  0  0  0  0  0  0  0  0  0  0  0
  -29.6502  -16.8328   21.1515 C   0  0  0  0  0  0  0  0  0  0  0  0
  -29.8388  -25.6485   19.3938 C   0  0  0  0  0  0  0  0  0  0  0  0
  -29.1362  -17.2704   22.3542 C   0  0  0  0  0  0  0  0  0  0  0  0
  -28.8376  -18.7567   20.4822 C   0  0  0  0  0  0  0  0  0  0  0  0
  -29.9488  -27.7755   20.7024 C   0  0  0  0  0  0  0  0  0  0  0  0
  -25.2899  -20.1559   24.6779 C   0  0  0  0  0  0  0  0  0  0  0  0
  -22.4862  -18.9268   25.7509 C   0  0  0  0  0  0  0  0  0  0  0  0
  -20.0677  -16.5375   25.4533 C   0  0  0  0  0  0  0  0  0  0  0  0
  -28.6779  -20.0877   18.3493 C   0  0  0  0  0  0  0  0  0  0  0  0
  -26.9841  -24.3312   27.0767 C   0  0  0  0  0  0  0  0  0  0  0  0
  -23.9608  -19.9943   22.5417 C   0  0  0  0  0  0  0  0  0  0  0  0
  -23.7945  -17.5047   24.1288 C   0  0  0  0  0  0  0  0  0  0  0  0
  -26.1958  -23.0866   27.4765 C   0  0  0  0  0  0  0  0  0  0  0  0
  -28.6078  -22.5274   15.7569 C   0  0  0  0  0  0  0  0  0  0  0  0
  -26.8892  -21.8281   26.9644 C   0  0  0  0  0  0  0  0  0  0  0  0
  -28.5531  -23.8573   16.5121 C   0  0  0  0  0  0  0  0  0  0  0  0
  -27.7963  -21.4415   16.4612 C   0  0  0  0  0  0  0  0  0  0  0  0
  -28.0708  -22.5709   18.6333 C   0  0  0  0  0  0  0  0  0  0  0  0
  -26.9709  -21.8276   25.4331 C   0  0  1  0  0  0  0  0  0  0  0  0
  -23.9245  -20.0150   24.0667 C   0  0  1  0  0  0  0  0  0  0  0  0
  -28.9265  -23.6782   17.9967 C   0  0  2  0  0  0  0  0  0  0  0  0
  -31.6196  -15.3748   21.7751 C   0  0  0  0  0  0  0  0  0  0  0  0
  -17.9189  -15.7689   26.4970 C   0  0  0  0  0  0  0  0  0  0  0  0
  -29.3018  -13.2781   18.9590 C   0  0  0  0  0  0  0  0  0  0  0  0
  -25.1378  -13.2601   21.7778 C   0  0  0  0  0  0  0  0  0  0  0  0
  -24.0506  -17.7151   28.0735 C   0  0  0  0  0  0  0  0  0  0  0  0
  -22.0927  -16.2204   28.5213 C   0  0  0  0  0  0  0  0  0  0  0  0
  -21.8380  -18.6951   28.7046 C   0  0  0  0  0  0  0  0  0  0  0  0
  -18.5577  -16.9772   22.9462 C   0  0  0  0  0  0  0  0  0  0  0  0
  -27.3485  -13.2675   20.5654 C   0  0  0  0  0  0  0  0  0  0  0  0
  -30.3706  -15.5263   20.9104 C   0  0  1  0  0  0  0  0  0  0  0  0
  -22.0697  -17.6389   26.4193 C   0  0  1  0  0  0  0  0  0  0  0  0
  -18.5532  -16.6359   25.4205 C   0  0  2  0  0  0  0  0  0  0  0  0
  -28.5511  -14.0584   20.0309 C   0  0  1  0  0  0  0  0  0  0  0  0
  -26.2908  -14.1213   21.2769 C   0  0  1  0  0  0  0  0  0  1  0  0
  -22.5253  -17.5675   27.9042 C   0  0  0  0  0  0  0  0  0  0  0  0
  -27.6346  -25.5937   18.8588 N   0  0  0  0  0  0  0  0  0  0  0  0
  -29.4796  -17.6835   20.0769 N   0  0  0  0  0  0  0  0  0  0  0  0
  -28.8285  -24.9843   18.7626 N   0  0  0  0  0  0  0  0  0  0  0  0
  -23.3253  -18.8055   24.6342 N   0  0  0  0  0  0  0  0  0  0  0  0
  -28.2076  -21.3255   17.8620 N   0  0  0  0  0  0  0  0  0  0  0  0
  -31.1030  -25.1749   19.3960 N   0  0  0  0  0  0  0  0  0  0  0  0
  -29.1634  -16.6404   23.5537 N   0  0  0  0  0  0  0  0  0  0  0  0
  -29.2094  -28.8618   21.1897 N   0  0  0  0  0  0  0  0  0  0  0  0
  -28.4540  -19.8812   19.7101 N   0  0  0  0  0  0  0  0  0  0  0  0
  -25.6929  -21.4652   24.8589 N   0  0  0  0  0  0  0  0  0  0  0  0
  -20.6272  -17.5292   26.2310 N   0  0  0  0  0  0  0  0  0  0  0  0
  -18.0340  -16.1945   24.0952 N   0  3  0  0  0  0  0  0  0  0  0  0
  -29.5031  -14.3422   21.1410 N   0  3  0  0  0  0  0  0  0  0  0  0
  -31.1811  -27.7202   20.9297 O   0  0  0  0  0  0  0  0  0  0  0  0
  -25.9297  -19.1511   24.9655 O   0  0  0  0  0  0  0  0  0  0  0  0
  -22.0762  -20.0006   26.1987 O   0  0  0  0  0  0  0  0  0  0  0  0
  -20.6917  -15.6657   24.8524 O   0  0  0  0  0  0  0  0  0  0  0  0
  -29.2623  -19.2827   17.6196 O   0  0  0  0  0  0  0  0  0  0  0  0
  -23.8404  -30.3072   20.8429 O   0  0  0  0  0  0  0  0  0  0  0  0
  -25.7784  -15.0908   20.3638 O   0  0  0  0  0  0  0  0  0  1  0  0
  -19.0395  -28.2538   22.6144 F   0  0  0  0  0  0  0  0  0  0  0  0
  -22.8512  -30.9650   23.3391 F   0  0  0  0  0  0  0  0  0  0  0  0
  -28.4091  -18.8093   22.1431 S   0  0  0  0  0  0  0  0  0  0  0  0
  1  2  1  0  0  0  0
  1  5  2  0  0  0  0
  2  6  2  0  0  0  0
  3  8  2  0  0  0  0
  3 15  1  0  0  0  0
  4  9  1  0  0  0  0
  4 15  2  0  0  0  0
  5 17  1  0  0  0  0
  6 19  1  0  0  0  0
  7 10  2  0  0  0  0
  7 18  1  0  0  0  0
  8 21  1  0  0  0  0
  9 21  2  0  0  0  0
 10 22  1  0  0  0  0
 11 12  2  0  0  0  0
 11 23  1  0  0  0  0
 12 24  1  0  0  0  0
 13 20  1  0  0  0  0
 13 22  2  0  0  0  0
 14 24  2  0  0  0  0
 14 25  1  0  0  0  0
 15 26  1  0  0  0  0
 16 26  1  0  0  0  0
 16 28  2  0  0  0  0
 16 31  1  0  0  0  0
 17 19  2  0  0  0  0
 17 36  1  0  0  0  0
 18 20  2  0  0  0  0
 18 37  1  0  0  0  0
 19 45  1  0  0  0  0
 20 38  1  0  0  0  0
 21 81  1  0  0  0  0
 22 82  1  0  0  0  0
 23 25  2  0  0  0  0
 23 81  1  0  0  0  0
 24 83  1  0  0  0  0
 25 84  1  0  0  0  0
 26 63  2  0  0  0  0
 27 29  2  0  0  0  0
 27 57  1  0  0  0  0
 27 64  1  0  0  0  0
 28 65  1  0  0  0  0
 28 68  1  0  0  0  0
 29 69  1  0  0  0  0
 29 85  1  0  0  0  0
 30 64  2  0  0  0  0
 30 71  1  0  0  0  0
 30 85  1  0  0  0  0
 31 70  1  0  0  0  0
 31 76  2  0  0  0  0
 32 46  1  0  0  0  0
 32 72  1  0  0  0  0
 32 77  2  0  0  0  0
 33 58  1  0  0  0  0
 33 66  1  0  0  0  0
 33 78  2  0  0  0  0
 34 59  1  0  0  0  0
 34 73  1  0  0  0  0
 34 79  2  0  0  0  0
 35 67  1  0  0  0  0
 35 71  1  0  0  0  0
 35 80  2  0  0  0  0
 36 39  1  0  0  0  0
 37 46  1  0  0  0  0
 38 66  1  0  0  0  0
 39 41  1  0  0  0  0
 40 42  1  0  0  0  0
 40 43  1  0  0  0  0
 41 45  1  0  0  0  0
 42 47  1  0  0  0  0
 43 67  1  0  0  0  0
 44 47  1  0  0  0  0
 44 67  1  0  0  0  0
 45 72  1  0  0  0  0
 46 66  1  0  0  0  0
 47 65  1  0  0  0  0
 48 57  1  0  0  0  0
 49 59  1  0  0  0  0
 50 60  1  0  0  0  0
 51 61  1  0  0  0  0
 52 62  1  0  0  0  0
 53 62  1  0  0  0  0
 54 62  1  0  0  0  0
 55 74  1  0  0  0  0
 56 60  1  0  0  0  0
 56 61  1  0  0  0  0
 57 75  1  0  0  0  0
 58 62  1  0  0  0  0
 58 73  1  0  0  0  0
 59 74  1  0  0  0  0
 60 75  1  0  0  0  0
 61 82  1  0  0  0  0
 63 65  1  0  0  0  0
M  CHG  2  74   1  75   1
M  ISO  4  35 100  61 101  71 100  82 101
M  END
> <Batch ID>
0193

> <Smiles>
CNC(C)C(=O)NC(C(=O)N1Cc2cc([101O:1][101CH:1](C)CC(C)NC(C)c3nc([100NH:0][100C:0](=O)N4CCCC(n5nc(-c6ccc(Oc7ccc(F)cc7F)cc6)c(C(N)=O)c5N)C4)sc3N)ccc2CC1C(=O)NC1CCCc2ccccc21)C(C)(C)C

> <Shape>
0.214

> <Color>
0.056

> <Negative vol penalty>
0.000

$$$$

  -OEChem-04052305303D

 83 91  0     1  0  0  0  0  0999 V2000
  -18.1860  -32.5370   21.8026 C   0  0  0  0  0  0  0  0  0  0  0  0
  -19.5128  -32.5348   21.3843 C   0  0  0  0  0  0  0  0  0  0  0  0
  -29.1889  -22.4332   16.6190 C   0  0  0  0  0  0  0  0  0  0  0  0
  -26.4299  -13.0356   21.6664 C   0  0  0  0  0  0  0  0  0  0  0  0
  -25.9693  -14.0664   19.5305 C   0  0  0  0  0  0  0  0  0  0  0  0
  -17.7618  -31.6336   22.7762 C   0  0  0  0  0  0  0  0  0  0  0  0
  -20.4164  -31.6299   21.9400 C   0  0  0  0  0  0  0  0  0  0  0  0
  -25.1092  -28.9016   19.1044 C   0  0  0  0  0  0  0  0  0  0  0  0
  -25.1606  -12.4572   21.6610 C   0  0  0  0  0  0  0  0  0  0  0  0
  -24.7000  -13.4880   19.5250 C   0  0  0  0  0  0  0  0  0  0  0  0
  -26.4741  -29.1830   19.0669 C   0  0  0  0  0  0  0  0  0  0  0  0
  -23.6342   -9.8134   20.2074 C   0  0  0  0  0  0  0  0  0  0  0  0
  -23.5326   -8.4694   20.5668 C   0  0  0  0  0  0  0  0  0  0  0  0
  -29.1320  -21.4373   17.5876 C   0  0  0  0  0  0  0  0  0  0  0  0
  -29.7605  -23.6628   16.9268 C   0  0  0  0  0  0  0  0  0  0  0  0
  -26.8466  -27.5820   20.8324 C   0  0  0  0  0  0  0  0  0  0  0  0
  -22.0746   -9.0692   22.3975 C   0  0  0  0  0  0  0  0  0  0  0  0
  -26.8342  -13.8402   20.6012 C   0  0  0  0  0  0  0  0  0  0  0  0
  -29.3320  -13.8896   20.0854 C   0  0  0  0  0  0  0  0  0  0  0  0
  -18.6584  -30.7106   23.3372 C   0  0  0  0  0  0  0  0  0  0  0  0
  -24.6004  -27.9647   20.0153 C   0  0  0  0  0  0  0  0  0  0  0  0
  -20.0041  -30.7141   22.9230 C   0  0  0  0  0  0  0  0  0  0  0  0
  -25.4751  -27.2886   20.8778 C   0  0  0  0  0  0  0  0  0  0  0  0
  -24.2957  -12.6834   20.5903 C   0  0  0  0  0  0  0  0  0  0  0  0
  -27.3427  -28.5253   19.9329 C   0  0  0  0  0  0  0  0  0  0  0  0
  -22.9560  -10.7852   20.9431 C   0  0  0  0  0  0  0  0  0  0  0  0
  -22.7529   -8.0973   21.6618 C   0  0  0  0  0  0  0  0  0  0  0  0
  -22.1762  -10.4131   22.0382 C   0  0  0  0  0  0  0  0  0  0  0  0
  -28.1450  -14.4384   20.6065 C   0  0  0  0  0  0  0  0  0  0  0  0
  -29.6564  -21.7189   18.8389 C   0  0  0  0  0  0  0  0  0  0  0  0
  -30.2566  -23.8448   18.2077 C   0  0  0  0  0  0  0  0  0  0  0  0
  -30.2898  -14.8412   20.3372 C   0  0  0  0  0  0  0  0  0  0  0  0
  -29.5494  -12.6320   19.4321 C   0  0  0  0  0  0  0  0  0  0  0  0
  -22.5496  -28.0795   22.4412 C   0  0  0  0  0  0  0  0  0  0  0  0
  -22.9606  -24.8619   22.4322 C   0  0  0  0  0  0  0  0  0  0  0  0
  -24.9297  -22.1949   21.6220 C   0  0  0  0  0  0  0  0  0  0  0  0
  -30.0547  -20.7587   21.1336 C   0  0  0  0  0  0  0  0  0  0  0  0
  -18.1644  -29.7851   24.4207 C   0  0  0  0  0  0  0  0  0  0  0  0
  -23.1289  -27.6529   20.0249 C   0  0  0  0  0  0  0  0  0  0  0  0
  -24.9819  -26.2593   21.8605 C   0  0  0  0  0  0  0  0  0  0  0  0
  -19.0986  -28.6080   24.6891 C   0  0  0  0  0  0  0  0  0  0  0  0
  -31.3616  -18.3538   23.4109 C   0  0  0  0  0  0  0  0  0  0  0  0
  -20.5431  -29.0865   24.7954 C   0  0  0  0  0  0  0  0  0  0  0  0
  -30.7980  -17.0262   22.8992 C   0  0  0  0  0  0  0  0  0  0  0  0
  -30.3584  -19.4949   23.2515 C   0  0  0  0  0  0  0  0  0  0  0  0
  -29.2487  -18.3293   21.3863 C   0  0  0  0  0  0  0  0  0  0  0  0
  -21.0086  -29.7312   23.4842 C   0  0  1  0  0  0  0  0  0  0  0  0
  -22.6532  -27.0562   21.3459 C   0  0  1  0  0  0  0  0  0  0  0  0
  -30.2470  -17.1628   21.4662 C   0  0  2  0  0  0  0  0  0  0  0  0
  -25.0157  -19.6915   21.7740 C   0  0  0  0  0  0  0  0  0  0  0  0
  -23.6573  -25.0682   25.3956 C   0  0  0  0  0  0  0  0  0  0  0  0
  -24.6334  -22.7670   25.2549 C   0  0  0  0  0  0  0  0  0  0  0  0
  -22.2067  -23.1206   24.7982 C   0  0  0  0  0  0  0  0  0  0  0  0
  -25.0238  -21.9034   18.6783 C   0  0  0  0  0  0  0  0  0  0  0  0
  -30.8793  -27.9371   19.5176 C   0  0  0  0  0  0  0  0  0  0  0  0
  -31.3816  -25.4140   19.7880 C   0  0  0  0  0  0  0  0  0  0  0  0
  -29.5645  -27.7416   20.2578 C   0  0  0  0  0  0  0  0  0  1  0  0
  -23.9135  -23.9039   23.1055 C   0  0  1  0  0  0  0  0  0  0  0  0
  -24.6138  -20.8854   20.9220 C   0  0  2  0  0  0  0  0  0  0  0  0
  -31.9175  -26.8465   19.8018 C   0  0  1  0  0  0  0  0  0  0  0  0
  -23.6121  -23.7357   24.6215 C   0  0  0  0  0  0  0  0  0  0  0  0
  -28.3294  -15.6452   21.1486 N   0  0  0  0  0  0  0  0  0  0  0  0
  -30.2192  -22.9011   19.1750 N   0  0  0  0  0  0  0  0  0  0  0  0
  -29.6435  -15.8624   20.9695 N   0  0  0  0  0  0  0  0  0  0  0  0
  -23.5340  -25.9939   21.8360 N   0  0  0  0  0  0  0  0  0  0  0  0
  -29.8832  -19.5662   21.8681 N   0  0  0  0  0  0  0  0  0  0  0  0
  -31.6134  -14.8958   20.0774 N   0  0  0  0  0  0  0  0  0  0  0  0
  -28.4559  -11.7735   19.2544 N   0  0  0  0  0  0  0  0  0  0  0  0
  -29.5933  -20.6976   19.8190 N   0  0  0  0  0  0  0  0  0  0  0  0
  -30.8229  -25.0746   18.4993 N   0  0  0  0  0  0  0  0  0  0  0  0
  -21.3235  -28.7137   22.5045 N   0  0  0  0  0  0  0  0  0  0  0  0
  -23.8508  -22.6620   22.3424 N   0  0  0  0  0  0  0  0  0  0  0  0
  -25.3418  -20.8030   19.6242 N   0  3  0  0  0  0  0  0  0  0  0  0
  -30.6831  -12.2728   19.0328 O   0  0  0  0  0  0  0  0  0  0  0  0
  -23.5104  -28.2780   23.1755 O   0  0  0  0  0  0  0  0  0  0  0  0
  -21.7528  -24.6112   22.4291 O   0  0  0  0  0  0  0  0  0  0  0  0
  -26.0252  -22.7461   21.5409 O   0  0  0  0  0  0  0  0  0  0  0  0
  -30.5975  -21.7514   21.6254 O   0  0  0  0  0  0  0  0  0  0  0  0
  -32.9668  -26.9407   18.8365 O   0  0  0  0  0  0  0  0  0  0  0  0
  -23.0571  -12.1190   20.5846 O   0  0  0  0  0  0  0  0  0  0  0  0
  -28.6754  -28.7985   19.8988 O   0  0  0  0  0  0  0  0  0  1  0  0
  -22.6542   -6.8066   22.0059 F   0  0  0  0  0  0  0  0  0  0  0  0
  -21.5214  -11.3422   22.7481 F   0  0  0  0  0  0  0  0  0  0  0  0
  1  2  1  0  0  0  0
  1  6  2  0  0  0  0
  2  7  2  0  0  0  0
  3 14  1  0  0  0  0
  3 15  2  0  0  0  0
  4  9  2  0  0  0  0
  4 18  1  0  0  0  0
  5 10  1  0  0  0  0
  5 18  2  0  0  0  0
  6 20  1  0  0  0  0
  7 22  1  0  0  0  0
  8 11  2  0  0  0  0
  8 21  1  0  0  0  0
  9 24  1  0  0  0  0
 10 24  2  0  0  0  0
 11 25  1  0  0  0  0
 12 13  2  0  0  0  0
 12 26  1  0  0  0  0
 13 27  1  0  0  0  0
 14 30  2  0  0  0  0
 15 31  1  0  0  0  0
 16 23  1  0  0  0  0
 16 25  2  0  0  0  0
 17 27  2  0  0  0  0
 17 28  1  0  0  0  0
 18 29  1  0  0  0  0
 19 29  1  0  0  0  0
 19 32  2  0  0  0  0
 19 33  1  0  0  0  0
 20 22  2  0  0  0  0
 20 38  1  0  0  0  0
 21 23  2  0  0  0  0
 21 39  1  0  0  0  0
 22 47  1  0  0  0  0
 23 40  1  0  0  0  0
 24 80  1  0  0  0  0
 25 81  1  0  0  0  0
 26 28  2  0  0  0  0
 26 80  1  0  0  0  0
 27 82  1  0  0  0  0
 28 83  1  0  0  0  0
 29 62  2  0  0  0  0
 30 63  1  0  0  0  0
 30 69  1  0  0  0  0
 31 63  2  0  0  0  0
 31 70  1  0  0  0  0
 32 64  1  0  0  0  0
 32 67  1  0  0  0  0
 33 68  1  0  0  0  0
 33 74  2  0  0  0  0
 34 48  1  0  0  0  0
 34 71  1  0  0  0  0
 34 75  2  0  0  0  0
 35 58  1  0  0  0  0
 35 65  1  0  0  0  0
 35 76  2  0  0  0  0
 36 59  1  0  0  0  0
 36 72  1  0  0  0  0
 36 77  2  0  0  0  0
 37 66  1  0  0  0  0
 37 69  1  0  0  0  0
 37 78  2  0  0  0  0
 38 41  1  0  0  0  0
 39 48  1  0  0  0  0
 40 65  1  0  0  0  0
 41 43  1  0  0  0  0
 42 44  1  0  0  0  0
 42 45  1  0  0  0  0
 43 47  1  0  0  0  0
 44 49  1  0  0  0  0
 45 66  1  0  0  0  0
 46 49  1  0  0  0  0
 46 66  1  0  0  0  0
 47 71  1  0  0  0  0
 48 65  1  0  0  0  0
 49 64  1  0  0  0  0
 50 59  1  0  0  0  0
 51 61  1  0  0  0  0
 52 61  1  0  0  0  0
 53 61  1  0  0  0  0
 54 73  1  0  0  0  0
 55 57  1  0  0  0  0
 55 60  1  0  0  0  0
 56 60  1  0  0  0  0
 56 70  1  0  0  0  0
 57 81  1  0  0  0  0
 58 61  1  0  0  0  0
 58 72  1  0  0  0  0
 59 73  1  0  0  0  0
 60 79  1  0  0  0  0
 62 64  1  0  0  0  0
M  CHG  1  73   1
M  ISO  4  37 100  57 101  69 100  81 101
M  END
> <Batch ID>
0193

> <Smiles>
CNC(C)C(=O)NC(C(=O)N1Cc2cc([101O:1][101CH2:1]CC(O)CNc3cccc([100NH:0][100C:0](=O)N4CCCC(n5nc(-c6ccc(Oc7ccc(F)cc7F)cc6)c(C(N)=O)c5N)C4)n3)ccc2CC1C(=O)NC1CCCc2ccccc21)C(C)(C)C

> <Shape>
0.282

> <Color>
0.094

> <Negative vol penalty>
0.000

$$$$

  -OEChem-04052305303D

 86 94  0     1  0  0  0  0  0999 V2000
  -26.2890  -23.1480   15.5449 C   0  0  0  0  0  0  0  0  0  0  0  0
  -25.1173  -23.5049   16.2046 C   0  0  0  0  0  0  0  0  0  0  0  0
  -26.3077  -13.3680   19.6255 C   0  0  0  0  0  0  0  0  0  0  0  0
  -24.5360  -13.6789   21.2384 C   0  0  0  0  0  0  0  0  0  0  0  0
  -27.5086  -23.1926   16.2192 C   0  0  0  0  0  0  0  0  0  0  0  0
  -25.1644  -23.9057   17.5394 C   0  0  0  0  0  0  0  0  0  0  0  0
  -21.6398  -28.1209   20.2440 C   0  0  0  0  0  0  0  0  0  0  0  0
  -26.3042  -11.9977   19.8858 C   0  0  0  0  0  0  0  0  0  0  0  0
  -24.5325  -12.3085   21.4987 C   0  0  0  0  0  0  0  0  0  0  0  0
  -20.4944  -28.0200   21.0324 C   0  0  0  0  0  0  0  0  0  0  0  0
  -23.3289   -9.5027   20.0497 C   0  0  0  0  0  0  0  0  0  0  0  0
  -22.0923   -8.8617   20.1230 C   0  0  0  0  0  0  0  0  0  0  0  0
  -21.8574  -28.1485   23.0186 C   0  0  0  0  0  0  0  0  0  0  0  0
  -22.5691   -8.2017   22.3977 C   0  0  0  0  0  0  0  0  0  0  0  0
  -22.8339  -22.4006   23.8080 C   0  0  0  0  0  0  0  0  0  0  0  0
  -23.5829  -24.3139   24.6049 C   0  0  0  0  0  0  0  0  0  0  0  0
  -25.4236  -14.2087   20.3019 C   0  0  0  0  0  0  0  0  0  0  0  0
  -24.6664  -16.3084   19.0667 C   0  0  0  0  0  0  0  0  0  0  0  0
  -27.5718  -23.6034   17.5601 C   0  0  0  0  0  0  0  0  0  0  0  0
  -22.9058  -28.2255   20.8380 C   0  0  0  0  0  0  0  0  0  0  0  0
  -26.3858  -23.9546   18.2326 C   0  0  0  0  0  0  0  0  0  0  0  0
  -23.0171  -28.2532   22.2355 C   0  0  0  0  0  0  0  0  0  0  0  0
  -25.4166  -11.4679   20.8224 C   0  0  0  0  0  0  0  0  0  0  0  0
  -20.6033  -28.0309   22.4199 C   0  0  0  0  0  0  0  0  0  0  0  0
  -24.1857   -9.4932   21.1504 C   0  0  0  0  0  0  0  0  0  0  0  0
  -21.7124   -8.2112   21.2969 C   0  0  0  0  0  0  0  0  0  0  0  0
  -23.8058   -8.8427   22.3244 C   0  0  0  0  0  0  0  0  0  0  0  0
  -25.4271  -15.6244   20.0339 C   0  0  0  0  0  0  0  0  0  0  0  0
  -24.2079  -22.4489   23.7916 C   0  0  0  0  0  0  0  0  0  0  0  0
  -25.0292  -17.6250   19.2128 C   0  0  0  0  0  0  0  0  0  0  0  0
  -23.7167  -15.7991   18.1210 C   0  0  0  0  0  0  0  0  0  0  0  0
  -25.5450  -26.4541   20.8207 C   0  0  0  0  0  0  0  0  0  0  0  0
  -26.7684  -28.9573   22.4819 C   0  0  0  0  0  0  0  0  0  0  0  0
  -26.1997  -31.6526   24.4966 C   0  0  0  0  0  0  0  0  0  0  0  0
  -26.4655  -21.4447   23.3002 C   0  0  0  0  0  0  0  0  0  0  0  0
  -28.9072  -23.5903   18.2610 C   0  0  0  0  0  0  0  0  0  0  0  0
  -24.1292  -28.3604   19.9736 C   0  0  0  0  0  0  0  0  0  0  0  0
  -24.3512  -28.3840   22.9223 C   0  0  0  0  0  0  0  0  0  0  0  0
  -28.9188  -24.3852   19.5643 C   0  0  0  0  0  0  0  0  0  0  0  0
  -28.9166  -19.9710   21.1795 C   0  0  0  0  0  0  0  0  0  0  0  0
  -27.6932  -24.0466   20.4070 C   0  0  0  0  0  0  0  0  0  0  0  0
  -28.1937  -18.7664   20.5724 C   0  0  0  0  0  0  0  0  0  0  0  0
  -28.5114  -20.2015   22.6343 C   0  0  0  0  0  0  0  0  0  0  0  0
  -26.3421  -19.0953   22.2607 C   0  0  0  0  0  0  0  0  0  0  0  0
  -26.3992  -24.4184   19.6730 C   0  0  1  0  0  0  0  0  0  0  0  0
  -25.4128  -27.9447   20.6857 C   0  0  1  0  0  0  0  0  0  0  0  0
  -26.6691  -18.8625   20.7766 C   0  0  2  0  0  0  0  0  0  0  0  0
  -17.8775  -22.8686   22.4662 C   0  0  0  0  0  0  0  0  0  0  0  0
  -27.4003  -33.4831   25.7235 C   0  0  0  0  0  0  0  0  0  0  0  0
  -17.8662  -28.7875   25.5072 C   0  0  0  0  0  0  0  0  0  0  0  0
  -19.6132  -27.8038   26.9946 C   0  0  0  0  0  0  0  0  0  0  0  0
  -27.6310  -26.9566   24.6180 C   0  0  0  0  0  0  0  0  0  0  0  0
  -27.9430  -28.8780   26.1925 C   0  0  0  0  0  0  0  0  0  0  0  0
  -29.3150  -28.7355   24.1141 C   0  0  0  0  0  0  0  0  0  0  0  0
  -24.8117  -33.7589   22.9487 C   0  0  0  0  0  0  0  0  0  0  0  0
  -17.8825  -23.8978   23.5875 C   0  0  0  0  0  0  0  0  0  0  0  0
  -20.3689  -24.5105   23.2543 C   0  0  0  0  0  0  0  0  0  0  0  0
  -18.7407  -26.0580   24.5496 C   0  0  0  0  0  0  0  0  0  0  0  0
  -21.0295  -24.0620   24.5622 C   0  0  0  0  0  0  0  0  0  0  0  0
  -26.8629  -29.3272   23.9425 C   0  0  1  0  0  0  0  0  0  0  0  0
  -26.7043  -33.0829   24.4319 C   0  0  2  0  0  0  0  0  0  0  0  0
  -19.3288  -28.3330   25.5855 C   0  0  0  0  0  0  0  0  0  0  0  0
  -18.9212  -25.0288   23.4030 C   0  0  2  0  0  0  0  0  0  0  0  0
  -19.6358  -27.3067   24.4682 C   0  0  2  0  0  0  0  0  0  1  0  0
  -27.9129  -28.4699   24.7042 C   0  0  0  0  0  0  0  0  0  0  0  0
  -24.6679  -23.6423   24.2892 N   0  0  0  0  0  0  0  0  0  0  0  0
  -26.2138  -16.4391   20.7418 N   0  0  0  0  0  0  0  0  0  0  0  0
  -22.4479  -23.6021   24.3320 N   0  0  0  0  0  0  0  0  0  0  0  0
  -25.9496  -17.6486   20.2190 N   0  0  0  0  0  0  0  0  0  0  0  0
  -25.5186  -28.5067   22.0337 N   0  0  0  0  0  0  0  0  0  0  0  0
  -27.0540  -20.2863   22.7502 N   0  0  0  0  0  0  0  0  0  0  0  0
  -24.6476  -18.7532   18.5772 N   0  0  0  0  0  0  0  0  0  0  0  0
  -23.4621  -14.4210   18.1058 N   0  0  0  0  0  0  0  0  0  0  0  0
  -25.0714  -21.4249   23.3293 N   0  0  0  0  0  0  0  0  0  0  0  0
  -26.1677  -25.8451   19.7480 N   0  0  0  0  0  0  0  0  0  0  0  0
  -27.1199  -30.7627   23.9842 N   0  0  0  0  0  0  0  0  0  0  0  0
  -25.5710  -34.0219   24.1982 N   0  3  0  0  0  0  0  0  0  0  0  0
  -23.1240  -16.5420   17.3023 O   0  0  0  0  0  0  0  0  0  0  0  0
  -25.1153  -25.8979   21.8245 O   0  0  0  0  0  0  0  0  0  0  0  0
  -27.7647  -29.0711   21.7636 O   0  0  0  0  0  0  0  0  0  0  0  0
  -25.1008  -31.3542   24.9591 O   0  0  0  0  0  0  0  0  0  0  0  0
  -27.1470  -22.3964   23.6898 O   0  0  0  0  0  0  0  0  0  0  0  0
  -25.4128  -10.1308   21.0764 O   0  0  0  0  0  0  0  0  0  0  0  0
  -19.4804  -27.9314   23.1963 O   0  0  0  0  0  0  0  0  0  1  0  0
  -20.5241   -7.5970   21.3676 F   0  0  0  0  0  0  0  0  0  0  0  0
  -24.6242   -8.8312   23.3855 F   0  0  0  0  0  0  0  0  0  0  0  0
  1  2  1  0  0  0  0
  1  5  2  0  0  0  0
  2  6  2  0  0  0  0
  3  8  2  0  0  0  0
  3 17  1  0  0  0  0
  4  9  1  0  0  0  0
  4 17  2  0  0  0  0
  5 19  1  0  0  0  0
  6 21  1  0  0  0  0
  7 10  2  0  0  0  0
  7 20  1  0  0  0  0
  8 23  1  0  0  0  0
  9 23  2  0  0  0  0
 10 24  1  0  0  0  0
 11 12  2  0  0  0  0
 11 25  1  0  0  0  0
 12 26  1  0  0  0  0
 13 22  1  0  0  0  0
 13 24  2  0  0  0  0
 14 26  2  0  0  0  0
 14 27  1  0  0  0  0
 15 29  2  0  0  0  0
 15 68  1  0  0  0  0
 16 66  2  0  0  0  0
 16 68  1  0  0  0  0
 17 28  1  0  0  0  0
 18 28  1  0  0  0  0
 18 30  2  0  0  0  0
 18 31  1  0  0  0  0
 19 21  2  0  0  0  0
 19 36  1  0  0  0  0
 20 22  2  0  0  0  0
 20 37  1  0  0  0  0
 21 45  1  0  0  0  0
 22 38  1  0  0  0  0
 23 83  1  0  0  0  0
 24 84  1  0  0  0  0
 25 27  2  0  0  0  0
 25 83  1  0  0  0  0
 26 85  1  0  0  0  0
 27 86  1  0  0  0  0
 28 67  2  0  0  0  0
 29 66  1  0  0  0  0
 29 74  1  0  0  0  0
 30 69  1  0  0  0  0
 30 72  1  0  0  0  0
 31 73  1  0  0  0  0
 31 78  2  0  0  0  0
 32 46  1  0  0  0  0
 32 75  1  0  0  0  0
 32 79  2  0  0  0  0
 33 60  1  0  0  0  0
 33 70  1  0  0  0  0
 33 80  2  0  0  0  0
 34 61  1  0  0  0  0
 34 76  1  0  0  0  0
 34 81  2  0  0  0  0
 35 71  1  0  0  0  0
 35 74  1  0  0  0  0
 35 82  2  0  0  0  0
 36 39  1  0  0  0  0
 37 46  1  0  0  0  0
 38 70  1  0  0  0  0
 39 41  1  0  0  0  0
 40 42  1  0  0  0  0
 40 43  1  0  0  0  0
 41 45  1  0  0  0  0
 42 47  1  0  0  0  0
 43 71  1  0  0  0  0
 44 47  1  0  0  0  0
 44 71  1  0  0  0  0
 45 75  1  0  0  0  0
 46 70  1  0  0  0  0
 47 69  1  0  0  0  0
 48 56  1  0  0  0  0
 49 61  1  0  0  0  0
 50 62  1  0  0  0  0
 51 62  1  0  0  0  0
 52 65  1  0  0  0  0
 53 65  1  0  0  0  0
 54 65  1  0  0  0  0
 55 77  1  0  0  0  0
 56 63  1  0  0  0  0
 57 59  1  0  0  0  0
 57 63  1  0  0  0  0
 58 63  1  0  0  0  0
 58 64  1  0  0  0  0
 59 68  1  0  0  0  0
 60 65  1  0  0  0  0
 60 76  1  0  0  0  0
 61 77  1  0  0  0  0
 62 64  1  0  0  0  0
 64 84  1  0  0  0  0
 67 69  1  0  0  0  0
M  CHG  1  77   1
M  ISO  4  35 100  64 101  74 100  84 101
M  END
> <Batch ID>
0193

> <Smiles>
CCC(CCn1cnc([100NH:0][100C:0](=O)N2CCCC(n3nc(-c4ccc(Oc5ccc(F)cc5F)cc4)c(C(N)=O)c3N)C2)c1)C[101CH:1](C(C)C)[101O:1]c1ccc2c(c1)CN(C(=O)C(NC(=O)C(C)NC)C(C)(C)C)C(C(=O)NC1CCCc3ccccc31)C2

> <Shape>
0.225

> <Color>
0.052

> <Negative vol penalty>
0.000

$$$$

  -OEChem-04052305303D

 84 92  0     1  0  0  0  0  0999 V2000
  -18.6373  -33.5498   20.5991 C   0  0  0  0  0  0  0  0  0  0  0  0
  -19.9452  -33.2641   20.2206 C   0  0  0  0  0  0  0  0  0  0  0  0
  -32.2932  -22.2664   23.0398 C   0  0  0  0  0  0  0  0  0  0  0  0
  -24.4572  -13.4550   20.8462 C   0  0  0  0  0  0  0  0  0  0  0  0
  -26.7800  -12.9589   20.4043 C   0  0  0  0  0  0  0  0  0  0  0  0
  -18.1289  -33.0332   21.7901 C   0  0  0  0  0  0  0  0  0  0  0  0
  -20.7459  -32.4626   21.0336 C   0  0  0  0  0  0  0  0  0  0  0  0
  -25.0181  -28.4729   19.2072 C   0  0  0  0  0  0  0  0  0  0  0  0
  -24.1091  -12.1565   20.4744 C   0  0  0  0  0  0  0  0  0  0  0  0
  -26.4319  -11.6603   20.0324 C   0  0  0  0  0  0  0  0  0  0  0  0
  -26.4058  -28.5641   19.1089 C   0  0  0  0  0  0  0  0  0  0  0  0
  -22.6509   -8.8625   19.9864 C   0  0  0  0  0  0  0  0  0  0  0  0
  -21.7492   -8.1750   20.7988 C   0  0  0  0  0  0  0  0  0  0  0  0
  -31.4052  -21.3985   22.4141 C   0  0  0  0  0  0  0  0  0  0  0  0
  -32.4925  -23.5411   22.5214 C   0  0  0  0  0  0  0  0  0  0  0  0
  -26.6216  -27.5253   21.2753 C   0  0  0  0  0  0  0  0  0  0  0  0
  -23.2722   -8.3803   22.6630 C   0  0  0  0  0  0  0  0  0  0  0  0
  -25.7927  -13.8562   20.8111 C   0  0  0  0  0  0  0  0  0  0  0  0
  -26.4949  -15.6507   22.4828 C   0  0  0  0  0  0  0  0  0  0  0  0
  -18.9206  -32.2170   22.6134 C   0  0  0  0  0  0  0  0  0  0  0  0
  -24.4204  -27.9162   20.3471 C   0  0  0  0  0  0  0  0  0  0  0  0
  -20.2480  -31.9357   22.2374 C   0  0  0  0  0  0  0  0  0  0  0  0
  -25.2262  -27.4259   21.3846 C   0  0  0  0  0  0  0  0  0  0  0  0
  -25.0964  -11.2592   20.0675 C   0  0  0  0  0  0  0  0  0  0  0  0
  -27.2078  -28.0929   20.1443 C   0  0  0  0  0  0  0  0  0  0  0  0
  -23.8633   -9.3088   20.5124 C   0  0  0  0  0  0  0  0  0  0  0  0
  -22.0598   -7.9339   22.1371 C   0  0  0  0  0  0  0  0  0  0  0  0
  -24.1739   -9.0678   21.8507 C   0  0  0  0  0  0  0  0  0  0  0  0
  -26.1529  -15.1976   21.1946 C   0  0  0  0  0  0  0  0  0  0  0  0
  -30.7465  -21.8498   21.2818 C   0  0  0  0  0  0  0  0  0  0  0  0
  -31.7853  -23.8964   21.3842 C   0  0  0  0  0  0  0  0  0  0  0  0
  -26.7508  -16.9901   22.3190 C   0  0  0  0  0  0  0  0  0  0  0  0
  -26.5744  -14.9255   23.7171 C   0  0  0  0  0  0  0  0  0  0  0  0
  -22.4498  -28.9904   22.5979 C   0  0  0  0  0  0  0  0  0  0  0  0
  -22.4732  -25.8896   23.5500 C   0  0  0  0  0  0  0  0  0  0  0  0
  -24.0920  -22.8856   23.5976 C   0  0  0  0  0  0  0  0  0  0  0  0
  -29.0787  -21.1967   19.5103 C   0  0  0  0  0  0  0  0  0  0  0  0
  -18.3425  -31.7205   23.9149 C   0  0  0  0  0  0  0  0  0  0  0  0
  -22.9228  -27.8007   20.4261 C   0  0  0  0  0  0  0  0  0  0  0  0
  -24.6344  -26.8010   22.6206 C   0  0  0  0  0  0  0  0  0  0  0  0
  -19.1349  -30.5723   24.5346 C   0  0  0  0  0  0  0  0  0  0  0  0
  -25.9066  -20.0465   18.3734 C   0  0  0  0  0  0  0  0  0  0  0  0
  -20.6281  -30.8833   24.5164 C   0  0  0  0  0  0  0  0  0  0  0  0
  -25.7161  -18.7198   19.1120 C   0  0  0  0  0  0  0  0  0  0  0  0
  -27.3637  -20.2673   17.9708 C   0  0  0  0  0  0  0  0  0  0  0  0
  -28.1449  -18.8181   19.8035 C   0  0  0  0  0  0  0  0  0  0  0  0
  -21.1395  -31.0499   23.0803 C   0  0  1  0  0  0  0  0  0  0  0  0
  -22.4073  -27.6839   21.8572 C   0  0  1  0  0  0  0  0  0  0  0  0
  -26.7046  -18.5815   20.2864 C   0  0  2  0  0  0  0  0  0  0  0  0
  -24.4534  -20.4420   24.0400 C   0  0  0  0  0  0  0  0  0  0  0  0
  -32.0028  -25.0948   18.4617 C   0  0  0  0  0  0  0  0  0  0  0  0
  -23.2521  -26.8791   26.3292 C   0  0  0  0  0  0  0  0  0  0  0  0
  -23.9431  -24.5396   26.8924 C   0  0  0  0  0  0  0  0  0  0  0  0
  -21.5668  -25.0314   26.3141 C   0  0  0  0  0  0  0  0  0  0  0  0
  -22.8650  -22.1181   21.0161 C   0  0  0  0  0  0  0  0  0  0  0  0
  -31.3971  -27.2118   19.6839 C   0  0  0  0  0  0  0  0  0  0  0  0
  -29.3232  -27.6789   21.1489 C   0  0  0  0  0  0  0  0  0  1  0  0
  -23.3188  -25.0667   24.4917 C   0  0  1  0  0  0  0  0  0  0  0  0
  -23.6073  -21.4755   23.3128 C   0  0  2  0  0  0  0  0  0  0  0  0
  -31.3300  -25.6804   19.7002 C   0  0  2  0  0  0  0  0  0  0  0  0
  -30.8141  -27.8934   20.9249 C   0  0  2  0  0  0  0  0  0  0  0  0
  -23.0316  -25.3927   25.9846 C   0  0  0  0  0  0  0  0  0  0  0  0
  -26.1871  -16.1704   20.2799 N   0  0  0  0  0  0  0  0  0  0  0  0
  -30.9142  -23.0808   20.7488 N   0  0  0  0  0  0  0  0  0  0  0  0
  -26.5537  -17.2480   20.9943 N   0  0  0  0  0  0  0  0  0  0  0  0
  -23.1649  -26.7166   22.6537 N   0  0  0  0  0  0  0  0  0  0  0  0
  -28.2412  -20.1251   19.1347 N   0  0  0  0  0  0  0  0  0  0  0  0
  -27.1227  -17.9608   23.1804 N   0  0  0  0  0  0  0  0  0  0  0  0
  -26.2792  -13.5554   23.7073 N   0  0  0  0  0  0  0  0  0  0  0  0
  -29.8438  -20.9579   20.6514 N   0  0  0  0  0  0  0  0  0  0  0  0
  -31.9941  -25.1678   20.8801 N   0  0  0  0  0  0  0  0  0  0  0  0
  -21.3099  -29.7576   22.4515 N   0  0  0  0  0  0  0  0  0  0  0  0
  -23.0922  -23.6715   24.1304 N   0  0  0  0  0  0  0  0  0  0  0  0
  -23.6713  -21.1911   21.8513 N   0  3  0  0  0  0  0  0  0  0  0  0
  -26.8818  -15.4796   24.7997 O   0  0  0  0  0  0  0  0  0  0  0  0
  -23.4427  -29.2804   23.2550 O   0  0  0  0  0  0  0  0  0  0  0  0
  -21.2443  -25.7965   23.6028 O   0  0  0  0  0  0  0  0  0  0  0  0
  -25.2436  -23.2521   23.3735 O   0  0  0  0  0  0  0  0  0  0  0  0
  -29.0944  -22.2588   18.8829 O   0  0  0  0  0  0  0  0  0  0  0  0
  -24.7571   -9.9919   19.7048 O   0  0  0  0  0  0  0  0  0  0  0  0
  -28.5625  -28.1813   20.0511 O   0  0  0  0  0  0  0  0  0  1  0  0
  -21.1932   -7.2750   22.9174 F   0  0  0  0  0  0  0  0  0  0  0  0
  -25.3366   -9.4952   22.3619 F   0  0  0  0  0  0  0  0  0  0  0  0
  -31.0179  -29.2381   20.7812 F   0  0  0  0  0  0  0  0  0  0  0  0
  1  2  1  0  0  0  0
  1  6  2  0  0  0  0
  2  7  2  0  0  0  0
  3 14  1  0  0  0  0
  3 15  2  0  0  0  0
  4  9  2  0  0  0  0
  4 18  1  0  0  0  0
  5 10  1  0  0  0  0
  5 18  2  0  0  0  0
  6 20  1  0  0  0  0
  7 22  1  0  0  0  0
  8 11  2  0  0  0  0
  8 21  1  0  0  0  0
  9 24  1  0  0  0  0
 10 24  2  0  0  0  0
 11 25  1  0  0  0  0
 12 13  2  0  0  0  0
 12 26  1  0  0  0  0
 13 27  1  0  0  0  0
 14 30  2  0  0  0  0
 15 31  1  0  0  0  0
 16 23  1  0  0  0  0
 16 25  2  0  0  0  0
 17 27  2  0  0  0  0
 17 28  1  0  0  0  0
 18 29  1  0  0  0  0
 19 29  1  0  0  0  0
 19 32  2  0  0  0  0
 19 33  1  0  0  0  0
 20 22  2  0  0  0  0
 20 38  1  0  0  0  0
 21 23  2  0  0  0  0
 21 39  1  0  0  0  0
 22 47  1  0  0  0  0
 23 40  1  0  0  0  0
 24 80  1  0  0  0  0
 25 81  1  0  0  0  0
 26 28  2  0  0  0  0
 26 80  1  0  0  0  0
 27 82  1  0  0  0  0
 28 83  1  0  0  0  0
 29 63  2  0  0  0  0
 30 64  1  0  0  0  0
 30 70  1  0  0  0  0
 31 64  2  0  0  0  0
 31 71  1  0  0  0  0
 32 65  1  0  0  0  0
 32 68  1  0  0  0  0
 33 69  1  0  0  0  0
 33 75  2  0  0  0  0
 34 48  1  0  0  0  0
 34 72  1  0  0  0  0
 34 76  2  0  0  0  0
 35 58  1  0  0  0  0
 35 66  1  0  0  0  0
 35 77  2  0  0  0  0
 36 59  1  0  0  0  0
 36 73  1  0  0  0  0
 36 78  2  0  0  0  0
 37 67  1  0  0  0  0
 37 70  1  0  0  0  0
 37 79  2  0  0  0  0
 38 41  1  0  0  0  0
 39 48  1  0  0  0  0
 40 66  1  0  0  0  0
 41 43  1  0  0  0  0
 42 44  1  0  0  0  0
 42 45  1  0  0  0  0
 43 47  1  0  0  0  0
 44 49  1  0  0  0  0
 45 67  1  0  0  0  0
 46 49  1  0  0  0  0
 46 67  1  0  0  0  0
 47 72  1  0  0  0  0
 48 66  1  0  0  0  0
 49 65  1  0  0  0  0
 50 59  1  0  0  0  0
 51 60  1  0  0  0  0
 52 62  1  0  0  0  0
 53 62  1  0  0  0  0
 54 62  1  0  0  0  0
 55 74  1  0  0  0  0
 56 60  1  0  0  0  0
 56 61  1  0  0  0  0
 57 61  1  0  0  0  0
 57 81  1  0  0  0  0
 58 62  1  0  0  0  0
 58 73  1  0  0  0  0
 59 74  1  0  0  0  0
 60 71  1  0  0  0  0
 61 84  1  0  0  0  0
 63 65  1  0  0  0  0
M  CHG  1  74   1
M  ISO  4  37 100  57 101  70 100  81 101
M  END
> <Batch ID>
0193

> <Smiles>
CNC(C)C(=O)NC(C(=O)N1Cc2cc([101O:1][101CH2:1]C(F)CC(C)Nc3cccc([100NH:0][100C:0](=O)N4CCCC(n5nc(-c6ccc(Oc7ccc(F)cc7F)cc6)c(C(N)=O)c5N)C4)n3)ccc2CC1C(=O)NC1CCCc2ccccc21)C(C)(C)C

> <Shape>
0.214

> <Color>
0.098

> <Negative vol penalty>
0.000

$$$$

  -OEChem-04052305303D

 83 91  0     1  0  0  0  0  0999 V2000
  -23.9884  -23.6729   18.2507 C   0  0  0  0  0  0  0  0  0  0  0  0
  -25.0345  -22.8867   18.7229 C   0  0  0  0  0  0  0  0  0  0  0  0
  -21.9917  -29.5753   19.6171 C   0  0  0  0  0  0  0  0  0  0  0  0
  -22.3594  -28.4040   21.6980 C   0  0  0  0  0  0  0  0  0  0  0  0
  -22.6724  -23.3507   18.5794 C   0  0  0  0  0  0  0  0  0  0  0  0
  -24.7652  -21.7783   19.5249 C   0  0  0  0  0  0  0  0  0  0  0  0
  -27.4340  -17.6972   18.1587 C   0  0  0  0  0  0  0  0  0  0  0  0
  -20.6131  -29.4759   19.8048 C   0  0  0  0  0  0  0  0  0  0  0  0
  -20.9808  -28.3047   21.8857 C   0  0  0  0  0  0  0  0  0  0  0  0
  -28.7704  -17.6489   18.5532 C   0  0  0  0  0  0  0  0  0  0  0  0
  -18.4615  -30.2977   22.9352 C   0  0  0  0  0  0  0  0  0  0  0  0
  -17.9588  -30.5907   24.2028 C   0  0  0  0  0  0  0  0  0  0  0  0
  -28.1724  -16.1896   20.3787 C   0  0  0  0  0  0  0  0  0  0  0  0
  -17.0573  -28.3549   24.3621 C   0  0  0  0  0  0  0  0  0  0  0  0
  -28.9564  -23.3020   22.6991 C   0  0  0  0  0  0  0  0  0  0  0  0
  -22.8649  -29.0393   20.5637 C   0  0  0  0  0  0  0  0  0  0  0  0
  -25.1340  -30.1795   20.8056 C   0  0  0  0  0  0  0  0  0  0  0  0
  -22.3861  -22.2322   19.3779 C   0  0  0  0  0  0  0  0  0  0  0  0
  -26.4536  -16.9996   18.8788 C   0  0  0  0  0  0  0  0  0  0  0  0
  -23.4441  -21.4415   19.8657 C   0  0  0  0  0  0  0  0  0  0  0  0
  -26.8247  -16.2286   19.9897 C   0  0  0  0  0  0  0  0  0  0  0  0
  -20.1077  -28.8406   20.9390 C   0  0  0  0  0  0  0  0  0  0  0  0
  -29.1393  -16.8974   19.6651 C   0  0  0  0  0  0  0  0  0  0  0  0
  -18.2621  -29.0333   22.3809 C   0  0  0  0  0  0  0  0  0  0  0  0
  -17.2567  -29.6193   24.9163 C   0  0  0  0  0  0  0  0  0  0  0  0
  -17.5600  -28.0619   23.0944 C   0  0  0  0  0  0  0  0  0  0  0  0
  -24.2890  -29.1411   20.3702 C   0  0  0  0  0  0  0  0  0  0  0  0
  -29.2748  -23.4342   21.3637 C   0  0  0  0  0  0  0  0  0  0  0  0
  -26.3845  -29.8074   20.3762 C   0  0  0  0  0  0  0  0  0  0  0  0
  -30.7561  -21.9107   21.9066 C   0  0  0  0  0  0  0  0  0  0  0  0
  -24.8170  -31.3735   21.5331 C   0  0  0  0  0  0  0  0  0  0  0  0
  -23.8604  -17.8288   20.5194 C   0  0  0  0  0  0  0  0  0  0  0  0
  -23.4307  -14.6192   20.7101 C   0  0  0  0  0  0  0  0  0  0  0  0
  -24.8149  -11.5009   20.6278 C   0  0  0  0  0  0  0  0  0  0  0  0
  -28.8651  -24.5169   19.1263 C   0  0  0  0  0  0  0  0  0  0  0  0
  -20.9507  -21.9510   19.7457 C   0  0  0  0  0  0  0  0  0  0  0  0
  -25.0203  -17.0404   18.4244 C   0  0  0  0  0  0  0  0  0  0  0  0
  -25.8135  -15.4452   20.7847 C   0  0  0  0  0  0  0  0  0  0  0  0
  -20.7263  -20.5430   20.2912 C   0  0  0  0  0  0  0  0  0  0  0  0
  -28.5682  -27.3020   16.9281 C   0  0  0  0  0  0  0  0  0  0  0  0
  -21.7862  -20.1989   21.3329 C   0  0  0  0  0  0  0  0  0  0  0  0
  -27.5185  -28.1871   17.6040 C   0  0  0  0  0  0  0  0  0  0  0  0
  -28.2530  -25.8170   17.0990 C   0  0  0  0  0  0  0  0  0  0  0  0
  -26.9830  -26.2697   19.1609 C   0  0  0  0  0  0  0  0  0  0  0  0
  -23.1907  -20.2168   20.7177 C   0  0  1  0  0  0  0  0  0  0  0  0
  -24.0312  -16.7052   19.5365 C   0  0  1  0  0  0  0  0  0  0  0  0
  -27.2925  -27.7730   19.0713 C   0  0  2  0  0  0  0  0  0  0  0  0
  -24.2175   -9.0739   20.8522 C   0  0  0  0  0  0  0  0  0  0  0  0
  -33.4967  -21.8705   20.3306 C   0  0  0  0  0  0  0  0  0  0  0  0
  -23.2213  -14.9529   23.7358 C   0  0  0  0  0  0  0  0  0  0  0  0
  -23.5815  -12.4858   23.9628 C   0  0  0  0  0  0  0  0  0  0  0  0
  -21.5799  -13.3455   22.7474 C   0  0  0  0  0  0  0  0  0  0  0  0
  -25.7235  -10.9032   17.8753 C   0  0  0  0  0  0  0  0  0  0  0  0
  -33.2329  -19.3869   20.6596 C   0  0  0  0  0  0  0  0  0  0  0  0
  -31.2456  -17.9960   19.7763 C   0  0  0  0  0  0  0  0  0  1  0  0
  -23.8602  -13.5384   21.6726 C   0  0  1  0  0  0  0  0  0  0  0  0
  -24.4080  -10.2373   19.8915 C   0  0  2  0  0  0  0  0  0  0  0  0
  -32.5063  -20.7351   20.5724 C   0  0  1  0  0  0  0  0  0  0  0  0
  -32.3130  -18.1704   20.8541 C   0  0  1  0  0  0  0  0  0  0  0  0
  -23.0797  -13.5969   23.0160 C   0  0  0  0  0  0  0  0  0  0  0  0
  -24.9471  -28.1815   19.7143 N   0  0  0  0  0  0  0  0  0  0  0  0
  -30.3068  -22.6375   20.9076 N   0  0  0  0  0  0  0  0  0  0  0  0
  -26.2189  -28.6154   19.7344 N   0  0  0  0  0  0  0  0  0  0  0  0
  -24.4239  -15.5220   20.3045 N   0  0  0  0  0  0  0  0  0  0  0  0
  -28.0557  -25.4975   18.5145 N   0  0  0  0  0  0  0  0  0  0  0  0
  -27.5986  -30.3869   20.4886 N   0  0  0  0  0  0  0  0  0  0  0  0
  -23.4823  -31.6004   21.8958 N   0  0  0  0  0  0  0  0  0  0  0  0
  -28.6083  -24.3217   20.4830 N   0  0  0  0  0  0  0  0  0  0  0  0
  -31.7916  -20.9989   21.8033 N   0  0  0  0  0  0  0  0  0  0  0  0
  -23.4227  -19.0105   19.9526 N   0  0  0  0  0  0  0  0  0  0  0  0
  -23.7222  -12.2752   20.9559 N   0  0  0  0  0  0  0  0  0  0  0  0
  -25.4509   -9.8591   18.8963 N   0  3  0  0  0  0  0  0  0  0  0  0
  -25.6888  -32.2224   21.8379 O   0  0  0  0  0  0  0  0  0  0  0  0
  -24.1061  -17.6372   21.7046 O   0  0  0  0  0  0  0  0  0  0  0  0
  -22.2589  -14.6567   20.3265 O   0  0  0  0  0  0  0  0  0  0  0  0
  -25.9848  -11.7719   20.8894 O   0  0  0  0  0  0  0  0  0  0  0  0
  -29.7412  -23.9154   18.4998 O   0  0  0  0  0  0  0  0  0  0  0  0
  -33.1234  -16.9917   20.8537 O   0  0  0  0  0  0  0  0  0  0  0  0
  -18.7625  -28.7437   21.1226 O   0  0  0  0  0  0  0  0  0  0  0  0
  -30.4429  -16.8490   20.0527 O   0  0  0  0  0  0  0  0  0  1  0  0
  -16.7754  -29.9003   26.1343 F   0  0  0  0  0  0  0  0  0  0  0  0
  -17.3663  -26.8450   22.5677 F   0  0  0  0  0  0  0  0  0  0  0  0
  -29.9831  -22.1341   23.4224 S   0  0  0  0  0  0  0  0  0  0  0  0
  1  2  1  0  0  0  0
  1  5  2  0  0  0  0
  2  6  2  0  0  0  0
  3  8  2  0  0  0  0
  3 16  1  0  0  0  0
  4  9  1  0  0  0  0
  4 16  2  0  0  0  0
  5 18  1  0  0  0  0
  6 20  1  0  0  0  0
  7 10  2  0  0  0  0
  7 19  1  0  0  0  0
  8 22  1  0  0  0  0
  9 22  2  0  0  0  0
 10 23  1  0  0  0  0
 11 12  2  0  0  0  0
 11 24  1  0  0  0  0
 12 25  1  0  0  0  0
 13 21  1  0  0  0  0
 13 23  2  0  0  0  0
 14 25  2  0  0  0  0
 14 26  1  0  0  0  0
 15 28  2  0  0  0  0
 15 83  1  0  0  0  0
 16 27  1  0  0  0  0
 17 27  1  0  0  0  0
 17 29  2  0  0  0  0
 17 31  1  0  0  0  0
 18 20  2  0  0  0  0
 18 36  1  0  0  0  0
 19 21  2  0  0  0  0
 19 37  1  0  0  0  0
 20 45  1  0  0  0  0
 21 38  1  0  0  0  0
 22 79  1  0  0  0  0
 23 80  1  0  0  0  0
 24 26  2  0  0  0  0
 24 79  1  0  0  0  0
 25 81  1  0  0  0  0
 26 82  1  0  0  0  0
 27 61  2  0  0  0  0
 28 62  1  0  0  0  0
 28 68  1  0  0  0  0
 29 63  1  0  0  0  0
 29 66  1  0  0  0  0
 30 62  2  0  0  0  0
 30 69  1  0  0  0  0
 30 83  1  0  0  0  0
 31 67  1  0  0  0  0
 31 73  2  0  0  0  0
 32 46  1  0  0  0  0
 32 70  1  0  0  0  0
 32 74  2  0  0  0  0
 33 56  1  0  0  0  0
 33 64  1  0  0  0  0
 33 75  2  0  0  0  0
 34 57  1  0  0  0  0
 34 71  1  0  0  0  0
 34 76  2  0  0  0  0
 35 65  1  0  0  0  0
 35 68  1  0  0  0  0
 35 77  2  0  0  0  0
 36 39  1  0  0  0  0
 37 46  1  0  0  0  0
 38 64  1  0  0  0  0
 39 41  1  0  0  0  0
 40 42  1  0  0  0  0
 40 43  1  0  0  0  0
 41 45  1  0  0  0  0
 42 47  1  0  0  0  0
 43 65  1  0  0  0  0
 44 47  1  0  0  0  0
 44 65  1  0  0  0  0
 45 70  1  0  0  0  0
 46 64  1  0  0  0  0
 47 63  1  0  0  0  0
 48 57  1  0  0  0  0
 49 58  1  0  0  0  0
 50 60  1  0  0  0  0
 51 60  1  0  0  0  0
 52 60  1  0  0  0  0
 53 72  1  0  0  0  0
 54 58  1  0  0  0  0
 54 59  1  0  0  0  0
 55 59  1  0  0  0  0
 55 80  1  0  0  0  0
 56 60  1  0  0  0  0
 56 71  1  0  0  0  0
 57 72  1  0  0  0  0
 58 69  1  0  0  0  0
 59 78  1  0  0  0  0
 61 63  1  0  0  0  0
M  CHG  1  72   1
M  ISO  4  35 100  55 101  68 100  80 101
M  END
> <Batch ID>
0193

> <Smiles>
CNC(C)C(=O)NC(C(=O)N1Cc2cc([101O:1][101CH2:1]C(O)CC(C)Nc3nc([100NH:0][100C:0](=O)N4CCCC(n5nc(-c6ccc(Oc7ccc(F)cc7F)cc6)c(C(N)=O)c5N)C4)cs3)ccc2CC1C(=O)NC1CCCc2ccccc21)C(C)(C)C

> <Shape>
0.224

> <Color>
0.072

> <Negative vol penalty>
0.000

$$$$

  -OEChem-04052305303D

 86 94  0     1  0  0  0  0  0999 V2000
  -27.6207  -29.6232   11.9345 C   0  0  0  0  0  0  0  0  0  0  0  0
  -27.6741  -28.7879   13.0458 C   0  0  0  0  0  0  0  0  0  0  0  0
  -23.1571   -9.7774   19.9096 C   0  0  0  0  0  0  0  0  0  0  0  0
  -23.8424   -9.8585   22.2250 C   0  0  0  0  0  0  0  0  0  0  0  0
  -27.7125  -31.0049   12.0973 C   0  0  0  0  0  0  0  0  0  0  0  0
  -27.8205  -29.3339   14.3205 C   0  0  0  0  0  0  0  0  0  0  0  0
  -25.3850  -27.2269   19.5297 C   0  0  0  0  0  0  0  0  0  0  0  0
  -22.4563   -8.5974   20.1584 C   0  0  0  0  0  0  0  0  0  0  0  0
  -23.1415   -8.6785   22.4738 C   0  0  0  0  0  0  0  0  0  0  0  0
  -25.9048  -26.4417   20.5578 C   0  0  0  0  0  0  0  0  0  0  0  0
  -23.5937   -5.3630   21.9895 C   0  0  0  0  0  0  0  0  0  0  0  0
  -24.2298   -4.3787   22.7457 C   0  0  0  0  0  0  0  0  0  0  0  0
  -26.4140  -28.4362   21.8156 C   0  0  0  0  0  0  0  0  0  0  0  0
  -22.4688   -4.5078   24.3949 C   0  0  0  0  0  0  0  0  0  0  0  0
  -23.8502  -10.4080   20.9429 C   0  0  0  0  0  0  0  0  0  0  0  0
  -24.0860  -12.9432   20.7852 C   0  0  0  0  0  0  0  0  0  0  0  0
  -27.8503  -31.5685   13.3756 C   0  0  0  0  0  0  0  0  0  0  0  0
  -25.3858  -28.6254   19.6322 C   0  0  0  0  0  0  0  0  0  0  0  0
  -27.9155  -30.7243   14.5005 C   0  0  0  0  0  0  0  0  0  0  0  0
  -25.8913  -29.2368   20.7885 C   0  0  0  0  0  0  0  0  0  0  0  0
  -22.4484   -8.0479   21.4404 C   0  0  0  0  0  0  0  0  0  0  0  0
  -26.4220  -27.0464   21.6997 C   0  0  0  0  0  0  0  0  0  0  0  0
  -22.3952   -5.9199   22.4359 C   0  0  0  0  0  0  0  0  0  0  0  0
  -23.6673   -3.9510   23.9484 C   0  0  0  0  0  0  0  0  0  0  0  0
  -21.8328   -5.4922   23.6386 C   0  0  0  0  0  0  0  0  0  0  0  0
  -24.5748  -11.6267   20.6865 C   0  0  0  0  0  0  0  0  0  0  0  0
  -25.1557  -13.7333   20.4418 C   0  0  0  0  0  0  0  0  0  0  0  0
  -30.2745  -17.2146   21.9703 C   0  0  0  0  0  0  0  0  0  0  0  0
  -30.3538  -19.3526   22.9653 C   0  0  0  0  0  0  0  0  0  0  0  0
  -22.7817  -13.4101   21.1545 C   0  0  0  0  0  0  0  0  0  0  0  0
  -26.7213  -30.9945   17.9867 C   0  0  0  0  0  0  0  0  0  0  0  0
  -24.9452  -32.8505   19.9674 C   0  0  0  0  0  0  0  0  0  0  0  0
  -23.3203  -33.1753   22.9508 C   0  0  0  0  0  0  0  0  0  0  0  0
  -30.5632  -15.0206   20.7665 C   0  0  0  0  0  0  0  0  0  0  0  0
  -27.9931  -33.0650   13.4975 C   0  0  0  0  0  0  0  0  0  0  0  0
  -24.7971  -29.4573   18.5260 C   0  0  0  0  0  0  0  0  0  0  0  0
  -25.8969  -30.7335   20.9563 C   0  0  0  0  0  0  0  0  0  0  0  0
  -27.7702  -33.5846   14.9154 C   0  0  0  0  0  0  0  0  0  0  0  0
  -29.6304  -12.5186   18.4112 C   0  0  0  0  0  0  0  0  0  0  0  0
  -28.5371  -32.7336   15.9226 C   0  0  0  0  0  0  0  0  0  0  0  0
  -28.1918  -12.1718   18.8013 C   0  0  0  0  0  0  0  0  0  0  0  0
  -30.4960  -12.8086   19.6362 C   0  0  0  0  0  0  0  0  0  0  0  0
  -28.5164  -13.4731   20.9434 C   0  0  0  0  0  0  0  0  0  0  0  0
  -28.0488  -31.2801   15.9017 C   0  0  1  0  0  0  0  0  0  0  0  0
  -25.3182  -30.8911   18.5144 C   0  0  1  0  0  0  0  0  0  0  0  0
  -27.5900  -13.2365   19.7394 C   0  0  2  0  0  0  0  0  0  0  0  0
  -21.9937  -34.8217   24.3025 C   0  0  0  0  0  0  0  0  0  0  0  0
  -31.6565  -21.0721   26.1817 C   0  0  0  0  0  0  0  0  0  0  0  0
  -33.3212  -22.2468   24.7229 C   0  0  0  0  0  0  0  0  0  0  0  0
  -27.5148  -34.3355   20.6758 C   0  0  0  0  0  0  0  0  0  0  0  0
  -26.3341  -35.2850   22.6690 C   0  0  0  0  0  0  0  0  0  0  0  0
  -25.5123  -35.8024   20.3713 C   0  0  0  0  0  0  0  0  0  0  0  0
  -20.9380  -31.4192   22.9666 C   0  0  0  0  0  0  0  0  0  0  0  0
  -28.5876  -24.6418   23.3496 C   0  0  0  0  0  0  0  0  0  0  0  0
  -30.3114  -22.9283   24.0592 C   0  0  0  0  0  0  0  0  0  0  0  0
  -27.5121  -25.0321   22.3402 C   0  0  0  0  0  0  0  0  0  1  0  0
  -25.1637  -33.4849   21.3197 C   0  0  1  0  0  0  0  0  0  0  0  0
  -21.9324  -33.6874   23.2914 C   0  0  2  0  0  0  0  0  0  0  0  0
  -32.1667  -21.2402   24.7470 C   0  0  0  0  0  0  0  0  0  0  0  0
  -31.0588  -21.6202   23.7312 C   0  0  1  0  0  0  0  0  0  0  0  0
  -29.2505  -23.3030   23.0087 C   0  0  2  0  0  0  0  0  0  0  0  0
  -26.1330  -34.6988   21.2553 C   0  0  0  0  0  0  0  0  0  0  0  0
  -25.8554  -11.5790   20.3097 N   0  0  0  0  0  0  0  0  0  0  0  0
  -31.4152  -17.8241   21.7267 N   0  0  0  0  0  0  0  0  0  0  0  0
  -31.4621  -19.0777   22.3111 N   0  0  0  0  0  0  0  0  0  0  0  0
  -26.1802  -12.8754   20.1686 N   0  0  0  0  0  0  0  0  0  0  0  0
  -25.3161  -31.5040   19.8443 N   0  0  0  0  0  0  0  0  0  0  0  0
  -29.8652  -13.8293   20.4759 N   0  0  0  0  0  0  0  0  0  0  0  0
  -25.3105  -15.0712   20.3499 N   0  0  0  0  0  0  0  0  0  0  0  0
  -21.7998  -12.4635   21.4775 N   0  0  0  0  0  0  0  0  0  0  0  0
  -29.8506  -15.9307   21.5466 N   0  0  0  0  0  0  0  0  0  0  0  0
  -30.1061  -20.5264   23.6489 N   0  0  0  0  0  0  0  0  0  0  0  0
  -26.7964  -31.1574   16.6165 N   0  0  0  0  0  0  0  0  0  0  0  0
  -23.8385  -33.8053   21.8392 N   0  0  0  0  0  0  0  0  0  0  0  0
  -21.1020  -32.5909   23.8651 N   0  3  0  0  0  0  0  0  0  0  0  0
  -22.4906  -14.6300   21.1809 O   0  0  0  0  0  0  0  0  0  0  0  0
  -27.6657  -30.9327   18.7651 O   0  0  0  0  0  0  0  0  0  0  0  0
  -24.4567  -33.5229   19.0559 O   0  0  0  0  0  0  0  0  0  0  0  0
  -23.8893  -32.3062   23.6076 O   0  0  0  0  0  0  0  0  0  0  0  0
  -31.6983  -15.2304   20.3311 O   0  0  0  0  0  0  0  0  0  0  0  0
  -29.8587  -23.3879   21.7220 O   0  0  0  0  0  0  0  0  0  0  0  0
  -21.7645   -6.8965   21.6836 O   0  0  0  0  0  0  0  0  0  0  0  0
  -26.9341  -26.2769   22.7115 O   0  0  0  0  0  0  0  0  0  1  0  0
  -24.2775   -3.0046   24.6738 F   0  0  0  0  0  0  0  0  0  0  0  0
  -20.6810   -6.0226   24.0720 F   0  0  0  0  0  0  0  0  0  0  0  0
  -29.1685  -18.1136   22.9245 S   0  0  0  0  0  0  0  0  0  0  0  0
  1  2  1  0  0  0  0
  1  5  2  0  0  0  0
  2  6  2  0  0  0  0
  3  8  2  0  0  0  0
  3 15  1  0  0  0  0
  4  9  1  0  0  0  0
  4 15  2  0  0  0  0
  5 17  1  0  0  0  0
  6 19  1  0  0  0  0
  7 10  2  0  0  0  0
  7 18  1  0  0  0  0
  8 21  1  0  0  0  0
  9 21  2  0  0  0  0
 10 22  1  0  0  0  0
 11 12  2  0  0  0  0
 11 23  1  0  0  0  0
 12 24  1  0  0  0  0
 13 20  1  0  0  0  0
 13 22  2  0  0  0  0
 14 24  2  0  0  0  0
 14 25  1  0  0  0  0
 15 26  1  0  0  0  0
 16 26  1  0  0  0  0
 16 27  2  0  0  0  0
 16 30  1  0  0  0  0
 17 19  2  0  0  0  0
 17 35  1  0  0  0  0
 18 20  2  0  0  0  0
 18 36  1  0  0  0  0
 19 44  1  0  0  0  0
 20 37  1  0  0  0  0
 21 82  1  0  0  0  0
 22 83  1  0  0  0  0
 23 25  2  0  0  0  0
 23 82  1  0  0  0  0
 24 84  1  0  0  0  0
 25 85  1  0  0  0  0
 26 63  2  0  0  0  0
 27 66  1  0  0  0  0
 27 69  1  0  0  0  0
 28 64  2  0  0  0  0
 28 71  1  0  0  0  0
 28 86  1  0  0  0  0
 29 65  2  0  0  0  0
 29 72  1  0  0  0  0
 29 86  1  0  0  0  0
 30 70  1  0  0  0  0
 30 76  2  0  0  0  0
 31 45  1  0  0  0  0
 31 73  1  0  0  0  0
 31 77  2  0  0  0  0
 32 57  1  0  0  0  0
 32 67  1  0  0  0  0
 32 78  2  0  0  0  0
 33 58  1  0  0  0  0
 33 74  1  0  0  0  0
 33 79  2  0  0  0  0
 34 68  1  0  0  0  0
 34 71  1  0  0  0  0
 34 80  2  0  0  0  0
 35 38  1  0  0  0  0
 36 45  1  0  0  0  0
 37 67  1  0  0  0  0
 38 40  1  0  0  0  0
 39 41  1  0  0  0  0
 39 42  1  0  0  0  0
 40 44  1  0  0  0  0
 41 46  1  0  0  0  0
 42 68  1  0  0  0  0
 43 46  1  0  0  0  0
 43 68  1  0  0  0  0
 44 73  1  0  0  0  0
 45 67  1  0  0  0  0
 46 66  1  0  0  0  0
 47 58  1  0  0  0  0
 48 59  1  0  0  0  0
 49 59  1  0  0  0  0
 50 62  1  0  0  0  0
 51 62  1  0  0  0  0
 52 62  1  0  0  0  0
 53 75  1  0  0  0  0
 54 56  1  0  0  0  0
 54 61  1  0  0  0  0
 55 60  1  0  0  0  0
 55 61  1  0  0  0  0
 56 83  1  0  0  0  0
 57 62  1  0  0  0  0
 57 74  1  0  0  0  0
 58 75  1  0  0  0  0
 59 60  1  0  0  0  0
 60 72  1  0  0  0  0
 61 81  1  0  0  0  0
 63 66  1  0  0  0  0
 64 65  1  0  0  0  0
M  CHG  1  75   1
M  ISO  4  34 100  56 101  71 100  83 101
M  END
> <Batch ID>
0193

> <Smiles>
CNC(C)C(=O)NC(C(=O)N1Cc2cc([101O:1][101CH2:1]CC(O)CC(Nc3nnc([100NH:0][100C:0](=O)N4CCCC(n5nc(-c6ccc(Oc7ccc(F)cc7F)cc6)c(C(N)=O)c5N)C4)s3)C(C)C)ccc2CC1C(=O)NC1CCCc2ccccc21)C(C)(C)C

> <Shape>
0.241

> <Color>
0.210

> <Negative vol penalty>
0.000

$$$$

  -OEChem-04052305303D

 84 92  0     1  0  0  0  0  0999 V2000
  -18.6971  -31.1252   19.8185 C   0  0  0  0  0  0  0  0  0  0  0  0
  -19.9894  -30.6643   19.5882 C   0  0  0  0  0  0  0  0  0  0  0  0
  -24.0644   -9.9764   22.5683 C   0  0  0  0  0  0  0  0  0  0  0  0
  -24.4858  -11.7060   24.2017 C   0  0  0  0  0  0  0  0  0  0  0  0
  -17.9708  -30.6453   20.9076 C   0  0  0  0  0  0  0  0  0  0  0  0
  -20.5565  -29.7239   20.4476 C   0  0  0  0  0  0  0  0  0  0  0  0
  -24.4221  -25.2191   18.9410 C   0  0  0  0  0  0  0  0  0  0  0  0
  -23.6282   -9.1244   23.5829 C   0  0  0  0  0  0  0  0  0  0  0  0
  -24.0495  -10.8540   25.2164 C   0  0  0  0  0  0  0  0  0  0  0  0
  -25.8097  -25.1085   19.0190 C   0  0  0  0  0  0  0  0  0  0  0  0
  -22.7067   -9.2580   28.1942 C   0  0  0  0  0  0  0  0  0  0  0  0
  -21.8418   -9.7819   29.1549 C   0  0  0  0  0  0  0  0  0  0  0  0
  -25.5940  -23.9696   21.1345 C   0  0  0  0  0  0  0  0  0  0  0  0
  -20.2341  -10.2969   27.4265 C   0  0  0  0  0  0  0  0  0  0  0  0
  -31.8491  -19.2512   19.8580 C   0  0  0  0  0  0  0  0  0  0  0  0
  -24.4933  -11.2672   22.8777 C   0  0  0  0  0  0  0  0  0  0  0  0
  -24.1632  -13.0467   21.0799 C   0  0  0  0  0  0  0  0  0  0  0  0
  -18.5258  -29.6914   21.7752 C   0  0  0  0  0  0  0  0  0  0  0  0
  -23.6091  -24.7146   19.9661 C   0  0  0  0  0  0  0  0  0  0  0  0
  -19.8375  -29.2318   21.5501 C   0  0  0  0  0  0  0  0  0  0  0  0
  -24.1962  -24.0728   21.0659 C   0  0  0  0  0  0  0  0  0  0  0  0
  -23.6207   -9.5632   24.9069 C   0  0  0  0  0  0  0  0  0  0  0  0
  -26.3960  -24.4863   20.1172 C   0  0  0  0  0  0  0  0  0  0  0  0
  -22.3354   -9.2535   26.8497 C   0  0  0  0  0  0  0  0  0  0  0  0
  -20.6054  -10.3014   28.7711 C   0  0  0  0  0  0  0  0  0  0  0  0
  -21.0991   -9.7729   26.4658 C   0  0  0  0  0  0  0  0  0  0  0  0
  -24.9445  -12.1475   21.8301 C   0  0  0  0  0  0  0  0  0  0  0  0
  -31.2038  -17.6817   21.3909 C   0  0  0  0  0  0  0  0  0  0  0  0
  -30.7376  -20.0056   20.1623 C   0  0  0  0  0  0  0  0  0  0  0  0
  -30.0925  -18.4365   21.6959 C   0  0  0  0  0  0  0  0  0  0  0  0
  -25.0544  -13.6420   20.2209 C   0  0  0  0  0  0  0  0  0  0  0  0
  -22.7575  -13.3194   21.1530 C   0  0  0  0  0  0  0  0  0  0  0  0
  -21.5354  -25.9830   22.0142 C   0  0  0  0  0  0  0  0  0  0  0  0
  -20.9966  -22.8794   22.7883 C   0  0  0  0  0  0  0  0  0  0  0  0
  -22.1546  -19.6700   22.8674 C   0  0  0  0  0  0  0  0  0  0  0  0
  -30.9671  -14.5534   20.4673 C   0  0  0  0  0  0  0  0  0  0  0  0
  -17.7196  -29.2374   22.9663 C   0  0  0  0  0  0  0  0  0  0  0  0
  -22.1127  -24.8181   19.8542 C   0  0  0  0  0  0  0  0  0  0  0  0
  -23.3670  -23.4965   22.1833 C   0  0  0  0  0  0  0  0  0  0  0  0
  -18.2547  -27.9629   23.6140 C   0  0  0  0  0  0  0  0  0  0  0  0
  -29.1731  -12.8125   17.9320 C   0  0  0  0  0  0  0  0  0  0  0  0
  -19.7666  -28.0510   23.7965 C   0  0  0  0  0  0  0  0  0  0  0  0
  -27.8154  -12.5258   18.5758 C   0  0  0  0  0  0  0  0  0  0  0  0
  -30.3108  -12.7121   18.9456 C   0  0  0  0  0  0  0  0  0  0  0  0
  -28.7790  -13.2501   20.7997 C   0  0  0  0  0  0  0  0  0  0  0  0
  -20.4780  -28.1936   22.4456 C   0  0  1  0  0  0  0  0  0  0  0  0
  -21.4048  -24.7254   21.2024 C   0  0  1  0  0  0  0  0  0  0  0  0
  -27.5945  -13.3943   19.8289 C   0  0  2  0  0  0  0  0  0  0  0  0
  -21.5025  -17.3579   23.5927 C   0  0  0  0  0  0  0  0  0  0  0  0
  -21.5409  -23.6395   25.6927 C   0  0  0  0  0  0  0  0  0  0  0  0
  -21.8154  -21.2044   26.2057 C   0  0  0  0  0  0  0  0  0  0  0  0
  -19.6277  -22.0620   25.3682 C   0  0  0  0  0  0  0  0  0  0  0  0
  -22.3398  -18.6257   20.1045 C   0  0  0  0  0  0  0  0  0  0  0  0
  -31.4800  -16.3809   22.0661 C   0  0  0  0  0  0  0  0  0  0  0  0
  -29.4274  -22.0822   19.7184 C   0  0  0  0  0  0  0  0  0  0  0  0
  -28.4671  -24.2849   18.9659 C   0  0  0  0  0  0  0  0  0  1  0  0
  -21.5882  -21.9065   23.7795 C   0  0  1  0  0  0  0  0  0  0  0  0
  -21.5164  -18.3583   22.4474 C   0  0  2  0  0  0  0  0  0  0  0  0
  -29.7431  -23.4821   19.1952 C   0  0  1  0  0  0  0  0  0  0  0  0
  -21.1590  -22.2156   25.2416 C   0  0  0  0  0  0  0  0  0  0  0  0
  -32.1022  -18.0756   20.4667 N   0  0  0  0  0  0  0  0  0  0  0  0
  -26.2330  -12.1665   21.4785 N   0  0  0  0  0  0  0  0  0  0  0  0
  -29.8393  -19.6119   21.0868 N   0  0  0  0  0  0  0  0  0  0  0  0
  -26.2680  -13.0847   20.4978 N   0  0  0  0  0  0  0  0  0  0  0  0
  -21.9086  -23.6281   22.0310 N   0  0  0  0  0  0  0  0  0  0  0  0
  -30.0404  -13.5605   20.1088 N   0  0  0  0  0  0  0  0  0  0  0  0
  -29.1875  -17.9688   22.6752 N   0  0  0  0  0  0  0  0  0  0  0  0
  -24.9104  -14.5825   19.2632 N   0  0  0  0  0  0  0  0  0  0  0  0
  -21.9889  -12.6186   22.0923 N   0  0  0  0  0  0  0  0  0  0  0  0
  -30.5512  -21.2017   19.4902 N   0  0  0  0  0  0  0  0  0  0  0  0
  -20.5440  -26.9146   21.7716 N   0  0  0  0  0  0  0  0  0  0  0  0
  -21.2154  -20.5743   23.3162 N   0  0  0  0  0  0  0  0  0  0  0  0
  -30.6308  -15.3171   21.5783 N   0  0  0  0  0  0  0  0  0  0  0  0
  -22.2672  -17.7583   21.3084 N   0  3  0  0  0  0  0  0  0  0  0  0
  -22.1967  -14.1479   20.3963 O   0  0  0  0  0  0  0  0  0  0  0  0
  -22.4657  -26.0990   22.8032 O   0  0  0  0  0  0  0  0  0  0  0  0
  -19.7705  -22.9664   22.6845 O   0  0  0  0  0  0  0  0  0  0  0  0
  -23.3656  -19.8710   22.8071 O   0  0  0  0  0  0  0  0  0  0  0  0
  -32.0138  -14.7486   19.8402 O   0  0  0  0  0  0  0  0  0  0  0  0
  -30.5262  -24.1784   20.1668 O   0  0  0  0  0  0  0  0  0  0  0  0
  -23.1949   -8.7322   25.8972 O   0  0  0  0  0  0  0  0  0  0  0  0
  -27.7502  -24.3776   20.1962 O   0  0  0  0  0  0  0  0  0  1  0  0
  -19.7743  -10.8031   29.6939 F   0  0  0  0  0  0  0  0  0  0  0  0
  -20.7363   -9.7703   25.1758 F   0  0  0  0  0  0  0  0  0  0  0  0
  1  2  1  0  0  0  0
  1  5  2  0  0  0  0
  2  6  2  0  0  0  0
  3  8  2  0  0  0  0
  3 16  1  0  0  0  0
  4  9  1  0  0  0  0
  4 16  2  0  0  0  0
  5 18  1  0  0  0  0
  6 20  1  0  0  0  0
  7 10  2  0  0  0  0
  7 19  1  0  0  0  0
  8 22  1  0  0  0  0
  9 22  2  0  0  0  0
 10 23  1  0  0  0  0
 11 12  2  0  0  0  0
 11 24  1  0  0  0  0
 12 25  1  0  0  0  0
 13 21  1  0  0  0  0
 13 23  2  0  0  0  0
 14 25  2  0  0  0  0
 14 26  1  0  0  0  0
 15 29  1  0  0  0  0
 15 61  2  0  0  0  0
 16 27  1  0  0  0  0
 17 27  1  0  0  0  0
 17 31  2  0  0  0  0
 17 32  1  0  0  0  0
 18 20  2  0  0  0  0
 18 37  1  0  0  0  0
 19 21  2  0  0  0  0
 19 38  1  0  0  0  0
 20 46  1  0  0  0  0
 21 39  1  0  0  0  0
 22 81  1  0  0  0  0
 23 82  1  0  0  0  0
 24 26  2  0  0  0  0
 24 81  1  0  0  0  0
 25 83  1  0  0  0  0
 26 84  1  0  0  0  0
 27 62  2  0  0  0  0
 28 30  2  0  0  0  0
 28 54  1  0  0  0  0
 28 61  1  0  0  0  0
 29 63  2  0  0  0  0
 29 70  1  0  0  0  0
 30 63  1  0  0  0  0
 30 67  1  0  0  0  0
 31 64  1  0  0  0  0
 31 68  1  0  0  0  0
 32 69  1  0  0  0  0
 32 75  2  0  0  0  0
 33 47  1  0  0  0  0
 33 71  1  0  0  0  0
 33 76  2  0  0  0  0
 34 57  1  0  0  0  0
 34 65  1  0  0  0  0
 34 77  2  0  0  0  0
 35 58  1  0  0  0  0
 35 72  1  0  0  0  0
 35 78  2  0  0  0  0
 36 66  1  0  0  0  0
 36 73  1  0  0  0  0
 36 79  2  0  0  0  0
 37 40  1  0  0  0  0
 38 47  1  0  0  0  0
 39 65  1  0  0  0  0
 40 42  1  0  0  0  0
 41 43  1  0  0  0  0
 41 44  1  0  0  0  0
 42 46  1  0  0  0  0
 43 48  1  0  0  0  0
 44 66  1  0  0  0  0
 45 48  1  0  0  0  0
 45 66  1  0  0  0  0
 46 71  1  0  0  0  0
 47 65  1  0  0  0  0
 48 64  1  0  0  0  0
 49 58  1  0  0  0  0
 50 60  1  0  0  0  0
 51 60  1  0  0  0  0
 52 60  1  0  0  0  0
 53 74  1  0  0  0  0
 54 73  1  0  0  0  0
 55 59  1  0  0  0  0
 55 70  1  0  0  0  0
 56 59  1  0  0  0  0
 56 82  1  0  0  0  0
 57 60  1  0  0  0  0
 57 72  1  0  0  0  0
 58 74  1  0  0  0  0
 59 80  1  0  0  0  0
 62 64  1  0  0  0  0
M  CHG  1  74   1
M  ISO  4  36 100  56 101  73 100  82 101
M  END
> <Batch ID>
0193

> <Smiles>
CNC(C)C(=O)NC(C(=O)N1Cc2cc([101O:1][101CH2:1]C(O)CNc3cnc(C[100NH:0][100C:0](=O)N4CCCC(n5nc(-c6ccc(Oc7ccc(F)cc7F)cc6)c(C(N)=O)c5N)C4)c(N)n3)ccc2CC1C(=O)NC1CCCc2ccccc21)C(C)(C)C

> <Shape>
0.200

> <Color>
0.101

> <Negative vol penalty>
0.000

$$$$

  -OEChem-04052305303D

 88 96  0     1  0  0  0  0  0999 V2000
  -27.1982  -33.0593   28.1618 C   0  0  0  0  0  0  0  0  0  0  0  0
  -27.5509  -32.0668   27.2530 C   0  0  0  0  0  0  0  0  0  0  0  0
  -24.7093   -8.0340   21.3637 C   0  0  0  0  0  0  0  0  0  0  0  0
  -23.2230   -9.9318   21.2019 C   0  0  0  0  0  0  0  0  0  0  0  0
  -25.8655  -33.4511   28.2820 C   0  0  0  0  0  0  0  0  0  0  0  0
  -26.5709  -31.4647   26.4646 C   0  0  0  0  0  0  0  0  0  0  0  0
  -27.1848  -29.4852   20.7018 C   0  0  0  0  0  0  0  0  0  0  0  0
  -23.8916   -7.4773   22.3470 C   0  0  0  0  0  0  0  0  0  0  0  0
  -22.4052   -9.3751   22.1853 C   0  0  0  0  0  0  0  0  0  0  0  0
  -27.4171  -28.2199   20.1643 C   0  0  0  0  0  0  0  0  0  0  0  0
  -22.0034   -5.3843   24.6424 C   0  0  0  0  0  0  0  0  0  0  0  0
  -21.7015   -4.0262   24.5424 C   0  0  0  0  0  0  0  0  0  0  0  0
  -25.0466  -27.9395   19.8156 C   0  0  0  0  0  0  0  0  0  0  0  0
  -20.6728   -4.4134   22.3909 C   0  0  0  0  0  0  0  0  0  0  0  0
  -27.5288  -19.3181   19.2751 C   0  0  0  0  0  0  0  0  0  0  0  0
  -24.3751   -9.2613   20.7911 C   0  0  0  0  0  0  0  0  0  0  0  0
  -25.1270   -9.6461   18.3840 C   0  0  0  0  0  0  0  0  0  0  0  0
  -24.8701  -32.8602   27.4879 C   0  0  0  0  0  0  0  0  0  0  0  0
  -25.8786  -29.9835   20.8104 C   0  0  0  0  0  0  0  0  0  0  0  0
  -25.2235  -31.8479   26.5753 C   0  0  0  0  0  0  0  0  0  0  0  0
  -24.8007  -29.2124   20.3525 C   0  0  0  0  0  0  0  0  0  0  0  0
  -22.7395   -8.1479   22.7578 C   0  0  0  0  0  0  0  0  0  0  0  0
  -26.3477  -27.4456   19.7238 C   0  0  0  0  0  0  0  0  0  0  0  0
  -21.6400   -6.2570   23.6167 C   0  0  0  0  0  0  0  0  0  0  0  0
  -21.0362   -3.5407   23.4166 C   0  0  0  0  0  0  0  0  0  0  0  0
  -20.9747   -5.7715   22.4910 C   0  0  0  0  0  0  0  0  0  0  0  0
  -25.2197   -9.8371   19.7757 C   0  0  0  0  0  0  0  0  0  0  0  0
  -26.1487  -10.4031   17.8647 C   0  0  0  0  0  0  0  0  0  0  0  0
  -26.1596  -19.1542   19.2496 C   0  0  0  0  0  0  0  0  0  0  0  0
  -27.4521  -17.1430   19.5450 C   0  0  0  0  0  0  0  0  0  0  0  0
  -24.2001   -8.8553   17.6283 C   0  0  0  0  0  0  0  0  0  0  0  0
  -24.0112  -30.8746   23.2233 C   0  0  0  0  0  0  0  0  0  0  0  0
  -22.0227  -31.7972   20.8323 C   0  0  0  0  0  0  0  0  0  0  0  0
  -21.0354  -31.4399   17.5850 C   0  0  0  0  0  0  0  0  0  0  0  0
  -29.0644  -15.2301   19.8407 C   0  0  0  0  0  0  0  0  0  0  0  0
  -23.4363  -33.2834   27.6871 C   0  0  0  0  0  0  0  0  0  0  0  0
  -25.6471  -31.3612   21.3678 C   0  0  0  0  0  0  0  0  0  0  0  0
  -23.3811  -29.7098   20.4282 C   0  0  0  0  0  0  0  0  0  0  0  0
  -22.5122  -32.8593   26.5484 C   0  0  0  0  0  0  0  0  0  0  0  0
  -30.4938  -12.0886   18.9660 C   0  0  0  0  0  0  0  0  0  0  0  0
  -22.7563  -31.3998   26.1783 C   0  0  0  0  0  0  0  0  0  0  0  0
  -29.2942  -11.1386   18.9417 C   0  0  0  0  0  0  0  0  0  0  0  0
  -30.3707  -13.1294   20.0774 C   0  0  0  0  0  0  0  0  0  0  0  0
  -27.9145  -12.9394   20.0556 C   0  0  0  0  0  0  0  0  0  0  0  0
  -24.1928  -31.1885   25.6849 C   0  0  1  0  0  0  0  0  0  0  0  0
  -24.2326  -31.5589   21.9041 C   0  0  1  0  0  0  0  0  0  0  0  0
  -27.9622  -11.9135   18.9115 C   0  0  2  0  0  0  0  0  0  0  0  0
  -19.3592  -32.3039   15.9293 C   0  0  0  0  0  0  0  0  0  0  0  0
  -25.2848  -22.7498   16.0073 C   0  0  0  0  0  0  0  0  0  0  0  0
  -22.8248  -22.9378   16.3902 C   0  0  0  0  0  0  0  0  0  0  0  0
  -23.8954  -20.6878   16.3139 C   0  0  0  0  0  0  0  0  0  0  0  0
  -19.8475  -30.1226   22.1642 C   0  0  0  0  0  0  0  0  0  0  0  0
  -18.5441  -30.2444   20.0301 C   0  0  0  0  0  0  0  0  0  0  0  0
  -19.0724  -32.3329   21.2878 C   0  0  0  0  0  0  0  0  0  0  0  0
  -23.1582  -32.4654   15.7959 C   0  0  0  0  0  0  0  0  0  0  0  0
  -27.4213  -23.9962   19.6006 C   0  0  0  0  0  0  0  0  0  0  0  0
  -25.8723  -22.0849   20.3219 C   0  0  0  0  0  0  0  0  0  0  0  0
  -24.2912  -22.2682   18.3084 C   0  0  0  0  0  0  0  0  0  0  0  0
  -27.7051  -25.4932   19.6841 C   0  0  0  0  0  0  0  0  0  1  0  0
  -20.9188  -31.1343   20.0442 C   0  0  1  0  0  0  0  0  0  0  0  0
  -20.7609  -32.4627   16.4973 C   0  0  2  0  0  0  0  0  0  0  0  0
  -25.5002  -21.5392   18.9294 C   0  0  2  0  0  0  0  0  0  0  0  0
  -26.1898  -23.5859   20.4120 C   0  0  1  0  0  0  0  0  0  0  0  0
  -24.0928  -22.1422   16.7673 C   0  0  0  0  0  0  0  0  0  0  0  0
  -19.6222  -30.9481   20.8818 C   0  0  0  0  0  0  0  0  0  0  0  0
  -28.2715  -18.1660   19.4449 N   0  0  0  0  0  0  0  0  0  0  0  0
  -26.2213  -10.6514   20.1188 N   0  0  0  0  0  0  0  0  0  0  0  0
  -26.7673  -10.9788   18.9353 N   0  0  0  0  0  0  0  0  0  0  0  0
  -23.2056  -31.0606   20.9869 N   0  0  0  0  0  0  0  0  0  0  0  0
  -29.0861  -13.8265   19.9829 N   0  0  0  0  0  0  0  0  0  0  0  0
  -26.5692  -10.6257   16.6014 N   0  0  0  0  0  0  0  0  0  0  0  0
  -23.2129   -8.1401   18.3198 N   0  0  0  0  0  0  0  0  0  0  0  0
  -25.1941  -20.1298   19.0944 N   0  0  0  0  0  0  0  0  0  0  0  0
  -27.7872  -15.7785   19.7279 N   0  0  0  0  0  0  0  0  0  0  0  0
  -24.3317  -31.6510   24.3206 N   0  0  0  0  0  0  0  0  0  0  0  0
  -20.7409  -31.9351   18.8378 N   0  0  0  0  0  0  0  0  0  0  0  0
  -21.7394  -32.3097   15.3837 N   0  3  0  0  0  0  0  0  0  0  0  0
  -24.2562   -8.7718   16.3779 O   0  0  0  0  0  0  0  0  0  0  0  0
  -23.5799  -29.7278   23.2442 O   0  0  0  0  0  0  0  0  0  0  0  0
  -21.8446  -32.9297   21.2876 O   0  0  0  0  0  0  0  0  0  0  0  0
  -21.4642  -30.3130   17.3469 O   0  0  0  0  0  0  0  0  0  0  0  0
  -30.1033  -15.8937   19.7932 O   0  0  0  0  0  0  0  0  0  0  0  0
  -26.4284  -23.9010   21.7866 O   0  0  0  0  0  0  0  0  0  0  0  0
  -21.9412   -7.6049   23.7172 O   0  0  0  0  0  0  0  0  0  0  0  0
  -26.5731  -26.2012   19.1957 O   0  0  0  0  0  0  0  0  0  1  0  0
  -20.7477   -2.2363   23.3200 F   0  0  0  0  0  0  0  0  0  0  0  0
  -20.6241   -6.6048   21.5018 F   0  0  0  0  0  0  0  0  0  0  0  0
  -25.7753  -17.4940   19.4432 S   0  0  0  0  0  0  0  0  0  0  0  0
  1  2  1  0  0  0  0
  1  5  2  0  0  0  0
  2  6  2  0  0  0  0
  3  8  2  0  0  0  0
  3 16  1  0  0  0  0
  4  9  1  0  0  0  0
  4 16  2  0  0  0  0
  5 18  1  0  0  0  0
  6 20  1  0  0  0  0
  7 10  2  0  0  0  0
  7 19  1  0  0  0  0
  8 22  1  0  0  0  0
  9 22  2  0  0  0  0
 10 23  1  0  0  0  0
 11 12  2  0  0  0  0
 11 24  1  0  0  0  0
 12 25  1  0  0  0  0
 13 21  1  0  0  0  0
 13 23  2  0  0  0  0
 14 25  2  0  0  0  0
 14 26  1  0  0  0  0
 15 29  2  0  0  0  0
 15 66  1  0  0  0  0
 16 27  1  0  0  0  0
 17 27  1  0  0  0  0
 17 28  2  0  0  0  0
 17 31  1  0  0  0  0
 18 20  2  0  0  0  0
 18 36  1  0  0  0  0
 19 21  2  0  0  0  0
 19 37  1  0  0  0  0
 20 45  1  0  0  0  0
 21 38  1  0  0  0  0
 22 84  1  0  0  0  0
 23 85  1  0  0  0  0
 24 26  2  0  0  0  0
 24 84  1  0  0  0  0
 25 86  1  0  0  0  0
 26 87  1  0  0  0  0
 27 67  2  0  0  0  0
 28 68  1  0  0  0  0
 28 71  1  0  0  0  0
 29 73  1  0  0  0  0
 29 88  1  0  0  0  0
 30 66  2  0  0  0  0
 30 74  1  0  0  0  0
 30 88  1  0  0  0  0
 31 72  1  0  0  0  0
 31 78  2  0  0  0  0
 32 46  1  0  0  0  0
 32 75  1  0  0  0  0
 32 79  2  0  0  0  0
 33 60  1  0  0  0  0
 33 69  1  0  0  0  0
 33 80  2  0  0  0  0
 34 61  1  0  0  0  0
 34 76  1  0  0  0  0
 34 81  2  0  0  0  0
 35 70  1  0  0  0  0
 35 74  1  0  0  0  0
 35 82  2  0  0  0  0
 36 39  1  0  0  0  0
 37 46  1  0  0  0  0
 38 69  1  0  0  0  0
 39 41  1  0  0  0  0
 40 42  1  0  0  0  0
 40 43  1  0  0  0  0
 41 45  1  0  0  0  0
 42 47  1  0  0  0  0
 43 70  1  0  0  0  0
 44 47  1  0  0  0  0
 44 70  1  0  0  0  0
 45 75  1  0  0  0  0
 46 69  1  0  0  0  0
 47 68  1  0  0  0  0
 48 61  1  0  0  0  0
 49 64  1  0  0  0  0
 50 64  1  0  0  0  0
 51 64  1  0  0  0  0
 52 65  1  0  0  0  0
 53 65  1  0  0  0  0
 54 65  1  0  0  0  0
 55 77  1  0  0  0  0
 56 59  1  0  0  0  0
 56 63  1  0  0  0  0
 57 62  1  0  0  0  0
 57 63  1  0  0  0  0
 58 62  1  0  0  0  0
 58 64  1  0  0  0  0
 59 85  1  0  0  0  0
 60 65  1  0  0  0  0
 60 76  1  0  0  0  0
 61 77  1  0  0  0  0
 62 73  1  0  0  0  0
 63 83  1  0  0  0  0
 67 68  1  0  0  0  0
M  CHG  1  77   1
M  ISO  4  35 100  59 101  74 100  85 101
M  END
> <Batch ID>
0193

> <Smiles>
CNC(C)C(=O)NC(C(=O)N1Cc2cc([101O:1][101CH2:1]CC(O)CC(CC(C)(C)C)Nc3cnc([100NH:0][100C:0](=O)N4CCCC(n5nc(-c6ccc(Oc7ccc(F)cc7F)cc6)c(C(N)=O)c5N)C4)s3)ccc2CC1C(=O)NC1CCCc2ccccc21)C(C)(C)C

> <Shape>
0.245

> <Color>
0.085

> <Negative vol penalty>
0.000

$$$$

  -OEChem-04052305303D

 88 96  0     1  0  0  0  0  0999 V2000
  -19.0093  -25.1969   19.6378 C   0  0  0  0  0  0  0  0  0  0  0  0
  -20.3389  -25.5657   19.4603 C   0  0  0  0  0  0  0  0  0  0  0  0
  -25.2979  -13.0277   21.6573 C   0  0  0  0  0  0  0  0  0  0  0  0
  -25.9684  -12.9916   19.3365 C   0  0  0  0  0  0  0  0  0  0  0  0
  -18.2647  -25.7557   20.6757 C   0  0  0  0  0  0  0  0  0  0  0  0
  -20.9244  -26.4945   20.3200 C   0  0  0  0  0  0  0  0  0  0  0  0
  -25.5453  -25.0892   21.8422 C   0  0  0  0  0  0  0  0  0  0  0  0
  -24.3302  -12.0586   21.3928 C   0  0  0  0  0  0  0  0  0  0  0  0
  -25.0007  -12.0224   19.0720 C   0  0  0  0  0  0  0  0  0  0  0  0
  -26.5948  -25.2711   20.9426 C   0  0  0  0  0  0  0  0  0  0  0  0
  -24.2165   -8.7090   20.9458 C   0  0  0  0  0  0  0  0  0  0  0  0
  -24.1063   -7.6426   21.8381 C   0  0  0  0  0  0  0  0  0  0  0  0
  -27.2305  -27.2890   22.1015 C   0  0  0  0  0  0  0  0  0  0  0  0
  -21.8165   -8.2626   22.2961 C   0  0  0  0  0  0  0  0  0  0  0  0
  -28.7071  -19.8399   15.5773 C   0  0  0  0  0  0  0  0  0  0  0  0
  -26.1170  -13.4943   20.6291 C   0  0  0  0  0  0  0  0  0  0  0  0
  -28.4521  -14.2801   21.2906 C   0  0  0  0  0  0  0  0  0  0  0  0
  -18.8441  -26.6845   21.5544 C   0  0  0  0  0  0  0  0  0  0  0  0
  -25.3236  -26.0132   22.8734 C   0  0  0  0  0  0  0  0  0  0  0  0
  -20.1865  -27.0672   21.3698 C   0  0  0  0  0  0  0  0  0  0  0  0
  -26.1791  -27.1152   23.0145 C   0  0  0  0  0  0  0  0  0  0  0  0
  -24.1816  -11.5559   20.1002 C   0  0  0  0  0  0  0  0  0  0  0  0
  -27.4358  -26.3727   21.0704 C   0  0  0  0  0  0  0  0  0  0  0  0
  -23.1268   -9.5522   20.7286 C   0  0  0  0  0  0  0  0  0  0  0  0
  -22.9063   -7.4193   22.5132 C   0  0  0  0  0  0  0  0  0  0  0  0
  -21.9268   -9.3290   21.4038 C   0  0  0  0  0  0  0  0  0  0  0  0
  -27.1164  -14.4958   20.9015 C   0  0  0  0  0  0  0  0  0  0  0  0
  -28.4059  -20.6919   16.6169 C   0  0  0  0  0  0  0  0  0  0  0  0
  -29.2868  -21.6301   14.2779 C   0  0  0  0  0  0  0  0  0  0  0  0
  -28.9849  -22.4823   15.3172 C   0  0  0  0  0  0  0  0  0  0  0  0
  -28.9793  -15.5415   21.4224 C   0  0  0  0  0  0  0  0  0  0  0  0
  -29.1535  -13.0496   21.5129 C   0  0  0  0  0  0  0  0  0  0  0  0
  -22.9406  -27.9623   23.6647 C   0  0  0  0  0  0  0  0  0  0  0  0
  -24.7695  -28.4996   26.2893 C   0  0  0  0  0  0  0  0  0  0  0  0
  -27.8704  -28.4749   27.7143 C   0  0  0  0  0  0  0  0  0  0  0  0
  -27.5873  -20.8216   18.9958 C   0  0  0  0  0  0  0  0  0  0  0  0
  -17.9858  -27.2970   22.6327 C   0  0  0  0  0  0  0  0  0  0  0  0
  -24.2034  -25.7883   23.8517 C   0  0  0  0  0  0  0  0  0  0  0  0
  -25.9960  -28.1253   24.1166 C   0  0  0  0  0  0  0  0  0  0  0  0
  -18.7889  -27.9927   23.7288 C   0  0  0  0  0  0  0  0  0  0  0  0
  -27.7111  -20.0398   22.4672 C   0  0  0  0  0  0  0  0  0  0  0  0
  -19.8682  -28.8807   23.1178 C   0  0  0  0  0  0  0  0  0  0  0  0
  -27.7004  -18.5097   22.4948 C   0  0  0  0  0  0  0  0  0  0  0  0
  -26.8274  -20.5931   21.3507 C   0  0  0  0  0  0  0  0  0  0  0  0
  -27.0952  -18.5237   20.0411 C   0  0  0  0  0  0  0  0  0  0  0  0
  -20.8642  -28.0529   22.2967 C   0  0  1  0  0  0  0  0  0  0  0  0
  -23.7572  -27.0674   24.5534 C   0  0  1  0  0  0  0  0  0  0  0  0
  -28.0221  -17.9188   21.1082 C   0  0  2  0  0  0  0  0  0  0  0  0
  -29.0554  -29.0030   29.8624 C   0  0  0  0  0  0  0  0  0  0  0  0
  -27.4244  -27.6978   13.9312 C   0  0  0  0  0  0  0  0  0  0  0  0
  -26.1654  -25.8307   15.0206 C   0  0  0  0  0  0  0  0  0  0  0  0
  -24.5716  -31.4794   25.6631 C   0  0  0  0  0  0  0  0  0  0  0  0
  -26.4958  -31.8629   27.2183 C   0  0  0  0  0  0  0  0  0  0  0  0
  -24.3624  -30.9069   28.0886 C   0  0  0  0  0  0  0  0  0  0  0  0
  -28.7801  -25.6770   28.0352 C   0  0  0  0  0  0  0  0  0  0  0  0
  -28.6377  -26.2038   15.5480 C   0  0  0  0  0  0  0  0  0  0  0  0
  -30.0179  -24.8619   17.1866 C   0  0  0  0  0  0  0  0  0  0  0  0
  -28.6152  -25.5736   19.1661 C   0  0  0  0  0  0  0  0  0  1  0  0
  -25.8658  -29.4737   26.6472 C   0  0  1  0  0  0  0  0  0  0  0  0
  -28.3653  -27.9257   29.0402 C   0  0  2  0  0  0  0  0  0  0  0  0
  -27.5259  -26.2714   14.4792 C   0  0  0  0  0  0  0  0  0  0  0  0
  -28.8474  -24.8175   16.1852 C   0  0  2  0  0  0  0  0  0  0  0  0
  -29.8327  -25.9001   18.3035 C   0  0  1  0  0  0  0  0  0  0  0  0
  -25.3264  -30.9129   26.8823 C   0  0  0  0  0  0  0  0  0  0  0  0
  -29.1531  -20.2936   14.3891 N   0  0  0  0  0  0  0  0  0  0  0  0
  -26.8138  -15.7922   20.7934 N   0  0  0  0  0  0  0  0  0  0  0  0
  -28.5393  -22.0284   16.5054 N   0  0  0  0  0  0  0  0  0  0  0  0
  -27.9667  -16.4025   21.1165 N   0  0  0  0  0  0  0  0  0  0  0  0
  -24.8828  -27.8650   25.0442 N   0  0  0  0  0  0  0  0  0  0  0  0
  -27.1925  -19.9915   20.0663 N   0  0  0  0  0  0  0  0  0  0  0  0
  -29.7514  -22.1593   13.0521 N   0  0  0  0  0  0  0  0  0  0  0  0
  -30.2055  -15.9871   21.7690 N   0  0  0  0  0  0  0  0  0  0  0  0
  -28.4616  -11.8441   21.3325 N   0  0  0  0  0  0  0  0  0  0  0  0
  -27.9426  -20.1356   17.8349 N   0  0  0  0  0  0  0  0  0  0  0  0
  -29.1394  -23.8464   15.1503 N   0  0  0  0  0  0  0  0  0  0  0  0
  -21.7944  -27.3698   23.1699 N   0  0  0  0  0  0  0  0  0  0  0  0
  -26.5616  -28.9015   27.7948 N   0  0  0  0  0  0  0  0  0  0  0  0
  -29.3335  -26.8160   28.8122 N   0  3  0  0  0  0  0  0  0  0  0  0
  -30.3535  -13.0201   21.8770 O   0  0  0  0  0  0  0  0  0  0  0  0
  -23.3214  -29.1062   23.4453 O   0  0  0  0  0  0  0  0  0  0  0  0
  -23.8502  -28.3035   27.0882 O   0  0  0  0  0  0  0  0  0  0  0  0
  -28.5755  -28.5242   26.7089 O   0  0  0  0  0  0  0  0  0  0  0  0
  -27.6348  -22.0491   19.1098 O   0  0  0  0  0  0  0  0  0  0  0  0
  -30.9913  -25.9228   19.1372 O   0  0  0  0  0  0  0  0  0  0  0  0
  -23.2376  -10.6101   19.8418 O   0  0  0  0  0  0  0  0  0  0  0  0
  -28.4671  -26.5542   20.1877 O   0  0  0  0  0  0  0  0  0  1  0  0
  -22.8001   -6.3943   23.3689 F   0  0  0  0  0  0  0  0  0  0  0  0
  -20.8761  -10.1350   21.1984 F   0  0  0  0  0  0  0  0  0  0  0  0
  1  2  1  0  0  0  0
  1  5  2  0  0  0  0
  2  6  2  0  0  0  0
  3  8  2  0  0  0  0
  3 16  1  0  0  0  0
  4  9  1  0  0  0  0
  4 16  2  0  0  0  0
  5 18  1  0  0  0  0
  6 20  1  0  0  0  0
  7 10  2  0  0  0  0
  7 19  1  0  0  0  0
  8 22  1  0  0  0  0
  9 22  2  0  0  0  0
 10 23  1  0  0  0  0
 11 12  2  0  0  0  0
 11 24  1  0  0  0  0
 12 25  1  0  0  0  0
 13 21  1  0  0  0  0
 13 23  2  0  0  0  0
 14 25  2  0  0  0  0
 14 26  1  0  0  0  0
 15 28  1  0  0  0  0
 15 65  2  0  0  0  0
 16 27  1  0  0  0  0
 17 27  1  0  0  0  0
 17 31  2  0  0  0  0
 17 32  1  0  0  0  0
 18 20  2  0  0  0  0
 18 37  1  0  0  0  0
 19 21  2  0  0  0  0
 19 38  1  0  0  0  0
 20 46  1  0  0  0  0
 21 39  1  0  0  0  0
 22 85  1  0  0  0  0
 23 86  1  0  0  0  0
 24 26  2  0  0  0  0
 24 85  1  0  0  0  0
 25 87  1  0  0  0  0
 26 88  1  0  0  0  0
 27 66  2  0  0  0  0
 28 67  2  0  0  0  0
 28 74  1  0  0  0  0
 29 30  2  0  0  0  0
 29 65  1  0  0  0  0
 29 71  1  0  0  0  0
 30 67  1  0  0  0  0
 30 75  1  0  0  0  0
 31 68  1  0  0  0  0
 31 72  1  0  0  0  0
 32 73  1  0  0  0  0
 32 79  2  0  0  0  0
 33 47  1  0  0  0  0
 33 76  1  0  0  0  0
 33 80  2  0  0  0  0
 34 59  1  0  0  0  0
 34 69  1  0  0  0  0
 34 81  2  0  0  0  0
 35 60  1  0  0  0  0
 35 77  1  0  0  0  0
 35 82  2  0  0  0  0
 36 70  1  0  0  0  0
 36 74  1  0  0  0  0
 36 83  2  0  0  0  0
 37 40  1  0  0  0  0
 38 47  1  0  0  0  0
 39 69  1  0  0  0  0
 40 42  1  0  0  0  0
 41 43  1  0  0  0  0
 41 44  1  0  0  0  0
 42 46  1  0  0  0  0
 43 48  1  0  0  0  0
 44 70  1  0  0  0  0
 45 48  1  0  0  0  0
 45 70  1  0  0  0  0
 46 76  1  0  0  0  0
 47 69  1  0  0  0  0
 48 68  1  0  0  0  0
 49 60  1  0  0  0  0
 50 61  1  0  0  0  0
 51 61  1  0  0  0  0
 52 64  1  0  0  0  0
 53 64  1  0  0  0  0
 54 64  1  0  0  0  0
 55 78  1  0  0  0  0
 56 61  1  0  0  0  0
 56 62  1  0  0  0  0
 57 62  1  0  0  0  0
 57 63  1  0  0  0  0
 58 63  1  0  0  0  0
 58 86  1  0  0  0  0
 59 64  1  0  0  0  0
 59 77  1  0  0  0  0
 60 78  1  0  0  0  0
 62 75  1  0  0  0  0
 63 84  1  0  0  0  0
 66 68  1  0  0  0  0
M  CHG  1  78   1
M  ISO  4  36 100  58 101  74 100  86 101
M  END
> <Batch ID>
0193

> <Smiles>
CNC(C)C(=O)NC(C(=O)N1Cc2cc([101O:1][101CH2:1]C(O)CC(CC(C)C)Nc3nc([100NH:0][100C:0](=O)N4CCCC(n5nc(-c6ccc(Oc7ccc(F)cc7F)cc6)c(C(N)=O)c5N)C4)cnc3N)ccc2CC1C(=O)NC1CCCc2ccccc21)C(C)(C)C

> <Shape>
0.234

> <Color>
0.087

> <Negative vol penalty>
0.000

$$$$

  -OEChem-04052305303D

 88 96  0     1  0  0  0  0  0999 V2000
  -20.9827  -30.3535   24.8215 C   0  0  0  0  0  0  0  0  0  0  0  0
  -21.5099  -29.2012   25.3957 C   0  0  0  0  0  0  0  0  0  0  0  0
  -30.0935  -23.6969   19.2266 C   0  0  0  0  0  0  0  0  0  0  0  0
  -28.1791  -23.2434   20.6288 C   0  0  0  0  0  0  0  0  0  0  0  0
  -20.1134  -30.2550   23.7359 C   0  0  0  0  0  0  0  0  0  0  0  0
  -21.1673  -27.9496   24.8852 C   0  0  0  0  0  0  0  0  0  0  0  0
  -23.8751  -21.3917   23.8964 C   0  0  0  0  0  0  0  0  0  0  0  0
  -29.8389  -25.0651   19.3215 C   0  0  0  0  0  0  0  0  0  0  0  0
  -27.9245  -24.6115   20.7238 C   0  0  0  0  0  0  0  0  0  0  0  0
  -23.5789  -20.0540   24.1543 C   0  0  0  0  0  0  0  0  0  0  0  0
  -26.5194  -27.0225   18.8149 C   0  0  0  0  0  0  0  0  0  0  0  0
  -25.2010  -27.4490   18.6555 C   0  0  0  0  0  0  0  0  0  0  0  0
  -22.1304  -20.0091   22.2258 C   0  0  0  0  0  0  0  0  0  0  0  0
  -25.2370  -28.3919   20.8796 C   0  0  0  0  0  0  0  0  0  0  0  0
  -29.2635  -22.7861   19.8802 C   0  0  0  0  0  0  0  0  0  0  0  0
  -30.3337  -20.5967   20.6345 C   0  0  0  0  0  0  0  0  0  0  0  0
  -19.7676  -29.0020   23.2057 C   0  0  0  0  0  0  0  0  0  0  0  0
  -23.2917  -22.0524   22.8057 C   0  0  0  0  0  0  0  0  0  0  0  0
  -20.2915  -27.8342   23.7923 C   0  0  0  0  0  0  0  0  0  0  0  0
  -22.4228  -21.3545   21.9547 C   0  0  0  0  0  0  0  0  0  0  0  0
  -28.7544  -25.5224   20.0701 C   0  0  0  0  0  0  0  0  0  0  0  0
  -22.7042  -19.3633   23.3207 C   0  0  0  0  0  0  0  0  0  0  0  0
  -27.1967  -27.2807   20.0067 C   0  0  0  0  0  0  0  0  0  0  0  0
  -24.5598  -28.1337   19.6878 C   0  0  0  0  0  0  0  0  0  0  0  0
  -26.5555  -27.9654   21.0390 C   0  0  0  0  0  0  0  0  0  0  0  0
  -29.5256  -21.3727   19.7820 C   0  0  0  0  0  0  0  0  0  0  0  0
  -26.1192  -13.0716   20.2378 C   0  0  0  0  0  0  0  0  0  0  0  0
  -30.2559  -19.3261   20.1188 C   0  0  0  0  0  0  0  0  0  0  0  0
  -25.4887  -11.8518   20.1085 C   0  0  0  0  0  0  0  0  0  0  0  0
  -24.2200  -13.5773   21.2113 C   0  0  0  0  0  0  0  0  0  0  0  0
  -31.0871  -20.9893   21.7894 C   0  0  0  0  0  0  0  0  0  0  0  0
  -21.3576  -24.5525   22.4707 C   0  0  0  0  0  0  0  0  0  0  0  0
  -21.9256  -24.0751   19.3128 C   0  0  0  0  0  0  0  0  0  0  0  0
  -22.8367  -21.9228   16.8260 C   0  0  0  0  0  0  0  0  0  0  0  0
  -27.2821  -15.1149   17.9814 C   0  0  0  0  0  0  0  0  0  0  0  0
  -18.7870  -28.9436   22.0613 C   0  0  0  0  0  0  0  0  0  0  0  0
  -23.6423  -23.4880   22.5255 C   0  0  0  0  0  0  0  0  0  0  0  0
  -21.7860  -22.0124   20.7588 C   0  0  0  0  0  0  0  0  0  0  0  0
  -18.7688  -27.5968   21.3429 C   0  0  0  0  0  0  0  0  0  0  0  0
  -28.3539  -17.6624   15.7368 C   0  0  0  0  0  0  0  0  0  0  0  0
  -18.7209  -26.4541   22.3522 C   0  0  0  0  0  0  0  0  0  0  0  0
  -28.8148  -18.7924   16.6592 C   0  0  0  0  0  0  0  0  0  0  0  0
  -27.1387  -16.9316   16.3034 C   0  0  0  0  0  0  0  0  0  0  0  0
  -27.7651  -17.5598   18.6027 C   0  0  0  0  0  0  0  0  0  0  0  0
  -19.9632  -26.4597   23.2512 C   0  0  1  0  0  0  0  0  0  0  0  0
  -22.5912  -24.2068   21.6854 C   0  0  1  0  0  0  0  0  0  0  0  0
  -29.0223  -18.2902   18.1007 C   0  0  2  0  0  0  0  0  0  0  0  0
  -23.4649  -21.1631   14.5183 C   0  0  0  0  0  0  0  0  0  0  0  0
  -30.2802  -11.8439   19.4437 C   0  0  0  0  0  0  0  0  0  0  0  0
  -30.4339  -14.3232   19.6708 C   0  0  0  0  0  0  0  0  0  0  0  0
  -30.9897  -12.8654   21.6191 C   0  0  0  0  0  0  0  0  0  0  0  0
  -18.9022  -23.9956   18.9091 C   0  0  0  0  0  0  0  0  0  0  0  0
  -19.2992  -22.9591   16.6650 C   0  0  0  0  0  0  0  0  0  0  0  0
  -20.1572  -25.2512   17.1476 C   0  0  0  0  0  0  0  0  0  0  0  0
  -25.7002  -22.5128   17.2856 C   0  0  0  0  0  0  0  0  0  0  0  0
  -28.5694  -13.1417   20.8554 C   0  0  0  0  0  0  0  0  0  0  0  0
  -23.3856  -15.6863   22.2512 C   0  0  0  0  0  0  0  0  0  0  0  0
  -23.4250  -17.2760   24.2035 C   0  0  0  0  0  0  0  0  0  1  0  0
  -27.4811  -13.4054   19.7694 C   0  0  2  0  0  0  0  0  0  0  0  0
  -21.2786  -23.2562   18.2221 C   0  0  1  0  0  0  0  0  0  0  0  0
  -23.8331  -22.0610   15.6891 C   0  0  2  0  0  0  0  0  0  0  0  0
  -23.2732  -15.8225   23.7684 C   0  0  1  0  0  0  0  0  0  0  0  0
  -30.0557  -13.0199   20.4060 C   0  0  0  0  0  0  0  0  0  0  0  0
  -19.9197  -23.8534   17.7595 C   0  0  0  0  0  0  0  0  0  0  0  0
  -28.9751  -20.6550   18.7991 N   0  0  0  0  0  0  0  0  0  0  0  0
  -25.3931  -14.0623   20.8695 N   0  0  0  0  0  0  0  0  0  0  0  0
  -29.4381  -19.4149   19.0308 N   0  0  0  0  0  0  0  0  0  0  0  0
  -22.1553  -23.4191   20.5305 N   0  0  0  0  0  0  0  0  0  0  0  0
  -27.4015  -16.4799   17.6719 N   0  0  0  0  0  0  0  0  0  0  0  0
  -30.8079  -18.1528   20.4942 N   0  0  0  0  0  0  0  0  0  0  0  0
  -25.9671  -10.7199   19.5377 N   0  0  0  0  0  0  0  0  0  0  0  0
  -31.0565  -22.3345   22.1815 N   0  0  0  0  0  0  0  0  0  0  0  0
  -23.2370  -14.3011   21.8647 N   0  0  0  0  0  0  0  0  0  0  0  0
  -21.1001  -25.9081   22.5457 N   0  0  0  0  0  0  0  0  0  0  0  0
  -22.2708  -23.1352   17.1594 N   0  0  0  0  0  0  0  0  0  0  0  0
  -27.5549  -14.7710   19.2997 N   0  0  0  0  0  0  0  0  0  0  0  0
  -25.2011  -21.6929   16.1517 N   0  3  0  0  0  0  0  0  0  0  0  0
  -31.7805  -20.1746   22.4444 O   0  0  0  0  0  0  0  0  0  0  0  0
  -20.6882  -23.6558   22.9701 O   0  0  0  0  0  0  0  0  0  0  0  0
  -22.2229  -25.2514   19.0902 O   0  0  0  0  0  0  0  0  0  0  0  0
  -22.5828  -20.8464   17.3620 O   0  0  0  0  0  0  0  0  0  0  0  0
  -26.9617  -14.2650   17.1436 O   0  0  0  0  0  0  0  0  0  0  0  0
  -21.9800  -15.3773   24.1829 O   0  0  0  0  0  0  0  0  0  0  0  0
  -28.5059  -26.8573   20.1632 O   0  0  0  0  0  0  0  0  0  0  0  0
  -22.4128  -18.0577   23.5705 O   0  0  0  0  0  0  0  0  0  1  0  0
  -23.2942  -28.5445   19.5340 F   0  0  0  0  0  0  0  0  0  0  0  0
  -27.2014  -28.2174   22.1858 F   0  0  0  0  0  0  0  0  0  0  0  0
  -23.9234  -11.9367   20.8043 S   0  0  0  0  0  0  0  0  0  0  0  0
  1  2  1  0  0  0  0
  1  5  2  0  0  0  0
  2  6  2  0  0  0  0
  3  8  2  0  0  0  0
  3 15  1  0  0  0  0
  4  9  1  0  0  0  0
  4 15  2  0  0  0  0
  5 17  1  0  0  0  0
  6 19  1  0  0  0  0
  7 10  2  0  0  0  0
  7 18  1  0  0  0  0
  8 21  1  0  0  0  0
  9 21  2  0  0  0  0
 10 22  1  0  0  0  0
 11 12  2  0  0  0  0
 11 23  1  0  0  0  0
 12 24  1  0  0  0  0
 13 20  1  0  0  0  0
 13 22  2  0  0  0  0
 14 24  2  0  0  0  0
 14 25  1  0  0  0  0
 15 26  1  0  0  0  0
 16 26  1  0  0  0  0
 16 28  2  0  0  0  0
 16 31  1  0  0  0  0
 17 19  2  0  0  0  0
 17 36  1  0  0  0  0
 18 20  2  0  0  0  0
 18 37  1  0  0  0  0
 19 45  1  0  0  0  0
 20 38  1  0  0  0  0
 21 84  1  0  0  0  0
 22 85  1  0  0  0  0
 23 25  2  0  0  0  0
 23 84  1  0  0  0  0
 24 86  1  0  0  0  0
 25 87  1  0  0  0  0
 26 65  2  0  0  0  0
 27 29  2  0  0  0  0
 27 59  1  0  0  0  0
 27 66  1  0  0  0  0
 28 67  1  0  0  0  0
 28 70  1  0  0  0  0
 29 71  1  0  0  0  0
 29 88  1  0  0  0  0
 30 66  2  0  0  0  0
 30 73  1  0  0  0  0
 30 88  1  0  0  0  0
 31 72  1  0  0  0  0
 31 78  2  0  0  0  0
 32 46  1  0  0  0  0
 32 74  1  0  0  0  0
 32 79  2  0  0  0  0
 33 60  1  0  0  0  0
 33 68  1  0  0  0  0
 33 80  2  0  0  0  0
 34 61  1  0  0  0  0
 34 75  1  0  0  0  0
 34 81  2  0  0  0  0
 35 69  1  0  0  0  0
 35 76  1  0  0  0  0
 35 82  2  0  0  0  0
 36 39  1  0  0  0  0
 37 46  1  0  0  0  0
 38 68  1  0  0  0  0
 39 41  1  0  0  0  0
 40 42  1  0  0  0  0
 40 43  1  0  0  0  0
 41 45  1  0  0  0  0
 42 47  1  0  0  0  0
 43 69  1  0  0  0  0
 44 47  1  0  0  0  0
 44 69  1  0  0  0  0
 45 74  1  0  0  0  0
 46 68  1  0  0  0  0
 47 67  1  0  0  0  0
 48 61  1  0  0  0  0
 49 63  1  0  0  0  0
 50 63  1  0  0  0  0
 51 63  1  0  0  0  0
 52 64  1  0  0  0  0
 53 64  1  0  0  0  0
 54 64  1  0  0  0  0
 55 77  1  0  0  0  0
 56 59  1  0  0  0  0
 56 63  1  0  0  0  0
 57 62  1  0  0  0  0
 57 73  1  0  0  0  0
 58 62  1  0  0  0  0
 58 85  1  0  0  0  0
 59 76  1  0  0  0  0
 60 64  1  0  0  0  0
 60 75  1  0  0  0  0
 61 77  1  0  0  0  0
 62 83  1  0  0  0  0
 65 67  1  0  0  0  0
M  CHG  1  77   1
M  ISO  4  35 100  58 101  76 100  85 101
M  END
> <Batch ID>
0193

> <Smiles>
CNC(C)C(=O)NC(C(=O)N1Cc2cc([101O:1][101CH2:1]C(O)CNc3nc(C(CC(C)(C)C)[100NH:0][100C:0](=O)N4CCCC(n5nc(-c6ccc(Oc7ccc(F)cc7F)cc6)c(C(N)=O)c5N)C4)c(N)s3)ccc2CC1C(=O)NC1CCCc2ccccc21)C(C)(C)C

> <Shape>
0.225

> <Color>
0.082

> <Negative vol penalty>
0.000

$$$$

  -OEChem-04052305303D

 84 92  0     1  0  0  0  0  0999 V2000
  -28.6168  -11.2131   19.0281 C   0  0  0  0  0  0  0  0  0  0  0  0
  -28.6876  -12.5917   18.8551 C   0  0  0  0  0  0  0  0  0  0  0  0
  -19.8913  -28.6270   23.4714 C   0  0  0  0  0  0  0  0  0  0  0  0
  -20.9362  -26.7823   22.3128 C   0  0  0  0  0  0  0  0  0  0  0  0
  -27.4763  -10.6397   19.5888 C   0  0  0  0  0  0  0  0  0  0  0  0
  -27.6174  -13.3976   19.2418 C   0  0  0  0  0  0  0  0  0  0  0  0
  -29.1071  -17.5234   21.7722 C   0  0  0  0  0  0  0  0  0  0  0  0
  -18.6760  -28.3242   22.8576 C   0  0  0  0  0  0  0  0  0  0  0  0
  -19.7208  -26.4794   21.6990 C   0  0  0  0  0  0  0  0  0  0  0  0
  -29.6218  -18.5795   21.0214 C   0  0  0  0  0  0  0  0  0  0  0  0
  -16.8089  -24.9987   20.1032 C   0  0  0  0  0  0  0  0  0  0  0  0
  -16.4188  -23.6602   20.0605 C   0  0  0  0  0  0  0  0  0  0  0  0
  -27.4960  -19.7105   21.1663 C   0  0  0  0  0  0  0  0  0  0  0  0
  -16.4475  -23.5749   22.4748 C   0  0  0  0  0  0  0  0  0  0  0  0
  -28.8400  -27.1643   19.9538 C   0  0  0  0  0  0  0  0  0  0  0  0
  -21.0214  -27.8561   23.1990 C   0  0  0  0  0  0  0  0  0  0  0  0
  -22.7583  -27.6710   25.0582 C   0  0  0  0  0  0  0  0  0  0  0  0
  -26.3955  -11.4399   19.9914 C   0  0  0  0  0  0  0  0  0  0  0  0
  -27.7775  -17.5480   22.2170 C   0  0  0  0  0  0  0  0  0  0  0  0
  -26.4608  -12.8342   19.8071 C   0  0  0  0  0  0  0  0  0  0  0  0
  -26.9676  -18.6547   21.9246 C   0  0  0  0  0  0  0  0  0  0  0  0
  -18.5907  -27.2504   21.9714 C   0  0  0  0  0  0  0  0  0  0  0  0
  -28.8154  -19.6720   20.7159 C   0  0  0  0  0  0  0  0  0  0  0  0
  -17.0184  -25.6253   21.3317 C   0  0  0  0  0  0  0  0  0  0  0  0
  -16.2381  -22.9483   21.2463 C   0  0  0  0  0  0  0  0  0  0  0  0
  -16.8376  -24.9134   22.5175 C   0  0  0  0  0  0  0  0  0  0  0  0
  -22.2773  -28.1687   23.8324 C   0  0  0  0  0  0  0  0  0  0  0  0
  -29.0310  -28.4941   20.2694 C   0  0  0  0  0  0  0  0  0  0  0  0
  -29.8919  -26.5468   19.3085 C   0  0  0  0  0  0  0  0  0  0  0  0
  -23.9857  -28.2677   25.2132 C   0  0  0  0  0  0  0  0  0  0  0  0
  -31.1106  -28.4651   19.3519 C   0  0  0  0  0  0  0  0  0  0  0  0
  -22.1502  -26.7514   25.9748 C   0  0  0  0  0  0  0  0  0  0  0  0
  -25.2119  -15.7385   21.7197 C   0  0  0  0  0  0  0  0  0  0  0  0
  -23.9000  -17.6593   23.9807 C   0  0  0  0  0  0  0  0  0  0  0  0
  -23.9274  -20.6620   25.6024 C   0  0  0  0  0  0  0  0  0  0  0  0
  -27.9561  -30.5017   21.3466 C   0  0  0  0  0  0  0  0  0  0  0  0
  -25.1646  -10.7702   20.5491 C   0  0  0  0  0  0  0  0  0  0  0  0
  -27.2454  -16.4132   23.0486 C   0  0  0  0  0  0  0  0  0  0  0  0
  -25.5396  -18.7389   22.3959 C   0  0  0  0  0  0  0  0  0  0  0  0
  -24.2264  -11.7292   21.2772 C   0  0  0  0  0  0  0  0  0  0  0  0
  -26.3959  -32.2353   24.0368 C   0  0  0  0  0  0  0  0  0  0  0  0
  -24.0105  -12.9940   20.4523 C   0  0  0  0  0  0  0  0  0  0  0  0
  -25.2100  -31.3409   24.4053 C   0  0  0  0  0  0  0  0  0  0  0  0
  -26.6475  -32.2515   22.5301 C   0  0  0  0  0  0  0  0  0  0  0  0
  -25.6051  -30.0335   22.2788 C   0  0  0  0  0  0  0  0  0  0  0  0
  -25.3305  -13.7441   20.2368 C   0  0  1  0  0  0  0  0  0  0  0  0
  -25.7239  -16.3082   23.0125 C   0  0  1  0  0  0  0  0  0  0  0  0
  -25.3533  -29.9340   23.7922 C   0  0  2  0  0  0  0  0  0  0  0  0
  -32.3706  -29.1880   19.0158 C   0  0  0  0  0  0  0  0  0  0  0  0
  -22.7092  -21.9546   27.3751 C   0  0  0  0  0  0  0  0  0  0  0  0
  -30.7257  -24.7878   16.8125 C   0  0  0  0  0  0  0  0  0  0  0  0
  -21.6343  -18.2158   22.0144 C   0  0  0  0  0  0  0  0  0  0  0  0
  -20.9898  -20.1837   23.4217 C   0  0  0  0  0  0  0  0  0  0  0  0
  -20.9023  -17.8833   24.3825 C   0  0  0  0  0  0  0  0  0  0  0  0
  -26.3457  -20.8384   27.2993 C   0  0  0  0  0  0  0  0  0  0  0  0
  -30.9806  -22.4549   19.8898 C   0  0  0  0  0  0  0  0  0  0  0  0
  -30.5107  -22.9360   18.5099 C   0  0  0  0  0  0  0  0  0  0  0  0
  -30.7119  -20.9694   20.1030 C   0  0  0  0  0  0  0  0  0  1  0  0
  -23.1477  -18.9680   23.9662 C   0  0  1  0  0  0  0  0  0  0  0  0
  -23.8637  -21.0102   27.0786 C   0  0  2  0  0  0  0  0  0  0  0  0
  -30.7563  -24.4362   18.2965 C   0  0  2  0  0  0  0  0  0  0  0  0
  -21.6948  -18.8106   23.4355 C   0  0  0  0  0  0  0  0  0  0  0  0
  -23.1295  -29.0165   23.2500 N   0  0  0  0  0  0  0  0  0  0  0  0
  -30.1579  -29.1782   19.9823 N   0  0  0  0  0  0  0  0  0  0  0  0
  -31.0460  -27.1693   18.9908 N   0  0  0  0  0  0  0  0  0  0  0  0
  -24.1583  -29.0562   24.1137 N   0  0  0  0  0  0  0  0  0  0  0  0
  -25.0635  -17.6015   23.2004 N   0  0  0  0  0  0  0  0  0  0  0  0
  -26.7770  -30.8847   22.0203 N   0  0  0  0  0  0  0  0  0  0  0  0
  -24.9232  -28.1898   26.1813 N   0  0  0  0  0  0  0  0  0  0  0  0
  -20.8862  -26.2333   25.6614 N   0  0  0  0  0  0  0  0  0  0  0  0
  -27.9786  -29.1692   20.9360 N   0  0  0  0  0  0  0  0  0  0  0  0
  -29.7400  -25.2127   18.9757 N   0  0  0  0  0  0  0  0  0  0  0  0
  -25.6959  -14.4771   21.4300 N   0  0  0  0  0  0  0  0  0  0  0  0
  -23.2345  -19.5037   25.3204 N   0  0  0  0  0  0  0  0  0  0  0  0
  -25.1302  -21.6657   27.5113 N   0  3  0  0  0  0  0  0  0  0  0  0
  -22.7038  -26.4123   27.0481 O   0  0  0  0  0  0  0  0  0  0  0  0
  -24.4342  -16.3943   21.0365 O   0  0  0  0  0  0  0  0  0  0  0  0
  -23.4751  -16.7250   24.6650 O   0  0  0  0  0  0  0  0  0  0  0  0
  -24.5284  -21.3508   24.7809 O   0  0  0  0  0  0  0  0  0  0  0  0
  -28.8891  -31.2898   21.1724 O   0  0  0  0  0  0  0  0  0  0  0  0
  -17.4048  -26.9545   21.3724 O   0  0  0  0  0  0  0  0  0  0  0  0
  -29.3150  -20.7038   19.9828 O   0  0  0  0  0  0  0  0  0  1  0  0
  -15.8620  -21.6634   21.2052 F   0  0  0  0  0  0  0  0  0  0  0  0
  -17.0362  -25.5103   23.7008 F   0  0  0  0  0  0  0  0  0  0  0  0
  1  2  1  0  0  0  0
  1  5  2  0  0  0  0
  2  6  2  0  0  0  0
  3  8  2  0  0  0  0
  3 16  1  0  0  0  0
  4  9  1  0  0  0  0
  4 16  2  0  0  0  0
  5 18  1  0  0  0  0
  6 20  1  0  0  0  0
  7 10  2  0  0  0  0
  7 19  1  0  0  0  0
  8 22  1  0  0  0  0
  9 22  2  0  0  0  0
 10 23  1  0  0  0  0
 11 12  2  0  0  0  0
 11 24  1  0  0  0  0
 12 25  1  0  0  0  0
 13 21  1  0  0  0  0
 13 23  2  0  0  0  0
 14 25  2  0  0  0  0
 14 26  1  0  0  0  0
 15 28  2  0  0  0  0
 15 29  1  0  0  0  0
 16 27  1  0  0  0  0
 17 27  1  0  0  0  0
 17 30  2  0  0  0  0
 17 32  1  0  0  0  0
 18 20  2  0  0  0  0
 18 37  1  0  0  0  0
 19 21  2  0  0  0  0
 19 38  1  0  0  0  0
 20 46  1  0  0  0  0
 21 39  1  0  0  0  0
 22 81  1  0  0  0  0
 23 82  1  0  0  0  0
 24 26  2  0  0  0  0
 24 81  1  0  0  0  0
 25 83  1  0  0  0  0
 26 84  1  0  0  0  0
 27 63  2  0  0  0  0
 28 64  1  0  0  0  0
 28 71  1  0  0  0  0
 29 65  2  0  0  0  0
 29 72  1  0  0  0  0
 30 66  1  0  0  0  0
 30 69  1  0  0  0  0
 31 49  1  0  0  0  0
 31 64  2  0  0  0  0
 31 65  1  0  0  0  0
 32 70  1  0  0  0  0
 32 76  2  0  0  0  0
 33 47  1  0  0  0  0
 33 73  1  0  0  0  0
 33 77  2  0  0  0  0
 34 59  1  0  0  0  0
 34 67  1  0  0  0  0
 34 78  2  0  0  0  0
 35 60  1  0  0  0  0
 35 74  1  0  0  0  0
 35 79  2  0  0  0  0
 36 68  1  0  0  0  0
 36 71  1  0  0  0  0
 36 80  2  0  0  0  0
 37 40  1  0  0  0  0
 38 47  1  0  0  0  0
 39 67  1  0  0  0  0
 40 42  1  0  0  0  0
 41 43  1  0  0  0  0
 41 44  1  0  0  0  0
 42 46  1  0  0  0  0
 43 48  1  0  0  0  0
 44 68  1  0  0  0  0
 45 48  1  0  0  0  0
 45 68  1  0  0  0  0
 46 73  1  0  0  0  0
 47 67  1  0  0  0  0
 48 66  1  0  0  0  0
 50 60  1  0  0  0  0
 51 61  1  0  0  0  0
 52 62  1  0  0  0  0
 53 62  1  0  0  0  0
 54 62  1  0  0  0  0
 55 75  1  0  0  0  0
 56 57  1  0  0  0  0
 56 58  1  0  0  0  0
 57 61  1  0  0  0  0
 58 82  1  0  0  0  0
 59 62  1  0  0  0  0
 59 74  1  0  0  0  0
 60 75  1  0  0  0  0
 61 72  1  0  0  0  0
 63 66  1  0  0  0  0
M  CHG  1  75   1
M  ISO  4  36 100  58 101  71 100  82 101
M  END
> <Batch ID>
0193

> <Smiles>
CNC(C)C(=O)NC(C(=O)N1Cc2cc([101O:1][101CH2:1]CCC(C)Nc3cc([100NH:0][100C:0](=O)N4CCCC(n5nc(-c6ccc(Oc7ccc(F)cc7F)cc6)c(C(N)=O)c5N)C4)nc(C)n3)ccc2CC1C(=O)NC1CCCc2ccccc21)C(C)(C)C

> <Shape>
0.248

> <Color>
0.070

> <Negative vol penalty>
0.000

$$$$

  -OEChem-04052305303D

 82 90  0     1  0  0  0  0  0999 V2000
  -28.3049  -11.7211   18.0725 C   0  0  0  0  0  0  0  0  0  0  0  0
  -28.4325  -13.1064   18.0638 C   0  0  0  0  0  0  0  0  0  0  0  0
  -19.5687  -28.3832   21.9535 C   0  0  0  0  0  0  0  0  0  0  0  0
  -20.8154  -27.0158   23.5068 C   0  0  0  0  0  0  0  0  0  0  0  0
  -27.1039  -11.1353   18.4703 C   0  0  0  0  0  0  0  0  0  0  0  0
  -27.3586  -13.9068   18.4519 C   0  0  0  0  0  0  0  0  0  0  0  0
  -28.7548  -17.6637   21.5472 C   0  0  0  0  0  0  0  0  0  0  0  0
  -18.5422  -27.4388   21.9459 C   0  0  0  0  0  0  0  0  0  0  0  0
  -19.7890  -26.0714   23.4993 C   0  0  0  0  0  0  0  0  0  0  0  0
  -29.3636  -18.7750   20.9656 C   0  0  0  0  0  0  0  0  0  0  0  0
  -17.3373  -23.4714   24.1683 C   0  0  0  0  0  0  0  0  0  0  0  0
  -16.9282  -22.9474   25.3945 C   0  0  0  0  0  0  0  0  0  0  0  0
  -27.2690  -19.9674   21.0659 C   0  0  0  0  0  0  0  0  0  0  0  0
  -16.3340  -25.1659   26.1443 C   0  0  0  0  0  0  0  0  0  0  0  0
  -20.7053  -28.1717   22.7339 C   0  0  0  0  0  0  0  0  0  0  0  0
  -21.9004  -30.2501   23.6056 C   0  0  0  0  0  0  0  0  0  0  0  0
  -26.0179  -11.9287   18.8727 C   0  0  0  0  0  0  0  0  0  0  0  0
  -27.3937  -17.6922   21.8831 C   0  0  0  0  0  0  0  0  0  0  0  0
  -26.1415  -13.3311   18.8542 C   0  0  0  0  0  0  0  0  0  0  0  0
  -26.6459  -18.8561   21.6541 C   0  0  0  0  0  0  0  0  0  0  0  0
  -18.6524  -26.2829   22.7189 C   0  0  0  0  0  0  0  0  0  0  0  0
  -28.6199  -19.9260   20.7222 C   0  0  0  0  0  0  0  0  0  0  0  0
  -17.2449  -24.8427   23.9301 C   0  0  0  0  0  0  0  0  0  0  0  0
  -16.4265  -23.7946   26.3825 C   0  0  0  0  0  0  0  0  0  0  0  0
  -16.7432  -25.6899   24.9180 C   0  0  0  0  0  0  0  0  0  0  0  0
  -21.7662  -29.1467   22.7417 C   0  0  0  0  0  0  0  0  0  0  0  0
  -23.0656  -30.8584   23.2072 C   0  0  0  0  0  0  0  0  0  0  0  0
  -30.0649  -26.3618   17.8084 C   0  0  0  0  0  0  0  0  0  0  0  0
  -30.4474  -24.5690   18.8066 C   0  0  0  0  0  0  0  0  0  0  0  0
  -21.0481  -30.6861   24.6729 C   0  0  0  0  0  0  0  0  0  0  0  0
  -24.8250  -16.0534   20.9776 C   0  0  0  0  0  0  0  0  0  0  0  0
  -23.3859  -17.7629   23.3290 C   0  0  0  0  0  0  0  0  0  0  0  0
  -23.3681  -20.5639   25.2786 C   0  0  0  0  0  0  0  0  0  0  0  0
  -27.8248  -28.5691   20.4263 C   0  0  0  0  0  0  0  0  0  0  0  0
  -24.7241  -11.2513   19.2493 C   0  0  0  0  0  0  0  0  0  0  0  0
  -26.7583  -16.4945   22.5344 C   0  0  0  0  0  0  0  0  0  0  0  0
  -25.1863  -18.9447   22.0149 C   0  0  0  0  0  0  0  0  0  0  0  0
  -23.7576  -12.1606   20.0037 C   0  0  0  0  0  0  0  0  0  0  0  0
  -25.8445  -31.5176   19.3924 C   0  0  0  0  0  0  0  0  0  0  0  0
  -23.6514  -13.5167   19.3133 C   0  0  0  0  0  0  0  0  0  0  0  0
  -24.5570  -31.2952   20.1796 C   0  0  0  0  0  0  0  0  0  0  0  0
  -26.4909  -30.2011   18.9638 C   0  0  0  0  0  0  0  0  0  0  0  0
  -25.4393  -29.0390   20.8870 C   0  0  0  0  0  0  0  0  0  0  0  0
  -25.0074  -14.2324   19.2919 C   0  0  1  0  0  0  0  0  0  0  0  0
  -25.2428  -16.4553   22.3638 C   0  0  1  0  0  0  0  0  0  0  0  0
  -24.8055  -30.3533   21.3671 C   0  0  2  0  0  0  0  0  0  0  0  0
  -29.7651  -27.3318   16.7296 C   0  0  0  0  0  0  0  0  0  0  0  0
  -22.0444  -21.6999   27.0826 C   0  0  0  0  0  0  0  0  0  0  0  0
  -32.4100  -22.9347   20.6937 C   0  0  0  0  0  0  0  0  0  0  0  0
  -21.3132  -18.6244   21.2622 C   0  0  0  0  0  0  0  0  0  0  0  0
  -20.6126  -20.4484   22.8275 C   0  0  0  0  0  0  0  0  0  0  0  0
  -20.3732  -18.0611   23.5102 C   0  0  0  0  0  0  0  0  0  0  0  0
  -25.6381  -20.4539   27.1743 C   0  0  0  0  0  0  0  0  0  0  0  0
  -30.6007  -21.2062   20.4160 C   0  0  0  0  0  0  0  0  0  1  0  0
  -30.1895  -28.1079   19.7593 C   0  0  0  0  0  0  0  0  0  0  0  0
  -22.6782  -19.0943   23.4027 C   0  0  1  0  0  0  0  0  0  0  0  0
  -23.1902  -20.7486   26.7748 C   0  0  2  0  0  0  0  0  0  0  0  0
  -30.9393  -22.6949   20.3787 C   0  0  2  0  0  0  0  0  0  0  0  0
  -21.2713  -19.0550   22.7420 C   0  0  0  0  0  0  0  0  0  0  0  0
  -22.7662  -29.0569   21.8608 N   0  0  0  0  0  0  0  0  0  0  0  0
  -30.1890  -25.0180   17.6004 N   0  0  0  0  0  0  0  0  0  0  0  0
  -30.4737  -25.6068   19.6853 N   0  0  0  0  0  0  0  0  0  0  0  0
  -23.5399  -30.1116   22.1690 N   0  0  0  0  0  0  0  0  0  0  0  0
  -30.2302  -26.7726   19.0675 N   0  0  0  0  0  0  0  0  0  0  0  0
  -24.6090  -17.7453   22.6437 N   0  0  0  0  0  0  0  0  0  0  0  0
  -26.6546  -29.2796   20.0993 N   0  0  0  0  0  0  0  0  0  0  0  0
  -23.7205  -31.9538   23.6470 N   0  0  0  0  0  0  0  0  0  0  0  0
  -19.8907  -29.9454   24.9487 N   0  0  0  0  0  0  0  0  0  0  0  0
  -30.6505  -23.2252   19.0613 N   0  0  0  0  0  0  0  0  0  0  0  0
  -25.2928  -14.8134   20.5863 N   0  0  0  0  0  0  0  0  0  0  0  0
  -22.6662  -19.4727   24.8117 N   0  0  0  0  0  0  0  0  0  0  0  0
  -28.9069  -28.7687   19.5761 N   0  0  0  0  0  0  0  0  0  0  0  0
  -24.4350  -21.3008   27.3802 N   0  3  0  0  0  0  0  0  0  0  0  0
  -21.2967  -31.7118   25.3509 O   0  0  0  0  0  0  0  0  0  0  0  0
  -24.1285  -16.8115   20.3129 O   0  0  0  0  0  0  0  0  0  0  0  0
  -22.8759  -16.7763   23.8660 O   0  0  0  0  0  0  0  0  0  0  0  0
  -24.0575  -21.3148   24.5920 O   0  0  0  0  0  0  0  0  0  0  0  0
  -27.8942  -27.8087   21.3977 O   0  0  0  0  0  0  0  0  0  0  0  0
  -17.6508  -25.3612   22.7119 O   0  0  0  0  0  0  0  0  0  0  0  0
  -29.2115  -21.0119   20.1539 O   0  0  0  0  0  0  0  0  0  1  0  0
  -16.0321  -23.2911   27.5594 F   0  0  0  0  0  0  0  0  0  0  0  0
  -16.6509  -27.0080   24.6946 F   0  0  0  0  0  0  0  0  0  0  0  0
  1  2  1  0  0  0  0
  1  5  2  0  0  0  0
  2  6  2  0  0  0  0
  3  8  2  0  0  0  0
  3 15  1  0  0  0  0
  4  9  1  0  0  0  0
  4 15  2  0  0  0  0
  5 17  1  0  0  0  0
  6 19  1  0  0  0  0
  7 10  2  0  0  0  0
  7 18  1  0  0  0  0
  8 21  1  0  0  0  0
  9 21  2  0  0  0  0
 10 22  1  0  0  0  0
 11 12  2  0  0  0  0
 11 23  1  0  0  0  0
 12 24  1  0  0  0  0
 13 20  1  0  0  0  0
 13 22  2  0  0  0  0
 14 24  2  0  0  0  0
 14 25  1  0  0  0  0
 15 26  1  0  0  0  0
 16 26  1  0  0  0  0
 16 27  2  0  0  0  0
 16 30  1  0  0  0  0
 17 19  2  0  0  0  0
 17 35  1  0  0  0  0
 18 20  2  0  0  0  0
 18 36  1  0  0  0  0
 19 44  1  0  0  0  0
 20 37  1  0  0  0  0
 21 79  1  0  0  0  0
 22 80  1  0  0  0  0
 23 25  2  0  0  0  0
 23 79  1  0  0  0  0
 24 81  1  0  0  0  0
 25 82  1  0  0  0  0
 26 60  2  0  0  0  0
 27 63  1  0  0  0  0
 27 67  1  0  0  0  0
 28 47  1  0  0  0  0
 28 61  2  0  0  0  0
 28 64  1  0  0  0  0
 29 61  1  0  0  0  0
 29 62  2  0  0  0  0
 29 69  1  0  0  0  0
 30 68  1  0  0  0  0
 30 74  2  0  0  0  0
 31 45  1  0  0  0  0
 31 70  1  0  0  0  0
 31 75  2  0  0  0  0
 32 56  1  0  0  0  0
 32 65  1  0  0  0  0
 32 76  2  0  0  0  0
 33 57  1  0  0  0  0
 33 71  1  0  0  0  0
 33 77  2  0  0  0  0
 34 66  1  0  0  0  0
 34 72  1  0  0  0  0
 34 78  2  0  0  0  0
 35 38  1  0  0  0  0
 36 45  1  0  0  0  0
 37 65  1  0  0  0  0
 38 40  1  0  0  0  0
 39 41  1  0  0  0  0
 39 42  1  0  0  0  0
 40 44  1  0  0  0  0
 41 46  1  0  0  0  0
 42 66  1  0  0  0  0
 43 46  1  0  0  0  0
 43 66  1  0  0  0  0
 44 70  1  0  0  0  0
 45 65  1  0  0  0  0
 46 63  1  0  0  0  0
 48 57  1  0  0  0  0
 49 58  1  0  0  0  0
 50 59  1  0  0  0  0
 51 59  1  0  0  0  0
 52 59  1  0  0  0  0
 53 73  1  0  0  0  0
 54 58  1  0  0  0  0
 54 80  1  0  0  0  0
 55 64  1  0  0  0  0
 55 72  1  0  0  0  0
 56 59  1  0  0  0  0
 56 71  1  0  0  0  0
 57 73  1  0  0  0  0
 58 69  1  0  0  0  0
 60 63  1  0  0  0  0
 62 64  1  0  0  0  0
M  CHG  1  73   1
M  ISO  4  34 100  54 101  72 100  80 101
M  END
> <Batch ID>
0193

> <Smiles>
CNC(C)C(=O)NC(C(=O)N1Cc2cc([101O:1][101CH2:1]C(C)Nc3nc(C)n(C[100NH:0][100C:0](=O)N4CCCC(n5nc(-c6ccc(Oc7ccc(F)cc7F)cc6)c(C(N)=O)c5N)C4)n3)ccc2CC1C(=O)NC1CCCc2ccccc21)C(C)(C)C

> <Shape>
0.234

> <Color>
0.085

> <Negative vol penalty>
0.000

$$$$

  -OEChem-04052305303D

 77 84  0     1  0  0  0  0  0999 V2000
  -25.3993  -30.9945   24.6120 C   0  0  0  0  0  0  0  0  0  0  0  0
  -25.2837  -29.6141   24.4828 C   0  0  0  0  0  0  0  0  0  0  0  0
  -23.0729   -9.8702   19.9422 C   0  0  0  0  0  0  0  0  0  0  0  0
  -23.8356   -9.8774   22.2346 C   0  0  0  0  0  0  0  0  0  0  0  0
  -26.6300  -31.6130   24.3958 C   0  0  0  0  0  0  0  0  0  0  0  0
  -26.3985  -28.8516   24.1361 C   0  0  0  0  0  0  0  0  0  0  0  0
  -27.7236  -23.1870   26.0497 C   0  0  0  0  0  0  0  0  0  0  0  0
  -22.3299   -8.7167   20.1930 C   0  0  0  0  0  0  0  0  0  0  0  0
  -23.0926   -8.7239   22.4855 C   0  0  0  0  0  0  0  0  0  0  0  0
  -27.5442  -21.9337   25.4659 C   0  0  0  0  0  0  0  0  0  0  0  0
  -19.3839   -7.9185   21.6479 C   0  0  0  0  0  0  0  0  0  0  0  0
  -18.0764   -7.8716   21.1643 C   0  0  0  0  0  0  0  0  0  0  0  0
  -29.8144  -21.9942   24.6525 C   0  0  0  0  0  0  0  0  0  0  0  0
  -18.6354   -5.9289   19.8412 C   0  0  0  0  0  0  0  0  0  0  0  0
  -23.8258  -10.4506   20.9630 C   0  0  0  0  0  0  0  0  0  0  0  0
  -24.1662  -12.9759   20.8427 C   0  0  0  0  0  0  0  0  0  0  0  0
  -27.7627  -30.8566   24.0558 C   0  0  0  0  0  0  0  0  0  0  0  0
  -28.9484  -23.8592   25.9298 C   0  0  0  0  0  0  0  0  0  0  0  0
  -27.6452  -29.4607   23.9138 C   0  0  0  0  0  0  0  0  0  0  0  0
  -30.0077  -23.2548   25.2379 C   0  0  0  0  0  0  0  0  0  0  0  0
  -22.3397   -8.1435   21.4646 C   0  0  0  0  0  0  0  0  0  0  0  0
  -28.5887  -21.3384   24.7647 C   0  0  0  0  0  0  0  0  0  0  0  0
  -20.3172   -6.9706   21.2281 C   0  0  0  0  0  0  0  0  0  0  0  0
  -17.7022   -6.8769   20.2610 C   0  0  0  0  0  0  0  0  0  0  0  0
  -19.9429   -5.9758   20.3248 C   0  0  0  0  0  0  0  0  0  0  0  0
  -24.5940  -11.6418   20.7044 C   0  0  0  0  0  0  0  0  0  0  0  0
  -25.2575  -13.7259   20.4781 C   0  0  0  0  0  0  0  0  0  0  0  0
  -22.8960  -13.4910   21.2633 C   0  0  0  0  0  0  0  0  0  0  0  0
  -29.8808  -26.6088   24.6360 C   0  0  0  0  0  0  0  0  0  0  0  0
  -32.7205  -25.8401   26.0026 C   0  0  0  0  0  0  0  0  0  0  0  0
  -34.7915  -23.4111   27.2098 C   0  0  0  0  0  0  0  0  0  0  0  0
  -30.7410  -14.7477   20.6597 C   0  0  0  0  0  0  0  0  0  0  0  0
  -29.0610  -31.5749   23.7855 C   0  0  0  0  0  0  0  0  0  0  0  0
  -29.1345  -25.1988   26.5881 C   0  0  0  0  0  0  0  0  0  0  0  0
  -31.3487  -23.9258   25.0976 C   0  0  0  0  0  0  0  0  0  0  0  0
  -30.2786  -30.6542   23.7881 C   0  0  0  0  0  0  0  0  0  0  0  0
  -29.6016  -12.3628   18.2742 C   0  0  0  0  0  0  0  0  0  0  0  0
  -30.0002  -29.3988   22.9675 C   0  0  0  0  0  0  0  0  0  0  0  0
  -28.1649  -12.0683   18.7089 C   0  0  0  0  0  0  0  0  0  0  0  0
  -30.5201  -12.5840   19.4740 C   0  0  0  0  0  0  0  0  0  0  0  0
  -28.6198  -13.3140   20.8630 C   0  0  0  0  0  0  0  0  0  0  0  0
  -28.8372  -28.5967   23.5636 C   0  0  1  0  0  0  0  0  0  0  0  0
  -30.2596  -26.0195   25.9652 C   0  0  1  0  0  0  0  0  0  0  0  0
  -27.6442  -13.1390   19.6866 C   0  0  2  0  0  0  0  0  0  0  0  0
  -37.0623  -23.0850   28.2269 C   0  0  0  0  0  0  0  0  0  0  0  0
  -28.8936  -19.5759   19.7838 C   0  0  0  0  0  0  0  0  0  0  0  0
  -34.0009  -26.2184   23.2590 C   0  0  0  0  0  0  0  0  0  0  0  0
  -36.0100  -24.9865   24.1039 C   0  0  0  0  0  0  0  0  0  0  0  0
  -35.3307  -27.1387   25.1666 C   0  0  0  0  0  0  0  0  0  0  0  0
  -33.6443  -22.2912   29.6976 C   0  0  0  0  0  0  0  0  0  0  0  0
  -30.5276  -18.0549   20.9396 C   0  0  0  0  0  0  0  0  0  0  0  0
  -28.3819  -18.8501   22.1583 C   0  0  0  0  0  0  0  0  0  0  0  0
  -30.8073  -16.8982   21.8967 C   0  0  0  0  0  0  0  0  0  0  0  0
  -29.1679  -19.8382   23.0126 C   0  0  0  0  0  0  0  0  0  1  0  0
  -33.9410  -25.0652   25.5682 C   0  0  1  0  0  0  0  0  0  0  0  0
  -35.5840  -23.3132   28.5009 C   0  0  2  0  0  0  0  0  0  0  0  0
  -29.0426  -18.4590   20.8231 C   0  0  1  0  0  0  0  0  0  0  0  0
  -34.7949  -25.8402   24.5252 C   0  0  0  0  0  0  0  0  0  0  0  0
  -25.8583  -11.5467   20.2845 N   0  0  0  0  0  0  0  0  0  0  0  0
  -26.2344  -12.8304   20.1558 N   0  0  0  0  0  0  0  0  0  0  0  0
  -31.4793  -25.2374   25.7535 N   0  0  0  0  0  0  0  0  0  0  0  0
  -29.9702  -13.6122   20.3607 N   0  0  0  0  0  0  0  0  0  0  0  0
  -25.4672  -15.0575   20.4049 N   0  0  0  0  0  0  0  0  0  0  0  0
  -21.8850  -12.5813   21.6017 N   0  0  0  0  0  0  0  0  0  0  0  0
  -29.2793  -27.8499   24.7217 N   0  0  0  0  0  0  0  0  0  0  0  0
  -34.6598  -24.7176   26.7892 N   0  0  0  0  0  0  0  0  0  0  0  0
  -30.1424  -15.6762   21.5026 N   0  0  0  0  0  0  0  0  0  0  0  0
  -35.0806  -22.1842   29.3334 N   0  3  0  0  0  0  0  0  0  0  0  0
  -22.6592  -14.7215   21.3210 O   0  0  0  0  0  0  0  0  0  0  0  0
  -30.1181  -25.9845   23.6086 O   0  0  0  0  0  0  0  0  0  0  0  0
  -32.8634  -26.9366   26.5495 O   0  0  0  0  0  0  0  0  0  0  0  0
  -34.3380  -22.4266   26.6303 O   0  0  0  0  0  0  0  0  0  0  0  0
  -31.8763  -14.9238   20.2047 O   0  0  0  0  0  0  0  0  0  0  0  0
  -21.6147   -7.0180   21.7098 O   0  0  0  0  0  0  0  0  0  0  0  0
  -28.4160  -20.1154   24.1934 O   0  0  0  0  0  0  0  0  0  1  0  0
  -16.4461   -6.8310   19.7978 F   0  0  0  0  0  0  0  0  0  0  0  0
  -20.8348   -5.0618   19.9188 F   0  0  0  0  0  0  0  0  0  0  0  0
  1  2  1  0  0  0  0
  1  5  2  0  0  0  0
  2  6  2  0  0  0  0
  3  8  2  0  0  0  0
  3 15  1  0  0  0  0
  4  9  1  0  0  0  0
  4 15  2  0  0  0  0
  5 17  1  0  0  0  0
  6 19  1  0  0  0  0
  7 10  2  0  0  0  0
  7 18  1  0  0  0  0
  8 21  1  0  0  0  0
  9 21  2  0  0  0  0
 10 22  1  0  0  0  0
 11 12  2  0  0  0  0
 11 23  1  0  0  0  0
 12 24  1  0  0  0  0
 13 20  1  0  0  0  0
 13 22  2  0  0  0  0
 14 24  2  0  0  0  0
 14 25  1  0  0  0  0
 15 26  1  0  0  0  0
 16 26  1  0  0  0  0
 16 27  2  0  0  0  0
 16 28  1  0  0  0  0
 17 19  2  0  0  0  0
 17 33  1  0  0  0  0
 18 20  2  0  0  0  0
 18 34  1  0  0  0  0
 19 42  1  0  0  0  0
 20 35  1  0  0  0  0
 21 74  1  0  0  0  0
 22 75  1  0  0  0  0
 23 25  2  0  0  0  0
 23 74  1  0  0  0  0
 24 76  1  0  0  0  0
 25 77  1  0  0  0  0
 26 59  2  0  0  0  0
 27 60  1  0  0  0  0
 27 63  1  0  0  0  0
 28 64  1  0  0  0  0
 28 69  2  0  0  0  0
 29 43  1  0  0  0  0
 29 65  1  0  0  0  0
 29 70  2  0  0  0  0
 30 55  1  0  0  0  0
 30 61  1  0  0  0  0
 30 71  2  0  0  0  0
 31 56  1  0  0  0  0
 31 66  1  0  0  0  0
 31 72  2  0  0  0  0
 32 62  1  0  0  0  0
 32 67  1  0  0  0  0
 32 73  2  0  0  0  0
 33 36  1  0  0  0  0
 34 43  1  0  0  0  0
 35 61  1  0  0  0  0
 36 38  1  0  0  0  0
 37 39  1  0  0  0  0
 37 40  1  0  0  0  0
 38 42  1  0  0  0  0
 39 44  1  0  0  0  0
 40 62  1  0  0  0  0
 41 44  1  0  0  0  0
 41 62  1  0  0  0  0
 42 65  1  0  0  0  0
 43 61  1  0  0  0  0
 44 60  1  0  0  0  0
 45 56  1  0  0  0  0
 46 57  1  0  0  0  0
 47 58  1  0  0  0  0
 48 58  1  0  0  0  0
 49 58  1  0  0  0  0
 50 68  1  0  0  0  0
 51 53  1  0  0  0  0
 51 57  1  0  0  0  0
 52 54  1  0  0  0  0
 52 57  1  0  0  0  0
 53 67  1  0  0  0  0
 54 75  1  0  0  0  0
 55 58  1  0  0  0  0
 55 66  1  0  0  0  0
 56 68  1  0  0  0  0
 59 60  1  0  0  0  0
M  CHG  1  68   1
M  ISO  4  32 100  54 101  67 100  75 101
M  END
> <Batch ID>
0193

> <Smiles>
CNC(C)C(=O)NC(C(=O)N1Cc2cc([101O:1][101CH2:1]CC(C)CC[100NH:0][100C:0](=O)N3CCCC(n4nc(-c5ccc(Oc6ccc(F)cc6F)cc5)c(C(N)=O)c4N)C3)ccc2CC1C(=O)NC1CCCc2ccccc21)C(C)(C)C

> <Shape>
0.205

> <Color>
0.200

> <Negative vol penalty>
0.000

$$$$

  -OEChem-04052305303D

 84 92  0     1  0  0  0  0  0999 V2000
  -18.0675  -31.2893   20.7019 C   0  0  0  0  0  0  0  0  0  0  0  0
  -19.4487  -31.2073   20.5572 C   0  0  0  0  0  0  0  0  0  0  0  0
  -26.4532  -12.6708   21.5861 C   0  0  0  0  0  0  0  0  0  0  0  0
  -25.8649  -13.6067   19.4378 C   0  0  0  0  0  0  0  0  0  0  0  0
  -17.3816  -30.3008   21.4064 C   0  0  0  0  0  0  0  0  0  0  0  0
  -20.1450  -30.1372   21.1181 C   0  0  0  0  0  0  0  0  0  0  0  0
  -25.1133  -27.3771   18.8370 C   0  0  0  0  0  0  0  0  0  0  0  0
  -25.2189  -12.0236   21.6422 C   0  0  0  0  0  0  0  0  0  0  0  0
  -24.6306  -12.9595   19.4939 C   0  0  0  0  0  0  0  0  0  0  0  0
  -26.4726  -27.5124   19.1156 C   0  0  0  0  0  0  0  0  0  0  0  0
  -23.7955   -9.2552   20.3221 C   0  0  0  0  0  0  0  0  0  0  0  0
  -23.7815   -7.9198   20.7246 C   0  0  0  0  0  0  0  0  0  0  0  0
  -26.3444  -25.6337   20.6234 C   0  0  0  0  0  0  0  0  0  0  0  0
  -22.3538   -8.4961   22.5866 C   0  0  0  0  0  0  0  0  0  0  0  0
  -26.7763  -13.4623   20.4839 C   0  0  0  0  0  0  0  0  0  0  0  0
  -29.2489  -13.6326   19.8800 C   0  0  0  0  0  0  0  0  0  0  0  0
  -18.0686  -29.2130   21.9679 C   0  0  0  0  0  0  0  0  0  0  0  0
  -24.3557  -26.3742   19.4588 C   0  0  0  0  0  0  0  0  0  0  0  0
  -19.4678  -29.1340   21.8320 C   0  0  0  0  0  0  0  0  0  0  0  0
  -24.9762  -25.4862   20.3490 C   0  0  0  0  0  0  0  0  0  0  0  0
  -24.3076  -12.1679   20.5961 C   0  0  0  0  0  0  0  0  0  0  0  0
  -27.0878  -26.6425   20.0111 C   0  0  0  0  0  0  0  0  0  0  0  0
  -23.0888  -10.2111   21.0518 C   0  0  0  0  0  0  0  0  0  0  0  0
  -23.0606   -7.5402   21.8568 C   0  0  0  0  0  0  0  0  0  0  0  0
  -22.3679   -9.8315   22.1840 C   0  0  0  0  0  0  0  0  0  0  0  0
  -28.0509  -14.1316   20.4256 C   0  0  0  0  0  0  0  0  0  0  0  0
  -30.1597  -14.6430   20.0698 C   0  0  0  0  0  0  0  0  0  0  0  0
  -28.5681  -22.0582   16.3024 C   0  0  0  0  0  0  0  0  0  0  0  0
  -29.0924  -21.4245   18.3905 C   0  0  0  0  0  0  0  0  0  0  0  0
  -29.5502  -23.5112   17.7029 C   0  0  0  0  0  0  0  0  0  0  0  0
  -29.5146  -12.3688   19.2571 C   0  0  0  0  0  0  0  0  0  0  0  0
  -21.8542  -26.3433   21.4198 C   0  0  0  0  0  0  0  0  0  0  0  0
  -22.0170  -23.1382   20.9476 C   0  0  0  0  0  0  0  0  0  0  0  0
  -23.9084  -20.4270   20.0998 C   0  0  0  0  0  0  0  0  0  0  0  0
  -29.6200  -20.5607   20.6974 C   0  0  0  0  0  0  0  0  0  0  0  0
  -17.2898  -28.1938   22.7612 C   0  0  0  0  0  0  0  0  0  0  0  0
  -22.8962  -26.2246   19.1272 C   0  0  0  0  0  0  0  0  0  0  0  0
  -24.2118  -24.3800   21.0275 C   0  0  0  0  0  0  0  0  0  0  0  0
  -18.0562  -26.8962   23.0045 C   0  0  0  0  0  0  0  0  0  0  0  0
  -31.1344  -18.3047   22.9983 C   0  0  0  0  0  0  0  0  0  0  0  0
  -19.4775  -27.1951   23.4710 C   0  0  0  0  0  0  0  0  0  0  0  0
  -30.6294  -16.9325   22.5463 C   0  0  0  0  0  0  0  0  0  0  0  0
  -30.0642  -19.3832   22.8402 C   0  0  0  0  0  0  0  0  0  0  0  0
  -28.9602  -18.0999   21.0503 C   0  0  0  0  0  0  0  0  0  0  0  0
  -20.2554  -27.9757   22.4047 C   0  0  1  0  0  0  0  0  0  0  0  0
  -22.1097  -25.4909   20.2091 C   0  0  1  0  0  0  0  0  0  0  0  0
  -30.0244  -16.9932   21.1300 C   0  0  2  0  0  0  0  0  0  0  0  0
  -23.7738  -17.9346   19.8403 C   0  0  0  0  0  0  0  0  0  0  0  0
  -32.0472  -24.5733   19.3194 C   0  0  0  0  0  0  0  0  0  0  0  0
  -22.0872  -22.8209   23.9815 C   0  0  0  0  0  0  0  0  0  0  0  0
  -22.8968  -20.4754   23.6477 C   0  0  0  0  0  0  0  0  0  0  0  0
  -20.6540  -21.1526   22.7910 C   0  0  0  0  0  0  0  0  0  0  0  0
  -24.5986  -20.5726   17.2255 C   0  0  0  0  0  0  0  0  0  0  0  0
  -29.2436  -27.2956   19.2484 C   0  0  0  0  0  0  0  0  0  1  0  0
  -22.7326  -21.9931   21.6227 C   0  0  1  0  0  0  0  0  0  0  0  0
  -23.6505  -19.2791   19.1404 C   0  0  2  0  0  0  0  0  0  0  0  0
  -30.6399  -25.1582   19.2279 C   0  0  1  0  0  0  0  0  0  0  0  0
  -30.6391  -26.6880   19.3817 C   0  0  1  0  0  0  0  0  0  0  0  0
  -22.1069  -21.6325   22.9996 C   0  0  0  0  0  0  0  0  0  0  0  0
  -28.1854  -15.3632   20.9248 N   0  0  0  0  0  0  0  0  0  0  0  0
  -28.5572  -21.0697   17.2114 N   0  0  0  0  0  0  0  0  0  0  0  0
  -29.0464  -23.3009   16.4761 N   0  0  0  0  0  0  0  0  0  0  0  0
  -29.6071  -22.6232   18.7084 N   0  0  0  0  0  0  0  0  0  0  0  0
  -29.4786  -15.6465   20.6936 N   0  0  0  0  0  0  0  0  0  0  0  0
  -22.7859  -24.2786   20.6754 N   0  0  0  0  0  0  0  0  0  0  0  0
  -29.5400  -19.3845   21.4726 N   0  0  0  0  0  0  0  0  0  0  0  0
  -31.4688  -14.7620   19.7623 N   0  0  0  0  0  0  0  0  0  0  0  0
  -28.0189  -21.7605   15.0364 N   0  0  0  0  0  0  0  0  0  0  0  0
  -28.4656  -11.4463   19.1434 N   0  0  0  0  0  0  0  0  0  0  0  0
  -29.1193  -20.4328   19.4022 N   0  0  0  0  0  0  0  0  0  0  0  0
  -30.0626  -24.7701   17.9562 N   0  0  0  0  0  0  0  0  0  0  0  0
  -20.6930  -27.0889   21.3480 N   0  0  0  0  0  0  0  0  0  0  0  0
  -22.7399  -20.8939   20.6634 N   0  0  0  0  0  0  0  0  0  0  0  0
  -24.6274  -19.3148   18.0155 N   0  3  0  0  0  0  0  0  0  0  0  0
  -30.6527  -12.0601   18.8294 O   0  0  0  0  0  0  0  0  0  0  0  0
  -22.6508  -26.3247   22.3508 O   0  0  0  0  0  0  0  0  0  0  0  0
  -20.8218  -23.0222   20.6656 O   0  0  0  0  0  0  0  0  0  0  0  0
  -25.0343  -20.8631   20.3293 O   0  0  0  0  0  0  0  0  0  0  0  0
  -30.1223  -21.5969   21.1403 O   0  0  0  0  0  0  0  0  0  0  0  0
  -31.4973  -27.2709   18.3994 O   0  0  0  0  0  0  0  0  0  0  0  0
  -23.1031  -11.5364   20.6504 O   0  0  0  0  0  0  0  0  0  0  0  0
  -28.4143  -26.7728   20.2854 O   0  0  0  0  0  0  0  0  0  1  0  0
  -23.0459   -6.2575   22.2424 F   0  0  0  0  0  0  0  0  0  0  0  0
  -21.6860  -10.7451   22.8884 F   0  0  0  0  0  0  0  0  0  0  0  0
  1  2  1  0  0  0  0
  1  5  2  0  0  0  0
  2  6  2  0  0  0  0
  3  8  2  0  0  0  0
  3 15  1  0  0  0  0
  4  9  1  0  0  0  0
  4 15  2  0  0  0  0
  5 17  1  0  0  0  0
  6 19  1  0  0  0  0
  7 10  2  0  0  0  0
  7 18  1  0  0  0  0
  8 21  1  0  0  0  0
  9 21  2  0  0  0  0
 10 22  1  0  0  0  0
 11 12  2  0  0  0  0
 11 23  1  0  0  0  0
 12 24  1  0  0  0  0
 13 20  1  0  0  0  0
 13 22  2  0  0  0  0
 14 24  2  0  0  0  0
 14 25  1  0  0  0  0
 15 26  1  0  0  0  0
 16 26  1  0  0  0  0
 16 27  2  0  0  0  0
 16 31  1  0  0  0  0
 17 19  2  0  0  0  0
 17 36  1  0  0  0  0
 18 20  2  0  0  0  0
 18 37  1  0  0  0  0
 19 45  1  0  0  0  0
 20 38  1  0  0  0  0
 21 81  1  0  0  0  0
 22 82  1  0  0  0  0
 23 25  2  0  0  0  0
 23 81  1  0  0  0  0
 24 83  1  0  0  0  0
 25 84  1  0  0  0  0
 26 60  2  0  0  0  0
 27 64  1  0  0  0  0
 27 67  1  0  0  0  0
 28 61  1  0  0  0  0
 28 62  2  0  0  0  0
 28 68  1  0  0  0  0
 29 61  2  0  0  0  0
 29 63  1  0  0  0  0
 29 70  1  0  0  0  0
 30 62  1  0  0  0  0
 30 63  2  0  0  0  0
 30 71  1  0  0  0  0
 31 69  1  0  0  0  0
 31 75  2  0  0  0  0
 32 46  1  0  0  0  0
 32 72  1  0  0  0  0
 32 76  2  0  0  0  0
 33 55  1  0  0  0  0
 33 65  1  0  0  0  0
 33 77  2  0  0  0  0
 34 56  1  0  0  0  0
 34 73  1  0  0  0  0
 34 78  2  0  0  0  0
 35 66  1  0  0  0  0
 35 70  1  0  0  0  0
 35 79  2  0  0  0  0
 36 39  1  0  0  0  0
 37 46  1  0  0  0  0
 38 65  1  0  0  0  0
 39 41  1  0  0  0  0
 40 42  1  0  0  0  0
 40 43  1  0  0  0  0
 41 45  1  0  0  0  0
 42 47  1  0  0  0  0
 43 66  1  0  0  0  0
 44 47  1  0  0  0  0
 44 66  1  0  0  0  0
 45 72  1  0  0  0  0
 46 65  1  0  0  0  0
 47 64  1  0  0  0  0
 48 56  1  0  0  0  0
 49 57  1  0  0  0  0
 50 59  1  0  0  0  0
 51 59  1  0  0  0  0
 52 59  1  0  0  0  0
 53 74  1  0  0  0  0
 54 58  1  0  0  0  0
 54 82  1  0  0  0  0
 55 59  1  0  0  0  0
 55 73  1  0  0  0  0
 56 74  1  0  0  0  0
 57 58  1  0  0  0  0
 57 71  1  0  0  0  0
 58 80  1  0  0  0  0
 60 64  1  0  0  0  0
M  CHG  1  74   1
M  ISO  4  35 100  54 101  70 100  82 101
M  END
> <Batch ID>
0193

> <Smiles>
CNC(C)C(=O)NC(C(=O)N1Cc2cc([101O:1][101CH2:1]C(O)C(C)Nc3nc(N)nc([100NH:0][100C:0](=O)N4CCCC(n5nc(-c6ccc(Oc7ccc(F)cc7F)cc6)c(C(N)=O)c5N)C4)n3)ccc2CC1C(=O)NC1CCCc2ccccc21)C(C)(C)C

> <Shape>
0.275

> <Color>
0.083

> <Negative vol penalty>
0.000

$$$$

  -OEChem-04052305303D

 84 92  0     1  0  0  0  0  0999 V2000
  -22.4082   -8.3970   20.7267 C   0  0  0  0  0  0  0  0  0  0  0  0
  -23.2734   -9.3115   20.1345 C   0  0  0  0  0  0  0  0  0  0  0  0
  -20.0078  -27.0461   23.7546 C   0  0  0  0  0  0  0  0  0  0  0  0
  -20.4748  -27.2379   21.3919 C   0  0  0  0  0  0  0  0  0  0  0  0
  -21.2812   -8.8485   21.4122 C   0  0  0  0  0  0  0  0  0  0  0  0
  -23.0113  -10.6780   20.2265 C   0  0  0  0  0  0  0  0  0  0  0  0
  -27.1242  -15.1929   20.6796 C   0  0  0  0  0  0  0  0  0  0  0  0
  -18.6762  -27.3880   23.5191 C   0  0  0  0  0  0  0  0  0  0  0  0
  -19.1432  -27.5798   21.1564 C   0  0  0  0  0  0  0  0  0  0  0  0
  -27.6705  -16.0622   19.7364 C   0  0  0  0  0  0  0  0  0  0  0  0
  -15.2350  -28.5618   23.5837 C   0  0  0  0  0  0  0  0  0  0  0  0
  -14.6429  -29.4942   24.4355 C   0  0  0  0  0  0  0  0  0  0  0  0
  -26.0391  -17.7334   20.3406 C   0  0  0  0  0  0  0  0  0  0  0  0
  -29.5826  -22.9903   20.6388 C   0  0  0  0  0  0  0  0  0  0  0  0
  -16.2972  -31.1330   23.7914 C   0  0  0  0  0  0  0  0  0  0  0  0
  -30.6349  -24.0313   18.7773 C   0  0  0  0  0  0  0  0  0  0  0  0
  -20.9072  -26.9711   22.6909 C   0  0  0  0  0  0  0  0  0  0  0  0
  -22.8411  -25.3261   22.9388 C   0  0  0  0  0  0  0  0  0  0  0  0
  -21.0104  -10.2216   21.5209 C   0  0  0  0  0  0  0  0  0  0  0  0
  -26.0225  -15.5840   21.4541 C   0  0  0  0  0  0  0  0  0  0  0  0
  -21.8788  -11.1481   20.9129 C   0  0  0  0  0  0  0  0  0  0  0  0
  -25.4823  -16.8681   21.2948 C   0  0  0  0  0  0  0  0  0  0  0  0
  -30.0761  -22.8963   19.3423 C   0  0  0  0  0  0  0  0  0  0  0  0
  -29.6619  -24.1992   21.3210 C   0  0  0  0  0  0  0  0  0  0  0  0
  -18.2438  -27.6549   22.2201 C   0  0  0  0  0  0  0  0  0  0  0  0
  -27.1261  -17.3316   19.5648 C   0  0  0  0  0  0  0  0  0  0  0  0
  -16.3582  -28.9149   22.8358 C   0  0  0  0  0  0  0  0  0  0  0  0
  -15.1740  -30.7798   24.5394 C   0  0  0  0  0  0  0  0  0  0  0  0
  -16.8893  -30.2005   22.9396 C   0  0  0  0  0  0  0  0  0  0  0  0
  -22.2830  -26.6185   22.9336 C   0  0  0  0  0  0  0  0  0  0  0  0
  -30.2395  -25.2758   20.6675 C   0  0  0  0  0  0  0  0  0  0  0  0
  -24.1710  -25.5275   23.2171 C   0  0  0  0  0  0  0  0  0  0  0  0
  -22.2137  -24.0570   22.7122 C   0  0  0  0  0  0  0  0  0  0  0  0
  -23.0387  -14.5432   21.7967 C   0  0  0  0  0  0  0  0  0  0  0  0
  -22.9481  -16.7659   24.1576 C   0  0  0  0  0  0  0  0  0  0  0  0
  -29.4820  -20.4657   19.0541 C   0  0  0  0  0  0  0  0  0  0  0  0
  -24.2042  -19.6576   25.4641 C   0  0  0  0  0  0  0  0  0  0  0  0
  -28.9373  -28.3236   22.4368 C   0  0  0  0  0  0  0  0  0  0  0  0
  -19.7543  -10.6598   22.2315 C   0  0  0  0  0  0  0  0  0  0  0  0
  -25.4616  -14.6443   22.4860 C   0  0  0  0  0  0  0  0  0  0  0  0
  -24.3123  -17.3437   22.1155 C   0  0  0  0  0  0  0  0  0  0  0  0
  -19.7497  -12.1403   22.6032 C   0  0  0  0  0  0  0  0  0  0  0  0
  -26.6171  -29.6711   24.7772 C   0  0  0  0  0  0  0  0  0  0  0  0
  -20.2058  -12.9890   21.4206 C   0  0  0  0  0  0  0  0  0  0  0  0
  -25.3279  -28.8950   24.5023 C   0  0  0  0  0  0  0  0  0  0  0  0
  -27.3938  -29.9485   23.4920 C   0  0  0  0  0  0  0  0  0  0  0  0
  -26.3923  -27.9804   22.3978 C   0  0  0  0  0  0  0  0  0  0  0  0
  -21.6419  -12.6395   21.0121 C   0  0  1  0  0  0  0  0  0  0  0  0
  -24.0164  -14.9599   22.8588 C   0  0  1  0  0  0  0  0  0  0  0  0
  -25.6026  -27.6281   23.6700 C   0  0  2  0  0  0  0  0  0  0  0  0
  -23.9019  -21.2471   27.3823 C   0  0  0  0  0  0  0  0  0  0  0  0
  -20.4572  -17.9080   22.8156 C   0  0  0  0  0  0  0  0  0  0  0  0
  -20.7621  -19.9870   24.1768 C   0  0  0  0  0  0  0  0  0  0  0  0
  -20.3432  -17.8055   25.3118 C   0  0  0  0  0  0  0  0  0  0  0  0
  -26.9540  -19.1767   26.4471 C   0  0  0  0  0  0  0  0  0  0  0  0
  -30.3543  -26.6009   21.3488 C   0  0  0  0  0  0  0  0  0  0  0  0
  -29.6119  -19.4093   17.9628 C   0  0  0  0  0  0  0  0  0  0  0  0
  -29.0521  -18.0554   18.3720 C   0  0  0  0  0  0  0  0  0  1  0  0
  -22.5904  -18.2305   24.2339 C   0  0  1  0  0  0  0  0  0  0  0  0
  -24.6417  -20.0204   26.8717 C   0  0  2  0  0  0  0  0  0  0  0  0
  -21.0590  -18.4734   24.1175 C   0  0  0  0  0  0  0  0  0  0  0  0
  -30.7297  -25.2229   19.4087 N   0  0  0  0  0  0  0  0  0  0  0  0
  -23.1845  -27.5705   23.1886 N   0  0  0  0  0  0  0  0  0  0  0  0
  -24.3225  -26.8758   23.3567 N   0  0  0  0  0  0  0  0  0  0  0  0
  -23.7952  -16.3860   23.1069 N   0  0  0  0  0  0  0  0  0  0  0  0
  -27.6227  -28.7061   22.7504 N   0  0  0  0  0  0  0  0  0  0  0  0
  -29.1657  -24.3051   22.6329 N   0  0  0  0  0  0  0  0  0  0  0  0
  -25.2137  -24.6811   23.3538 N   0  0  0  0  0  0  0  0  0  0  0  0
  -20.8392  -24.0305   22.4391 N   0  0  0  0  0  0  0  0  0  0  0  0
  -30.0099  -21.6796   18.6226 N   0  0  0  0  0  0  0  0  0  0  0  0
  -22.5884  -13.2432   21.9254 N   0  0  0  0  0  0  0  0  0  0  0  0
  -23.1826  -18.7316   25.4695 N   0  0  0  0  0  0  0  0  0  0  0  0
  -29.0659  -27.1296   21.7378 N   0  0  0  0  0  0  0  0  0  0  0  0
  -26.1039  -20.3069   26.9020 N   0  3  0  0  0  0  0  0  0  0  0  0
  -22.8497  -22.9772   22.7669 O   0  0  0  0  0  0  0  0  0  0  0  0
  -22.7156  -15.3425   20.9258 O   0  0  0  0  0  0  0  0  0  0  0  0
  -22.4984  -15.9887   25.0034 O   0  0  0  0  0  0  0  0  0  0  0  0
  -28.9735  -20.2203   20.1430 O   0  0  0  0  0  0  0  0  0  0  0  0
  -24.7149  -20.1496   24.4602 O   0  0  0  0  0  0  0  0  0  0  0  0
  -29.9238  -28.9937   22.7606 O   0  0  0  0  0  0  0  0  0  0  0  0
  -16.9445  -27.9883   21.9899 O   0  0  0  0  0  0  0  0  0  0  0  0
  -27.6570  -18.1819   18.6444 O   0  0  0  0  0  0  0  0  0  1  0  0
  -14.6044  -31.6756   25.3562 F   0  0  0  0  0  0  0  0  0  0  0  0
  -17.9675  -30.5460   22.2228 F   0  0  0  0  0  0  0  0  0  0  0  0
  1  2  1  0  0  0  0
  1  5  2  0  0  0  0
  2  6  2  0  0  0  0
  3  8  2  0  0  0  0
  3 17  1  0  0  0  0
  4  9  1  0  0  0  0
  4 17  2  0  0  0  0
  5 19  1  0  0  0  0
  6 21  1  0  0  0  0
  7 10  2  0  0  0  0
  7 20  1  0  0  0  0
  8 25  1  0  0  0  0
  9 25  2  0  0  0  0
 10 26  1  0  0  0  0
 11 12  2  0  0  0  0
 11 27  1  0  0  0  0
 12 28  1  0  0  0  0
 13 22  1  0  0  0  0
 13 26  2  0  0  0  0
 14 23  2  0  0  0  0
 14 24  1  0  0  0  0
 15 28  2  0  0  0  0
 15 29  1  0  0  0  0
 16 23  1  0  0  0  0
 16 62  2  0  0  0  0
 17 30  1  0  0  0  0
 18 30  1  0  0  0  0
 18 32  2  0  0  0  0
 18 33  1  0  0  0  0
 19 21  2  0  0  0  0
 19 39  1  0  0  0  0
 20 22  2  0  0  0  0
 20 40  1  0  0  0  0
 21 48  1  0  0  0  0
 22 41  1  0  0  0  0
 23 70  1  0  0  0  0
 24 31  2  0  0  0  0
 24 67  1  0  0  0  0
 25 81  1  0  0  0  0
 26 82  1  0  0  0  0
 27 29  2  0  0  0  0
 27 81  1  0  0  0  0
 28 83  1  0  0  0  0
 29 84  1  0  0  0  0
 30 63  2  0  0  0  0
 31 56  1  0  0  0  0
 31 62  1  0  0  0  0
 32 64  1  0  0  0  0
 32 68  1  0  0  0  0
 33 69  1  0  0  0  0
 33 75  2  0  0  0  0
 34 49  1  0  0  0  0
 34 71  1  0  0  0  0
 34 76  2  0  0  0  0
 35 59  1  0  0  0  0
 35 65  1  0  0  0  0
 35 77  2  0  0  0  0
 36 57  1  0  0  0  0
 36 70  1  0  0  0  0
 36 78  2  0  0  0  0
 37 60  1  0  0  0  0
 37 72  1  0  0  0  0
 37 79  2  0  0  0  0
 38 66  1  0  0  0  0
 38 73  1  0  0  0  0
 38 80  2  0  0  0  0
 39 42  1  0  0  0  0
 40 49  1  0  0  0  0
 41 65  1  0  0  0  0
 42 44  1  0  0  0  0
 43 45  1  0  0  0  0
 43 46  1  0  0  0  0
 44 48  1  0  0  0  0
 45 50  1  0  0  0  0
 46 66  1  0  0  0  0
 47 50  1  0  0  0  0
 47 66  1  0  0  0  0
 48 71  1  0  0  0  0
 49 65  1  0  0  0  0
 50 64  1  0  0  0  0
 51 60  1  0  0  0  0
 52 61  1  0  0  0  0
 53 61  1  0  0  0  0
 54 61  1  0  0  0  0
 55 74  1  0  0  0  0
 56 73  1  0  0  0  0
 57 58  1  0  0  0  0
 58 82  1  0  0  0  0
 59 61  1  0  0  0  0
 59 72  1  0  0  0  0
 60 74  1  0  0  0  0
 63 64  1  0  0  0  0
M  CHG  1  74   1
M  ISO  4  38 100  58 101  73 100  82 101
M  END
> <Batch ID>
0193

> <Smiles>
CNC(C)C(=O)NC(C(=O)N1Cc2cc([101O:1][101CH2:1]CC(=O)Nc3cnc(C[100NH:0][100C:0](=O)N4CCCC(n5nc(-c6ccc(Oc7ccc(F)cc7F)cc6)c(C(N)=O)c5N)C4)c(N)c3)ccc2CC1C(=O)NC1CCCc2ccccc21)C(C)(C)C

> <Shape>
0.207

> <Color>
0.075

> <Negative vol penalty>
0.000

$$$$

  -OEChem-04052305303D

 85 93  0     1  0  0  0  0  0999 V2000
  -16.8373  -31.0383   23.8687 C   0  0  0  0  0  0  0  0  0  0  0  0
  -18.0611  -31.4895   24.3527 C   0  0  0  0  0  0  0  0  0  0  0  0
  -25.1091  -18.1579   20.5841 C   0  0  0  0  0  0  0  0  0  0  0  0
  -27.3672  -17.3350   20.8309 C   0  0  0  0  0  0  0  0  0  0  0  0
  -16.7616  -29.8195   23.1959 C   0  0  0  0  0  0  0  0  0  0  0  0
  -19.2097  -30.7215   24.1651 C   0  0  0  0  0  0  0  0  0  0  0  0
  -26.2616  -31.3928   23.0986 C   0  0  0  0  0  0  0  0  0  0  0  0
  -24.7124  -16.9187   20.0816 C   0  0  0  0  0  0  0  0  0  0  0  0
  -26.9705  -16.0957   20.3284 C   0  0  0  0  0  0  0  0  0  0  0  0
  -27.4764  -30.9432   23.6141 C   0  0  0  0  0  0  0  0  0  0  0  0
  -25.3675  -13.3464   21.4650 C   0  0  0  0  0  0  0  0  0  0  0  0
  -25.8131  -12.2054   22.1322 C   0  0  0  0  0  0  0  0  0  0  0  0
  -27.2392  -28.8915   22.3677 C   0  0  0  0  0  0  0  0  0  0  0  0
  -32.5425  -27.2483   20.3015 C   0  0  0  0  0  0  0  0  0  0  0  0
  -26.9214  -11.4608   20.1187 C   0  0  0  0  0  0  0  0  0  0  0  0
  -34.6766  -27.1273   21.2143 C   0  0  0  0  0  0  0  0  0  0  0  0
  -26.4366  -18.3661   20.9587 C   0  0  0  0  0  0  0  0  0  0  0  0
  -26.8498  -20.0567   22.8239 C   0  0  0  0  0  0  0  0  0  0  0  0
  -17.9116  -29.0407   22.9916 C   0  0  0  0  0  0  0  0  0  0  0  0
  -25.5198  -30.5892   22.2208 C   0  0  0  0  0  0  0  0  0  0  0  0
  -19.1491  -29.4905   23.4902 C   0  0  0  0  0  0  0  0  0  0  0  0
  -26.0164  -29.3343   21.8405 C   0  0  0  0  0  0  0  0  0  0  0  0
  -33.4196  -27.6768   21.3394 C   0  0  0  0  0  0  0  0  0  0  0  0
  -25.6430  -15.8876   19.9538 C   0  0  0  0  0  0  0  0  0  0  0  0
  -27.9640  -29.6912   23.2509 C   0  0  0  0  0  0  0  0  0  0  0  0
  -25.6987  -13.5445   20.1246 C   0  0  0  0  0  0  0  0  0  0  0  0
  -26.5901  -11.2627   21.4591 C   0  0  0  0  0  0  0  0  0  0  0  0
  -26.4757  -12.6018   19.4515 C   0  0  0  0  0  0  0  0  0  0  0  0
  -26.8471  -19.6462   21.4773 C   0  0  0  0  0  0  0  0  0  0  0  0
  -33.1628  -26.3877   19.4224 C   0  0  0  0  0  0  0  0  0  0  0  0
  -27.3241  -21.3452   22.7891 C   0  0  0  0  0  0  0  0  0  0  0  0
  -26.4586  -19.3375   24.0009 C   0  0  0  0  0  0  0  0  0  0  0  0
  -22.6384  -29.2494   22.2987 C   0  0  0  0  0  0  0  0  0  0  0  0
  -23.3568  -28.4476   19.2388 C   0  0  0  0  0  0  0  0  0  0  0  0
  -25.7571  -27.8584   16.8854 C   0  0  0  0  0  0  0  0  0  0  0  0
  -30.8374  -24.1412   18.9559 C   0  0  0  0  0  0  0  0  0  0  0  0
  -17.7721  -27.7077   22.3000 C   0  0  0  0  0  0  0  0  0  0  0  0
  -24.2241  -31.0998   21.6527 C   0  0  0  0  0  0  0  0  0  0  0  0
  -25.2684  -28.4417   20.8854 C   0  0  0  0  0  0  0  0  0  0  0  0
  -19.0998  -27.1315   21.8145 C   0  0  0  0  0  0  0  0  0  0  0  0
  -27.5173  -25.1890   19.9439 C   0  0  0  0  0  0  0  0  0  0  0  0
  -20.1582  -27.2346   22.9081 C   0  0  0  0  0  0  0  0  0  0  0  0
  -26.9718  -23.9099   20.5815 C   0  0  0  0  0  0  0  0  0  0  0  0
  -28.3870  -24.8743   18.7304 C   0  0  0  0  0  0  0  0  0  0  0  0
  -28.9721  -22.6613   19.6435 C   0  0  0  0  0  0  0  0  0  0  0  0
  -20.4216  -28.6976   23.2847 C   0  0  1  0  0  0  0  0  0  0  0  0
  -23.3029  -29.9841   21.1690 C   0  0  1  0  0  0  0  0  0  0  0  0
  -28.1029  -22.9109   20.8894 C   0  0  2  0  0  0  0  0  0  0  0  0
  -26.0386  -27.1844   14.4846 C   0  0  0  0  0  0  0  0  0  0  0  0
  -22.7132  -25.5578   19.9770 C   0  0  0  0  0  0  0  0  0  0  0  0
  -23.8979  -24.8349   17.8932 C   0  0  0  0  0  0  0  0  0  0  0  0
  -21.8672  -26.2751   17.7356 C   0  0  0  0  0  0  0  0  0  0  0  0
  -27.1137  -30.4005   16.2101 C   0  0  0  0  0  0  0  0  0  0  0  0
  -32.7136  -26.5553   16.9104 C   0  0  0  0  0  0  0  0  0  0  0  0
  -31.7335  -29.1176   22.4824 C   0  0  0  0  0  0  0  0  0  0  0  0
  -31.9540  -27.8794   16.9172 C   0  0  0  0  0  0  0  0  0  0  0  0
  -30.1297  -30.2376   24.0678 C   0  0  0  0  0  0  0  0  0  1  0  0
  -32.5973  -25.7302   18.2244 C   0  0  2  0  0  0  0  0  0  0  0  0
  -24.0337  -27.2746   18.5717 C   0  0  1  0  0  0  0  0  0  0  0  0
  -25.9079  -28.3471   15.4561 C   0  0  2  0  0  0  0  0  0  0  0  0
  -31.5177  -29.6275   23.9059 C   0  0  1  0  0  0  0  0  0  0  0  0
  -23.1414  -26.0014   18.5639 C   0  0  0  0  0  0  0  0  0  0  0  0
  -27.2848  -20.5970   20.6476 N   0  0  0  0  0  0  0  0  0  0  0  0
  -27.5669  -21.6177   21.4750 N   0  0  0  0  0  0  0  0  0  0  0  0
  -24.0032  -28.9829   20.3619 N   0  0  0  0  0  0  0  0  0  0  0  0
  -29.4552  -23.9331   19.0953 N   0  0  0  0  0  0  0  0  0  0  0  0
  -27.5529  -22.2604   23.7548 N   0  0  0  0  0  0  0  0  0  0  0  0
  -25.9944  -18.0229   23.8573 N   0  0  0  0  0  0  0  0  0  0  0  0
  -33.0543  -28.5435   22.3555 N   0  0  0  0  0  0  0  0  0  0  0  0
  -21.2591  -29.3327   22.2899 N   0  0  0  0  0  0  0  0  0  0  0  0
  -24.4319  -27.7334   17.2453 N   0  0  0  0  0  0  0  0  0  0  0  0
  -31.2113  -25.3686   18.4225 N   0  0  0  0  0  0  0  0  0  0  0  0
  -32.0804  -28.5637   15.6094 N   0  3  0  0  0  0  0  0  0  0  0  0
  -27.1193  -29.2056   15.3274 N   0  3  0  0  0  0  0  0  0  0  0  0
  -26.5034  -19.8512   25.1444 O   0  0  0  0  0  0  0  0  0  0  0  0
  -23.3261  -28.6500   23.1170 O   0  0  0  0  0  0  0  0  0  0  0  0
  -22.2974  -28.8777   18.7760 O   0  0  0  0  0  0  0  0  0  0  0  0
  -26.7187  -27.6086   17.6090 O   0  0  0  0  0  0  0  0  0  0  0  0
  -31.6772  -23.2974   19.2873 O   0  0  0  0  0  0  0  0  0  0  0  0
  -31.6190  -28.5301   24.8157 O   0  0  0  0  0  0  0  0  0  0  0  0
  -25.2562  -14.6782   19.4637 O   0  0  0  0  0  0  0  0  0  0  0  0
  -29.1493  -29.2497   23.7531 O   0  0  0  0  0  0  0  0  0  1  0  0
  -27.0193  -10.1678   22.1005 F   0  0  0  0  0  0  0  0  0  0  0  0
  -26.7982  -12.7872   18.1641 F   0  0  0  0  0  0  0  0  0  0  0  0
  -34.7957  -26.0995   19.8499 S   0  0  0  0  0  0  0  0  0  0  0  0
  1  2  1  0  0  0  0
  1  5  2  0  0  0  0
  2  6  2  0  0  0  0
  3  8  2  0  0  0  0
  3 17  1  0  0  0  0
  4  9  1  0  0  0  0
  4 17  2  0  0  0  0
  5 19  1  0  0  0  0
  6 21  1  0  0  0  0
  7 10  2  0  0  0  0
  7 20  1  0  0  0  0
  8 24  1  0  0  0  0
  9 24  2  0  0  0  0
 10 25  1  0  0  0  0
 11 12  2  0  0  0  0
 11 26  1  0  0  0  0
 12 27  1  0  0  0  0
 13 22  1  0  0  0  0
 13 25  2  0  0  0  0
 14 23  1  0  0  0  0
 14 30  2  0  0  0  0
 15 27  2  0  0  0  0
 15 28  1  0  0  0  0
 16 23  2  0  0  0  0
 16 85  1  0  0  0  0
 17 29  1  0  0  0  0
 18 29  1  0  0  0  0
 18 31  2  0  0  0  0
 18 32  1  0  0  0  0
 19 21  2  0  0  0  0
 19 37  1  0  0  0  0
 20 22  2  0  0  0  0
 20 38  1  0  0  0  0
 21 46  1  0  0  0  0
 22 39  1  0  0  0  0
 23 69  1  0  0  0  0
 24 81  1  0  0  0  0
 25 82  1  0  0  0  0
 26 28  2  0  0  0  0
 26 81  1  0  0  0  0
 27 83  1  0  0  0  0
 28 84  1  0  0  0  0
 29 63  2  0  0  0  0
 30 58  1  0  0  0  0
 30 85  1  0  0  0  0
 31 64  1  0  0  0  0
 31 67  1  0  0  0  0
 32 68  1  0  0  0  0
 32 75  2  0  0  0  0
 33 47  1  0  0  0  0
 33 70  1  0  0  0  0
 33 76  2  0  0  0  0
 34 59  1  0  0  0  0
 34 65  1  0  0  0  0
 34 77  2  0  0  0  0
 35 60  1  0  0  0  0
 35 71  1  0  0  0  0
 35 78  2  0  0  0  0
 36 66  1  0  0  0  0
 36 72  1  0  0  0  0
 36 79  2  0  0  0  0
 37 40  1  0  0  0  0
 38 47  1  0  0  0  0
 39 65  1  0  0  0  0
 40 42  1  0  0  0  0
 41 43  1  0  0  0  0
 41 44  1  0  0  0  0
 42 46  1  0  0  0  0
 43 48  1  0  0  0  0
 44 66  1  0  0  0  0
 45 48  1  0  0  0  0
 45 66  1  0  0  0  0
 46 70  1  0  0  0  0
 47 65  1  0  0  0  0
 48 64  1  0  0  0  0
 49 60  1  0  0  0  0
 50 62  1  0  0  0  0
 51 62  1  0  0  0  0
 52 62  1  0  0  0  0
 53 74  1  0  0  0  0
 54 56  1  0  0  0  0
 54 58  1  0  0  0  0
 55 61  1  0  0  0  0
 55 69  1  0  0  0  0
 56 73  1  0  0  0  0
 57 61  1  0  0  0  0
 57 82  1  0  0  0  0
 58 72  1  0  0  0  0
 59 62  1  0  0  0  0
 59 71  1  0  0  0  0
 60 74  1  0  0  0  0
 61 80  1  0  0  0  0
 63 64  1  0  0  0  0
M  CHG  2  73   1  74   1
M  ISO  4  36 100  57 101  72 100  82 101
M  END
> <Batch ID>
0193

> <Smiles>
CNC(C)C(=O)NC(C(=O)N1Cc2cc([101O:1][101CH2:1]C(O)CNc3csc(C(CCN)[100NH:0][100C:0](=O)N4CCCC(n5nc(-c6ccc(Oc7ccc(F)cc7F)cc6)c(C(N)=O)c5N)C4)c3)ccc2CC1C(=O)NC1CCCc2ccccc21)C(C)(C)C

> <Shape>
0.238

> <Color>
0.083

> <Negative vol penalty>
0.000

$$$$

  -OEChem-04052305303D

 85 93  0     1  0  0  0  0  0999 V2000
  -28.3107  -25.5701   23.7401 C   0  0  0  0  0  0  0  0  0  0  0  0
  -28.3329  -24.4045   22.9811 C   0  0  0  0  0  0  0  0  0  0  0  0
  -26.5837  -28.6834   19.0474 C   0  0  0  0  0  0  0  0  0  0  0  0
  -26.1222  -27.4571   21.0772 C   0  0  0  0  0  0  0  0  0  0  0  0
  -27.8601  -25.5333   25.0590 C   0  0  0  0  0  0  0  0  0  0  0  0
  -27.9055  -23.2010   23.5409 C   0  0  0  0  0  0  0  0  0  0  0  0
  -24.9806  -18.6436   20.6806 C   0  0  0  0  0  0  0  0  0  0  0  0
  -25.5688  -29.5869   19.3625 C   0  0  0  0  0  0  0  0  0  0  0  0
  -25.1073  -28.3606   21.3923 C   0  0  0  0  0  0  0  0  0  0  0  0
  -25.4246  -17.4381   20.1391 C   0  0  0  0  0  0  0  0  0  0  0  0
  -21.9032  -28.9279   20.4743 C   0  0  0  0  0  0  0  0  0  0  0  0
  -20.6888  -28.4081   20.9222 C   0  0  0  0  0  0  0  0  0  0  0  0
  -24.8162  -16.3044   22.1797 C   0  0  0  0  0  0  0  0  0  0  0  0
  -20.9385  -29.6153   23.0000 C   0  0  0  0  0  0  0  0  0  0  0  0
  -26.8603  -27.6184   19.9047 C   0  0  0  0  0  0  0  0  0  0  0  0
  -29.2661  -26.7707   19.9406 C   0  0  0  0  0  0  0  0  0  0  0  0
  -27.4179  -24.3306   25.6323 C   0  0  0  0  0  0  0  0  0  0  0  0
  -24.4602  -18.6906   21.9819 C   0  0  0  0  0  0  0  0  0  0  0  0
  -27.4498  -23.1478   24.8691 C   0  0  0  0  0  0  0  0  0  0  0  0
  -24.3639  -17.5114   22.7344 C   0  0  0  0  0  0  0  0  0  0  0  0
  -24.8306  -29.4256   20.5349 C   0  0  0  0  0  0  0  0  0  0  0  0
  -25.3451  -16.2687   20.8897 C   0  0  0  0  0  0  0  0  0  0  0  0
  -22.6353  -29.7913   21.2893 C   0  0  0  0  0  0  0  0  0  0  0  0
  -20.2064  -28.7518   22.1850 C   0  0  0  0  0  0  0  0  0  0  0  0
  -22.1529  -30.1350   22.5521 C   0  0  0  0  0  0  0  0  0  0  0  0
  -27.9082  -26.6845   19.5795 C   0  0  0  0  0  0  0  0  0  0  0  0
  -29.6502  -16.8328   21.1515 C   0  0  0  0  0  0  0  0  0  0  0  0
  -29.8388  -25.6485   19.3938 C   0  0  0  0  0  0  0  0  0  0  0  0
  -29.1362  -17.2704   22.3542 C   0  0  0  0  0  0  0  0  0  0  0  0
  -28.8376  -18.7567   20.4822 C   0  0  0  0  0  0  0  0  0  0  0  0
  -29.9488  -27.7755   20.7024 C   0  0  0  0  0  0  0  0  0  0  0  0
  -25.2899  -20.1559   24.6779 C   0  0  0  0  0  0  0  0  0  0  0  0
  -22.4862  -18.9268   25.7509 C   0  0  0  0  0  0  0  0  0  0  0  0
  -20.0677  -16.5375   25.4533 C   0  0  0  0  0  0  0  0  0  0  0  0
  -28.6779  -20.0877   18.3493 C   0  0  0  0  0  0  0  0  0  0  0  0
  -26.9841  -24.3312   27.0767 C   0  0  0  0  0  0  0  0  0  0  0  0
  -23.9608  -19.9943   22.5417 C   0  0  0  0  0  0  0  0  0  0  0  0
  -23.7945  -17.5047   24.1288 C   0  0  0  0  0  0  0  0  0  0  0  0
  -26.1958  -23.0866   27.4765 C   0  0  0  0  0  0  0  0  0  0  0  0
  -28.6078  -22.5274   15.7569 C   0  0  0  0  0  0  0  0  0  0  0  0
  -26.8892  -21.8281   26.9644 C   0  0  0  0  0  0  0  0  0  0  0  0
  -28.5531  -23.8573   16.5121 C   0  0  0  0  0  0  0  0  0  0  0  0
  -27.7963  -21.4415   16.4612 C   0  0  0  0  0  0  0  0  0  0  0  0
  -28.0708  -22.5709   18.6333 C   0  0  0  0  0  0  0  0  0  0  0  0
  -26.9709  -21.8276   25.4331 C   0  0  1  0  0  0  0  0  0  0  0  0
  -23.9245  -20.0150   24.0667 C   0  0  1  0  0  0  0  0  0  0  0  0
  -28.9265  -23.6782   17.9967 C   0  0  2  0  0  0  0  0  0  0  0  0
  -31.6196  -15.3748   21.7751 C   0  0  0  0  0  0  0  0  0  0  0  0
  -17.9189  -15.7689   26.4970 C   0  0  0  0  0  0  0  0  0  0  0  0
  -29.3018  -13.2781   18.9590 C   0  0  0  0  0  0  0  0  0  0  0  0
  -25.1378  -13.2601   21.7778 C   0  0  0  0  0  0  0  0  0  0  0  0
  -24.0506  -17.7151   28.0735 C   0  0  0  0  0  0  0  0  0  0  0  0
  -22.0927  -16.2204   28.5213 C   0  0  0  0  0  0  0  0  0  0  0  0
  -21.8380  -18.6951   28.7046 C   0  0  0  0  0  0  0  0  0  0  0  0
  -18.5577  -16.9772   22.9462 C   0  0  0  0  0  0  0  0  0  0  0  0
  -27.3485  -13.2675   20.5654 C   0  0  0  0  0  0  0  0  0  0  0  0
  -30.3706  -15.5263   20.9104 C   0  0  1  0  0  0  0  0  0  0  0  0
  -22.0697  -17.6389   26.4193 C   0  0  1  0  0  0  0  0  0  0  0  0
  -18.5532  -16.6359   25.4205 C   0  0  2  0  0  0  0  0  0  0  0  0
  -28.5511  -14.0584   20.0309 C   0  0  1  0  0  0  0  0  0  0  0  0
  -26.2908  -14.1213   21.2769 C   0  0  1  0  0  0  0  0  0  1  0  0
  -22.5253  -17.5675   27.9042 C   0  0  0  0  0  0  0  0  0  0  0  0
  -27.6346  -25.5937   18.8588 N   0  0  0  0  0  0  0  0  0  0  0  0
  -29.4796  -17.6835   20.0769 N   0  0  0  0  0  0  0  0  0  0  0  0
  -28.8285  -24.9843   18.7626 N   0  0  0  0  0  0  0  0  0  0  0  0
  -23.3253  -18.8055   24.6342 N   0  0  0  0  0  0  0  0  0  0  0  0
  -28.2076  -21.3255   17.8620 N   0  0  0  0  0  0  0  0  0  0  0  0
  -31.1030  -25.1749   19.3960 N   0  0  0  0  0  0  0  0  0  0  0  0
  -29.1634  -16.6404   23.5537 N   0  0  0  0  0  0  0  0  0  0  0  0
  -29.2094  -28.8618   21.1897 N   0  0  0  0  0  0  0  0  0  0  0  0
  -28.4540  -19.8812   19.7101 N   0  0  0  0  0  0  0  0  0  0  0  0
  -25.6929  -21.4652   24.8589 N   0  0  0  0  0  0  0  0  0  0  0  0
  -20.6272  -17.5292   26.2310 N   0  0  0  0  0  0  0  0  0  0  0  0
  -18.0340  -16.1945   24.0952 N   0  3  0  0  0  0  0  0  0  0  0  0
  -29.5031  -14.3422   21.1410 N   0  3  0  0  0  0  0  0  0  0  0  0
  -31.1811  -27.7202   20.9297 O   0  0  0  0  0  0  0  0  0  0  0  0
  -25.9297  -19.1511   24.9655 O   0  0  0  0  0  0  0  0  0  0  0  0
  -22.0762  -20.0006   26.1987 O   0  0  0  0  0  0  0  0  0  0  0  0
  -20.6917  -15.6657   24.8524 O   0  0  0  0  0  0  0  0  0  0  0  0
  -29.2623  -19.2827   17.6196 O   0  0  0  0  0  0  0  0  0  0  0  0
  -23.8404  -30.3072   20.8429 O   0  0  0  0  0  0  0  0  0  0  0  0
  -25.7784  -15.0908   20.3638 O   0  0  0  0  0  0  0  0  0  1  0  0
  -19.0395  -28.2538   22.6144 F   0  0  0  0  0  0  0  0  0  0  0  0
  -22.8512  -30.9650   23.3391 F   0  0  0  0  0  0  0  0  0  0  0  0
  -28.4091  -18.8093   22.1431 S   0  0  0  0  0  0  0  0  0  0  0  0
  1  2  1  0  0  0  0
  1  5  2  0  0  0  0
  2  6  2  0  0  0  0
  3  8  2  0  0  0  0
  3 15  1  0  0  0  0
  4  9  1  0  0  0  0
  4 15  2  0  0  0  0
  5 17  1  0  0  0  0
  6 19  1  0  0  0  0
  7 10  2  0  0  0  0
  7 18  1  0  0  0  0
  8 21  1  0  0  0  0
  9 21  2  0  0  0  0
 10 22  1  0  0  0  0
 11 12  2  0  0  0  0
 11 23  1  0  0  0  0
 12 24  1  0  0  0  0
 13 20  1  0  0  0  0
 13 22  2  0  0  0  0
 14 24  2  0  0  0  0
 14 25  1  0  0  0  0
 15 26  1  0  0  0  0
 16 26  1  0  0  0  0
 16 28  2  0  0  0  0
 16 31  1  0  0  0  0
 17 19  2  0  0  0  0
 17 36  1  0  0  0  0
 18 20  2  0  0  0  0
 18 37  1  0  0  0  0
 19 45  1  0  0  0  0
 20 38  1  0  0  0  0
 21 81  1  0  0  0  0
 22 82  1  0  0  0  0
 23 25  2  0  0  0  0
 23 81  1  0  0  0  0
 24 83  1  0  0  0  0
 25 84  1  0  0  0  0
 26 63  2  0  0  0  0
 27 29  2  0  0  0  0
 27 57  1  0  0  0  0
 27 64  1  0  0  0  0
 28 65  1  0  0  0  0
 28 68  1  0  0  0  0
 29 69  1  0  0  0  0
 29 85  1  0  0  0  0
 30 64  2  0  0  0  0
 30 71  1  0  0  0  0
 30 85  1  0  0  0  0
 31 70  1  0  0  0  0
 31 76  2  0  0  0  0
 32 46  1  0  0  0  0
 32 72  1  0  0  0  0
 32 77  2  0  0  0  0
 33 58  1  0  0  0  0
 33 66  1  0  0  0  0
 33 78  2  0  0  0  0
 34 59  1  0  0  0  0
 34 73  1  0  0  0  0
 34 79  2  0  0  0  0
 35 67  1  0  0  0  0
 35 71  1  0  0  0  0
 35 80  2  0  0  0  0
 36 39  1  0  0  0  0
 37 46  1  0  0  0  0
 38 66  1  0  0  0  0
 39 41  1  0  0  0  0
 40 42  1  0  0  0  0
 40 43  1  0  0  0  0
 41 45  1  0  0  0  0
 42 47  1  0  0  0  0
 43 67  1  0  0  0  0
 44 47  1  0  0  0  0
 44 67  1  0  0  0  0
 45 72  1  0  0  0  0
 46 66  1  0  0  0  0
 47 65  1  0  0  0  0
 48 57  1  0  0  0  0
 49 59  1  0  0  0  0
 50 60  1  0  0  0  0
 51 61  1  0  0  0  0
 52 62  1  0  0  0  0
 53 62  1  0  0  0  0
 54 62  1  0  0  0  0
 55 74  1  0  0  0  0
 56 60  1  0  0  0  0
 56 61  1  0  0  0  0
 57 75  1  0  0  0  0
 58 62  1  0  0  0  0
 58 73  1  0  0  0  0
 59 74  1  0  0  0  0
 60 75  1  0  0  0  0
 61 82  1  0  0  0  0
 63 65  1  0  0  0  0
M  CHG  2  74   1  75   1
M  ISO  4  35 100  61 101  71 100  82 101
M  END
> <Batch ID>
0193

> <Smiles>
CNC(C)C(=O)NC(C(=O)N1Cc2cc([101O:1][101CH:1](C)CC(C)NC(C)c3nc([100NH:0][100C:0](=O)N4CCCC(n5nc(-c6ccc(Oc7ccc(F)cc7F)cc6)c(C(N)=O)c5N)C4)sc3N)ccc2CC1C(=O)NC1CCCc2ccccc21)C(C)(C)C

> <Shape>
0.214

> <Color>
0.056

> <Negative vol penalty>
0.000

$$$$

  -OEChem-04052305303D

 88 96  0     1  0  0  0  0  0999 V2000
  -28.3697  -24.5048   16.6977 C   0  0  0  0  0  0  0  0  0  0  0  0
  -27.1868  -24.6484   17.4158 C   0  0  0  0  0  0  0  0  0  0  0  0
  -27.0390  -15.2261   19.2449 C   0  0  0  0  0  0  0  0  0  0  0  0
  -24.9755  -15.5510   20.4587 C   0  0  0  0  0  0  0  0  0  0  0  0
  -29.5481  -25.0757   17.1764 C   0  0  0  0  0  0  0  0  0  0  0  0
  -27.1820  -25.3623   18.6136 C   0  0  0  0  0  0  0  0  0  0  0  0
  -23.2541  -28.5392   18.9661 C   0  0  0  0  0  0  0  0  0  0  0  0
  -26.9995  -13.8639   19.5423 C   0  0  0  0  0  0  0  0  0  0  0  0
  -24.9360  -14.1888   20.7561 C   0  0  0  0  0  0  0  0  0  0  0  0
  -22.0172  -27.9880   19.2979 C   0  0  0  0  0  0  0  0  0  0  0  0
  -25.3819  -11.1150   18.4199 C   0  0  0  0  0  0  0  0  0  0  0  0
  -25.6538  -10.2179   17.3870 C   0  0  0  0  0  0  0  0  0  0  0  0
  -22.3211  -28.6975   21.5834 C   0  0  0  0  0  0  0  0  0  0  0  0
  -27.5234   -9.3409   18.6411 C   0  0  0  0  0  0  0  0  0  0  0  0
  -26.0270  -16.0697   19.7031 C   0  0  0  0  0  0  0  0  0  0  0  0
  -25.5089  -18.1193   18.2755 C   0  0  0  0  0  0  0  0  0  0  0  0
  -29.5557  -25.8051   18.3758 C   0  0  0  0  0  0  0  0  0  0  0  0
  -24.0400  -29.1651   19.9444 C   0  0  0  0  0  0  0  0  0  0  0  0
  -28.3619  -25.9424   19.1095 C   0  0  0  0  0  0  0  0  0  0  0  0
  -23.5664  -29.2580   21.2609 C   0  0  0  0  0  0  0  0  0  0  0  0
  -25.9480  -13.3452   20.2979 C   0  0  0  0  0  0  0  0  0  0  0  0
  -21.5518  -28.0646   20.6073 C   0  0  0  0  0  0  0  0  0  0  0  0
  -26.1808  -11.1252   19.5633 C   0  0  0  0  0  0  0  0  0  0  0  0
  -26.7245   -9.3308   17.4977 C   0  0  0  0  0  0  0  0  0  0  0  0
  -27.2515  -10.2381   19.6739 C   0  0  0  0  0  0  0  0  0  0  0  0
  -26.0676  -17.4770   19.3967 C   0  0  0  0  0  0  0  0  0  0  0  0
  -25.8193  -19.4459   18.4497 C   0  0  0  0  0  0  0  0  0  0  0  0
  -24.2903  -25.1766   25.4083 C   0  0  0  0  0  0  0  0  0  0  0  0
  -24.7033  -23.6583   23.8081 C   0  0  0  0  0  0  0  0  0  0  0  0
  -22.6037  -24.3628   24.1714 C   0  0  0  0  0  0  0  0  0  0  0  0
  -24.7750  -17.5662   17.1749 C   0  0  0  0  0  0  0  0  0  0  0  0
  -26.9186  -28.6373   21.1849 C   0  0  0  0  0  0  0  0  0  0  0  0
  -26.3514  -31.4479   22.7018 C   0  0  0  0  0  0  0  0  0  0  0  0
  -24.0695  -33.7013   23.8689 C   0  0  0  0  0  0  0  0  0  0  0  0
  -26.9976  -22.7626   23.2783 C   0  0  0  0  0  0  0  0  0  0  0  0
  -30.8638  -26.3639   18.8773 C   0  0  0  0  0  0  0  0  0  0  0  0
  -25.3599  -29.7781   19.5646 C   0  0  0  0  0  0  0  0  0  0  0  0
  -24.3626  -29.9373   22.3440 C   0  0  0  0  0  0  0  0  0  0  0  0
  -30.6970  -27.4228   19.9642 C   0  0  0  0  0  0  0  0  0  0  0  0
  -29.1110  -22.2900   20.4522 C   0  0  0  0  0  0  0  0  0  0  0  0
  -29.6974  -26.9544   21.0169 C   0  0  0  0  0  0  0  0  0  0  0  0
  -28.5159  -21.0642   19.7554 C   0  0  0  0  0  0  0  0  0  0  0  0
  -29.0285  -22.1735   21.9732 C   0  0  0  0  0  0  0  0  0  0  0  0
  -27.0946  -20.6566   21.8050 C   0  0  0  0  0  0  0  0  0  0  0  0
  -28.3113  -26.7305   20.4004 C   0  0  1  0  0  0  0  0  0  0  0  0
  -26.3071  -29.9390   20.7497 C   0  0  1  0  0  0  0  0  0  0  0  0
  -27.0963  -20.7568   20.2709 C   0  0  2  0  0  0  0  0  0  0  0  0
  -18.9114  -25.2728   26.7038 C   0  0  0  0  0  0  0  0  0  0  0  0
  -24.8221  -25.3934   27.8706 C   0  0  0  0  0  0  0  0  0  0  0  0
  -23.9065  -35.8827   25.0986 C   0  0  0  0  0  0  0  0  0  0  0  0
  -26.9680  -30.0135   25.3234 C   0  0  0  0  0  0  0  0  0  0  0  0
  -25.8877  -31.9175   26.5384 C   0  0  0  0  0  0  0  0  0  0  0  0
  -27.9189  -32.3199   25.1474 C   0  0  0  0  0  0  0  0  0  0  0  0
  -22.7389  -35.0247   21.5805 C   0  0  0  0  0  0  0  0  0  0  0  0
  -19.9272  -24.4692   25.9006 C   0  0  0  0  0  0  0  0  0  0  0  0
  -19.2334  -25.8547   22.2708 C   0  0  0  0  0  0  0  0  0  0  0  0
  -20.1910  -27.0383   22.2659 C   0  0  0  0  0  0  0  0  0  1  0  0
  -24.7798  -26.0723   26.4951 C   0  0  1  0  0  0  0  0  0  0  0  0
  -25.7113  -31.8468   24.0096 C   0  0  1  0  0  0  0  0  0  0  0  0
  -23.9863  -35.2112   23.7364 C   0  0  2  0  0  0  0  0  0  0  0  0
  -20.2549  -25.1175   24.5444 C   0  0  2  0  0  0  0  0  0  0  0  0
  -18.9973  -25.2500   23.6607 C   0  0  2  0  0  0  0  0  0  0  0  0
  -26.6071  -31.5098   25.2349 C   0  0  0  0  0  0  0  0  0  0  0  0
  -26.6861  -18.3256   20.2221 N   0  0  0  0  0  0  0  0  0  0  0  0
  -25.2152  -24.4381   24.7739 N   0  0  0  0  0  0  0  0  0  0  0  0
  -22.9703  -25.1915   25.1623 N   0  0  0  0  0  0  0  0  0  0  0  0
  -23.4119  -23.5680   23.4516 N   0  0  0  0  0  0  0  0  0  0  0  0
  -26.5181  -19.5148   19.6189 N   0  0  0  0  0  0  0  0  0  0  0  0
  -25.6498  -30.5157   21.9243 N   0  0  0  0  0  0  0  0  0  0  0  0
  -27.6538  -21.8861   22.3885 N   0  0  0  0  0  0  0  0  0  0  0  0
  -25.5600  -20.5484   17.7152 N   0  0  0  0  0  0  0  0  0  0  0  0
  -24.5450  -16.1839   17.1525 N   0  0  0  0  0  0  0  0  0  0  0  0
  -25.6179  -22.8459   23.0931 N   0  0  0  0  0  0  0  0  0  0  0  0
  -21.2577  -24.3232   23.8606 N   0  0  0  0  0  0  0  0  0  0  0  0
  -27.6389  -27.9956   20.1955 N   0  0  0  0  0  0  0  0  0  0  0  0
  -25.3762  -33.2612   23.8853 N   0  0  0  0  0  0  0  0  0  0  0  0
  -26.1485  -26.6365   26.2333 N   0  3  0  0  0  0  0  0  0  0  0  0
  -22.7799  -35.5966   22.9510 N   0  3  0  0  0  0  0  0  0  0  0  0
  -24.3503  -18.2746   16.2308 O   0  0  0  0  0  0  0  0  0  0  0  0
  -26.7507  -28.2450   22.3336 O   0  0  0  0  0  0  0  0  0  0  0  0
  -27.4306  -31.9505   22.3787 O   0  0  0  0  0  0  0  0  0  0  0  0
  -23.0749  -32.9842   23.9535 O   0  0  0  0  0  0  0  0  0  0  0  0
  -27.6175  -23.4136   24.1232 O   0  0  0  0  0  0  0  0  0  0  0  0
  -18.3773  -23.9732   23.4920 O   0  0  0  0  0  0  0  0  0  0  0  0
  -25.9090  -12.0160   20.5881 O   0  0  0  0  0  0  0  0  0  0  0  0
  -20.3451  -27.5269   20.9341 O   0  0  0  0  0  0  0  0  0  1  0  0
  -26.9846   -8.4682   16.5064 F   0  0  0  0  0  0  0  0  0  0  0  0
  -28.0218  -10.2424   20.7705 F   0  0  0  0  0  0  0  0  0  0  0  0
  1  2  1  0  0  0  0
  1  5  2  0  0  0  0
  2  6  2  0  0  0  0
  3  8  2  0  0  0  0
  3 15  1  0  0  0  0
  4  9  1  0  0  0  0
  4 15  2  0  0  0  0
  5 17  1  0  0  0  0
  6 19  1  0  0  0  0
  7 10  2  0  0  0  0
  7 18  1  0  0  0  0
  8 21  1  0  0  0  0
  9 21  2  0  0  0  0
 10 22  1  0  0  0  0
 11 12  2  0  0  0  0
 11 23  1  0  0  0  0
 12 24  1  0  0  0  0
 13 20  1  0  0  0  0
 13 22  2  0  0  0  0
 14 24  2  0  0  0  0
 14 25  1  0  0  0  0
 15 26  1  0  0  0  0
 16 26  1  0  0  0  0
 16 27  2  0  0  0  0
 16 31  1  0  0  0  0
 17 19  2  0  0  0  0
 17 36  1  0  0  0  0
 18 20  2  0  0  0  0
 18 37  1  0  0  0  0
 19 45  1  0  0  0  0
 20 38  1  0  0  0  0
 21 85  1  0  0  0  0
 22 86  1  0  0  0  0
 23 25  2  0  0  0  0
 23 85  1  0  0  0  0
 24 87  1  0  0  0  0
 25 88  1  0  0  0  0
 26 64  2  0  0  0  0
 27 68  1  0  0  0  0
 27 71  1  0  0  0  0
 28 58  1  0  0  0  0
 28 65  2  0  0  0  0
 28 66  1  0  0  0  0
 29 65  1  0  0  0  0
 29 67  2  0  0  0  0
 29 73  1  0  0  0  0
 30 66  2  0  0  0  0
 30 67  1  0  0  0  0
 30 74  1  0  0  0  0
 31 72  1  0  0  0  0
 31 79  2  0  0  0  0
 32 46  1  0  0  0  0
 32 75  1  0  0  0  0
 32 80  2  0  0  0  0
 33 59  1  0  0  0  0
 33 69  1  0  0  0  0
 33 81  2  0  0  0  0
 34 60  1  0  0  0  0
 34 76  1  0  0  0  0
 34 82  2  0  0  0  0
 35 70  1  0  0  0  0
 35 73  1  0  0  0  0
 35 83  2  0  0  0  0
 36 39  1  0  0  0  0
 37 46  1  0  0  0  0
 38 69  1  0  0  0  0
 39 41  1  0  0  0  0
 40 42  1  0  0  0  0
 40 43  1  0  0  0  0
 41 45  1  0  0  0  0
 42 47  1  0  0  0  0
 43 70  1  0  0  0  0
 44 47  1  0  0  0  0
 44 70  1  0  0  0  0
 45 75  1  0  0  0  0
 46 69  1  0  0  0  0
 47 68  1  0  0  0  0
 48 55  1  0  0  0  0
 49 58  1  0  0  0  0
 50 60  1  0  0  0  0
 51 63  1  0  0  0  0
 52 63  1  0  0  0  0
 53 63  1  0  0  0  0
 54 78  1  0  0  0  0
 55 61  1  0  0  0  0
 56 57  1  0  0  0  0
 56 62  1  0  0  0  0
 57 86  1  0  0  0  0
 58 77  1  0  0  0  0
 59 63  1  0  0  0  0
 59 76  1  0  0  0  0
 60 78  1  0  0  0  0
 61 62  1  0  0  0  0
 61 74  1  0  0  0  0
 62 84  1  0  0  0  0
 64 68  1  0  0  0  0
M  CHG  2  77   1  78   1
M  ISO  4  35 100  57 101  73 100  86 101
M  END
> <Batch ID>
0193

> <Smiles>
CCC(Nc1nc([100NH:0][100C:0](=O)N2CCCC(n3nc(-c4ccc(Oc5ccc(F)cc5F)cc4)c(C(N)=O)c3N)C2)nc(C(C)N)n1)C(O)C[101CH2:1][101O:1]c1ccc2c(c1)CN(C(=O)C(NC(=O)C(C)NC)C(C)(C)C)C(C(=O)NC1CCCc3ccccc31)C2

> <Shape>
0.257

> <Color>
0.062

> <Negative vol penalty>
0.000

$$$$

  -OEChem-04052305303D

 85 93  0     1  0  0  0  0  0999 V2000
  -23.8562  -26.6807   19.3975 C   0  0  0  0  0  0  0  0  0  0  0  0
  -24.5392  -25.9363   20.3540 C   0  0  0  0  0  0  0  0  0  0  0  0
  -23.0103   -9.8575   20.1122 C   0  0  0  0  0  0  0  0  0  0  0  0
  -23.7042  -10.0931   22.4144 C   0  0  0  0  0  0  0  0  0  0  0  0
  -24.5191  -27.1167   18.2511 C   0  0  0  0  0  0  0  0  0  0  0  0
  -25.8855  -25.6266   20.1639 C   0  0  0  0  0  0  0  0  0  0  0  0
  -28.6526  -26.3424   24.3443 C   0  0  0  0  0  0  0  0  0  0  0  0
  -22.2417   -8.7459   20.4576 C   0  0  0  0  0  0  0  0  0  0  0  0
  -22.9356   -8.9815   22.7598 C   0  0  0  0  0  0  0  0  0  0  0  0
  -28.5748  -25.3641   25.3346 C   0  0  0  0  0  0  0  0  0  0  0  0
  -23.1906   -5.6162   22.5580 C   0  0  0  0  0  0  0  0  0  0  0  0
  -23.7692   -4.6634   23.3964 C   0  0  0  0  0  0  0  0  0  0  0  0
  -31.5629  -19.4799   22.2478 C   0  0  0  0  0  0  0  0  0  0  0  0
  -30.6584  -24.4252   24.5625 C   0  0  0  0  0  0  0  0  0  0  0  0
  -29.7614  -17.8811   22.2886 C   0  0  0  0  0  0  0  0  0  0  0  0
  -22.0226   -5.0345   25.0238 C   0  0  0  0  0  0  0  0  0  0  0  0
  -32.3246  -18.5575   21.5446 C   0  0  0  0  0  0  0  0  0  0  0  0
  -23.7416  -10.5310   21.0906 C   0  0  0  0  0  0  0  0  0  0  0  0
  -24.1260  -13.0256   20.7204 C   0  0  0  0  0  0  0  0  0  0  0  0
  -25.8766  -26.8203   18.0515 C   0  0  0  0  0  0  0  0  0  0  0  0
  -29.7302  -26.3629   23.4472 C   0  0  0  0  0  0  0  0  0  0  0  0
  -26.5668  -26.0579   19.0131 C   0  0  0  0  0  0  0  0  0  0  0  0
  -30.7489  -25.4063   23.5633 C   0  0  0  0  0  0  0  0  0  0  0  0
  -30.2680  -19.1337   22.6217 C   0  0  0  0  0  0  0  0  0  0  0  0
  -22.2043   -8.3079   21.7814 C   0  0  0  0  0  0  0  0  0  0  0  0
  -29.5763  -24.4036   25.4420 C   0  0  0  0  0  0  0  0  0  0  0  0
  -22.0279   -6.2783   22.9526 C   0  0  0  0  0  0  0  0  0  0  0  0
  -23.1852   -4.3725   24.6292 C   0  0  0  0  0  0  0  0  0  0  0  0
  -21.4439   -5.9874   24.1854 C   0  0  0  0  0  0  0  0  0  0  0  0
  -24.5362  -11.6790   20.7343 C   0  0  0  0  0  0  0  0  0  0  0  0
  -25.2396  -13.7196   20.3146 C   0  0  0  0  0  0  0  0  0  0  0  0
  -30.5687  -16.9992   21.5843 C   0  0  0  0  0  0  0  0  0  0  0  0
  -22.8522  -13.5980   21.0453 C   0  0  0  0  0  0  0  0  0  0  0  0
  -30.0318  -26.0708   20.2964 C   0  0  0  0  0  0  0  0  0  0  0  0
  -33.1302  -26.8039   20.9167 C   0  0  0  0  0  0  0  0  0  0  0  0
  -35.7011  -26.8591   23.1603 C   0  0  0  0  0  0  0  0  0  0  0  0
  -30.7142  -14.7092   20.5446 C   0  0  0  0  0  0  0  0  0  0  0  0
  -26.5383  -27.2730   16.7740 C   0  0  0  0  0  0  0  0  0  0  0  0
  -29.8131  -27.4408   22.4015 C   0  0  0  0  0  0  0  0  0  0  0  0
  -31.9371  -25.3969   22.6378 C   0  0  0  0  0  0  0  0  0  0  0  0
  -28.0630  -27.2218   16.8264 C   0  0  0  0  0  0  0  0  0  0  0  0
  -29.6306  -12.0766   18.4062 C   0  0  0  0  0  0  0  0  0  0  0  0
  -28.5327  -25.8951   17.4147 C   0  0  0  0  0  0  0  0  0  0  0  0
  -28.1749  -11.8493   18.8201 C   0  0  0  0  0  0  0  0  0  0  0  0
  -30.5144  -12.4175   19.6048 C   0  0  0  0  0  0  0  0  0  0  0  0
  -28.5802  -13.3053   20.8457 C   0  0  0  0  0  0  0  0  0  0  0  0
  -28.0341  -25.7228   18.8546 C   0  0  1  0  0  0  0  0  0  0  0  0
  -30.6939  -27.0571   21.2164 C   0  0  1  0  0  0  0  0  0  0  0  0
  -27.6389  -13.0229   19.6634 C   0  0  2  0  0  0  0  0  0  0  0  0
  -38.1241  -27.4793   23.3649 C   0  0  0  0  0  0  0  0  0  0  0  0
  -27.2026  -19.9079   22.5488 C   0  0  0  0  0  0  0  0  0  0  0  0
  -33.9031  -24.2782   19.3891 C   0  0  0  0  0  0  0  0  0  0  0  0
  -36.1793  -24.4352   20.4199 C   0  0  0  0  0  0  0  0  0  0  0  0
  -35.3576  -26.2605   18.9313 C   0  0  0  0  0  0  0  0  0  0  0  0
  -35.1297  -28.8674   25.2578 C   0  0  0  0  0  0  0  0  0  0  0  0
  -28.2246  -21.5799   27.2428 C   0  0  0  0  0  0  0  0  0  0  0  0
  -27.7230  -20.7105   24.8836 C   0  0  0  0  0  0  0  0  0  0  0  0
  -28.1984  -23.0431   26.8228 C   0  0  0  0  0  0  0  0  0  1  0  0
  -34.3714  -26.0101   21.2458 C   0  0  1  0  0  0  0  0  0  0  0  0
  -36.6881  -27.9501   23.5347 C   0  0  2  0  0  0  0  0  0  0  0  0
  -28.1307  -19.7535   23.7501 C   0  0  2  0  0  0  0  0  0  0  0  0
  -28.6306  -20.6175   26.1216 C   0  0  2  0  0  0  0  0  0  0  0  0
  -34.9296  -25.2447   20.0129 C   0  0  0  0  0  0  0  0  0  0  0  0
  -25.8108  -11.5244   20.3665 N   0  0  0  0  0  0  0  0  0  0  0  0
  -26.2112  -12.7829   20.1175 N   0  0  0  0  0  0  0  0  0  0  0  0
  -31.8120  -17.3583   21.2367 N   0  3  0  0  0  0  0  0  0  0  0  0
  -31.9695  -26.4676   21.6278 N   0  0  0  0  0  0  0  0  0  0  0  0
  -29.9466  -13.5408   20.3536 N   0  0  0  0  0  0  0  0  0  0  0  0
  -25.4727  -15.0335   20.1106 N   0  0  0  0  0  0  0  0  0  0  0  0
  -21.8170  -12.7415   21.4442 N   0  0  0  0  0  0  0  0  0  0  0  0
  -29.4866  -20.0328   23.3248 N   0  0  0  0  0  0  0  0  0  0  0  0
  -30.0581  -15.7222   21.2431 N   0  0  0  0  0  0  0  0  0  0  0  0
  -28.8352  -26.5127   19.7649 N   0  0  0  0  0  0  0  0  0  0  0  0
  -35.3129  -26.9526   21.8406 N   0  0  0  0  0  0  0  0  0  0  0  0
  -36.4927  -28.3605   24.9540 N   0  3  0  0  0  0  0  0  0  0  0  0
  -22.6336  -14.8308   20.9679 O   0  0  0  0  0  0  0  0  0  0  0  0
  -30.5675  -24.9894   20.0834 O   0  0  0  0  0  0  0  0  0  0  0  0
  -33.1900  -27.6945   20.0653 O   0  0  0  0  0  0  0  0  0  0  0  0
  -35.3162  -26.0068   23.9578 O   0  0  0  0  0  0  0  0  0  0  0  0
  -31.8587  -14.8143   20.0962 O   0  0  0  0  0  0  0  0  0  0  0  0
  -28.5840  -19.2894   26.6460 O   0  0  0  0  0  0  0  0  0  0  0  0
  -21.4542   -7.2235   22.1188 O   0  0  0  0  0  0  0  0  0  0  0  0
  -29.5024  -23.4473   26.4073 O   0  0  0  0  0  0  0  0  0  1  0  0
  -23.7401   -3.4563   25.4335 F   0  0  0  0  0  0  0  0  0  0  0  0
  -20.3263   -6.6194   24.5694 F   0  0  0  0  0  0  0  0  0  0  0  0
  1  2  1  0  0  0  0
  1  5  2  0  0  0  0
  2  6  2  0  0  0  0
  3  8  2  0  0  0  0
  3 18  1  0  0  0  0
  4  9  1  0  0  0  0
  4 18  2  0  0  0  0
  5 20  1  0  0  0  0
  6 22  1  0  0  0  0
  7 10  2  0  0  0  0
  7 21  1  0  0  0  0
  8 25  1  0  0  0  0
  9 25  2  0  0  0  0
 10 26  1  0  0  0  0
 11 12  2  0  0  0  0
 11 27  1  0  0  0  0
 12 28  1  0  0  0  0
 13 17  2  0  0  0  0
 13 24  1  0  0  0  0
 14 23  1  0  0  0  0
 14 26  2  0  0  0  0
 15 24  2  0  0  0  0
 15 32  1  0  0  0  0
 16 28  2  0  0  0  0
 16 29  1  0  0  0  0
 17 66  1  0  0  0  0
 18 30  1  0  0  0  0
 19 30  1  0  0  0  0
 19 31  2  0  0  0  0
 19 33  1  0  0  0  0
 20 22  2  0  0  0  0
 20 38  1  0  0  0  0
 21 23  2  0  0  0  0
 21 39  1  0  0  0  0
 22 47  1  0  0  0  0
 23 40  1  0  0  0  0
 24 71  1  0  0  0  0
 25 82  1  0  0  0  0
 26 83  1  0  0  0  0
 27 29  2  0  0  0  0
 27 82  1  0  0  0  0
 28 84  1  0  0  0  0
 29 85  1  0  0  0  0
 30 64  2  0  0  0  0
 31 65  1  0  0  0  0
 31 69  1  0  0  0  0
 32 66  2  0  0  0  0
 32 72  1  0  0  0  0
 33 70  1  0  0  0  0
 33 76  2  0  0  0  0
 34 48  1  0  0  0  0
 34 73  1  0  0  0  0
 34 77  2  0  0  0  0
 35 59  1  0  0  0  0
 35 67  1  0  0  0  0
 35 78  2  0  0  0  0
 36 60  1  0  0  0  0
 36 74  1  0  0  0  0
 36 79  2  0  0  0  0
 37 68  1  0  0  0  0
 37 72  1  0  0  0  0
 37 80  2  0  0  0  0
 38 41  1  0  0  0  0
 39 48  1  0  0  0  0
 40 67  1  0  0  0  0
 41 43  1  0  0  0  0
 42 44  1  0  0  0  0
 42 45  1  0  0  0  0
 43 47  1  0  0  0  0
 44 49  1  0  0  0  0
 45 68  1  0  0  0  0
 46 49  1  0  0  0  0
 46 68  1  0  0  0  0
 47 73  1  0  0  0  0
 48 67  1  0  0  0  0
 49 65  1  0  0  0  0
 50 60  1  0  0  0  0
 51 61  1  0  0  0  0
 52 63  1  0  0  0  0
 53 63  1  0  0  0  0
 54 63  1  0  0  0  0
 55 75  1  0  0  0  0
 56 58  1  0  0  0  0
 56 62  1  0  0  0  0
 57 61  1  0  0  0  0
 57 62  1  0  0  0  0
 58 83  1  0  0  0  0
 59 63  1  0  0  0  0
 59 74  1  0  0  0  0
 60 75  1  0  0  0  0
 61 71  1  0  0  0  0
 62 81  1  0  0  0  0
 64 65  1  0  0  0  0
M  CHG  2  66   1  75   1
M  ISO  4  37 100  58 101  72 100  83 101
M  END
> <Batch ID>
0193

> <Smiles>
CNC(C)C(=O)NC(C(=O)N1Cc2cc([101O:1][101CH2:1]CC(O)CC(C)Nc3ccnc([100NH:0][100C:0](=O)N4CCCC(n5nc(-c6ccc(Oc7ccc(F)cc7F)cc6)c(C(N)=O)c5N)C4)c3)ccc2CC1C(=O)NC1CCCc2ccccc21)C(C)(C)C

> <Shape>
0.231

> <Color>
0.195

> <Negative vol penalty>
0.000

$$$$

  -OEChem-04052305303D

 81 89  0     1  0  0  0  0  0999 V2000
  -26.0813  -33.9740   25.6284 C   0  0  0  0  0  0  0  0  0  0  0  0
  -26.6283  -32.8521   25.0139 C   0  0  0  0  0  0  0  0  0  0  0  0
  -24.1127  -18.3906   19.6603 C   0  0  0  0  0  0  0  0  0  0  0  0
  -25.6225  -17.1207   18.2657 C   0  0  0  0  0  0  0  0  0  0  0  0
  -24.7477  -33.9642   26.0349 C   0  0  0  0  0  0  0  0  0  0  0  0
  -25.8422  -31.7192   24.8066 C   0  0  0  0  0  0  0  0  0  0  0  0
  -26.4272  -29.7706   20.1692 C   0  0  0  0  0  0  0  0  0  0  0  0
  -23.5420  -17.2047   20.1224 C   0  0  0  0  0  0  0  0  0  0  0  0
  -25.0518  -15.9347   18.7278 C   0  0  0  0  0  0  0  0  0  0  0  0
  -27.5723  -29.0095   19.9382 C   0  0  0  0  0  0  0  0  0  0  0  0
  -24.2350  -12.5619   19.8119 C   0  0  0  0  0  0  0  0  0  0  0  0
  -25.0953  -11.5253   20.1735 C   0  0  0  0  0  0  0  0  0  0  0  0
  -26.2807  -26.9918   20.2207 C   0  0  0  0  0  0  0  0  0  0  0  0
  -26.1063  -12.9472   21.8447 C   0  0  0  0  0  0  0  0  0  0  0  0
  -25.1529  -18.3486   18.7319 C   0  0  0  0  0  0  0  0  0  0  0  0
  -26.8364  -20.2637   18.8091 C   0  0  0  0  0  0  0  0  0  0  0  0
  -23.9422  -32.8341   25.8238 C   0  0  0  0  0  0  0  0  0  0  0  0
  -25.2005  -29.1471   20.4390 C   0  0  0  0  0  0  0  0  0  0  0  0
  -24.4969  -31.6938   25.2119 C   0  0  0  0  0  0  0  0  0  0  0  0
  -25.1211  -27.7472   20.4523 C   0  0  0  0  0  0  0  0  0  0  0  0
  -24.0116  -15.9767   19.6561 C   0  0  0  0  0  0  0  0  0  0  0  0
  -27.4997  -27.6199   19.9668 C   0  0  0  0  0  0  0  0  0  0  0  0
  -24.3104  -13.7913   20.4666 C   0  0  0  0  0  0  0  0  0  0  0  0
  -26.0309  -11.7178   21.1899 C   0  0  0  0  0  0  0  0  0  0  0  0
  -25.2461  -13.9839   21.4831 C   0  0  0  0  0  0  0  0  0  0  0  0
  -25.7424  -19.5733   18.2538 C   0  0  0  0  0  0  0  0  0  0  0  0
  -27.0030  -21.3561   17.9934 C   0  0  0  0  0  0  0  0  0  0  0  0
  -29.7914  -25.6427   13.4105 C   0  0  0  0  0  0  0  0  0  0  0  0
  -30.3636  -27.0270   14.9890 C   0  0  0  0  0  0  0  0  0  0  0  0
  -27.6310  -19.9459   19.9595 C   0  0  0  0  0  0  0  0  0  0  0  0
  -23.1875  -29.1270   22.8989 C   0  0  0  0  0  0  0  0  0  0  0  0
  -21.3340  -27.4077   20.8664 C   0  0  0  0  0  0  0  0  0  0  0  0
  -21.1486  -25.3730   18.1328 C   0  0  0  0  0  0  0  0  0  0  0  0
  -27.2721  -23.6354   12.9064 C   0  0  0  0  0  0  0  0  0  0  0  0
  -22.5191  -32.8534   26.3231 C   0  0  0  0  0  0  0  0  0  0  0  0
  -23.9691  -29.9821   20.6597 C   0  0  0  0  0  0  0  0  0  0  0  0
  -23.8240  -27.0290   20.7172 C   0  0  0  0  0  0  0  0  0  0  0  0
  -21.6500  -31.7482   25.7286 C   0  0  0  0  0  0  0  0  0  0  0  0
  -24.0404  -23.2208   14.3420 C   0  0  0  0  0  0  0  0  0  0  0  0
  -22.3807  -30.4101   25.7772 C   0  0  0  0  0  0  0  0  0  0  0  0
  -24.2845  -22.2873   15.5291 C   0  0  0  0  0  0  0  0  0  0  0  0
  -24.9303  -22.8661   13.1528 C   0  0  0  0  0  0  0  0  0  0  0  0
  -26.6158  -21.8618   14.6443 C   0  0  0  0  0  0  0  0  0  0  0  0
  -23.6694  -30.4547   24.9473 C   0  0  1  0  0  0  0  0  0  0  0  0
  -22.8791  -29.2465   21.4332 C   0  0  1  0  0  0  0  0  0  0  0  0
  -25.7811  -22.2152   15.8872 C   0  0  2  0  0  0  0  0  0  0  0  0
  -19.5007  -24.0968   16.7352 C   0  0  0  0  0  0  0  0  0  0  0  0
  -21.1415  -25.2778   23.0427 C   0  0  0  0  0  0  0  0  0  0  0  0
  -20.3263  -23.6729   21.3025 C   0  0  0  0  0  0  0  0  0  0  0  0
  -19.0025  -25.7216   21.8252 C   0  0  0  0  0  0  0  0  0  0  0  0
  -21.8281  -26.9255   15.7065 C   0  0  0  0  0  0  0  0  0  0  0  0
  -29.6563  -24.3141   12.7890 C   0  0  0  0  0  0  0  0  0  0  0  0
  -30.3550  -26.2981   18.1922 C   0  0  0  0  0  0  0  0  0  0  0  0
  -31.4309  -26.7907   17.2320 C   0  0  0  0  0  0  0  0  0  0  0  0
  -29.6079  -27.4335   18.8819 C   0  0  0  0  0  0  0  0  0  1  0  0
  -21.1732  -25.9409   20.5476 C   0  0  1  0  0  0  0  0  0  0  0  0
  -20.2501  -25.4086   16.9097 C   0  0  2  0  0  0  0  0  0  0  0  0
  -20.4358  -25.1666   21.6764 C   0  0  0  0  0  0  0  0  0  0  0  0
  -25.2488  -20.1766   17.1692 N   0  0  0  0  0  0  0  0  0  0  0  0
  -30.3622  -25.7520   14.6672 N   0  0  0  0  0  0  0  0  0  0  0  0
  -29.3649  -26.7239   12.7582 N   0  0  0  0  0  0  0  0  0  0  0  0
  -26.0362  -21.2576   17.0365 N   0  0  0  0  0  0  0  0  0  0  0  0
  -22.6490  -27.8895   20.9333 N   0  0  0  0  0  0  0  0  0  0  0  0
  -26.3368  -22.8156   13.5593 N   0  0  0  0  0  0  0  0  0  0  0  0
  -27.8807  -22.3816   18.0085 N   0  0  0  0  0  0  0  0  0  0  0  0
  -27.3237  -18.7862   20.6841 N   0  0  0  0  0  0  0  0  0  0  0  0
  -30.8472  -27.5718   16.1683 N   0  0  0  0  0  0  0  0  0  0  0  0
  -23.3663  -30.3397   23.5368 N   0  0  0  0  0  0  0  0  0  0  0  0
  -20.5128  -25.8756   19.2484 N   0  0  0  0  0  0  0  0  0  0  0  0
  -28.5822  -23.5305   13.3573 N   0  0  0  0  0  0  0  0  0  0  0  0
  -21.0569  -25.6560   15.6814 N   0  3  0  0  0  0  0  0  0  0  0  0
  -28.5748  -20.6776   20.3433 O   0  0  0  0  0  0  0  0  0  0  0  0
  -23.2565  -28.0169   23.4132 O   0  0  0  0  0  0  0  0  0  0  0  0
  -20.3297  -28.1020   21.0423 O   0  0  0  0  0  0  0  0  0  0  0  0
  -22.2981  -24.9391   18.1025 O   0  0  0  0  0  0  0  0  0  0  0  0
  -26.9616  -24.4077   11.9931 O   0  0  0  0  0  0  0  0  0  0  0  0
  -23.4551  -14.8193   20.1070 O   0  0  0  0  0  0  0  0  0  0  0  0
  -28.6160  -26.8746   19.7423 O   0  0  0  0  0  0  0  0  0  1  0  0
  -26.8559  -10.7217   21.5381 F   0  0  0  0  0  0  0  0  0  0  0  0
  -25.3224  -15.1624   22.1165 F   0  0  0  0  0  0  0  0  0  0  0  0
  -29.6823  -28.0208   13.7672 S   0  0  0  0  0  0  0  0  0  0  0  0
  1  2  1  0  0  0  0
  1  5  2  0  0  0  0
  2  6  2  0  0  0  0
  3  8  2  0  0  0  0
  3 15  1  0  0  0  0
  4  9  1  0  0  0  0
  4 15  2  0  0  0  0
  5 17  1  0  0  0  0
  6 19  1  0  0  0  0
  7 10  2  0  0  0  0
  7 18  1  0  0  0  0
  8 21  1  0  0  0  0
  9 21  2  0  0  0  0
 10 22  1  0  0  0  0
 11 12  2  0  0  0  0
 11 23  1  0  0  0  0
 12 24  1  0  0  0  0
 13 20  1  0  0  0  0
 13 22  2  0  0  0  0
 14 24  2  0  0  0  0
 14 25  1  0  0  0  0
 15 26  1  0  0  0  0
 16 26  1  0  0  0  0
 16 27  2  0  0  0  0
 16 30  1  0  0  0  0
 17 19  2  0  0  0  0
 17 35  1  0  0  0  0
 18 20  2  0  0  0  0
 18 36  1  0  0  0  0
 19 44  1  0  0  0  0
 20 37  1  0  0  0  0
 21 77  1  0  0  0  0
 22 78  1  0  0  0  0
 23 25  2  0  0  0  0
 23 77  1  0  0  0  0
 24 79  1  0  0  0  0
 25 80  1  0  0  0  0
 26 59  2  0  0  0  0
 27 62  1  0  0  0  0
 27 65  1  0  0  0  0
 28 52  1  0  0  0  0
 28 60  1  0  0  0  0
 28 61  2  0  0  0  0
 29 60  2  0  0  0  0
 29 67  1  0  0  0  0
 29 81  1  0  0  0  0
 30 66  1  0  0  0  0
 30 72  2  0  0  0  0
 31 45  1  0  0  0  0
 31 68  1  0  0  0  0
 31 73  2  0  0  0  0
 32 56  1  0  0  0  0
 32 63  1  0  0  0  0
 32 74  2  0  0  0  0
 33 57  1  0  0  0  0
 33 69  1  0  0  0  0
 33 75  2  0  0  0  0
 34 64  1  0  0  0  0
 34 70  1  0  0  0  0
 34 76  2  0  0  0  0
 35 38  1  0  0  0  0
 36 45  1  0  0  0  0
 37 63  1  0  0  0  0
 38 40  1  0  0  0  0
 39 41  1  0  0  0  0
 39 42  1  0  0  0  0
 40 44  1  0  0  0  0
 41 46  1  0  0  0  0
 42 64  1  0  0  0  0
 43 46  1  0  0  0  0
 43 64  1  0  0  0  0
 44 68  1  0  0  0  0
 45 63  1  0  0  0  0
 46 62  1  0  0  0  0
 47 57  1  0  0  0  0
 48 58  1  0  0  0  0
 49 58  1  0  0  0  0
 50 58  1  0  0  0  0
 51 71  1  0  0  0  0
 52 70  1  0  0  0  0
 53 54  1  0  0  0  0
 53 55  1  0  0  0  0
 54 67  1  0  0  0  0
 55 78  1  0  0  0  0
 56 58  1  0  0  0  0
 56 69  1  0  0  0  0
 57 71  1  0  0  0  0
 59 62  1  0  0  0  0
 61 81  1  0  0  0  0
M  CHG  1  71   1
M  ISO  4  34 100  55 101  70 100  78 101
M  END
> <Batch ID>
0193

> <Smiles>
CNC(C)C(=O)NC(C(=O)N1Cc2cc([101O:1][101CH2:1]CCNc3nc(C[100NH:0][100C:0](=O)N4CCCC(n5nc(-c6ccc(Oc7ccc(F)cc7F)cc6)c(C(N)=O)c5N)C4)ns3)ccc2CC1C(=O)NC1CCCc2ccccc21)C(C)(C)C

> <Shape>
0.181

> <Color>
0.076

> <Negative vol penalty>
0.000

$$$$

  -OEChem-04052305303D

 89 97  0     1  0  0  0  0  0999 V2000
  -28.1593  -23.9645   17.5961 C   0  0  0  0  0  0  0  0  0  0  0  0
  -26.9684  -24.2282   18.2651 C   0  0  0  0  0  0  0  0  0  0  0  0
  -23.7895  -12.1087   20.6940 C   0  0  0  0  0  0  0  0  0  0  0  0
  -25.3553  -13.8414   21.3130 C   0  0  0  0  0  0  0  0  0  0  0  0
  -29.3508  -24.5318   18.0462 C   0  0  0  0  0  0  0  0  0  0  0  0
  -26.9685  -25.0586   19.3854 C   0  0  0  0  0  0  0  0  0  0  0  0
  -23.1759  -28.4136   19.3168 C   0  0  0  0  0  0  0  0  0  0  0  0
  -24.8518  -11.2558   20.3944 C   0  0  0  0  0  0  0  0  0  0  0  0
  -26.4176  -12.9885   21.0135 C   0  0  0  0  0  0  0  0  0  0  0  0
  -21.9092  -27.9500   19.6695 C   0  0  0  0  0  0  0  0  0  0  0  0
  -28.0310  -11.8938   18.2513 C   0  0  0  0  0  0  0  0  0  0  0  0
  -29.0920  -12.4154   17.5113 C   0  0  0  0  0  0  0  0  0  0  0  0
  -22.1936  -28.8727   21.8801 C   0  0  0  0  0  0  0  0  0  0  0  0
  -30.6051  -11.9129   19.3266 C   0  0  0  0  0  0  0  0  0  0  0  0
  -24.0413  -13.4015   21.1533 C   0  0  0  0  0  0  0  0  0  0  0  0
  -22.2938  -14.4284   22.7024 C   0  0  0  0  0  0  0  0  0  0  0  0
  -29.3639  -25.3772   19.1667 C   0  0  0  0  0  0  0  0  0  0  0  0
  -23.9666  -29.1019   20.2481 C   0  0  0  0  0  0  0  0  0  0  0  0
  -28.1614  -25.6366   19.8516 C   0  0  0  0  0  0  0  0  0  0  0  0
  -23.4689  -29.3463   21.5360 C   0  0  0  0  0  0  0  0  0  0  0  0
  -26.1658  -11.6956   20.5542 C   0  0  0  0  0  0  0  0  0  0  0  0
  -21.4190  -28.1770   20.9522 C   0  0  0  0  0  0  0  0  0  0  0  0
  -28.2569  -11.3818   19.5290 C   0  0  0  0  0  0  0  0  0  0  0  0
  -30.3791  -12.4249   18.0489 C   0  0  0  0  0  0  0  0  0  0  0  0
  -29.5440  -11.3913   20.0666 C   0  0  0  0  0  0  0  0  0  0  0  0
  -22.9444  -14.2832   21.4624 C   0  0  0  0  0  0  0  0  0  0  0  0
  -22.3594  -22.3045   20.4442 C   0  0  0  0  0  0  0  0  0  0  0  0
  -21.3307  -15.3810   22.4754 C   0  0  0  0  0  0  0  0  0  0  0  0
  -23.3075  -22.1273   21.4299 C   0  0  0  0  0  0  0  0  0  0  0  0
  -21.4804  -23.5964   21.9831 C   0  0  0  0  0  0  0  0  0  0  0  0
  -22.5383  -13.7619   23.9480 C   0  0  0  0  0  0  0  0  0  0  0  0
  -26.7917  -28.5838   21.6098 C   0  0  0  0  0  0  0  0  0  0  0  0
  -26.3144  -31.5537   22.8239 C   0  0  0  0  0  0  0  0  0  0  0  0
  -24.1078  -34.0050   23.7008 C   0  0  0  0  0  0  0  0  0  0  0  0
  -20.8478  -19.8216   18.4880 C   0  0  0  0  0  0  0  0  0  0  0  0
  -30.6837  -25.9294   19.6440 C   0  0  0  0  0  0  0  0  0  0  0  0
  -25.3200  -29.6189   19.8438 C   0  0  0  0  0  0  0  0  0  0  0  0
  -24.2700  -30.0978   22.5665 C   0  0  0  0  0  0  0  0  0  0  0  0
  -30.5395  -27.0982   20.6153 C   0  0  0  0  0  0  0  0  0  0  0  0
  -18.5554  -17.1459   19.0007 C   0  0  0  0  0  0  0  0  0  0  0  0
  -29.4976  -26.7797   21.6829 C   0  0  0  0  0  0  0  0  0  0  0  0
  -19.3616  -16.1220   19.8016 C   0  0  0  0  0  0  0  0  0  0  0  0
  -19.4220  -17.8637   17.9682 C   0  0  0  0  0  0  0  0  0  0  0  0
  -21.4489  -17.4644   19.3120 C   0  0  0  0  0  0  0  0  0  0  0  0
  -28.1169  -26.5521   21.0558 C   0  0  1  0  0  0  0  0  0  0  0  0
  -26.2471  -29.8591   21.0314 C   0  0  1  0  0  0  0  0  0  0  0  0
  -20.6305  -16.7546   20.4041 C   0  0  2  0  0  0  0  0  0  0  0  0
  -24.0130  -36.3039   24.7023 C   0  0  0  0  0  0  0  0  0  0  0  0
  -18.3269  -23.9104   22.0585 C   0  0  0  0  0  0  0  0  0  0  0  0
  -26.2187  -22.5127   22.5645 C   0  0  0  0  0  0  0  0  0  0  0  0
  -26.8104  -30.3662   25.5905 C   0  0  0  0  0  0  0  0  0  0  0  0
  -25.7877  -32.4256   26.5812 C   0  0  0  0  0  0  0  0  0  0  0  0
  -27.8645  -32.6021   25.2106 C   0  0  0  0  0  0  0  0  0  0  0  0
  -25.3182  -18.6634   22.2924 C   0  0  0  0  0  0  0  0  0  0  0  0
  -27.1150  -19.9443   21.1153 C   0  0  0  0  0  0  0  0  0  0  0  0
  -27.1415  -19.7717   23.5998 C   0  0  0  0  0  0  0  0  0  0  0  0
  -22.8864  -35.1450   21.2579 C   0  0  0  0  0  0  0  0  0  0  0  0
  -22.3678  -21.6849   19.1019 C   0  0  0  0  0  0  0  0  0  0  0  0
  -18.9540  -26.2522   22.7425 C   0  0  0  0  0  0  0  0  0  0  0  0
  -19.9789  -27.3797   22.6686 C   0  0  0  0  0  0  0  0  0  1  0  0
  -25.6638  -32.1081   24.0683 C   0  0  1  0  0  0  0  0  0  0  0  0
  -24.0933  -35.4961   23.4164 C   0  0  2  0  0  0  0  0  0  0  0  0
  -19.4080  -24.9856   22.0102 C   0  0  1  0  0  0  0  0  0  0  0  0
  -25.3865  -21.2317   22.4793 C   0  0  2  0  0  0  0  0  0  0  0  0
  -26.5171  -31.8596   25.3441 C   0  0  0  0  0  0  0  0  0  0  0  0
  -26.2177  -19.9118   22.3694 C   0  0  0  0  0  0  0  0  0  0  0  0
  -22.4373  -15.0797   20.5177 N   0  0  0  0  0  0  0  0  0  0  0  0
  -21.3107  -23.1463   20.7597 N   0  0  0  0  0  0  0  0  0  0  0  0
  -21.4578  -15.7344   21.1642 N   0  0  0  0  0  0  0  0  0  0  0  0
  -25.5900  -30.5776   22.1251 N   0  0  0  0  0  0  0  0  0  0  0  0
  -20.6078  -18.4425   18.6044 N   0  0  0  0  0  0  0  0  0  0  0  0
  -20.3960  -15.9423   23.2713 N   0  0  0  0  0  0  0  0  0  0  0  0
  -23.5663  -12.8110   24.0065 N   0  0  0  0  0  0  0  0  0  0  0  0
  -24.4268  -21.3650   21.3858 N   0  0  0  0  0  0  0  0  0  0  0  0
  -20.6132  -24.4650   22.6212 N   0  0  0  0  0  0  0  0  0  0  0  0
  -27.5049  -27.8167   20.7085 N   0  0  0  0  0  0  0  0  0  0  0  0
  -25.3934  -33.5154   23.7950 N   0  0  0  0  0  0  0  0  0  0  0  0
  -21.9901  -20.2893   19.1261 N   0  0  0  0  0  0  0  0  0  0  0  0
  -22.9222  -35.8497   22.5653 N   0  3  0  0  0  0  0  0  0  0  0  0
  -21.8544  -13.9905   24.9744 O   0  0  0  0  0  0  0  0  0  0  0  0
  -26.5818  -28.3163   22.7871 O   0  0  0  0  0  0  0  0  0  0  0  0
  -27.4212  -31.9764   22.4806 O   0  0  0  0  0  0  0  0  0  0  0  0
  -23.0813  -33.3416   23.8303 O   0  0  0  0  0  0  0  0  0  0  0  0
  -20.0966  -20.5807   17.8664 O   0  0  0  0  0  0  0  0  0  0  0  0
  -27.2026  -10.8636   20.2621 O   0  0  0  0  0  0  0  0  0  0  0  0
  -20.1832  -27.7250   21.2992 O   0  0  0  0  0  0  0  0  0  1  0  0
  -31.3982  -12.9245   17.3375 F   0  0  0  0  0  0  0  0  0  0  0  0
  -29.7674  -10.8997   21.2931 F   0  0  0  0  0  0  0  0  0  0  0  0
  -22.8799  -23.0487   22.8117 S   0  0  0  0  0  0  0  0  0  0  0  0
  1  2  1  0  0  0  0
  1  5  2  0  0  0  0
  2  6  2  0  0  0  0
  3  8  2  0  0  0  0
  3 15  1  0  0  0  0
  4  9  1  0  0  0  0
  4 15  2  0  0  0  0
  5 17  1  0  0  0  0
  6 19  1  0  0  0  0
  7 10  2  0  0  0  0
  7 18  1  0  0  0  0
  8 21  1  0  0  0  0
  9 21  2  0  0  0  0
 10 22  1  0  0  0  0
 11 12  2  0  0  0  0
 11 23  1  0  0  0  0
 12 24  1  0  0  0  0
 13 20  1  0  0  0  0
 13 22  2  0  0  0  0
 14 24  2  0  0  0  0
 14 25  1  0  0  0  0
 15 26  1  0  0  0  0
 16 26  1  0  0  0  0
 16 28  2  0  0  0  0
 16 31  1  0  0  0  0
 17 19  2  0  0  0  0
 17 36  1  0  0  0  0
 18 20  2  0  0  0  0
 18 37  1  0  0  0  0
 19 45  1  0  0  0  0
 20 38  1  0  0  0  0
 21 85  1  0  0  0  0
 22 86  1  0  0  0  0
 23 25  2  0  0  0  0
 23 85  1  0  0  0  0
 24 87  1  0  0  0  0
 25 88  1  0  0  0  0
 26 67  2  0  0  0  0
 27 29  2  0  0  0  0
 27 58  1  0  0  0  0
 27 68  1  0  0  0  0
 28 69  1  0  0  0  0
 28 72  1  0  0  0  0
 29 74  1  0  0  0  0
 29 89  1  0  0  0  0
 30 68  2  0  0  0  0
 30 75  1  0  0  0  0
 30 89  1  0  0  0  0
 31 73  1  0  0  0  0
 31 80  2  0  0  0  0
 32 46  1  0  0  0  0
 32 76  1  0  0  0  0
 32 81  2  0  0  0  0
 33 61  1  0  0  0  0
 33 70  1  0  0  0  0
 33 82  2  0  0  0  0
 34 62  1  0  0  0  0
 34 77  1  0  0  0  0
 34 83  2  0  0  0  0
 35 71  1  0  0  0  0
 35 78  1  0  0  0  0
 35 84  2  0  0  0  0
 36 39  1  0  0  0  0
 37 46  1  0  0  0  0
 38 70  1  0  0  0  0
 39 41  1  0  0  0  0
 40 42  1  0  0  0  0
 40 43  1  0  0  0  0
 41 45  1  0  0  0  0
 42 47  1  0  0  0  0
 43 71  1  0  0  0  0
 44 47  1  0  0  0  0
 44 71  1  0  0  0  0
 45 76  1  0  0  0  0
 46 70  1  0  0  0  0
 47 69  1  0  0  0  0
 48 62  1  0  0  0  0
 49 63  1  0  0  0  0
 50 64  1  0  0  0  0
 51 65  1  0  0  0  0
 52 65  1  0  0  0  0
 53 65  1  0  0  0  0
 54 66  1  0  0  0  0
 55 66  1  0  0  0  0
 56 66  1  0  0  0  0
 57 79  1  0  0  0  0
 58 78  1  0  0  0  0
 59 60  1  0  0  0  0
 59 63  1  0  0  0  0
 60 86  1  0  0  0  0
 61 65  1  0  0  0  0
 61 77  1  0  0  0  0
 62 79  1  0  0  0  0
 63 75  1  0  0  0  0
 64 66  1  0  0  0  0
 64 74  1  0  0  0  0
 67 69  1  0  0  0  0
M  CHG  1  79   1
M  ISO  4  35 100  60 101  78 100  86 101
M  END
> <Batch ID>
0193

> <Smiles>
CNC(C)C(=O)NC(C(=O)N1Cc2cc([101O:1][101CH2:1]CC(C)Nc3nc(C[100NH:0][100C:0](=O)N4CCCC(n5nc(-c6ccc(Oc7ccc(F)cc7F)cc6)c(C(N)=O)c5N)C4)c(NC(C)C(C)(C)C)s3)ccc2CC1C(=O)NC1CCCc2ccccc21)C(C)(C)C

> <Shape>
0.281

> <Color>
0.085

> <Negative vol penalty>
0.000

$$$$

  -OEChem-04052305303D

 87 95  0     1  0  0  0  0  0999 V2000
  -39.1013  -25.8502   11.8499 C   0  0  0  0  0  0  0  0  0  0  0  0
  -38.0319  -25.3745   12.6019 C   0  0  0  0  0  0  0  0  0  0  0  0
  -23.0006   -9.8921   19.9813 C   0  0  0  0  0  0  0  0  0  0  0  0
  -23.7264   -9.9443   22.2851 C   0  0  0  0  0  0  0  0  0  0  0  0
  -38.9254  -26.9449   11.0046 C   0  0  0  0  0  0  0  0  0  0  0  0
  -36.7861  -25.9941   12.5098 C   0  0  0  0  0  0  0  0  0  0  0  0
  -32.9864  -22.6685   12.1246 C   0  0  0  0  0  0  0  0  0  0  0  0
  -22.2348   -8.7572   20.2482 C   0  0  0  0  0  0  0  0  0  0  0  0
  -22.9606   -8.8094   22.5521 C   0  0  0  0  0  0  0  0  0  0  0  0
  -32.5756  -22.0327   13.2954 C   0  0  0  0  0  0  0  0  0  0  0  0
  -23.2068   -5.4705   22.0812 C   0  0  0  0  0  0  0  0  0  0  0  0
  -23.7952   -4.4539   22.8335 C   0  0  0  0  0  0  0  0  0  0  0  0
  -30.7231  -23.5678   13.4719 C   0  0  0  0  0  0  0  0  0  0  0  0
  -22.0717   -4.6963   24.5092 C   0  0  0  0  0  0  0  0  0  0  0  0
  -23.7464  -10.4856   20.9997 C   0  0  0  0  0  0  0  0  0  0  0  0
  -24.1301  -13.0014   20.8228 C   0  0  0  0  0  0  0  0  0  0  0  0
  -37.6743  -27.5721   10.8948 C   0  0  0  0  0  0  0  0  0  0  0  0
  -32.2737  -23.7675   11.6238 C   0  0  0  0  0  0  0  0  0  0  0  0
  -36.5935  -27.0990   11.6632 C   0  0  0  0  0  0  0  0  0  0  0  0
  -31.1255  -24.2142   12.2932 C   0  0  0  0  0  0  0  0  0  0  0  0
  -22.2148   -8.2159   21.5336 C   0  0  0  0  0  0  0  0  0  0  0  0
  -31.4455  -22.4841   13.9708 C   0  0  0  0  0  0  0  0  0  0  0  0
  -22.0509   -6.1001   22.5429 C   0  0  0  0  0  0  0  0  0  0  0  0
  -23.2277   -4.0668   24.0474 C   0  0  0  0  0  0  0  0  0  0  0  0
  -21.4833   -5.7129   23.7569 C   0  0  0  0  0  0  0  0  0  0  0  0
  -24.5381  -11.6576   20.7245 C   0  0  0  0  0  0  0  0  0  0  0  0
  -31.8420  -18.6678   22.2027 C   0  0  0  0  0  0  0  0  0  0  0  0
  -25.2393  -13.7245   20.4578 C   0  0  0  0  0  0  0  0  0  0  0  0
  -30.7356  -19.0718   22.9201 C   0  0  0  0  0  0  0  0  0  0  0  0
  -30.5800  -16.9025   21.8845 C   0  0  0  0  0  0  0  0  0  0  0  0
  -22.8619  -13.5471   21.2095 C   0  0  0  0  0  0  0  0  0  0  0  0
  -32.9549  -26.8246   11.0819 C   0  0  0  0  0  0  0  0  0  0  0  0
  -29.9925  -26.8468    9.7607 C   0  0  0  0  0  0  0  0  0  0  0  0
  -26.8857  -25.4448    9.5899 C   0  0  0  0  0  0  0  0  0  0  0  0
  -30.7183  -14.6889   20.6899 C   0  0  0  0  0  0  0  0  0  0  0  0
  -37.5445  -28.7817   10.0034 C   0  0  0  0  0  0  0  0  0  0  0  0
  -32.7145  -24.4256   10.3451 C   0  0  0  0  0  0  0  0  0  0  0  0
  -30.3138  -25.3771   11.7860 C   0  0  0  0  0  0  0  0  0  0  0  0
  -36.0981  -29.1480    9.6806 C   0  0  0  0  0  0  0  0  0  0  0  0
  -29.6008  -12.2347   18.3649 C   0  0  0  0  0  0  0  0  0  0  0  0
  -35.2473  -29.1287   10.9465 C   0  0  0  0  0  0  0  0  0  0  0  0
  -28.1505  -11.9764   18.7796 C   0  0  0  0  0  0  0  0  0  0  0  0
  -30.5015  -12.4790   19.5744 C   0  0  0  0  0  0  0  0  0  0  0  0
  -28.5861  -13.2671   20.9083 C   0  0  0  0  0  0  0  0  0  0  0  0
  -35.2206  -27.7288   11.5719 C   0  0  1  0  0  0  0  0  0  0  0  0
  -32.2093  -25.8583   10.2055 C   0  0  1  0  0  0  0  0  0  0  0  0
  -27.6282  -13.0799   19.7204 C   0  0  2  0  0  0  0  0  0  0  0  0
  -34.1948  -18.4667   24.1283 C   0  0  0  0  0  0  0  0  0  0  0  0
  -24.6670  -25.7055    8.4468 C   0  0  0  0  0  0  0  0  0  0  0  0
  -32.0798  -21.9531   20.4012 C   0  0  0  0  0  0  0  0  0  0  0  0
  -29.3357  -29.2074   11.5791 C   0  0  0  0  0  0  0  0  0  0  0  0
  -26.9102  -28.8104   11.1018 C   0  0  0  0  0  0  0  0  0  0  0  0
  -28.4624  -29.4141    9.2447 C   0  0  0  0  0  0  0  0  0  0  0  0
  -27.0843  -22.7692    8.3406 C   0  0  0  0  0  0  0  0  0  0  0  0
  -34.3451  -18.7404   22.6363 C   0  0  0  0  0  0  0  0  0  0  0  0
  -33.4086  -19.7831   20.5306 C   0  0  0  0  0  0  0  0  0  0  0  0
  -32.6910  -20.6744   18.2873 C   0  0  0  0  0  0  0  0  0  0  0  0
  -32.0572  -21.2643   15.9186 C   0  0  0  0  0  0  0  0  0  1  0  0
  -33.1241  -19.4648   22.0207 C   0  0  1  0  0  0  0  0  0  0  0  0
  -28.5960  -27.1076   10.2714 C   0  0  1  0  0  0  0  0  0  0  0  0
  -26.0303  -25.0327    8.4055 C   0  0  2  0  0  0  0  0  0  0  0  0
  -32.3018  -20.5697   19.7829 C   0  0  2  0  0  0  0  0  0  0  0  0
  -31.6158  -21.2854   17.3801 C   0  0  1  0  0  0  0  0  0  0  0  0
  -28.3422  -28.6142   10.5601 C   0  0  0  0  0  0  0  0  0  0  0  0
  -25.8073  -11.5318   20.3280 N   0  0  0  0  0  0  0  0  0  0  0  0
  -31.7548  -17.4240   21.6085 N   0  0  0  0  0  0  0  0  0  0  0  0
  -26.2065  -12.8057   20.1738 N   0  0  0  0  0  0  0  0  0  0  0  0
  -30.7888  -25.9914   10.5352 N   0  0  0  0  0  0  0  0  0  0  0  0
  -29.9461  -13.5399   20.4176 N   0  0  0  0  0  0  0  0  0  0  0  0
  -25.4720  -15.0503   20.3552 N   0  0  0  0  0  0  0  0  0  0  0  0
  -21.8308  -12.6625   21.5536 N   0  0  0  0  0  0  0  0  0  0  0  0
  -30.0737  -15.6439   21.4754 N   0  0  0  0  0  0  0  0  0  0  0  0
  -34.3152  -26.8667   10.8428 N   0  0  0  0  0  0  0  0  0  0  0  0
  -27.6870  -26.5260    9.2896 N   0  0  0  0  0  0  0  0  0  0  0  0
  -25.8260  -23.5565    8.4027 N   0  3  0  0  0  0  0  0  0  0  0  0
  -22.6445  -14.7823   21.2329 O   0  0  0  0  0  0  0  0  0  0  0  0
  -32.3412  -27.4843   11.9126 O   0  0  0  0  0  0  0  0  0  0  0  0
  -30.3606  -27.3768    8.7093 O   0  0  0  0  0  0  0  0  0  0  0  0
  -26.8443  -24.8678   10.6743 O   0  0  0  0  0  0  0  0  0  0  0  0
  -31.8568  -14.8284   20.2354 O   0  0  0  0  0  0  0  0  0  0  0  0
  -30.4160  -20.5236   17.5072 O   0  0  0  0  0  0  0  0  0  0  0  0
  -21.4675   -7.1086   21.7945 O   0  0  0  0  0  0  0  0  0  0  0  0
  -31.0401  -21.8617   15.1215 O   0  0  0  0  0  0  0  0  0  1  0  0
  -23.7920   -3.0895   24.7690 F   0  0  0  0  0  0  0  0  0  0  0  0
  -20.3722   -6.3133   24.2050 F   0  0  0  0  0  0  0  0  0  0  0  0
  -30.6155  -20.2338   23.5673 F   0  0  0  0  0  0  0  0  0  0  0  0
  -29.5303  -17.8535   22.8533 S   0  0  0  0  0  0  0  0  0  0  0  0
  1  2  1  0  0  0  0
  1  5  2  0  0  0  0
  2  6  2  0  0  0  0
  3  8  2  0  0  0  0
  3 15  1  0  0  0  0
  4  9  1  0  0  0  0
  4 15  2  0  0  0  0
  5 17  1  0  0  0  0
  6 19  1  0  0  0  0
  7 10  2  0  0  0  0
  7 18  1  0  0  0  0
  8 21  1  0  0  0  0
  9 21  2  0  0  0  0
 10 22  1  0  0  0  0
 11 12  2  0  0  0  0
 11 23  1  0  0  0  0
 12 24  1  0  0  0  0
 13 20  1  0  0  0  0
 13 22  2  0  0  0  0
 14 24  2  0  0  0  0
 14 25  1  0  0  0  0
 15 26  1  0  0  0  0
 16 26  1  0  0  0  0
 16 28  2  0  0  0  0
 16 31  1  0  0  0  0
 17 19  2  0  0  0  0
 17 36  1  0  0  0  0
 18 20  2  0  0  0  0
 18 37  1  0  0  0  0
 19 45  1  0  0  0  0
 20 38  1  0  0  0  0
 21 82  1  0  0  0  0
 22 83  1  0  0  0  0
 23 25  2  0  0  0  0
 23 82  1  0  0  0  0
 24 84  1  0  0  0  0
 25 85  1  0  0  0  0
 26 65  2  0  0  0  0
 27 29  2  0  0  0  0
 27 59  1  0  0  0  0
 27 66  1  0  0  0  0
 28 67  1  0  0  0  0
 28 70  1  0  0  0  0
 29 86  1  0  0  0  0
 29 87  1  0  0  0  0
 30 66  2  0  0  0  0
 30 72  1  0  0  0  0
 30 87  1  0  0  0  0
 31 71  1  0  0  0  0
 31 76  2  0  0  0  0
 32 46  1  0  0  0  0
 32 73  1  0  0  0  0
 32 77  2  0  0  0  0
 33 60  1  0  0  0  0
 33 68  1  0  0  0  0
 33 78  2  0  0  0  0
 34 61  1  0  0  0  0
 34 74  1  0  0  0  0
 34 79  2  0  0  0  0
 35 69  1  0  0  0  0
 35 72  1  0  0  0  0
 35 80  2  0  0  0  0
 36 39  1  0  0  0  0
 37 46  1  0  0  0  0
 38 68  1  0  0  0  0
 39 41  1  0  0  0  0
 40 42  1  0  0  0  0
 40 43  1  0  0  0  0
 41 45  1  0  0  0  0
 42 47  1  0  0  0  0
 43 69  1  0  0  0  0
 44 47  1  0  0  0  0
 44 69  1  0  0  0  0
 45 73  1  0  0  0  0
 46 68  1  0  0  0  0
 47 67  1  0  0  0  0
 48 55  1  0  0  0  0
 49 61  1  0  0  0  0
 50 62  1  0  0  0  0
 51 64  1  0  0  0  0
 52 64  1  0  0  0  0
 53 64  1  0  0  0  0
 54 75  1  0  0  0  0
 55 59  1  0  0  0  0
 56 59  1  0  0  0  0
 56 62  1  0  0  0  0
 57 62  1  0  0  0  0
 57 63  1  0  0  0  0
 58 63  1  0  0  0  0
 58 83  1  0  0  0  0
 60 64  1  0  0  0  0
 60 74  1  0  0  0  0
 61 75  1  0  0  0  0
 63 81  1  0  0  0  0
 65 67  1  0  0  0  0
M  CHG  1  75   1
M  ISO  4  35 100  58 101  72 100  83 101
M  END
> <Batch ID>
0193

> <Smiles>
CCC(CC(C)CC(O)[101CH2:1][101O:1]c1ccc2c(c1)CN(C(=O)C(NC(=O)C(C)NC)C(C)(C)C)C(C(=O)NC1CCCc3ccccc31)C2)c1nc([100NH:0][100C:0](=O)N2CCCC(n3nc(-c4ccc(Oc5ccc(F)cc5F)cc4)c(C(N)=O)c3N)C2)sc1F

> <Shape>
0.175

> <Color>
0.182

> <Negative vol penalty>
0.000

$$$$

  -OEChem-04052305303D

 86 94  0     1  0  0  0  0  0999 V2000
  -17.4214  -31.2155   23.3165 C   0  0  0  0  0  0  0  0  0  0  0  0
  -18.5080  -30.4777   22.8576 C   0  0  0  0  0  0  0  0  0  0  0  0
  -23.1849   -9.6645   20.6786 C   0  0  0  0  0  0  0  0  0  0  0  0
  -23.8210  -10.2913   22.9235 C   0  0  0  0  0  0  0  0  0  0  0  0
  -16.5439  -30.6576   24.2452 C   0  0  0  0  0  0  0  0  0  0  0  0
  -18.7182  -29.1820   23.3281 C   0  0  0  0  0  0  0  0  0  0  0  0
  -21.0052  -24.4497   20.1847 C   0  0  0  0  0  0  0  0  0  0  0  0
  -22.4627   -8.5839   21.1849 C   0  0  0  0  0  0  0  0  0  0  0  0
  -23.0988   -9.2107   23.4299 C   0  0  0  0  0  0  0  0  0  0  0  0
  -22.2827  -23.8949   20.1220 C   0  0  0  0  0  0  0  0  0  0  0  0
  -20.7470   -5.4501   21.8626 C   0  0  0  0  0  0  0  0  0  0  0  0
  -20.8902   -4.2172   21.2262 C   0  0  0  0  0  0  0  0  0  0  0  0
  -21.6453  -22.2557   21.7731 C   0  0  0  0  0  0  0  0  0  0  0  0
  -23.2570   -4.2421   21.7106 C   0  0  0  0  0  0  0  0  0  0  0  0
  -31.5231  -19.1769   21.0047 C   0  0  0  0  0  0  0  0  0  0  0  0
  -23.8641  -10.5182   21.5479 C   0  0  0  0  0  0  0  0  0  0  0  0
  -24.1380  -12.9401   20.7950 C   0  0  0  0  0  0  0  0  0  0  0  0
  -16.7380  -29.3509   24.7201 C   0  0  0  0  0  0  0  0  0  0  0  0
  -20.0399  -23.9176   21.0516 C   0  0  0  0  0  0  0  0  0  0  0  0
  -17.8432  -28.6067   24.2651 C   0  0  0  0  0  0  0  0  0  0  0  0
  -20.3555  -22.8040   21.8431 C   0  0  0  0  0  0  0  0  0  0  0  0
  -22.4197   -8.3570   22.5605 C   0  0  0  0  0  0  0  0  0  0  0  0
  -22.6038  -22.7995   20.9184 C   0  0  0  0  0  0  0  0  0  0  0  0
  -21.8588   -6.0791   22.4229 C   0  0  0  0  0  0  0  0  0  0  0  0
  -22.1452   -3.6131   21.1503 C   0  0  0  0  0  0  0  0  0  0  0  0
  -23.1138   -5.4751   22.3469 C   0  0  0  0  0  0  0  0  0  0  0  0
  -24.6107  -11.6343   21.0254 C   0  0  0  0  0  0  0  0  0  0  0  0
  -30.3733  -19.6759   21.5799 C   0  0  0  0  0  0  0  0  0  0  0  0
  -25.2256  -13.6165   20.2989 C   0  0  0  0  0  0  0  0  0  0  0  0
  -30.3574  -17.3205   21.0754 C   0  0  0  0  0  0  0  0  0  0  0  0
  -22.8325  -13.4924   21.0103 C   0  0  0  0  0  0  0  0  0  0  0  0
  -18.4068  -25.0271   23.5427 C   0  0  0  0  0  0  0  0  0  0  0  0
  -16.8859  -22.1704   23.3226 C   0  0  0  0  0  0  0  0  0  0  0  0
  -16.9635  -18.9190   22.2885 C   0  0  0  0  0  0  0  0  0  0  0  0
  -30.6419  -14.9000   20.4378 C   0  0  0  0  0  0  0  0  0  0  0  0
  -15.7894  -28.8078   25.7593 C   0  0  0  0  0  0  0  0  0  0  0  0
  -18.6582  -24.5109   21.0879 C   0  0  0  0  0  0  0  0  0  0  0  0
  -19.3488  -22.1828   22.7753 C   0  0  0  0  0  0  0  0  0  0  0  0
  -15.8706  -27.2925   25.9254 C   0  0  0  0  0  0  0  0  0  0  0  0
  -29.7261  -11.9151   18.7264 C   0  0  0  0  0  0  0  0  0  0  0  0
  -17.3253  -26.8425   26.0159 C   0  0  0  0  0  0  0  0  0  0  0  0
  -28.2747  -11.6834   19.1530 C   0  0  0  0  0  0  0  0  0  0  0  0
  -30.5688  -12.4825   19.8672 C   0  0  0  0  0  0  0  0  0  0  0  0
  -28.5707  -13.4564   20.9295 C   0  0  0  0  0  0  0  0  0  0  0  0
  -18.0907  -27.1890   24.7331 C   0  0  1  0  0  0  0  0  0  0  0  0
  -17.9120  -24.2088   22.3837 C   0  0  1  0  0  0  0  0  0  0  0  0
  -27.6675  -12.9463   19.7947 C   0  0  2  0  0  0  0  0  0  0  0  0
  -31.4402  -25.2457   19.6248 C   0  0  0  0  0  0  0  0  0  0  0  0
  -15.5878  -16.8202   22.2832 C   0  0  0  0  0  0  0  0  0  0  0  0
  -17.5441  -21.7345   26.2700 C   0  0  0  0  0  0  0  0  0  0  0  0
  -17.0148  -19.3074   25.9573 C   0  0  0  0  0  0  0  0  0  0  0  0
  -15.2416  -21.0251   25.5992 C   0  0  0  0  0  0  0  0  0  0  0  0
  -16.9019  -18.8286   19.3310 C   0  0  0  0  0  0  0  0  0  0  0  0
  -30.0468  -21.0731   22.0184 C   0  0  0  0  0  0  0  0  0  0  0  0
  -30.2415  -24.3211   19.7827 C   0  0  0  0  0  0  0  0  0  0  0  0
  -29.9004  -24.1036   21.2603 C   0  0  0  0  0  0  0  0  0  0  0  0
  -27.4208  -23.5579   20.8507 C   0  0  0  0  0  0  0  0  0  0  0  0
  -24.9273  -23.1356   20.5382 C   0  0  0  0  0  0  0  0  0  1  0  0
  -17.1046  -20.7951   23.9055 C   0  0  1  0  0  0  0  0  0  0  0  0
  -15.9570  -18.0824   21.5194 C   0  0  2  0  0  0  0  0  0  0  0  0
  -28.7330  -23.1419   21.5361 C   0  0  1  0  0  0  0  0  0  0  0  0
  -26.2289  -22.6410   21.1699 C   0  0  2  0  0  0  0  0  0  0  0  0
  -16.7461  -20.7282   25.4170 C   0  0  0  0  0  0  0  0  0  0  0  0
  -31.5160  -17.8264   20.7151 N   0  0  0  0  0  0  0  0  0  0  0  0
  -25.8983  -11.4875   20.7021 N   0  0  0  0  0  0  0  0  0  0  0  0
  -26.2439  -12.7098   20.2634 N   0  0  0  0  0  0  0  0  0  0  0  0
  -18.0134  -22.8027   22.7797 N   0  0  0  0  0  0  0  0  0  0  0  0
  -29.9341  -13.6795   20.4233 N   0  0  0  0  0  0  0  0  0  0  0  0
  -25.4006  -14.8923   19.8938 N   0  0  0  0  0  0  0  0  0  0  0  0
  -21.8310  -12.6585   21.5261 N   0  0  0  0  0  0  0  0  0  0  0  0
  -29.9252  -15.9760   20.9604 N   0  0  0  0  0  0  0  0  0  0  0  0
  -17.7707  -26.2458   23.6832 N   0  0  0  0  0  0  0  0  0  0  0  0
  -16.3447  -19.8719   23.0697 N   0  0  0  0  0  0  0  0  0  0  0  0
  -16.5172  -17.6844   20.1969 N   0  3  0  0  0  0  0  0  0  0  0  0
  -29.1145  -21.7698   21.0955 N   0  3  0  0  0  0  0  0  0  0  0  0
  -22.5577  -14.6855   20.7374 O   0  0  0  0  0  0  0  0  0  0  0  0
  -19.2986  -24.5849   24.2575 O   0  0  0  0  0  0  0  0  0  0  0  0
  -15.7550  -22.6624   23.3417 O   0  0  0  0  0  0  0  0  0  0  0  0
  -18.1770  -18.7423   22.2075 O   0  0  0  0  0  0  0  0  0  0  0  0
  -31.7889  -14.9903   19.9926 O   0  0  0  0  0  0  0  0  0  0  0  0
  -26.0632  -22.5765   22.5852 O   0  0  0  0  0  0  0  0  0  0  0  0
  -21.7149   -7.3028   23.0550 O   0  0  0  0  0  0  0  0  0  0  0  0
  -23.8502  -22.2564   20.8596 O   0  0  0  0  0  0  0  0  0  1  0  0
  -22.2823   -2.4284   20.5405 F   0  0  0  0  0  0  0  0  0  0  0  0
  -24.1854   -6.0739   22.8844 F   0  0  0  0  0  0  0  0  0  0  0  0
  -29.2293  -18.4121   21.7687 S   0  0  0  0  0  0  0  0  0  0  0  0
  1  2  1  0  0  0  0
  1  5  2  0  0  0  0
  2  6  2  0  0  0  0
  3  8  2  0  0  0  0
  3 16  1  0  0  0  0
  4  9  1  0  0  0  0
  4 16  2  0  0  0  0
  5 18  1  0  0  0  0
  6 20  1  0  0  0  0
  7 10  2  0  0  0  0
  7 19  1  0  0  0  0
  8 22  1  0  0  0  0
  9 22  2  0  0  0  0
 10 23  1  0  0  0  0
 11 12  2  0  0  0  0
 11 24  1  0  0  0  0
 12 25  1  0  0  0  0
 13 21  1  0  0  0  0
 13 23  2  0  0  0  0
 14 25  2  0  0  0  0
 14 26  1  0  0  0  0
 15 28  2  0  0  0  0
 15 64  1  0  0  0  0
 16 27  1  0  0  0  0
 17 27  1  0  0  0  0
 17 29  2  0  0  0  0
 17 31  1  0  0  0  0
 18 20  2  0  0  0  0
 18 36  1  0  0  0  0
 19 21  2  0  0  0  0
 19 37  1  0  0  0  0
 20 45  1  0  0  0  0
 21 38  1  0  0  0  0
 22 82  1  0  0  0  0
 23 83  1  0  0  0  0
 24 26  2  0  0  0  0
 24 82  1  0  0  0  0
 25 84  1  0  0  0  0
 26 85  1  0  0  0  0
 27 65  2  0  0  0  0
 28 54  1  0  0  0  0
 28 86  1  0  0  0  0
 29 66  1  0  0  0  0
 29 69  1  0  0  0  0
 30 64  2  0  0  0  0
 30 71  1  0  0  0  0
 30 86  1  0  0  0  0
 31 70  1  0  0  0  0
 31 76  2  0  0  0  0
 32 46  1  0  0  0  0
 32 72  1  0  0  0  0
 32 77  2  0  0  0  0
 33 59  1  0  0  0  0
 33 67  1  0  0  0  0
 33 78  2  0  0  0  0
 34 60  1  0  0  0  0
 34 73  1  0  0  0  0
 34 79  2  0  0  0  0
 35 68  1  0  0  0  0
 35 71  1  0  0  0  0
 35 80  2  0  0  0  0
 36 39  1  0  0  0  0
 37 46  1  0  0  0  0
 38 67  1  0  0  0  0
 39 41  1  0  0  0  0
 40 42  1  0  0  0  0
 40 43  1  0  0  0  0
 41 45  1  0  0  0  0
 42 47  1  0  0  0  0
 43 68  1  0  0  0  0
 44 47  1  0  0  0  0
 44 68  1  0  0  0  0
 45 72  1  0  0  0  0
 46 67  1  0  0  0  0
 47 66  1  0  0  0  0
 48 55  1  0  0  0  0
 49 60  1  0  0  0  0
 50 63  1  0  0  0  0
 51 63  1  0  0  0  0
 52 63  1  0  0  0  0
 53 74  1  0  0  0  0
 54 75  1  0  0  0  0
 55 56  1  0  0  0  0
 56 61  1  0  0  0  0
 57 61  1  0  0  0  0
 57 62  1  0  0  0  0
 58 62  1  0  0  0  0
 58 83  1  0  0  0  0
 59 63  1  0  0  0  0
 59 73  1  0  0  0  0
 60 74  1  0  0  0  0
 61 75  1  0  0  0  0
 62 81  1  0  0  0  0
 65 66  1  0  0  0  0
M  CHG  2  74   1  75   1
M  ISO  4  35 100  58 101  71 100  83 101
M  END
> <Batch ID>
0193

> <Smiles>
CCCC(CC(O)[101CH2:1][101O:1]c1ccc2c(c1)CN(C(=O)C(NC(=O)C(C)NC)C(C)(C)C)C(C(=O)NC1CCCc3ccccc31)C2)NCc1cnc([100NH:0][100C:0](=O)N2CCCC(n3nc(-c4ccc(Oc5ccc(F)cc5F)cc4)c(C(N)=O)c3N)C2)s1

> <Shape>
0.231

> <Color>
0.159

> <Negative vol penalty>
0.000

$$$$

  -OEChem-04052305303D

 85 93  0     1  0  0  0  0  0999 V2000
  -28.5592  -37.7511   24.2397 C   0  0  0  0  0  0  0  0  0  0  0  0
  -29.0481  -36.4964   23.8900 C   0  0  0  0  0  0  0  0  0  0  0  0
  -24.6208   -8.6552   21.3570 C   0  0  0  0  0  0  0  0  0  0  0  0
  -23.2558  -10.6485   21.3318 C   0  0  0  0  0  0  0  0  0  0  0  0
  -27.3539  -37.8602   24.9319 C   0  0  0  0  0  0  0  0  0  0  0  0
  -28.3324  -35.3500   24.2334 C   0  0  0  0  0  0  0  0  0  0  0  0
  -27.8993  -30.1717   20.9925 C   0  0  0  0  0  0  0  0  0  0  0  0
  -23.8058   -8.1096   22.3488 C   0  0  0  0  0  0  0  0  0  0  0  0
  -22.4408  -10.1029   22.3236 C   0  0  0  0  0  0  0  0  0  0  0  0
  -28.5632  -28.9492   21.0846 C   0  0  0  0  0  0  0  0  0  0  0  0
  -21.8725   -6.0434   24.6309 C   0  0  0  0  0  0  0  0  0  0  0  0
  -21.4795   -4.7127   24.4880 C   0  0  0  0  0  0  0  0  0  0  0  0
  -26.7420  -28.0659   22.3970 C   0  0  0  0  0  0  0  0  0  0  0  0
  -20.3988   -5.2565   22.3967 C   0  0  0  0  0  0  0  0  0  0  0  0
  -26.6129  -18.1873   19.7689 C   0  0  0  0  0  0  0  0  0  0  0  0
  -24.3459   -9.9247   20.8485 C   0  0  0  0  0  0  0  0  0  0  0  0
  -25.0311  -10.3645   18.4309 C   0  0  0  0  0  0  0  0  0  0  0  0
  -26.6182  -36.7150   25.2755 C   0  0  0  0  0  0  0  0  0  0  0  0
  -26.6547  -30.3542   21.6121 C   0  0  0  0  0  0  0  0  0  0  0  0
  -27.1167  -35.4438   24.9321 C   0  0  0  0  0  0  0  0  0  0  0  0
  -26.0632  -29.2909   22.3090 C   0  0  0  0  0  0  0  0  0  0  0  0
  -22.7158   -8.8334   22.8321 C   0  0  0  0  0  0  0  0  0  0  0  0
  -27.9859  -27.8970   21.7893 C   0  0  0  0  0  0  0  0  0  0  0  0
  -21.5286   -6.9807   23.6568 C   0  0  0  0  0  0  0  0  0  0  0  0
  -20.7427   -4.3193   23.3709 C   0  0  0  0  0  0  0  0  0  0  0  0
  -20.7917   -6.5872   22.5397 C   0  0  0  0  0  0  0  0  0  0  0  0
  -25.1877  -10.4891   19.8244 C   0  0  0  0  0  0  0  0  0  0  0  0
  -27.8794  -17.6423   19.8009 C   0  0  0  0  0  0  0  0  0  0  0  0
  -26.0797  -11.0769   17.9024 C   0  0  0  0  0  0  0  0  0  0  0  0
  -28.4345  -19.7560   19.6161 C   0  0  0  0  0  0  0  0  0  0  0  0
  -24.0273   -9.6672   17.6813 C   0  0  0  0  0  0  0  0  0  0  0  0
  -29.2879  -20.9688   19.5009 C   0  0  0  0  0  0  0  0  0  0  0  0
  -25.5462  -32.2625   23.8998 C   0  0  0  0  0  0  0  0  0  0  0  0
  -22.6995  -30.9367   23.0870 C   0  0  0  0  0  0  0  0  0  0  0  0
  -21.0165  -28.3089   21.7052 C   0  0  0  0  0  0  0  0  0  0  0  0
  -29.3740  -15.6202   19.9545 C   0  0  0  0  0  0  0  0  0  0  0  0
  -25.3442  -36.8806   26.0654 C   0  0  0  0  0  0  0  0  0  0  0  0
  -25.9391  -31.6707   21.4809 C   0  0  0  0  0  0  0  0  0  0  0  0
  -24.7194  -29.4292   22.9751 C   0  0  0  0  0  0  0  0  0  0  0  0
  -24.4599  -35.6363   26.0630 C   0  0  0  0  0  0  0  0  0  0  0  0
  -30.5631  -12.4350   18.8971 C   0  0  0  0  0  0  0  0  0  0  0  0
  -25.2918  -34.3897   26.3477 C   0  0  0  0  0  0  0  0  0  0  0  0
  -29.3043  -11.5648   18.8822 C   0  0  0  0  0  0  0  0  0  0  0  0
  -30.5491  -13.4328   20.0537 C   0  0  0  0  0  0  0  0  0  0  0  0
  -28.0867  -13.3998   20.1221 C   0  0  0  0  0  0  0  0  0  0  0  0
  -26.3569  -34.1782   25.2651 C   0  0  1  0  0  0  0  0  0  0  0  0
  -24.9128  -31.9056   22.5849 C   0  0  1  0  0  0  0  0  0  0  0  0
  -28.0252  -12.4230   18.9364 C   0  0  2  0  0  0  0  0  0  0  0  0
  -18.6934  -27.4953   21.2168 C   0  0  0  0  0  0  0  0  0  0  0  0
  -29.8706  -23.5323   17.8097 C   0  0  0  0  0  0  0  0  0  0  0  0
  -22.3324  -30.2248   26.0312 C   0  0  0  0  0  0  0  0  0  0  0  0
  -20.5281  -28.6290   25.3484 C   0  0  0  0  0  0  0  0  0  0  0  0
  -20.2695  -31.0686   24.8969 C   0  0  0  0  0  0  0  0  0  0  0  0
  -21.5288  -28.2391   18.7912 C   0  0  0  0  0  0  0  0  0  0  0  0
  -28.8694  -24.5148   19.9077 C   0  0  0  0  0  0  0  0  0  0  0  0
  -27.8225  -25.5333   21.9953 C   0  0  0  0  0  0  0  0  0  1  0  0
  -21.9190  -29.7237   23.5324 C   0  0  1  0  0  0  0  0  0  0  0  0
  -19.8966  -28.2561   20.6818 C   0  0  2  0  0  0  0  0  0  0  0  0
  -29.5883  -23.3065   19.2900 C   0  0  1  0  0  0  0  0  0  0  0  0
  -28.5421  -24.3250   21.3967 C   0  0  2  0  0  0  0  0  0  0  0  0
  -21.2885  -29.9092   24.9414 C   0  0  0  0  0  0  0  0  0  0  0  0
  -26.2521  -11.2228   20.1600 N   0  0  0  0  0  0  0  0  0  0  0  0
  -28.9252  -18.5402   19.7130 N   0  0  0  0  0  0  0  0  0  0  0  0
  -28.7301  -22.1222   19.4103 N   0  0  0  0  0  0  0  0  0  0  0  0
  -26.7739  -11.5656   18.9699 N   0  0  0  0  0  0  0  0  0  0  0  0
  -24.0622  -30.7378   22.8237 N   0  0  0  0  0  0  0  0  0  0  0  0
  -29.3099  -14.2132   20.0387 N   0  0  0  0  0  0  0  0  0  0  0  0
  -26.4665  -11.3267   16.6334 N   0  0  0  0  0  0  0  0  0  0  0  0
  -23.0222   -8.9868   18.3821 N   0  0  0  0  0  0  0  0  0  0  0  0
  -30.6503  -20.7478   19.4876 N   0  0  0  0  0  0  0  0  0  0  0  0
  -28.1319  -16.2527   19.9149 N   0  0  0  0  0  0  0  0  0  0  0  0
  -25.7603  -33.6167   24.0720 N   0  0  0  0  0  0  0  0  0  0  0  0
  -20.9509  -29.4506   22.4757 N   0  0  0  0  0  0  0  0  0  0  0  0
  -20.3635  -27.5822   19.4373 N   0  3  0  0  0  0  0  0  0  0  0  0
  -24.0313   -9.6343   16.4273 O   0  0  0  0  0  0  0  0  0  0  0  0
  -25.8191  -31.3751   24.6996 O   0  0  0  0  0  0  0  0  0  0  0  0
  -22.1198  -32.0192   22.9699 O   0  0  0  0  0  0  0  0  0  0  0  0
  -21.8626  -27.4240   21.8131 O   0  0  0  0  0  0  0  0  0  0  0  0
  -30.4514  -16.2181   19.8925 O   0  0  0  0  0  0  0  0  0  0  0  0
  -29.7583  -24.1073   22.1101 O   0  0  0  0  0  0  0  0  0  0  0  0
  -21.9202   -8.3012   23.7997 O   0  0  0  0  0  0  0  0  0  0  0  0
  -28.6321  -26.7029   21.8814 O   0  0  0  0  0  0  0  0  0  1  0  0
  -20.3667   -3.0411   23.2330 F   0  0  0  0  0  0  0  0  0  0  0  0
  -20.4594   -7.4829   21.6000 F   0  0  0  0  0  0  0  0  0  0  0  0
  -26.7239  -19.8926   19.6250 S   0  0  0  0  0  0  0  0  0  0  0  0
  1  2  1  0  0  0  0
  1  5  2  0  0  0  0
  2  6  2  0  0  0  0
  3  8  2  0  0  0  0
  3 16  1  0  0  0  0
  4  9  1  0  0  0  0
  4 16  2  0  0  0  0
  5 18  1  0  0  0  0
  6 20  1  0  0  0  0
  7 10  2  0  0  0  0
  7 19  1  0  0  0  0
  8 22  1  0  0  0  0
  9 22  2  0  0  0  0
 10 23  1  0  0  0  0
 11 12  2  0  0  0  0
 11 24  1  0  0  0  0
 12 25  1  0  0  0  0
 13 21  1  0  0  0  0
 13 23  2  0  0  0  0
 14 25  2  0  0  0  0
 14 26  1  0  0  0  0
 15 28  2  0  0  0  0
 15 85  1  0  0  0  0
 16 27  1  0  0  0  0
 17 27  1  0  0  0  0
 17 29  2  0  0  0  0
 17 31  1  0  0  0  0
 18 20  2  0  0  0  0
 18 37  1  0  0  0  0
 19 21  2  0  0  0  0
 19 38  1  0  0  0  0
 20 46  1  0  0  0  0
 21 39  1  0  0  0  0
 22 81  1  0  0  0  0
 23 82  1  0  0  0  0
 24 26  2  0  0  0  0
 24 81  1  0  0  0  0
 25 83  1  0  0  0  0
 26 84  1  0  0  0  0
 27 62  2  0  0  0  0
 28 63  1  0  0  0  0
 28 71  1  0  0  0  0
 29 65  1  0  0  0  0
 29 68  1  0  0  0  0
 30 32  1  0  0  0  0
 30 63  2  0  0  0  0
 30 85  1  0  0  0  0
 31 69  1  0  0  0  0
 31 75  2  0  0  0  0
 32 64  2  0  0  0  0
 32 70  1  0  0  0  0
 33 47  1  0  0  0  0
 33 72  1  0  0  0  0
 33 76  2  0  0  0  0
 34 57  1  0  0  0  0
 34 66  1  0  0  0  0
 34 77  2  0  0  0  0
 35 58  1  0  0  0  0
 35 73  1  0  0  0  0
 35 78  2  0  0  0  0
 36 67  1  0  0  0  0
 36 71  1  0  0  0  0
 36 79  2  0  0  0  0
 37 40  1  0  0  0  0
 38 47  1  0  0  0  0
 39 66  1  0  0  0  0
 40 42  1  0  0  0  0
 41 43  1  0  0  0  0
 41 44  1  0  0  0  0
 42 46  1  0  0  0  0
 43 48  1  0  0  0  0
 44 67  1  0  0  0  0
 45 48  1  0  0  0  0
 45 67  1  0  0  0  0
 46 72  1  0  0  0  0
 47 66  1  0  0  0  0
 48 65  1  0  0  0  0
 49 58  1  0  0  0  0
 50 59  1  0  0  0  0
 51 61  1  0  0  0  0
 52 61  1  0  0  0  0
 53 61  1  0  0  0  0
 54 74  1  0  0  0  0
 55 59  1  0  0  0  0
 55 60  1  0  0  0  0
 56 60  1  0  0  0  0
 56 82  1  0  0  0  0
 57 61  1  0  0  0  0
 57 73  1  0  0  0  0
 58 74  1  0  0  0  0
 59 64  1  0  0  0  0
 60 80  1  0  0  0  0
 62 65  1  0  0  0  0
M  CHG  1  74   1
M  ISO  4  36 100  56 101  71 100  82 101
M  END
> <Batch ID>
0193

> <Smiles>
CNC(C)C(=O)NC(C(=O)N1Cc2cc([101O:1][101CH2:1]C(O)CC(C)NC(=N)c3nc([100NH:0][100C:0](=O)N4CCCC(n5nc(-c6ccc(Oc7ccc(F)cc7F)cc6)c(C(N)=O)c5N)C4)cs3)ccc2CC1C(=O)NC1CCCc2ccccc21)C(C)(C)C

> <Shape>
0.341

> <Color>
0.089

> <Negative vol penalty>
0.000

$$$$

  -OEChem-04052305303D

 83 91  0     1  0  0  0  0  0999 V2000
  -37.5739  -27.3828   24.0486 C   0  0  0  0  0  0  0  0  0  0  0  0
  -36.6698  -26.8067   23.1619 C   0  0  0  0  0  0  0  0  0  0  0  0
  -23.0768   -9.8644   19.9501 C   0  0  0  0  0  0  0  0  0  0  0  0
  -23.8332   -9.8872   22.2446 C   0  0  0  0  0  0  0  0  0  0  0  0
  -37.8092  -26.7876   25.2873 C   0  0  0  0  0  0  0  0  0  0  0  0
  -36.0013  -25.6345   23.5130 C   0  0  0  0  0  0  0  0  0  0  0  0
  -31.0649  -25.8043   22.3959 C   0  0  0  0  0  0  0  0  0  0  0  0
  -22.3350   -8.7112   20.2061 C   0  0  0  0  0  0  0  0  0  0  0  0
  -23.0913   -8.7340   22.5006 C   0  0  0  0  0  0  0  0  0  0  0  0
  -30.7061  -25.6015   21.0640 C   0  0  0  0  0  0  0  0  0  0  0  0
  -19.9554   -5.9667   20.3479 C   0  0  0  0  0  0  0  0  0  0  0  0
  -18.6506   -5.9129   19.8580 C   0  0  0  0  0  0  0  0  0  0  0  0
  -30.1343  -23.3138   21.5727 C   0  0  0  0  0  0  0  0  0  0  0  0
  -18.0793   -7.8627   21.1652 C   0  0  0  0  0  0  0  0  0  0  0  0
  -31.4762  -18.5245   19.9748 C   0  0  0  0  0  0  0  0  0  0  0  0
  -23.8260  -10.4523   20.9694 C   0  0  0  0  0  0  0  0  0  0  0  0
  -24.1627  -12.9774   20.8342 C   0  0  0  0  0  0  0  0  0  0  0  0
  -37.1359  -25.6128   25.6577 C   0  0  0  0  0  0  0  0  0  0  0  0
  -30.9712  -24.7586   23.3254 C   0  0  0  0  0  0  0  0  0  0  0  0
  -36.2287  -25.0223   24.7573 C   0  0  0  0  0  0  0  0  0  0  0  0
  -30.4901  -23.5067   22.9163 C   0  0  0  0  0  0  0  0  0  0  0  0
  -22.3422   -8.1461   21.4813 C   0  0  0  0  0  0  0  0  0  0  0  0
  -30.2435  -24.3553   20.6516 C   0  0  0  0  0  0  0  0  0  0  0  0
  -20.3222   -6.9685   21.2466 C   0  0  0  0  0  0  0  0  0  0  0  0
  -17.7125   -6.8609   20.2666 C   0  0  0  0  0  0  0  0  0  0  0  0
  -19.3842   -7.9165   21.6552 C   0  0  0  0  0  0  0  0  0  0  0  0
  -24.5929  -11.6432   20.7054 C   0  0  0  0  0  0  0  0  0  0  0  0
  -30.6011  -18.0083   20.9075 C   0  0  0  0  0  0  0  0  0  0  0  0
  -25.2538  -13.7269   20.4679 C   0  0  0  0  0  0  0  0  0  0  0  0
  -29.7489  -19.8082   19.5524 C   0  0  0  0  0  0  0  0  0  0  0  0
  -22.8905  -13.4931   21.2480 C   0  0  0  0  0  0  0  0  0  0  0  0
  -33.0454  -23.1883   25.1518 C   0  0  0  0  0  0  0  0  0  0  0  0
  -30.3601  -21.8126   26.3429 C   0  0  0  0  0  0  0  0  0  0  0  0
  -27.0874  -20.9651   25.8761 C   0  0  0  0  0  0  0  0  0  0  0  0
  -30.7351  -14.7587   20.6583 C   0  0  0  0  0  0  0  0  0  0  0  0
  -37.4584  -24.9800   26.9882 C   0  0  0  0  0  0  0  0  0  0  0  0
  -31.3368  -25.0011   24.7641 C   0  0  0  0  0  0  0  0  0  0  0  0
  -30.3516  -22.3570   23.8794 C   0  0  0  0  0  0  0  0  0  0  0  0
  -36.4298  -23.9445   27.4355 C   0  0  0  0  0  0  0  0  0  0  0  0
  -29.6062  -12.3570   18.2846 C   0  0  0  0  0  0  0  0  0  0  0  0
  -36.0882  -23.0008   26.2868 C   0  0  0  0  0  0  0  0  0  0  0  0
  -28.1687  -12.0630   18.7172 C   0  0  0  0  0  0  0  0  0  0  0  0
  -30.5210  -12.5872   19.4855 C   0  0  0  0  0  0  0  0  0  0  0  0
  -28.6156  -13.3229   20.8646 C   0  0  0  0  0  0  0  0  0  0  0  0
  -35.4656  -23.7645   25.1119 C   0  0  1  0  0  0  0  0  0  0  0  0
  -31.6882  -23.7207   25.5154 C   0  0  1  0  0  0  0  0  0  0  0  0
  -27.6436  -13.1389   19.6866 C   0  0  2  0  0  0  0  0  0  0  0  0
  -25.1691  -19.8141   27.0130 C   0  0  0  0  0  0  0  0  0  0  0  0
  -29.3667  -20.8723   16.5948 C   0  0  0  0  0  0  0  0  0  0  0  0
  -27.6928  -25.0140   18.9320 C   0  0  0  0  0  0  0  0  0  0  0  0
  -31.6301  -19.1047   25.7392 C   0  0  0  0  0  0  0  0  0  0  0  0
  -29.3661  -18.0654   25.9892 C   0  0  0  0  0  0  0  0  0  0  0  0
  -30.4242  -19.2269   27.9267 C   0  0  0  0  0  0  0  0  0  0  0  0
  -25.4354  -23.4202   25.8292 C   0  0  0  0  0  0  0  0  0  0  0  0
  -30.7945  -16.9170   21.8819 C   0  0  0  0  0  0  0  0  0  0  0  0
  -28.5049  -22.8964   17.8289 C   0  0  0  0  0  0  0  0  0  0  0  0
  -29.5377  -20.5955   25.9946 C   0  0  1  0  0  0  0  0  0  0  0  0
  -25.8652  -21.1421   26.7589 C   0  0  2  0  0  0  0  0  0  0  0  0
  -29.4037  -21.6516   17.9067 C   0  0  1  0  0  0  0  0  0  0  0  0
  -28.5454  -23.7622   19.0958 C   0  0  1  0  0  0  0  0  0  1  0  0
  -30.2438  -19.2690   26.3936 C   0  0  0  0  0  0  0  0  0  0  0  0
  -30.9891  -19.5564   19.1966 N   0  0  0  0  0  0  0  0  0  0  0  0
  -25.8586  -11.5475   20.2896 N   0  0  0  0  0  0  0  0  0  0  0  0
  -26.2330  -12.8310   20.1539 N   0  0  0  0  0  0  0  0  0  0  0  0
  -30.7277  -22.6420   25.2740 N   0  0  0  0  0  0  0  0  0  0  0  0
  -29.9669  -13.6201   20.3642 N   0  0  0  0  0  0  0  0  0  0  0  0
  -25.4615  -15.0584   20.3870 N   0  0  0  0  0  0  0  0  0  0  0  0
  -21.8800  -12.5839   21.5893 N   0  0  0  0  0  0  0  0  0  0  0  0
  -28.9559  -20.7845   18.9764 N   0  0  0  0  0  0  0  0  0  0  0  0
  -34.0791  -24.0742   25.3883 N   0  0  0  0  0  0  0  0  0  0  0  0
  -28.2345  -20.7905   26.6209 N   0  0  0  0  0  0  0  0  0  0  0  0
  -30.1327  -15.6915   21.4936 N   0  0  0  0  0  0  0  0  0  0  0  0
  -24.8909  -22.0678   26.1151 N   0  3  0  0  0  0  0  0  0  0  0  0
  -22.6515  -14.7236   21.2973 O   0  0  0  0  0  0  0  0  0  0  0  0
  -33.1473  -22.0569   24.6921 O   0  0  0  0  0  0  0  0  0  0  0  0
  -30.6591  -22.0235   27.5210 O   0  0  0  0  0  0  0  0  0  0  0  0
  -27.0296  -20.9765   24.6484 O   0  0  0  0  0  0  0  0  0  0  0  0
  -31.8714  -14.9338   20.2053 O   0  0  0  0  0  0  0  0  0  0  0  0
  -21.6183   -7.0210   21.7316 O   0  0  0  0  0  0  0  0  0  0  0  0
  -29.8933  -24.1544   19.3520 O   0  0  0  0  0  0  0  0  0  1  0  0
  -16.4599   -6.8101   19.7948 F   0  0  0  0  0  0  0  0  0  0  0  0
  -19.7310   -8.8819   22.5175 F   0  0  0  0  0  0  0  0  0  0  0  0
  -29.1054  -18.8424   20.8166 S   0  0  0  0  0  0  0  0  0  0  0  0
  1  2  1  0  0  0  0
  1  5  2  0  0  0  0
  2  6  2  0  0  0  0
  3  8  2  0  0  0  0
  3 16  1  0  0  0  0
  4  9  1  0  0  0  0
  4 16  2  0  0  0  0
  5 18  1  0  0  0  0
  6 20  1  0  0  0  0
  7 10  2  0  0  0  0
  7 19  1  0  0  0  0
  8 22  1  0  0  0  0
  9 22  2  0  0  0  0
 10 23  1  0  0  0  0
 11 12  2  0  0  0  0
 11 24  1  0  0  0  0
 12 25  1  0  0  0  0
 13 21  1  0  0  0  0
 13 23  2  0  0  0  0
 14 25  2  0  0  0  0
 14 26  1  0  0  0  0
 15 28  2  0  0  0  0
 15 62  1  0  0  0  0
 16 27  1  0  0  0  0
 17 27  1  0  0  0  0
 17 29  2  0  0  0  0
 17 31  1  0  0  0  0
 18 20  2  0  0  0  0
 18 36  1  0  0  0  0
 19 21  2  0  0  0  0
 19 37  1  0  0  0  0
 20 45  1  0  0  0  0
 21 38  1  0  0  0  0
 22 79  1  0  0  0  0
 23 80  1  0  0  0  0
 24 26  2  0  0  0  0
 24 79  1  0  0  0  0
 25 81  1  0  0  0  0
 26 82  1  0  0  0  0
 27 63  2  0  0  0  0
 28 55  1  0  0  0  0
 28 83  1  0  0  0  0
 29 64  1  0  0  0  0
 29 67  1  0  0  0  0
 30 62  2  0  0  0  0
 30 69  1  0  0  0  0
 30 83  1  0  0  0  0
 31 68  1  0  0  0  0
 31 74  2  0  0  0  0
 32 46  1  0  0  0  0
 32 70  1  0  0  0  0
 32 75  2  0  0  0  0
 33 57  1  0  0  0  0
 33 65  1  0  0  0  0
 33 76  2  0  0  0  0
 34 58  1  0  0  0  0
 34 71  1  0  0  0  0
 34 77  2  0  0  0  0
 35 66  1  0  0  0  0
 35 72  1  0  0  0  0
 35 78  2  0  0  0  0
 36 39  1  0  0  0  0
 37 46  1  0  0  0  0
 38 65  1  0  0  0  0
 39 41  1  0  0  0  0
 40 42  1  0  0  0  0
 40 43  1  0  0  0  0
 41 45  1  0  0  0  0
 42 47  1  0  0  0  0
 43 66  1  0  0  0  0
 44 47  1  0  0  0  0
 44 66  1  0  0  0  0
 45 70  1  0  0  0  0
 46 65  1  0  0  0  0
 47 64  1  0  0  0  0
 48 58  1  0  0  0  0
 49 59  1  0  0  0  0
 50 60  1  0  0  0  0
 51 61  1  0  0  0  0
 52 61  1  0  0  0  0
 53 61  1  0  0  0  0
 54 73  1  0  0  0  0
 55 72  1  0  0  0  0
 56 59  1  0  0  0  0
 56 60  1  0  0  0  0
 57 61  1  0  0  0  0
 57 71  1  0  0  0  0
 58 73  1  0  0  0  0
 59 69  1  0  0  0  0
 60 80  1  0  0  0  0
 63 64  1  0  0  0  0
M  CHG  1  73   1
M  ISO  4  35 100  60 101  72 100  80 101
M  END
> <Batch ID>
0193

> <Smiles>
CNC(C)C(=O)NC(C(=O)N1Cc2cc([101O:1][101CH:1](C)CC(C)Nc3ncc(C[100NH:0][100C:0](=O)N4CCCC(n5nc(-c6ccc(Oc7ccc(F)cc7F)cc6)c(C(N)=O)c5N)C4)s3)ccc2CC1C(=O)NC1CCCc2ccccc21)C(C)(C)C

> <Shape>
0.197

> <Color>
0.197

> <Negative vol penalty>
0.000

$$$$

  -OEChem-04052305303D

 84 92  0     1  0  0  0  0  0999 V2000
  -16.5867  -28.9799   23.7421 C   0  0  0  0  0  0  0  0  0  0  0  0
  -17.3257  -27.9843   23.1111 C   0  0  0  0  0  0  0  0  0  0  0  0
  -23.3471   -9.4011   20.7062 C   0  0  0  0  0  0  0  0  0  0  0  0
  -23.0098  -11.4075   22.0090 C   0  0  0  0  0  0  0  0  0  0  0  0
  -17.0792  -30.2831   23.7973 C   0  0  0  0  0  0  0  0  0  0  0  0
  -18.5573  -28.2917   22.5339 C   0  0  0  0  0  0  0  0  0  0  0  0
  -23.4968  -24.6820   22.2575 C   0  0  0  0  0  0  0  0  0  0  0  0
  -22.4257   -8.7262   21.5069 C   0  0  0  0  0  0  0  0  0  0  0  0
  -22.0883  -10.7327   22.8097 C   0  0  0  0  0  0  0  0  0  0  0  0
  -24.0061  -23.8647   21.2493 C   0  0  0  0  0  0  0  0  0  0  0  0
  -19.0637   -8.5122   21.7969 C   0  0  0  0  0  0  0  0  0  0  0  0
  -18.1118   -7.7161   21.1598 C   0  0  0  0  0  0  0  0  0  0  0  0
  -25.4901  -25.6403   20.5680 C   0  0  0  0  0  0  0  0  0  0  0  0
  -18.9385   -5.7796   22.3447 C   0  0  0  0  0  0  0  0  0  0  0  0
  -31.5333  -18.5820   17.6584 C   0  0  0  0  0  0  0  0  0  0  0  0
  -23.6392  -10.7417   20.9573 C   0  0  0  0  0  0  0  0  0  0  0  0
  -24.3257  -12.1606   18.9515 C   0  0  0  0  0  0  0  0  0  0  0  0
  -18.3219  -30.6045   23.2289 C   0  0  0  0  0  0  0  0  0  0  0  0
  -23.9735  -25.9905   22.4219 C   0  0  0  0  0  0  0  0  0  0  0  0
  -19.0663  -29.6007   22.5804 C   0  0  0  0  0  0  0  0  0  0  0  0
  -24.9871  -26.4713   21.5806 C   0  0  0  0  0  0  0  0  0  0  0  0
  -21.7962   -9.3920   22.5586 C   0  0  0  0  0  0  0  0  0  0  0  0
  -25.0009  -24.3448   20.4025 C   0  0  0  0  0  0  0  0  0  0  0  0
  -19.9530   -7.9420   22.7078 C   0  0  0  0  0  0  0  0  0  0  0  0
  -18.0492   -6.3498   21.4337 C   0  0  0  0  0  0  0  0  0  0  0  0
  -19.8904   -6.5757   22.9817 C   0  0  0  0  0  0  0  0  0  0  0  0
  -24.5914  -11.4392   20.1309 C   0  0  0  0  0  0  0  0  0  0  0  0
  -29.1927  -18.0353   17.8172 C   0  0  0  0  0  0  0  0  0  0  0  0
  -30.0606  -17.1359   18.4002 C   0  0  0  0  0  0  0  0  0  0  0  0
  -25.5536  -12.6281   18.5511 C   0  0  0  0  0  0  0  0  0  0  0  0
  -23.0804  -12.3879   18.2783 C   0  0  0  0  0  0  0  0  0  0  0  0
  -27.7100  -18.0282   17.7234 C   0  0  0  0  0  0  0  0  0  0  0  0
  -22.6770  -28.8878   22.2532 C   0  0  0  0  0  0  0  0  0  0  0  0
  -25.5971  -29.8298   23.3060 C   0  0  0  0  0  0  0  0  0  0  0  0
  -28.9321  -29.1602   23.5815 C   0  0  0  0  0  0  0  0  0  0  0  0
  -30.4651  -14.9993   19.6720 C   0  0  0  0  0  0  0  0  0  0  0  0
  -18.7911  -32.0372   23.2722 C   0  0  0  0  0  0  0  0  0  0  0  0
  -23.4326  -26.8502   23.5312 C   0  0  0  0  0  0  0  0  0  0  0  0
  -25.5472  -27.8616   21.7283 C   0  0  0  0  0  0  0  0  0  0  0  0
  -20.2771  -32.2010   22.9637 C   0  0  0  0  0  0  0  0  0  0  0  0
  -30.2062  -11.4855   20.1850 C   0  0  0  0  0  0  0  0  0  0  0  0
  -20.6597  -31.3861   21.7324 C   0  0  0  0  0  0  0  0  0  0  0  0
  -28.7005  -11.2196   20.1196 C   0  0  0  0  0  0  0  0  0  0  0  0
  -30.5177  -12.8188   20.8625 C   0  0  0  0  0  0  0  0  0  0  0  0
  -28.3098  -13.7138   20.2354 C   0  0  0  0  0  0  0  0  0  0  0  0
  -20.4179  -29.8896   21.9642 C   0  0  1  0  0  0  0  0  0  0  0  0
  -23.6283  -28.3423   23.2804 C   0  0  1  0  0  0  0  0  0  0  0  0
  -27.9438  -12.4124   19.5032 C   0  0  2  0  0  0  0  0  0  0  0  0
  -31.0712  -30.1356   24.4592 C   0  0  0  0  0  0  0  0  0  0  0  0
  -25.7027  -31.7346   20.9247 C   0  0  0  0  0  0  0  0  0  0  0  0
  -28.1673  -31.9596   21.3029 C   0  0  0  0  0  0  0  0  0  0  0  0
  -26.5644  -32.6943   23.0674 C   0  0  0  0  0  0  0  0  0  0  0  0
  -29.3281  -26.9036   25.4550 C   0  0  0  0  0  0  0  0  0  0  0  0
  -25.1057  -20.0347   18.0664 C   0  0  0  0  0  0  0  0  0  0  0  0
  -25.7121  -19.2508   16.9052 C   0  0  0  0  0  0  0  0  0  0  0  0
  -24.9572  -22.2339   19.3078 C   0  0  0  0  0  0  0  0  0  1  0  0
  -26.8959  -30.2237   22.6450 C   0  0  1  0  0  0  0  0  0  0  0  0
  -29.8811  -29.2393   24.7638 C   0  0  2  0  0  0  0  0  0  0  0  0
  -25.6623  -21.4554   18.1992 C   0  0  2  0  0  0  0  0  0  0  0  0
  -26.8209  -31.6275   21.9807 C   0  0  0  0  0  0  0  0  0  0  0  0
  -31.4032  -17.4475   18.3097 N   0  0  0  0  0  0  0  0  0  0  0  0
  -25.8863  -11.4450   20.4582 N   0  0  0  0  0  0  0  0  0  0  0  0
  -26.4453  -12.1756   19.4785 N   0  0  0  0  0  0  0  0  0  0  0  0
  -24.9814  -28.6660   22.8239 N   0  0  0  0  0  0  0  0  0  0  0  0
  -29.7689  -13.9028   20.2230 N   0  0  0  0  0  0  0  0  0  0  0  0
  -25.9466  -13.3778   17.4995 N   0  0  0  0  0  0  0  0  0  0  0  0
  -21.9144  -11.8355   18.8256 N   0  0  0  0  0  0  0  0  0  0  0  0
  -29.6500  -15.9520   19.0616 N   0  0  0  0  0  0  0  0  0  0  0  0
  -27.1347  -19.1033   17.0571 N   0  0  0  0  0  0  0  0  0  0  0  0
  -21.4755  -29.3266   22.7759 N   0  0  0  0  0  0  0  0  0  0  0  0
  -27.9283  -30.1015   23.6686 N   0  0  0  0  0  0  0  0  0  0  0  0
  -25.4587  -22.1935   16.9176 N   0  3  0  0  0  0  0  0  0  0  0  0
  -30.3911  -27.8825   25.1102 N   0  3  0  0  0  0  0  0  0  0  0  0
  -23.0063  -13.0471   17.2136 O   0  0  0  0  0  0  0  0  0  0  0  0
  -27.0804  -17.1099   18.2420 O   0  0  0  0  0  0  0  0  0  0  0  0
  -23.0092  -28.9104   21.0738 O   0  0  0  0  0  0  0  0  0  0  0  0
  -25.1491  -30.5249   24.2212 O   0  0  0  0  0  0  0  0  0  0  0  0
  -29.0699  -28.3474   22.6700 O   0  0  0  0  0  0  0  0  0  0  0  0
  -31.6959  -15.0734   19.7128 O   0  0  0  0  0  0  0  0  0  0  0  0
  -20.8969   -8.7339   23.3400 O   0  0  0  0  0  0  0  0  0  0  0  0
  -25.4993  -23.5494   19.4172 O   0  0  0  0  0  0  0  0  0  1  0  0
  -17.1342   -5.5857   20.8230 F   0  0  0  0  0  0  0  0  0  0  0  0
  -20.7413   -6.0225   23.8567 F   0  0  0  0  0  0  0  0  0  0  0  0
  -30.0825  -19.3285   17.1264 S   0  0  0  0  0  0  0  0  0  0  0  0
  1  2  1  0  0  0  0
  1  5  2  0  0  0  0
  2  6  2  0  0  0  0
  3  8  2  0  0  0  0
  3 16  1  0  0  0  0
  4  9  1  0  0  0  0
  4 16  2  0  0  0  0
  5 18  1  0  0  0  0
  6 20  1  0  0  0  0
  7 10  2  0  0  0  0
  7 19  1  0  0  0  0
  8 22  1  0  0  0  0
  9 22  2  0  0  0  0
 10 23  1  0  0  0  0
 11 12  2  0  0  0  0
 11 24  1  0  0  0  0
 12 25  1  0  0  0  0
 13 21  1  0  0  0  0
 13 23  2  0  0  0  0
 14 25  2  0  0  0  0
 14 26  1  0  0  0  0
 15 61  2  0  0  0  0
 15 84  1  0  0  0  0
 16 27  1  0  0  0  0
 17 27  1  0  0  0  0
 17 30  2  0  0  0  0
 17 31  1  0  0  0  0
 18 20  2  0  0  0  0
 18 37  1  0  0  0  0
 19 21  2  0  0  0  0
 19 38  1  0  0  0  0
 20 46  1  0  0  0  0
 21 39  1  0  0  0  0
 22 80  1  0  0  0  0
 23 81  1  0  0  0  0
 24 26  2  0  0  0  0
 24 80  1  0  0  0  0
 25 82  1  0  0  0  0
 26 83  1  0  0  0  0
 27 62  2  0  0  0  0
 28 29  2  0  0  0  0
 28 32  1  0  0  0  0
 28 84  1  0  0  0  0
 29 61  1  0  0  0  0
 29 68  1  0  0  0  0
 30 63  1  0  0  0  0
 30 66  1  0  0  0  0
 31 67  1  0  0  0  0
 31 74  2  0  0  0  0
 32 69  1  0  0  0  0
 32 75  2  0  0  0  0
 33 47  1  0  0  0  0
 33 70  1  0  0  0  0
 33 76  2  0  0  0  0
 34 57  1  0  0  0  0
 34 64  1  0  0  0  0
 34 77  2  0  0  0  0
 35 58  1  0  0  0  0
 35 71  1  0  0  0  0
 35 78  2  0  0  0  0
 36 65  1  0  0  0  0
 36 68  1  0  0  0  0
 36 79  2  0  0  0  0
 37 40  1  0  0  0  0
 38 47  1  0  0  0  0
 39 64  1  0  0  0  0
 40 42  1  0  0  0  0
 41 43  1  0  0  0  0
 41 44  1  0  0  0  0
 42 46  1  0  0  0  0
 43 48  1  0  0  0  0
 44 65  1  0  0  0  0
 45 48  1  0  0  0  0
 45 65  1  0  0  0  0
 46 70  1  0  0  0  0
 47 64  1  0  0  0  0
 48 63  1  0  0  0  0
 49 58  1  0  0  0  0
 50 60  1  0  0  0  0
 51 60  1  0  0  0  0
 52 60  1  0  0  0  0
 53 73  1  0  0  0  0
 54 55  1  0  0  0  0
 54 59  1  0  0  0  0
 55 69  1  0  0  0  0
 56 59  1  0  0  0  0
 56 81  1  0  0  0  0
 57 60  1  0  0  0  0
 57 71  1  0  0  0  0
 58 73  1  0  0  0  0
 59 72  1  0  0  0  0
 62 63  1  0  0  0  0
M  CHG  2  72   1  73   1
M  ISO  4  36 100  56 101  68 100  81 101
M  END
> <Batch ID>
0193

> <Smiles>
CNC(C)C(=O)NC(C(=O)N1Cc2cc([101O:1][101CH2:1]C(N)CCNC(=O)c3scnc3[100NH:0][100C:0](=O)N3CCCC(n4nc(-c5ccc(Oc6ccc(F)cc6F)cc5)c(C(N)=O)c4N)C3)ccc2CC1C(=O)NC1CCCc2ccccc21)C(C)(C)C

> <Shape>
0.213

> <Color>
0.084

> <Negative vol penalty>
0.000

$$$$

  -OEChem-04052305303D

 83 91  0     1  0  0  0  0  0999 V2000
  -35.5699  -21.0837   21.2736 C   0  0  0  0  0  0  0  0  0  0  0  0
  -34.2788  -20.8795   21.7497 C   0  0  0  0  0  0  0  0  0  0  0  0
  -23.0010   -9.8921   19.9840 C   0  0  0  0  0  0  0  0  0  0  0  0
  -23.7281   -9.9482   22.2873 C   0  0  0  0  0  0  0  0  0  0  0  0
  -36.4052  -22.0069   21.9012 C   0  0  0  0  0  0  0  0  0  0  0  0
  -33.8225  -21.5978   22.8543 C   0  0  0  0  0  0  0  0  0  0  0  0
  -29.1428  -23.4161   22.1915 C   0  0  0  0  0  0  0  0  0  0  0  0
  -22.2361   -8.7572   20.2531 C   0  0  0  0  0  0  0  0  0  0  0  0
  -22.9631   -8.8133   22.5564 C   0  0  0  0  0  0  0  0  0  0  0  0
  -28.0845  -22.5216   22.3450 C   0  0  0  0  0  0  0  0  0  0  0  0
  -23.2111   -5.4737   22.0905 C   0  0  0  0  0  0  0  0  0  0  0  0
  -23.8005   -4.4587   22.8439 C   0  0  0  0  0  0  0  0  0  0  0  0
  -27.6995  -23.3684   24.5707 C   0  0  0  0  0  0  0  0  0  0  0  0
  -22.0777   -4.7026   24.5202 C   0  0  0  0  0  0  0  0  0  0  0  0
  -31.1762  -17.4701   24.3148 C   0  0  0  0  0  0  0  0  0  0  0  0
  -23.7471  -10.4876   21.0011 C   0  0  0  0  0  0  0  0  0  0  0  0
  -24.1292  -13.0033   20.8201 C   0  0  0  0  0  0  0  0  0  0  0  0
  -35.9557  -22.7438   23.0082 C   0  0  0  0  0  0  0  0  0  0  0  0
  -29.4950  -24.2874   23.2322 C   0  0  0  0  0  0  0  0  0  0  0  0
  -34.6530  -22.5308   23.4982 C   0  0  0  0  0  0  0  0  0  0  0  0
  -28.7611  -24.2748   24.4269 C   0  0  0  0  0  0  0  0  0  0  0  0
  -22.2171   -8.2178   21.5393 C   0  0  0  0  0  0  0  0  0  0  0  0
  -27.3645  -22.4956   23.5358 C   0  0  0  0  0  0  0  0  0  0  0  0
  -22.0550   -6.1034   22.5518 C   0  0  0  0  0  0  0  0  0  0  0  0
  -23.2338   -4.0730   24.0588 C   0  0  0  0  0  0  0  0  0  0  0  0
  -21.4883   -5.7178   23.7667 C   0  0  0  0  0  0  0  0  0  0  0  0
  -24.5379  -11.6596   20.7236 C   0  0  0  0  0  0  0  0  0  0  0  0
  -30.3808  -17.3564   23.1938 C   0  0  0  0  0  0  0  0  0  0  0  0
  -25.2378  -13.7265   20.4535 C   0  0  0  0  0  0  0  0  0  0  0  0
  -28.8884  -18.1775   24.5752 C   0  0  0  0  0  0  0  0  0  0  0  0
  -22.8610  -13.5489   21.2067 C   0  0  0  0  0  0  0  0  0  0  0  0
  -32.0905  -24.7178   25.0159 C   0  0  0  0  0  0  0  0  0  0  0  0
  -30.4239  -27.2662   26.1342 C   0  0  0  0  0  0  0  0  0  0  0  0
  -27.3914  -28.7432   26.6529 C   0  0  0  0  0  0  0  0  0  0  0  0
  -30.7333  -14.6682   20.6956 C   0  0  0  0  0  0  0  0  0  0  0  0
  -36.9109  -23.6963   23.6827 C   0  0  0  0  0  0  0  0  0  0  0  0
  -30.6221  -25.2648   23.0409 C   0  0  0  0  0  0  0  0  0  0  0  0
  -29.0861  -25.2037   25.5671 C   0  0  0  0  0  0  0  0  0  0  0  0
  -36.2235  -24.6886   24.6170 C   0  0  0  0  0  0  0  0  0  0  0  0
  -29.5935  -12.2388   18.3556 C   0  0  0  0  0  0  0  0  0  0  0  0
  -35.2176  -23.9709   25.5114 C   0  0  0  0  0  0  0  0  0  0  0  0
  -28.1457  -11.9781   18.7749 C   0  0  0  0  0  0  0  0  0  0  0  0
  -30.4967  -12.4775   19.5636 C   0  0  0  0  0  0  0  0  0  0  0  0
  -28.5867  -13.2732   20.9025 C   0  0  0  0  0  0  0  0  0  0  0  0
  -34.1133  -23.3087   24.6787 C   0  0  1  0  0  0  0  0  0  0  0  0
  -31.2211  -25.7511   24.3570 C   0  0  1  0  0  0  0  0  0  0  0  0
  -27.6269  -13.0822   19.7157 C   0  0  2  0  0  0  0  0  0  0  0  0
  -30.6626  -17.8832   20.7434 C   0  0  0  0  0  0  0  0  0  0  0  0
  -26.3463  -30.8086   27.6220 C   0  0  0  0  0  0  0  0  0  0  0  0
  -25.8521  -17.3662   24.1609 C   0  0  0  0  0  0  0  0  0  0  0  0
  -30.8987  -26.1836   28.9472 C   0  0  0  0  0  0  0  0  0  0  0  0
  -29.0821  -27.7014   29.7625 C   0  0  0  0  0  0  0  0  0  0  0  0
  -31.1388  -28.6634   28.7294 C   0  0  0  0  0  0  0  0  0  0  0  0
  -26.2160  -29.5112   24.0477 C   0  0  0  0  0  0  0  0  0  0  0  0
  -25.5052  -19.7404   24.9279 C   0  0  0  0  0  0  0  0  0  0  0  0
  -26.0651  -21.1569   25.0107 C   0  0  0  0  0  0  0  0  0  1  0  0
  -30.8144  -16.8494   21.8767 C   0  0  2  0  0  0  0  0  0  0  0  0
  -29.4457  -27.4926   27.2615 C   0  0  1  0  0  0  0  0  0  0  0  0
  -26.8930  -30.1481   26.3660 C   0  0  2  0  0  0  0  0  0  0  0  0
  -26.4786  -18.7522   24.2778 C   0  0  1  0  0  0  0  0  0  0  0  0
  -30.1362  -27.4913   28.6546 C   0  0  0  0  0  0  0  0  0  0  0  0
  -25.8070  -11.5339   20.3266 N   0  0  0  0  0  0  0  0  0  0  0  0
  -29.0685  -17.7612   23.3414 N   0  0  0  0  0  0  0  0  0  0  0  0
  -26.2053  -12.8079   20.1703 N   0  0  0  0  0  0  0  0  0  0  0  0
  -30.2009  -26.1367   25.3341 N   0  0  0  0  0  0  0  0  0  0  0  0
  -29.9493  -13.5372   20.4142 N   0  0  0  0  0  0  0  0  0  0  0  0
  -25.4696  -15.0523   20.3488 N   0  0  0  0  0  0  0  0  0  0  0  0
  -21.8305  -12.6641   21.5527 N   0  0  0  0  0  0  0  0  0  0  0  0
  -27.6873  -18.6540   25.0692 N   0  0  0  0  0  0  0  0  0  0  0  0
  -33.1517  -24.2963   24.2377 N   0  0  0  0  0  0  0  0  0  0  0  0
  -28.7387  -28.7292   26.9462 N   0  0  0  0  0  0  0  0  0  0  0  0
  -30.1365  -15.6277   21.5042 N   0  0  0  0  0  0  0  0  0  0  0  0
  -25.8098  -30.1146   25.3431 N   0  3  0  0  0  0  0  0  0  0  0  0
  -22.6428  -14.7840   21.2284 O   0  0  0  0  0  0  0  0  0  0  0  0
  -31.8195  -24.3326   26.1472 O   0  0  0  0  0  0  0  0  0  0  0  0
  -31.3476  -28.0661   25.9653 O   0  0  0  0  0  0  0  0  0  0  0  0
  -26.6581  -27.7573   26.6237 O   0  0  0  0  0  0  0  0  0  0  0  0
  -31.8782  -14.8147   20.2543 O   0  0  0  0  0  0  0  0  0  0  0  0
  -21.4706   -7.1105   21.8023 O   0  0  0  0  0  0  0  0  0  0  0  0
  -26.3315  -21.6231   23.6886 O   0  0  0  0  0  0  0  0  0  1  0  0
  -23.7990   -3.0971   24.7815 F   0  0  0  0  0  0  0  0  0  0  0  0
  -20.3771   -6.3181   24.2145 F   0  0  0  0  0  0  0  0  0  0  0  0
  -30.2545  -18.1105   25.6116 S   0  0  0  0  0  0  0  0  0  0  0  0
  1  2  1  0  0  0  0
  1  5  2  0  0  0  0
  2  6  2  0  0  0  0
  3  8  2  0  0  0  0
  3 16  1  0  0  0  0
  4  9  1  0  0  0  0
  4 16  2  0  0  0  0
  5 18  1  0  0  0  0
  6 20  1  0  0  0  0
  7 10  2  0  0  0  0
  7 19  1  0  0  0  0
  8 22  1  0  0  0  0
  9 22  2  0  0  0  0
 10 23  1  0  0  0  0
 11 12  2  0  0  0  0
 11 24  1  0  0  0  0
 12 25  1  0  0  0  0
 13 21  1  0  0  0  0
 13 23  2  0  0  0  0
 14 25  2  0  0  0  0
 14 26  1  0  0  0  0
 15 28  2  0  0  0  0
 15 83  1  0  0  0  0
 16 27  1  0  0  0  0
 17 27  1  0  0  0  0
 17 29  2  0  0  0  0
 17 31  1  0  0  0  0
 18 20  2  0  0  0  0
 18 36  1  0  0  0  0
 19 21  2  0  0  0  0
 19 37  1  0  0  0  0
 20 45  1  0  0  0  0
 21 38  1  0  0  0  0
 22 79  1  0  0  0  0
 23 80  1  0  0  0  0
 24 26  2  0  0  0  0
 24 79  1  0  0  0  0
 25 81  1  0  0  0  0
 26 82  1  0  0  0  0
 27 62  2  0  0  0  0
 28 57  1  0  0  0  0
 28 63  1  0  0  0  0
 29 64  1  0  0  0  0
 29 67  1  0  0  0  0
 30 63  2  0  0  0  0
 30 69  1  0  0  0  0
 30 83  1  0  0  0  0
 31 68  1  0  0  0  0
 31 74  2  0  0  0  0
 32 46  1  0  0  0  0
 32 70  1  0  0  0  0
 32 75  2  0  0  0  0
 33 58  1  0  0  0  0
 33 65  1  0  0  0  0
 33 76  2  0  0  0  0
 34 59  1  0  0  0  0
 34 71  1  0  0  0  0
 34 77  2  0  0  0  0
 35 66  1  0  0  0  0
 35 72  1  0  0  0  0
 35 78  2  0  0  0  0
 36 39  1  0  0  0  0
 37 46  1  0  0  0  0
 38 65  1  0  0  0  0
 39 41  1  0  0  0  0
 40 42  1  0  0  0  0
 40 43  1  0  0  0  0
 41 45  1  0  0  0  0
 42 47  1  0  0  0  0
 43 66  1  0  0  0  0
 44 47  1  0  0  0  0
 44 66  1  0  0  0  0
 45 70  1  0  0  0  0
 46 65  1  0  0  0  0
 47 64  1  0  0  0  0
 48 57  1  0  0  0  0
 49 59  1  0  0  0  0
 50 60  1  0  0  0  0
 51 61  1  0  0  0  0
 52 61  1  0  0  0  0
 53 61  1  0  0  0  0
 54 73  1  0  0  0  0
 55 56  1  0  0  0  0
 55 60  1  0  0  0  0
 56 80  1  0  0  0  0
 57 72  1  0  0  0  0
 58 61  1  0  0  0  0
 58 71  1  0  0  0  0
 59 73  1  0  0  0  0
 60 69  1  0  0  0  0
 62 64  1  0  0  0  0
M  CHG  1  73   1
M  ISO  4  35 100  56 101  72 100  80 101
M  END
> <Batch ID>
0193

> <Smiles>
CNC(C)C(=O)NC(C(=O)N1Cc2cc([101O:1][101CH2:1]CC(C)Nc3nc(C(C)[100NH:0][100C:0](=O)N4CCCC(n5nc(-c6ccc(Oc7ccc(F)cc7F)cc6)c(C(N)=O)c5N)C4)cs3)ccc2CC1C(=O)NC1CCCc2ccccc21)C(C)(C)C

> <Shape>
0.203

> <Color>
0.197

> <Negative vol penalty>
0.000

$$$$

  -OEChem-04052305303D

 87 95  0     1  0  0  0  0  0999 V2000
  -25.8176  -19.7323   27.8806 C   0  0  0  0  0  0  0  0  0  0  0  0
  -25.0962  -19.4105   26.7354 C   0  0  0  0  0  0  0  0  0  0  0  0
  -30.6598  -19.8831   19.3391 C   0  0  0  0  0  0  0  0  0  0  0  0
  -28.7563  -20.2779   20.7737 C   0  0  0  0  0  0  0  0  0  0  0  0
  -25.5232  -20.8998   28.5834 C   0  0  0  0  0  0  0  0  0  0  0  0
  -24.0792  -20.2557   26.2930 C   0  0  0  0  0  0  0  0  0  0  0  0
  -24.2430  -21.0405   21.2927 C   0  0  0  0  0  0  0  0  0  0  0  0
  -30.4963  -21.1479   18.7741 C   0  0  0  0  0  0  0  0  0  0  0  0
  -28.5928  -21.5427   20.2087 C   0  0  0  0  0  0  0  0  0  0  0  0
  -23.7481  -20.0275   20.4727 C   0  0  0  0  0  0  0  0  0  0  0  0
  -27.8942  -25.0172   19.3976 C   0  0  0  0  0  0  0  0  0  0  0  0
  -27.6569  -26.0877   20.2597 C   0  0  0  0  0  0  0  0  0  0  0  0
  -21.6819  -21.2472   20.2233 C   0  0  0  0  0  0  0  0  0  0  0  0
  -29.7688  -25.6720   21.3571 C   0  0  0  0  0  0  0  0  0  0  0  0
  -21.1527  -12.7803   19.7192 C   0  0  0  0  0  0  0  0  0  0  0  0
  -29.7897  -19.4481   20.3389 C   0  0  0  0  0  0  0  0  0  0  0  0
  -30.7354  -17.8063   22.0471 C   0  0  0  0  0  0  0  0  0  0  0  0
  -24.5085  -21.7647   28.1440 C   0  0  0  0  0  0  0  0  0  0  0  0
  -23.4557  -22.1613   21.5936 C   0  0  0  0  0  0  0  0  0  0  0  0
  -23.7701  -21.4353   26.9913 C   0  0  0  0  0  0  0  0  0  0  0  0
  -22.1701  -22.2743   21.0453 C   0  0  0  0  0  0  0  0  0  0  0  0
  -29.4629  -21.9777   19.2089 C   0  0  0  0  0  0  0  0  0  0  0  0
  -22.4662  -20.1294   19.9401 C   0  0  0  0  0  0  0  0  0  0  0  0
  -29.0688  -24.2740   19.5152 C   0  0  0  0  0  0  0  0  0  0  0  0
  -28.5942  -26.4151   21.2395 C   0  0  0  0  0  0  0  0  0  0  0  0
  -30.0061  -24.6014   20.4949 C   0  0  0  0  0  0  0  0  0  0  0  0
  -29.9577  -18.1415   20.9225 C   0  0  0  0  0  0  0  0  0  0  0  0
  -21.4264  -14.0972   20.0245 C   0  0  0  0  0  0  0  0  0  0  0  0
  -30.5629  -16.4515   22.1924 C   0  0  0  0  0  0  0  0  0  0  0  0
  -23.0445  -13.1515   21.1636 C   0  0  0  0  0  0  0  0  0  0  0  0
  -31.5416  -18.6447   22.8854 C   0  0  0  0  0  0  0  0  0  0  0  0
  -22.2570  -23.4102   24.2595 C   0  0  0  0  0  0  0  0  0  0  0  0
  -21.3514  -25.8048   22.2675 C   0  0  0  0  0  0  0  0  0  0  0  0
  -20.5943  -26.8023   19.0928 C   0  0  0  0  0  0  0  0  0  0  0  0
  -26.1975  -12.6975   20.5488 C   0  0  0  0  0  0  0  0  0  0  0  0
  -24.1949  -22.9914   28.9634 C   0  0  0  0  0  0  0  0  0  0  0  0
  -24.0143  -23.2580   22.4582 C   0  0  0  0  0  0  0  0  0  0  0  0
  -21.2924  -23.4667   21.3213 C   0  0  0  0  0  0  0  0  0  0  0  0
  -23.3528  -24.0232   28.2174 C   0  0  0  0  0  0  0  0  0  0  0  0
  -29.6386  -12.5011   19.6564 C   0  0  0  0  0  0  0  0  0  0  0  0
  -22.1821  -23.3469   27.5110 C   0  0  0  0  0  0  0  0  0  0  0  0
  -30.1808  -13.8942   19.9812 C   0  0  0  0  0  0  0  0  0  0  0  0
  -28.2124  -12.5629   19.1142 C   0  0  0  0  0  0  0  0  0  0  0  0
  -27.7992  -14.6885   20.2909 C   0  0  0  0  0  0  0  0  0  0  0  0
  -22.6761  -22.3393   26.4659 C   0  0  1  0  0  0  0  0  0  0  0  0
  -22.9329  -24.1106   23.1148 C   0  0  1  0  0  0  0  0  0  0  0  0
  -29.2145  -14.6733   20.8936 C   0  0  2  0  0  0  0  0  0  0  0  0
  -25.9338  -11.8599   24.4472 C   0  0  0  0  0  0  0  0  0  0  0  0
  -20.0153  -28.3692   17.2201 C   0  0  0  0  0  0  0  0  0  0  0  0
  -18.5134  -25.4459   23.3291 C   0  0  0  0  0  0  0  0  0  0  0  0
  -17.6870  -26.7591   21.3642 C   0  0  0  0  0  0  0  0  0  0  0  0
  -19.2184  -27.8253   23.0197 C   0  0  0  0  0  0  0  0  0  0  0  0
  -23.8081  -15.0254   23.5725 C   0  0  0  0  0  0  0  0  0  0  0  0
  -22.9566  -12.7823   24.2492 C   0  0  0  0  0  0  0  0  0  0  0  0
  -23.4443  -27.3660   18.5283 C   0  0  0  0  0  0  0  0  0  0  0  0
  -25.4307  -13.2956   24.3495 C   0  0  0  0  0  0  0  0  0  0  0  0
  -20.9620  -16.5433   19.8623 C   0  0  0  0  0  0  0  0  0  0  0  0
  -20.5696  -18.9280   19.1556 C   0  0  0  0  0  0  0  0  0  1  0  0
  -24.2286  -12.9807   22.0330 C   0  0  2  0  0  0  0  0  0  0  0  0
  -20.1325  -26.0904   21.4240 C   0  0  1  0  0  0  0  0  0  0  0  0
  -21.0422  -28.0041   18.2808 C   0  0  2  0  0  0  0  0  0  0  0  0
  -20.2869  -17.4620   18.8458 C   0  0  1  0  0  0  0  0  0  0  0  0
  -18.9034  -26.5067   22.2804 C   0  0  0  0  0  0  0  0  0  0  0  0
  -24.1160  -13.5103   23.5309 C   0  0  0  0  0  0  0  0  0  0  0  0
  -29.3374  -17.0847   20.3911 N   0  0  0  0  0  0  0  0  0  0  0  0
  -22.5106  -14.3119   20.8529 N   0  0  0  0  0  0  0  0  0  0  0  0
  -29.7252  -16.0722   21.1851 N   0  0  0  0  0  0  0  0  0  0  0  0
  -21.8811  -24.5098   22.1775 N   0  0  0  0  0  0  0  0  0  0  0  0
  -27.3467  -13.3136   20.0268 N   0  0  0  0  0  0  0  0  0  0  0  0
  -31.0476  -15.5595   23.0823 N   0  0  0  0  0  0  0  0  0  0  0  0
  -31.6077  -20.0142   22.5949 N   0  0  0  0  0  0  0  0  0  0  0  0
  -20.6803  -15.1610   19.5461 N   0  0  0  0  0  0  0  0  0  0  0  0
  -23.1168  -23.0259   25.2706 N   0  0  0  0  0  0  0  0  0  0  0  0
  -20.5410  -27.0878   20.4407 N   0  0  0  0  0  0  0  0  0  0  0  0
  -25.4359  -13.4770   21.4109 N   0  0  0  0  0  0  0  0  0  0  0  0
  -22.3374  -27.7170   17.6018 N   0  3  0  0  0  0  0  0  0  0  0  0
  -32.1975  -18.1901   23.8532 O   0  0  0  0  0  0  0  0  0  0  0  0
  -21.0448  -23.2329   24.2283 O   0  0  0  0  0  0  0  0  0  0  0  0
  -21.8208  -26.7000   22.9746 O   0  0  0  0  0  0  0  0  0  0  0  0
  -20.3158  -25.7196   18.5820 O   0  0  0  0  0  0  0  0  0  0  0  0
  -25.8769  -11.5367   20.2717 O   0  0  0  0  0  0  0  0  0  0  0  0
  -20.8097  -17.1839   17.5452 O   0  0  0  0  0  0  0  0  0  0  0  0
  -29.3032  -23.2120   18.6580 O   0  0  0  0  0  0  0  0  0  0  0  0
  -21.9804  -19.1417   19.1399 O   0  0  0  0  0  0  0  0  0  1  0  0
  -28.3670  -27.4441   22.0663 F   0  0  0  0  0  0  0  0  0  0  0  0
  -31.1368  -23.8919   20.6120 F   0  0  0  0  0  0  0  0  0  0  0  0
  -22.2939  -11.7611   20.4939 S   0  0  0  0  0  0  0  0  0  0  0  0
  1  2  1  0  0  0  0
  1  5  2  0  0  0  0
  2  6  2  0  0  0  0
  3  8  2  0  0  0  0
  3 16  1  0  0  0  0
  4  9  1  0  0  0  0
  4 16  2  0  0  0  0
  5 18  1  0  0  0  0
  6 20  1  0  0  0  0
  7 10  2  0  0  0  0
  7 19  1  0  0  0  0
  8 22  1  0  0  0  0
  9 22  2  0  0  0  0
 10 23  1  0  0  0  0
 11 12  2  0  0  0  0
 11 24  1  0  0  0  0
 12 25  1  0  0  0  0
 13 21  1  0  0  0  0
 13 23  2  0  0  0  0
 14 25  2  0  0  0  0
 14 26  1  0  0  0  0
 15 28  2  0  0  0  0
 15 87  1  0  0  0  0
 16 27  1  0  0  0  0
 17 27  1  0  0  0  0
 17 29  2  0  0  0  0
 17 31  1  0  0  0  0
 18 20  2  0  0  0  0
 18 36  1  0  0  0  0
 19 21  2  0  0  0  0
 19 37  1  0  0  0  0
 20 45  1  0  0  0  0
 21 38  1  0  0  0  0
 22 83  1  0  0  0  0
 23 84  1  0  0  0  0
 24 26  2  0  0  0  0
 24 83  1  0  0  0  0
 25 85  1  0  0  0  0
 26 86  1  0  0  0  0
 27 65  2  0  0  0  0
 28 66  1  0  0  0  0
 28 72  1  0  0  0  0
 29 67  1  0  0  0  0
 29 70  1  0  0  0  0
 30 59  1  0  0  0  0
 30 66  2  0  0  0  0
 30 87  1  0  0  0  0
 31 71  1  0  0  0  0
 31 77  2  0  0  0  0
 32 46  1  0  0  0  0
 32 73  1  0  0  0  0
 32 78  2  0  0  0  0
 33 60  1  0  0  0  0
 33 68  1  0  0  0  0
 33 79  2  0  0  0  0
 34 61  1  0  0  0  0
 34 74  1  0  0  0  0
 34 80  2  0  0  0  0
 35 69  1  0  0  0  0
 35 75  1  0  0  0  0
 35 81  2  0  0  0  0
 36 39  1  0  0  0  0
 37 46  1  0  0  0  0
 38 68  1  0  0  0  0
 39 41  1  0  0  0  0
 40 42  1  0  0  0  0
 40 43  1  0  0  0  0
 41 45  1  0  0  0  0
 42 47  1  0  0  0  0
 43 69  1  0  0  0  0
 44 47  1  0  0  0  0
 44 69  1  0  0  0  0
 45 73  1  0  0  0  0
 46 68  1  0  0  0  0
 47 67  1  0  0  0  0
 48 56  1  0  0  0  0
 49 61  1  0  0  0  0
 50 63  1  0  0  0  0
 51 63  1  0  0  0  0
 52 63  1  0  0  0  0
 53 64  1  0  0  0  0
 54 64  1  0  0  0  0
 55 76  1  0  0  0  0
 56 64  1  0  0  0  0
 57 62  1  0  0  0  0
 57 72  1  0  0  0  0
 58 62  1  0  0  0  0
 58 84  1  0  0  0  0
 59 64  1  0  0  0  0
 59 75  1  0  0  0  0
 60 63  1  0  0  0  0
 60 74  1  0  0  0  0
 61 76  1  0  0  0  0
 62 82  1  0  0  0  0
 65 67  1  0  0  0  0
M  CHG  1  76   1
M  ISO  4  35 100  58 101  75 100  84 101
M  END
> <Batch ID>
0193

> <Smiles>
CCC(C)(C)C([100NH:0][100C:0](=O)N1CCCC(n2nc(-c3ccc(Oc4ccc(F)cc4F)cc3)c(C(N)=O)c2N)C1)c1nc(NCC(O)[101CH2:1][101O:1]c2ccc3c(c2)CN(C(=O)C(NC(=O)C(C)NC)C(C)(C)C)C(C(=O)NC2CCCc4ccccc42)C3)cs1

> <Shape>
0.203

> <Color>
0.057

> <Negative vol penalty>
0.000

$$$$

  -OEChem-04052305303D

 84 92  0     1  0  0  0  0  0999 V2000
  -27.9631  -24.4444   17.1810 C   0  0  0  0  0  0  0  0  0  0  0  0
  -26.7687  -24.7488   17.8261 C   0  0  0  0  0  0  0  0  0  0  0  0
  -27.4114  -17.2536   21.6030 C   0  0  0  0  0  0  0  0  0  0  0  0
  -25.1985  -18.1427   21.2162 C   0  0  0  0  0  0  0  0  0  0  0  0
  -29.1724  -24.9005   17.7039 C   0  0  0  0  0  0  0  0  0  0  0  0
  -26.7831  -25.5087   18.9952 C   0  0  0  0  0  0  0  0  0  0  0  0
  -23.2274  -29.1145   19.0122 C   0  0  0  0  0  0  0  0  0  0  0  0
  -26.9675  -15.9855   21.2282 C   0  0  0  0  0  0  0  0  0  0  0  0
  -24.7545  -16.8746   20.8413 C   0  0  0  0  0  0  0  0  0  0  0  0
  -21.9206  -28.7188   19.2940 C   0  0  0  0  0  0  0  0  0  0  0  0
  -22.9487  -13.8022   20.1277 C   0  0  0  0  0  0  0  0  0  0  0  0
  -21.7281  -13.3645   20.6416 C   0  0  0  0  0  0  0  0  0  0  0  0
  -22.1847  -29.4859   21.5658 C   0  0  0  0  0  0  0  0  0  0  0  0
  -22.5992  -13.5698   22.8857 C   0  0  0  0  0  0  0  0  0  0  0  0
  -26.5269  -18.3322   21.5970 C   0  0  0  0  0  0  0  0  0  0  0  0
  -27.5295  -20.6345   21.1478 C   0  0  0  0  0  0  0  0  0  0  0  0
  -29.2008  -25.6745   18.8747 C   0  0  0  0  0  0  0  0  0  0  0  0
  -24.0277  -29.6899   20.0097 C   0  0  0  0  0  0  0  0  0  0  0  0
  -27.9940  -25.9745   19.5350 C   0  0  0  0  0  0  0  0  0  0  0  0
  -23.5005  -29.8904   21.2934 C   0  0  0  0  0  0  0  0  0  0  0  0
  -25.6391  -15.7960   20.8473 C   0  0  0  0  0  0  0  0  0  0  0  0
  -21.4000  -28.9018   20.5718 C   0  0  0  0  0  0  0  0  0  0  0  0
  -23.9946  -14.1236   20.9929 C   0  0  0  0  0  0  0  0  0  0  0  0
  -21.5533  -13.2483   22.0206 C   0  0  0  0  0  0  0  0  0  0  0  0
  -23.8198  -14.0075   22.3719 C   0  0  0  0  0  0  0  0  0  0  0  0
  -26.9847  -19.6422   21.9847 C   0  0  0  0  0  0  0  0  0  0  0  0
  -27.8025  -21.6834   21.9914 C   0  0  0  0  0  0  0  0  0  0  0  0
  -23.2759  -24.3709   26.7068 C   0  0  0  0  0  0  0  0  0  0  0  0
  -22.0883  -25.7779   27.6902 C   0  0  0  0  0  0  0  0  0  0  0  0
  -27.7673  -20.6103   19.7341 C   0  0  0  0  0  0  0  0  0  0  0  0
  -26.7602  -28.8983   21.4275 C   0  0  0  0  0  0  0  0  0  0  0  0
  -26.4376  -31.8160   22.8078 C   0  0  0  0  0  0  0  0  0  0  0  0
  -24.3686  -34.3563   23.7632 C   0  0  0  0  0  0  0  0  0  0  0  0
  -25.5327  -23.3912   27.2485 C   0  0  0  0  0  0  0  0  0  0  0  0
  -30.5361  -26.1051   19.4280 C   0  0  0  0  0  0  0  0  0  0  0  0
  -25.4264  -30.1359   19.6825 C   0  0  0  0  0  0  0  0  0  0  0  0
  -24.3116  -30.5221   22.3941 C   0  0  0  0  0  0  0  0  0  0  0  0
  -30.4346  -27.2209   20.4649 C   0  0  0  0  0  0  0  0  0  0  0  0
  -28.9387  -22.6269   26.5470 C   0  0  0  0  0  0  0  0  0  0  0  0
  -29.3354  -26.9114   21.4762 C   0  0  0  0  0  0  0  0  0  0  0  0
  -28.8743  -21.8704   25.2182 C   0  0  0  0  0  0  0  0  0  0  0  0
  -27.7520  -22.2914   27.4487 C   0  0  0  0  0  0  0  0  0  0  0  0
  -26.3681  -21.7024   25.4976 C   0  0  0  0  0  0  0  0  0  0  0  0
  -27.9665  -26.8171   20.7917 C   0  0  1  0  0  0  0  0  0  0  0  0
  -26.3233  -30.2404   20.9121 C   0  0  1  0  0  0  0  0  0  0  0  0
  -27.5083  -22.0571   24.5291 C   0  0  2  0  0  0  0  0  0  0  0  0
  -24.3906  -36.5924   24.9021 C   0  0  0  0  0  0  0  0  0  0  0  0
  -18.0537  -27.8776   25.3069 C   0  0  0  0  0  0  0  0  0  0  0  0
  -19.3069  -26.2972   21.2621 C   0  0  0  0  0  0  0  0  0  0  0  0
  -26.7518  -30.4340   25.5099 C   0  0  0  0  0  0  0  0  0  0  0  0
  -25.8330  -32.4957   26.5929 C   0  0  0  0  0  0  0  0  0  0  0  0
  -27.9657  -32.6108   25.3041 C   0  0  0  0  0  0  0  0  0  0  0  0
  -23.3162  -35.7217   21.3576 C   0  0  0  0  0  0  0  0  0  0  0  0
  -20.2217  -26.7292   24.8030 C   0  0  0  0  0  0  0  0  0  0  0  0
  -19.0741  -28.1211   22.9874 C   0  0  0  0  0  0  0  0  0  0  0  0
  -20.1296  -25.7731   26.0010 C   0  0  0  0  0  0  0  0  0  0  0  0
  -25.7803  -32.3384   24.0624 C   0  0  1  0  0  0  0  0  0  0  0  0
  -24.4639  -35.8592   23.5717 C   0  0  2  0  0  0  0  0  0  0  0  0
  -18.8710  -27.1908   24.2052 C   0  0  2  0  0  0  0  0  0  0  0  0
  -19.9514  -27.5361   21.8726 C   0  0  2  0  0  0  0  0  0  1  0  0
  -26.5678  -31.9560   25.3473 C   0  0  0  0  0  0  0  0  0  0  0  0
  -26.9152  -20.0263   23.2621 N   0  0  0  0  0  0  0  0  0  0  0  0
  -23.2443  -25.1683   27.8148 N   0  0  0  0  0  0  0  0  0  0  0  0
  -22.2122  -24.4488   25.9043 N   0  0  0  0  0  0  0  0  0  0  0  0
  -27.4199  -21.2715   23.2341 N   0  0  0  0  0  0  0  0  0  0  0  0
  -21.4680  -25.3553   26.5560 N   0  0  0  0  0  0  0  0  0  0  0  0
  -25.6759  -30.9356   22.0265 N   0  0  0  0  0  0  0  0  0  0  0  0
  -26.4923  -22.4959   26.7304 N   0  0  0  0  0  0  0  0  0  0  0  0
  -28.3302  -22.9085   21.7842 N   0  0  0  0  0  0  0  0  0  0  0  0
  -21.5010  -26.6960   28.4900 N   0  0  0  0  0  0  0  0  0  0  0  0
  -27.4283  -19.4534   19.0192 N   0  0  0  0  0  0  0  0  0  0  0  0
  -24.3889  -23.5286   26.4627 N   0  0  0  0  0  0  0  0  0  0  0  0
  -27.4532  -28.1393   20.5039 N   0  0  0  0  0  0  0  0  0  0  0  0
  -25.6144  -33.7748   23.8686 N   0  0  0  0  0  0  0  0  0  0  0  0
  -23.3509  -36.3428   22.7067 N   0  3  0  0  0  0  0  0  0  0  0  0
  -28.2810  -21.5795   19.1256 O   0  0  0  0  0  0  0  0  0  0  0  0
  -26.4900  -28.5759   22.5785 O   0  0  0  0  0  0  0  0  0  0  0  0
  -27.5820  -32.1814   22.5276 O   0  0  0  0  0  0  0  0  0  0  0  0
  -23.2961  -33.7585   23.8179 O   0  0  0  0  0  0  0  0  0  0  0  0
  -25.7242  -24.0123   28.2970 O   0  0  0  0  0  0  0  0  0  0  0  0
  -25.2056  -14.5588   20.4812 O   0  0  0  0  0  0  0  0  0  0  0  0
  -20.1250  -28.5159   20.8497 O   0  0  0  0  0  0  0  0  0  1  0  0
  -20.3805  -12.8294   22.5139 F   0  0  0  0  0  0  0  0  0  0  0  0
  -24.8206  -14.3159   23.2080 F   0  0  0  0  0  0  0  0  0  0  0  0
  1  2  1  0  0  0  0
  1  5  2  0  0  0  0
  2  6  2  0  0  0  0
  3  8  2  0  0  0  0
  3 15  1  0  0  0  0
  4  9  1  0  0  0  0
  4 15  2  0  0  0  0
  5 17  1  0  0  0  0
  6 19  1  0  0  0  0
  7 10  2  0  0  0  0
  7 18  1  0  0  0  0
  8 21  1  0  0  0  0
  9 21  2  0  0  0  0
 10 22  1  0  0  0  0
 11 12  2  0  0  0  0
 11 23  1  0  0  0  0
 12 24  1  0  0  0  0
 13 20  1  0  0  0  0
 13 22  2  0  0  0  0
 14 24  2  0  0  0  0
 14 25  1  0  0  0  0
 15 26  1  0  0  0  0
 16 26  1  0  0  0  0
 16 27  2  0  0  0  0
 16 30  1  0  0  0  0
 17 19  2  0  0  0  0
 17 35  1  0  0  0  0
 18 20  2  0  0  0  0
 18 36  1  0  0  0  0
 19 44  1  0  0  0  0
 20 37  1  0  0  0  0
 21 81  1  0  0  0  0
 22 82  1  0  0  0  0
 23 25  2  0  0  0  0
 23 81  1  0  0  0  0
 24 83  1  0  0  0  0
 25 84  1  0  0  0  0
 26 62  2  0  0  0  0
 27 65  1  0  0  0  0
 27 69  1  0  0  0  0
 28 63  1  0  0  0  0
 28 64  2  0  0  0  0
 28 72  1  0  0  0  0
 29 63  2  0  0  0  0
 29 66  1  0  0  0  0
 29 70  1  0  0  0  0
 30 71  1  0  0  0  0
 30 76  2  0  0  0  0
 31 45  1  0  0  0  0
 31 73  1  0  0  0  0
 31 77  2  0  0  0  0
 32 57  1  0  0  0  0
 32 67  1  0  0  0  0
 32 78  2  0  0  0  0
 33 58  1  0  0  0  0
 33 74  1  0  0  0  0
 33 79  2  0  0  0  0
 34 68  1  0  0  0  0
 34 72  1  0  0  0  0
 34 80  2  0  0  0  0
 35 38  1  0  0  0  0
 36 45  1  0  0  0  0
 37 67  1  0  0  0  0
 38 40  1  0  0  0  0
 39 41  1  0  0  0  0
 39 42  1  0  0  0  0
 40 44  1  0  0  0  0
 41 46  1  0  0  0  0
 42 68  1  0  0  0  0
 43 46  1  0  0  0  0
 43 68  1  0  0  0  0
 44 73  1  0  0  0  0
 45 67  1  0  0  0  0
 46 65  1  0  0  0  0
 47 58  1  0  0  0  0
 48 59  1  0  0  0  0
 49 60  1  0  0  0  0
 50 61  1  0  0  0  0
 51 61  1  0  0  0  0
 52 61  1  0  0  0  0
 53 75  1  0  0  0  0
 54 56  1  0  0  0  0
 54 59  1  0  0  0  0
 55 59  1  0  0  0  0
 55 60  1  0  0  0  0
 56 66  1  0  0  0  0
 57 61  1  0  0  0  0
 57 74  1  0  0  0  0
 58 75  1  0  0  0  0
 60 82  1  0  0  0  0
 62 65  1  0  0  0  0
 64 66  1  0  0  0  0
M  CHG  1  75   1
M  ISO  4  34 100  60 101  72 100  82 101
M  END
> <Batch ID>
0193

> <Smiles>
CNC(C)C(=O)NC(C(=O)N1Cc2cc([101O:1][101CH:1](C)CC(C)CCn3nc([100NH:0][100C:0](=O)N4CCCC(n5nc(-c6ccc(Oc7ccc(F)cc7F)cc6)c(C(N)=O)c5N)C4)nc3N)ccc2CC1C(=O)NC1CCCc2ccccc21)C(C)(C)C

> <Shape>
0.279

> <Color>
0.061

> <Negative vol penalty>
0.000

$$$$

  -OEChem-04052305303D

 86 94  0     1  0  0  0  0  0999 V2000
  -17.2319  -16.3043   25.6853 C   0  0  0  0  0  0  0  0  0  0  0  0
  -18.5715  -16.5673   25.9535 C   0  0  0  0  0  0  0  0  0  0  0  0
  -23.2850   -9.7989   19.9114 C   0  0  0  0  0  0  0  0  0  0  0  0
  -23.7255   -9.9410   22.2827 C   0  0  0  0  0  0  0  0  0  0  0  0
  -16.4827  -15.5333   26.5731 C   0  0  0  0  0  0  0  0  0  0  0  0
  -19.1623  -16.0602   27.1103 C   0  0  0  0  0  0  0  0  0  0  0  0
  -23.7289  -14.0521   26.2396 C   0  0  0  0  0  0  0  0  0  0  0  0
  -22.5547   -8.6286   20.1172 C   0  0  0  0  0  0  0  0  0  0  0  0
  -22.9951   -8.7706   22.4885 C   0  0  0  0  0  0  0  0  0  0  0  0
  -24.7959  -14.9371   26.0912 C   0  0  0  0  0  0  0  0  0  0  0  0
  -20.8761   -5.4059   19.9751 C   0  0  0  0  0  0  0  0  0  0  0  0
  -21.1020   -4.3376   19.1072 C   0  0  0  0  0  0  0  0  0  0  0  0
  -25.4545  -14.5162   28.3734 C   0  0  0  0  0  0  0  0  0  0  0  0
  -23.4219   -4.2820   19.7797 C   0  0  0  0  0  0  0  0  0  0  0  0
  -31.7027  -11.7257   25.9823 C   0  0  0  0  0  0  0  0  0  0  0  0
  -23.8705  -10.4552   20.9942 C   0  0  0  0  0  0  0  0  0  0  0  0
  -24.1374  -12.9843   20.7940 C   0  0  0  0  0  0  0  0  0  0  0  0
  -17.0672  -15.0086   27.7365 C   0  0  0  0  0  0  0  0  0  0  0  0
  -23.5100  -13.3997   27.4614 C   0  0  0  0  0  0  0  0  0  0  0  0
  -18.4198  -15.2826   28.0152 C   0  0  0  0  0  0  0  0  0  0  0  0
  -24.3856  -13.6214   28.5339 C   0  0  0  0  0  0  0  0  0  0  0  0
  -22.4097   -8.1144   21.4057 C   0  0  0  0  0  0  0  0  0  0  0  0
  -25.6572  -15.1715   27.1591 C   0  0  0  0  0  0  0  0  0  0  0  0
  -21.9230   -5.9123   20.7452 C   0  0  0  0  0  0  0  0  0  0  0  0
  -22.3749   -3.7756   19.0095 C   0  0  0  0  0  0  0  0  0  0  0  0
  -23.1959   -5.3504   20.6475 C   0  0  0  0  0  0  0  0  0  0  0  0
  -24.6256  -11.6639   20.7822 C   0  0  0  0  0  0  0  0  0  0  0  0
  -31.6402  -12.8583   25.1978 C   0  0  0  0  0  0  0  0  0  0  0  0
  -25.2421  -13.7610   20.5431 C   0  0  0  0  0  0  0  0  0  0  0  0
  -31.0494  -13.7503   27.1123 C   0  0  0  0  0  0  0  0  0  0  0  0
  -22.8046  -13.4656   21.0122 C   0  0  0  0  0  0  0  0  0  0  0  0
  -21.1553  -13.3670   29.5964 C   0  0  0  0  0  0  0  0  0  0  0  0
  -31.1105  -12.7843   21.3909 C   0  0  0  0  0  0  0  0  0  0  0  0
  -22.9534  -11.0401   30.9657 C   0  0  0  0  0  0  0  0  0  0  0  0
  -26.0303   -9.6239   31.3820 C   0  0  0  0  0  0  0  0  0  0  0  0
  -16.2048  -14.2202   28.6901 C   0  0  0  0  0  0  0  0  0  0  0  0
  -22.3702  -12.4276   27.5970 C   0  0  0  0  0  0  0  0  0  0  0  0
  -24.2060  -12.9306   29.8602 C   0  0  0  0  0  0  0  0  0  0  0  0
  -17.0046  -13.4072   29.7047 C   0  0  0  0  0  0  0  0  0  0  0  0
  -29.4729  -13.6635   18.3275 C   0  0  0  0  0  0  0  0  0  0  0  0
  -18.1114  -14.2591   30.3180 C   0  0  0  0  0  0  0  0  0  0  0  0
  -28.0039  -13.3436   18.6010 C   0  0  0  0  0  0  0  0  0  0  0  0
  -30.3994  -12.6728   19.0253 C   0  0  0  0  0  0  0  0  0  0  0  0
  -28.7030  -12.2415   20.7740 C   0  0  0  0  0  0  0  0  0  0  0  0
  -19.1030  -14.7296   29.2471 C   0  0  1  0  0  0  0  0  0  0  0  0
  -21.9393  -12.2102   29.0443 C   0  0  1  0  0  0  0  0  0  0  0  0
  -27.7336  -13.2369   20.1123 C   0  0  2  0  0  0  0  0  0  0  0  0
  -27.1921   -7.7562   32.5901 C   0  0  0  0  0  0  0  0  0  0  0  0
  -33.0617  -17.2490   28.9531 C   0  0  0  0  0  0  0  0  0  0  0  0
  -31.7982  -17.6437   31.0750 C   0  0  0  0  0  0  0  0  0  0  0  0
  -22.8266  -12.6422   33.5594 C   0  0  0  0  0  0  0  0  0  0  0  0
  -24.7335  -11.2673   34.4203 C   0  0  0  0  0  0  0  0  0  0  0  0
  -22.5676  -10.1713   33.8458 C   0  0  0  0  0  0  0  0  0  0  0  0
  -26.8774   -8.3550   28.8460 C   0  0  0  0  0  0  0  0  0  0  0  0
  -31.9390  -12.9243   23.7534 C   0  0  0  0  0  0  0  0  0  0  0  0
  -30.7205  -12.6801   22.8439 C   0  0  0  0  0  0  0  0  0  0  0  0
  -30.5261  -16.9264   29.0284 C   0  0  0  0  0  0  0  0  0  0  0  0
  -27.8661  -15.7793   27.7974 C   0  0  0  0  0  0  0  0  0  1  0  0
  -24.0637  -11.0094   31.9881 C   0  0  1  0  0  0  0  0  0  0  0  0
  -26.4930   -8.1799   31.3078 C   0  0  2  0  0  0  0  0  0  0  0  0
  -31.8627  -16.8071   29.7935 C   0  0  0  0  0  0  0  0  0  0  0  0
  -30.4392  -16.0863   27.7420 C   0  0  2  0  0  0  0  0  0  0  0  0
  -29.0893  -16.2622   27.0188 C   0  0  1  0  0  0  0  0  0  0  0  0
  -23.5504  -11.2872   33.4291 C   0  0  0  0  0  0  0  0  0  0  0  0
  -25.9381  -11.6015   20.5426 N   0  0  0  0  0  0  0  0  0  0  0  0
  -31.2654  -14.0201   25.8439 N   0  0  0  0  0  0  0  0  0  0  0  0
  -26.2841  -12.8925   20.4015 N   0  0  0  0  0  0  0  0  0  0  0  0
  -23.0732  -11.9940   29.9452 N   0  0  0  0  0  0  0  0  0  0  0  0
  -30.0960  -12.5835   20.4547 N   0  0  0  0  0  0  0  0  0  0  0  0
  -25.4140  -15.0953   20.4319 N   0  0  0  0  0  0  0  0  0  0  0  0
  -21.7885  -12.5316   21.2562 N   0  0  0  0  0  0  0  0  0  0  0  0
  -30.6576  -14.6853   28.0510 N   0  0  0  0  0  0  0  0  0  0  0  0
  -20.0052  -13.6567   28.8874 N   0  0  0  0  0  0  0  0  0  0  0  0
  -24.7295   -9.7210   31.8289 N   0  0  0  0  0  0  0  0  0  0  0  0
  -27.4417   -7.9977   30.1730 N   0  3  0  0  0  0  0  0  0  0  0  0
  -22.5201  -14.6867   20.9753 O   0  0  0  0  0  0  0  0  0  0  0  0
  -21.5629  -13.9524   30.5929 O   0  0  0  0  0  0  0  0  0  0  0  0
  -32.2818  -13.0394   21.0988 O   0  0  0  0  0  0  0  0  0  0  0  0
  -22.0179  -10.2422   31.0648 O   0  0  0  0  0  0  0  0  0  0  0  0
  -26.7520  -10.5710   31.0778 O   0  0  0  0  0  0  0  0  0  0  0  0
  -29.1568  -15.5429   25.7819 O   0  0  0  0  0  0  0  0  0  0  0  0
  -21.6969   -6.9725   21.6069 O   0  0  0  0  0  0  0  0  0  0  0  0
  -26.6991  -16.0354   27.0171 O   0  0  0  0  0  0  0  0  0  1  0  0
  -22.5914   -2.7487   18.1772 F   0  0  0  0  0  0  0  0  0  0  0  0
  -24.2054   -5.8318   21.3857 F   0  0  0  0  0  0  0  0  0  0  0  0
  -31.2787  -12.1200   27.5967 S   0  0  0  0  0  0  0  0  0  0  0  0
  1  2  1  0  0  0  0
  1  5  2  0  0  0  0
  2  6  2  0  0  0  0
  3  8  2  0  0  0  0
  3 16  1  0  0  0  0
  4  9  1  0  0  0  0
  4 16  2  0  0  0  0
  5 18  1  0  0  0  0
  6 20  1  0  0  0  0
  7 10  2  0  0  0  0
  7 19  1  0  0  0  0
  8 22  1  0  0  0  0
  9 22  2  0  0  0  0
 10 23  1  0  0  0  0
 11 12  2  0  0  0  0
 11 24  1  0  0  0  0
 12 25  1  0  0  0  0
 13 21  1  0  0  0  0
 13 23  2  0  0  0  0
 14 25  2  0  0  0  0
 14 26  1  0  0  0  0
 15 28  2  0  0  0  0
 15 86  1  0  0  0  0
 16 27  1  0  0  0  0
 17 27  1  0  0  0  0
 17 29  2  0  0  0  0
 17 31  1  0  0  0  0
 18 20  2  0  0  0  0
 18 36  1  0  0  0  0
 19 21  2  0  0  0  0
 19 37  1  0  0  0  0
 20 45  1  0  0  0  0
 21 38  1  0  0  0  0
 22 82  1  0  0  0  0
 23 83  1  0  0  0  0
 24 26  2  0  0  0  0
 24 82  1  0  0  0  0
 25 84  1  0  0  0  0
 26 85  1  0  0  0  0
 27 65  2  0  0  0  0
 28 55  1  0  0  0  0
 28 66  1  0  0  0  0
 29 67  1  0  0  0  0
 29 70  1  0  0  0  0
 30 66  2  0  0  0  0
 30 72  1  0  0  0  0
 30 86  1  0  0  0  0
 31 71  1  0  0  0  0
 31 76  2  0  0  0  0
 32 46  1  0  0  0  0
 32 73  1  0  0  0  0
 32 77  2  0  0  0  0
 33 56  1  0  0  0  0
 33 69  1  0  0  0  0
 33 78  2  0  0  0  0
 34 59  1  0  0  0  0
 34 68  1  0  0  0  0
 34 79  2  0  0  0  0
 35 60  1  0  0  0  0
 35 74  1  0  0  0  0
 35 80  2  0  0  0  0
 36 39  1  0  0  0  0
 37 46  1  0  0  0  0
 38 68  1  0  0  0  0
 39 41  1  0  0  0  0
 40 42  1  0  0  0  0
 40 43  1  0  0  0  0
 41 45  1  0  0  0  0
 42 47  1  0  0  0  0
 43 69  1  0  0  0  0
 44 47  1  0  0  0  0
 44 69  1  0  0  0  0
 45 73  1  0  0  0  0
 46 68  1  0  0  0  0
 47 67  1  0  0  0  0
 48 60  1  0  0  0  0
 49 61  1  0  0  0  0
 50 61  1  0  0  0  0
 51 64  1  0  0  0  0
 52 64  1  0  0  0  0
 53 64  1  0  0  0  0
 54 75  1  0  0  0  0
 55 56  1  0  0  0  0
 57 61  1  0  0  0  0
 57 62  1  0  0  0  0
 58 63  1  0  0  0  0
 58 83  1  0  0  0  0
 59 64  1  0  0  0  0
 59 74  1  0  0  0  0
 60 75  1  0  0  0  0
 62 63  1  0  0  0  0
 62 72  1  0  0  0  0
 63 81  1  0  0  0  0
 65 67  1  0  0  0  0
M  CHG  1  75   1
M  ISO  4  33 100  56 100  58 101  83 101
M  END
> <Batch ID>
0193

> <Smiles>
CNC(C)C(=O)NC(C(=O)N1Cc2cc([101O:1][101CH2:1]C(O)C(CC(C)C)Nc3nc(C[100CH2:0][100C:0](=O)N4CCCC(n5nc(-c6ccc(Oc7ccc(F)cc7F)cc6)c(C(N)=O)c5N)C4)cs3)ccc2CC1C(=O)NC1CCCc2ccccc21)C(C)(C)C

> <Shape>
0.119

> <Color>
0.167

> <Negative vol penalty>
0.000

$$$$

  -OEChem-04052305303D

 84 92  0     1  0  0  0  0  0999 V2000
  -16.7136  -24.9384   24.5680 C   0  0  0  0  0  0  0  0  0  0  0  0
  -17.3322  -24.0583   23.6859 C   0  0  0  0  0  0  0  0  0  0  0  0
  -25.7743  -13.5609   22.0261 C   0  0  0  0  0  0  0  0  0  0  0  0
  -26.2294  -14.0100   19.6963 C   0  0  0  0  0  0  0  0  0  0  0  0
  -17.0541  -26.2903   24.5555 C   0  0  0  0  0  0  0  0  0  0  0  0
  -18.2909  -24.5299   22.7899 C   0  0  0  0  0  0  0  0  0  0  0  0
  -23.2810  -21.5637   20.8389 C   0  0  0  0  0  0  0  0  0  0  0  0
  -24.6760  -12.7821   21.6615 C   0  0  0  0  0  0  0  0  0  0  0  0
  -25.1312  -13.2312   19.3316 C   0  0  0  0  0  0  0  0  0  0  0  0
  -23.5488  -20.8421   19.6764 C   0  0  0  0  0  0  0  0  0  0  0  0
  -24.1155   -9.6618   20.4858 C   0  0  0  0  0  0  0  0  0  0  0  0
  -23.9544   -8.4305   21.1210 C   0  0  0  0  0  0  0  0  0  0  0  0
  -24.5546  -22.8041   18.6975 C   0  0  0  0  0  0  0  0  0  0  0  0
  -21.8065   -9.1464   21.9642 C   0  0  0  0  0  0  0  0  0  0  0  0
  -30.1250  -23.2691   16.4000 C   0  0  0  0  0  0  0  0  0  0  0  0
  -30.0147  -23.8558   17.6414 C   0  0  0  0  0  0  0  0  0  0  0  0
  -26.5509  -14.1749   21.0435 C   0  0  0  0  0  0  0  0  0  0  0  0
  -29.0134  -14.5480   21.5956 C   0  0  0  0  0  0  0  0  0  0  0  0
  -18.0245  -26.7771   23.6656 C   0  0  0  0  0  0  0  0  0  0  0  0
  -23.6389  -22.9161   20.9355 C   0  0  0  0  0  0  0  0  0  0  0  0
  -18.6438  -25.8899   22.7646 C   0  0  0  0  0  0  0  0  0  0  0  0
  -24.2926  -23.5399   19.8633 C   0  0  0  0  0  0  0  0  0  0  0  0
  -24.3545  -12.6172   20.3142 C   0  0  0  0  0  0  0  0  0  0  0  0
  -24.1830  -21.4631   18.6043 C   0  0  0  0  0  0  0  0  0  0  0  0
  -23.1221  -10.6355   20.5899 C   0  0  0  0  0  0  0  0  0  0  0  0
  -22.7999   -8.1727   21.8602 C   0  0  0  0  0  0  0  0  0  0  0  0
  -21.9676  -10.3778   21.3290 C   0  0  0  0  0  0  0  0  0  0  0  0
  -27.6852  -14.9800   21.4196 C   0  0  0  0  0  0  0  0  0  0  0  0
  -29.4509  -21.2709   17.2843 C   0  0  0  0  0  0  0  0  0  0  0  0
  -29.3413  -21.8573   18.5259 C   0  0  0  0  0  0  0  0  0  0  0  0
  -29.7002  -15.6840   21.9479 C   0  0  0  0  0  0  0  0  0  0  0  0
  -29.5761  -13.2369   21.4533 C   0  0  0  0  0  0  0  0  0  0  0  0
  -22.0431  -25.6354   21.3387 C   0  0  0  0  0  0  0  0  0  0  0  0
  -26.1970  -19.9588   16.0004 C   0  0  0  0  0  0  0  0  0  0  0  0
  -25.0232  -26.9013   21.5353 C   0  0  0  0  0  0  0  0  0  0  0  0
  -28.3383  -26.6400   20.7682 C   0  0  0  0  0  0  0  0  0  0  0  0
  -28.7562  -21.4994   20.9500 C   0  0  0  0  0  0  0  0  0  0  0  0
  -18.3252  -28.2549   23.6567 C   0  0  0  0  0  0  0  0  0  0  0  0
  -23.3671  -23.6733   22.2064 C   0  0  0  0  0  0  0  0  0  0  0  0
  -24.7155  -24.9842   19.9243 C   0  0  0  0  0  0  0  0  0  0  0  0
  -19.6218  -28.6084   22.9326 C   0  0  0  0  0  0  0  0  0  0  0  0
  -29.0873  -19.9088   24.1182 C   0  0  0  0  0  0  0  0  0  0  0  0
  -19.7020  -27.8794   21.5951 C   0  0  0  0  0  0  0  0  0  0  0  0
  -28.8922  -18.4244   23.8008 C   0  0  0  0  0  0  0  0  0  0  0  0
  -28.1833  -20.7951   23.2632 C   0  0  0  0  0  0  0  0  0  0  0  0
  -28.0806  -19.0790   21.4986 C   0  0  0  0  0  0  0  0  0  0  0  0
  -19.7066  -26.3590   21.7948 C   0  0  1  0  0  0  0  0  0  0  0  0
  -23.3135  -25.1841   22.0020 C   0  0  1  0  0  0  0  0  0  0  0  0
  -29.0167  -18.1503   22.2892 C   0  0  2  0  0  0  0  0  0  0  0  0
  -30.7817  -27.2121   20.7737 C   0  0  0  0  0  0  0  0  0  0  0  0
  -24.1966  -28.8668   19.3527 C   0  0  0  0  0  0  0  0  0  0  0  0
  -26.6204  -29.3831   18.9968 C   0  0  0  0  0  0  0  0  0  0  0  0
  -25.5539  -29.8684   21.1990 C   0  0  0  0  0  0  0  0  0  0  0  0
  -28.8312  -25.0187   23.1946 C   0  0  0  0  0  0  0  0  0  0  0  0
  -27.4385  -20.2450   15.1714 C   0  0  0  0  0  0  0  0  0  0  0  0
  -25.5917  -21.1513   16.7137 C   0  0  0  0  0  0  0  0  0  1  0  0
  -28.6780  -19.4713   15.6298 C   0  0  0  0  0  0  0  0  0  0  0  0
  -29.1360  -19.8077   17.0628 C   0  0  1  0  0  0  0  0  0  0  0  0
  -26.0109  -27.4693   20.5450 C   0  0  1  0  0  0  0  0  0  0  0  0
  -29.5850  -26.8040   21.6187 C   0  0  2  0  0  0  0  0  0  0  0  0
  -25.5859  -28.8702   20.0212 C   0  0  0  0  0  0  0  0  0  0  0  0
  -29.8451  -21.9661   16.1991 N   0  0  0  0  0  0  0  0  0  0  0  0
  -29.6209  -23.1604   18.7267 N   0  0  0  0  0  0  0  0  0  0  0  0
  -27.5348  -16.2884   21.6420 N   0  0  0  0  0  0  0  0  0  0  0  0
  -28.7774  -16.6883   21.9614 N   0  0  0  0  0  0  0  0  0  0  0  0
  -24.4220  -25.6837   21.1860 N   0  0  0  0  0  0  0  0  0  0  0  0
  -28.3583  -20.4822   21.8432 N   0  0  0  0  0  0  0  0  0  0  0  0
  -30.9973  -15.9119   22.2446 N   0  0  0  0  0  0  0  0  0  0  0  0
  -28.7291  -12.1827   21.0853 N   0  0  0  0  0  0  0  0  0  0  0  0
  -28.9220  -21.0765   19.6315 N   0  0  0  0  0  0  0  0  0  0  0  0
  -21.0147  -25.9091   22.2201 N   0  0  0  0  0  0  0  0  0  0  0  0
  -27.3108  -27.4480   21.2070 N   0  0  0  0  0  0  0  0  0  0  0  0
  -30.3120  -18.9308   17.3778 N   0  3  0  0  0  0  0  0  0  0  0  0
  -29.9122  -25.5250   22.3102 N   0  3  0  0  0  0  0  0  0  0  0  0
  -30.7908  -13.0041   21.6626 O   0  0  0  0  0  0  0  0  0  0  0  0
  -21.9995  -25.7298   20.1177 O   0  0  0  0  0  0  0  0  0  0  0  0
  -25.6878  -18.8408   16.0611 O   0  0  0  0  0  0  0  0  0  0  0  0
  -24.7988  -27.5117   22.5835 O   0  0  0  0  0  0  0  0  0  0  0  0
  -28.2829  -25.8747   19.8082 O   0  0  0  0  0  0  0  0  0  0  0  0
  -28.9630  -22.6541   21.3319 O   0  0  0  0  0  0  0  0  0  0  0  0
  -23.2831  -11.8571   19.9580 O   0  0  0  0  0  0  0  0  0  0  0  0
  -24.4449  -20.7613   17.4682 O   0  0  0  0  0  0  0  0  0  1  0  0
  -22.6447   -6.9897   22.4688 F   0  0  0  0  0  0  0  0  0  0  0  0
  -21.0092  -11.3088   21.4316 F   0  0  0  0  0  0  0  0  0  0  0  0
  1  2  1  0  0  0  0
  1  5  2  0  0  0  0
  2  6  2  0  0  0  0
  3  8  2  0  0  0  0
  3 17  1  0  0  0  0
  4  9  1  0  0  0  0
  4 17  2  0  0  0  0
  5 19  1  0  0  0  0
  6 21  1  0  0  0  0
  7 10  2  0  0  0  0
  7 20  1  0  0  0  0
  8 23  1  0  0  0  0
  9 23  2  0  0  0  0
 10 24  1  0  0  0  0
 11 12  2  0  0  0  0
 11 25  1  0  0  0  0
 12 26  1  0  0  0  0
 13 22  1  0  0  0  0
 13 24  2  0  0  0  0
 14 26  2  0  0  0  0
 14 27  1  0  0  0  0
 15 16  1  0  0  0  0
 15 62  2  0  0  0  0
 16 63  2  0  0  0  0
 17 28  1  0  0  0  0
 18 28  1  0  0  0  0
 18 31  2  0  0  0  0
 18 32  1  0  0  0  0
 19 21  2  0  0  0  0
 19 38  1  0  0  0  0
 20 22  2  0  0  0  0
 20 39  1  0  0  0  0
 21 47  1  0  0  0  0
 22 40  1  0  0  0  0
 23 81  1  0  0  0  0
 24 82  1  0  0  0  0
 25 27  2  0  0  0  0
 25 81  1  0  0  0  0
 26 83  1  0  0  0  0
 27 84  1  0  0  0  0
 28 64  2  0  0  0  0
 29 30  2  0  0  0  0
 29 58  1  0  0  0  0
 29 62  1  0  0  0  0
 30 63  1  0  0  0  0
 30 70  1  0  0  0  0
 31 65  1  0  0  0  0
 31 68  1  0  0  0  0
 32 69  1  0  0  0  0
 32 75  2  0  0  0  0
 33 48  1  0  0  0  0
 33 71  1  0  0  0  0
 33 76  2  0  0  0  0
 34 55  1  0  0  0  0
 34 56  1  0  0  0  0
 34 77  2  0  0  0  0
 35 59  1  0  0  0  0
 35 66  1  0  0  0  0
 35 78  2  0  0  0  0
 36 60  1  0  0  0  0
 36 72  1  0  0  0  0
 36 79  2  0  0  0  0
 37 67  1  0  0  0  0
 37 70  1  0  0  0  0
 37 80  2  0  0  0  0
 38 41  1  0  0  0  0
 39 48  1  0  0  0  0
 40 66  1  0  0  0  0
 41 43  1  0  0  0  0
 42 44  1  0  0  0  0
 42 45  1  0  0  0  0
 43 47  1  0  0  0  0
 44 49  1  0  0  0  0
 45 67  1  0  0  0  0
 46 49  1  0  0  0  0
 46 67  1  0  0  0  0
 47 71  1  0  0  0  0
 48 66  1  0  0  0  0
 49 65  1  0  0  0  0
 50 60  1  0  0  0  0
 51 61  1  0  0  0  0
 52 61  1  0  0  0  0
 53 61  1  0  0  0  0
 54 74  1  0  0  0  0
 55 57  1  0  0  0  0
 56 82  1  0  0  0  0
 57 58  1  0  0  0  0
 58 73  1  0  0  0  0
 59 61  1  0  0  0  0
 59 72  1  0  0  0  0
 60 74  1  0  0  0  0
 64 65  1  0  0  0  0
M  CHG  2  73   1  74   1
M  ISO  4  37 100  56 101  70 100  82 101
M  END
> <Batch ID>
0193

> <Smiles>
CNC(C)C(=O)NC(C(=O)N1Cc2cc([101O:1][101CH2:1]C(=O)CCC(N)c3nccnc3[100NH:0][100C:0](=O)N3CCCC(n4nc(-c5ccc(Oc6ccc(F)cc6F)cc5)c(C(N)=O)c4N)C3)ccc2CC1C(=O)NC1CCCc2ccccc21)C(C)(C)C

> <Shape>
0.251

> <Color>
0.060

> <Negative vol penalty>
0.000

$$$$

  -OEChem-04052305303D

 81 89  0     1  0  0  0  0  0999 V2000
  -20.6233  -19.1452   17.3228 C   0  0  0  0  0  0  0  0  0  0  0  0
  -21.8203  -19.5019   17.9355 C   0  0  0  0  0  0  0  0  0  0  0  0
  -20.9365  -24.1485   20.9018 C   0  0  0  0  0  0  0  0  0  0  0  0
  -22.4152  -23.2145   22.5685 C   0  0  0  0  0  0  0  0  0  0  0  0
  -20.1571  -17.8345   17.4164 C   0  0  0  0  0  0  0  0  0  0  0  0
  -22.5513  -18.5482   18.6432 C   0  0  0  0  0  0  0  0  0  0  0  0
  -27.5038  -18.7312   17.6021 C   0  0  0  0  0  0  0  0  0  0  0  0
  -20.3635  -22.8919   20.7059 C   0  0  0  0  0  0  0  0  0  0  0  0
  -21.8422  -21.9579   22.3727 C   0  0  0  0  0  0  0  0  0  0  0  0
  -28.2457  -19.7419   18.2120 C   0  0  0  0  0  0  0  0  0  0  0  0
  -19.0319  -20.3305   23.3079 C   0  0  0  0  0  0  0  0  0  0  0  0
  -18.7098  -19.5832   24.4407 C   0  0  0  0  0  0  0  0  0  0  0  0
  -29.0274  -18.1646   19.8613 C   0  0  0  0  0  0  0  0  0  0  0  0
  -20.1997  -17.8285   23.7068 C   0  0  0  0  0  0  0  0  0  0  0  0
  -32.2253  -26.0141   21.1345 C   0  0  0  0  0  0  0  0  0  0  0  0
  -21.9624  -24.3097   21.8330 C   0  0  0  0  0  0  0  0  0  0  0  0
  -22.1465  -26.5950   22.9516 C   0  0  0  0  0  0  0  0  0  0  0  0
  -20.8875  -16.8621   18.1174 C   0  0  0  0  0  0  0  0  0  0  0  0
  -27.5095  -17.4299   18.1246 C   0  0  0  0  0  0  0  0  0  0  0  0
  -22.0937  -17.2237   18.7473 C   0  0  0  0  0  0  0  0  0  0  0  0
  -28.2867  -17.1386   19.2548 C   0  0  0  0  0  0  0  0  0  0  0  0
  -20.8163  -21.7966   21.4414 C   0  0  0  0  0  0  0  0  0  0  0  0
  -29.0054  -19.4593   19.3434 C   0  0  0  0  0  0  0  0  0  0  0  0
  -19.9379  -19.8269   22.3745 C   0  0  0  0  0  0  0  0  0  0  0  0
  -19.2937  -18.3322   24.6402 C   0  0  0  0  0  0  0  0  0  0  0  0
  -20.5218  -18.5759   22.5739 C   0  0  0  0  0  0  0  0  0  0  0  0
  -22.5551  -25.6074   22.0354 C   0  0  0  0  0  0  0  0  0  0  0  0
  -31.0139  -25.9011   21.7841 C   0  0  0  0  0  0  0  0  0  0  0  0
  -23.0256  -27.6316   22.7538 C   0  0  0  0  0  0  0  0  0  0  0  0
  -31.3889  -23.7723   21.4129 C   0  0  0  0  0  0  0  0  0  0  0  0
  -21.0688  -26.5770   23.8970 C   0  0  0  0  0  0  0  0  0  0  0  0
  -25.3029  -15.4900   19.3376 C   0  0  0  0  0  0  0  0  0  0  0  0
  -27.7439  -13.3537   19.3442 C   0  0  0  0  0  0  0  0  0  0  0  0
  -31.1115  -12.8026   19.3873 C   0  0  0  0  0  0  0  0  0  0  0  0
  -28.6145  -27.8873   20.6206 C   0  0  0  0  0  0  0  0  0  0  0  0
  -20.3196  -15.4695   18.2311 C   0  0  0  0  0  0  0  0  0  0  0  0
  -26.7250  -16.3448   17.4394 C   0  0  0  0  0  0  0  0  0  0  0  0
  -28.3429  -15.7532   19.8430 C   0  0  0  0  0  0  0  0  0  0  0  0
  -21.3419  -14.4298   18.6832 C   0  0  0  0  0  0  0  0  0  0  0  0
  -25.7664  -29.6240   19.3760 C   0  0  0  0  0  0  0  0  0  0  0  0
  -22.1404  -14.9492   19.8746 C   0  0  0  0  0  0  0  0  0  0  0  0
  -24.5836  -28.8806   19.9991 C   0  0  0  0  0  0  0  0  0  0  0  0
  -26.9026  -28.6713   19.0108 C   0  0  0  0  0  0  0  0  0  0  0  0
  -26.1838  -27.0659   20.7370 C   0  0  0  0  0  0  0  0  0  0  0  0
  -22.9275  -16.2117   19.5030 C   0  0  1  0  0  0  0  0  0  0  0  0
  -26.3979  -15.1723   18.3590 C   0  0  1  0  0  0  0  0  0  0  0  0
  -25.0356  -27.9918   21.1734 C   0  0  2  0  0  0  0  0  0  0  0  0
  -32.8042  -10.9504   19.4260 C   0  0  0  0  0  0  0  0  0  0  0  0
  -30.2516  -21.6444   23.4774 C   0  0  0  0  0  0  0  0  0  0  0  0
  -27.1604  -12.8855   22.3023 C   0  0  0  0  0  0  0  0  0  0  0  0
  -29.4070  -11.7987   22.5019 C   0  0  0  0  0  0  0  0  0  0  0  0
  -27.6759  -10.8136   21.0000 C   0  0  0  0  0  0  0  0  0  0  0  0
  -32.2787  -13.6587   16.8059 C   0  0  0  0  0  0  0  0  0  0  0  0
  -30.2109  -27.0218   22.3122 C   0  0  0  0  0  0  0  0  0  0  0  0
  -29.9335  -20.3372   21.3493 C   0  0  0  0  0  0  0  0  0  1  0  0
  -28.8215  -12.9647   20.3273 C   0  0  1  0  0  0  0  0  0  0  0  0
  -31.9944  -11.8942   18.5507 C   0  0  2  0  0  0  0  0  0  0  0  0
  -30.0718  -21.7270   21.9673 C   0  0  2  0  0  0  0  0  0  0  0  0
  -28.2638  -12.1423   21.5232 C   0  0  0  0  0  0  0  0  0  0  0  0
  -23.6114  -25.9829   21.3094 N   0  0  0  0  0  0  0  0  0  0  0  0
  -30.5325  -24.6164   21.9443 N   0  0  0  0  0  0  0  0  0  0  0  0
  -23.8741  -27.2181   21.7692 N   0  0  0  0  0  0  0  0  0  0  0  0
  -27.5535  -14.7278   19.1409 N   0  0  0  0  0  0  0  0  0  0  0  0
  -27.2851  -27.8586   20.1681 N   0  0  0  0  0  0  0  0  0  0  0  0
  -23.1479  -28.8474   23.3276 N   0  0  0  0  0  0  0  0  0  0  0  0
  -20.2628  -25.4327   23.9697 N   0  0  0  0  0  0  0  0  0  0  0  0
  -31.2208  -22.4000   21.3954 N   0  0  0  0  0  0  0  0  0  0  0  0
  -24.1114  -15.8648   18.7464 N   0  0  0  0  0  0  0  0  0  0  0  0
  -29.8489  -12.2746   19.5549 N   0  0  0  0  0  0  0  0  0  0  0  0
  -28.8907  -27.0929   21.7267 N   0  0  0  0  0  0  0  0  0  0  0  0
  -32.9404  -12.7030   17.7310 N   0  3  0  0  0  0  0  0  0  0  0  0
  -20.8175  -27.5534   24.6434 O   0  0  0  0  0  0  0  0  0  0  0  0
  -25.5222  -15.4002   20.5399 O   0  0  0  0  0  0  0  0  0  0  0  0
  -27.0997  -12.4707   18.7723 O   0  0  0  0  0  0  0  0  0  0  0  0
  -31.5040  -13.8718   19.8493 O   0  0  0  0  0  0  0  0  0  0  0  0
  -29.4892  -28.5744   20.0823 O   0  0  0  0  0  0  0  0  0  0  0  0
  -20.2573  -20.5704   21.2507 O   0  0  0  0  0  0  0  0  0  0  0  0
  -29.7299  -20.4441   19.9410 O   0  0  0  0  0  0  0  0  0  1  0  0
  -18.9854  -17.6153   25.7289 F   0  0  0  0  0  0  0  0  0  0  0  0
  -21.3938  -18.0873   21.6813 F   0  0  0  0  0  0  0  0  0  0  0  0
  -32.7949  -24.4547   20.7040 S   0  0  0  0  0  0  0  0  0  0  0  0
  1  2  1  0  0  0  0
  1  5  2  0  0  0  0
  2  6  2  0  0  0  0
  3  8  2  0  0  0  0
  3 16  1  0  0  0  0
  4  9  1  0  0  0  0
  4 16  2  0  0  0  0
  5 18  1  0  0  0  0
  6 20  1  0  0  0  0
  7 10  2  0  0  0  0
  7 19  1  0  0  0  0
  8 22  1  0  0  0  0
  9 22  2  0  0  0  0
 10 23  1  0  0  0  0
 11 12  2  0  0  0  0
 11 24  1  0  0  0  0
 12 25  1  0  0  0  0
 13 21  1  0  0  0  0
 13 23  2  0  0  0  0
 14 25  2  0  0  0  0
 14 26  1  0  0  0  0
 15 28  2  0  0  0  0
 15 81  1  0  0  0  0
 16 27  1  0  0  0  0
 17 27  1  0  0  0  0
 17 29  2  0  0  0  0
 17 31  1  0  0  0  0
 18 20  2  0  0  0  0
 18 36  1  0  0  0  0
 19 21  2  0  0  0  0
 19 37  1  0  0  0  0
 20 45  1  0  0  0  0
 21 38  1  0  0  0  0
 22 77  1  0  0  0  0
 23 78  1  0  0  0  0
 24 26  2  0  0  0  0
 24 77  1  0  0  0  0
 25 79  1  0  0  0  0
 26 80  1  0  0  0  0
 27 60  2  0  0  0  0
 28 54  1  0  0  0  0
 28 61  1  0  0  0  0
 29 62  1  0  0  0  0
 29 65  1  0  0  0  0
 30 61  2  0  0  0  0
 30 67  1  0  0  0  0
 30 81  1  0  0  0  0
 31 66  1  0  0  0  0
 31 72  2  0  0  0  0
 32 46  1  0  0  0  0
 32 68  1  0  0  0  0
 32 73  2  0  0  0  0
 33 56  1  0  0  0  0
 33 63  1  0  0  0  0
 33 74  2  0  0  0  0
 34 57  1  0  0  0  0
 34 69  1  0  0  0  0
 34 75  2  0  0  0  0
 35 64  1  0  0  0  0
 35 70  1  0  0  0  0
 35 76  2  0  0  0  0
 36 39  1  0  0  0  0
 37 46  1  0  0  0  0
 38 63  1  0  0  0  0
 39 41  1  0  0  0  0
 40 42  1  0  0  0  0
 40 43  1  0  0  0  0
 41 45  1  0  0  0  0
 42 47  1  0  0  0  0
 43 64  1  0  0  0  0
 44 47  1  0  0  0  0
 44 64  1  0  0  0  0
 45 68  1  0  0  0  0
 46 63  1  0  0  0  0
 47 62  1  0  0  0  0
 48 57  1  0  0  0  0
 49 58  1  0  0  0  0
 50 59  1  0  0  0  0
 51 59  1  0  0  0  0
 52 59  1  0  0  0  0
 53 71  1  0  0  0  0
 54 70  1  0  0  0  0
 55 58  1  0  0  0  0
 55 78  1  0  0  0  0
 56 59  1  0  0  0  0
 56 69  1  0  0  0  0
 57 71  1  0  0  0  0
 58 67  1  0  0  0  0
 60 62  1  0  0  0  0
M  CHG  1  71   1
M  ISO  4  35 100  55 101  70 100  78 101
M  END
> <Batch ID>
0193

> <Smiles>
CNC(C)C(=O)NC(C(=O)N1Cc2cc([101O:1][101CH2:1]C(C)Nc3nc(C[100NH:0][100C:0](=O)N4CCCC(n5nc(-c6ccc(Oc7ccc(F)cc7F)cc6)c(C(N)=O)c5N)C4)cs3)ccc2CC1C(=O)NC1CCCc2ccccc21)C(C)(C)C

> <Shape>
0.171

> <Color>
0.081

> <Negative vol penalty>
0.000

$$$$
