
  -OEChem-04052305333D

 84 92  0     1  0  0  0  0  0999 V2000
  -24.7089  -34.9552   23.1692 C   0  0  0  0  0  0  0  0  0  0  0  0
  -25.4681  -33.8154   22.9244 C   0  0  0  0  0  0  0  0  0  0  0  0
  -23.6564  -12.6293   21.2371 C   0  0  0  0  0  0  0  0  0  0  0  0
  -24.4742  -12.7137   18.9653 C   0  0  0  0  0  0  0  0  0  0  0  0
  -23.4222  -34.8351   23.6925 C   0  0  0  0  0  0  0  0  0  0  0  0
  -24.9413  -32.5549   23.2037 C   0  0  0  0  0  0  0  0  0  0  0  0
  -25.7967  -29.2246   19.4858 C   0  0  0  0  0  0  0  0  0  0  0  0
  -22.7102  -11.6759   20.8610 C   0  0  0  0  0  0  0  0  0  0  0  0
  -23.5281  -11.7603   18.5892 C   0  0  0  0  0  0  0  0  0  0  0  0
  -27.0724  -28.6670   19.4115 C   0  0  0  0  0  0  0  0  0  0  0  0
  -22.6345   -8.3542   20.2338 C   0  0  0  0  0  0  0  0  0  0  0  0
  -22.4702   -7.2428   21.0605 C   0  0  0  0  0  0  0  0  0  0  0  0
  -26.2597  -26.6766   20.5056 C   0  0  0  0  0  0  0  0  0  0  0  0
  -20.1541   -7.8396   21.4024 C   0  0  0  0  0  0  0  0  0  0  0  0
  -30.6479  -20.3810   16.7313 C   0  0  0  0  0  0  0  0  0  0  0  0
  -24.5384  -13.1483   20.2892 C   0  0  0  0  0  0  0  0  0  0  0  0
  -26.8241  -13.8971   21.1390 C   0  0  0  0  0  0  0  0  0  0  0  0
  -22.8757  -33.5720   23.9693 C   0  0  0  0  0  0  0  0  0  0  0  0
  -24.7437  -28.5155   20.0814 C   0  0  0  0  0  0  0  0  0  0  0  0
  -23.6466  -32.4179   23.7324 C   0  0  0  0  0  0  0  0  0  0  0  0
  -24.9710  -27.2264   20.5839 C   0  0  0  0  0  0  0  0  0  0  0  0
  -29.3187  -20.0269   16.6207 C   0  0  0  0  0  0  0  0  0  0  0  0
  -22.6461  -11.2414   19.5371 C   0  0  0  0  0  0  0  0  0  0  0  0
  -27.3048  -27.3941   19.9240 C   0  0  0  0  0  0  0  0  0  0  0  0
  -21.5586   -9.2083   19.9915 C   0  0  0  0  0  0  0  0  0  0  0  0
  -21.2300   -6.9855   21.6448 C   0  0  0  0  0  0  0  0  0  0  0  0
  -20.3185   -8.9510   20.5758 C   0  0  0  0  0  0  0  0  0  0  0  0
  -25.5156  -14.1336   20.6769 C   0  0  0  0  0  0  0  0  0  0  0  0
  -28.4093  -21.0219   16.9161 C   0  0  0  0  0  0  0  0  0  0  0  0
  -27.3384  -15.1496   21.3698 C   0  0  0  0  0  0  0  0  0  0  0  0
  -30.0854  -22.4912   17.3620 C   0  0  0  0  0  0  0  0  0  0  0  0
  -27.5132  -12.6562   21.3415 C   0  0  0  0  0  0  0  0  0  0  0  0
  -22.8579  -28.9917   22.5955 C   0  0  0  0  0  0  0  0  0  0  0  0
  -21.3626  -26.3354   21.4862 C   0  0  0  0  0  0  0  0  0  0  0  0
  -21.5422  -23.4608   19.6556 C   0  0  0  0  0  0  0  0  0  0  0  0
  -26.0570  -20.5575   19.1420 C   0  0  0  0  0  0  0  0  0  0  0  0
  -21.4982  -33.4947   24.5785 C   0  0  0  0  0  0  0  0  0  0  0  0
  -23.3673  -29.1201   20.1298 C   0  0  0  0  0  0  0  0  0  0  0  0
  -23.8697  -26.4156   21.2149 C   0  0  0  0  0  0  0  0  0  0  0  0
  -20.8728  -32.1046   24.4958 C   0  0  0  0  0  0  0  0  0  0  0  0
  -26.0004  -19.5846   22.5664 C   0  0  0  0  0  0  0  0  0  0  0  0
  -21.8781  -31.0405   24.9246 C   0  0  0  0  0  0  0  0  0  0  0  0
  -25.9878  -18.0559   22.5122 C   0  0  0  0  0  0  0  0  0  0  0  0
  -25.1823  -20.1963   21.4313 C   0  0  0  0  0  0  0  0  0  0  0  0
  -25.5393  -18.2027   20.0270 C   0  0  0  0  0  0  0  0  0  0  0  0
  -23.1007  -31.0318   23.9990 C   0  0  1  0  0  0  0  0  0  0  0  0
  -22.4871  -28.5158   21.2194 C   0  0  1  0  0  0  0  0  0  0  0  0
  -26.3969  -17.5408   21.1191 C   0  0  2  0  0  0  0  0  0  0  0  0
  -20.1702  -21.4766   18.9644 C   0  0  0  0  0  0  0  0  0  0  0  0
  -21.7033  -25.1334   24.2699 C   0  0  0  0  0  0  0  0  0  0  0  0
  -21.2048  -22.8864   23.2846 C   0  0  0  0  0  0  0  0  0  0  0  0
  -19.4835  -24.6902   23.2067 C   0  0  0  0  0  0  0  0  0  0  0  0
  -21.7947  -24.1396   16.7860 C   0  0  0  0  0  0  0  0  0  0  0  0
  -26.9416  -20.7570   16.8318 C   0  0  0  0  0  0  0  0  0  0  0  0
  -29.5557  -24.8273   18.0602 C   0  0  0  0  0  0  0  0  0  0  0  0
  -29.3695  -27.2408   18.7538 C   0  0  0  0  0  0  0  0  0  1  0  0
  -21.5151  -24.8504   21.7105 C   0  0  1  0  0  0  0  0  0  0  0  0
  -20.6212  -22.8817   18.5969 C   0  0  2  0  0  0  0  0  0  0  0  0
  -30.3226  -26.1000   18.4141 C   0  0  1  0  0  0  0  0  0  0  0  0
  -20.9981  -24.4059   23.1079 C   0  0  0  0  0  0  0  0  0  0  0  0
  -31.0684  -21.6086   17.1008 N   0  0  0  0  0  0  0  0  0  0  0  0
  -25.2170  -15.4341   20.6172 N   0  0  0  0  0  0  0  0  0  0  0  0
  -28.7589  -22.2698   17.2915 N   0  0  0  0  0  0  0  0  0  0  0  0
  -26.3451  -16.0260   21.0449 N   0  0  0  0  0  0  0  0  0  0  0  0
  -22.5428  -27.0527   21.2442 N   0  0  0  0  0  0  0  0  0  0  0  0
  -25.6212  -19.6676   20.1375 N   0  0  0  0  0  0  0  0  0  0  0  0
  -28.9383  -18.7371   16.2319 N   0  0  0  0  0  0  0  0  0  0  0  0
  -28.5387  -15.5757   21.8171 N   0  0  0  0  0  0  0  0  0  0  0  0
  -26.8376  -11.4622   21.0546 N   0  0  0  0  0  0  0  0  0  0  0  0
  -30.4806  -23.7621   17.7441 N   0  0  0  0  0  0  0  0  0  0  0  0
  -22.7878  -30.3626   22.7546 N   0  0  0  0  0  0  0  0  0  0  0  0
  -20.8461  -24.1975   20.5904 N   0  0  0  0  0  0  0  0  0  0  0  0
  -26.4616  -19.9731   17.9480 N   0  0  0  0  0  0  0  0  0  0  0  0
  -21.3177  -22.8225   17.2807 N   0  3  0  0  0  0  0  0  0  0  0  0
  -28.6875  -12.6070   21.7798 O   0  0  0  0  0  0  0  0  0  0  0  0
  -23.1821  -28.1755   23.4502 O   0  0  0  0  0  0  0  0  0  0  0  0
  -20.2371  -26.8393   21.5173 O   0  0  0  0  0  0  0  0  0  0  0  0
  -22.7571  -23.2750   19.6554 O   0  0  0  0  0  0  0  0  0  0  0  0
  -26.0886  -21.7817   19.3069 O   0  0  0  0  0  0  0  0  0  0  0  0
  -31.1325  -25.8527   19.5653 O   0  0  0  0  0  0  0  0  0  0  0  0
  -21.7231  -10.3109   19.1699 O   0  0  0  0  0  0  0  0  0  0  0  0
  -28.5491  -26.8478   19.8533 O   0  0  0  0  0  0  0  0  0  1  0  0
  -21.0720   -5.9173   22.4374 F   0  0  0  0  0  0  0  0  0  0  0  0
  -19.2809   -9.7673   20.3457 F   0  0  0  0  0  0  0  0  0  0  0  0
  1  2  1  0  0  0  0
  1  5  2  0  0  0  0
  2  6  2  0  0  0  0
  3  8  2  0  0  0  0
  3 16  1  0  0  0  0
  4  9  1  0  0  0  0
  4 16  2  0  0  0  0
  5 18  1  0  0  0  0
  6 20  1  0  0  0  0
  7 10  2  0  0  0  0
  7 19  1  0  0  0  0
  8 23  1  0  0  0  0
  9 23  2  0  0  0  0
 10 24  1  0  0  0  0
 11 12  2  0  0  0  0
 11 25  1  0  0  0  0
 12 26  1  0  0  0  0
 13 21  1  0  0  0  0
 13 24  2  0  0  0  0
 14 26  2  0  0  0  0
 14 27  1  0  0  0  0
 15 22  1  0  0  0  0
 15 61  2  0  0  0  0
 16 28  1  0  0  0  0
 17 28  1  0  0  0  0
 17 30  2  0  0  0  0
 17 32  1  0  0  0  0
 18 20  2  0  0  0  0
 18 37  1  0  0  0  0
 19 21  2  0  0  0  0
 19 38  1  0  0  0  0
 20 46  1  0  0  0  0
 21 39  1  0  0  0  0
 22 29  2  0  0  0  0
 22 67  1  0  0  0  0
 23 81  1  0  0  0  0
 24 82  1  0  0  0  0
 25 27  2  0  0  0  0
 25 81  1  0  0  0  0
 26 83  1  0  0  0  0
 27 84  1  0  0  0  0
 28 62  2  0  0  0  0
 29 54  1  0  0  0  0
 29 63  1  0  0  0  0
 30 64  1  0  0  0  0
 30 68  1  0  0  0  0
 31 61  1  0  0  0  0
 31 63  2  0  0  0  0
 31 70  1  0  0  0  0
 32 69  1  0  0  0  0
 32 75  2  0  0  0  0
 33 47  1  0  0  0  0
 33 71  1  0  0  0  0
 33 76  2  0  0  0  0
 34 57  1  0  0  0  0
 34 65  1  0  0  0  0
 34 77  2  0  0  0  0
 35 58  1  0  0  0  0
 35 72  1  0  0  0  0
 35 78  2  0  0  0  0
 36 66  1  0  0  0  0
 36 73  1  0  0  0  0
 36 79  2  0  0  0  0
 37 40  1  0  0  0  0
 38 47  1  0  0  0  0
 39 65  1  0  0  0  0
 40 42  1  0  0  0  0
 41 43  1  0  0  0  0
 41 44  1  0  0  0  0
 42 46  1  0  0  0  0
 43 48  1  0  0  0  0
 44 66  1  0  0  0  0
 45 48  1  0  0  0  0
 45 66  1  0  0  0  0
 46 71  1  0  0  0  0
 47 65  1  0  0  0  0
 48 64  1  0  0  0  0
 49 58  1  0  0  0  0
 50 60  1  0  0  0  0
 51 60  1  0  0  0  0
 52 60  1  0  0  0  0
 53 74  1  0  0  0  0
 54 73  1  0  0  0  0
 55 59  1  0  0  0  0
 55 70  1  0  0  0  0
 56 59  1  0  0  0  0
 56 82  1  0  0  0  0
 57 60  1  0  0  0  0
 57 72  1  0  0  0  0
 58 74  1  0  0  0  0
 59 80  1  0  0  0  0
 62 64  1  0  0  0  0
M  CHG  1  74   1
M  ISO  4  36 100  56 101  73 100  82 101
M  END
> <Batch ID>
0194

> <Smiles>
CNC(C)C(=O)NC(C(=O)N1Cc2cc([101O:1][101CH2:1]C(O)CNc3ncc(N)c(C[100NH:0][100C:0](=O)N4CCCC(n5nc(-c6ccc(Oc7ccc(F)cc7F)cc6)c(C(N)=O)c5N)C4)n3)ccc2CC1C(=O)NC1CCCc2ccccc21)C(C)(C)C

> <Shape>
0.232

> <Color>
0.072

> <Negative vol penalty>
0.000

$$$$

  -OEChem-04052305333D

 88 96  0     1  0  0  0  0  0999 V2000
  -25.4269  -17.4017   26.9125 C   0  0  0  0  0  0  0  0  0  0  0  0
  -26.3974  -18.3934   27.0119 C   0  0  0  0  0  0  0  0  0  0  0  0
  -26.6218  -12.3425   21.7260 C   0  0  0  0  0  0  0  0  0  0  0  0
  -25.9391  -13.7280   19.8682 C   0  0  0  0  0  0  0  0  0  0  0  0
  -24.6511  -17.3003   25.7584 C   0  0  0  0  0  0  0  0  0  0  0  0
  -26.5935  -19.2837   25.9568 C   0  0  0  0  0  0  0  0  0  0  0  0
  -28.4560  -26.0778   24.6578 C   0  0  0  0  0  0  0  0  0  0  0  0
  -25.3545  -11.7608   21.7579 C   0  0  0  0  0  0  0  0  0  0  0  0
  -24.6717  -13.1462   19.9001 C   0  0  0  0  0  0  0  0  0  0  0  0
  -29.3547  -26.8210   23.8937 C   0  0  0  0  0  0  0  0  0  0  0  0
  -23.6544   -9.3978   20.0378 C   0  0  0  0  0  0  0  0  0  0  0  0
  -23.5809   -8.0106   20.1640 C   0  0  0  0  0  0  0  0  0  0  0  0
  -27.9017  -26.6003   21.9808 C   0  0  0  0  0  0  0  0  0  0  0  0
  -22.3378   -8.2636   22.2202 C   0  0  0  0  0  0  0  0  0  0  0  0
  -26.9141  -13.3262   20.7812 C   0  0  0  0  0  0  0  0  0  0  0  0
  -29.3407  -13.4919   20.0118 C   0  0  0  0  0  0  0  0  0  0  0  0
  -24.8312  -18.1958   24.6925 C   0  0  0  0  0  0  0  0  0  0  0  0
  -27.2766  -25.5802   24.0852 C   0  0  0  0  0  0  0  0  0  0  0  0
  -25.8204  -19.1934   24.7868 C   0  0  0  0  0  0  0  0  0  0  0  0
  -26.9884  -25.8532   22.7404 C   0  0  0  0  0  0  0  0  0  0  0  0
  -24.3795  -12.1626   20.8449 C   0  0  0  0  0  0  0  0  0  0  0  0
  -29.0790  -27.0799   22.5543 C   0  0  0  0  0  0  0  0  0  0  0  0
  -23.0697  -10.2179   21.0028 C   0  0  0  0  0  0  0  0  0  0  0  0
  -22.9226   -7.4435   21.2552 C   0  0  0  0  0  0  0  0  0  0  0  0
  -22.4114   -9.6508   22.0940 C   0  0  0  0  0  0  0  0  0  0  0  0
  -27.8755  -21.8365   19.8860 C   0  0  0  0  0  0  0  0  0  0  0  0
  -28.2228  -13.9280   20.7481 C   0  0  0  0  0  0  0  0  0  0  0  0
  -27.7612  -23.0474   19.2340 C   0  0  0  0  0  0  0  0  0  0  0  0
  -29.0121  -21.6757   20.6518 C   0  0  0  0  0  0  0  0  0  0  0  0
  -30.3287  -14.3945   20.3207 C   0  0  0  0  0  0  0  0  0  0  0  0
  -29.7428  -23.7547   20.0943 C   0  0  0  0  0  0  0  0  0  0  0  0
  -29.4739  -12.3711   19.1276 C   0  0  0  0  0  0  0  0  0  0  0  0
  -26.0737  -22.6799   23.5899 C   0  0  0  0  0  0  0  0  0  0  0  0
  -30.9828  -25.8234   18.0707 C   0  0  0  0  0  0  0  0  0  0  0  0
  -23.4733  -24.3517   22.6076 C   0  0  0  0  0  0  0  0  0  0  0  0
  -22.2006  -27.2666   21.3702 C   0  0  0  0  0  0  0  0  0  0  0  0
  -30.2350  -20.0769   22.1666 C   0  0  0  0  0  0  0  0  0  0  0  0
  -24.0010  -18.0173   23.4461 C   0  0  0  0  0  0  0  0  0  0  0  0
  -26.3046  -24.8029   24.9299 C   0  0  0  0  0  0  0  0  0  0  0  0
  -25.7264  -25.3589   22.0836 C   0  0  0  0  0  0  0  0  0  0  0  0
  -24.0158  -19.2343   22.5248 C   0  0  0  0  0  0  0  0  0  0  0  0
  -31.7622  -17.3231   23.8284 C   0  0  0  0  0  0  0  0  0  0  0  0
  -25.4409  -19.7450   22.3378 C   0  0  0  0  0  0  0  0  0  0  0  0
  -31.1341  -16.1002   23.1558 C   0  0  0  0  0  0  0  0  0  0  0  0
  -30.7578  -18.4637   23.9830 C   0  0  0  0  0  0  0  0  0  0  0  0
  -29.4400  -17.6325   22.0747 C   0  0  0  0  0  0  0  0  0  0  0  0
  -26.0460  -20.1934   23.6736 C   0  0  1  0  0  0  0  0  0  0  0  0
  -25.3813  -23.9085   24.1084 C   0  0  1  0  0  0  0  0  0  0  0  0
  -30.4306  -16.4808   21.8383 C   0  0  2  0  0  0  0  0  0  0  0  0
  -30.7146  -26.4743   15.6409 C   0  0  0  0  0  0  0  0  0  0  0  0
  -20.0449  -28.3192   20.6340 C   0  0  0  0  0  0  0  0  0  0  0  0
  -32.2622  -28.2810   22.2619 C   0  0  0  0  0  0  0  0  0  0  0  0
  -23.5838  -22.7553   20.0097 C   0  0  0  0  0  0  0  0  0  0  0  0
  -22.0665  -24.4595   18.9794 C   0  0  0  0  0  0  0  0  0  0  0  0
  -21.2817  -23.1054   20.9218 C   0  0  0  0  0  0  0  0  0  0  0  0
  -22.3895  -29.3754   23.4382 C   0  0  0  0  0  0  0  0  0  0  0  0
  -30.2711  -26.7230   17.0715 C   0  0  0  0  0  0  0  0  0  0  0  0
  -31.5655  -27.0396   20.1805 C   0  0  0  0  0  0  0  0  0  0  0  0
  -30.6131  -26.0254   19.5356 C   0  0  2  0  0  0  0  0  0  0  0  0
  -23.0027  -24.9203   21.2907 C   0  0  1  0  0  0  0  0  0  0  0  0
  -21.0066  -28.1037   21.7922 C   0  0  2  0  0  0  0  0  0  0  0  0
  -31.2761  -27.2836   21.6670 C   0  0  2  0  0  0  0  0  0  1  0  0
  -22.5085  -23.8180   20.3119 C   0  0  0  0  0  0  0  0  0  0  0  0
  -28.4763  -15.0225   21.4705 N   0  0  0  0  0  0  0  0  0  0  0  0
  -28.6794  -24.0325   19.3163 N   0  0  0  0  0  0  0  0  0  0  0  0
  -29.9699  -22.6174   20.7788 N   0  0  0  0  0  0  0  0  0  0  0  0
  -29.7648  -15.2817   21.1897 N   0  0  0  0  0  0  0  0  0  0  0  0
  -24.8105  -24.5981   22.9496 N   0  0  0  0  0  0  0  0  0  0  0  0
  -30.1344  -18.7722   22.6942 N   0  0  0  0  0  0  0  0  0  0  0  0
  -26.6103  -23.2554   18.4354 N   0  0  0  0  0  0  0  0  0  0  0  0
  -31.6163  -14.5080   19.9312 N   0  0  0  0  0  0  0  0  0  0  0  0
  -28.3599  -11.5458   18.9225 N   0  0  0  0  0  0  0  0  0  0  0  0
  -29.1730  -20.4494   21.3433 N   0  0  0  0  0  0  0  0  0  0  0  0
  -30.7032  -24.7449   20.2041 N   0  0  0  0  0  0  0  0  0  0  0  0
  -25.5339  -21.4938   24.0493 N   0  0  0  0  0  0  0  0  0  0  0  0
  -21.9964  -25.9253   21.6162 N   0  0  0  0  0  0  0  0  0  0  0  0
  -21.4564  -29.4367   22.2838 N   0  3  0  0  0  0  0  0  0  0  0  0
  -30.5537  -12.0998   18.5497 O   0  0  0  0  0  0  0  0  0  0  0  0
  -27.0263  -22.7993   22.8283 O   0  0  0  0  0  0  0  0  0  0  0  0
  -31.8229  -24.9941   17.7206 O   0  0  0  0  0  0  0  0  0  0  0  0
  -22.6815  -23.7187   23.3104 O   0  0  0  0  0  0  0  0  0  0  0  0
  -23.2117  -27.7534   20.8689 O   0  0  0  0  0  0  0  0  0  0  0  0
  -31.2061  -20.7998   22.4041 O   0  0  0  0  0  0  0  0  0  0  0  0
  -23.1428  -11.5949   20.8756 O   0  0  0  0  0  0  0  0  0  0  0  0
  -29.9549  -27.8045   21.8061 O   0  0  0  0  0  0  0  0  0  1  0  0
  -22.8508   -6.1114   21.3755 F   0  0  0  0  0  0  0  0  0  0  0  0
  -21.8466  -10.4335   23.0236 F   0  0  0  0  0  0  0  0  0  0  0  0
  -26.9448  -20.8802   19.7815 F   0  0  0  0  0  0  0  0  0  0  0  0
  1  2  1  0  0  0  0
  1  5  2  0  0  0  0
  2  6  2  0  0  0  0
  3  8  2  0  0  0  0
  3 15  1  0  0  0  0
  4  9  1  0  0  0  0
  4 15  2  0  0  0  0
  5 17  1  0  0  0  0
  6 19  1  0  0  0  0
  7 10  2  0  0  0  0
  7 18  1  0  0  0  0
  8 21  1  0  0  0  0
  9 21  2  0  0  0  0
 10 22  1  0  0  0  0
 11 12  2  0  0  0  0
 11 23  1  0  0  0  0
 12 24  1  0  0  0  0
 13 20  1  0  0  0  0
 13 22  2  0  0  0  0
 14 24  2  0  0  0  0
 14 25  1  0  0  0  0
 15 27  1  0  0  0  0
 16 27  1  0  0  0  0
 16 30  2  0  0  0  0
 16 32  1  0  0  0  0
 17 19  2  0  0  0  0
 17 38  1  0  0  0  0
 18 20  2  0  0  0  0
 18 39  1  0  0  0  0
 19 47  1  0  0  0  0
 20 40  1  0  0  0  0
 21 84  1  0  0  0  0
 22 85  1  0  0  0  0
 23 25  2  0  0  0  0
 23 84  1  0  0  0  0
 24 86  1  0  0  0  0
 25 87  1  0  0  0  0
 26 28  1  0  0  0  0
 26 29  2  0  0  0  0
 26 88  1  0  0  0  0
 27 64  2  0  0  0  0
 28 65  2  0  0  0  0
 28 70  1  0  0  0  0
 29 66  1  0  0  0  0
 29 73  1  0  0  0  0
 30 67  1  0  0  0  0
 30 71  1  0  0  0  0
 31 65  1  0  0  0  0
 31 66  2  0  0  0  0
 31 74  1  0  0  0  0
 32 72  1  0  0  0  0
 32 78  2  0  0  0  0
 33 48  1  0  0  0  0
 33 75  1  0  0  0  0
 33 79  2  0  0  0  0
 34 57  1  0  0  0  0
 34 59  1  0  0  0  0
 34 80  2  0  0  0  0
 35 60  1  0  0  0  0
 35 68  1  0  0  0  0
 35 81  2  0  0  0  0
 36 61  1  0  0  0  0
 36 76  1  0  0  0  0
 36 82  2  0  0  0  0
 37 69  1  0  0  0  0
 37 73  1  0  0  0  0
 37 83  2  0  0  0  0
 38 41  1  0  0  0  0
 39 48  1  0  0  0  0
 40 68  1  0  0  0  0
 41 43  1  0  0  0  0
 42 44  1  0  0  0  0
 42 45  1  0  0  0  0
 43 47  1  0  0  0  0
 44 49  1  0  0  0  0
 45 69  1  0  0  0  0
 46 49  1  0  0  0  0
 46 69  1  0  0  0  0
 47 75  1  0  0  0  0
 48 68  1  0  0  0  0
 49 67  1  0  0  0  0
 50 57  1  0  0  0  0
 51 61  1  0  0  0  0
 52 62  1  0  0  0  0
 53 63  1  0  0  0  0
 54 63  1  0  0  0  0
 55 63  1  0  0  0  0
 56 77  1  0  0  0  0
 58 59  1  0  0  0  0
 58 62  1  0  0  0  0
 59 74  1  0  0  0  0
 60 63  1  0  0  0  0
 60 76  1  0  0  0  0
 61 77  1  0  0  0  0
 62 85  1  0  0  0  0
 64 67  1  0  0  0  0
M  CHG  1  77   1
M  ISO  4  37 100  62 101  73 100  85 101
M  END
> <Batch ID>
0194

> <Smiles>
CCC(=O)C(C[101CH:1](C)[101O:1]c1ccc2c(c1)CN(C(=O)C(NC(=O)C(C)NC)C(C)(C)C)C(C(=O)NC1CCCc3ccccc31)C2)Nc1nc(N)c(F)c([100NH:0][100C:0](=O)N2CCCC(n3nc(-c4ccc(Oc5ccc(F)cc5F)cc4)c(C(N)=O)c3N)C2)n1

> <Shape>
0.231

> <Color>
0.068

> <Negative vol penalty>
0.000

$$$$

  -OEChem-04052305333D

 83 91  0     1  0  0  0  0  0999 V2000
  -19.6739  -34.6825   21.5096 C   0  0  0  0  0  0  0  0  0  0  0  0
  -20.9827  -34.2958   21.2396 C   0  0  0  0  0  0  0  0  0  0  0  0
  -27.0400  -12.2377   20.3457 C   0  0  0  0  0  0  0  0  0  0  0  0
  -27.8641  -11.3821   18.2419 C   0  0  0  0  0  0  0  0  0  0  0  0
  -18.8893  -33.9247   22.3779 C   0  0  0  0  0  0  0  0  0  0  0  0
  -21.5081  -33.1515   21.8387 C   0  0  0  0  0  0  0  0  0  0  0  0
  -25.5070  -29.2160   19.3838 C   0  0  0  0  0  0  0  0  0  0  0  0
  -26.5237  -10.9795   20.6552 C   0  0  0  0  0  0  0  0  0  0  0  0
  -27.3477  -10.1239   18.5514 C   0  0  0  0  0  0  0  0  0  0  0  0
  -26.8886  -29.0803   19.5121 C   0  0  0  0  0  0  0  0  0  0  0  0
  -23.8175   -9.1277   19.8355 C   0  0  0  0  0  0  0  0  0  0  0  0
  -22.5246   -9.0686   20.3556 C   0  0  0  0  0  0  0  0  0  0  0  0
  -26.5598  -27.4026   21.2140 C   0  0  0  0  0  0  0  0  0  0  0  0
  -23.3785   -8.0231   22.3594 C   0  0  0  0  0  0  0  0  0  0  0  0
  -30.9305  -20.7507   21.7343 C   0  0  0  0  0  0  0  0  0  0  0  0
  -27.7102  -12.4391   19.1390 C   0  0  0  0  0  0  0  0  0  0  0  0
  -29.5275  -14.2292   19.1218 C   0  0  0  0  0  0  0  0  0  0  0  0
  -19.4021  -32.7651   22.9804 C   0  0  0  0  0  0  0  0  0  0  0  0
  -24.6400  -28.4526   20.1788 C   0  0  0  0  0  0  0  0  0  0  0  0
  -20.7300  -32.3781   22.7170 C   0  0  0  0  0  0  0  0  0  0  0  0
  -25.1676  -27.5287   21.0921 C   0  0  0  0  0  0  0  0  0  0  0  0
  -26.6775   -9.9226   19.7581 C   0  0  0  0  0  0  0  0  0  0  0  0
  -27.4153  -28.1756   20.4293 C   0  0  0  0  0  0  0  0  0  0  0  0
  -24.8909   -8.6345   20.5773 C   0  0  0  0  0  0  0  0  0  0  0  0
  -22.3051   -8.5164   21.6175 C   0  0  0  0  0  0  0  0  0  0  0  0
  -24.6714   -8.0822   21.8392 C   0  0  0  0  0  0  0  0  0  0  0  0
  -28.2433  -13.7388   18.8185 C   0  0  0  0  0  0  0  0  0  0  0  0
  -29.7808  -21.7557   20.1602 C   0  0  0  0  0  0  0  0  0  0  0  0
  -29.5390  -15.5027   18.6075 C   0  0  0  0  0  0  0  0  0  0  0  0
  -30.5010  -22.8402   20.6155 C   0  0  0  0  0  0  0  0  0  0  0  0
  -30.6130  -13.5907   19.8072 C   0  0  0  0  0  0  0  0  0  0  0  0
  -28.7900  -21.8094   19.0546 C   0  0  0  0  0  0  0  0  0  0  0  0
  -22.4335  -29.1179   22.3680 C   0  0  0  0  0  0  0  0  0  0  0  0
  -21.8844  -25.9242   22.2213 C   0  0  0  0  0  0  0  0  0  0  0  0
  -23.0716  -22.8114   21.4813 C   0  0  0  0  0  0  0  0  0  0  0  0
  -27.1746  -20.4432   17.7710 C   0  0  0  0  0  0  0  0  0  0  0  0
  -18.5314  -32.0044   23.9488 C   0  0  0  0  0  0  0  0  0  0  0  0
  -23.1519  -28.5916   20.0094 C   0  0  0  0  0  0  0  0  0  0  0  0
  -24.2796  -26.6709   21.9547 C   0  0  0  0  0  0  0  0  0  0  0  0
  -19.0412  -30.5975   24.2507 C   0  0  0  0  0  0  0  0  0  0  0  0
  -26.2575  -17.8525   15.5475 C   0  0  0  0  0  0  0  0  0  0  0  0
  -20.5384  -30.6232   24.5416 C   0  0  0  0  0  0  0  0  0  0  0  0
  -26.8041  -16.5898   16.2191 C   0  0  0  0  0  0  0  0  0  0  0  0
  -25.7075  -18.8462   16.5698 C   0  0  0  0  0  0  0  0  0  0  0  0
  -27.1718  -17.9353   18.3259 C   0  0  0  0  0  0  0  0  0  0  0  0
  -21.3276  -31.1293   23.3281 C   0  0  1  0  0  0  0  0  0  0  0  0
  -22.3659  -28.1341   21.2343 C   0  0  1  0  0  0  0  0  0  0  0  0
  -27.8011  -16.9338   17.3440 C   0  0  1  0  0  0  0  0  0  0  0  0
  -22.4033  -20.3926   21.4994 C   0  0  0  0  0  0  0  0  0  0  0  0
  -32.6844  -25.0959   20.1755 C   0  0  0  0  0  0  0  0  0  0  0  0
  -22.2457  -25.8495   25.2501 C   0  0  0  0  0  0  0  0  0  0  0  0
  -22.5164  -23.3659   25.0866 C   0  0  0  0  0  0  0  0  0  0  0  0
  -20.3731  -24.4339   24.3877 C   0  0  0  0  0  0  0  0  0  0  0  0
  -23.4332  -22.5697   18.5539 C   0  0  0  0  0  0  0  0  0  0  0  0
  -30.6530  -26.5725   20.3713 C   0  0  0  0  0  0  0  0  0  0  0  0
  -29.2545  -26.7609   20.9506 C   0  0  0  0  0  0  0  0  0  1  0  0
  -22.4267  -24.7121   22.9393 C   0  0  1  0  0  0  0  0  0  0  0  0
  -22.4744  -21.6703   20.6777 C   0  0  2  0  0  0  0  0  0  0  0  0
  -31.2652  -25.2130   20.7227 C   0  0  1  0  0  0  0  0  0  0  0  0
  -21.9075  -24.6078   24.4012 C   0  0  0  0  0  0  0  0  0  0  0  0
  -30.0260  -20.5566   20.8003 N   0  0  0  0  0  0  0  0  0  0  0  0
  -27.4933  -14.6282   18.1625 N   0  0  0  0  0  0  0  0  0  0  0  0
  -28.3088  -15.6904   18.0494 N   0  0  0  0  0  0  0  0  0  0  0  0
  -22.8315  -26.8479   21.7567 N   0  0  0  0  0  0  0  0  0  0  0  0
  -26.7148  -19.1265   17.5945 N   0  0  0  0  0  0  0  0  0  0  0  0
  -30.4813  -16.4691   18.5827 N   0  0  0  0  0  0  0  0  0  0  0  0
  -30.4324  -12.2803   20.2703 N   0  0  0  0  0  0  0  0  0  0  0  0
  -30.4592  -24.1473   20.1645 N   0  0  0  0  0  0  0  0  0  0  0  0
  -28.1670  -20.6001   18.7449 N   0  0  0  0  0  0  0  0  0  0  0  0
  -21.4480  -30.0858   22.3326 N   0  0  0  0  0  0  0  0  0  0  0  0
  -22.0971  -23.5618   22.1047 N   0  0  0  0  0  0  0  0  0  0  0  0
  -23.2985  -21.4040   19.4650 N   0  3  0  0  0  0  0  0  0  0  0  0
  -31.7050  -14.1711   20.0176 O   0  0  0  0  0  0  0  0  0  0  0  0
  -28.5512  -22.8875   18.5174 O   0  0  0  0  0  0  0  0  0  0  0  0
  -23.3138  -29.0061   23.2132 O   0  0  0  0  0  0  0  0  0  0  0  0
  -20.6658  -26.0435   22.0716 O   0  0  0  0  0  0  0  0  0  0  0  0
  -24.2817  -23.0143   21.5523 O   0  0  0  0  0  0  0  0  0  0  0  0
  -26.7648  -21.3914   17.0940 O   0  0  0  0  0  0  0  0  0  0  0  0
  -26.1740   -8.6946   20.0599 O   0  0  0  0  0  0  0  0  0  0  0  0
  -28.7635  -28.0416   20.5570 O   0  0  0  0  0  0  0  0  0  1  0  0
  -21.0637   -8.4611   22.1175 F   0  0  0  0  0  0  0  0  0  0  0  0
  -25.6988   -7.6078   22.5571 F   0  0  0  0  0  0  0  0  0  0  0  0
  -31.5287  -22.3507   21.8982 S   0  0  0  0  0  0  0  0  0  0  0  0
  1  2  1  0  0  0  0
  1  5  2  0  0  0  0
  2  6  2  0  0  0  0
  3  8  2  0  0  0  0
  3 16  1  0  0  0  0
  4  9  1  0  0  0  0
  4 16  2  0  0  0  0
  5 18  1  0  0  0  0
  6 20  1  0  0  0  0
  7 10  2  0  0  0  0
  7 19  1  0  0  0  0
  8 22  1  0  0  0  0
  9 22  2  0  0  0  0
 10 23  1  0  0  0  0
 11 12  2  0  0  0  0
 11 24  1  0  0  0  0
 12 25  1  0  0  0  0
 13 21  1  0  0  0  0
 13 23  2  0  0  0  0
 14 25  2  0  0  0  0
 14 26  1  0  0  0  0
 15 61  2  0  0  0  0
 15 83  1  0  0  0  0
 16 27  1  0  0  0  0
 17 27  1  0  0  0  0
 17 29  2  0  0  0  0
 17 31  1  0  0  0  0
 18 20  2  0  0  0  0
 18 37  1  0  0  0  0
 19 21  2  0  0  0  0
 19 38  1  0  0  0  0
 20 46  1  0  0  0  0
 21 39  1  0  0  0  0
 22 79  1  0  0  0  0
 23 80  1  0  0  0  0
 24 26  2  0  0  0  0
 24 79  1  0  0  0  0
 25 81  1  0  0  0  0
 26 82  1  0  0  0  0
 27 62  2  0  0  0  0
 28 30  2  0  0  0  0
 28 32  1  0  0  0  0
 28 61  1  0  0  0  0
 29 63  1  0  0  0  0
 29 66  1  0  0  0  0
 30 68  1  0  0  0  0
 30 83  1  0  0  0  0
 31 67  1  0  0  0  0
 31 73  2  0  0  0  0
 32 69  1  0  0  0  0
 32 74  2  0  0  0  0
 33 47  1  0  0  0  0
 33 70  1  0  0  0  0
 33 75  2  0  0  0  0
 34 57  1  0  0  0  0
 34 64  1  0  0  0  0
 34 76  2  0  0  0  0
 35 58  1  0  0  0  0
 35 71  1  0  0  0  0
 35 77  2  0  0  0  0
 36 65  1  0  0  0  0
 36 69  1  0  0  0  0
 36 78  2  0  0  0  0
 37 40  1  0  0  0  0
 38 47  1  0  0  0  0
 39 64  1  0  0  0  0
 40 42  1  0  0  0  0
 41 43  1  0  0  0  0
 41 44  1  0  0  0  0
 42 46  1  0  0  0  0
 43 48  1  0  0  0  0
 44 65  1  0  0  0  0
 45 48  1  0  0  0  0
 45 65  1  0  0  0  0
 46 70  1  0  0  0  0
 47 64  1  0  0  0  0
 48 63  1  0  0  0  0
 49 58  1  0  0  0  0
 50 59  1  0  0  0  0
 51 60  1  0  0  0  0
 52 60  1  0  0  0  0
 53 60  1  0  0  0  0
 54 72  1  0  0  0  0
 55 56  1  0  0  0  0
 55 59  1  0  0  0  0
 56 80  1  0  0  0  0
 57 60  1  0  0  0  0
 57 71  1  0  0  0  0
 58 72  1  0  0  0  0
 59 68  1  0  0  0  0
 62 63  1  0  0  0  0
M  CHG  1  72   1
M  ISO  4  36 100  56 101  69 100  80 101
M  END
> <Batch ID>
0194

> <Smiles>
CNC(C)C(=O)NC(C(=O)N1Cc2cc([101O:1][101CH2:1]CC(C)Nc3scnc3C(=O)[100NH:0][100C:0](=O)N3CCCC(n4nc(-c5ccc(Oc6ccc(F)cc6F)cc5)c(C(N)=O)c4N)C3)ccc2CC1C(=O)NC1CCCc2ccccc21)C(C)(C)C

> <Shape>
0.214

> <Color>
0.096

> <Negative vol penalty>
0.000

$$$$

  -OEChem-04052305333D

 87 95  0     1  0  0  0  0  0999 V2000
  -30.5632  -15.7420   14.9802 C   0  0  0  0  0  0  0  0  0  0  0  0
  -29.6971  -15.8773   16.0604 C   0  0  0  0  0  0  0  0  0  0  0  0
  -22.9803   -9.8499   20.0044 C   0  0  0  0  0  0  0  0  0  0  0  0
  -23.6787   -9.9575   22.3148 C   0  0  0  0  0  0  0  0  0  0  0  0
  -31.6133  -16.6439   14.8130 C   0  0  0  0  0  0  0  0  0  0  0  0
  -29.8812  -16.9139   16.9748 C   0  0  0  0  0  0  0  0  0  0  0  0
  -25.5196  -20.0100   19.9575 C   0  0  0  0  0  0  0  0  0  0  0  0
  -22.2147   -8.7190   20.2885 C   0  0  0  0  0  0  0  0  0  0  0  0
  -22.9131   -8.8267   22.5989 C   0  0  0  0  0  0  0  0  0  0  0  0
  -24.9986  -19.8908   21.2452 C   0  0  0  0  0  0  0  0  0  0  0  0
  -23.1745   -5.4786   22.2083 C   0  0  0  0  0  0  0  0  0  0  0  0
  -23.7570   -4.4815   22.9907 C   0  0  0  0  0  0  0  0  0  0  0  0
  -31.4430  -19.3777   22.5939 C   0  0  0  0  0  0  0  0  0  0  0  0
  -26.4941  -21.6248   22.0041 C   0  0  0  0  0  0  0  0  0  0  0  0
  -29.6848  -17.7367   22.5900 C   0  0  0  0  0  0  0  0  0  0  0  0
  -22.0131   -4.7571   24.6400 C   0  0  0  0  0  0  0  0  0  0  0  0
  -32.1959  -18.4941   21.8376 C   0  0  0  0  0  0  0  0  0  0  0  0
  -23.7123  -10.4691   21.0176 C   0  0  0  0  0  0  0  0  0  0  0  0
  -24.0908  -12.9813   20.7870 C   0  0  0  0  0  0  0  0  0  0  0  0
  -31.8046  -17.6978   15.7204 C   0  0  0  0  0  0  0  0  0  0  0  0
  -26.5411  -20.9313   19.6854 C   0  0  0  0  0  0  0  0  0  0  0  0
  -30.9356  -17.8299   16.8203 C   0  0  0  0  0  0  0  0  0  0  0  0
  -27.0246  -21.7554   20.7116 C   0  0  0  0  0  0  0  0  0  0  0  0
  -30.1645  -18.9842   22.9732 C   0  0  0  0  0  0  0  0  0  0  0  0
  -22.1811   -8.2075   21.5858 C   0  0  0  0  0  0  0  0  0  0  0  0
  -25.4878  -20.6963   22.2694 C   0  0  0  0  0  0  0  0  0  0  0  0
  -22.0114   -6.1150   22.6417 C   0  0  0  0  0  0  0  0  0  0  0  0
  -23.1762   -4.1207   24.2066 C   0  0  0  0  0  0  0  0  0  0  0  0
  -21.4307   -5.7542   23.8575 C   0  0  0  0  0  0  0  0  0  0  0  0
  -24.5038  -11.6369   20.7246 C   0  0  0  0  0  0  0  0  0  0  0  0
  -30.5163  -16.9265   21.8337 C   0  0  0  0  0  0  0  0  0  0  0  0
  -25.2022  -13.6993   20.4184 C   0  0  0  0  0  0  0  0  0  0  0  0
  -22.8166  -13.5318   21.1460 C   0  0  0  0  0  0  0  0  0  0  0  0
  -29.5420  -20.7154   18.6601 C   0  0  0  0  0  0  0  0  0  0  0  0
  -27.9841  -20.2954   26.6130 C   0  0  0  0  0  0  0  0  0  0  0  0
  -29.3480  -23.9530   18.6139 C   0  0  0  0  0  0  0  0  0  0  0  0
  -27.8540  -26.7831   19.7994 C   0  0  0  0  0  0  0  0  0  0  0  0
  -30.6752  -14.6863   20.6924 C   0  0  0  0  0  0  0  0  0  0  0  0
  -32.9820  -18.6197   15.5245 C   0  0  0  0  0  0  0  0  0  0  0  0
  -27.0738  -21.0663   18.2852 C   0  0  0  0  0  0  0  0  0  0  0  0
  -28.1064  -22.7744   20.4672 C   0  0  0  0  0  0  0  0  0  0  0  0
  -32.8837  -19.9129   16.3296 C   0  0  0  0  0  0  0  0  0  0  0  0
  -29.5924  -12.1754   18.4120 C   0  0  0  0  0  0  0  0  0  0  0  0
  -32.4708  -19.6162   17.7678 C   0  0  0  0  0  0  0  0  0  0  0  0
  -28.1380  -11.9221   18.8155 C   0  0  0  0  0  0  0  0  0  0  0  0
  -30.4780  -12.4505   19.6260 C   0  0  0  0  0  0  0  0  0  0  0  0
  -28.5447  -13.2632   20.9186 C   0  0  0  0  0  0  0  0  0  0  0  0
  -31.0878  -18.9560   17.8197 C   0  0  1  0  0  0  0  0  0  0  0  0
  -28.4703  -21.6783   18.2337 C   0  0  1  0  0  0  0  0  0  0  0  0
  -27.6014  -13.0454   19.7243 C   0  0  2  0  0  0  0  0  0  0  0  0
  -28.5489  -21.7797   28.5809 C   0  0  0  0  0  0  0  0  0  0  0  0
  -27.9353  -29.2836   19.6034 C   0  0  0  0  0  0  0  0  0  0  0  0
  -23.7095  -18.7683   24.4533 C   0  0  0  0  0  0  0  0  0  0  0  0
  -31.8670  -24.0037   20.3350 C   0  0  0  0  0  0  0  0  0  0  0  0
  -31.3583  -26.3924   20.8861 C   0  0  0  0  0  0  0  0  0  0  0  0
  -31.8061  -25.7273   18.5239 C   0  0  0  0  0  0  0  0  0  0  0  0
  -25.0690  -26.9118   18.8064 C   0  0  0  0  0  0  0  0  0  0  0  0
  -29.3065  -19.9025   23.7927 C   0  0  0  0  0  0  0  0  0  0  0  0
  -27.8086  -21.6601   27.2607 C   0  0  0  0  0  0  0  0  0  0  0  0
  -25.9134  -19.4697   25.4563 C   0  0  0  0  0  0  0  0  0  0  0  0
  -27.2998  -20.0970   25.2671 C   0  0  2  0  0  0  0  0  0  0  0  0
  -29.6235  -25.0549   19.6084 C   0  0  1  0  0  0  0  0  0  0  0  0
  -27.2983  -28.0029   19.0868 C   0  0  2  0  0  0  0  0  0  0  0  0
  -25.1040  -19.3100   24.1633 C   0  0  2  0  0  0  0  0  0  1  0  0
  -31.1447  -25.2741   19.8437 C   0  0  0  0  0  0  0  0  0  0  0  0
  -31.7640  -17.2742   21.4463 N   0  0  0  0  0  0  0  0  0  0  0  0
  -25.7780  -11.5060   20.3460 N   0  0  0  0  0  0  0  0  0  0  0  0
  -26.1752  -12.7773   20.1671 N   0  0  0  0  0  0  0  0  0  0  0  0
  -28.5994  -22.8642   19.0828 N   0  0  0  0  0  0  0  0  0  0  0  0
  -29.9096  -13.5288   20.4378 N   0  0  0  0  0  0  0  0  0  0  0  0
  -25.4322  -15.0232   20.2880 N   0  0  0  0  0  0  0  0  0  0  0  0
  -21.7840  -12.6521   21.4984 N   0  0  0  0  0  0  0  0  0  0  0  0
  -30.0186  -15.6572   21.4479 N   0  0  0  0  0  0  0  0  0  0  0  0
  -30.0482  -19.9450   17.6306 N   0  0  0  0  0  0  0  0  0  0  0  0
  -28.9189  -26.2340   19.1169 N   0  0  0  0  0  0  0  0  0  0  0  0
  -25.8249  -28.0954   19.2908 N   0  3  0  0  0  0  0  0  0  0  0  0
  -28.1401  -19.2168   24.4052 N   0  3  0  0  0  0  0  0  0  0  0  0
  -22.5953  -14.7665   21.1383 O   0  0  0  0  0  0  0  0  0  0  0  0
  -29.8854  -20.6754   19.8357 O   0  0  0  0  0  0  0  0  0  0  0  0
  -28.6273  -19.3937   27.1505 O   0  0  0  0  0  0  0  0  0  0  0  0
  -29.7750  -24.0580   17.4614 O   0  0  0  0  0  0  0  0  0  0  0  0
  -27.3923  -26.3620   20.8577 O   0  0  0  0  0  0  0  0  0  0  0  0
  -31.8185  -14.8189   20.2483 O   0  0  0  0  0  0  0  0  0  0  0  0
  -21.4340   -7.1042   21.8634 O   0  0  0  0  0  0  0  0  0  0  0  0
  -24.9815  -20.5816   23.5273 O   0  0  0  0  0  0  0  0  0  1  0  0
  -23.7347   -3.1621   24.9571 F   0  0  0  0  0  0  0  0  0  0  0  0
  -20.3126   -6.3612   24.2786 F   0  0  0  0  0  0  0  0  0  0  0  0
  1  2  1  0  0  0  0
  1  5  2  0  0  0  0
  2  6  2  0  0  0  0
  3  8  2  0  0  0  0
  3 18  1  0  0  0  0
  4  9  1  0  0  0  0
  4 18  2  0  0  0  0
  5 20  1  0  0  0  0
  6 22  1  0  0  0  0
  7 10  2  0  0  0  0
  7 21  1  0  0  0  0
  8 25  1  0  0  0  0
  9 25  2  0  0  0  0
 10 26  1  0  0  0  0
 11 12  2  0  0  0  0
 11 27  1  0  0  0  0
 12 28  1  0  0  0  0
 13 17  2  0  0  0  0
 13 24  1  0  0  0  0
 14 23  1  0  0  0  0
 14 26  2  0  0  0  0
 15 24  2  0  0  0  0
 15 31  1  0  0  0  0
 16 28  2  0  0  0  0
 16 29  1  0  0  0  0
 17 66  1  0  0  0  0
 18 30  1  0  0  0  0
 19 30  1  0  0  0  0
 19 32  2  0  0  0  0
 19 33  1  0  0  0  0
 20 22  2  0  0  0  0
 20 39  1  0  0  0  0
 21 23  2  0  0  0  0
 21 40  1  0  0  0  0
 22 48  1  0  0  0  0
 23 41  1  0  0  0  0
 24 58  1  0  0  0  0
 25 84  1  0  0  0  0
 26 85  1  0  0  0  0
 27 29  2  0  0  0  0
 27 84  1  0  0  0  0
 28 86  1  0  0  0  0
 29 87  1  0  0  0  0
 30 67  2  0  0  0  0
 31 66  2  0  0  0  0
 31 73  1  0  0  0  0
 32 68  1  0  0  0  0
 32 71  1  0  0  0  0
 33 72  1  0  0  0  0
 33 78  2  0  0  0  0
 34 49  1  0  0  0  0
 34 74  1  0  0  0  0
 34 79  2  0  0  0  0
 35 59  1  0  0  0  0
 35 61  1  0  0  0  0
 35 80  2  0  0  0  0
 36 62  1  0  0  0  0
 36 69  1  0  0  0  0
 36 81  2  0  0  0  0
 37 63  1  0  0  0  0
 37 75  1  0  0  0  0
 37 82  2  0  0  0  0
 38 70  1  0  0  0  0
 38 73  1  0  0  0  0
 38 83  2  0  0  0  0
 39 42  1  0  0  0  0
 40 49  1  0  0  0  0
 41 69  1  0  0  0  0
 42 44  1  0  0  0  0
 43 45  1  0  0  0  0
 43 46  1  0  0  0  0
 44 48  1  0  0  0  0
 45 50  1  0  0  0  0
 46 70  1  0  0  0  0
 47 50  1  0  0  0  0
 47 70  1  0  0  0  0
 48 74  1  0  0  0  0
 49 69  1  0  0  0  0
 50 68  1  0  0  0  0
 51 59  1  0  0  0  0
 52 63  1  0  0  0  0
 53 64  1  0  0  0  0
 54 65  1  0  0  0  0
 55 65  1  0  0  0  0
 56 65  1  0  0  0  0
 57 76  1  0  0  0  0
 58 77  1  0  0  0  0
 60 61  1  0  0  0  0
 60 64  1  0  0  0  0
 61 77  1  0  0  0  0
 62 65  1  0  0  0  0
 62 75  1  0  0  0  0
 63 76  1  0  0  0  0
 64 85  1  0  0  0  0
 67 68  1  0  0  0  0
M  CHG  2  76   1  77   1
M  ISO  4  38 100  64 101  73 100  85 101
M  END
> <Batch ID>
0194

> <Smiles>
CCC(=O)C(C[101CH:1](C)[101O:1]c1ccc2c(c1)CN(C(=O)C(NC(=O)C(C)NC)C(C)(C)C)C(C(=O)NC1CCCc3ccccc31)C2)NCc1ccnc([100NH:0][100C:0](=O)N2CCCC(n3nc(-c4ccc(Oc5ccc(F)cc5F)cc4)c(C(N)=O)c3N)C2)c1

> <Shape>
0.282

> <Color>
0.207

> <Negative vol penalty>
0.000

$$$$

  -OEChem-04052305333D

 82 90  0     1  0  0  0  0  0999 V2000
  -32.1056  -15.3839   19.2703 C   0  0  0  0  0  0  0  0  0  0  0  0
  -31.1660  -16.4074   19.2004 C   0  0  0  0  0  0  0  0  0  0  0  0
  -28.7444  -25.7399   19.5924 C   0  0  0  0  0  0  0  0  0  0  0  0
  -26.5649  -24.7247   19.3548 C   0  0  0  0  0  0  0  0  0  0  0  0
  -31.6880  -14.0676   19.4623 C   0  0  0  0  0  0  0  0  0  0  0  0
  -29.8079  -16.1150   19.3214 C   0  0  0  0  0  0  0  0  0  0  0  0
  -25.5120  -19.5988   21.9509 C   0  0  0  0  0  0  0  0  0  0  0  0
  -29.3382  -24.4792   19.5321 C   0  0  0  0  0  0  0  0  0  0  0  0
  -27.1587  -23.4640   19.2945 C   0  0  0  0  0  0  0  0  0  0  0  0
  -24.5697  -20.4820   21.4259 C   0  0  0  0  0  0  0  0  0  0  0  0
  -28.7790  -21.5828   17.0018 C   0  0  0  0  0  0  0  0  0  0  0  0
  -28.3284  -20.7023   16.0184 C   0  0  0  0  0  0  0  0  0  0  0  0
  -22.9134  -18.7286   21.4650 C   0  0  0  0  0  0  0  0  0  0  0  0
  -27.6742  -19.1266   17.7291 C   0  0  0  0  0  0  0  0  0  0  0  0
  -18.4825  -28.1556   22.8902 C   0  0  0  0  0  0  0  0  0  0  0  0
  -27.3577  -25.8627   19.5038 C   0  0  0  0  0  0  0  0  0  0  0  0
  -26.4607  -28.0240   18.4880 C   0  0  0  0  0  0  0  0  0  0  0  0
  -30.3248  -13.7601   19.5954 C   0  0  0  0  0  0  0  0  0  0  0  0
  -25.1645  -18.2686   22.2272 C   0  0  0  0  0  0  0  0  0  0  0  0
  -29.3716  -14.7932   19.5141 C   0  0  0  0  0  0  0  0  0  0  0  0
  -23.8525  -17.8312   21.9959 C   0  0  0  0  0  0  0  0  0  0  0  0
  -28.5454  -23.3413   19.3831 C   0  0  0  0  0  0  0  0  0  0  0  0
  -23.2710  -20.0462   21.1801 C   0  0  0  0  0  0  0  0  0  0  0  0
  -28.6774  -21.2353   18.3489 C   0  0  0  0  0  0  0  0  0  0  0  0
  -27.7759  -19.4742   16.3821 C   0  0  0  0  0  0  0  0  0  0  0  0
  -28.1249  -20.0072   18.7125 C   0  0  0  0  0  0  0  0  0  0  0  0
  -26.7437  -27.1646   19.5666 C   0  0  0  0  0  0  0  0  0  0  0  0
  -19.8219  -28.0393   23.1977 C   0  0  0  0  0  0  0  0  0  0  0  0
  -25.8830  -29.1261   19.0696 C   0  0  0  0  0  0  0  0  0  0  0  0
  -19.5966  -26.2101   22.0089 C   0  0  0  0  0  0  0  0  0  0  0  0
  -26.6987  -27.8423   17.0859 C   0  0  0  0  0  0  0  0  0  0  0  0
  -26.1291  -15.4316   21.1670 C   0  0  0  0  0  0  0  0  0  0  0  0
  -24.1607  -14.3267   23.4965 C   0  0  0  0  0  0  0  0  0  0  0  0
  -21.4657  -14.8798   25.5159 C   0  0  0  0  0  0  0  0  0  0  0  0
  -22.8955  -29.9373   24.1947 C   0  0  0  0  0  0  0  0  0  0  0  0
  -29.9184  -12.3164   19.7544 C   0  0  0  0  0  0  0  0  0  0  0  0
  -26.1855  -17.3356   22.8184 C   0  0  0  0  0  0  0  0  0  0  0  0
  -23.4234  -16.4186   22.2943 C   0  0  0  0  0  0  0  0  0  0  0  0
  -28.4849  -12.1380   20.2480 C   0  0  0  0  0  0  0  0  0  0  0  0
  -25.8524  -31.6233   23.1505 C   0  0  0  0  0  0  0  0  0  0  0  0
  -27.5351  -13.0407   19.4672 C   0  0  0  0  0  0  0  0  0  0  0  0
  -26.3906  -30.7493   22.0162 C   0  0  0  0  0  0  0  0  0  0  0  0
  -25.2227  -30.7837   24.2597 C   0  0  0  0  0  0  0  0  0  0  0  0
  -24.7222  -28.9651   22.6735 C   0  0  0  0  0  0  0  0  0  0  0  0
  -27.8910  -14.5191   19.6656 C   0  0  1  0  0  0  0  0  0  0  0  0
  -25.8593  -15.8645   22.5803 C   0  0  1  0  0  0  0  0  0  0  0  0
  -25.3169  -29.7700   21.5052 C   0  0  2  0  0  0  0  0  0  0  0  0
  -20.0734  -13.7773   27.2889 C   0  0  0  0  0  0  0  0  0  0  0  0
  -22.7988  -12.6220   21.3636 C   0  0  0  0  0  0  0  0  0  0  0  0
  -20.8837  -12.2994   22.9437 C   0  0  0  0  0  0  0  0  0  0  0  0
  -23.1547  -11.4661   23.5526 C   0  0  0  0  0  0  0  0  0  0  0  0
  -22.1424  -16.9629   27.5062 C   0  0  0  0  0  0  0  0  0  0  0  0
  -20.6077  -28.9945   24.0039 C   0  0  0  0  0  0  0  0  0  0  0  0
  -21.2163  -24.4227   21.3708 C   0  0  0  0  0  0  0  0  0  0  0  0
  -22.4962  -22.2870   20.9950 C   0  0  0  0  0  0  0  0  0  1  0  0
  -22.7001  -13.9530   23.5738 C   0  0  1  0  0  0  0  0  0  0  0  0
  -21.2661  -14.6778   27.0071 C   0  0  2  0  0  0  0  0  0  0  0  0
  -21.1207  -22.9451   20.9956 C   0  0  1  0  0  0  0  0  0  0  0  0
  -22.3926  -12.6113   22.8509 C   0  0  0  0  0  0  0  0  0  0  0  0
  -26.3761  -27.6768   20.7441 N   0  0  0  0  0  0  0  0  0  0  0  0
  -20.4623  -26.9241   22.6936 N   0  0  0  0  0  0  0  0  0  0  0  0
  -25.8564  -28.8700   20.4089 N   0  0  0  0  0  0  0  0  0  0  0  0
  -24.4595  -15.5426   22.8655 N   0  0  0  0  0  0  0  0  0  0  0  0
  -24.2120  -29.8776   23.7088 N   0  0  0  0  0  0  0  0  0  0  0  0
  -25.4004  -30.2796   18.5608 N   0  0  0  0  0  0  0  0  0  0  0  0
  -27.3011  -26.6508   16.6594 N   0  0  0  0  0  0  0  0  0  0  0  0
  -19.9008  -25.0224   21.3655 N   0  0  0  0  0  0  0  0  0  0  0  0
  -27.4188  -14.9843   20.9521 N   0  0  0  0  0  0  0  0  0  0  0  0
  -22.3507  -13.9624   24.9902 N   0  0  0  0  0  0  0  0  0  0  0  0
  -21.9991  -29.0484   23.6141 N   0  0  0  0  0  0  0  0  0  0  0  0
  -21.0361  -15.9870   27.6809 N   0  3  0  0  0  0  0  0  0  0  0  0
  -26.4015  -28.7177   16.2381 O   0  0  0  0  0  0  0  0  0  0  0  0
  -25.2332  -15.4970   20.3335 O   0  0  0  0  0  0  0  0  0  0  0  0
  -25.0048  -13.5711   23.9846 O   0  0  0  0  0  0  0  0  0  0  0  0
  -20.8910  -15.7607   24.8802 O   0  0  0  0  0  0  0  0  0  0  0  0
  -22.5436  -30.7282   25.0766 O   0  0  0  0  0  0  0  0  0  0  0  0
  -20.3154  -22.2685   21.9631 O   0  0  0  0  0  0  0  0  0  0  0  0
  -29.1245  -22.1110   19.3240 O   0  0  0  0  0  0  0  0  0  0  0  0
  -22.3494  -20.9060   20.6670 O   0  0  0  0  0  0  0  0  0  1  0  0
  -27.3418  -18.6293   15.4377 F   0  0  0  0  0  0  0  0  0  0  0  0
  -28.0236  -19.6683   20.0051 F   0  0  0  0  0  0  0  0  0  0  0  0
  -17.9949  -26.8211   21.9297 S   0  0  0  0  0  0  0  0  0  0  0  0
  1  2  1  0  0  0  0
  1  5  2  0  0  0  0
  2  6  2  0  0  0  0
  3  8  2  0  0  0  0
  3 16  1  0  0  0  0
  4  9  1  0  0  0  0
  4 16  2  0  0  0  0
  5 18  1  0  0  0  0
  6 20  1  0  0  0  0
  7 10  2  0  0  0  0
  7 19  1  0  0  0  0
  8 22  1  0  0  0  0
  9 22  2  0  0  0  0
 10 23  1  0  0  0  0
 11 12  2  0  0  0  0
 11 24  1  0  0  0  0
 12 25  1  0  0  0  0
 13 21  1  0  0  0  0
 13 23  2  0  0  0  0
 14 25  2  0  0  0  0
 14 26  1  0  0  0  0
 15 28  2  0  0  0  0
 15 82  1  0  0  0  0
 16 27  1  0  0  0  0
 17 27  1  0  0  0  0
 17 29  2  0  0  0  0
 17 31  1  0  0  0  0
 18 20  2  0  0  0  0
 18 36  1  0  0  0  0
 19 21  2  0  0  0  0
 19 37  1  0  0  0  0
 20 45  1  0  0  0  0
 21 38  1  0  0  0  0
 22 78  1  0  0  0  0
 23 79  1  0  0  0  0
 24 26  2  0  0  0  0
 24 78  1  0  0  0  0
 25 80  1  0  0  0  0
 26 81  1  0  0  0  0
 27 60  2  0  0  0  0
 28 53  1  0  0  0  0
 28 61  1  0  0  0  0
 29 62  1  0  0  0  0
 29 65  1  0  0  0  0
 30 61  2  0  0  0  0
 30 67  1  0  0  0  0
 30 82  1  0  0  0  0
 31 66  1  0  0  0  0
 31 72  2  0  0  0  0
 32 46  1  0  0  0  0
 32 68  1  0  0  0  0
 32 73  2  0  0  0  0
 33 56  1  0  0  0  0
 33 63  1  0  0  0  0
 33 74  2  0  0  0  0
 34 57  1  0  0  0  0
 34 69  1  0  0  0  0
 34 75  2  0  0  0  0
 35 64  1  0  0  0  0
 35 70  1  0  0  0  0
 35 76  2  0  0  0  0
 36 39  1  0  0  0  0
 37 46  1  0  0  0  0
 38 63  1  0  0  0  0
 39 41  1  0  0  0  0
 40 42  1  0  0  0  0
 40 43  1  0  0  0  0
 41 45  1  0  0  0  0
 42 47  1  0  0  0  0
 43 64  1  0  0  0  0
 44 47  1  0  0  0  0
 44 64  1  0  0  0  0
 45 68  1  0  0  0  0
 46 63  1  0  0  0  0
 47 62  1  0  0  0  0
 48 57  1  0  0  0  0
 49 59  1  0  0  0  0
 50 59  1  0  0  0  0
 51 59  1  0  0  0  0
 52 71  1  0  0  0  0
 53 70  1  0  0  0  0
 54 58  1  0  0  0  0
 54 67  1  0  0  0  0
 55 58  1  0  0  0  0
 55 79  1  0  0  0  0
 56 59  1  0  0  0  0
 56 69  1  0  0  0  0
 57 71  1  0  0  0  0
 58 77  1  0  0  0  0
 60 62  1  0  0  0  0
M  CHG  1  71   1
M  ISO  4  35 100  55 101  70 100  79 101
M  END
> <Batch ID>
0194

> <Smiles>
CNC(C)C(=O)NC(C(=O)N1Cc2cc([101O:1][101CH2:1]C(O)CNc3nc(C[100NH:0][100C:0](=O)N4CCCC(n5nc(-c6ccc(Oc7ccc(F)cc7F)cc6)c(C(N)=O)c5N)C4)cs3)ccc2CC1C(=O)NC1CCCc2ccccc21)C(C)(C)C

> <Shape>
0.216

> <Color>
0.068

> <Negative vol penalty>
0.000

$$$$

  -OEChem-04052305333D

 83 91  0     1  0  0  0  0  0999 V2000
  -36.9408  -24.7289   10.5043 C   0  0  0  0  0  0  0  0  0  0  0  0
  -37.2317  -23.6824   11.3736 C   0  0  0  0  0  0  0  0  0  0  0  0
  -23.3194   -9.7369   19.9393 C   0  0  0  0  0  0  0  0  0  0  0  0
  -23.7883   -9.9222   22.3021 C   0  0  0  0  0  0  0  0  0  0  0  0
  -36.1562  -25.7966   10.9384 C   0  0  0  0  0  0  0  0  0  0  0  0
  -36.7390  -23.7035   12.6779 C   0  0  0  0  0  0  0  0  0  0  0  0
  -34.9509  -18.8906   16.0161 C   0  0  0  0  0  0  0  0  0  0  0  0
  -22.6372   -8.5420   20.1684 C   0  0  0  0  0  0  0  0  0  0  0  0
  -23.1061   -8.7273   22.5312 C   0  0  0  0  0  0  0  0  0  0  0  0
  -35.5914  -18.1447   17.0047 C   0  0  0  0  0  0  0  0  0  0  0  0
  -19.8957   -7.7046   22.7928 C   0  0  0  0  0  0  0  0  0  0  0  0
  -19.0053   -7.6640   23.8656 C   0  0  0  0  0  0  0  0  0  0  0  0
  -34.5240  -19.4873   18.7009 C   0  0  0  0  0  0  0  0  0  0  0  0
  -20.2855   -5.8728   24.8604 C   0  0  0  0  0  0  0  0  0  0  0  0
  -31.5517  -13.6827   26.0172 C   0  0  0  0  0  0  0  0  0  0  0  0
  -23.8950  -10.4270   21.0062 C   0  0  0  0  0  0  0  0  0  0  0  0
  -24.0624  -12.9619   20.7750 C   0  0  0  0  0  0  0  0  0  0  0  0
  -35.6456  -25.8261   12.2457 C   0  0  0  0  0  0  0  0  0  0  0  0
  -34.0991  -19.9492   16.3629 C   0  0  0  0  0  0  0  0  0  0  0  0
  -35.9479  -24.7732   13.1303 C   0  0  0  0  0  0  0  0  0  0  0  0
  -33.8718  -20.2434   17.7149 C   0  0  0  0  0  0  0  0  0  0  0  0
  -22.5305   -8.0372   21.4643 C   0  0  0  0  0  0  0  0  0  0  0  0
  -35.3803  -18.4449   18.3472 C   0  0  0  0  0  0  0  0  0  0  0  0
  -20.9811   -6.8293   22.7537 C   0  0  0  0  0  0  0  0  0  0  0  0
  -19.2001   -6.7481   24.8995 C   0  0  0  0  0  0  0  0  0  0  0  0
  -21.1760   -5.9134   23.7875 C   0  0  0  0  0  0  0  0  0  0  0  0
  -32.8610  -14.1074   25.9189 C   0  0  0  0  0  0  0  0  0  0  0  0
  -24.6003  -11.6610   20.7701 C   0  0  0  0  0  0  0  0  0  0  0  0
  -33.3686  -14.1860   24.6381 C   0  0  0  0  0  0  0  0  0  0  0  0
  -25.1329  -13.7772   20.4995 C   0  0  0  0  0  0  0  0  0  0  0  0
  -31.3966  -13.4753   23.7588 C   0  0  0  0  0  0  0  0  0  0  0  0
  -22.7155  -13.3948   21.0079 C   0  0  0  0  0  0  0  0  0  0  0  0
  -34.0916  -23.0849   15.8426 C   0  0  0  0  0  0  0  0  0  0  0  0
  -31.1775  -22.9192   17.2577 C   0  0  0  0  0  0  0  0  0  0  0  0
  -29.0667  -21.2501   19.3568 C   0  0  0  0  0  0  0  0  0  0  0  0
  -31.0264  -13.1810   21.2844 C   0  0  0  0  0  0  0  0  0  0  0  0
  -34.8414  -27.0243   12.6840 C   0  0  0  0  0  0  0  0  0  0  0  0
  -33.3948  -20.7270   15.2852 C   0  0  0  0  0  0  0  0  0  0  0  0
  -32.9511  -21.3569   18.1403 C   0  0  0  0  0  0  0  0  0  0  0  0
  -34.0467  -26.7887   13.9659 C   0  0  0  0  0  0  0  0  0  0  0  0
  -29.3386  -13.7895   18.2090 C   0  0  0  0  0  0  0  0  0  0  0  0
  -34.9223  -26.1211   15.0216 C   0  0  0  0  0  0  0  0  0  0  0  0
  -27.8820  -13.4370   18.5190 C   0  0  0  0  0  0  0  0  0  0  0  0
  -30.3129  -12.8568   18.9263 C   0  0  0  0  0  0  0  0  0  0  0  0
  -28.6532  -12.3903   20.6861 C   0  0  0  0  0  0  0  0  0  0  0  0
  -35.4112  -24.7480   14.5450 C   0  0  1  0  0  0  0  0  0  0  0  0
  -32.9502  -22.1129   15.7422 C   0  0  1  0  0  0  0  0  0  0  0  0
  -27.6357  -13.3430   20.0375 C   0  0  2  0  0  0  0  0  0  0  0  0
  -26.7641  -21.3784   20.3461 C   0  0  0  0  0  0  0  0  0  0  0  0
  -32.1286  -25.0857   19.1843 C   0  0  0  0  0  0  0  0  0  0  0  0
  -30.2103  -24.4981   20.6821 C   0  0  0  0  0  0  0  0  0  0  0  0
  -29.7759  -25.3622   18.3827 C   0  0  0  0  0  0  0  0  0  0  0  0
  -28.2612  -18.6913   18.1069 C   0  0  0  0  0  0  0  0  0  0  0  0
  -34.9997  -16.0691   22.5565 C   0  0  0  0  0  0  0  0  0  0  0  0
  -35.7203  -16.2658   21.2220 C   0  0  0  0  0  0  0  0  0  0  0  0
  -35.3455  -14.7383   23.2194 C   0  0  0  0  0  0  0  0  0  0  0  0
  -35.3277  -17.5821   20.5628 C   0  0  0  0  0  0  0  0  0  1  0  0
  -30.6709  -23.0160   18.6765 C   0  0  1  0  0  0  0  0  0  0  0  0
  -27.6133  -20.8387   19.2058 C   0  0  2  0  0  0  0  0  0  0  0  0
  -30.7153  -24.4707   19.2237 C   0  0  0  0  0  0  0  0  0  0  0  0
  -30.7874  -13.3572   24.9540 N   0  0  0  0  0  0  0  0  0  0  0  0
  -25.9107  -11.6458   20.5118 N   0  0  0  0  0  0  0  0  0  0  0  0
  -32.6619  -13.8763   23.5313 N   0  0  0  0  0  0  0  0  0  0  0  0
  -26.2051  -12.9473   20.3517 N   0  0  0  0  0  0  0  0  0  0  0  0
  -32.2905  -22.0925   17.0493 N   0  0  0  0  0  0  0  0  0  0  0  0
  -30.0219  -12.8215   20.3612 N   0  0  0  0  0  0  0  0  0  0  0  0
  -25.2522  -15.1157   20.3716 N   0  0  0  0  0  0  0  0  0  0  0  0
  -21.7394  -12.4257   21.2769 N   0  0  0  0  0  0  0  0  0  0  0  0
  -34.6809  -14.6077   24.4942 N   0  0  0  0  0  0  0  0  0  0  0  0
  -30.6241  -13.1409   22.6190 N   0  0  0  0  0  0  0  0  0  0  0  0
  -34.3564  -23.7649   14.6691 N   0  0  0  0  0  0  0  0  0  0  0  0
  -29.3402  -22.4180   18.6766 N   0  0  0  0  0  0  0  0  0  0  0  0
  -27.4941  -19.3532   19.1934 N   0  3  0  0  0  0  0  0  0  0  0  0
  -22.3841  -14.6038   20.9621 O   0  0  0  0  0  0  0  0  0  0  0  0
  -34.6870  -23.2099   16.9063 O   0  0  0  0  0  0  0  0  0  0  0  0
  -30.6022  -23.5481   16.3660 O   0  0  0  0  0  0  0  0  0  0  0  0
  -29.8774  -20.6025   20.0155 O   0  0  0  0  0  0  0  0  0  0  0  0
  -32.1520  -13.5272   20.9166 O   0  0  0  0  0  0  0  0  0  0  0  0
  -21.8647   -6.8714   21.6883 O   0  0  0  0  0  0  0  0  0  0  0  0
  -36.0047  -17.7189   19.3141 O   0  0  0  0  0  0  0  0  0  1  0  0
  -18.3458   -6.7102   25.9304 F   0  0  0  0  0  0  0  0  0  0  0  0
  -22.2175   -5.0707   23.7561 F   0  0  0  0  0  0  0  0  0  0  0  0
  -33.5795  -14.4189   27.0027 F   0  0  0  0  0  0  0  0  0  0  0  0
  1  2  1  0  0  0  0
  1  5  2  0  0  0  0
  2  6  2  0  0  0  0
  3  8  2  0  0  0  0
  3 16  1  0  0  0  0
  4  9  1  0  0  0  0
  4 16  2  0  0  0  0
  5 18  1  0  0  0  0
  6 20  1  0  0  0  0
  7 10  2  0  0  0  0
  7 19  1  0  0  0  0
  8 22  1  0  0  0  0
  9 22  2  0  0  0  0
 10 23  1  0  0  0  0
 11 12  2  0  0  0  0
 11 24  1  0  0  0  0
 12 25  1  0  0  0  0
 13 21  1  0  0  0  0
 13 23  2  0  0  0  0
 14 25  2  0  0  0  0
 14 26  1  0  0  0  0
 15 27  1  0  0  0  0
 15 61  2  0  0  0  0
 16 28  1  0  0  0  0
 17 28  1  0  0  0  0
 17 30  2  0  0  0  0
 17 32  1  0  0  0  0
 18 20  2  0  0  0  0
 18 37  1  0  0  0  0
 19 21  2  0  0  0  0
 19 38  1  0  0  0  0
 20 46  1  0  0  0  0
 21 39  1  0  0  0  0
 22 79  1  0  0  0  0
 23 80  1  0  0  0  0
 24 26  2  0  0  0  0
 24 79  1  0  0  0  0
 25 81  1  0  0  0  0
 26 82  1  0  0  0  0
 27 29  2  0  0  0  0
 27 83  1  0  0  0  0
 28 62  2  0  0  0  0
 29 63  1  0  0  0  0
 29 69  1  0  0  0  0
 30 64  1  0  0  0  0
 30 67  1  0  0  0  0
 31 61  1  0  0  0  0
 31 63  2  0  0  0  0
 31 70  1  0  0  0  0
 32 68  1  0  0  0  0
 32 74  2  0  0  0  0
 33 47  1  0  0  0  0
 33 71  1  0  0  0  0
 33 75  2  0  0  0  0
 34 58  1  0  0  0  0
 34 65  1  0  0  0  0
 34 76  2  0  0  0  0
 35 59  1  0  0  0  0
 35 72  1  0  0  0  0
 35 77  2  0  0  0  0
 36 66  1  0  0  0  0
 36 70  1  0  0  0  0
 36 78  2  0  0  0  0
 37 40  1  0  0  0  0
 38 47  1  0  0  0  0
 39 65  1  0  0  0  0
 40 42  1  0  0  0  0
 41 43  1  0  0  0  0
 41 44  1  0  0  0  0
 42 46  1  0  0  0  0
 43 48  1  0  0  0  0
 44 66  1  0  0  0  0
 45 48  1  0  0  0  0
 45 66  1  0  0  0  0
 46 71  1  0  0  0  0
 47 65  1  0  0  0  0
 48 64  1  0  0  0  0
 49 59  1  0  0  0  0
 50 60  1  0  0  0  0
 51 60  1  0  0  0  0
 52 60  1  0  0  0  0
 53 73  1  0  0  0  0
 54 55  1  0  0  0  0
 54 56  1  0  0  0  0
 55 57  1  0  0  0  0
 56 69  1  0  0  0  0
 57 80  1  0  0  0  0
 58 60  1  0  0  0  0
 58 72  1  0  0  0  0
 59 73  1  0  0  0  0
 62 64  1  0  0  0  0
M  CHG  1  73   1
M  ISO  4  36 100  57 101  70 100  80 101
M  END
> <Batch ID>
0194

> <Smiles>
CNC(C)C(=O)NC(C(=O)N1Cc2cc([101O:1][101CH2:1]CCCNc3nc([100NH:0][100C:0](=O)N4CCCC(n5nc(-c6ccc(Oc7ccc(F)cc7F)cc6)c(C(N)=O)c5N)C4)ncc3F)ccc2CC1C(=O)NC1CCCc2ccccc21)C(C)(C)C

> <Shape>
0.201

> <Color>
0.185

> <Negative vol penalty>
0.000

$$$$

  -OEChem-04052305333D

 83 91  0     1  0  0  0  0  0999 V2000
  -31.6239  -21.4776   23.4325 C   0  0  0  0  0  0  0  0  0  0  0  0
  -30.3373  -21.9276   23.1541 C   0  0  0  0  0  0  0  0  0  0  0  0
  -31.2548  -27.4832   19.3951 C   0  0  0  0  0  0  0  0  0  0  0  0
  -30.9307  -26.8722   21.7100 C   0  0  0  0  0  0  0  0  0  0  0  0
  -32.1190  -20.3439   22.7894 C   0  0  0  0  0  0  0  0  0  0  0  0
  -29.5454  -21.2449   22.2315 C   0  0  0  0  0  0  0  0  0  0  0  0
  -24.7974  -20.5802   23.8624 C   0  0  0  0  0  0  0  0  0  0  0  0
  -32.5477  -27.9156   19.6902 C   0  0  0  0  0  0  0  0  0  0  0  0
  -32.2236  -27.3045   22.0051 C   0  0  0  0  0  0  0  0  0  0  0  0
  -23.9370  -21.6742   23.7804 C   0  0  0  0  0  0  0  0  0  0  0  0
  -35.5666  -27.9135   23.2982 C   0  0  0  0  0  0  0  0  0  0  0  0
  -36.3568  -27.0945   24.1046 C   0  0  0  0  0  0  0  0  0  0  0  0
  -22.9789  -20.7618   21.7633 C   0  0  0  0  0  0  0  0  0  0  0  0
  -36.1692  -25.3150   22.4812 C   0  0  0  0  0  0  0  0  0  0  0  0
  -18.4793  -26.3221   22.8099 C   0  0  0  0  0  0  0  0  0  0  0  0
  -30.4463  -26.9615   20.4050 C   0  0  0  0  0  0  0  0  0  0  0  0
  -28.7153  -25.2234   19.7048 C   0  0  0  0  0  0  0  0  0  0  0  0
  -31.3293  -19.6413   21.8656 C   0  0  0  0  0  0  0  0  0  0  0  0
  -24.7624  -19.5725   22.8878 C   0  0  0  0  0  0  0  0  0  0  0  0
  -30.0309  -20.1015   21.5744 C   0  0  0  0  0  0  0  0  0  0  0  0
  -23.8382  -19.6548   21.8366 C   0  0  0  0  0  0  0  0  0  0  0  0
  -33.0321  -27.8262   20.9952 C   0  0  0  0  0  0  0  0  0  0  0  0
  -23.0296  -21.7665   22.7291 C   0  0  0  0  0  0  0  0  0  0  0  0
  -35.0775  -27.4333   22.0833 C   0  0  0  0  0  0  0  0  0  0  0  0
  -36.6582  -25.7953   23.6961 C   0  0  0  0  0  0  0  0  0  0  0  0
  -35.3789  -26.1340   21.6748 C   0  0  0  0  0  0  0  0  0  0  0  0
  -29.1105  -26.5152   20.1009 C   0  0  0  0  0  0  0  0  0  0  0  0
  -18.1165  -27.5598   23.3008 C   0  0  0  0  0  0  0  0  0  0  0  0
  -19.7745  -26.2206   22.3450 C   0  0  0  0  0  0  0  0  0  0  0  0
  -27.3549  -25.3161   19.5396 C   0  0  0  0  0  0  0  0  0  0  0  0
  -20.1827  -28.3972   22.8574 C   0  0  0  0  0  0  0  0  0  0  0  0
  -29.5071  -24.0451   19.5042 C   0  0  0  0  0  0  0  0  0  0  0  0
  -26.8356  -18.4315   20.7656 C   0  0  0  0  0  0  0  0  0  0  0  0
  -24.5005  -16.2413   20.2435 C   0  0  0  0  0  0  0  0  0  0  0  0
  -21.1859  -15.4454   20.4068 C   0  0  0  0  0  0  0  0  0  0  0  0
  -23.3356  -28.9070   21.9493 C   0  0  0  0  0  0  0  0  0  0  0  0
  -31.9250  -18.4486   21.1604 C   0  0  0  0  0  0  0  0  0  0  0  0
  -25.6789  -18.3856   23.0052 C   0  0  0  0  0  0  0  0  0  0  0  0
  -23.7467  -18.5894   20.7758 C   0  0  0  0  0  0  0  0  0  0  0  0
  -30.8861  -17.5649   20.4748 C   0  0  0  0  0  0  0  0  0  0  0  0
  -23.9253  -28.4566   18.4071 C   0  0  0  0  0  0  0  0  0  0  0  0
  -29.9019  -18.4168   19.6795 C   0  0  0  0  0  0  0  0  0  0  0  0
  -25.2967  -27.7789   18.4109 C   0  0  0  0  0  0  0  0  0  0  0  0
  -23.8280  -29.5134   19.5034 C   0  0  0  0  0  0  0  0  0  0  0  0
  -25.4960  -28.3313   20.8797 C   0  0  0  0  0  0  0  0  0  0  0  0
  -29.1325  -19.3735   20.5982 C   0  0  1  0  0  0  0  0  0  0  0  0
  -25.9094  -17.6749   21.6751 C   0  0  1  0  0  0  0  0  0  0  0  0
  -25.6499  -27.2364   19.8085 C   0  0  2  0  0  0  0  0  0  0  0  0
  -19.5753  -13.5968   19.8721 C   0  0  0  0  0  0  0  0  0  0  0  0
  -21.5916  -25.3028   19.9079 C   0  0  0  0  0  0  0  0  0  0  0  0
  -24.6578  -16.9638   17.2833 C   0  0  0  0  0  0  0  0  0  0  0  0
  -22.4478  -15.8323   16.9612 C   0  0  0  0  0  0  0  0  0  0  0  0
  -24.4166  -14.5185   17.7489 C   0  0  0  0  0  0  0  0  0  0  0  0
  -20.3819  -15.1690   23.2416 C   0  0  0  0  0  0  0  0  0  0  0  0
  -21.1286  -29.5495   22.8838 C   0  0  0  0  0  0  0  0  0  0  0  0
  -21.7839  -23.2414   21.3403 C   0  0  0  0  0  0  0  0  0  1  0  0
  -23.3047  -16.1515   19.3266 C   0  0  1  0  0  0  0  0  0  0  0  0
  -20.4702  -14.2152   20.9348 C   0  0  2  0  0  0  0  0  0  0  0  0
  -21.5050  -24.7428   21.3215 C   0  0  2  0  0  0  0  0  0  0  0  0
  -23.7095  -15.8877   17.8488 C   0  0  0  0  0  0  0  0  0  0  0  0
  -28.0841  -27.3662   20.1823 N   0  0  0  0  0  0  0  0  0  0  0  0
  -18.9458  -28.6232   23.3398 N   0  0  0  0  0  0  0  0  0  0  0  0
  -20.6564  -27.2417   22.3535 N   0  0  0  0  0  0  0  0  0  0  0  0
  -27.0306  -26.6075   19.8350 N   0  0  0  0  0  0  0  0  0  0  0  0
  -24.6682  -17.4518   20.9309 N   0  0  0  0  0  0  0  0  0  0  0  0
  -24.1579  -28.9282   20.8106 N   0  0  0  0  0  0  0  0  0  0  0  0
  -16.7946  -27.7065   23.7879 N   0  0  0  0  0  0  0  0  0  0  0  0
  -26.4164  -24.4180   19.1720 N   0  0  0  0  0  0  0  0  0  0  0  0
  -30.8899  -24.1249   19.7181 N   0  0  0  0  0  0  0  0  0  0  0  0
  -20.1774  -24.9962   21.8446 N   0  0  0  0  0  0  0  0  0  0  0  0
  -28.0867  -18.6646   21.3041 N   0  0  0  0  0  0  0  0  0  0  0  0
  -22.4286  -15.1338   19.8968 N   0  0  0  0  0  0  0  0  0  0  0  0
  -22.0872  -29.4991   21.8024 N   0  0  0  0  0  0  0  0  0  0  0  0
  -19.6265  -14.5715   22.1105 N   0  3  0  0  0  0  0  0  0  0  0  0
  -29.0055  -22.9580   19.1300 O   0  0  0  0  0  0  0  0  0  0  0  0
  -26.4447  -18.7769   19.6567 O   0  0  0  0  0  0  0  0  0  0  0  0
  -25.2540  -15.2706   20.3516 O   0  0  0  0  0  0  0  0  0  0  0  0
  -20.6905  -16.5697   20.4397 O   0  0  0  0  0  0  0  0  0  0  0  0
  -23.6860  -28.3932   23.0172 O   0  0  0  0  0  0  0  0  0  0  0  0
  -34.2937  -28.2478   21.2835 O   0  0  0  0  0  0  0  0  0  0  0  0
  -22.1891  -22.8336   22.6464 O   0  0  0  0  0  0  0  0  0  1  0  0
  -37.4184  -25.0095   24.4699 F   0  0  0  0  0  0  0  0  0  0  0  0
  -34.9130  -25.6675   20.5082 F   0  0  0  0  0  0  0  0  0  0  0  0
  1  2  1  0  0  0  0
  1  5  2  0  0  0  0
  2  6  2  0  0  0  0
  3  8  2  0  0  0  0
  3 16  1  0  0  0  0
  4  9  1  0  0  0  0
  4 16  2  0  0  0  0
  5 18  1  0  0  0  0
  6 20  1  0  0  0  0
  7 10  2  0  0  0  0
  7 19  1  0  0  0  0
  8 22  1  0  0  0  0
  9 22  2  0  0  0  0
 10 23  1  0  0  0  0
 11 12  2  0  0  0  0
 11 24  1  0  0  0  0
 12 25  1  0  0  0  0
 13 21  1  0  0  0  0
 13 23  2  0  0  0  0
 14 25  2  0  0  0  0
 14 26  1  0  0  0  0
 15 28  2  0  0  0  0
 15 29  1  0  0  0  0
 16 27  1  0  0  0  0
 17 27  1  0  0  0  0
 17 30  2  0  0  0  0
 17 32  1  0  0  0  0
 18 20  2  0  0  0  0
 18 37  1  0  0  0  0
 19 21  2  0  0  0  0
 19 38  1  0  0  0  0
 20 46  1  0  0  0  0
 21 39  1  0  0  0  0
 22 80  1  0  0  0  0
 23 81  1  0  0  0  0
 24 26  2  0  0  0  0
 24 80  1  0  0  0  0
 25 82  1  0  0  0  0
 26 83  1  0  0  0  0
 27 61  2  0  0  0  0
 28 62  1  0  0  0  0
 28 67  1  0  0  0  0
 29 63  2  0  0  0  0
 29 70  1  0  0  0  0
 30 64  1  0  0  0  0
 30 68  1  0  0  0  0
 31 55  1  0  0  0  0
 31 62  2  0  0  0  0
 31 63  1  0  0  0  0
 32 69  1  0  0  0  0
 32 75  2  0  0  0  0
 33 47  1  0  0  0  0
 33 71  1  0  0  0  0
 33 76  2  0  0  0  0
 34 57  1  0  0  0  0
 34 65  1  0  0  0  0
 34 77  2  0  0  0  0
 35 58  1  0  0  0  0
 35 72  1  0  0  0  0
 35 78  2  0  0  0  0
 36 66  1  0  0  0  0
 36 73  1  0  0  0  0
 36 79  2  0  0  0  0
 37 40  1  0  0  0  0
 38 47  1  0  0  0  0
 39 65  1  0  0  0  0
 40 42  1  0  0  0  0
 41 43  1  0  0  0  0
 41 44  1  0  0  0  0
 42 46  1  0  0  0  0
 43 48  1  0  0  0  0
 44 66  1  0  0  0  0
 45 48  1  0  0  0  0
 45 66  1  0  0  0  0
 46 71  1  0  0  0  0
 47 65  1  0  0  0  0
 48 64  1  0  0  0  0
 49 58  1  0  0  0  0
 50 59  1  0  0  0  0
 51 60  1  0  0  0  0
 52 60  1  0  0  0  0
 53 60  1  0  0  0  0
 54 74  1  0  0  0  0
 55 73  1  0  0  0  0
 56 59  1  0  0  0  0
 56 81  1  0  0  0  0
 57 60  1  0  0  0  0
 57 72  1  0  0  0  0
 58 74  1  0  0  0  0
 59 70  1  0  0  0  0
 61 64  1  0  0  0  0
M  CHG  1  74   1
M  ISO  4  36 100  56 101  73 100  81 101
M  END
> <Batch ID>
0194

> <Smiles>
CNC(C)C(=O)NC(C(=O)N1Cc2cc([101O:1][101CH2:1]C(C)Nc3cc(N)nc(C[100NH:0][100C:0](=O)N4CCCC(n5nc(-c6ccc(Oc7ccc(F)cc7F)cc6)c(C(N)=O)c5N)C4)n3)ccc2CC1C(=O)NC1CCCc2ccccc21)C(C)(C)C

> <Shape>
0.191

> <Color>
0.086

> <Negative vol penalty>
0.000

$$$$

  -OEChem-04052305333D

 84 92  0     1  0  0  0  0  0999 V2000
  -32.2897  -24.9780   23.6500 C   0  0  0  0  0  0  0  0  0  0  0  0
  -31.7987  -25.1751   22.3634 C   0  0  0  0  0  0  0  0  0  0  0  0
  -26.3558  -12.8841   21.5795 C   0  0  0  0  0  0  0  0  0  0  0  0
  -25.6677  -13.8927   19.4948 C   0  0  0  0  0  0  0  0  0  0  0  0
  -31.4121  -24.6817   24.6921 C   0  0  0  0  0  0  0  0  0  0  0  0
  -30.4297  -25.0751   22.1179 C   0  0  0  0  0  0  0  0  0  0  0  0
  -28.7017  -28.8284   19.1901 C   0  0  0  0  0  0  0  0  0  0  0  0
  -25.1445  -12.1957   21.6463 C   0  0  0  0  0  0  0  0  0  0  0  0
  -24.4564  -13.2043   19.5615 C   0  0  0  0  0  0  0  0  0  0  0  0
  -28.9469  -28.7323   17.8210 C   0  0  0  0  0  0  0  0  0  0  0  0
  -23.7637   -9.4426   20.2509 C   0  0  0  0  0  0  0  0  0  0  0  0
  -23.8042   -8.0913   20.5941 C   0  0  0  0  0  0  0  0  0  0  0  0
  -26.6980  -27.9286   17.4807 C   0  0  0  0  0  0  0  0  0  0  0  0
  -22.4223   -8.5401   22.5244 C   0  0  0  0  0  0  0  0  0  0  0  0
  -29.0021  -24.0110   18.1082 C   0  0  0  0  0  0  0  0  0  0  0  0
  -26.6174  -13.7326   20.5038 C   0  0  0  0  0  0  0  0  0  0  0  0
  -28.4446  -23.8060   16.8626 C   0  0  0  0  0  0  0  0  0  0  0  0
  -29.0621  -14.0084   19.8292 C   0  0  0  0  0  0  0  0  0  0  0  0
  -30.0306  -24.5876   24.4611 C   0  0  0  0  0  0  0  0  0  0  0  0
  -27.4542  -28.4643   19.7170 C   0  0  0  0  0  0  0  0  0  0  0  0
  -29.5329  -24.7760   23.1576 C   0  0  0  0  0  0  0  0  0  0  0  0
  -26.4387  -28.0234   18.8565 C   0  0  0  0  0  0  0  0  0  0  0  0
  -24.1948  -12.3557   20.6373 C   0  0  0  0  0  0  0  0  0  0  0  0
  -27.9460  -28.2797   16.9664 C   0  0  0  0  0  0  0  0  0  0  0  0
  -23.0526  -10.3428   21.0445 C   0  0  0  0  0  0  0  0  0  0  0  0
  -23.1334   -7.6400   21.7308 C   0  0  0  0  0  0  0  0  0  0  0  0
  -22.3819   -9.8915   22.1812 C   0  0  0  0  0  0  0  0  0  0  0  0
  -27.8682  -14.4445   20.4345 C   0  0  0  0  0  0  0  0  0  0  0  0
  -27.9813  -22.5292   16.6188 C   0  0  0  0  0  0  0  0  0  0  0  0
  -29.9472  -15.0384   20.0345 C   0  0  0  0  0  0  0  0  0  0  0  0
  -28.6165  -21.8484   18.6925 C   0  0  0  0  0  0  0  0  0  0  0  0
  -28.3654  -24.9029   15.8772 C   0  0  0  0  0  0  0  0  0  0  0  0
  -29.3456  -12.7820   19.1428 C   0  0  0  0  0  0  0  0  0  0  0  0
  -26.4452  -26.2648   21.7781 C   0  0  0  0  0  0  0  0  0  0  0  0
  -23.6044  -27.7877   21.4138 C   0  0  0  0  0  0  0  0  0  0  0  0
  -21.6028  -29.7622   19.4795 C   0  0  0  0  0  0  0  0  0  0  0  0
  -29.2469  -20.9030   20.9408 C   0  0  0  0  0  0  0  0  0  0  0  0
  -29.1260  -24.2186   25.6101 C   0  0  0  0  0  0  0  0  0  0  0  0
  -27.1970  -28.5990   21.1929 C   0  0  0  0  0  0  0  0  0  0  0  0
  -25.0757  -27.6395   19.3696 C   0  0  0  0  0  0  0  0  0  0  0  0
  -27.6505  -24.5000   25.3383 C   0  0  0  0  0  0  0  0  0  0  0  0
  -30.9059  -18.5993   23.0898 C   0  0  0  0  0  0  0  0  0  0  0  0
  -27.2552  -23.9887   23.9565 C   0  0  0  0  0  0  0  0  0  0  0  0
  -30.4286  -17.2325   22.5937 C   0  0  0  0  0  0  0  0  0  0  0  0
  -29.7983  -19.6487   23.0139 C   0  0  0  0  0  0  0  0  0  0  0  0
  -28.6753  -18.4092   21.2051 C   0  0  0  0  0  0  0  0  0  0  0  0
  -28.0518  -24.7004   22.8563 C   0  0  1  0  0  0  0  0  0  0  0  0
  -26.0562  -27.7130   21.6838 C   0  0  1  0  0  0  0  0  0  0  0  0
  -29.7751  -17.3350   21.2016 C   0  0  2  0  0  0  0  0  0  0  0  0
  -19.3213  -30.8062   19.4306 C   0  0  0  0  0  0  0  0  0  0  0  0
  -30.0470  -29.0621   14.3778 C   0  0  0  0  0  0  0  0  0  0  0  0
  -22.3816  -25.0774   20.7291 C   0  0  0  0  0  0  0  0  0  0  0  0
  -20.4027  -26.2867   19.7858 C   0  0  0  0  0  0  0  0  0  0  0  0
  -20.9664  -26.5175   22.2048 C   0  0  0  0  0  0  0  0  0  0  0  0
  -22.7292  -32.4970   19.3748 C   0  0  0  0  0  0  0  0  0  0  0  0
  -29.5547  -26.5720   14.5002 C   0  0  0  0  0  0  0  0  0  0  0  0
  -22.4280  -27.6466   20.4783 C   0  0  1  0  0  0  0  0  0  0  0  0
  -20.7816  -30.9953   19.8108 C   0  0  2  0  0  0  0  0  0  0  0  0
  -29.5239  -27.9109   15.2257 C   0  0  2  0  0  0  0  0  0  1  0  0
  -21.5709  -26.3874   20.7898 C   0  0  0  0  0  0  0  0  0  0  0  0
  -29.1046  -23.0512   19.0508 N   0  0  0  0  0  0  0  0  0  0  0  0
  -27.9812  -15.6569   20.9832 N   0  0  0  0  0  0  0  0  0  0  0  0
  -28.0516  -21.5224   17.5142 N   0  0  0  0  0  0  0  0  0  0  0  0
  -29.2567  -15.9915   20.7236 N   0  0  0  0  0  0  0  0  0  0  0  0
  -24.8750  -27.7825   20.8211 N   0  0  0  0  0  0  0  0  0  0  0  0
  -29.2291  -19.6923   21.6652 N   0  0  0  0  0  0  0  0  0  0  0  0
  -27.3977  -22.2569   15.3566 N   0  0  0  0  0  0  0  0  0  0  0  0
  -31.2410  -15.2127   19.6909 N   0  0  0  0  0  0  0  0  0  0  0  0
  -27.1604  -25.2688   15.4401 N   0  0  0  0  0  0  0  0  0  0  0  0
  -28.3223  -11.8320   19.0219 N   0  0  0  0  0  0  0  0  0  0  0  0
  -28.7076  -20.8152   19.6579 N   0  0  0  0  0  0  0  0  0  0  0  0
  -27.5149  -26.0232   22.6189 N   0  0  0  0  0  0  0  0  0  0  0  0
  -21.6923  -28.9041   20.5551 N   0  0  0  0  0  0  0  0  0  0  0  0
  -29.5047  -25.4741   15.4696 N   0  3  0  0  0  0  0  0  0  0  0  0
  -21.3085  -32.1809   19.0775 N   0  3  0  0  0  0  0  0  0  0  0  0
  -30.4778  -12.5289   18.6656 O   0  0  0  0  0  0  0  0  0  0  0  0
  -25.8203  -25.4283   21.1368 O   0  0  0  0  0  0  0  0  0  0  0  0
  -23.4031  -27.9056   22.6251 O   0  0  0  0  0  0  0  0  0  0  0  0
  -22.1107  -29.5769   18.3758 O   0  0  0  0  0  0  0  0  0  0  0  0
  -29.7316  -21.9346   21.4128 O   0  0  0  0  0  0  0  0  0  0  0  0
  -23.0128  -11.6840   20.7020 O   0  0  0  0  0  0  0  0  0  0  0  0
  -28.1829  -28.1844   15.6298 O   0  0  0  0  0  0  0  0  0  1  0  0
  -23.1711   -6.3420   22.0594 F   0  0  0  0  0  0  0  0  0  0  0  0
  -21.6961  -10.7514   22.9468 F   0  0  0  0  0  0  0  0  0  0  0  0
  1  2  1  0  0  0  0
  1  5  2  0  0  0  0
  2  6  2  0  0  0  0
  3  8  2  0  0  0  0
  3 16  1  0  0  0  0
  4  9  1  0  0  0  0
  4 16  2  0  0  0  0
  5 19  1  0  0  0  0
  6 21  1  0  0  0  0
  7 10  2  0  0  0  0
  7 20  1  0  0  0  0
  8 23  1  0  0  0  0
  9 23  2  0  0  0  0
 10 24  1  0  0  0  0
 11 12  2  0  0  0  0
 11 25  1  0  0  0  0
 12 26  1  0  0  0  0
 13 22  1  0  0  0  0
 13 24  2  0  0  0  0
 14 26  2  0  0  0  0
 14 27  1  0  0  0  0
 15 17  1  0  0  0  0
 15 61  2  0  0  0  0
 16 28  1  0  0  0  0
 17 29  2  0  0  0  0
 17 32  1  0  0  0  0
 18 28  1  0  0  0  0
 18 30  2  0  0  0  0
 18 33  1  0  0  0  0
 19 21  2  0  0  0  0
 19 38  1  0  0  0  0
 20 22  2  0  0  0  0
 20 39  1  0  0  0  0
 21 47  1  0  0  0  0
 22 40  1  0  0  0  0
 23 81  1  0  0  0  0
 24 82  1  0  0  0  0
 25 27  2  0  0  0  0
 25 81  1  0  0  0  0
 26 83  1  0  0  0  0
 27 84  1  0  0  0  0
 28 62  2  0  0  0  0
 29 63  1  0  0  0  0
 29 67  1  0  0  0  0
 30 64  1  0  0  0  0
 30 68  1  0  0  0  0
 31 61  1  0  0  0  0
 31 63  2  0  0  0  0
 31 71  1  0  0  0  0
 32 69  1  0  0  0  0
 32 74  2  0  0  0  0
 33 70  1  0  0  0  0
 33 76  2  0  0  0  0
 34 48  1  0  0  0  0
 34 72  1  0  0  0  0
 34 77  2  0  0  0  0
 35 57  1  0  0  0  0
 35 65  1  0  0  0  0
 35 78  2  0  0  0  0
 36 58  1  0  0  0  0
 36 73  1  0  0  0  0
 36 79  2  0  0  0  0
 37 66  1  0  0  0  0
 37 71  1  0  0  0  0
 37 80  2  0  0  0  0
 38 41  1  0  0  0  0
 39 48  1  0  0  0  0
 40 65  1  0  0  0  0
 41 43  1  0  0  0  0
 42 44  1  0  0  0  0
 42 45  1  0  0  0  0
 43 47  1  0  0  0  0
 44 49  1  0  0  0  0
 45 66  1  0  0  0  0
 46 49  1  0  0  0  0
 46 66  1  0  0  0  0
 47 72  1  0  0  0  0
 48 65  1  0  0  0  0
 49 64  1  0  0  0  0
 50 58  1  0  0  0  0
 51 59  1  0  0  0  0
 52 60  1  0  0  0  0
 53 60  1  0  0  0  0
 54 60  1  0  0  0  0
 55 75  1  0  0  0  0
 56 59  1  0  0  0  0
 56 74  1  0  0  0  0
 57 60  1  0  0  0  0
 57 73  1  0  0  0  0
 58 75  1  0  0  0  0
 59 82  1  0  0  0  0
 62 64  1  0  0  0  0
M  CHG  2  74   1  75   1
M  ISO  4  37 100  59 101  71 100  82 101
M  END
> <Batch ID>
0194

> <Smiles>
CNC(C)C(=O)NC(C(=O)N1Cc2cc([101O:1][101CH:1](C)CNC(=N)c3cnc([100NH:0][100C:0](=O)N4CCCC(n5nc(-c6ccc(Oc7ccc(F)cc7F)cc6)c(C(N)=O)c5N)C4)nc3N)ccc2CC1C(=O)NC1CCCc2ccccc21)C(C)(C)C

> <Shape>
0.219

> <Color>
0.078

> <Negative vol penalty>
0.000

$$$$

  -OEChem-04052305333D

 87 95  0     1  0  0  0  0  0999 V2000
  -25.6424  -13.6376   23.8848 C   0  0  0  0  0  0  0  0  0  0  0  0
  -27.0213  -13.7756   23.7628 C   0  0  0  0  0  0  0  0  0  0  0  0
  -23.0095   -9.8703   20.0207 C   0  0  0  0  0  0  0  0  0  0  0  0
  -23.8236   -9.9523   22.2940 C   0  0  0  0  0  0  0  0  0  0  0  0
  -24.8369  -14.7701   23.9974 C   0  0  0  0  0  0  0  0  0  0  0  0
  -27.5956  -15.0463   23.7524 C   0  0  0  0  0  0  0  0  0  0  0  0
  -33.0216  -16.6535   26.0934 C   0  0  0  0  0  0  0  0  0  0  0  0
  -22.2759   -8.7236   20.3248 C   0  0  0  0  0  0  0  0  0  0  0  0
  -23.0899   -8.8057   22.5981 C   0  0  0  0  0  0  0  0  0  0  0  0
  -34.2765  -16.8355   25.5138 C   0  0  0  0  0  0  0  0  0  0  0  0
  -23.3792   -5.4684   22.1397 C   0  0  0  0  0  0  0  0  0  0  0  0
  -24.0152   -4.4682   22.8750 C   0  0  0  0  0  0  0  0  0  0  0  0
  -33.8502  -19.2042   25.3494 C   0  0  0  0  0  0  0  0  0  0  0  0
  -22.3541   -4.6913   24.6152 C   0  0  0  0  0  0  0  0  0  0  0  0
  -29.4648  -18.2957   20.9802 C   0  0  0  0  0  0  0  0  0  0  0  0
  -23.7834  -10.4846   21.0053 C   0  0  0  0  0  0  0  0  0  0  0  0
  -24.1134  -13.0056   20.7971 C   0  0  0  0  0  0  0  0  0  0  0  0
  -25.4025  -16.0549   23.9981 C   0  0  0  0  0  0  0  0  0  0  0  0
  -32.1658  -17.7457   26.2958 C   0  0  0  0  0  0  0  0  0  0  0  0
  -26.7968  -16.1970   23.8638 C   0  0  0  0  0  0  0  0  0  0  0  0
  -32.5860  -19.0337   25.9342 C   0  0  0  0  0  0  0  0  0  0  0  0
  -22.3160   -8.1913   21.6135 C   0  0  0  0  0  0  0  0  0  0  0  0
  -34.6898  -18.1106   25.1390 C   0  0  0  0  0  0  0  0  0  0  0  0
  -22.2307   -6.0802   22.6422 C   0  0  0  0  0  0  0  0  0  0  0  0
  -23.5027   -4.0796   24.1127 C   0  0  0  0  0  0  0  0  0  0  0  0
  -21.7182   -5.6916   23.8799 C   0  0  0  0  0  0  0  0  0  0  0  0
  -24.5420  -11.6688   20.6916 C   0  0  0  0  0  0  0  0  0  0  0  0
  -32.0887  -18.7798   21.0710 C   0  0  0  0  0  0  0  0  0  0  0  0
  -30.3810  -17.2809   20.8117 C   0  0  0  0  0  0  0  0  0  0  0  0
  -31.1724  -19.7946   21.2387 C   0  0  0  0  0  0  0  0  0  0  0  0
  -25.1940  -13.7462   20.3843 C   0  0  0  0  0  0  0  0  0  0  0  0
  -22.8514  -13.5310   21.2295 C   0  0  0  0  0  0  0  0  0  0  0  0
  -33.5491  -18.9940   21.1124 C   0  0  0  0  0  0  0  0  0  0  0  0
  -29.2813  -18.5614   25.2384 C   0  0  0  0  0  0  0  0  0  0  0  0
  -29.6267  -21.0026   27.3464 C   0  0  0  0  0  0  0  0  0  0  0  0
  -31.7282  -23.0130   29.1322 C   0  0  0  0  0  0  0  0  0  0  0  0
  -30.6590  -14.8120   20.3954 C   0  0  0  0  0  0  0  0  0  0  0  0
  -24.4869  -17.2510   24.0748 C   0  0  0  0  0  0  0  0  0  0  0  0
  -30.8261  -17.5363   26.9468 C   0  0  0  0  0  0  0  0  0  0  0  0
  -31.7130  -20.2421   26.1487 C   0  0  0  0  0  0  0  0  0  0  0  0
  -25.2081  -18.5481   24.4321 C   0  0  0  0  0  0  0  0  0  0  0  0
  -29.4973  -12.3209   18.1322 C   0  0  0  0  0  0  0  0  0  0  0  0
  -26.4758  -18.7014   23.5978 C   0  0  0  0  0  0  0  0  0  0  0  0
  -28.0693  -12.0392   18.6050 C   0  0  0  0  0  0  0  0  0  0  0  0
  -30.4398  -12.5904   19.3038 C   0  0  0  0  0  0  0  0  0  0  0  0
  -28.5636  -13.3532   20.7064 C   0  0  0  0  0  0  0  0  0  0  0  0
  -27.4593  -17.5576   23.8734 C   0  0  1  0  0  0  0  0  0  0  0  0
  -29.8297  -18.6485   26.6346 C   0  0  1  0  0  0  0  0  0  0  0  0
  -27.5638  -13.1398   19.5582 C   0  0  2  0  0  0  0  0  0  0  0  0
  -39.4954  -15.8373   24.4253 C   0  0  0  0  0  0  0  0  0  0  0  0
  -31.7179  -24.9415   30.7379 C   0  0  0  0  0  0  0  0  0  0  0  0
  -38.5738  -18.4789   23.2460 C   0  0  0  0  0  0  0  0  0  0  0  0
  -29.0037  -22.9100   25.0478 C   0  0  0  0  0  0  0  0  0  0  0  0
  -29.9254  -24.7764   26.4389 C   0  0  0  0  0  0  0  0  0  0  0  0
  -27.9245  -23.5097   27.2227 C   0  0  0  0  0  0  0  0  0  0  0  0
  -33.0584  -21.4161   31.2392 C   0  0  0  0  0  0  0  0  0  0  0  0
  -38.0474  -16.3083   24.4515 C   0  0  0  0  0  0  0  0  0  0  0  0
  -35.7135  -18.4739   22.1808 C   0  0  0  0  0  0  0  0  0  0  0  0
  -30.1953  -22.3995   27.2806 C   0  0  1  0  0  0  0  0  0  0  0  0
  -31.7264  -23.4277   30.5925 C   0  0  2  0  0  0  0  0  0  0  0  0
  -37.6742  -17.2362   23.2733 C   0  0  1  0  0  0  0  0  0  0  0  0
  -36.1711  -17.6028   23.3491 C   0  0  1  0  0  0  0  0  0  1  0  0
  -29.2781  -23.3761   26.4916 C   0  0  0  0  0  0  0  0  0  0  0  0
  -29.8440  -19.5708   21.1967 N   0  0  0  0  0  0  0  0  0  0  0  0
  -25.7969  -11.5632   20.2466 N   0  0  0  0  0  0  0  0  0  0  0  0
  -31.7094  -17.5048   20.8542 N   0  0  0  0  0  0  0  0  0  0  0  0
  -26.1661  -12.8431   20.0686 N   0  0  0  0  0  0  0  0  0  0  0  0
  -30.4095  -19.9849   26.7830 N   0  0  0  0  0  0  0  0  0  0  0  0
  -29.8982  -13.6471   20.1611 N   0  0  0  0  0  0  0  0  0  0  0  0
  -31.6361  -21.1106   21.4622 N   0  0  0  0  0  0  0  0  0  0  0  0
  -25.3979  -15.0752   20.2640 N   0  0  0  0  0  0  0  0  0  0  0  0
  -21.8510  -12.6302   21.6195 N   0  0  0  0  0  0  0  0  0  0  0  0
  -34.0871  -19.8278   20.2222 N   0  0  0  0  0  0  0  0  0  0  0  0
  -29.9012  -15.9666   20.5881 N   0  0  0  0  0  0  0  0  0  0  0  0
  -28.1501  -17.7758   25.1262 N   0  0  0  0  0  0  0  0  0  0  0  0
  -30.4502  -22.8018   28.6596 N   0  0  0  0  0  0  0  0  0  0  0  0
  -34.2593  -18.3405   22.0378 N   0  3  0  0  0  0  0  0  0  0  0  0
  -32.9350  -22.8959   31.2834 N   0  3  0  0  0  0  0  0  0  0  0  0
  -22.6122  -14.7621   21.2534 O   0  0  0  0  0  0  0  0  0  0  0  0
  -29.8422  -19.1636   24.3303 O   0  0  0  0  0  0  0  0  0  0  0  0
  -28.5318  -20.8200   27.8844 O   0  0  0  0  0  0  0  0  0  0  0  0
  -32.7599  -22.8924   28.4753 O   0  0  0  0  0  0  0  0  0  0  0  0
  -31.8926  -14.7922   20.3961 O   0  0  0  0  0  0  0  0  0  0  0  0
  -21.6000   -7.0725   21.9106 O   0  0  0  0  0  0  0  0  0  0  0  0
  -35.9138  -18.2910   24.5724 O   0  0  0  0  0  0  0  0  0  1  0  0
  -24.1126   -3.1180   24.8180 F   0  0  0  0  0  0  0  0  0  0  0  0
  -20.6145   -6.2748   24.3673 F   0  0  0  0  0  0  0  0  0  0  0  0
  1  2  1  0  0  0  0
  1  5  2  0  0  0  0
  2  6  2  0  0  0  0
  3  8  2  0  0  0  0
  3 16  1  0  0  0  0
  4  9  1  0  0  0  0
  4 16  2  0  0  0  0
  5 18  1  0  0  0  0
  6 20  1  0  0  0  0
  7 10  2  0  0  0  0
  7 19  1  0  0  0  0
  8 22  1  0  0  0  0
  9 22  2  0  0  0  0
 10 23  1  0  0  0  0
 11 12  2  0  0  0  0
 11 24  1  0  0  0  0
 12 25  1  0  0  0  0
 13 21  1  0  0  0  0
 13 23  2  0  0  0  0
 14 25  2  0  0  0  0
 14 26  1  0  0  0  0
 15 29  1  0  0  0  0
 15 64  2  0  0  0  0
 16 27  1  0  0  0  0
 17 27  1  0  0  0  0
 17 31  2  0  0  0  0
 17 32  1  0  0  0  0
 18 20  2  0  0  0  0
 18 38  1  0  0  0  0
 19 21  2  0  0  0  0
 19 39  1  0  0  0  0
 20 47  1  0  0  0  0
 21 40  1  0  0  0  0
 22 84  1  0  0  0  0
 23 85  1  0  0  0  0
 24 26  2  0  0  0  0
 24 84  1  0  0  0  0
 25 86  1  0  0  0  0
 26 87  1  0  0  0  0
 27 65  2  0  0  0  0
 28 30  2  0  0  0  0
 28 33  1  0  0  0  0
 28 66  1  0  0  0  0
 29 66  2  0  0  0  0
 29 74  1  0  0  0  0
 30 64  1  0  0  0  0
 30 70  1  0  0  0  0
 31 67  1  0  0  0  0
 31 71  1  0  0  0  0
 32 72  1  0  0  0  0
 32 79  2  0  0  0  0
 33 73  1  0  0  0  0
 33 77  2  0  0  0  0
 34 48  1  0  0  0  0
 34 75  1  0  0  0  0
 34 80  2  0  0  0  0
 35 59  1  0  0  0  0
 35 68  1  0  0  0  0
 35 81  2  0  0  0  0
 36 60  1  0  0  0  0
 36 76  1  0  0  0  0
 36 82  2  0  0  0  0
 37 69  1  0  0  0  0
 37 74  1  0  0  0  0
 37 83  2  0  0  0  0
 38 41  1  0  0  0  0
 39 48  1  0  0  0  0
 40 68  1  0  0  0  0
 41 43  1  0  0  0  0
 42 44  1  0  0  0  0
 42 45  1  0  0  0  0
 43 47  1  0  0  0  0
 44 49  1  0  0  0  0
 45 69  1  0  0  0  0
 46 49  1  0  0  0  0
 46 69  1  0  0  0  0
 47 75  1  0  0  0  0
 48 68  1  0  0  0  0
 49 67  1  0  0  0  0
 50 57  1  0  0  0  0
 51 60  1  0  0  0  0
 52 61  1  0  0  0  0
 53 63  1  0  0  0  0
 54 63  1  0  0  0  0
 55 63  1  0  0  0  0
 56 78  1  0  0  0  0
 57 61  1  0  0  0  0
 58 62  1  0  0  0  0
 58 77  1  0  0  0  0
 59 63  1  0  0  0  0
 59 76  1  0  0  0  0
 60 78  1  0  0  0  0
 61 62  1  0  0  0  0
 62 85  1  0  0  0  0
 65 67  1  0  0  0  0
M  CHG  2  77   1  78   1
M  ISO  4  37 100  62 101  74 100  85 101
M  END
> <Batch ID>
0194

> <Smiles>
CCC(C)[101CH:1](CNC(=N)c1nc([100NH:0][100C:0](=O)N2CCCC(n3nc(-c4ccc(Oc5ccc(F)cc5F)cc4)c(C(N)=O)c3N)C2)cnc1N)[101O:1]c1ccc2c(c1)CN(C(=O)C(NC(=O)C(C)NC)C(C)(C)C)C(C(=O)NC1CCCc3ccccc31)C2

> <Shape>
0.175

> <Color>
0.169

> <Negative vol penalty>
0.000

$$$$

  -OEChem-04052305333D

 87 95  0     1  0  0  0  0  0999 V2000
  -27.5838  -19.7895   17.2454 C   0  0  0  0  0  0  0  0  0  0  0  0
  -28.0050  -20.2135   18.5017 C   0  0  0  0  0  0  0  0  0  0  0  0
  -22.9745   -9.9646   20.0102 C   0  0  0  0  0  0  0  0  0  0  0  0
  -23.6947  -10.0377   22.3152 C   0  0  0  0  0  0  0  0  0  0  0  0
  -27.2972  -20.7272   16.2542 C   0  0  0  0  0  0  0  0  0  0  0  0
  -28.1407  -21.5757   18.7672 C   0  0  0  0  0  0  0  0  0  0  0  0
  -26.1754  -22.8872   23.2463 C   0  0  0  0  0  0  0  0  0  0  0  0
  -22.1905   -8.8455   20.2906 C   0  0  0  0  0  0  0  0  0  0  0  0
  -22.9107   -8.9186   22.5957 C   0  0  0  0  0  0  0  0  0  0  0  0
  -26.9303  -22.5979   24.3821 C   0  0  0  0  0  0  0  0  0  0  0  0
  -23.1064   -5.5700   22.1720 C   0  0  0  0  0  0  0  0  0  0  0  0
  -23.6769   -4.5550   22.9400 C   0  0  0  0  0  0  0  0  0  0  0  0
  -27.6827  -24.8886   24.4581 C   0  0  0  0  0  0  0  0  0  0  0  0
  -21.9527   -4.8474   24.6070 C   0  0  0  0  0  0  0  0  0  0  0  0
  -31.9439  -18.6328   22.1382 C   0  0  0  0  0  0  0  0  0  0  0  0
  -23.7266  -10.5606   21.0225 C   0  0  0  0  0  0  0  0  0  0  0  0
  -24.1498  -13.0675   20.8117 C   0  0  0  0  0  0  0  0  0  0  0  0
  -27.4202  -22.1019   16.5107 C   0  0  0  0  0  0  0  0  0  0  0  0
  -26.1770  -24.1790   22.7005 C   0  0  0  0  0  0  0  0  0  0  0  0
  -27.8568  -22.5327   17.7781 C   0  0  0  0  0  0  0  0  0  0  0  0
  -26.9249  -25.1924   23.3167 C   0  0  0  0  0  0  0  0  0  0  0  0
  -22.1585   -8.3225   21.5833 C   0  0  0  0  0  0  0  0  0  0  0  0
  -27.6864  -23.5980   24.9865 C   0  0  0  0  0  0  0  0  0  0  0  0
  -21.9591   -6.2238   22.6215 C   0  0  0  0  0  0  0  0  0  0  0  0
  -23.1001   -4.1937   24.1576 C   0  0  0  0  0  0  0  0  0  0  0  0
  -21.3823   -5.8624   23.8390 C   0  0  0  0  0  0  0  0  0  0  0  0
  -24.5371  -11.7163   20.7333 C   0  0  0  0  0  0  0  0  0  0  0  0
  -30.8418  -19.0623   22.8475 C   0  0  0  0  0  0  0  0  0  0  0  0
  -25.2710  -13.7682   20.4400 C   0  0  0  0  0  0  0  0  0  0  0  0
  -30.6564  -16.8829   21.8383 C   0  0  0  0  0  0  0  0  0  0  0  0
  -22.8891  -13.6381   21.1871 C   0  0  0  0  0  0  0  0  0  0  0  0
  -27.0595  -25.4374   19.9182 C   0  0  0  0  0  0  0  0  0  0  0  0
  -25.7568  -28.1326   21.1676 C   0  0  0  0  0  0  0  0  0  0  0  0
  -24.8566  -29.8958   23.9475 C   0  0  0  0  0  0  0  0  0  0  0  0
  -30.7636  -14.6510   20.6749 C   0  0  0  0  0  0  0  0  0  0  0  0
  -27.1445  -23.0764   15.3932 C   0  0  0  0  0  0  0  0  0  0  0  0
  -25.3363  -24.4813   21.4905 C   0  0  0  0  0  0  0  0  0  0  0  0
  -26.9447  -26.6002   22.7819 C   0  0  0  0  0  0  0  0  0  0  0  0
  -26.9536  -24.5135   15.8714 C   0  0  0  0  0  0  0  0  0  0  0  0
  -29.6146  -12.1822   18.3810 C   0  0  0  0  0  0  0  0  0  0  0  0
  -28.0455  -24.8945   16.8661 C   0  0  0  0  0  0  0  0  0  0  0  0
  -28.1593  -11.9520   18.7950 C   0  0  0  0  0  0  0  0  0  0  0  0
  -30.5157  -12.4293   19.5896 C   0  0  0  0  0  0  0  0  0  0  0  0
  -28.6091  -13.2655   20.9068 C   0  0  0  0  0  0  0  0  0  0  0  0
  -27.9923  -24.0024   18.1122 C   0  0  1  0  0  0  0  0  0  0  0  0
  -25.8174  -25.7067   20.7196 C   0  0  1  0  0  0  0  0  0  0  0  0
  -27.6516  -13.0765   19.7188 C   0  0  2  0  0  0  0  0  0  0  0  0
  -23.8500  -32.0838   24.6521 C   0  0  0  0  0  0  0  0  0  0  0  0
  -35.0253  -23.9662   23.7535 C   0  0  0  0  0  0  0  0  0  0  0  0
  -32.8310  -23.9698   22.5519 C   0  0  0  0  0  0  0  0  0  0  0  0
  -28.3960  -29.5390   20.5621 C   0  0  0  0  0  0  0  0  0  0  0  0
  -27.6902  -31.3782   22.1072 C   0  0  0  0  0  0  0  0  0  0  0  0
  -26.3536  -30.8914   20.0580 C   0  0  0  0  0  0  0  0  0  0  0  0
  -22.5707  -28.5531   25.2631 C   0  0  0  0  0  0  0  0  0  0  0  0
  -30.6194  -20.3450   23.5931 C   0  0  0  0  0  0  0  0  0  0  0  0
  -30.6417  -23.2120   27.0162 C   0  0  0  0  0  0  0  0  0  0  0  0
  -33.0174  -22.9801   24.9008 C   0  0  0  0  0  0  0  0  0  0  0  0
  -29.6172  -24.0765   26.2900 C   0  0  0  0  0  0  0  0  0  1  0  0
  -26.2701  -29.2797   22.0041 C   0  0  1  0  0  0  0  0  0  0  0  0
  -23.5762  -30.6289   24.3045 C   0  0  2  0  0  0  0  0  0  0  0  0
  -33.7128  -23.2053   23.5400 C   0  0  0  0  0  0  0  0  0  0  0  0
  -31.0459  -21.9418   26.2433 C   0  0  1  0  0  0  0  0  0  0  0  0
  -31.6762  -22.2234   24.8555 C   0  0  2  0  0  0  0  0  0  0  0  0
  -27.1789  -30.2452   21.1920 C   0  0  0  0  0  0  0  0  0  0  0  0
  -31.8396  -17.3832   21.5591 N   0  0  0  0  0  0  0  0  0  0  0  0
  -25.8053  -11.5653   20.3424 N   0  0  0  0  0  0  0  0  0  0  0  0
  -26.2246  -12.8307   20.1717 N   0  0  0  0  0  0  0  0  0  0  0  0
  -26.1112  -26.8446   21.5932 N   0  0  0  0  0  0  0  0  0  0  0  0
  -29.9745  -13.5103   20.4163 N   0  0  0  0  0  0  0  0  0  0  0  0
  -25.5245  -15.0887   20.3197 N   0  0  0  0  0  0  0  0  0  0  0  0
  -21.8434  -12.7744   21.5404 N   0  0  0  0  0  0  0  0  0  0  0  0
  -31.9433  -21.1589   27.1028 N   0  0  0  0  0  0  0  0  0  0  0  0
  -30.1318  -15.6267   21.4452 N   0  0  0  0  0  0  0  0  0  0  0  0
  -26.9213  -24.4233   18.9898 N   0  0  0  0  0  0  0  0  0  0  0  0
  -25.0950  -29.9159   22.5896 N   0  0  0  0  0  0  0  0  0  0  0  0
  -22.9179  -29.9820   25.4746 N   0  3  0  0  0  0  0  0  0  0  0  0
  -31.8697  -20.9201   24.1459 N   0  3  0  0  0  0  0  0  0  0  0  0
  -22.6908  -14.8767   21.1927 O   0  0  0  0  0  0  0  0  0  0  0  0
  -28.0683  -26.1015   20.1257 O   0  0  0  0  0  0  0  0  0  0  0  0
  -25.0609  -28.3704   20.1773 O   0  0  0  0  0  0  0  0  0  0  0  0
  -25.5755  -29.3621   24.7895 O   0  0  0  0  0  0  0  0  0  0  0  0
  -31.9054  -14.7665   20.2220 O   0  0  0  0  0  0  0  0  0  0  0  0
  -21.3935   -7.2307   21.8574 O   0  0  0  0  0  0  0  0  0  0  0  0
  -28.4298  -23.3162   26.1025 O   0  0  0  0  0  0  0  0  0  1  0  0
  -23.6471   -3.2180   24.8943 F   0  0  0  0  0  0  0  0  0  0  0  0
  -20.2794   -6.4860   24.2754 F   0  0  0  0  0  0  0  0  0  0  0  0
  -29.6185  -17.8615   22.7923 S   0  0  0  0  0  0  0  0  0  0  0  0
  1  2  1  0  0  0  0
  1  5  2  0  0  0  0
  2  6  2  0  0  0  0
  3  8  2  0  0  0  0
  3 16  1  0  0  0  0
  4  9  1  0  0  0  0
  4 16  2  0  0  0  0
  5 18  1  0  0  0  0
  6 20  1  0  0  0  0
  7 10  2  0  0  0  0
  7 19  1  0  0  0  0
  8 22  1  0  0  0  0
  9 22  2  0  0  0  0
 10 23  1  0  0  0  0
 11 12  2  0  0  0  0
 11 24  1  0  0  0  0
 12 25  1  0  0  0  0
 13 21  1  0  0  0  0
 13 23  2  0  0  0  0
 14 25  2  0  0  0  0
 14 26  1  0  0  0  0
 15 28  2  0  0  0  0
 15 65  1  0  0  0  0
 16 27  1  0  0  0  0
 17 27  1  0  0  0  0
 17 29  2  0  0  0  0
 17 31  1  0  0  0  0
 18 20  2  0  0  0  0
 18 36  1  0  0  0  0
 19 21  2  0  0  0  0
 19 37  1  0  0  0  0
 20 45  1  0  0  0  0
 21 38  1  0  0  0  0
 22 83  1  0  0  0  0
 23 84  1  0  0  0  0
 24 26  2  0  0  0  0
 24 83  1  0  0  0  0
 25 85  1  0  0  0  0
 26 86  1  0  0  0  0
 27 66  2  0  0  0  0
 28 55  1  0  0  0  0
 28 87  1  0  0  0  0
 29 67  1  0  0  0  0
 29 70  1  0  0  0  0
 30 65  2  0  0  0  0
 30 73  1  0  0  0  0
 30 87  1  0  0  0  0
 31 71  1  0  0  0  0
 31 78  2  0  0  0  0
 32 46  1  0  0  0  0
 32 74  1  0  0  0  0
 32 79  2  0  0  0  0
 33 59  1  0  0  0  0
 33 68  1  0  0  0  0
 33 80  2  0  0  0  0
 34 60  1  0  0  0  0
 34 75  1  0  0  0  0
 34 81  2  0  0  0  0
 35 69  1  0  0  0  0
 35 73  1  0  0  0  0
 35 82  2  0  0  0  0
 36 39  1  0  0  0  0
 37 46  1  0  0  0  0
 38 68  1  0  0  0  0
 39 41  1  0  0  0  0
 40 42  1  0  0  0  0
 40 43  1  0  0  0  0
 41 45  1  0  0  0  0
 42 47  1  0  0  0  0
 43 69  1  0  0  0  0
 44 47  1  0  0  0  0
 44 69  1  0  0  0  0
 45 74  1  0  0  0  0
 46 68  1  0  0  0  0
 47 67  1  0  0  0  0
 48 60  1  0  0  0  0
 49 61  1  0  0  0  0
 50 61  1  0  0  0  0
 51 64  1  0  0  0  0
 52 64  1  0  0  0  0
 53 64  1  0  0  0  0
 54 76  1  0  0  0  0
 55 77  1  0  0  0  0
 56 58  1  0  0  0  0
 56 62  1  0  0  0  0
 57 61  1  0  0  0  0
 57 63  1  0  0  0  0
 58 84  1  0  0  0  0
 59 64  1  0  0  0  0
 59 75  1  0  0  0  0
 60 76  1  0  0  0  0
 62 63  1  0  0  0  0
 62 72  1  0  0  0  0
 63 77  1  0  0  0  0
 66 67  1  0  0  0  0
M  CHG  2  76   1  77   1
M  ISO  4  35 100  58 101  73 100  84 101
M  END
> <Batch ID>
0194

> <Smiles>
CNC(C)C(=O)NC(C(=O)N1Cc2cc([101O:1][101CH2:1]CC(N)C(CC(C)C)NCc3cnc([100NH:0][100C:0](=O)N4CCCC(n5nc(-c6ccc(Oc7ccc(F)cc7F)cc6)c(C(N)=O)c5N)C4)s3)ccc2CC1C(=O)NC1CCCc2ccccc21)C(C)(C)C

> <Shape>
0.259

> <Color>
0.195

> <Negative vol penalty>
0.000

$$$$

  -OEChem-04052305333D

 86 94  0     1  0  0  0  0  0999 V2000
  -22.8147  -10.7561   18.6751 C   0  0  0  0  0  0  0  0  0  0  0  0
  -22.1365  -11.9517   18.8897 C   0  0  0  0  0  0  0  0  0  0  0  0
  -29.0266  -25.9850   18.7359 C   0  0  0  0  0  0  0  0  0  0  0  0
  -28.7758  -25.4216   21.0718 C   0  0  0  0  0  0  0  0  0  0  0  0
  -24.0869  -10.5711   19.2147 C   0  0  0  0  0  0  0  0  0  0  0  0
  -22.7297  -12.9625   19.6451 C   0  0  0  0  0  0  0  0  0  0  0  0
  -23.0603  -20.1015   20.1376 C   0  0  0  0  0  0  0  0  0  0  0  0
  -30.2503  -25.3161   18.7059 C   0  0  0  0  0  0  0  0  0  0  0  0
  -29.9994  -24.7527   21.0419 C   0  0  0  0  0  0  0  0  0  0  0  0
  -22.8995  -21.1254   21.0701 C   0  0  0  0  0  0  0  0  0  0  0  0
  -33.2819  -25.5586   21.1263 C   0  0  0  0  0  0  0  0  0  0  0  0
  -34.1697  -25.7843   22.1781 C   0  0  0  0  0  0  0  0  0  0  0  0
  -25.1338  -20.7245   21.8865 C   0  0  0  0  0  0  0  0  0  0  0  0
  -34.1168  -23.4322   22.7276 C   0  0  0  0  0  0  0  0  0  0  0  0
  -17.9088  -27.1414   23.1697 C   0  0  0  0  0  0  0  0  0  0  0  0
  -28.2894  -26.0378   19.9188 C   0  0  0  0  0  0  0  0  0  0  0  0
  -25.7537  -26.1878   19.6836 C   0  0  0  0  0  0  0  0  0  0  0  0
  -24.7000  -11.5839   19.9690 C   0  0  0  0  0  0  0  0  0  0  0  0
  -24.2571  -19.3730   20.0797 C   0  0  0  0  0  0  0  0  0  0  0  0
  -24.0107  -12.7904   20.1965 C   0  0  0  0  0  0  0  0  0  0  0  0
  -25.3082  -19.6936   20.9506 C   0  0  0  0  0  0  0  0  0  0  0  0
  -18.1110  -28.3556   22.5458 C   0  0  0  0  0  0  0  0  0  0  0  0
  -30.7367  -24.7000   19.8589 C   0  0  0  0  0  0  0  0  0  0  0  0
  -23.9353  -21.4351   21.9467 C   0  0  0  0  0  0  0  0  0  0  0  0
  -32.8114  -24.2697   20.8752 C   0  0  0  0  0  0  0  0  0  0  0  0
  -34.5872  -24.7212   22.9788 C   0  0  0  0  0  0  0  0  0  0  0  0
  -33.2289  -23.2065   21.6758 C   0  0  0  0  0  0  0  0  0  0  0  0
  -27.0256  -26.7290   19.9505 C   0  0  0  0  0  0  0  0  0  0  0  0
  -19.4102  -28.6217   22.1643 C   0  0  0  0  0  0  0  0  0  0  0  0
  -24.8903  -27.2435   19.8464 C   0  0  0  0  0  0  0  0  0  0  0  0
  -20.1147  -26.6237   22.9882 C   0  0  0  0  0  0  0  0  0  0  0  0
  -25.3856  -24.8504   19.3210 C   0  0  0  0  0  0  0  0  0  0  0  0
  -25.0493  -16.3234   20.4998 C   0  0  0  0  0  0  0  0  0  0  0  0
  -27.9627  -17.3483   19.5078 C   0  0  0  0  0  0  0  0  0  0  0  0
  -30.1563  -19.9384   19.1523 C   0  0  0  0  0  0  0  0  0  0  0  0
  -23.1438  -31.7059   22.7069 C   0  0  0  0  0  0  0  0  0  0  0  0
  -26.0570  -11.3197   20.5717 C   0  0  0  0  0  0  0  0  0  0  0  0
  -24.4245  -18.2892   19.0502 C   0  0  0  0  0  0  0  0  0  0  0  0
  -26.6204  -18.9550   20.9156 C   0  0  0  0  0  0  0  0  0  0  0  0
  -26.7695  -12.5838   21.0457 C   0  0  0  0  0  0  0  0  0  0  0  0
  -25.8025  -32.1893   20.3885 C   0  0  0  0  0  0  0  0  0  0  0  0
  -25.8171  -13.4644   21.8483 C   0  0  0  0  0  0  0  0  0  0  0  0
  -26.2564  -30.7680   20.0511 C   0  0  0  0  0  0  0  0  0  0  0  0
  -25.3875  -32.3165   21.8526 C   0  0  0  0  0  0  0  0  0  0  0  0
  -24.8297  -29.9183   21.9592 C   0  0  0  0  0  0  0  0  0  0  0  0
  -24.6312  -13.9201   20.9896 C   0  0  1  0  0  0  0  0  0  0  0  0
  -25.4977  -17.2711   19.4235 C   0  0  1  0  0  0  0  0  0  0  0  0
  -25.2050  -29.7269   20.4798 C   0  0  2  0  0  0  0  0  0  0  0  0
  -32.4738  -20.4602   18.3434 C   0  0  0  0  0  0  0  0  0  0  0  0
  -29.1242  -16.1021   22.0392 C   0  0  0  0  0  0  0  0  0  0  0  0
  -31.2032  -17.4454   21.6628 C   0  0  0  0  0  0  0  0  0  0  0  0
  -30.4954  -15.7475   19.9779 C   0  0  0  0  0  0  0  0  0  0  0  0
  -29.1421  -21.8073   17.0938 C   0  0  0  0  0  0  0  0  0  0  0  0
  -19.7519  -29.9049   21.4802 C   0  0  0  0  0  0  0  0  0  0  0  0
  -19.8859  -31.1135   22.4260 C   0  0  0  0  0  0  0  0  0  0  0  0
  -20.9305  -30.9386   23.5263 C   0  0  0  0  0  0  0  0  0  0  0  0
  -22.5193  -25.9768   22.8299 C   0  0  0  0  0  0  0  0  0  0  0  0
  -22.9184  -23.5126   22.4998 C   0  0  0  0  0  0  0  0  0  1  0  0
  -29.1903  -17.9024   20.1897 C   0  0  1  0  0  0  0  0  0  0  0  0
  -31.0003  -20.3891   17.9738 C   0  0  2  0  0  0  0  0  0  0  0  0
  -23.3922  -24.7801   23.2028 C   0  0  1  0  0  0  0  0  0  0  0  0
  -29.9780  -16.8122   20.9696 C   0  0  0  0  0  0  0  0  0  0  0  0
  -18.8914  -26.2481   23.4078 N   0  0  0  0  0  0  0  0  0  0  0  0
  -26.9789  -28.0277   20.2592 N   0  0  0  0  0  0  0  0  0  0  0  0
  -20.4404  -27.7753   22.3708 N   0  0  0  0  0  0  0  0  0  0  0  0
  -25.6672  -28.3114   20.1872 N   0  0  0  0  0  0  0  0  0  0  0  0
  -26.7332  -17.8996   19.8954 N   0  0  0  0  0  0  0  0  0  0  0  0
  -24.3877  -31.3018   22.1944 N   0  0  0  0  0  0  0  0  0  0  0  0
  -17.0535  -29.2454   22.3231 N   0  0  0  0  0  0  0  0  0  0  0  0
  -23.5498  -27.3533   19.7296 N   0  0  0  0  0  0  0  0  0  0  0  0
  -26.3980  -23.8891   19.1971 N   0  0  0  0  0  0  0  0  0  0  0  0
  -21.1480  -25.7306   23.2161 N   0  0  0  0  0  0  0  0  0  0  0  0
  -25.0290  -14.9980   20.1096 N   0  0  0  0  0  0  0  0  0  0  0  0
  -29.9662  -18.5727   19.1518 N   0  0  0  0  0  0  0  0  0  0  0  0
  -22.2518  -30.6812   22.9985 N   0  0  0  0  0  0  0  0  0  0  0  0
  -30.5661  -21.7376   17.5113 N   0  3  0  0  0  0  0  0  0  0  0  0
  -24.1960  -24.5215   19.0971 O   0  0  0  0  0  0  0  0  0  0  0  0
  -24.7458  -16.7621   21.6030 O   0  0  0  0  0  0  0  0  0  0  0  0
  -28.0906  -16.4641   18.6572 O   0  0  0  0  0  0  0  0  0  0  0  0
  -29.7133  -20.7193   19.9917 O   0  0  0  0  0  0  0  0  0  0  0  0
  -22.8481  -32.8922   22.8859 O   0  0  0  0  0  0  0  0  0  0  0  0
  -24.7351  -25.0331   22.7848 O   0  0  0  0  0  0  0  0  0  0  0  0
  -31.9306  -24.0470   19.8300 O   0  0  0  0  0  0  0  0  0  0  0  0
  -23.7807  -22.4336   22.8583 O   0  0  0  0  0  0  0  0  0  1  0  0
  -35.4410  -24.9379   23.9879 F   0  0  0  0  0  0  0  0  0  0  0  0
  -32.7813  -21.9658   21.4387 F   0  0  0  0  0  0  0  0  0  0  0  0
  1  2  1  0  0  0  0
  1  5  2  0  0  0  0
  2  6  2  0  0  0  0
  3  8  2  0  0  0  0
  3 16  1  0  0  0  0
  4  9  1  0  0  0  0
  4 16  2  0  0  0  0
  5 18  1  0  0  0  0
  6 20  1  0  0  0  0
  7 10  2  0  0  0  0
  7 19  1  0  0  0  0
  8 23  1  0  0  0  0
  9 23  2  0  0  0  0
 10 24  1  0  0  0  0
 11 12  2  0  0  0  0
 11 25  1  0  0  0  0
 12 26  1  0  0  0  0
 13 21  1  0  0  0  0
 13 24  2  0  0  0  0
 14 26  2  0  0  0  0
 14 27  1  0  0  0  0
 15 22  1  0  0  0  0
 15 63  2  0  0  0  0
 16 28  1  0  0  0  0
 17 28  1  0  0  0  0
 17 30  2  0  0  0  0
 17 32  1  0  0  0  0
 18 20  2  0  0  0  0
 18 37  1  0  0  0  0
 19 21  2  0  0  0  0
 19 38  1  0  0  0  0
 20 46  1  0  0  0  0
 21 39  1  0  0  0  0
 22 29  2  0  0  0  0
 22 69  1  0  0  0  0
 23 83  1  0  0  0  0
 24 84  1  0  0  0  0
 25 27  2  0  0  0  0
 25 83  1  0  0  0  0
 26 85  1  0  0  0  0
 27 86  1  0  0  0  0
 28 64  2  0  0  0  0
 29 54  1  0  0  0  0
 29 65  1  0  0  0  0
 30 66  1  0  0  0  0
 30 70  1  0  0  0  0
 31 63  1  0  0  0  0
 31 65  2  0  0  0  0
 31 72  1  0  0  0  0
 32 71  1  0  0  0  0
 32 77  2  0  0  0  0
 33 47  1  0  0  0  0
 33 73  1  0  0  0  0
 33 78  2  0  0  0  0
 34 59  1  0  0  0  0
 34 67  1  0  0  0  0
 34 79  2  0  0  0  0
 35 60  1  0  0  0  0
 35 74  1  0  0  0  0
 35 80  2  0  0  0  0
 36 68  1  0  0  0  0
 36 75  1  0  0  0  0
 36 81  2  0  0  0  0
 37 40  1  0  0  0  0
 38 47  1  0  0  0  0
 39 67  1  0  0  0  0
 40 42  1  0  0  0  0
 41 43  1  0  0  0  0
 41 44  1  0  0  0  0
 42 46  1  0  0  0  0
 43 48  1  0  0  0  0
 44 68  1  0  0  0  0
 45 48  1  0  0  0  0
 45 68  1  0  0  0  0
 46 73  1  0  0  0  0
 47 67  1  0  0  0  0
 48 66  1  0  0  0  0
 49 60  1  0  0  0  0
 50 62  1  0  0  0  0
 51 62  1  0  0  0  0
 52 62  1  0  0  0  0
 53 76  1  0  0  0  0
 54 55  1  0  0  0  0
 55 56  1  0  0  0  0
 56 75  1  0  0  0  0
 57 61  1  0  0  0  0
 57 72  1  0  0  0  0
 58 61  1  0  0  0  0
 58 84  1  0  0  0  0
 59 62  1  0  0  0  0
 59 74  1  0  0  0  0
 60 76  1  0  0  0  0
 61 82  1  0  0  0  0
 64 66  1  0  0  0  0
M  CHG  1  76   1
M  ISO  4  36 100  58 101  75 100  84 101
M  END
> <Batch ID>
0194

> <Smiles>
CNC(C)C(=O)NC(C(=O)N1Cc2cc([101O:1][101CH2:1]C(O)CNc3ncc(N)c(CCC[100NH:0][100C:0](=O)N4CCCC(n5nc(-c6ccc(Oc7ccc(F)cc7F)cc6)c(C(N)=O)c5N)C4)n3)ccc2CC1C(=O)NC1CCCc2ccccc21)C(C)(C)C

> <Shape>
0.246

> <Color>
0.079

> <Negative vol penalty>
0.000

$$$$

  -OEChem-04052305333D

 82 90  0     1  0  0  0  0  0999 V2000
  -22.4817   -7.6094   23.8562 C   0  0  0  0  0  0  0  0  0  0  0  0
  -23.4411   -8.1783   23.0246 C   0  0  0  0  0  0  0  0  0  0  0  0
  -24.6828  -29.6877   21.6401 C   0  0  0  0  0  0  0  0  0  0  0  0
  -26.6528  -30.8489   22.4197 C   0  0  0  0  0  0  0  0  0  0  0  0
  -21.1871   -8.1264   23.8807 C   0  0  0  0  0  0  0  0  0  0  0  0
  -23.1059   -9.2640   22.2162 C   0  0  0  0  0  0  0  0  0  0  0  0
  -26.6110  -12.9176   22.3189 C   0  0  0  0  0  0  0  0  0  0  0  0
  -23.8754  -30.6177   22.2949 C   0  0  0  0  0  0  0  0  0  0  0  0
  -25.8454  -31.7790   23.0745 C   0  0  0  0  0  0  0  0  0  0  0  0
  -27.7626  -12.7167   21.5593 C   0  0  0  0  0  0  0  0  0  0  0  0
  -24.0178  -34.5014   22.2567 C   0  0  0  0  0  0  0  0  0  0  0  0
  -24.3465  -35.8503   22.1231 C   0  0  0  0  0  0  0  0  0  0  0  0
  -26.8633  -14.1387   19.8307 C   0  0  0  0  0  0  0  0  0  0  0  0
  -24.6296  -36.0182   24.5166 C   0  0  0  0  0  0  0  0  0  0  0  0
  -26.0715  -29.8033   21.7026 C   0  0  0  0  0  0  0  0  0  0  0  0
  -27.3868  -28.9144   19.7057 C   0  0  0  0  0  0  0  0  0  0  0  0
  -20.8386   -9.2251   23.0794 C   0  0  0  0  0  0  0  0  0  0  0  0
  -25.5704  -13.7232   21.8346 C   0  0  0  0  0  0  0  0  0  0  0  0
  -21.8051   -9.7953   22.2291 C   0  0  0  0  0  0  0  0  0  0  0  0
  -25.7005  -14.3504   20.5873 C   0  0  0  0  0  0  0  0  0  0  0  0
  -24.4567  -31.6634   23.0121 C   0  0  0  0  0  0  0  0  0  0  0  0
  -27.8877  -13.3249   20.3137 C   0  0  0  0  0  0  0  0  0  0  0  0
  -23.9949  -33.9108   23.5202 C   0  0  0  0  0  0  0  0  0  0  0  0
  -24.6524  -36.6088   23.2531 C   0  0  0  0  0  0  0  0  0  0  0  0
  -24.3009  -34.6693   24.6501 C   0  0  0  0  0  0  0  0  0  0  0  0
  -26.9061  -28.8425   21.0269 C   0  0  0  0  0  0  0  0  0  0  0  0
  -28.1265  -27.7681   19.5466 C   0  0  0  0  0  0  0  0  0  0  0  0
  -30.0597  -18.8740   20.5539 C   0  0  0  0  0  0  0  0  0  0  0  0
  -30.8398  -16.9606   20.6541 C   0  0  0  0  0  0  0  0  0  0  0  0
  -29.4460  -20.1022   20.0185 C   0  0  0  0  0  0  0  0  0  0  0  0
  -27.1830  -29.9269   18.7112 C   0  0  0  0  0  0  0  0  0  0  0  0
  -22.5169  -13.2394   21.0958 C   0  0  0  0  0  0  0  0  0  0  0  0
  -22.5101  -16.4574   20.6871 C   0  0  0  0  0  0  0  0  0  0  0  0
  -24.2842  -19.2988   20.0348 C   0  0  0  0  0  0  0  0  0  0  0  0
  -28.6380  -22.2484   20.1977 C   0  0  0  0  0  0  0  0  0  0  0  0
  -19.4138   -9.7192   23.1049 C   0  0  0  0  0  0  0  0  0  0  0  0
  -24.3460  -13.9515   22.6779 C   0  0  0  0  0  0  0  0  0  0  0  0
  -24.6208  -15.2410   20.0309 C   0  0  0  0  0  0  0  0  0  0  0  0
  -19.2398  -11.1080   22.4957 C   0  0  0  0  0  0  0  0  0  0  0  0
  -29.7039  -24.3573   22.9219 C   0  0  0  0  0  0  0  0  0  0  0  0
  -19.9803  -11.2041   21.1655 C   0  0  0  0  0  0  0  0  0  0  0  0
  -29.0795  -25.7097   22.5787 C   0  0  0  0  0  0  0  0  0  0  0  0
  -28.8037  -23.2010   22.4974 C   0  0  0  0  0  0  0  0  0  0  0  0
  -27.7947  -24.5868   20.7057 C   0  0  0  0  0  0  0  0  0  0  0  0
  -21.4867  -10.9896   21.3559 C   0  0  1  0  0  0  0  0  0  0  0  0
  -23.1294  -14.3776   21.8620 C   0  0  1  0  0  0  0  0  0  0  0  0
  -28.6895  -25.7771   21.0913 C   0  0  1  0  0  0  0  0  0  0  0  0
  -23.9980  -21.7727   19.7265 C   0  0  0  0  0  0  0  0  0  0  0  0
  -32.4209  -15.4650   18.3493 C   0  0  0  0  0  0  0  0  0  0  0  0
  -21.3668  -15.9753   17.8996 C   0  0  0  0  0  0  0  0  0  0  0  0
  -21.9897  -18.3283   17.3132 C   0  0  0  0  0  0  0  0  0  0  0  0
  -20.3384  -17.8934   19.1316 C   0  0  0  0  0  0  0  0  0  0  0  0
  -26.0441  -19.9063   22.3353 C   0  0  0  0  0  0  0  0  0  0  0  0
  -31.3865  -13.4549   19.4606 C   0  0  0  0  0  0  0  0  0  0  0  0
  -30.2266  -12.8960   20.2787 C   0  0  0  0  0  0  0  0  0  1  0  0
  -22.7834  -17.3888   19.5310 C   0  0  1  0  0  0  0  0  0  0  0  0
  -24.2979  -20.6561   20.7144 C   0  0  2  0  0  0  0  0  0  0  0  0
  -31.2745  -14.9640   19.2221 C   0  0  1  0  0  0  0  0  0  0  0  0
  -21.6393  -17.3782   18.4782 C   0  0  0  0  0  0  0  0  0  0  0  0
  -27.3065  -27.7378   21.6619 N   0  0  0  0  0  0  0  0  0  0  0  0
  -30.3067  -17.7771   19.7807 N   0  0  0  0  0  0  0  0  0  0  0  0
  -30.4110  -18.7699   21.8390 N   0  0  0  0  0  0  0  0  0  0  0  0
  -29.2175  -21.1309   20.7675 N   0  0  0  0  0  0  0  0  0  0  0  0
  -28.0466  -27.1049   20.7357 N   0  0  0  0  0  0  0  0  0  0  0  0
  -23.4402  -15.4281   20.8904 N   0  0  0  0  0  0  0  0  0  0  0  0
  -28.4273  -23.3174   21.0879 N   0  0  0  0  0  0  0  0  0  0  0  0
  -28.8308  -27.2727   18.5069 N   0  0  0  0  0  0  0  0  0  0  0  0
  -26.3961  -31.0387   19.0411 N   0  0  0  0  0  0  0  0  0  0  0  0
  -31.3065  -15.6692   20.4865 N   0  0  0  0  0  0  0  0  0  0  0  0
  -22.1041  -12.1853   21.8882 N   0  0  0  0  0  0  0  0  0  0  0  0
  -23.0451  -18.6995   20.1158 N   0  0  0  0  0  0  0  0  0  0  0  0
  -25.6319  -20.9156   21.3262 N   0  3  0  0  0  0  0  0  0  0  0  0
  -27.6703  -29.8400   17.5586 O   0  0  0  0  0  0  0  0  0  0  0  0
  -22.4243  -13.3128   19.8760 O   0  0  0  0  0  0  0  0  0  0  0  0
  -21.5121  -16.6407   21.3886 O   0  0  0  0  0  0  0  0  0  0  0  0
  -25.2729  -18.8198   19.4836 O   0  0  0  0  0  0  0  0  0  0  0  0
  -28.3266  -22.3300   19.0072 O   0  0  0  0  0  0  0  0  0  0  0  0
  -30.9392  -17.4746   21.9080 O   0  0  0  0  0  0  0  0  0  0  0  0
  -23.6692  -32.5713   23.6510 O   0  0  0  0  0  0  0  0  0  0  0  0
  -29.0104  -13.1299   19.5699 O   0  0  0  0  0  0  0  0  0  1  0  0
  -24.9695  -37.9038   23.1246 F   0  0  0  0  0  0  0  0  0  0  0  0
  -24.2818  -34.1072   25.8665 F   0  0  0  0  0  0  0  0  0  0  0  0
  1  2  1  0  0  0  0
  1  5  2  0  0  0  0
  2  6  2  0  0  0  0
  3  8  2  0  0  0  0
  3 15  1  0  0  0  0
  4  9  1  0  0  0  0
  4 15  2  0  0  0  0
  5 17  1  0  0  0  0
  6 19  1  0  0  0  0
  7 10  2  0  0  0  0
  7 18  1  0  0  0  0
  8 21  1  0  0  0  0
  9 21  2  0  0  0  0
 10 22  1  0  0  0  0
 11 12  2  0  0  0  0
 11 23  1  0  0  0  0
 12 24  1  0  0  0  0
 13 20  1  0  0  0  0
 13 22  2  0  0  0  0
 14 24  2  0  0  0  0
 14 25  1  0  0  0  0
 15 26  1  0  0  0  0
 16 26  1  0  0  0  0
 16 27  2  0  0  0  0
 16 31  1  0  0  0  0
 17 19  2  0  0  0  0
 17 36  1  0  0  0  0
 18 20  2  0  0  0  0
 18 37  1  0  0  0  0
 19 45  1  0  0  0  0
 20 38  1  0  0  0  0
 21 79  1  0  0  0  0
 22 80  1  0  0  0  0
 23 25  2  0  0  0  0
 23 79  1  0  0  0  0
 24 81  1  0  0  0  0
 25 82  1  0  0  0  0
 26 60  2  0  0  0  0
 27 64  1  0  0  0  0
 27 67  1  0  0  0  0
 28 30  1  0  0  0  0
 28 61  1  0  0  0  0
 28 62  2  0  0  0  0
 29 61  2  0  0  0  0
 29 69  1  0  0  0  0
 29 78  1  0  0  0  0
 30 63  2  0  0  0  0
 31 68  1  0  0  0  0
 31 73  2  0  0  0  0
 32 46  1  0  0  0  0
 32 70  1  0  0  0  0
 32 74  2  0  0  0  0
 33 56  1  0  0  0  0
 33 65  1  0  0  0  0
 33 75  2  0  0  0  0
 34 57  1  0  0  0  0
 34 71  1  0  0  0  0
 34 76  2  0  0  0  0
 35 63  1  0  0  0  0
 35 66  1  0  0  0  0
 35 77  2  0  0  0  0
 36 39  1  0  0  0  0
 37 46  1  0  0  0  0
 38 65  1  0  0  0  0
 39 41  1  0  0  0  0
 40 42  1  0  0  0  0
 40 43  1  0  0  0  0
 41 45  1  0  0  0  0
 42 47  1  0  0  0  0
 43 66  1  0  0  0  0
 44 47  1  0  0  0  0
 44 66  1  0  0  0  0
 45 70  1  0  0  0  0
 46 65  1  0  0  0  0
 47 64  1  0  0  0  0
 48 57  1  0  0  0  0
 49 58  1  0  0  0  0
 50 59  1  0  0  0  0
 51 59  1  0  0  0  0
 52 59  1  0  0  0  0
 53 72  1  0  0  0  0
 54 55  1  0  0  0  0
 54 58  1  0  0  0  0
 55 80  1  0  0  0  0
 56 59  1  0  0  0  0
 56 71  1  0  0  0  0
 57 72  1  0  0  0  0
 58 69  1  0  0  0  0
 60 64  1  0  0  0  0
 62 78  1  0  0  0  0
M  CHG  1  72   1
M  ISO  4  35 100  55 101  63 100  80 101
M  END
> <Batch ID>
0194

> <Smiles>
CNC(C)C(=O)NC(C(=O)N1Cc2cc([101O:1][101CH2:1]CC(C)Nc3nc(C=[100N:0][100C:0](=O)N4CCCC(n5nc(-c6ccc(Oc7ccc(F)cc7F)cc6)c(C(N)=O)c5N)C4)no3)ccc2CC1C(=O)NC1CCCc2ccccc21)C(C)(C)C

> <Shape>
0.267

> <Color>
0.066

> <Negative vol penalty>
0.000

$$$$

  -OEChem-04052305333D

 83 91  0     1  0  0  0  0  0999 V2000
  -26.5197  -23.5200   17.1926 C   0  0  0  0  0  0  0  0  0  0  0  0
  -25.4057  -24.0383   17.8451 C   0  0  0  0  0  0  0  0  0  0  0  0
  -27.7814  -15.4284   21.3647 C   0  0  0  0  0  0  0  0  0  0  0  0
  -25.5586  -15.8673   20.5259 C   0  0  0  0  0  0  0  0  0  0  0  0
  -27.7975  -23.7720   17.6903 C   0  0  0  0  0  0  0  0  0  0  0  0
  -25.5688  -24.8079   18.9964 C   0  0  0  0  0  0  0  0  0  0  0  0
  -22.6855  -28.9709   18.9749 C   0  0  0  0  0  0  0  0  0  0  0  0
  -27.5969  -14.0642   21.1400 C   0  0  0  0  0  0  0  0  0  0  0  0
  -25.3741  -14.5030   20.3011 C   0  0  0  0  0  0  0  0  0  0  0  0
  -21.3348  -28.8116   19.2815 C   0  0  0  0  0  0  0  0  0  0  0  0
  -24.6292  -11.7559   22.1257 C   0  0  0  0  0  0  0  0  0  0  0  0
  -23.4185  -11.1910   22.5265 C   0  0  0  0  0  0  0  0  0  0  0  0
  -21.7626  -29.5677   21.5319 C   0  0  0  0  0  0  0  0  0  0  0  0
  -22.9700  -10.5338   20.2452 C   0  0  0  0  0  0  0  0  0  0  0  0
  -20.1084  -23.3707   19.5341 C   0  0  0  0  0  0  0  0  0  0  0  0
  -26.7622  -16.3299   21.0577 C   0  0  0  0  0  0  0  0  0  0  0  0
  -27.9388  -18.5688   20.7247 C   0  0  0  0  0  0  0  0  0  0  0  0
  -27.9769  -24.5531   18.8428 C   0  0  0  0  0  0  0  0  0  0  0  0
  -23.5883  -29.4203   19.9493 C   0  0  0  0  0  0  0  0  0  0  0  0
  -26.8501  -25.0694   19.5107 C   0  0  0  0  0  0  0  0  0  0  0  0
  -23.1238  -29.7344   21.2345 C   0  0  0  0  0  0  0  0  0  0  0  0
  -21.0854  -22.6150   20.1495 C   0  0  0  0  0  0  0  0  0  0  0  0
  -26.3932  -13.6015   20.6081 C   0  0  0  0  0  0  0  0  0  0  0  0
  -20.8736  -29.1072   20.5610 C   0  0  0  0  0  0  0  0  0  0  0  0
  -25.0103  -11.7098   20.7846 C   0  0  0  0  0  0  0  0  0  0  0  0
  -22.5889  -10.5799   21.5863 C   0  0  0  0  0  0  0  0  0  0  0  0
  -24.1807  -11.0988   19.8444 C   0  0  0  0  0  0  0  0  0  0  0  0
  -26.9520  -17.7392   21.2902 C   0  0  0  0  0  0  0  0  0  0  0  0
  -21.3664  -22.9533   21.4575 C   0  0  0  0  0  0  0  0  0  0  0  0
  -27.6929  -19.8093   21.2606 C   0  0  0  0  0  0  0  0  0  0  0  0
  -19.8139  -24.6131   21.4147 C   0  0  0  0  0  0  0  0  0  0  0  0
  -28.9841  -18.2469   19.7977 C   0  0  0  0  0  0  0  0  0  0  0  0
  -26.1666  -28.1995   21.3514 C   0  0  0  0  0  0  0  0  0  0  0  0
  -26.3715  -31.1566   22.6690 C   0  0  0  0  0  0  0  0  0  0  0  0
  -24.7845  -34.0336   23.5916 C   0  0  0  0  0  0  0  0  0  0  0  0
  -22.7825  -22.4027   23.4669 C   0  0  0  0  0  0  0  0  0  0  0  0
  -29.3749  -24.7589   19.3699 C   0  0  0  0  0  0  0  0  0  0  0  0
  -25.0374  -29.6124   19.5950 C   0  0  0  0  0  0  0  0  0  0  0  0
  -24.0487  -30.2393   22.3106 C   0  0  0  0  0  0  0  0  0  0  0  0
  -29.4829  -25.8962   20.3824 C   0  0  0  0  0  0  0  0  0  0  0  0
  -25.8749  -21.9100   25.1614 C   0  0  0  0  0  0  0  0  0  0  0  0
  -28.3631  -25.8009   21.4138 C   0  0  0  0  0  0  0  0  0  0  0  0
  -26.5944  -20.8645   24.3061 C   0  0  0  0  0  0  0  0  0  0  0  0
  -24.3704  -21.6527   25.2250 C   0  0  0  0  0  0  0  0  0  0  0  0
  -24.4283  -20.4671   23.0663 C   0  0  0  0  0  0  0  0  0  0  0  0
  -26.9876  -25.9295   20.7483 C   0  0  1  0  0  0  0  0  0  0  0  0
  -25.9584  -29.5860   20.8110 C   0  0  1  0  0  0  0  0  0  0  0  0
  -25.9374  -20.7219   22.9192 C   0  0  2  0  0  0  0  0  0  0  0  0
  -24.5262  -36.3810   24.4405 C   0  0  0  0  0  0  0  0  0  0  0  0
  -16.8244  -25.6674   21.4331 C   0  0  0  0  0  0  0  0  0  0  0  0
  -26.4867  -29.7961   25.3976 C   0  0  0  0  0  0  0  0  0  0  0  0
  -25.9526  -32.0066   26.4448 C   0  0  0  0  0  0  0  0  0  0  0  0
  -28.0527  -31.7272   25.1279 C   0  0  0  0  0  0  0  0  0  0  0  0
  -25.1604  -35.1764   20.8876 C   0  0  0  0  0  0  0  0  0  0  0  0
  -17.9686  -27.7687   22.2209 C   0  0  0  0  0  0  0  0  0  0  0  0
  -19.2337  -28.6210   22.2133 C   0  0  0  0  0  0  0  0  0  1  0  0
  -25.8336  -31.8095   23.9193 C   0  0  1  0  0  0  0  0  0  0  0  0
  -25.1333  -35.4936   23.3650 C   0  0  2  0  0  0  0  0  0  0  0  0
  -18.1309  -26.4548   21.4502 C   0  0  1  0  0  0  0  0  0  0  0  0
  -26.5641  -31.3235   25.2029 C   0  0  0  0  0  0  0  0  0  0  0  0
  -19.4499  -24.3809   20.1392 N   0  0  0  0  0  0  0  0  0  0  0  0
  -26.1399  -18.3972   22.1218 N   0  0  0  0  0  0  0  0  0  0  0  0
  -20.7478  -23.9504   22.1234 N   0  0  0  0  0  0  0  0  0  0  0  0
  -26.6159  -19.6533   22.0828 N   0  0  0  0  0  0  0  0  0  0  0  0
  -25.4577  -30.4046   21.9171 N   0  0  0  0  0  0  0  0  0  0  0  0
  -23.8162  -21.5332   23.8747 N   0  0  0  0  0  0  0  0  0  0  0  0
  -21.7334  -21.5779   19.4658 N   0  0  0  0  0  0  0  0  0  0  0  0
  -28.2950  -21.0073   21.1040 N   0  0  0  0  0  0  0  0  0  0  0  0
  -28.7170  -18.3534   18.4260 N   0  0  0  0  0  0  0  0  0  0  0  0
  -22.3581  -22.2168   22.1516 N   0  0  0  0  0  0  0  0  0  0  0  0
  -19.1588  -25.6423   22.0668 N   0  0  0  0  0  0  0  0  0  0  0  0
  -26.7043  -27.3141   20.4368 N   0  0  0  0  0  0  0  0  0  0  0  0
  -25.9136  -33.2489   23.6950 N   0  0  0  0  0  0  0  0  0  0  0  0
  -24.6259  -35.9476   22.0393 N   0  3  0  0  0  0  0  0  0  0  0  0
  -30.1163  -17.8599   20.1744 O   0  0  0  0  0  0  0  0  0  0  0  0
  -25.8633  -27.9518   22.5126 O   0  0  0  0  0  0  0  0  0  0  0  0
  -27.5570  -31.3141   22.3666 O   0  0  0  0  0  0  0  0  0  0  0  0
  -23.6264  -33.6303   23.6728 O   0  0  0  0  0  0  0  0  0  0  0  0
  -22.3275  -23.2678   24.2195 O   0  0  0  0  0  0  0  0  0  0  0  0
  -26.2129  -12.2704   20.3885 O   0  0  0  0  0  0  0  0  0  0  0  0
  -19.5559  -28.9519   20.8631 O   0  0  0  0  0  0  0  0  0  1  0  0
  -21.4270  -10.0361   21.9715 F   0  0  0  0  0  0  0  0  0  0  0  0
  -24.5420  -11.0504   18.5549 F   0  0  0  0  0  0  0  0  0  0  0  0
  1  2  1  0  0  0  0
  1  5  2  0  0  0  0
  2  6  2  0  0  0  0
  3  8  2  0  0  0  0
  3 16  1  0  0  0  0
  4  9  1  0  0  0  0
  4 16  2  0  0  0  0
  5 18  1  0  0  0  0
  6 20  1  0  0  0  0
  7 10  2  0  0  0  0
  7 19  1  0  0  0  0
  8 23  1  0  0  0  0
  9 23  2  0  0  0  0
 10 24  1  0  0  0  0
 11 12  2  0  0  0  0
 11 25  1  0  0  0  0
 12 26  1  0  0  0  0
 13 21  1  0  0  0  0
 13 24  2  0  0  0  0
 14 26  2  0  0  0  0
 14 27  1  0  0  0  0
 15 22  1  0  0  0  0
 15 61  2  0  0  0  0
 16 28  1  0  0  0  0
 17 28  1  0  0  0  0
 17 30  2  0  0  0  0
 17 32  1  0  0  0  0
 18 20  2  0  0  0  0
 18 37  1  0  0  0  0
 19 21  2  0  0  0  0
 19 38  1  0  0  0  0
 20 46  1  0  0  0  0
 21 39  1  0  0  0  0
 22 29  2  0  0  0  0
 22 67  1  0  0  0  0
 23 80  1  0  0  0  0
 24 81  1  0  0  0  0
 25 27  2  0  0  0  0
 25 80  1  0  0  0  0
 26 82  1  0  0  0  0
 27 83  1  0  0  0  0
 28 62  2  0  0  0  0
 29 63  1  0  0  0  0
 29 70  1  0  0  0  0
 30 64  1  0  0  0  0
 30 68  1  0  0  0  0
 31 61  1  0  0  0  0
 31 63  2  0  0  0  0
 31 71  1  0  0  0  0
 32 69  1  0  0  0  0
 32 75  2  0  0  0  0
 33 47  1  0  0  0  0
 33 72  1  0  0  0  0
 33 76  2  0  0  0  0
 34 57  1  0  0  0  0
 34 65  1  0  0  0  0
 34 77  2  0  0  0  0
 35 58  1  0  0  0  0
 35 73  1  0  0  0  0
 35 78  2  0  0  0  0
 36 66  1  0  0  0  0
 36 70  1  0  0  0  0
 36 79  2  0  0  0  0
 37 40  1  0  0  0  0
 38 47  1  0  0  0  0
 39 65  1  0  0  0  0
 40 42  1  0  0  0  0
 41 43  1  0  0  0  0
 41 44  1  0  0  0  0
 42 46  1  0  0  0  0
 43 48  1  0  0  0  0
 44 66  1  0  0  0  0
 45 48  1  0  0  0  0
 45 66  1  0  0  0  0
 46 72  1  0  0  0  0
 47 65  1  0  0  0  0
 48 64  1  0  0  0  0
 49 58  1  0  0  0  0
 50 59  1  0  0  0  0
 51 60  1  0  0  0  0
 52 60  1  0  0  0  0
 53 60  1  0  0  0  0
 54 74  1  0  0  0  0
 55 56  1  0  0  0  0
 55 59  1  0  0  0  0
 56 81  1  0  0  0  0
 57 60  1  0  0  0  0
 57 73  1  0  0  0  0
 58 74  1  0  0  0  0
 59 71  1  0  0  0  0
 62 64  1  0  0  0  0
M  CHG  1  74   1
M  ISO  4  36 100  56 101  70 100  81 101
M  END
> <Batch ID>
0194

> <Smiles>
CNC(C)C(=O)NC(C(=O)N1Cc2cc([101O:1][101CH2:1]CC(C)Nc3ncc(N)c([100NH:0][100C:0](=O)N4CCCC(n5nc(-c6ccc(Oc7ccc(F)cc7F)cc6)c(C(N)=O)c5N)C4)n3)ccc2CC1C(=O)NC1CCCc2ccccc21)C(C)(C)C

> <Shape>
0.288

> <Color>
0.072

> <Negative vol penalty>
0.000

$$$$

  -OEChem-04052305333D

 83 91  0     1  0  0  0  0  0999 V2000
  -29.1659  -33.6246   24.3424 C   0  0  0  0  0  0  0  0  0  0  0  0
  -29.2819  -32.2553   24.1254 C   0  0  0  0  0  0  0  0  0  0  0  0
  -27.9803  -23.7454   14.6887 C   0  0  0  0  0  0  0  0  0  0  0  0
  -26.9604  -12.9621   21.0101 C   0  0  0  0  0  0  0  0  0  0  0  0
  -26.8899  -13.2736   18.6153 C   0  0  0  0  0  0  0  0  0  0  0  0
  -27.9063  -34.2220   24.3616 C   0  0  0  0  0  0  0  0  0  0  0  0
  -28.1381  -31.4824   23.9285 C   0  0  0  0  0  0  0  0  0  0  0  0
  -28.6342  -28.2224   20.0852 C   0  0  0  0  0  0  0  0  0  0  0  0
  -26.3355  -11.7233   20.8674 C   0  0  0  0  0  0  0  0  0  0  0  0
  -26.2651  -12.0347   18.4726 C   0  0  0  0  0  0  0  0  0  0  0  0
  -29.3683  -27.0617   20.3255 C   0  0  0  0  0  0  0  0  0  0  0  0
  -24.4336   -8.6380   21.1628 C   0  0  0  0  0  0  0  0  0  0  0  0
  -23.3888   -8.3326   22.0349 C   0  0  0  0  0  0  0  0  0  0  0  0
  -26.8289  -23.0303   14.9985 C   0  0  0  0  0  0  0  0  0  0  0  0
  -29.0298  -23.7914   15.5997 C   0  0  0  0  0  0  0  0  0  0  0  0
  -27.3146  -25.8308   20.6191 C   0  0  0  0  0  0  0  0  0  0  0  0
  -22.1576  -10.2498   21.2312 C   0  0  0  0  0  0  0  0  0  0  0  0
  -27.2376  -13.7373   19.8841 C   0  0  0  0  0  0  0  0  0  0  0  0
  -29.2660  -15.2780   20.0239 C   0  0  0  0  0  0  0  0  0  0  0  0
  -26.7471  -33.4576   24.1552 C   0  0  0  0  0  0  0  0  0  0  0  0
  -27.2326  -28.1982   20.1208 C   0  0  0  0  0  0  0  0  0  0  0  0
  -26.8616  -32.0700   23.9462 C   0  0  0  0  0  0  0  0  0  0  0  0
  -26.5650  -26.9919   20.3763 C   0  0  0  0  0  0  0  0  0  0  0  0
  -25.9879  -11.2596   19.5986 C   0  0  0  0  0  0  0  0  0  0  0  0
  -28.7086  -25.8663   20.5953 C   0  0  0  0  0  0  0  0  0  0  0  0
  -24.3405   -9.7493   20.3249 C   0  0  0  0  0  0  0  0  0  0  0  0
  -22.2508   -9.1385   22.0692 C   0  0  0  0  0  0  0  0  0  0  0  0
  -23.2025  -10.5551   20.3591 C   0  0  0  0  0  0  0  0  0  0  0  0
  -27.8826  -15.0174   20.0309 C   0  0  0  0  0  0  0  0  0  0  0  0
  -26.7769  -22.3836   16.2228 C   0  0  0  0  0  0  0  0  0  0  0  0
  -28.8791  -23.1108   16.7971 C   0  0  0  0  0  0  0  0  0  0  0  0
  -29.3601  -16.6373   20.1971 C   0  0  0  0  0  0  0  0  0  0  0  0
  -30.3674  -14.3724   19.8742 C   0  0  0  0  0  0  0  0  0  0  0  0
  -25.0089  -29.6208   21.8914 C   0  0  0  0  0  0  0  0  0  0  0  0
  -22.9841  -28.2018   19.7917 C   0  0  0  0  0  0  0  0  0  0  0  0
  -22.4290  -25.6907   17.5483 C   0  0  0  0  0  0  0  0  0  0  0  0
  -25.6204  -21.1652   19.0295 C   0  0  0  0  0  0  0  0  0  0  0  0
  -25.4043  -34.1401   24.2318 C   0  0  0  0  0  0  0  0  0  0  0  0
  -26.4549  -29.4531   19.8330 C   0  0  0  0  0  0  0  0  0  0  0  0
  -25.0615  -26.9085   20.4059 C   0  0  0  0  0  0  0  0  0  0  0  0
  -24.2656  -33.3121   23.6418 C   0  0  0  0  0  0  0  0  0  0  0  0
  -27.0507  -20.3282   22.1807 C   0  0  0  0  0  0  0  0  0  0  0  0
  -24.3380  -31.8726   24.1412 C   0  0  0  0  0  0  0  0  0  0  0  0
  -27.5509  -18.8957   21.9865 C   0  0  0  0  0  0  0  0  0  0  0  0
  -25.7428  -20.5756   21.4324 C   0  0  0  0  0  0  0  0  0  0  0  0
  -26.2773  -18.8058   19.8027 C   0  0  0  0  0  0  0  0  0  0  0  0
  -25.6459  -31.2020   23.7039 C   0  0  1  0  0  0  0  0  0  0  0  0
  -25.0398  -29.4228   20.4023 C   0  0  1  0  0  0  0  0  0  0  0  0
  -27.6230  -18.5246   20.4930 C   0  0  2  0  0  0  0  0  0  0  0  0
  -20.6650  -24.7691   16.0197 C   0  0  0  0  0  0  0  0  0  0  0  0
  -30.2027  -21.0223   18.7809 C   0  0  0  0  0  0  0  0  0  0  0  0
  -21.5308  -27.0064   22.1935 C   0  0  0  0  0  0  0  0  0  0  0  0
  -20.4265  -25.3901   20.6326 C   0  0  0  0  0  0  0  0  0  0  0  0
  -20.0300  -27.8394   20.3747 C   0  0  0  0  0  0  0  0  0  0  0  0
  -24.1129  -26.1247   15.1535 C   0  0  0  0  0  0  0  0  0  0  0  0
  -25.5559  -21.6070   16.5882 C   0  0  0  0  0  0  0  0  0  0  0  0
  -30.9660  -23.1436   19.9046 C   0  0  0  0  0  0  0  0  0  0  0  0
  -30.6907  -24.6173   20.1863 C   0  0  0  0  0  0  0  0  0  1  0  0
  -22.2733  -26.8717   19.7244 C   0  0  1  0  0  0  0  0  0  0  0  0
  -21.8578  -25.7045   16.1418 C   0  0  2  0  0  0  0  0  0  0  0  0
  -29.9206  -22.5078   18.9828 C   0  0  1  0  0  0  0  0  0  0  0  0
  -21.0935  -26.7786   20.7327 C   0  0  0  0  0  0  0  0  0  0  0  0
  -27.1505  -16.1224   20.1957 N   0  0  0  0  0  0  0  0  0  0  0  0
  -27.7759  -22.4055   17.1334 N   0  0  0  0  0  0  0  0  0  0  0  0
  -28.0774  -17.0905   20.2939 N   0  0  0  0  0  0  0  0  0  0  0  0
  -24.3456  -28.1638   20.1245 N   0  0  0  0  0  0  0  0  0  0  0  0
  -25.8788  -20.2051   20.0216 N   0  0  0  0  0  0  0  0  0  0  0  0
  -30.4142  -17.4771   20.2746 N   0  0  0  0  0  0  0  0  0  0  0  0
  -30.0927  -13.0084   19.7056 N   0  0  0  0  0  0  0  0  0  0  0  0
  -29.9319  -23.1657   17.6929 N   0  0  0  0  0  0  0  0  0  0  0  0
  -25.5723  -30.8102   22.3127 N   0  0  0  0  0  0  0  0  0  0  0  0
  -21.8841  -26.6869   18.3305 N   0  0  0  0  0  0  0  0  0  0  0  0
  -25.7790  -20.7332   17.7184 N   0  0  0  0  0  0  0  0  0  0  0  0
  -22.8928  -25.2773   15.1583 N   0  3  0  0  0  0  0  0  0  0  0  0
  -31.5603  -14.7591   19.9059 O   0  0  0  0  0  0  0  0  0  0  0  0
  -24.5095  -28.7591   22.6053 O   0  0  0  0  0  0  0  0  0  0  0  0
  -22.3562  -29.2359   19.5506 O   0  0  0  0  0  0  0  0  0  0  0  0
  -23.2712  -24.8752   17.9172 O   0  0  0  0  0  0  0  0  0  0  0  0
  -25.2793  -22.3234   19.2927 O   0  0  0  0  0  0  0  0  0  0  0  0
  -25.3783  -10.0507   19.4590 O   0  0  0  0  0  0  0  0  0  0  0  0
  -29.4227  -24.7321   20.8309 O   0  0  0  0  0  0  0  0  0  1  0  0
  -21.2468   -8.8442   22.9057 F   0  0  0  0  0  0  0  0  0  0  0  0
  -23.1067  -11.6234   19.5556 F   0  0  0  0  0  0  0  0  0  0  0  0
  1  2  1  0  0  0  0
  1  6  2  0  0  0  0
  2  7  2  0  0  0  0
  3 14  1  0  0  0  0
  3 15  2  0  0  0  0
  4  9  2  0  0  0  0
  4 18  1  0  0  0  0
  5 10  1  0  0  0  0
  5 18  2  0  0  0  0
  6 20  1  0  0  0  0
  7 22  1  0  0  0  0
  8 11  2  0  0  0  0
  8 21  1  0  0  0  0
  9 24  1  0  0  0  0
 10 24  2  0  0  0  0
 11 25  1  0  0  0  0
 12 13  2  0  0  0  0
 12 26  1  0  0  0  0
 13 27  1  0  0  0  0
 14 30  2  0  0  0  0
 15 31  1  0  0  0  0
 16 23  1  0  0  0  0
 16 25  2  0  0  0  0
 17 27  2  0  0  0  0
 17 28  1  0  0  0  0
 18 29  1  0  0  0  0
 19 29  1  0  0  0  0
 19 32  2  0  0  0  0
 19 33  1  0  0  0  0
 20 22  2  0  0  0  0
 20 38  1  0  0  0  0
 21 23  2  0  0  0  0
 21 39  1  0  0  0  0
 22 47  1  0  0  0  0
 23 40  1  0  0  0  0
 24 80  1  0  0  0  0
 25 81  1  0  0  0  0
 26 28  2  0  0  0  0
 26 80  1  0  0  0  0
 27 82  1  0  0  0  0
 28 83  1  0  0  0  0
 29 63  2  0  0  0  0
 30 56  1  0  0  0  0
 30 64  1  0  0  0  0
 31 64  2  0  0  0  0
 31 70  1  0  0  0  0
 32 65  1  0  0  0  0
 32 68  1  0  0  0  0
 33 69  1  0  0  0  0
 33 75  2  0  0  0  0
 34 48  1  0  0  0  0
 34 71  1  0  0  0  0
 34 76  2  0  0  0  0
 35 59  1  0  0  0  0
 35 66  1  0  0  0  0
 35 77  2  0  0  0  0
 36 60  1  0  0  0  0
 36 72  1  0  0  0  0
 36 78  2  0  0  0  0
 37 67  1  0  0  0  0
 37 73  1  0  0  0  0
 37 79  2  0  0  0  0
 38 41  1  0  0  0  0
 39 48  1  0  0  0  0
 40 66  1  0  0  0  0
 41 43  1  0  0  0  0
 42 44  1  0  0  0  0
 42 45  1  0  0  0  0
 43 47  1  0  0  0  0
 44 49  1  0  0  0  0
 45 67  1  0  0  0  0
 46 49  1  0  0  0  0
 46 67  1  0  0  0  0
 47 71  1  0  0  0  0
 48 66  1  0  0  0  0
 49 65  1  0  0  0  0
 50 60  1  0  0  0  0
 51 61  1  0  0  0  0
 52 62  1  0  0  0  0
 53 62  1  0  0  0  0
 54 62  1  0  0  0  0
 55 74  1  0  0  0  0
 56 73  1  0  0  0  0
 57 58  1  0  0  0  0
 57 61  1  0  0  0  0
 58 81  1  0  0  0  0
 59 62  1  0  0  0  0
 59 72  1  0  0  0  0
 60 74  1  0  0  0  0
 61 70  1  0  0  0  0
 63 65  1  0  0  0  0
M  CHG  1  74   1
M  ISO  4  37 100  58 101  73 100  81 101
M  END
> <Batch ID>
0194

> <Smiles>
CNC(C)C(=O)NC(C(=O)N1Cc2cc([101O:1][101CH2:1]CC(C)Nc3cccc(C[100NH:0][100C:0](=O)N4CCCC(n5nc(-c6ccc(Oc7ccc(F)cc7F)cc6)c(C(N)=O)c5N)C4)n3)ccc2CC1C(=O)NC1CCCc2ccccc21)C(C)(C)C

> <Shape>
0.272

> <Color>
0.076

> <Negative vol penalty>
0.000

$$$$

  -OEChem-04052305333D

 83 91  0     1  0  0  0  0  0999 V2000
  -30.9975  -24.8709   18.9287 C   0  0  0  0  0  0  0  0  0  0  0  0
  -29.6141  -24.7732   19.0382 C   0  0  0  0  0  0  0  0  0  0  0  0
  -25.8717  -13.7902   19.4910 C   0  0  0  0  0  0  0  0  0  0  0  0
  -24.0219  -13.8129   21.0449 C   0  0  0  0  0  0  0  0  0  0  0  0
  -31.7174  -25.6241   19.8552 C   0  0  0  0  0  0  0  0  0  0  0  0
  -28.9498  -25.4277   20.0749 C   0  0  0  0  0  0  0  0  0  0  0  0
  -23.3891  -27.9838   19.8499 C   0  0  0  0  0  0  0  0  0  0  0  0
  -26.1103  -12.4499   19.7945 C   0  0  0  0  0  0  0  0  0  0  0  0
  -24.2604  -12.4725   21.3484 C   0  0  0  0  0  0  0  0  0  0  0  0
  -22.1328  -27.5335   20.2533 C   0  0  0  0  0  0  0  0  0  0  0  0
  -23.6370   -9.4564   19.9574 C   0  0  0  0  0  0  0  0  0  0  0  0
  -22.5366   -8.6014   20.0177 C   0  0  0  0  0  0  0  0  0  0  0  0
  -22.3892  -28.7094   22.3439 C   0  0  0  0  0  0  0  0  0  0  0  0
  -23.0523   -8.1002   22.3242 C   0  0  0  0  0  0  0  0  0  0  0  0
  -20.9488  -22.9528   22.8291 C   0  0  0  0  0  0  0  0  0  0  0  0
  -24.8276  -14.4718   20.1162 C   0  0  0  0  0  0  0  0  0  0  0  0
  -23.7399  -16.3637   18.7951 C   0  0  0  0  0  0  0  0  0  0  0  0
  -31.0607  -26.2961   20.8982 C   0  0  0  0  0  0  0  0  0  0  0  0
  -24.1608  -28.7927   20.6964 C   0  0  0  0  0  0  0  0  0  0  0  0
  -29.6618  -26.1895   21.0170 C   0  0  0  0  0  0  0  0  0  0  0  0
  -23.6539  -29.1708   21.9479 C   0  0  0  0  0  0  0  0  0  0  0  0
  -25.3046  -11.7910   20.7232 C   0  0  0  0  0  0  0  0  0  0  0  0
  -21.6339  -27.8939   21.5016 C   0  0  0  0  0  0  0  0  0  0  0  0
  -24.4451   -9.6332   21.0805 C   0  0  0  0  0  0  0  0  0  0  0  0
  -22.2442   -7.9234   21.2011 C   0  0  0  0  0  0  0  0  0  0  0  0
  -24.1527   -8.9552   22.2639 C   0  0  0  0  0  0  0  0  0  0  0  0
  -24.5811  -15.8566   19.8036 C   0  0  0  0  0  0  0  0  0  0  0  0
  -22.0453  -23.5698   25.1838 C   0  0  0  0  0  0  0  0  0  0  0  0
  -22.4044  -22.4225   24.5113 C   0  0  0  0  0  0  0  0  0  0  0  0
  -20.5891  -24.0997   23.5019 C   0  0  0  0  0  0  0  0  0  0  0  0
  -23.8512  -17.7279   18.9089 C   0  0  0  0  0  0  0  0  0  0  0  0
  -22.9302  -15.6641   17.8408 C   0  0  0  0  0  0  0  0  0  0  0  0
  -26.9937  -28.5010   22.1084 C   0  0  0  0  0  0  0  0  0  0  0  0
  -26.4430  -31.5780   22.9749 C   0  0  0  0  0  0  0  0  0  0  0  0
  -24.1766  -34.0603   23.5656 C   0  0  0  0  0  0  0  0  0  0  0  0
  -25.3040  -21.3345   23.4622 C   0  0  0  0  0  0  0  0  0  0  0  0
  -31.8863  -27.0595   21.9033 C   0  0  0  0  0  0  0  0  0  0  0  0
  -25.5027  -29.2921   20.2356 C   0  0  0  0  0  0  0  0  0  0  0  0
  -24.4343  -30.0540   22.8856 C   0  0  0  0  0  0  0  0  0  0  0  0
  -31.0684  -28.0286   22.7530 C   0  0  0  0  0  0  0  0  0  0  0  0
  -26.9145  -21.1323   20.2934 C   0  0  0  0  0  0  0  0  0  0  0  0
  -29.8049  -27.3489   23.2711 C   0  0  0  0  0  0  0  0  0  0  0  0
  -26.4232  -19.8030   19.7175 C   0  0  0  0  0  0  0  0  0  0  0  0
  -27.1223  -21.0505   21.8040 C   0  0  0  0  0  0  0  0  0  0  0  0
  -25.4636  -19.2371   21.9885 C   0  0  0  0  0  0  0  0  0  0  0  0
  -28.9027  -26.9053   22.1132 C   0  0  1  0  0  0  0  0  0  0  0  0
  -26.4206  -29.6885   21.3879 C   0  0  1  0  0  0  0  0  0  0  0  0
  -25.1861  -19.2863   20.4763 C   0  0  2  0  0  0  0  0  0  0  0  0
  -22.6525  -23.9226   26.4984 C   0  0  0  0  0  0  0  0  0  0  0  0
  -24.0249  -36.4558   24.2976 C   0  0  0  0  0  0  0  0  0  0  0  0
  -17.8283  -26.5255   22.9401 C   0  0  0  0  0  0  0  0  0  0  0  0
  -26.9594  -30.7269   25.8591 C   0  0  0  0  0  0  0  0  0  0  0  0
  -25.8856  -32.8610   26.6078 C   0  0  0  0  0  0  0  0  0  0  0  0
  -27.9614  -32.9291   25.2260 C   0  0  0  0  0  0  0  0  0  0  0  0
  -22.9353  -34.8842   21.0084 C   0  0  0  0  0  0  0  0  0  0  0  0
  -23.4167  -21.4803   25.0672 C   0  0  0  0  0  0  0  0  0  0  0  0
  -20.2084  -27.2641   23.2980 C   0  0  0  0  0  0  0  0  0  1  0  0
  -25.7761  -32.2555   24.1476 C   0  0  1  0  0  0  0  0  0  0  0  0
  -24.1277  -35.5083   23.1125 C   0  0  2  0  0  0  0  0  0  0  0  0
  -19.1812  -26.1593   23.5361 C   0  0  2  0  0  0  0  0  0  0  0  0
  -26.6315  -32.1749   25.4435 C   0  0  0  0  0  0  0  0  0  0  0  0
  -21.8629  -22.0935   23.3218 N   0  0  0  0  0  0  0  0  0  0  0  0
  -25.1825  -16.8202   20.5062 N   0  0  0  0  0  0  0  0  0  0  0  0
  -21.1309  -24.4288   24.6913 N   0  0  0  0  0  0  0  0  0  0  0  0
  -24.7187  -17.9465   19.9384 N   0  0  0  0  0  0  0  0  0  0  0  0
  -25.7438  -30.5115   22.3922 N   0  0  0  0  0  0  0  0  0  0  0  0
  -25.9119  -20.5553   22.4641 N   0  0  0  0  0  0  0  0  0  0  0  0
  -23.2907  -18.7498   18.2278 N   0  0  0  0  0  0  0  0  0  0  0  0
  -22.9323  -14.2627   17.8625 N   0  0  0  0  0  0  0  0  0  0  0  0
  -19.6429  -24.9281   22.9270 N   0  0  0  0  0  0  0  0  0  0  0  0
  -28.1802  -28.0370   21.5732 N   0  0  0  0  0  0  0  0  0  0  0  0
  -25.4732  -33.6155   23.7152 N   0  0  0  0  0  0  0  0  0  0  0  0
  -24.1575  -20.7945   24.0321 N   0  0  0  0  0  0  0  0  0  0  0  0
  -22.9509  -35.7344   22.2266 N   0  3  0  0  0  0  0  0  0  0  0  0
  -22.2385  -16.2637   16.9832 O   0  0  0  0  0  0  0  0  0  0  0  0
  -26.4039  -28.0408   23.0789 O   0  0  0  0  0  0  0  0  0  0  0  0
  -27.5404  -31.9849   22.5855 O   0  0  0  0  0  0  0  0  0  0  0  0
  -23.1658  -33.3918   23.7702 O   0  0  0  0  0  0  0  0  0  0  0  0
  -25.7469  -22.4327   23.8155 O   0  0  0  0  0  0  0  0  0  0  0  0
  -25.5369  -10.4830   21.0194 O   0  0  0  0  0  0  0  0  0  0  0  0
  -20.4082  -27.4553   21.8981 O   0  0  0  0  0  0  0  0  0  1  0  0
  -21.1865   -7.1035   21.2592 F   0  0  0  0  0  0  0  0  0  0  0  0
  -24.9248   -9.1220   23.3465 F   0  0  0  0  0  0  0  0  0  0  0  0
  1  2  1  0  0  0  0
  1  5  2  0  0  0  0
  2  6  2  0  0  0  0
  3  8  2  0  0  0  0
  3 16  1  0  0  0  0
  4  9  1  0  0  0  0
  4 16  2  0  0  0  0
  5 18  1  0  0  0  0
  6 20  1  0  0  0  0
  7 10  2  0  0  0  0
  7 19  1  0  0  0  0
  8 22  1  0  0  0  0
  9 22  2  0  0  0  0
 10 23  1  0  0  0  0
 11 12  2  0  0  0  0
 11 24  1  0  0  0  0
 12 25  1  0  0  0  0
 13 21  1  0  0  0  0
 13 23  2  0  0  0  0
 14 25  2  0  0  0  0
 14 26  1  0  0  0  0
 15 30  1  0  0  0  0
 15 62  2  0  0  0  0
 16 27  1  0  0  0  0
 17 27  1  0  0  0  0
 17 31  2  0  0  0  0
 17 32  1  0  0  0  0
 18 20  2  0  0  0  0
 18 37  1  0  0  0  0
 19 21  2  0  0  0  0
 19 38  1  0  0  0  0
 20 46  1  0  0  0  0
 21 39  1  0  0  0  0
 22 80  1  0  0  0  0
 23 81  1  0  0  0  0
 24 26  2  0  0  0  0
 24 80  1  0  0  0  0
 25 82  1  0  0  0  0
 26 83  1  0  0  0  0
 27 63  2  0  0  0  0
 28 29  2  0  0  0  0
 28 49  1  0  0  0  0
 28 64  1  0  0  0  0
 29 56  1  0  0  0  0
 29 62  1  0  0  0  0
 30 64  2  0  0  0  0
 30 70  1  0  0  0  0
 31 65  1  0  0  0  0
 31 68  1  0  0  0  0
 32 69  1  0  0  0  0
 32 75  2  0  0  0  0
 33 47  1  0  0  0  0
 33 71  1  0  0  0  0
 33 76  2  0  0  0  0
 34 58  1  0  0  0  0
 34 66  1  0  0  0  0
 34 77  2  0  0  0  0
 35 59  1  0  0  0  0
 35 72  1  0  0  0  0
 35 78  2  0  0  0  0
 36 67  1  0  0  0  0
 36 73  1  0  0  0  0
 36 79  2  0  0  0  0
 37 40  1  0  0  0  0
 38 47  1  0  0  0  0
 39 66  1  0  0  0  0
 40 42  1  0  0  0  0
 41 43  1  0  0  0  0
 41 44  1  0  0  0  0
 42 46  1  0  0  0  0
 43 48  1  0  0  0  0
 44 67  1  0  0  0  0
 45 48  1  0  0  0  0
 45 67  1  0  0  0  0
 46 71  1  0  0  0  0
 47 66  1  0  0  0  0
 48 65  1  0  0  0  0
 50 59  1  0  0  0  0
 51 60  1  0  0  0  0
 52 61  1  0  0  0  0
 53 61  1  0  0  0  0
 54 61  1  0  0  0  0
 55 74  1  0  0  0  0
 56 73  1  0  0  0  0
 57 60  1  0  0  0  0
 57 81  1  0  0  0  0
 58 61  1  0  0  0  0
 58 72  1  0  0  0  0
 59 74  1  0  0  0  0
 60 70  1  0  0  0  0
 63 65  1  0  0  0  0
M  CHG  1  74   1
M  ISO  4  36 100  57 101  73 100  81 101
M  END
> <Batch ID>
0194

> <Smiles>
CNC(C)C(=O)NC(C(=O)N1Cc2cc([101O:1][101CH2:1]C(C)Nc3cnc(C[100NH:0][100C:0](=O)N4CCCC(n5nc(-c6ccc(Oc7ccc(F)cc7F)cc6)c(C(N)=O)c5N)C4)c(C)n3)ccc2CC1C(=O)NC1CCCc2ccccc21)C(C)(C)C

> <Shape>
0.271

> <Color>
0.068

> <Negative vol penalty>
0.000

$$$$

  -OEChem-04052305333D

 88 96  0     1  0  0  0  0  0999 V2000
  -18.6324  -24.1433   24.2760 C   0  0  0  0  0  0  0  0  0  0  0  0
  -19.9966  -24.0735   24.0124 C   0  0  0  0  0  0  0  0  0  0  0  0
  -22.8765  -12.1411   22.2807 C   0  0  0  0  0  0  0  0  0  0  0  0
  -22.9779  -14.5453   22.0642 C   0  0  0  0  0  0  0  0  0  0  0  0
  -17.9192  -25.2970   23.9531 C   0  0  0  0  0  0  0  0  0  0  0  0
  -20.6483  -25.1572   23.4247 C   0  0  0  0  0  0  0  0  0  0  0  0
  -25.0620  -26.2197   25.6686 C   0  0  0  0  0  0  0  0  0  0  0  0
  -21.9540  -12.2735   23.3185 C   0  0  0  0  0  0  0  0  0  0  0  0
  -22.0553  -14.6776   23.1020 C   0  0  0  0  0  0  0  0  0  0  0  0
  -26.1486  -25.4049   25.3540 C   0  0  0  0  0  0  0  0  0  0  0  0
  -18.6462  -12.8928   23.6471 C   0  0  0  0  0  0  0  0  0  0  0  0
  -17.5258  -12.0622   23.6283 C   0  0  0  0  0  0  0  0  0  0  0  0
  -26.9510  -27.0796   23.8143 C   0  0  0  0  0  0  0  0  0  0  0  0
  -18.1758  -11.1370   25.7634 C   0  0  0  0  0  0  0  0  0  0  0  0
  -23.3885  -13.2771   21.6535 C   0  0  0  0  0  0  0  0  0  0  0  0
  -24.0644  -13.0291   19.2062 C   0  0  0  0  0  0  0  0  0  0  0  0
  -18.5644  -26.3990   23.3700 C   0  0  0  0  0  0  0  0  0  0  0  0
  -24.9056  -27.4681   25.0493 C   0  0  0  0  0  0  0  0  0  0  0  0
  -19.9428  -26.3262   23.0925 C   0  0  0  0  0  0  0  0  0  0  0  0
  -25.8628  -27.9095   24.1247 C   0  0  0  0  0  0  0  0  0  0  0  0
  -21.5434  -13.5417   23.7291 C   0  0  0  0  0  0  0  0  0  0  0  0
  -27.0918  -25.8335   24.4246 C   0  0  0  0  0  0  0  0  0  0  0  0
  -19.5315  -12.8454   24.7240 C   0  0  0  0  0  0  0  0  0  0  0  0
  -17.2905  -11.1843   24.6864 C   0  0  0  0  0  0  0  0  0  0  0  0
  -19.2963  -11.9676   25.7822 C   0  0  0  0  0  0  0  0  0  0  0  0
  -24.3419  -13.1410   20.5818 C   0  0  0  0  0  0  0  0  0  0  0  0
  -25.2993  -12.9245   18.6142 C   0  0  0  0  0  0  0  0  0  0  0  0
  -30.7460  -19.3653   19.5869 C   0  0  0  0  0  0  0  0  0  0  0  0
  -30.7741  -17.2097   19.8837 C   0  0  0  0  0  0  0  0  0  0  0  0
  -22.8031  -13.0204   18.5245 C   0  0  0  0  0  0  0  0  0  0  0  0
  -22.7088  -28.7753   23.1601 C   0  0  0  0  0  0  0  0  0  0  0  0
  -24.5096  -31.4427   23.5650 C   0  0  0  0  0  0  0  0  0  0  0  0
  -27.5523  -32.7993   24.3058 C   0  0  0  0  0  0  0  0  0  0  0  0
  -30.7662  -14.7146   20.2309 C   0  0  0  0  0  0  0  0  0  0  0  0
  -17.7424  -27.6067   22.9953 C   0  0  0  0  0  0  0  0  0  0  0  0
  -23.7422  -28.3467   25.4194 C   0  0  0  0  0  0  0  0  0  0  0  0
  -25.7516  -29.2498   23.4468 C   0  0  0  0  0  0  0  0  0  0  0  0
  -18.5807  -28.8520   22.7183 C   0  0  0  0  0  0  0  0  0  0  0  0
  -29.7502  -11.3852   19.4827 C   0  0  0  0  0  0  0  0  0  0  0  0
  -19.7598  -28.5112   21.8125 C   0  0  0  0  0  0  0  0  0  0  0  0
  -28.2226  -11.4488   19.5484 C   0  0  0  0  0  0  0  0  0  0  0  0
  -30.4010  -12.2760   20.5393 C   0  0  0  0  0  0  0  0  0  0  0  0
  -28.4175  -13.7356   20.6065 C   0  0  0  0  0  0  0  0  0  0  0  0
  -20.6901  -27.4902   22.4786 C   0  0  1  0  0  0  0  0  0  0  0  0
  -23.4071  -29.3779   24.3463 C   0  0  1  0  0  0  0  0  0  0  0  0
  -27.7174  -12.9047   19.5188 C   0  0  2  0  0  0  0  0  0  0  0  0
  -29.3046  -20.9974   18.3018 C   0  0  0  0  0  0  0  0  0  0  0  0
  -28.7250  -35.0075   24.5205 C   0  0  0  0  0  0  0  0  0  0  0  0
  -26.8280  -24.9340   19.6765 C   0  0  0  0  0  0  0  0  0  0  0  0
  -25.3667  -22.9066   19.5558 C   0  0  0  0  0  0  0  0  0  0  0  0
  -31.1573  -23.2523   21.1592 C   0  0  0  0  0  0  0  0  0  0  0  0
  -24.6281  -31.6727   20.5248 C   0  0  0  0  0  0  0  0  0  0  0  0
  -26.5377  -33.2700   20.7897 C   0  0  0  0  0  0  0  0  0  0  0  0
  -24.2963  -33.8427   21.7230 C   0  0  0  0  0  0  0  0  0  0  0  0
  -28.1684  -32.3258   27.1615 C   0  0  0  0  0  0  0  0  0  0  0  0
  -28.8715  -22.9365   23.1981 C   0  0  0  0  0  0  0  0  0  0  0  0
  -27.2014  -22.9772   21.2726 C   0  0  0  0  0  0  0  0  0  0  0  0
  -27.9572  -23.6292   24.2054 C   0  0  0  0  0  0  0  0  0  1  0  0
  -30.3063  -20.8035   19.4373 C   0  0  1  0  0  0  0  0  0  0  0  0
  -25.6877  -32.0564   22.8477 C   0  0  1  0  0  0  0  0  0  0  0  0
  -27.9533  -33.9187   25.2496 C   0  0  2  0  0  0  0  0  0  0  0  0
  -26.7808  -23.4158   19.8541 C   0  0  0  0  0  0  0  0  0  0  0  0
  -28.6358  -23.3645   21.7267 C   0  0  2  0  0  0  0  0  0  0  0  0
  -29.7408  -22.8389   20.7699 C   0  0  2  0  0  0  0  0  0  0  0  0
  -25.2888  -32.6843   21.4825 C   0  0  0  0  0  0  0  0  0  0  0  0
  -25.6504  -13.1103   20.8480 N   0  0  0  0  0  0  0  0  0  0  0  0
  -29.9665  -18.3327   19.8216 N   0  0  0  0  0  0  0  0  0  0  0  0
  -32.0930  -17.3075   19.7178 N   0  0  0  0  0  0  0  0  0  0  0  0
  -26.2061  -12.9778   19.6316 N   0  0  0  0  0  0  0  0  0  0  0  0
  -24.5930  -30.0699   23.8374 N   0  0  0  0  0  0  0  0  0  0  0  0
  -29.8772  -13.6407   20.4483 N   0  0  0  0  0  0  0  0  0  0  0  0
  -25.6871  -12.7931   17.3278 N   0  0  0  0  0  0  0  0  0  0  0  0
  -21.6317  -13.1376   19.2851 N   0  0  0  0  0  0  0  0  0  0  0  0
  -30.1501  -15.9615   20.1294 N   0  0  0  0  0  0  0  0  0  0  0  0
  -21.5231  -28.1368   23.4698 N   0  0  0  0  0  0  0  0  0  0  0  0
  -26.2911  -32.9977   23.7849 N   0  0  0  0  0  0  0  0  0  0  0  0
  -28.8114  -33.3887   26.3467 N   0  3  0  0  0  0  0  0  0  0  0  0
  -29.7063  -21.3518   20.6809 N   0  3  0  0  0  0  0  0  0  0  0  0
  -22.7166  -12.8955   17.2794 O   0  0  0  0  0  0  0  0  0  0  0  0
  -23.2079  -28.8830   22.0462 O   0  0  0  0  0  0  0  0  0  0  0  0
  -23.5538  -32.1567   23.8787 O   0  0  0  0  0  0  0  0  0  0  0  0
  -28.2861  -31.8464   24.0528 O   0  0  0  0  0  0  0  0  0  0  0  0
  -31.9815  -14.5376   20.1142 O   0  0  0  0  0  0  0  0  0  0  0  0
  -20.6430  -13.6712   24.7416 O   0  0  0  0  0  0  0  0  0  0  0  0
  -28.1601  -25.0345   24.1131 O   0  0  0  0  0  0  0  0  0  1  0  0
  -16.2137  -10.3879   24.6689 F   0  0  0  0  0  0  0  0  0  0  0  0
  -20.1425  -11.9184   26.8201 F   0  0  0  0  0  0  0  0  0  0  0  0
  -32.4010  -18.9314   19.4552 S   0  0  0  0  0  0  0  0  0  0  0  0
  1  2  1  0  0  0  0
  1  5  2  0  0  0  0
  2  6  2  0  0  0  0
  3  8  2  0  0  0  0
  3 15  1  0  0  0  0
  4  9  1  0  0  0  0
  4 15  2  0  0  0  0
  5 17  1  0  0  0  0
  6 19  1  0  0  0  0
  7 10  2  0  0  0  0
  7 18  1  0  0  0  0
  8 21  1  0  0  0  0
  9 21  2  0  0  0  0
 10 22  1  0  0  0  0
 11 12  2  0  0  0  0
 11 23  1  0  0  0  0
 12 24  1  0  0  0  0
 13 20  1  0  0  0  0
 13 22  2  0  0  0  0
 14 24  2  0  0  0  0
 14 25  1  0  0  0  0
 15 26  1  0  0  0  0
 16 26  1  0  0  0  0
 16 27  2  0  0  0  0
 16 30  1  0  0  0  0
 17 19  2  0  0  0  0
 17 35  1  0  0  0  0
 18 20  2  0  0  0  0
 18 36  1  0  0  0  0
 19 44  1  0  0  0  0
 20 37  1  0  0  0  0
 21 84  1  0  0  0  0
 22 85  1  0  0  0  0
 23 25  2  0  0  0  0
 23 84  1  0  0  0  0
 24 86  1  0  0  0  0
 25 87  1  0  0  0  0
 26 66  2  0  0  0  0
 27 69  1  0  0  0  0
 27 72  1  0  0  0  0
 28 59  1  0  0  0  0
 28 67  2  0  0  0  0
 28 88  1  0  0  0  0
 29 67  1  0  0  0  0
 29 68  2  0  0  0  0
 29 74  1  0  0  0  0
 30 73  1  0  0  0  0
 30 79  2  0  0  0  0
 31 45  1  0  0  0  0
 31 75  1  0  0  0  0
 31 80  2  0  0  0  0
 32 60  1  0  0  0  0
 32 70  1  0  0  0  0
 32 81  2  0  0  0  0
 33 61  1  0  0  0  0
 33 76  1  0  0  0  0
 33 82  2  0  0  0  0
 34 71  1  0  0  0  0
 34 74  1  0  0  0  0
 34 83  2  0  0  0  0
 35 38  1  0  0  0  0
 36 45  1  0  0  0  0
 37 70  1  0  0  0  0
 38 40  1  0  0  0  0
 39 41  1  0  0  0  0
 39 42  1  0  0  0  0
 40 44  1  0  0  0  0
 41 46  1  0  0  0  0
 42 71  1  0  0  0  0
 43 46  1  0  0  0  0
 43 71  1  0  0  0  0
 44 75  1  0  0  0  0
 45 70  1  0  0  0  0
 46 69  1  0  0  0  0
 47 59  1  0  0  0  0
 48 61  1  0  0  0  0
 49 62  1  0  0  0  0
 50 62  1  0  0  0  0
 51 64  1  0  0  0  0
 52 65  1  0  0  0  0
 53 65  1  0  0  0  0
 54 65  1  0  0  0  0
 55 77  1  0  0  0  0
 56 58  1  0  0  0  0
 56 63  1  0  0  0  0
 57 62  1  0  0  0  0
 57 63  1  0  0  0  0
 58 85  1  0  0  0  0
 59 78  1  0  0  0  0
 60 65  1  0  0  0  0
 60 76  1  0  0  0  0
 61 77  1  0  0  0  0
 63 64  1  0  0  0  0
 64 78  1  0  0  0  0
 66 69  1  0  0  0  0
 68 88  1  0  0  0  0
M  CHG  2  77   1  78   1
M  ISO  4  34 100  58 101  74 100  85 101
M  END
> <Batch ID>
0194

> <Smiles>
CNC(C)C(=O)NC(C(=O)N1Cc2cc([101O:1][101CH2:1]CC(CC(C)C)C(C)NC(C)c3nc([100NH:0][100C:0](=O)N4CCCC(n5nc(-c6ccc(Oc7ccc(F)cc7F)cc6)c(C(N)=O)c5N)C4)ns3)ccc2CC1C(=O)NC1CCCc2ccccc21)C(C)(C)C

> <Shape>
0.241

> <Color>
0.096

> <Negative vol penalty>
0.000

$$$$

  -OEChem-04052305333D

 85 93  0     1  0  0  0  0  0999 V2000
  -25.6981  -37.6390   23.9250 C   0  0  0  0  0  0  0  0  0  0  0  0
  -24.6166  -36.9089   23.4426 C   0  0  0  0  0  0  0  0  0  0  0  0
  -24.3264   -9.5523   22.2544 C   0  0  0  0  0  0  0  0  0  0  0  0
  -24.4638   -8.9516   19.9184 C   0  0  0  0  0  0  0  0  0  0  0  0
  -26.9661  -37.4487   23.3772 C   0  0  0  0  0  0  0  0  0  0  0  0
  -24.8022  -35.9890   22.4113 C   0  0  0  0  0  0  0  0  0  0  0  0
  -23.1343  -29.0375   23.2982 C   0  0  0  0  0  0  0  0  0  0  0  0
  -23.1869   -8.7596   22.3913 C   0  0  0  0  0  0  0  0  0  0  0  0
  -23.3243   -8.1588   20.0552 C   0  0  0  0  0  0  0  0  0  0  0  0
  -22.6430  -27.7320   23.3195 C   0  0  0  0  0  0  0  0  0  0  0  0
  -20.4513   -6.6083   23.4417 C   0  0  0  0  0  0  0  0  0  0  0  0
  -20.3724   -5.7731   24.5560 C   0  0  0  0  0  0  0  0  0  0  0  0
  -23.4993  -27.3620   21.0884 C   0  0  0  0  0  0  0  0  0  0  0  0
  -22.3844   -4.6384   23.8481 C   0  0  0  0  0  0  0  0  0  0  0  0
  -25.4237  -17.4688   24.6948 C   0  0  0  0  0  0  0  0  0  0  0  0
  -24.9648   -9.6484   21.0179 C   0  0  0  0  0  0  0  0  0  0  0  0
  -27.4802  -10.0712   21.0562 C   0  0  0  0  0  0  0  0  0  0  0  0
  -27.1691  -36.5190   22.3452 C   0  0  0  0  0  0  0  0  0  0  0  0
  -23.8243  -29.5058   22.1766 C   0  0  0  0  0  0  0  0  0  0  0  0
  -26.0738  -35.7871   21.8482 C   0  0  0  0  0  0  0  0  0  0  0  0
  -24.0046  -28.6646   21.0663 C   0  0  0  0  0  0  0  0  0  0  0  0
  -22.6859   -8.0628   21.2917 C   0  0  0  0  0  0  0  0  0  0  0  0
  -22.8249  -26.8964   22.2173 C   0  0  0  0  0  0  0  0  0  0  0  0
  -21.4968   -6.4585   22.5304 C   0  0  0  0  0  0  0  0  0  0  0  0
  -21.3389   -4.7882   24.7593 C   0  0  0  0  0  0  0  0  0  0  0  0
  -22.4633   -5.4735   22.7337 C   0  0  0  0  0  0  0  0  0  0  0  0
  -26.1416  -10.4676   20.8758 C   0  0  0  0  0  0  0  0  0  0  0  0
  -25.6317  -17.7052   23.3521 C   0  0  0  0  0  0  0  0  0  0  0  0
  -28.2113  -11.2068   20.8063 C   0  0  0  0  0  0  0  0  0  0  0  0
  -24.6353  -19.5895   23.8682 C   0  0  0  0  0  0  0  0  0  0  0  0
  -28.0151   -8.7908   21.4174 C   0  0  0  0  0  0  0  0  0  0  0  0
  -25.6553  -32.3510   20.5555 C   0  0  0  0  0  0  0  0  0  0  0  0
  -27.2000  -29.7910   19.8694 C   0  0  0  0  0  0  0  0  0  0  0  0
  -28.8386  -26.8042   19.6937 C   0  0  0  0  0  0  0  0  0  0  0  0
  -26.4650  -17.0579   21.0978 C   0  0  0  0  0  0  0  0  0  0  0  0
  -28.5492  -36.3821   21.7525 C   0  0  0  0  0  0  0  0  0  0  0  0
  -24.3171  -30.9244   22.0855 C   0  0  0  0  0  0  0  0  0  0  0  0
  -24.7227  -29.2224   19.8679 C   0  0  0  0  0  0  0  0  0  0  0  0
  -28.7308  -35.1172   20.9175 C   0  0  0  0  0  0  0  0  0  0  0  0
  -28.0911  -15.2769   18.3060 C   0  0  0  0  0  0  0  0  0  0  0  0
  -27.5505  -34.9292   19.9697 C   0  0  0  0  0  0  0  0  0  0  0  0
  -27.8283  -13.8093   18.6393 C   0  0  0  0  0  0  0  0  0  0  0  0
  -26.9872  -16.1856   18.8388 C   0  0  0  0  0  0  0  0  0  0  0  0
  -26.4702  -14.5603   20.6336 C   0  0  0  0  0  0  0  0  0  0  0  0
  -26.2396  -34.7619   20.7474 C   0  0  1  0  0  0  0  0  0  0  0  0
  -25.6410  -31.0548   21.3112 C   0  0  1  0  0  0  0  0  0  0  0  0
  -27.5867  -13.6239   20.1474 C   0  0  1  0  0  0  0  0  0  0  0  0
  -28.3195  -15.9691   23.5996 C   0  0  0  0  0  0  0  0  0  0  0  0
  -30.8992  -25.7414   18.7335 C   0  0  0  0  0  0  0  0  0  0  0  0
  -25.0215  -23.6274   23.6239 C   0  0  0  0  0  0  0  0  0  0  0  0
  -22.9377  -20.9991   21.6120 C   0  0  0  0  0  0  0  0  0  0  0  0
  -25.8998  -29.7714   17.1103 C   0  0  0  0  0  0  0  0  0  0  0  0
  -27.4774  -27.9401   16.4579 C   0  0  0  0  0  0  0  0  0  0  0  0
  -28.3669  -30.1809   17.0984 C   0  0  0  0  0  0  0  0  0  0  0  0
  -29.8585  -26.0844   22.3771 C   0  0  0  0  0  0  0  0  0  0  0  0
  -22.4936  -23.4790   23.3530 C   0  0  0  0  0  0  0  0  0  0  0  0
  -26.9549  -15.6039   23.0511 C   0  0  0  0  0  0  0  0  0  0  0  0
  -22.2830  -24.9819   23.5205 C   0  0  0  0  0  0  0  0  0  1  0  0
  -27.4145  -28.6682   18.8863 C   0  0  1  0  0  0  0  0  0  0  0  0
  -30.2900  -26.4351   19.9420 C   0  0  2  0  0  0  0  0  0  0  0  0
  -23.8670  -23.1069   22.7550 C   0  0  2  0  0  0  0  0  0  0  0  0
  -24.0335  -21.5864   22.4985 C   0  0  1  0  0  0  0  0  0  0  0  0
  -27.2725  -29.1371   17.4107 C   0  0  0  0  0  0  0  0  0  0  0  0
  -26.0261  -11.7546   20.5375 N   0  0  0  0  0  0  0  0  0  0  0  0
  -25.1799  -18.9206   22.8762 N   0  0  0  0  0  0  0  0  0  0  0  0
  -27.3015  -12.1767   20.5035 N   0  0  0  0  0  0  0  0  0  0  0  0
  -25.8866  -30.0110   20.3017 N   0  0  0  0  0  0  0  0  0  0  0  0
  -26.7465  -15.9571   20.2641 N   0  0  0  0  0  0  0  0  0  0  0  0
  -29.5372  -11.4603   20.8184 N   0  0  0  0  0  0  0  0  0  0  0  0
  -27.1233   -7.7323   21.6379 N   0  0  0  0  0  0  0  0  0  0  0  0
  -24.0793  -20.8496   23.7456 N   0  0  0  0  0  0  0  0  0  0  0  0
  -26.1376  -33.4217   21.2838 N   0  0  0  0  0  0  0  0  0  0  0  0
  -28.7143  -28.0880   19.2064 N   0  0  0  0  0  0  0  0  0  0  0  0
  -26.2770  -16.7654   22.4660 N   0  0  0  0  0  0  0  0  0  0  0  0
  -30.3987  -25.5202   21.1134 N   0  3  0  0  0  0  0  0  0  0  0  0
  -29.2463   -8.5955   21.5569 O   0  0  0  0  0  0  0  0  0  0  0  0
  -25.2595  -32.3788   19.3961 O   0  0  0  0  0  0  0  0  0  0  0  0
  -28.1681  -30.4602   20.2413 O   0  0  0  0  0  0  0  0  0  0  0  0
  -27.9085  -26.0296   19.9069 O   0  0  0  0  0  0  0  0  0  0  0  0
  -26.4155  -18.2131   20.6587 O   0  0  0  0  0  0  0  0  0  0  0  0
  -21.5742   -7.2889   21.4250 O   0  0  0  0  0  0  0  0  0  0  0  0
  -22.3466  -25.6216   22.2465 O   0  0  0  0  0  0  0  0  0  1  0  0
  -21.2639   -3.9872   25.8303 F   0  0  0  0  0  0  0  0  0  0  0  0
  -23.4707   -5.3256   21.8624 F   0  0  0  0  0  0  0  0  0  0  0  0
  -24.6328  -18.8170   25.4006 S   0  0  0  0  0  0  0  0  0  0  0  0
  1  2  1  0  0  0  0
  1  5  2  0  0  0  0
  2  6  2  0  0  0  0
  3  8  2  0  0  0  0
  3 16  1  0  0  0  0
  4  9  1  0  0  0  0
  4 16  2  0  0  0  0
  5 18  1  0  0  0  0
  6 20  1  0  0  0  0
  7 10  2  0  0  0  0
  7 19  1  0  0  0  0
  8 22  1  0  0  0  0
  9 22  2  0  0  0  0
 10 23  1  0  0  0  0
 11 12  2  0  0  0  0
 11 24  1  0  0  0  0
 12 25  1  0  0  0  0
 13 21  1  0  0  0  0
 13 23  2  0  0  0  0
 14 25  2  0  0  0  0
 14 26  1  0  0  0  0
 15 28  2  0  0  0  0
 15 85  1  0  0  0  0
 16 27  1  0  0  0  0
 17 27  1  0  0  0  0
 17 29  2  0  0  0  0
 17 31  1  0  0  0  0
 18 20  2  0  0  0  0
 18 36  1  0  0  0  0
 19 21  2  0  0  0  0
 19 37  1  0  0  0  0
 20 45  1  0  0  0  0
 21 38  1  0  0  0  0
 22 81  1  0  0  0  0
 23 82  1  0  0  0  0
 24 26  2  0  0  0  0
 24 81  1  0  0  0  0
 25 83  1  0  0  0  0
 26 84  1  0  0  0  0
 27 64  2  0  0  0  0
 28 65  1  0  0  0  0
 28 74  1  0  0  0  0
 29 66  1  0  0  0  0
 29 69  1  0  0  0  0
 30 65  2  0  0  0  0
 30 71  1  0  0  0  0
 30 85  1  0  0  0  0
 31 70  1  0  0  0  0
 31 76  2  0  0  0  0
 32 46  1  0  0  0  0
 32 72  1  0  0  0  0
 32 77  2  0  0  0  0
 33 59  1  0  0  0  0
 33 67  1  0  0  0  0
 33 78  2  0  0  0  0
 34 60  1  0  0  0  0
 34 73  1  0  0  0  0
 34 79  2  0  0  0  0
 35 68  1  0  0  0  0
 35 74  1  0  0  0  0
 35 80  2  0  0  0  0
 36 39  1  0  0  0  0
 37 46  1  0  0  0  0
 38 67  1  0  0  0  0
 39 41  1  0  0  0  0
 40 42  1  0  0  0  0
 40 43  1  0  0  0  0
 41 45  1  0  0  0  0
 42 47  1  0  0  0  0
 43 68  1  0  0  0  0
 44 47  1  0  0  0  0
 44 68  1  0  0  0  0
 45 72  1  0  0  0  0
 46 67  1  0  0  0  0
 47 66  1  0  0  0  0
 48 57  1  0  0  0  0
 49 60  1  0  0  0  0
 50 61  1  0  0  0  0
 51 62  1  0  0  0  0
 52 63  1  0  0  0  0
 53 63  1  0  0  0  0
 54 63  1  0  0  0  0
 55 75  1  0  0  0  0
 56 58  1  0  0  0  0
 56 61  1  0  0  0  0
 57 74  1  0  0  0  0
 58 82  1  0  0  0  0
 59 63  1  0  0  0  0
 59 73  1  0  0  0  0
 60 75  1  0  0  0  0
 61 62  1  0  0  0  0
 62 71  1  0  0  0  0
 64 66  1  0  0  0  0
M  CHG  1  75   1
M  ISO  4  35 100  58 101  74 100  82 101
M  END
> <Batch ID>
0194

> <Smiles>
CC[100N:0](c1csc(NC(C)C(C)C[101CH2:1][101O:1]c2ccc3c(c2)CN(C(=O)C(NC(=O)C(C)NC)C(C)(C)C)C(C(=O)NC2CCCc4ccccc42)C3)n1)[100C:0](=O)N1CCCC(n2nc(-c3ccc(Oc4ccc(F)cc4F)cc3)c(C(N)=O)c2N)C1

> <Shape>
0.230

> <Color>
0.090

> <Negative vol penalty>
0.000

$$$$

  -OEChem-04052305333D

 86 94  0     1  0  0  0  0  0999 V2000
  -20.4065  -27.9411   30.0213 C   0  0  0  0  0  0  0  0  0  0  0  0
  -20.0364  -27.4292   28.7817 C   0  0  0  0  0  0  0  0  0  0  0  0
  -22.9622   -9.8603   20.1577 C   0  0  0  0  0  0  0  0  0  0  0  0
  -23.6069  -10.1787   22.4642 C   0  0  0  0  0  0  0  0  0  0  0  0
  -21.3973  -28.9186   30.1029 C   0  0  0  0  0  0  0  0  0  0  0  0
  -20.6563  -27.8954   27.6229 C   0  0  0  0  0  0  0  0  0  0  0  0
  -24.1679  -23.3952   23.2288 C   0  0  0  0  0  0  0  0  0  0  0  0
  -22.1631   -8.7795   20.5302 C   0  0  0  0  0  0  0  0  0  0  0  0
  -22.8077   -9.0979   22.8368 C   0  0  0  0  0  0  0  0  0  0  0  0
  -24.6783  -22.5662   22.2296 C   0  0  0  0  0  0  0  0  0  0  0  0
  -21.2200   -6.1991   24.3487 C   0  0  0  0  0  0  0  0  0  0  0  0
  -21.7575   -5.2729   25.2424 C   0  0  0  0  0  0  0  0  0  0  0  0
  -25.2753  -24.5041   20.9120 C   0  0  0  0  0  0  0  0  0  0  0  0
  -23.5359   -4.7957   23.6783 C   0  0  0  0  0  0  0  0  0  0  0  0
  -29.9522  -17.9396   22.1212 C   0  0  0  0  0  0  0  0  0  0  0  0
  -31.9931  -18.5431   21.5493 C   0  0  0  0  0  0  0  0  0  0  0  0
  -23.6842  -10.5598   21.1247 C   0  0  0  0  0  0  0  0  0  0  0  0
  -24.1285  -13.0286   20.6606 C   0  0  0  0  0  0  0  0  0  0  0  0
  -22.0365  -29.3900   28.9453 C   0  0  0  0  0  0  0  0  0  0  0  0
  -24.2234  -24.7838   23.0801 C   0  0  0  0  0  0  0  0  0  0  0  0
  -21.6557  -28.8811   27.6890 C   0  0  0  0  0  0  0  0  0  0  0  0
  -24.7770  -25.3397   21.9151 C   0  0  0  0  0  0  0  0  0  0  0  0
  -22.0858   -8.3983   21.8698 C   0  0  0  0  0  0  0  0  0  0  0  0
  -25.2303  -23.1193   21.0739 C   0  0  0  0  0  0  0  0  0  0  0  0
  -21.8403   -6.4235   23.1196 C   0  0  0  0  0  0  0  0  0  0  0  0
  -22.9155   -4.5712   24.9073 C   0  0  0  0  0  0  0  0  0  0  0  0
  -22.9983   -5.7218   22.7845 C   0  0  0  0  0  0  0  0  0  0  0  0
  -24.5104  -11.6760   20.7404 C   0  0  0  0  0  0  0  0  0  0  0  0
  -30.6196  -16.9182   21.4873 C   0  0  0  0  0  0  0  0  0  0  0  0
  -25.2654  -13.6830   20.2534 C   0  0  0  0  0  0  0  0  0  0  0  0
  -22.8595  -13.6390   20.9305 C   0  0  0  0  0  0  0  0  0  0  0  0
  -23.4734  -28.1505   24.5561 C   0  0  0  0  0  0  0  0  0  0  0  0
  -26.2281  -28.3560   23.2220 C   0  0  0  0  0  0  0  0  0  0  0  0
  -29.3999  -28.0478   22.0047 C   0  0  0  0  0  0  0  0  0  0  0  0
  -30.7522  -14.5740   20.5744 C   0  0  0  0  0  0  0  0  0  0  0  0
  -23.0686  -30.4815   29.0794 C   0  0  0  0  0  0  0  0  0  0  0  0
  -23.6301  -25.7139   24.1032 C   0  0  0  0  0  0  0  0  0  0  0  0
  -24.7841  -26.8382   21.7829 C   0  0  0  0  0  0  0  0  0  0  0  0
  -23.9398  -30.6519   27.8375 C   0  0  0  0  0  0  0  0  0  0  0  0
  -29.6650  -11.8755   18.5218 C   0  0  0  0  0  0  0  0  0  0  0  0
  -23.0781  -30.6672   26.5789 C   0  0  0  0  0  0  0  0  0  0  0  0
  -28.1956  -11.6943   18.9095 C   0  0  0  0  0  0  0  0  0  0  0  0
  -30.5273  -12.2491   19.7261 C   0  0  0  0  0  0  0  0  0  0  0  0
  -28.5833  -13.2261   20.8819 C   0  0  0  0  0  0  0  0  0  0  0  0
  -22.3223  -29.3435   26.4115 C   0  0  1  0  0  0  0  0  0  0  0  0
  -24.4204  -27.0259   24.2561 C   0  0  1  0  0  0  0  0  0  0  0  0
  -27.6643  -12.9126   19.6899 C   0  0  2  0  0  0  0  0  0  0  0  0
  -30.9547  -21.1384   17.9620 C   0  0  0  0  0  0  0  0  0  0  0  0
  -31.5031  -29.3648   21.6313 C   0  0  0  0  0  0  0  0  0  0  0  0
  -30.8300  -23.5812   20.9883 C   0  0  0  0  0  0  0  0  0  0  0  0
  -26.6722  -20.1590   19.6680 C   0  0  0  0  0  0  0  0  0  0  0  0
  -24.9393  -29.7264   20.8210 C   0  0  0  0  0  0  0  0  0  0  0  0
  -27.2374  -30.2365   19.9684 C   0  0  0  0  0  0  0  0  0  0  0  0
  -26.4802  -31.1807   22.1496 C   0  0  0  0  0  0  0  0  0  0  0  0
  -30.9652  -26.2721   23.7811 C   0  0  0  0  0  0  0  0  0  0  0  0
  -30.9024  -22.4304   18.7650 C   0  0  0  0  0  0  0  0  0  0  0  0
  -29.3663  -21.0556   22.1824 C   0  0  0  0  0  0  0  0  0  0  0  0
  -28.1311  -22.1783   20.2548 C   0  0  0  0  0  0  0  0  0  0  0  0
  -30.6062  -20.3419   22.7439 C   0  0  0  0  0  0  0  0  0  0  0  0
  -27.0104  -28.7142   21.9838 C   0  0  1  0  0  0  0  0  0  0  0  0
  -30.7444  -28.4520   22.5821 C   0  0  2  0  0  0  0  0  0  0  0  0
  -30.7158  -22.2210   20.2864 C   0  0  2  0  0  0  0  0  0  0  0  0
  -29.4220  -21.4297   20.6760 C   0  0  1  0  0  0  0  0  0  0  0  0
  -26.8047  -21.4360   20.4852 C   0  0  1  0  0  0  0  0  0  1  0  0
  -26.4090  -29.9376   21.2362 C   0  0  0  0  0  0  0  0  0  0  0  0
  -31.8897  -17.3001   21.1341 N   0  0  0  0  0  0  0  0  0  0  0  0
  -25.7899  -11.4812   20.4102 N   0  0  0  0  0  0  0  0  0  0  0  0
  -30.8449  -18.9736   22.1539 N   0  0  0  0  0  0  0  0  0  0  0  0
  -26.2218  -12.7200   20.1189 N   0  0  0  0  0  0  0  0  0  0  0  0
  -25.1696  -27.4536   23.0625 N   0  0  0  0  0  0  0  0  0  0  0  0
  -29.9655  -13.4138   20.4136 N   0  0  0  0  0  0  0  0  0  0  0  0
  -25.5302  -14.9824   20.0007 N   0  0  0  0  0  0  0  0  0  0  0  0
  -21.7979  -12.8205   21.3395 N   0  0  0  0  0  0  0  0  0  0  0  0
  -30.1010  -15.6282   21.2140 N   0  0  0  0  0  0  0  0  0  0  0  0
  -23.2067  -28.3176   25.9016 N   0  0  0  0  0  0  0  0  0  0  0  0
  -28.3928  -28.8965   22.4129 N   0  0  0  0  0  0  0  0  0  0  0  0
  -31.5800  -27.2459   22.8426 N   0  3  0  0  0  0  0  0  0  0  0  0
  -22.6682  -14.8715   20.7968 O   0  0  0  0  0  0  0  0  0  0  0  0
  -23.0187  -28.8193   23.6355 O   0  0  0  0  0  0  0  0  0  0  0  0
  -26.5414  -28.8655   24.3017 O   0  0  0  0  0  0  0  0  0  0  0  0
  -29.2580  -27.0784   21.2626 O   0  0  0  0  0  0  0  0  0  0  0  0
  -31.9088  -14.6377   20.1499 O   0  0  0  0  0  0  0  0  0  0  0  0
  -21.3058   -7.3439   22.2337 O   0  0  0  0  0  0  0  0  0  0  0  0
  -25.7330  -22.3008   20.1001 O   0  0  0  0  0  0  0  0  0  1  0  0
  -23.4325   -3.6830   25.7663 F   0  0  0  0  0  0  0  0  0  0  0  0
  -23.5994   -5.9340   21.6057 F   0  0  0  0  0  0  0  0  0  0  0  0
  1  2  1  0  0  0  0
  1  5  2  0  0  0  0
  2  6  2  0  0  0  0
  3  8  2  0  0  0  0
  3 17  1  0  0  0  0
  4  9  1  0  0  0  0
  4 17  2  0  0  0  0
  5 19  1  0  0  0  0
  6 21  1  0  0  0  0
  7 10  2  0  0  0  0
  7 20  1  0  0  0  0
  8 23  1  0  0  0  0
  9 23  2  0  0  0  0
 10 24  1  0  0  0  0
 11 12  2  0  0  0  0
 11 25  1  0  0  0  0
 12 26  1  0  0  0  0
 13 22  1  0  0  0  0
 13 24  2  0  0  0  0
 14 26  2  0  0  0  0
 14 27  1  0  0  0  0
 15 29  2  0  0  0  0
 15 68  1  0  0  0  0
 16 66  2  0  0  0  0
 16 68  1  0  0  0  0
 17 28  1  0  0  0  0
 18 28  1  0  0  0  0
 18 30  2  0  0  0  0
 18 31  1  0  0  0  0
 19 21  2  0  0  0  0
 19 36  1  0  0  0  0
 20 22  2  0  0  0  0
 20 37  1  0  0  0  0
 21 45  1  0  0  0  0
 22 38  1  0  0  0  0
 23 83  1  0  0  0  0
 24 84  1  0  0  0  0
 25 27  2  0  0  0  0
 25 83  1  0  0  0  0
 26 85  1  0  0  0  0
 27 86  1  0  0  0  0
 28 67  2  0  0  0  0
 29 66  1  0  0  0  0
 29 74  1  0  0  0  0
 30 69  1  0  0  0  0
 30 72  1  0  0  0  0
 31 73  1  0  0  0  0
 31 78  2  0  0  0  0
 32 46  1  0  0  0  0
 32 75  1  0  0  0  0
 32 79  2  0  0  0  0
 33 60  1  0  0  0  0
 33 70  1  0  0  0  0
 33 80  2  0  0  0  0
 34 61  1  0  0  0  0
 34 76  1  0  0  0  0
 34 81  2  0  0  0  0
 35 71  1  0  0  0  0
 35 74  1  0  0  0  0
 35 82  2  0  0  0  0
 36 39  1  0  0  0  0
 37 46  1  0  0  0  0
 38 70  1  0  0  0  0
 39 41  1  0  0  0  0
 40 42  1  0  0  0  0
 40 43  1  0  0  0  0
 41 45  1  0  0  0  0
 42 47  1  0  0  0  0
 43 71  1  0  0  0  0
 44 47  1  0  0  0  0
 44 71  1  0  0  0  0
 45 75  1  0  0  0  0
 46 70  1  0  0  0  0
 47 69  1  0  0  0  0
 48 56  1  0  0  0  0
 49 61  1  0  0  0  0
 50 62  1  0  0  0  0
 51 64  1  0  0  0  0
 52 65  1  0  0  0  0
 53 65  1  0  0  0  0
 54 65  1  0  0  0  0
 55 77  1  0  0  0  0
 56 62  1  0  0  0  0
 57 59  1  0  0  0  0
 57 63  1  0  0  0  0
 58 63  1  0  0  0  0
 58 64  1  0  0  0  0
 59 68  1  0  0  0  0
 60 65  1  0  0  0  0
 60 76  1  0  0  0  0
 61 77  1  0  0  0  0
 62 63  1  0  0  0  0
 64 84  1  0  0  0  0
 67 69  1  0  0  0  0
M  CHG  1  77   1
M  ISO  4  35 100  64 101  74 100  84 101
M  END
> <Batch ID>
0194

> <Smiles>
CCC(C)C(CCn1cnc([100NH:0][100C:0](=O)N2CCCC(n3nc(-c4ccc(Oc5ccc(F)cc5F)cc4)c(C(N)=O)c3N)C2)c1)C[101CH:1](C)[101O:1]c1ccc2c(c1)CN(C(=O)C(NC(=O)C(C)NC)C(C)(C)C)C(C(=O)NC1CCCc3ccccc31)C2

> <Shape>
0.270

> <Color>
0.173

> <Negative vol penalty>
0.000

$$$$

  -OEChem-04052305333D

 85 93  0     1  0  0  0  0  0999 V2000
  -24.0666   -9.6179   24.0461 C   0  0  0  0  0  0  0  0  0  0  0  0
  -25.1221  -10.5167   24.1631 C   0  0  0  0  0  0  0  0  0  0  0  0
  -19.5221  -26.3081   22.5682 C   0  0  0  0  0  0  0  0  0  0  0  0
  -20.4794  -28.3650   21.7375 C   0  0  0  0  0  0  0  0  0  0  0  0
  -23.1907   -9.7099   22.9653 C   0  0  0  0  0  0  0  0  0  0  0  0
  -25.3028  -11.5074   23.1986 C   0  0  0  0  0  0  0  0  0  0  0  0
  -27.6138  -18.2505   22.4867 C   0  0  0  0  0  0  0  0  0  0  0  0
  -18.5227  -27.0346   23.2154 C   0  0  0  0  0  0  0  0  0  0  0  0
  -19.4799  -29.0915   22.3847 C   0  0  0  0  0  0  0  0  0  0  0  0
  -28.5043  -19.0094   21.7286 C   0  0  0  0  0  0  0  0  0  0  0  0
  -18.8046  -30.1486   25.5244 C   0  0  0  0  0  0  0  0  0  0  0  0
  -19.1879  -31.2833   26.2392 C   0  0  0  0  0  0  0  0  0  0  0  0
  -26.8819  -19.1221   19.9468 C   0  0  0  0  0  0  0  0  0  0  0  0
  -17.7750  -32.6472   24.8318 C   0  0  0  0  0  0  0  0  0  0  0  0
  -32.3071  -27.1055   20.3193 C   0  0  0  0  0  0  0  0  0  0  0  0
  -31.4464  -26.8752   21.3665 C   0  0  0  0  0  0  0  0  0  0  0  0
  -20.5005  -26.9733   21.8292 C   0  0  0  0  0  0  0  0  0  0  0  0
  -21.4990  -25.7104   19.8504 C   0  0  0  0  0  0  0  0  0  0  0  0
  -23.3551  -10.7082   21.9922 C   0  0  0  0  0  0  0  0  0  0  0  0
  -26.3527  -17.9118   21.9753 C   0  0  0  0  0  0  0  0  0  0  0  0
  -24.4290  -11.6120   22.1030 C   0  0  0  0  0  0  0  0  0  0  0  0
  -25.9763  -18.3609   20.7015 C   0  0  0  0  0  0  0  0  0  0  0  0
  -18.5016  -28.4263   23.1237 C   0  0  0  0  0  0  0  0  0  0  0  0
  -28.1395  -19.4430   20.4573 C   0  0  0  0  0  0  0  0  0  0  0  0
  -17.9065  -30.2631   24.4632 C   0  0  0  0  0  0  0  0  0  0  0  0
  -18.6731  -32.5326   25.8930 C   0  0  0  0  0  0  0  0  0  0  0  0
  -17.3917  -31.5124   24.1169 C   0  0  0  0  0  0  0  0  0  0  0  0
  -21.5335  -26.2234   21.1609 C   0  0  0  0  0  0  0  0  0  0  0  0
  -22.7115  -25.0843   19.6947 C   0  0  0  0  0  0  0  0  0  0  0  0
  -30.9789  -25.5871   19.6405 C   0  0  0  0  0  0  0  0  0  0  0  0
  -20.4635  -25.7927   18.8621 C   0  0  0  0  0  0  0  0  0  0  0  0
  -24.8729  -15.1863   21.2784 C   0  0  0  0  0  0  0  0  0  0  0  0
  -28.1816  -25.8558   21.2110 C   0  0  0  0  0  0  0  0  0  0  0  0
  -22.3487  -17.1492   20.7326 C   0  0  0  0  0  0  0  0  0  0  0  0
  -21.2260  -20.2749   19.9473 C   0  0  0  0  0  0  0  0  0  0  0  0
  -22.4108  -10.7386   20.8166 C   0  0  0  0  0  0  0  0  0  0  0  0
  -25.3934  -17.1150   22.8163 C   0  0  0  0  0  0  0  0  0  0  0  0
  -24.6264  -18.0414   20.1148 C   0  0  0  0  0  0  0  0  0  0  0  0
  -22.4502  -12.0507   20.0374 C   0  0  0  0  0  0  0  0  0  0  0  0
  -26.1329  -23.2819   22.7618 C   0  0  0  0  0  0  0  0  0  0  0  0
  -23.8925  -12.4729   19.7756 C   0  0  0  0  0  0  0  0  0  0  0  0
  -24.7248  -23.7533   22.4008 C   0  0  0  0  0  0  0  0  0  0  0  0
  -27.0697  -24.4589   23.0205 C   0  0  0  0  0  0  0  0  0  0  0  0
  -25.7286  -25.9087   21.5293 C   0  0  0  0  0  0  0  0  0  0  0  0
  -24.6434  -12.7159   21.0904 C   0  0  1  0  0  0  0  0  0  0  0  0
  -24.3323  -16.3936   21.9911 C   0  0  1  0  0  0  0  0  0  0  0  0
  -24.7602  -24.7520   21.2307 C   0  0  2  0  0  0  0  0  0  0  0  0
  -28.5243  -25.3737   16.6815 C   0  0  0  0  0  0  0  0  0  0  0  0
  -19.5790  -22.1278   19.5578 C   0  0  0  0  0  0  0  0  0  0  0  0
  -22.1056  -15.8640   17.9759 C   0  0  0  0  0  0  0  0  0  0  0  0
  -20.6556  -17.7846   17.2852 C   0  0  0  0  0  0  0  0  0  0  0  0
  -19.9260  -16.2742   19.1316 C   0  0  0  0  0  0  0  0  0  0  0  0
  -21.2697  -21.0696   22.7979 C   0  0  0  0  0  0  0  0  0  0  0  0
  -29.5143  -25.3250   21.6759 C   0  0  0  0  0  0  0  0  0  0  0  0
  -30.0410  -25.2522   16.6015 C   0  0  0  0  0  0  0  0  0  0  0  0
  -30.0221  -22.8256   17.3040 C   0  0  0  0  0  0  0  0  0  0  0  0
  -30.8685  -21.6999   17.9087 C   0  0  0  0  0  0  0  0  0  0  0  0
  -28.9223  -20.0541   18.2964 C   0  0  0  0  0  0  0  0  0  1  0  0
  -21.8184  -17.9013   19.5358 C   0  0  1  0  0  0  0  0  0  0  0  0
  -20.1463  -21.1429   20.5682 C   0  0  2  0  0  0  0  0  0  0  0  0
  -30.6080  -24.2194   17.5868 C   0  0  2  0  0  0  0  0  0  0  0  0
  -30.2881  -20.3025   17.6584 C   0  0  2  0  0  0  0  0  0  0  0  0
  -21.1526  -16.9606   18.4922 C   0  0  0  0  0  0  0  0  0  0  0  0
  -32.0106  -26.3008   19.2478 N   0  0  0  0  0  0  0  0  0  0  0  0
  -22.6773  -25.9469   21.7928 N   0  0  0  0  0  0  0  0  0  0  0  0
  -30.6010  -25.9004   20.9166 N   0  0  0  0  0  0  0  0  0  0  0  0
  -23.3727  -25.2534   20.8755 N   0  0  0  0  0  0  0  0  0  0  0  0
  -23.7260  -17.2543   20.9734 N   0  0  0  0  0  0  0  0  0  0  0  0
  -27.0540  -25.4009   21.8949 N   0  0  0  0  0  0  0  0  0  0  0  0
  -23.2659  -24.4110   18.6643 N   0  0  0  0  0  0  0  0  0  0  0  0
  -19.2820  -26.4730   19.1873 N   0  0  0  0  0  0  0  0  0  0  0  0
  -30.2834  -24.6175   18.9422 N   0  0  0  0  0  0  0  0  0  0  0  0
  -24.2759  -13.9977   21.6529 N   0  0  0  0  0  0  0  0  0  0  0  0
  -20.9312  -18.9328   20.0622 N   0  0  0  0  0  0  0  0  0  0  0  0
  -20.6990  -21.9143   21.7173 N   0  3  0  0  0  0  0  0  0  0  0  0
  -20.5758  -25.2641   17.7301 O   0  0  0  0  0  0  0  0  0  0  0  0
  -25.7646  -15.3233   20.4490 O   0  0  0  0  0  0  0  0  0  0  0  0
  -28.1457  -26.6486   20.2664 O   0  0  0  0  0  0  0  0  0  0  0  0
  -21.5685  -16.4985   21.4322 O   0  0  0  0  0  0  0  0  0  0  0  0
  -22.2286  -20.7409   19.4106 O   0  0  0  0  0  0  0  0  0  0  0  0
  -31.2209  -19.3556   18.1848 O   0  0  0  0  0  0  0  0  0  0  0  0
  -17.5263  -29.1355   23.7549 O   0  0  0  0  0  0  0  0  0  0  0  0
  -29.0071  -20.1834   19.7150 O   0  0  0  0  0  0  0  0  0  1  0  0
  -19.0401  -33.6220   26.5805 F   0  0  0  0  0  0  0  0  0  0  0  0
  -16.5277  -31.6286   23.0992 F   0  0  0  0  0  0  0  0  0  0  0  0
  1  2  1  0  0  0  0
  1  5  2  0  0  0  0
  2  6  2  0  0  0  0
  3  8  2  0  0  0  0
  3 17  1  0  0  0  0
  4  9  1  0  0  0  0
  4 17  2  0  0  0  0
  5 19  1  0  0  0  0
  6 21  1  0  0  0  0
  7 10  2  0  0  0  0
  7 20  1  0  0  0  0
  8 23  1  0  0  0  0
  9 23  2  0  0  0  0
 10 24  1  0  0  0  0
 11 12  2  0  0  0  0
 11 25  1  0  0  0  0
 12 26  1  0  0  0  0
 13 22  1  0  0  0  0
 13 24  2  0  0  0  0
 14 26  2  0  0  0  0
 14 27  1  0  0  0  0
 15 16  2  0  0  0  0
 15 64  1  0  0  0  0
 16 66  1  0  0  0  0
 17 28  1  0  0  0  0
 18 28  1  0  0  0  0
 18 29  2  0  0  0  0
 18 31  1  0  0  0  0
 19 21  2  0  0  0  0
 19 36  1  0  0  0  0
 20 22  2  0  0  0  0
 20 37  1  0  0  0  0
 21 45  1  0  0  0  0
 22 38  1  0  0  0  0
 23 82  1  0  0  0  0
 24 83  1  0  0  0  0
 25 27  2  0  0  0  0
 25 82  1  0  0  0  0
 26 84  1  0  0  0  0
 27 85  1  0  0  0  0
 28 65  2  0  0  0  0
 29 67  1  0  0  0  0
 29 70  1  0  0  0  0
 30 64  2  0  0  0  0
 30 66  1  0  0  0  0
 30 72  1  0  0  0  0
 31 71  1  0  0  0  0
 31 76  2  0  0  0  0
 32 46  1  0  0  0  0
 32 73  1  0  0  0  0
 32 77  2  0  0  0  0
 33 54  1  0  0  0  0
 33 69  1  0  0  0  0
 33 78  2  0  0  0  0
 34 59  1  0  0  0  0
 34 68  1  0  0  0  0
 34 79  2  0  0  0  0
 35 60  1  0  0  0  0
 35 74  1  0  0  0  0
 35 80  2  0  0  0  0
 36 39  1  0  0  0  0
 37 46  1  0  0  0  0
 38 68  1  0  0  0  0
 39 41  1  0  0  0  0
 40 42  1  0  0  0  0
 40 43  1  0  0  0  0
 41 45  1  0  0  0  0
 42 47  1  0  0  0  0
 43 69  1  0  0  0  0
 44 47  1  0  0  0  0
 44 69  1  0  0  0  0
 45 73  1  0  0  0  0
 46 68  1  0  0  0  0
 47 67  1  0  0  0  0
 48 55  1  0  0  0  0
 49 60  1  0  0  0  0
 50 63  1  0  0  0  0
 51 63  1  0  0  0  0
 52 63  1  0  0  0  0
 53 75  1  0  0  0  0
 54 66  1  0  0  0  0
 55 61  1  0  0  0  0
 56 57  1  0  0  0  0
 56 61  1  0  0  0  0
 57 62  1  0  0  0  0
 58 62  1  0  0  0  0
 58 83  1  0  0  0  0
 59 63  1  0  0  0  0
 59 74  1  0  0  0  0
 60 75  1  0  0  0  0
 61 72  1  0  0  0  0
 62 81  1  0  0  0  0
 65 67  1  0  0  0  0
M  CHG  1  75   1
M  ISO  4  33 100  54 100  58 101  83 101
M  END
> <Batch ID>
0194

> <Smiles>
CCC(CCC(O)[101CH2:1][101O:1]c1ccc2c(c1)CN(C(=O)C(NC(=O)C(C)NC)C(C)(C)C)C(C(=O)NC1CCCc3ccccc31)C2)Nc1nccn1[100CH2:0][100C:0](=O)N1CCCC(n2nc(-c3ccc(Oc4ccc(F)cc4F)cc3)c(C(N)=O)c2N)C1

> <Shape>
0.182

> <Color>
0.065

> <Negative vol penalty>
0.000

$$$$

  -OEChem-04052305333D

 82 90  0     1  0  0  0  0  0999 V2000
  -21.6286  -12.8197   19.3955 C   0  0  0  0  0  0  0  0  0  0  0  0
  -21.6757  -14.1747   19.7071 C   0  0  0  0  0  0  0  0  0  0  0  0
  -29.3724  -27.4561   20.8174 C   0  0  0  0  0  0  0  0  0  0  0  0
  -28.0239  -25.4549   20.9348 C   0  0  0  0  0  0  0  0  0  0  0  0
  -22.7243  -12.0033   19.6728 C   0  0  0  0  0  0  0  0  0  0  0  0
  -22.8183  -14.7140   20.2972 C   0  0  0  0  0  0  0  0  0  0  0  0
  -24.2074  -19.1031   18.1876 C   0  0  0  0  0  0  0  0  0  0  0  0
  -30.5053  -26.7120   21.1466 C   0  0  0  0  0  0  0  0  0  0  0  0
  -29.1569  -24.7108   21.2639 C   0  0  0  0  0  0  0  0  0  0  0  0
  -23.4899  -20.2410   18.5540 C   0  0  0  0  0  0  0  0  0  0  0  0
  -31.8988  -25.3973   23.9312 C   0  0  0  0  0  0  0  0  0  0  0  0
  -32.7635  -25.9247   24.8902 C   0  0  0  0  0  0  0  0  0  0  0  0
  -25.2483  -20.8478   20.0900 C   0  0  0  0  0  0  0  0  0  0  0  0
  -34.5565  -25.9295   23.2708 C   0  0  0  0  0  0  0  0  0  0  0  0
  -17.9227  -24.9131   19.8369 C   0  0  0  0  0  0  0  0  0  0  0  0
  -28.1317  -26.8275   20.7115 C   0  0  0  0  0  0  0  0  0  0  0  0
  -26.4601  -27.8573   19.0826 C   0  0  0  0  0  0  0  0  0  0  0  0
  -23.8845  -12.5347   20.2578 C   0  0  0  0  0  0  0  0  0  0  0  0
  -25.4478  -18.8229   18.7786 C   0  0  0  0  0  0  0  0  0  0  0  0
  -23.9300  -13.9036   20.5838 C   0  0  0  0  0  0  0  0  0  0  0  0
  -25.9807  -19.7071   19.7274 C   0  0  0  0  0  0  0  0  0  0  0  0
  -30.3976  -25.3394   21.3698 C   0  0  0  0  0  0  0  0  0  0  0  0
  -24.0090  -21.1120   19.5075 C   0  0  0  0  0  0  0  0  0  0  0  0
  -32.3629  -25.1358   22.6420 C   0  0  0  0  0  0  0  0  0  0  0  0
  -34.0924  -26.1908   24.5600 C   0  0  0  0  0  0  0  0  0  0  0  0
  -33.6917  -25.4020   22.3118 C   0  0  0  0  0  0  0  0  0  0  0  0
  -26.9609  -27.5957   20.3721 C   0  0  0  0  0  0  0  0  0  0  0  0
  -19.2216  -25.2502   19.5188 C   0  0  0  0  0  0  0  0  0  0  0  0
  -25.3406  -28.6233   19.2979 C   0  0  0  0  0  0  0  0  0  0  0  0
  -18.8887  -26.7025   21.1282 C   0  0  0  0  0  0  0  0  0  0  0  0
  -26.9621  -27.4446   17.8045 C   0  0  0  0  0  0  0  0  0  0  0  0
  -26.5977  -16.4602   20.5672 C   0  0  0  0  0  0  0  0  0  0  0  0
  -29.3983  -18.0496   20.1763 C   0  0  0  0  0  0  0  0  0  0  0  0
  -30.9901  -20.9954   19.5164 C   0  0  0  0  0  0  0  0  0  0  0  0
  -20.9565  -29.1787   23.0376 C   0  0  0  0  0  0  0  0  0  0  0  0
  -25.0258  -11.6036   20.5821 C   0  0  0  0  0  0  0  0  0  0  0  0
  -26.2217  -17.6054   18.3529 C   0  0  0  0  0  0  0  0  0  0  0  0
  -27.3175  -19.4622   20.3768 C   0  0  0  0  0  0  0  0  0  0  0  0
  -26.3401  -12.3266   20.8653 C   0  0  0  0  0  0  0  0  0  0  0  0
  -23.7078  -31.4384   23.0196 C   0  0  0  0  0  0  0  0  0  0  0  0
  -26.1115  -13.4965   21.8171 C   0  0  0  0  0  0  0  0  0  0  0  0
  -24.7806  -30.7022   22.2152 C   0  0  0  0  0  0  0  0  0  0  0  0
  -22.8897  -30.4784   23.8803 C   0  0  0  0  0  0  0  0  0  0  0  0
  -23.3632  -28.6110   22.3434 C   0  0  0  0  0  0  0  0  0  0  0  0
  -25.1609  -14.5306   21.2019 C   0  0  1  0  0  0  0  0  0  0  0  0
  -27.2379  -17.1487   19.3951 C   0  0  1  0  0  0  0  0  0  0  0  0
  -24.1777  -29.5304   21.4173 C   0  0  2  0  0  0  0  0  0  0  0  0
  -33.2840  -21.9901   19.3023 C   0  0  0  0  0  0  0  0  0  0  0  0
  -23.6848  -25.0165   19.0900 C   0  0  0  0  0  0  0  0  0  0  0  0
  -29.6833  -18.0401   23.2142 C   0  0  0  0  0  0  0  0  0  0  0  0
  -31.4286  -19.8205   22.9864 C   0  0  0  0  0  0  0  0  0  0  0  0
  -31.8000  -17.5746   21.9664 C   0  0  0  0  0  0  0  0  0  0  0  0
  -30.5258  -21.7500   16.6925 C   0  0  0  0  0  0  0  0  0  0  0  0
  -19.1238  -27.7937   22.0984 C   0  0  0  0  0  0  0  0  0  0  0  0
  -21.3118  -24.9652   18.1863 C   0  0  0  0  0  0  0  0  0  0  0  0
  -22.4651  -22.8078   18.8775 C   0  0  0  0  0  0  0  0  0  1  0  0
  -30.1179  -19.1471   20.9226 C   0  0  1  0  0  0  0  0  0  0  0  0
  -32.1242  -21.3368   18.5668 C   0  0  2  0  0  0  0  0  0  0  0  0
  -22.3240  -24.3126   19.1383 C   0  0  1  0  0  0  0  0  0  0  0  0
  -30.7313  -18.6495   22.2618 C   0  0  0  0  0  0  0  0  0  0  0  0
  -26.2203  -28.1507   21.3352 N   0  0  0  0  0  0  0  0  0  0  0  0
  -19.7771  -26.2763   20.2579 N   0  0  0  0  0  0  0  0  0  0  0  0
  -25.2428  -28.7686   20.6505 N   0  0  0  0  0  0  0  0  0  0  0  0
  -28.0331  -18.2549   19.9318 N   0  0  0  0  0  0  0  0  0  0  0  0
  -22.3447  -29.3914   23.0633 N   0  0  0  0  0  0  0  0  0  0  0  0
  -24.4402  -29.1800   18.4602 N   0  0  0  0  0  0  0  0  0  0  0  0
  -28.1232  -26.6607   17.7641 N   0  0  0  0  0  0  0  0  0  0  0  0
  -19.9518  -24.6181   18.5252 N   0  0  0  0  0  0  0  0  0  0  0  0
  -25.8589  -15.3426   20.2284 N   0  0  0  0  0  0  0  0  0  0  0  0
  -31.0915  -19.7044   19.9899 N   0  0  0  0  0  0  0  0  0  0  0  0
  -20.5232  -28.1320   22.2330 N   0  0  0  0  0  0  0  0  0  0  0  0
  -31.6503  -22.2742   17.5097 N   0  3  0  0  0  0  0  0  0  0  0  0
  -26.4069  -27.7754   16.7294 O   0  0  0  0  0  0  0  0  0  0  0  0
  -26.7631  -16.9087   21.6955 O   0  0  0  0  0  0  0  0  0  0  0  0
  -30.0261  -17.0504   19.8172 O   0  0  0  0  0  0  0  0  0  0  0  0
  -30.1049  -21.7953   19.8116 O   0  0  0  0  0  0  0  0  0  0  0  0
  -20.1617  -29.8736   23.6797 O   0  0  0  0  0  0  0  0  0  0  0  0
  -31.5030  -24.6129   21.6908 O   0  0  0  0  0  0  0  0  0  0  0  0
  -23.3104  -22.2230   19.8674 O   0  0  0  0  0  0  0  0  0  1  0  0
  -34.9222  -26.6988   25.4805 F   0  0  0  0  0  0  0  0  0  0  0  0
  -34.1431  -25.1540   21.0746 F   0  0  0  0  0  0  0  0  0  0  0  0
  -17.3647  -25.9137   21.1131 S   0  0  0  0  0  0  0  0  0  0  0  0
  1  2  1  0  0  0  0
  1  5  2  0  0  0  0
  2  6  2  0  0  0  0
  3  8  2  0  0  0  0
  3 16  1  0  0  0  0
  4  9  1  0  0  0  0
  4 16  2  0  0  0  0
  5 18  1  0  0  0  0
  6 20  1  0  0  0  0
  7 10  2  0  0  0  0
  7 19  1  0  0  0  0
  8 22  1  0  0  0  0
  9 22  2  0  0  0  0
 10 23  1  0  0  0  0
 11 12  2  0  0  0  0
 11 24  1  0  0  0  0
 12 25  1  0  0  0  0
 13 21  1  0  0  0  0
 13 23  2  0  0  0  0
 14 25  2  0  0  0  0
 14 26  1  0  0  0  0
 15 28  2  0  0  0  0
 15 82  1  0  0  0  0
 16 27  1  0  0  0  0
 17 27  1  0  0  0  0
 17 29  2  0  0  0  0
 17 31  1  0  0  0  0
 18 20  2  0  0  0  0
 18 36  1  0  0  0  0
 19 21  2  0  0  0  0
 19 37  1  0  0  0  0
 20 45  1  0  0  0  0
 21 38  1  0  0  0  0
 22 78  1  0  0  0  0
 23 79  1  0  0  0  0
 24 26  2  0  0  0  0
 24 78  1  0  0  0  0
 25 80  1  0  0  0  0
 26 81  1  0  0  0  0
 27 61  2  0  0  0  0
 28 62  1  0  0  0  0
 28 68  1  0  0  0  0
 29 63  1  0  0  0  0
 29 66  1  0  0  0  0
 30 54  1  0  0  0  0
 30 62  2  0  0  0  0
 30 82  1  0  0  0  0
 31 67  1  0  0  0  0
 31 73  2  0  0  0  0
 32 46  1  0  0  0  0
 32 69  1  0  0  0  0
 32 74  2  0  0  0  0
 33 57  1  0  0  0  0
 33 64  1  0  0  0  0
 33 75  2  0  0  0  0
 34 58  1  0  0  0  0
 34 70  1  0  0  0  0
 34 76  2  0  0  0  0
 35 65  1  0  0  0  0
 35 71  1  0  0  0  0
 35 77  2  0  0  0  0
 36 39  1  0  0  0  0
 37 46  1  0  0  0  0
 38 64  1  0  0  0  0
 39 41  1  0  0  0  0
 40 42  1  0  0  0  0
 40 43  1  0  0  0  0
 41 45  1  0  0  0  0
 42 47  1  0  0  0  0
 43 65  1  0  0  0  0
 44 47  1  0  0  0  0
 44 65  1  0  0  0  0
 45 69  1  0  0  0  0
 46 64  1  0  0  0  0
 47 63  1  0  0  0  0
 48 58  1  0  0  0  0
 49 59  1  0  0  0  0
 50 60  1  0  0  0  0
 51 60  1  0  0  0  0
 52 60  1  0  0  0  0
 53 72  1  0  0  0  0
 54 71  1  0  0  0  0
 55 59  1  0  0  0  0
 55 68  1  0  0  0  0
 56 59  1  0  0  0  0
 56 79  1  0  0  0  0
 57 60  1  0  0  0  0
 57 70  1  0  0  0  0
 58 72  1  0  0  0  0
 61 63  1  0  0  0  0
M  CHG  1  72   1
M  ISO  4  35 100  56 101  71 100  79 101
M  END
> <Batch ID>
0194

> <Smiles>
CNC(C)C(=O)NC(C(=O)N1Cc2cc([101O:1][101CH2:1]C(C)CNc3csc(C[100NH:0][100C:0](=O)N4CCCC(n5nc(-c6ccc(Oc7ccc(F)cc7F)cc6)c(C(N)=O)c5N)C4)n3)ccc2CC1C(=O)NC1CCCc2ccccc21)C(C)(C)C

> <Shape>
0.217

> <Color>
0.063

> <Negative vol penalty>
0.000

$$$$

  -OEChem-04052305333D

 83 91  0     1  0  0  0  0  0999 V2000
  -23.9881  -24.0124   23.5938 C   0  0  0  0  0  0  0  0  0  0  0  0
  -24.3005  -23.6493   22.2886 C   0  0  0  0  0  0  0  0  0  0  0  0
  -25.5881  -27.0007   20.7179 C   0  0  0  0  0  0  0  0  0  0  0  0
  -26.6033  -26.7228   22.8925 C   0  0  0  0  0  0  0  0  0  0  0  0
  -24.1406  -23.0887   24.6257 C   0  0  0  0  0  0  0  0  0  0  0  0
  -24.7541  -22.3588   22.0132 C   0  0  0  0  0  0  0  0  0  0  0  0
  -26.5356  -14.9115   18.7321 C   0  0  0  0  0  0  0  0  0  0  0  0
  -24.4911  -27.6267   21.3100 C   0  0  0  0  0  0  0  0  0  0  0  0
  -25.5064  -27.3488   23.4846 C   0  0  0  0  0  0  0  0  0  0  0  0
  -26.6292  -13.6149   19.2359 C   0  0  0  0  0  0  0  0  0  0  0  0
  -23.7357  -30.6800   22.5506 C   0  0  0  0  0  0  0  0  0  0  0  0
  -23.2557  -31.8465   21.9552 C   0  0  0  0  0  0  0  0  0  0  0  0
  -24.6950  -14.0193   20.6195 C   0  0  0  0  0  0  0  0  0  0  0  0
  -29.6578  -15.3117   22.2545 C   0  0  0  0  0  0  0  0  0  0  0  0
  -21.1090  -30.7906   21.6174 C   0  0  0  0  0  0  0  0  0  0  0  0
  -30.1200  -13.8681   20.4925 C   0  0  0  0  0  0  0  0  0  0  0  0
  -26.6441  -26.5487   21.5092 C   0  0  0  0  0  0  0  0  0  0  0  0
  -28.9541  -26.5140   20.4273 C   0  0  0  0  0  0  0  0  0  0  0  0
  -24.6082  -21.7904   24.3636 C   0  0  0  0  0  0  0  0  0  0  0  0
  -25.5258  -15.7768   19.1770 C   0  0  0  0  0  0  0  0  0  0  0  0
  -24.8919  -21.4048   23.0376 C   0  0  0  0  0  0  0  0  0  0  0  0
  -24.5892  -15.3255   20.1179 C   0  0  0  0  0  0  0  0  0  0  0  0
  -29.4685  -14.0141   21.6974 C   0  0  0  0  0  0  0  0  0  0  0  0
  -24.4503  -27.8007   22.6933 C   0  0  0  0  0  0  0  0  0  0  0  0
  -25.7106  -13.1696   20.1819 C   0  0  0  0  0  0  0  0  0  0  0  0
  -22.9024  -29.5688   22.6793 C   0  0  0  0  0  0  0  0  0  0  0  0
  -21.9423  -31.9018   21.4886 C   0  0  0  0  0  0  0  0  0  0  0  0
  -21.5891  -29.6241   22.2128 C   0  0  0  0  0  0  0  0  0  0  0  0
  -27.7773  -25.9016   20.8982 C   0  0  0  0  0  0  0  0  0  0  0  0
  -30.4471  -16.1082   21.4541 C   0  0  0  0  0  0  0  0  0  0  0  0
  -29.7111  -25.4757   19.9421 C   0  0  0  0  0  0  0  0  0  0  0  0
  -29.3295  -27.8977   20.4284 C   0  0  0  0  0  0  0  0  0  0  0  0
  -25.4723  -18.5679   20.6972 C   0  0  0  0  0  0  0  0  0  0  0  0
  -22.2858  -18.3789   20.1202 C   0  0  0  0  0  0  0  0  0  0  0  0
  -19.7379  -15.8264   20.2228 C   0  0  0  0  0  0  0  0  0  0  0  0
  -29.8414  -19.7321   21.3025 C   0  0  0  0  0  0  0  0  0  0  0  0
  -24.7471  -20.8284   25.5170 C   0  0  0  0  0  0  0  0  0  0  0  0
  -25.4223  -17.1636   18.6040 C   0  0  0  0  0  0  0  0  0  0  0  0
  -23.4741  -16.2085   20.6132 C   0  0  0  0  0  0  0  0  0  0  0  0
  -25.6480  -19.6404   25.1952 C   0  0  0  0  0  0  0  0  0  0  0  0
  -29.2888  -21.1191   18.0057 C   0  0  0  0  0  0  0  0  0  0  0  0
  -25.2346  -19.0188   23.8696 C   0  0  0  0  0  0  0  0  0  0  0  0
  -28.9485  -22.5725   18.3403 C   0  0  0  0  0  0  0  0  0  0  0  0
  -28.7046  -20.1622   19.0407 C   0  0  0  0  0  0  0  0  0  0  0  0
  -28.7688  -21.9050   20.7821 C   0  0  0  0  0  0  0  0  0  0  0  0
  -25.4159  -20.0164   22.7185 C   0  0  1  0  0  0  0  0  0  0  0  0
  -24.6636  -18.1292   19.5093 C   0  0  1  0  0  0  0  0  0  0  0  0
  -29.3504  -22.9238   19.7851 C   0  0  2  0  0  0  0  0  0  0  0  0
  -17.5827  -15.6206   18.9539 C   0  0  0  0  0  0  0  0  0  0  0  0
  -29.7933  -10.8754   21.9590 C   0  0  0  0  0  0  0  0  0  0  0  0
  -24.8036  -11.0125   22.6678 C   0  0  0  0  0  0  0  0  0  0  0  0
  -21.0565  -19.7412   22.5580 C   0  0  0  0  0  0  0  0  0  0  0  0
  -19.0664  -18.2433   22.3047 C   0  0  0  0  0  0  0  0  0  0  0  0
  -19.6576  -19.8470   20.4877 C   0  0  0  0  0  0  0  0  0  0  0  0
  -20.4604  -13.1440   19.2022 C   0  0  0  0  0  0  0  0  0  0  0  0
  -30.8719  -17.5067   21.6801 C   0  0  0  0  0  0  0  0  0  0  0  0
  -27.3048  -11.0217   22.3449 C   0  0  0  0  0  0  0  0  0  0  0  0
  -21.0989  -17.8024   20.8536 C   0  0  1  0  0  0  0  0  0  0  0  0
  -19.0395  -15.1913   19.0340 C   0  0  2  0  0  0  0  0  0  0  0  0
  -28.5327  -11.7012   21.7171 C   0  0  1  0  0  0  0  0  0  0  0  0
  -25.9898  -11.7690   22.0836 C   0  0  1  0  0  0  0  0  0  1  0  0
  -20.2459  -18.8975   21.5540 C   0  0  0  0  0  0  0  0  0  0  0  0
  -27.7815  -24.5769   20.7275 N   0  0  0  0  0  0  0  0  0  0  0  0
  -28.9703  -24.3484   20.1438 N   0  0  0  0  0  0  0  0  0  0  0  0
  -23.4188  -17.5581   20.0275 N   0  0  0  0  0  0  0  0  0  0  0  0
  -29.1403  -20.5406   20.3924 N   0  0  0  0  0  0  0  0  0  0  0  0
  -30.9313  -25.4261   19.3669 N   0  0  0  0  0  0  0  0  0  0  0  0
  -28.4339  -28.8326   20.9652 N   0  0  0  0  0  0  0  0  0  0  0  0
  -28.7192  -13.0160   22.2942 N   0  0  0  0  0  0  0  0  0  0  0  0
  -24.8213  -19.4672   21.5199 N   0  0  0  0  0  0  0  0  0  0  0  0
  -20.3636  -17.0056   19.8774 N   0  0  0  0  0  0  0  0  0  0  0  0
  -30.1487  -18.4518   20.8586 N   0  0  0  0  0  0  0  0  0  0  0  0
  -19.0865  -13.7054   19.1388 N   0  3  0  0  0  0  0  0  0  0  0  0
  -30.4197  -28.2953   19.9521 O   0  0  0  0  0  0  0  0  0  0  0  0
  -26.6027  -18.1222   20.8565 O   0  0  0  0  0  0  0  0  0  0  0  0
  -22.2080  -19.5128   19.6409 O   0  0  0  0  0  0  0  0  0  0  0  0
  -19.7263  -15.3283   21.3463 O   0  0  0  0  0  0  0  0  0  0  0  0
  -30.1739  -20.1242   22.4262 O   0  0  0  0  0  0  0  0  0  0  0  0
  -23.3802  -28.4117   23.2714 O   0  0  0  0  0  0  0  0  0  0  0  0
  -25.8002  -11.9047   20.6757 O   0  0  0  0  0  0  0  0  0  1  0  0
  -21.4810  -33.0226   20.9183 F   0  0  0  0  0  0  0  0  0  0  0  0
  -20.7834  -28.5602   22.3347 F   0  0  0  0  0  0  0  0  0  0  0  0
  -30.9558  -15.2918   20.0374 S   0  0  0  0  0  0  0  0  0  0  0  0
  1  2  1  0  0  0  0
  1  5  2  0  0  0  0
  2  6  2  0  0  0  0
  3  8  2  0  0  0  0
  3 17  1  0  0  0  0
  4  9  1  0  0  0  0
  4 17  2  0  0  0  0
  5 19  1  0  0  0  0
  6 21  1  0  0  0  0
  7 10  2  0  0  0  0
  7 20  1  0  0  0  0
  8 24  1  0  0  0  0
  9 24  2  0  0  0  0
 10 25  1  0  0  0  0
 11 12  2  0  0  0  0
 11 26  1  0  0  0  0
 12 27  1  0  0  0  0
 13 22  1  0  0  0  0
 13 25  2  0  0  0  0
 14 23  1  0  0  0  0
 14 30  2  0  0  0  0
 15 27  2  0  0  0  0
 15 28  1  0  0  0  0
 16 23  2  0  0  0  0
 16 83  1  0  0  0  0
 17 29  1  0  0  0  0
 18 29  1  0  0  0  0
 18 31  2  0  0  0  0
 18 32  1  0  0  0  0
 19 21  2  0  0  0  0
 19 37  1  0  0  0  0
 20 22  2  0  0  0  0
 20 38  1  0  0  0  0
 21 46  1  0  0  0  0
 22 39  1  0  0  0  0
 23 69  1  0  0  0  0
 24 79  1  0  0  0  0
 25 80  1  0  0  0  0
 26 28  2  0  0  0  0
 26 79  1  0  0  0  0
 27 81  1  0  0  0  0
 28 82  1  0  0  0  0
 29 63  2  0  0  0  0
 30 56  1  0  0  0  0
 30 83  1  0  0  0  0
 31 64  1  0  0  0  0
 31 67  1  0  0  0  0
 32 68  1  0  0  0  0
 32 74  2  0  0  0  0
 33 47  1  0  0  0  0
 33 70  1  0  0  0  0
 33 75  2  0  0  0  0
 34 58  1  0  0  0  0
 34 65  1  0  0  0  0
 34 76  2  0  0  0  0
 35 59  1  0  0  0  0
 35 71  1  0  0  0  0
 35 77  2  0  0  0  0
 36 66  1  0  0  0  0
 36 72  1  0  0  0  0
 36 78  2  0  0  0  0
 37 40  1  0  0  0  0
 38 47  1  0  0  0  0
 39 65  1  0  0  0  0
 40 42  1  0  0  0  0
 41 43  1  0  0  0  0
 41 44  1  0  0  0  0
 42 46  1  0  0  0  0
 43 48  1  0  0  0  0
 44 66  1  0  0  0  0
 45 48  1  0  0  0  0
 45 66  1  0  0  0  0
 46 70  1  0  0  0  0
 47 65  1  0  0  0  0
 48 64  1  0  0  0  0
 49 59  1  0  0  0  0
 50 60  1  0  0  0  0
 51 61  1  0  0  0  0
 52 62  1  0  0  0  0
 53 62  1  0  0  0  0
 54 62  1  0  0  0  0
 55 73  1  0  0  0  0
 56 72  1  0  0  0  0
 57 60  1  0  0  0  0
 57 61  1  0  0  0  0
 58 62  1  0  0  0  0
 58 71  1  0  0  0  0
 59 73  1  0  0  0  0
 60 69  1  0  0  0  0
 61 80  1  0  0  0  0
 63 64  1  0  0  0  0
M  CHG  1  73   1
M  ISO  4  36 100  61 101  72 100  80 101
M  END
> <Batch ID>
0194

> <Smiles>
CNC(C)C(=O)NC(C(=O)N1Cc2cc([101O:1][101CH:1](C)CC(C)Nc3csc(C[100NH:0][100C:0](=O)N4CCCC(n5nc(-c6ccc(Oc7ccc(F)cc7F)cc6)c(C(N)=O)c5N)C4)c3)ccc2CC1C(=O)NC1CCCc2ccccc21)C(C)(C)C

> <Shape>
0.204

> <Color>
0.053

> <Negative vol penalty>
0.000

$$$$

  -OEChem-04052305333D

 76 83  0     1  0  0  0  0  0999 V2000
  -28.3324  -11.2222   20.6021 C   0  0  0  0  0  0  0  0  0  0  0  0
  -28.8438  -12.4561   20.2130 C   0  0  0  0  0  0  0  0  0  0  0  0
  -23.5652  -31.4100   23.5317 C   0  0  0  0  0  0  0  0  0  0  0  0
  -23.9561  -29.0568   23.9146 C   0  0  0  0  0  0  0  0  0  0  0  0
  -26.9545  -11.0468   20.7231 C   0  0  0  0  0  0  0  0  0  0  0  0
  -27.9775  -13.5151   19.9437 C   0  0  0  0  0  0  0  0  0  0  0  0
  -28.9765  -19.4577   21.0360 C   0  0  0  0  0  0  0  0  0  0  0  0
  -22.1896  -31.1954   23.6173 C   0  0  0  0  0  0  0  0  0  0  0  0
  -22.5805  -28.8422   24.0003 C   0  0  0  0  0  0  0  0  0  0  0  0
  -29.4029  -20.5030   20.2180 C   0  0  0  0  0  0  0  0  0  0  0  0
  -19.1603  -27.6131   23.9618 C   0  0  0  0  0  0  0  0  0  0  0  0
  -18.6316  -26.5165   23.2810 C   0  0  0  0  0  0  0  0  0  0  0  0
  -27.1065  -21.1434   19.8498 C   0  0  0  0  0  0  0  0  0  0  0  0
  -19.4423  -27.4219   21.1929 C   0  0  0  0  0  0  0  0  0  0  0  0
  -24.4485  -30.3407   23.6803 C   0  0  0  0  0  0  0  0  0  0  0  0
  -26.7481  -30.8787   24.6446 C   0  0  0  0  0  0  0  0  0  0  0  0
  -26.0714  -12.1069   20.4646 C   0  0  0  0  0  0  0  0  0  0  0  0
  -27.6092  -19.2403   21.2588 C   0  0  0  0  0  0  0  0  0  0  0  0
  -26.5865  -13.3533   20.0602 C   0  0  0  0  0  0  0  0  0  0  0  0
  -26.6655  -20.0962   20.6731 C   0  0  0  0  0  0  0  0  0  0  0  0
  -21.6973  -29.9116   23.8516 C   0  0  0  0  0  0  0  0  0  0  0  0
  -28.4677  -21.3443   19.6224 C   0  0  0  0  0  0  0  0  0  0  0  0
  -19.8300  -28.6142   23.2581 C   0  0  0  0  0  0  0  0  0  0  0  0
  -18.7726  -26.4208   21.8966 C   0  0  0  0  0  0  0  0  0  0  0  0
  -19.9710  -28.5185   21.8737 C   0  0  0  0  0  0  0  0  0  0  0  0
  -25.8695  -30.5616   23.5913 C   0  0  0  0  0  0  0  0  0  0  0  0
  -27.9791  -30.9847   24.0448 C   0  0  0  0  0  0  0  0  0  0  0  0
  -26.4758  -31.0611   26.0404 C   0  0  0  0  0  0  0  0  0  0  0  0
  -25.5893  -16.8605   20.6587 C   0  0  0  0  0  0  0  0  0  0  0  0
  -23.5274  -18.7010   22.3567 C   0  0  0  0  0  0  0  0  0  0  0  0
  -22.6597  -21.8084   23.4696 C   0  0  0  0  0  0  0  0  0  0  0  0
  -30.2887  -28.6539   19.0363 C   0  0  0  0  0  0  0  0  0  0  0  0
  -24.5875  -11.8560   20.5631 C   0  0  0  0  0  0  0  0  0  0  0  0
  -27.1666  -18.1247   22.1653 C   0  0  0  0  0  0  0  0  0  0  0  0
  -25.1867  -19.9179   20.8968 C   0  0  0  0  0  0  0  0  0  0  0  0
  -23.7561  -13.1349   20.6224 C   0  0  0  0  0  0  0  0  0  0  0  0
  -30.0249  -32.1059   19.8676 C   0  0  0  0  0  0  0  0  0  0  0  0
  -24.2200  -14.1231   19.5570 C   0  0  0  0  0  0  0  0  0  0  0  0
  -29.0093  -32.1301   21.0112 C   0  0  0  0  0  0  0  0  0  0  0  0
  -29.6765  -31.0450   18.8259 C   0  0  0  0  0  0  0  0  0  0  0  0
  -28.4694  -29.7103   20.5096 C   0  0  0  0  0  0  0  0  0  0  0  0
  -25.6802  -14.5332   19.7833 C   0  0  1  0  0  0  0  0  0  0  0  0
  -25.7295  -17.6813   21.9094 C   0  0  1  0  0  0  0  0  0  0  0  0
  -28.8093  -30.7264   21.6134 C   0  0  2  0  0  0  0  0  0  0  0  0
  -20.9026  -23.0030   24.8048 C   0  0  0  0  0  0  0  0  0  0  0  0
  -32.0872  -26.2012   20.1917 C   0  0  0  0  0  0  0  0  0  0  0  0
  -21.6018  -18.4997   19.9984 C   0  0  0  0  0  0  0  0  0  0  0  0
  -20.3315  -20.4308   20.9604 C   0  0  0  0  0  0  0  0  0  0  0  0
  -20.5230  -18.3015   22.2459 C   0  0  0  0  0  0  0  0  0  0  0  0
  -24.6374  -22.7202   25.4735 C   0  0  0  0  0  0  0  0  0  0  0  0
  -28.9104  -24.7633   18.5137 C   0  0  0  0  0  0  0  0  0  0  0  0
  -29.9524  -24.9914   19.6173 C   0  0  0  0  0  0  0  0  0  0  0  0
  -28.0560  -23.5283   18.7759 C   0  0  0  0  0  0  0  0  0  1  0  0
  -22.5475  -19.7988   22.0192 C   0  0  1  0  0  0  0  0  0  0  0  0
  -22.2554  -22.3094   24.8443 C   0  0  2  0  0  0  0  0  0  0  0  0
  -30.8001  -26.2491   19.3746 C   0  0  1  0  0  0  0  0  0  0  0  0
  -21.2787  -19.2601   21.3000 C   0  0  0  0  0  0  0  0  0  0  0  0
  -26.4897  -30.4721   22.4118 N   0  0  0  0  0  0  0  0  0  0  0  0
  -27.7711  -30.7347   22.7202 N   0  0  0  0  0  0  0  0  0  0  0  0
  -24.8036  -18.8089   21.7862 N   0  0  0  0  0  0  0  0  0  0  0  0
  -29.5018  -29.7369   19.4617 N   0  0  0  0  0  0  0  0  0  0  0  0
  -29.2083  -31.2666   24.5263 N   0  0  0  0  0  0  0  0  0  0  0  0
  -25.1557  -30.9154   26.4882 N   0  0  0  0  0  0  0  0  0  0  0  0
  -25.7725  -15.5046   20.8521 N   0  0  0  0  0  0  0  0  0  0  0  0
  -22.2737  -20.4999   23.2690 N   0  0  0  0  0  0  0  0  0  0  0  0
  -30.0641  -27.4516   19.6957 N   0  0  0  0  0  0  0  0  0  0  0  0
  -23.2647  -23.2768   25.3605 N   0  3  0  0  0  0  0  0  0  0  0  0
  -27.3737  -31.3609   26.8634 O   0  0  0  0  0  0  0  0  0  0  0  0
  -25.3324  -17.4160   19.5971 O   0  0  0  0  0  0  0  0  0  0  0  0
  -23.1757  -17.7855   23.1048 O   0  0  0  0  0  0  0  0  0  0  0  0
  -23.2548  -22.5089   22.6537 O   0  0  0  0  0  0  0  0  0  0  0  0
  -31.1328  -28.7525   18.1393 O   0  0  0  0  0  0  0  0  0  0  0  0
  -20.3551  -29.7019   23.9355 O   0  0  0  0  0  0  0  0  0  0  0  0
  -28.8811  -22.3650   18.8229 O   0  0  0  0  0  0  0  0  0  1  0  0
  -18.2661  -25.3669   21.2432 F   0  0  0  0  0  0  0  0  0  0  0  0
  -20.6143  -29.4765   21.1924 F   0  0  0  0  0  0  0  0  0  0  0  0
  1  2  1  0  0  0  0
  1  5  2  0  0  0  0
  2  6  2  0  0  0  0
  3  8  2  0  0  0  0
  3 15  1  0  0  0  0
  4  9  1  0  0  0  0
  4 15  2  0  0  0  0
  5 17  1  0  0  0  0
  6 19  1  0  0  0  0
  7 10  2  0  0  0  0
  7 18  1  0  0  0  0
  8 21  1  0  0  0  0
  9 21  2  0  0  0  0
 10 22  1  0  0  0  0
 11 12  2  0  0  0  0
 11 23  1  0  0  0  0
 12 24  1  0  0  0  0
 13 20  1  0  0  0  0
 13 22  2  0  0  0  0
 14 24  2  0  0  0  0
 14 25  1  0  0  0  0
 15 26  1  0  0  0  0
 16 26  1  0  0  0  0
 16 27  2  0  0  0  0
 16 28  1  0  0  0  0
 17 19  2  0  0  0  0
 17 33  1  0  0  0  0
 18 20  2  0  0  0  0
 18 34  1  0  0  0  0
 19 42  1  0  0  0  0
 20 35  1  0  0  0  0
 21 73  1  0  0  0  0
 22 74  1  0  0  0  0
 23 25  2  0  0  0  0
 23 73  1  0  0  0  0
 24 75  1  0  0  0  0
 25 76  1  0  0  0  0
 26 58  2  0  0  0  0
 27 59  1  0  0  0  0
 27 62  1  0  0  0  0
 28 63  1  0  0  0  0
 28 68  2  0  0  0  0
 29 43  1  0  0  0  0
 29 64  1  0  0  0  0
 29 69  2  0  0  0  0
 30 54  1  0  0  0  0
 30 60  1  0  0  0  0
 30 70  2  0  0  0  0
 31 55  1  0  0  0  0
 31 65  1  0  0  0  0
 31 71  2  0  0  0  0
 32 61  1  0  0  0  0
 32 66  1  0  0  0  0
 32 72  2  0  0  0  0
 33 36  1  0  0  0  0
 34 43  1  0  0  0  0
 35 60  1  0  0  0  0
 36 38  1  0  0  0  0
 37 39  1  0  0  0  0
 37 40  1  0  0  0  0
 38 42  1  0  0  0  0
 39 44  1  0  0  0  0
 40 61  1  0  0  0  0
 41 44  1  0  0  0  0
 41 61  1  0  0  0  0
 42 64  1  0  0  0  0
 43 60  1  0  0  0  0
 44 59  1  0  0  0  0
 45 55  1  0  0  0  0
 46 56  1  0  0  0  0
 47 57  1  0  0  0  0
 48 57  1  0  0  0  0
 49 57  1  0  0  0  0
 50 67  1  0  0  0  0
 51 52  1  0  0  0  0
 51 53  1  0  0  0  0
 52 56  1  0  0  0  0
 53 74  1  0  0  0  0
 54 57  1  0  0  0  0
 54 65  1  0  0  0  0
 55 67  1  0  0  0  0
 56 66  1  0  0  0  0
 58 59  1  0  0  0  0
M  CHG  1  67   1
M  ISO  4  32 100  53 101  66 100  74 101
M  END
> <Batch ID>
0194

> <Smiles>
CNC(C)C(=O)NC(C(=O)N1Cc2cc([101O:1][101CH2:1]CCC(C)[100NH:0][100C:0](=O)N3CCCC(n4nc(-c5ccc(Oc6ccc(F)cc6F)cc5)c(C(N)=O)c4N)C3)ccc2CC1C(=O)NC1CCCc2ccccc21)C(C)(C)C

> <Shape>
0.245

> <Color>
0.059

> <Negative vol penalty>
0.000

$$$$

  -OEChem-04052305333D

 91 99  0     1  0  0  0  0  0999 V2000
  -23.8558  -30.1133   23.8220 C   0  0  0  0  0  0  0  0  0  0  0  0
  -24.1548  -28.7698   23.6201 C   0  0  0  0  0  0  0  0  0  0  0  0
  -19.4032  -24.1071   21.7757 C   0  0  0  0  0  0  0  0  0  0  0  0
  -20.4339  -23.3951   23.8415 C   0  0  0  0  0  0  0  0  0  0  0  0
  -24.4244  -31.0843   22.9987 C   0  0  0  0  0  0  0  0  0  0  0  0
  -25.0219  -28.3962   22.5939 C   0  0  0  0  0  0  0  0  0  0  0  0
  -29.0164  -23.7545   22.6559 C   0  0  0  0  0  0  0  0  0  0  0  0
  -18.7074  -25.1001   22.4651 C   0  0  0  0  0  0  0  0  0  0  0  0
  -19.7381  -24.3881   24.5310 C   0  0  0  0  0  0  0  0  0  0  0  0
  -28.9572  -22.4591   22.1439 C   0  0  0  0  0  0  0  0  0  0  0  0
  -16.9347  -28.0548   23.6239 C   0  0  0  0  0  0  0  0  0  0  0  0
  -16.8961  -29.3300   23.0602 C   0  0  0  0  0  0  0  0  0  0  0  0
  -30.1211  -23.1953   20.1633 C   0  0  0  0  0  0  0  0  0  0  0  0
  -26.1157  -15.8202   21.1420 C   0  0  0  0  0  0  0  0  0  0  0  0
  -19.3071  -29.4481   23.1623 C   0  0  0  0  0  0  0  0  0  0  0  0
  -20.2665  -23.2545   22.4639 C   0  0  0  0  0  0  0  0  0  0  0  0
  -22.2558  -22.3377   21.1564 C   0  0  0  0  0  0  0  0  0  0  0  0
  -25.3064  -30.7232   21.9680 C   0  0  0  0  0  0  0  0  0  0  0  0
  -29.6198  -24.7841   21.9195 C   0  0  0  0  0  0  0  0  0  0  0  0
  -25.6018  -29.3631   21.7551 C   0  0  0  0  0  0  0  0  0  0  0  0
  -30.1889  -24.5023   20.6694 C   0  0  0  0  0  0  0  0  0  0  0  0
  -27.2642  -15.0702   20.9595 C   0  0  0  0  0  0  0  0  0  0  0  0
  -18.8748  -25.2407   23.8427 C   0  0  0  0  0  0  0  0  0  0  0  0
  -29.5070  -22.1799   20.8961 C   0  0  0  0  0  0  0  0  0  0  0  0
  -18.1595  -27.4762   23.9569 C   0  0  0  0  0  0  0  0  0  0  0  0
  -18.0823  -30.0267   22.8293 C   0  0  0  0  0  0  0  0  0  0  0  0
  -19.3457  -28.1728   23.7260 C   0  0  0  0  0  0  0  0  0  0  0  0
  -20.9851  -22.2282   21.7524 C   0  0  0  0  0  0  0  0  0  0  0  0
  -27.1208  -13.7524   20.5742 C   0  0  0  0  0  0  0  0  0  0  0  0
  -24.8999  -15.2030   20.9266 C   0  0  0  0  0  0  0  0  0  0  0  0
  -22.4886  -21.0975   20.6138 C   0  0  0  0  0  0  0  0  0  0  0  0
  -23.1462  -23.4600   21.0985 C   0  0  0  0  0  0  0  0  0  0  0  0
  -28.6208  -27.5304   20.6691 C   0  0  0  0  0  0  0  0  0  0  0  0
  -31.7696  -27.9189   19.9936 C   0  0  0  0  0  0  0  0  0  0  0  0
  -34.8139  -26.4781   19.4433 C   0  0  0  0  0  0  0  0  0  0  0  0
  -22.4035  -15.5403   20.9489 C   0  0  0  0  0  0  0  0  0  0  0  0
  -25.8593  -31.8045   21.0737 C   0  0  0  0  0  0  0  0  0  0  0  0
  -29.6992  -26.1704   22.4976 C   0  0  0  0  0  0  0  0  0  0  0  0
  -30.8659  -25.5679   19.8479 C   0  0  0  0  0  0  0  0  0  0  0  0
  -27.0613  -31.3555   20.2467 C   0  0  0  0  0  0  0  0  0  0  0  0
  -19.3855  -17.1517   19.9629 C   0  0  0  0  0  0  0  0  0  0  0  0
  -26.7900  -29.9992   19.6035 C   0  0  0  0  0  0  0  0  0  0  0  0
  -19.6372  -18.6251   20.2916 C   0  0  0  0  0  0  0  0  0  0  0  0
  -20.0149  -16.2237   21.0004 C   0  0  0  0  0  0  0  0  0  0  0  0
  -21.6938  -17.9293   21.5850 C   0  0  0  0  0  0  0  0  0  0  0  0
  -26.5571  -28.9204   20.6682 C   0  0  1  0  0  0  0  0  0  0  0  0
  -29.8822  -27.2508   21.4361 C   0  0  1  0  0  0  0  0  0  0  0  0
  -21.1342  -18.9009   20.5332 C   0  0  2  0  0  0  0  0  0  0  0  0
  -32.5315  -19.2357   21.2614 C   0  0  0  0  0  0  0  0  0  0  0  0
  -37.1908  -27.0506   18.8775 C   0  0  0  0  0  0  0  0  0  0  0  0
  -28.7916  -16.0956   23.5062 C   0  0  0  0  0  0  0  0  0  0  0  0
  -27.5942  -11.8722   18.1626 C   0  0  0  0  0  0  0  0  0  0  0  0
  -28.9621  -13.9579   18.1237 C   0  0  0  0  0  0  0  0  0  0  0  0
  -30.0088  -11.7769   18.7827 C   0  0  0  0  0  0  0  0  0  0  0  0
  -30.9585  -28.4094   17.0934 C   0  0  0  0  0  0  0  0  0  0  0  0
  -33.3437  -28.0279   16.4349 C   0  0  0  0  0  0  0  0  0  0  0  0
  -32.7566  -29.9251   17.9444 C   0  0  0  0  0  0  0  0  0  0  0  0
  -29.2253  -18.1533   19.4872 C   0  0  0  0  0  0  0  0  0  0  0  0
  -35.8186  -25.3118   21.9710 C   0  0  0  0  0  0  0  0  0  0  0  0
  -28.3117  -12.8797   20.3577 C   0  0  0  0  0  0  0  0  0  0  0  0
  -31.5128  -18.8173   20.2073 C   0  0  0  0  0  0  0  0  0  0  0  0
  -30.0862  -17.4191   21.7910 C   0  0  0  0  0  0  0  0  0  0  0  0
  -29.4504  -19.8431   21.3341 C   0  0  0  0  0  0  0  0  0  1  0  0
  -32.6664  -27.5600   18.8335 C   0  0  1  0  0  0  0  0  0  0  0  0
  -36.1923  -26.7938   19.9954 C   0  0  2  0  0  0  0  0  0  0  0  0
  -28.7543  -16.7099   22.1069 C   0  0  1  0  0  0  0  0  0  0  0  0
  -28.7338  -12.6334   18.8724 C   0  0  0  0  0  0  0  0  0  0  0  0
  -32.4169  -28.4607   17.5909 C   0  0  0  0  0  0  0  0  0  0  0  0
  -30.0601  -18.5583   20.7218 C   0  0  2  0  0  0  0  0  0  0  0  0
  -20.4482  -21.0144   21.6025 N   0  0  0  0  0  0  0  0  0  0  0  0
  -25.9181  -13.1743   20.3706 N   0  0  0  0  0  0  0  0  0  0  0  0
  -24.7894  -13.9117   20.5495 N   0  0  0  0  0  0  0  0  0  0  0  0
  -21.3860  -20.3499   20.9061 N   0  0  0  0  0  0  0  0  0  0  0  0
  -30.9126  -26.9090   20.4534 N   0  0  0  0  0  0  0  0  0  0  0  0
  -21.4342  -16.5407   21.1735 N   0  0  0  0  0  0  0  0  0  0  0  0
  -23.5267  -20.5846   19.9199 N   0  0  0  0  0  0  0  0  0  0  0  0
  -22.7509  -24.6586   21.7080 N   0  0  0  0  0  0  0  0  0  0  0  0
  -28.5081  -15.6406   21.1621 N   0  0  0  0  0  0  0  0  0  0  0  0
  -23.7210  -15.9669   21.1122 N   0  0  0  0  0  0  0  0  0  0  0  0
  -27.8162  -28.4967   21.2422 N   0  0  0  0  0  0  0  0  0  0  0  0
  -34.0325  -27.6098   19.3429 N   0  0  0  0  0  0  0  0  0  0  0  0
  -36.6924  -25.6579   20.8205 N   0  3  0  0  0  0  0  0  0  0  0  0
  -24.2522  -23.4065   20.5091 O   0  0  0  0  0  0  0  0  0  0  0  0
  -28.3949  -26.9160   19.6331 O   0  0  0  0  0  0  0  0  0  0  0  0
  -31.8324  -29.0513   20.4788 O   0  0  0  0  0  0  0  0  0  0  0  0
  -34.4665  -25.3420   19.1287 O   0  0  0  0  0  0  0  0  0  0  0  0
  -22.0891  -14.3969   20.6085 O   0  0  0  0  0  0  0  0  0  0  0  0
  -18.1962  -26.2097   24.5158 O   0  0  0  0  0  0  0  0  0  0  0  0
  -29.4495  -20.9081   20.3904 O   0  0  0  0  0  0  0  0  0  1  0  0
  -18.0452  -31.2507   22.2865 F   0  0  0  0  0  0  0  0  0  0  0  0
  -20.5254  -27.6217   24.0428 F   0  0  0  0  0  0  0  0  0  0  0  0
  1  2  1  0  0  0  0
  1  5  2  0  0  0  0
  2  6  2  0  0  0  0
  3  8  2  0  0  0  0
  3 16  1  0  0  0  0
  4  9  1  0  0  0  0
  4 16  2  0  0  0  0
  5 18  1  0  0  0  0
  6 20  1  0  0  0  0
  7 10  2  0  0  0  0
  7 19  1  0  0  0  0
  8 23  1  0  0  0  0
  9 23  2  0  0  0  0
 10 24  1  0  0  0  0
 11 12  2  0  0  0  0
 11 25  1  0  0  0  0
 12 26  1  0  0  0  0
 13 21  1  0  0  0  0
 13 24  2  0  0  0  0
 14 22  1  0  0  0  0
 14 30  2  0  0  0  0
 15 26  2  0  0  0  0
 15 27  1  0  0  0  0
 16 28  1  0  0  0  0
 17 28  1  0  0  0  0
 17 31  2  0  0  0  0
 17 32  1  0  0  0  0
 18 20  2  0  0  0  0
 18 37  1  0  0  0  0
 19 21  2  0  0  0  0
 19 38  1  0  0  0  0
 20 46  1  0  0  0  0
 21 39  1  0  0  0  0
 22 29  2  0  0  0  0
 22 78  1  0  0  0  0
 23 88  1  0  0  0  0
 24 89  1  0  0  0  0
 25 27  2  0  0  0  0
 25 88  1  0  0  0  0
 26 90  1  0  0  0  0
 27 91  1  0  0  0  0
 28 70  2  0  0  0  0
 29 60  1  0  0  0  0
 29 71  1  0  0  0  0
 30 72  1  0  0  0  0
 30 79  1  0  0  0  0
 31 73  1  0  0  0  0
 31 76  1  0  0  0  0
 32 77  1  0  0  0  0
 32 83  2  0  0  0  0
 33 47  1  0  0  0  0
 33 80  1  0  0  0  0
 33 84  2  0  0  0  0
 34 64  1  0  0  0  0
 34 74  1  0  0  0  0
 34 85  2  0  0  0  0
 35 65  1  0  0  0  0
 35 81  1  0  0  0  0
 35 86  2  0  0  0  0
 36 75  1  0  0  0  0
 36 79  1  0  0  0  0
 36 87  2  0  0  0  0
 37 40  1  0  0  0  0
 38 47  1  0  0  0  0
 39 74  1  0  0  0  0
 40 42  1  0  0  0  0
 41 43  1  0  0  0  0
 41 44  1  0  0  0  0
 42 46  1  0  0  0  0
 43 48  1  0  0  0  0
 44 75  1  0  0  0  0
 45 48  1  0  0  0  0
 45 75  1  0  0  0  0
 46 80  1  0  0  0  0
 47 74  1  0  0  0  0
 48 73  1  0  0  0  0
 49 61  1  0  0  0  0
 50 65  1  0  0  0  0
 51 66  1  0  0  0  0
 52 67  1  0  0  0  0
 53 67  1  0  0  0  0
 54 67  1  0  0  0  0
 55 68  1  0  0  0  0
 56 68  1  0  0  0  0
 57 68  1  0  0  0  0
 58 69  1  0  0  0  0
 59 82  1  0  0  0  0
 60 67  1  0  0  0  0
 61 69  1  0  0  0  0
 62 66  1  0  0  0  0
 62 69  1  0  0  0  0
 63 69  1  0  0  0  0
 63 89  1  0  0  0  0
 64 68  1  0  0  0  0
 64 81  1  0  0  0  0
 65 82  1  0  0  0  0
 66 78  1  0  0  0  0
 70 73  1  0  0  0  0
 71 72  2  0  0  0  0
M  CHG  1  82   1
M  ISO  4  36 100  63 101  79 100  89 101
M  END
> <Batch ID>
0194

> <Smiles>
CCC(C)(CC(C)Nc1cc([100NH:0][100C:0](=O)N2CCCC(n3nc(-c4ccc(Oc5ccc(F)cc5F)cc4)c(C(N)=O)c3N)C2)nnc1CC(C)(C)C)[101CH2:1][101O:1]c1ccc2c(c1)CN(C(=O)C(NC(=O)C(C)NC)C(C)(C)C)C(C(=O)NC1CCCc3ccccc31)C2

> <Shape>
0.247

> <Color>
0.061

> <Negative vol penalty>
0.000

$$$$

  -OEChem-04052305333D

 87 95  0     1  0  0  0  0  0999 V2000
  -31.2307  -23.3234   27.0158 C   0  0  0  0  0  0  0  0  0  0  0  0
  -31.0398  -22.0094   26.6005 C   0  0  0  0  0  0  0  0  0  0  0  0
  -21.7329  -25.5386   22.5496 C   0  0  0  0  0  0  0  0  0  0  0  0
  -23.7383  -25.6566   21.2074 C   0  0  0  0  0  0  0  0  0  0  0  0
  -30.5536  -24.3608   26.3760 C   0  0  0  0  0  0  0  0  0  0  0  0
  -30.1708  -21.7320   25.5459 C   0  0  0  0  0  0  0  0  0  0  0  0
  -30.7814  -17.3285   21.3337 C   0  0  0  0  0  0  0  0  0  0  0  0
  -22.0284  -26.7854   23.1007 C   0  0  0  0  0  0  0  0  0  0  0  0
  -24.0338  -26.9035   21.7584 C   0  0  0  0  0  0  0  0  0  0  0  0
  -30.2239  -16.0557   21.2197 C   0  0  0  0  0  0  0  0  0  0  0  0
  -25.1285  -30.2800   22.5452 C   0  0  0  0  0  0  0  0  0  0  0  0
  -25.5413  -31.2916   21.6782 C   0  0  0  0  0  0  0  0  0  0  0  0
  -28.5056  -16.9442   19.7784 C   0  0  0  0  0  0  0  0  0  0  0  0
  -23.4493  -31.1203   20.4819 C   0  0  0  0  0  0  0  0  0  0  0  0
  -24.4875  -11.7620   21.3351 C   0  0  0  0  0  0  0  0  0  0  0  0
  -22.5879  -24.9741   21.6029 C   0  0  0  0  0  0  0  0  0  0  0  0
  -21.5249  -23.4255   19.8768 C   0  0  0  0  0  0  0  0  0  0  0  0
  -29.6833  -24.0968   25.3066 C   0  0  0  0  0  0  0  0  0  0  0  0
  -30.1980  -18.4225   20.6786 C   0  0  0  0  0  0  0  0  0  0  0  0
  -29.4804  -22.7667   24.8921 C   0  0  0  0  0  0  0  0  0  0  0  0
  -29.0592  -18.2294   19.8836 C   0  0  0  0  0  0  0  0  0  0  0  0
  -24.0411  -12.9233   20.7382 C   0  0  0  0  0  0  0  0  0  0  0  0
  -23.1787  -27.4678   22.7051 C   0  0  0  0  0  0  0  0  0  0  0  0
  -29.0841  -15.8640   20.4443 C   0  0  0  0  0  0  0  0  0  0  0  0
  -23.8760  -29.6884   22.3805 C   0  0  0  0  0  0  0  0  0  0  0  0
  -24.7018  -31.7118   20.6466 C   0  0  0  0  0  0  0  0  0  0  0  0
  -23.0364  -30.1085   21.3489 C   0  0  0  0  0  0  0  0  0  0  0  0
  -22.2836  -23.6859   21.0337 C   0  0  0  0  0  0  0  0  0  0  0  0
  -24.9824  -13.6187   20.0070 C   0  0  0  0  0  0  0  0  0  0  0  0
  -21.5305  -22.0567   19.7634 C   0  0  0  0  0  0  0  0  0  0  0  0
  -26.5758  -12.0721   20.4927 C   0  0  0  0  0  0  0  0  0  0  0  0
  -20.8733  -24.3392   18.9845 C   0  0  0  0  0  0  0  0  0  0  0  0
  -28.8836  -21.1597   21.6188 C   0  0  0  0  0  0  0  0  0  0  0  0
  -28.7880  -21.7575   18.4320 C   0  0  0  0  0  0  0  0  0  0  0  0
  -28.7356  -20.5192   15.2522 C   0  0  0  0  0  0  0  0  0  0  0  0
  -24.2210  -17.2915   19.8030 C   0  0  0  0  0  0  0  0  0  0  0  0
  -28.9374  -25.2465   24.6769 C   0  0  0  0  0  0  0  0  0  0  0  0
  -30.8271  -19.7842   20.7902 C   0  0  0  0  0  0  0  0  0  0  0  0
  -28.4063  -19.3672   19.1437 C   0  0  0  0  0  0  0  0  0  0  0  0
  -28.3209  -24.9041   23.3230 C   0  0  0  0  0  0  0  0  0  0  0  0
  -23.0491  -18.4879   23.0113 C   0  0  0  0  0  0  0  0  0  0  0  0
  -27.5949  -23.5643   23.3906 C   0  0  0  0  0  0  0  0  0  0  0  0
  -22.6813  -19.9354   22.6802 C   0  0  0  0  0  0  0  0  0  0  0  0
  -24.2995  -18.0485   22.2553 C   0  0  0  0  0  0  0  0  0  0  0  0
  -23.8466  -19.6564   20.4433 C   0  0  0  0  0  0  0  0  0  0  0  0
  -28.5650  -22.4279   23.7356 C   0  0  1  0  0  0  0  0  0  0  0  0
  -29.8514  -20.9192   20.4949 C   0  0  1  0  0  0  0  0  0  0  0  0
  -22.5775  -20.1533   21.1591 C   0  0  2  0  0  0  0  0  0  0  0  0
  -21.0091  -14.7519   22.8442 C   0  0  0  0  0  0  0  0  0  0  0  0
  -28.6178  -21.2513   12.8548 C   0  0  0  0  0  0  0  0  0  0  0  0
  -21.2365  -11.4335   20.8325 C   0  0  0  0  0  0  0  0  0  0  0  0
  -30.0053  -11.3648   19.2434 C   0  0  0  0  0  0  0  0  0  0  0  0
  -25.8081  -22.3285   18.7554 C   0  0  0  0  0  0  0  0  0  0  0  0
  -25.5686  -22.1137   16.2725 C   0  0  0  0  0  0  0  0  0  0  0  0
  -27.0135  -23.9055   17.2340 C   0  0  0  0  0  0  0  0  0  0  0  0
  -31.3605  -19.3016   14.6304 C   0  0  0  0  0  0  0  0  0  0  0  0
  -24.6166  -14.8910   19.3151 C   0  0  0  0  0  0  0  0  0  0  0  0
  -20.5620  -13.5392   22.0381 C   0  0  0  0  0  0  0  0  0  0  0  0
  -29.4265  -13.5106   20.4262 C   0  0  0  0  0  0  0  0  0  1  0  0
  -27.7929  -21.5022   17.3257 C   0  0  1  0  0  0  0  0  0  0  0  0
  -29.5327  -20.8885   14.0142 C   0  0  2  0  0  0  0  0  0  0  0  0
  -21.7316  -12.6314   21.6362 C   0  0  2  0  0  0  0  0  0  0  0  0
  -28.8921  -12.3395   19.6044 C   0  0  2  0  0  0  0  0  0  0  0  0
  -26.5567  -22.4412   17.4123 C   0  0  0  0  0  0  0  0  0  0  0  0
  -25.7528  -11.3051   21.2328 N   0  0  0  0  0  0  0  0  0  0  0  0
  -22.7381  -22.5719   21.6138 N   0  0  0  0  0  0  0  0  0  0  0  0
  -26.2635  -13.2207   19.8628 N   0  0  0  0  0  0  0  0  0  0  0  0
  -22.2634  -21.5983   20.8183 N   0  0  0  0  0  0  0  0  0  0  0  0
  -29.0552  -20.6808   19.2894 N   0  0  0  0  0  0  0  0  0  0  0  0
  -24.1284  -18.2649   20.8117 N   0  0  0  0  0  0  0  0  0  0  0  0
  -20.9800  -21.2126   18.8652 N   0  0  0  0  0  0  0  0  0  0  0  0
  -20.9680  -25.7125   19.2480 N   0  0  0  0  0  0  0  0  0  0  0  0
  -22.7153  -13.3507   20.8768 N   0  0  0  0  0  0  0  0  0  0  0  0
  -27.8811  -11.6338   20.3660 N   0  0  0  0  0  0  0  0  0  0  0  0
  -29.3377  -22.0520   22.5711 N   0  0  0  0  0  0  0  0  0  0  0  0
  -28.5369  -21.6075   16.0752 N   0  0  0  0  0  0  0  0  0  0  0  0
  -24.4973  -16.0002   20.2352 N   0  0  0  0  0  0  0  0  0  0  0  0
  -30.3945  -19.7478   13.5936 N   0  3  0  0  0  0  0  0  0  0  0  0
  -20.2126  -23.9486   17.9923 O   0  0  0  0  0  0  0  0  0  0  0  0
  -27.8040  -20.5798   21.6210 O   0  0  0  0  0  0  0  0  0  0  0  0
  -29.3142  -22.8690   18.5274 O   0  0  0  0  0  0  0  0  0  0  0  0
  -28.3268  -19.3800   15.4659 O   0  0  0  0  0  0  0  0  0  0  0  0
  -24.0635  -17.5529   18.6055 O   0  0  0  0  0  0  0  0  0  0  0  0
  -23.4672  -28.6846   23.2425 O   0  0  0  0  0  0  0  0  0  0  0  0
  -28.5375  -14.6228   20.3318 O   0  0  0  0  0  0  0  0  0  1  0  0
  -25.0978  -32.6844   19.8151 F   0  0  0  0  0  0  0  0  0  0  0  0
  -21.8316  -29.5448   21.1864 F   0  0  0  0  0  0  0  0  0  0  0  0
  1  2  1  0  0  0  0
  1  5  2  0  0  0  0
  2  6  2  0  0  0  0
  3  8  2  0  0  0  0
  3 16  1  0  0  0  0
  4  9  1  0  0  0  0
  4 16  2  0  0  0  0
  5 18  1  0  0  0  0
  6 20  1  0  0  0  0
  7 10  2  0  0  0  0
  7 19  1  0  0  0  0
  8 23  1  0  0  0  0
  9 23  2  0  0  0  0
 10 24  1  0  0  0  0
 11 12  2  0  0  0  0
 11 25  1  0  0  0  0
 12 26  1  0  0  0  0
 13 21  1  0  0  0  0
 13 24  2  0  0  0  0
 14 26  2  0  0  0  0
 14 27  1  0  0  0  0
 15 22  1  0  0  0  0
 15 65  2  0  0  0  0
 16 28  1  0  0  0  0
 17 28  1  0  0  0  0
 17 30  2  0  0  0  0
 17 32  1  0  0  0  0
 18 20  2  0  0  0  0
 18 37  1  0  0  0  0
 19 21  2  0  0  0  0
 19 38  1  0  0  0  0
 20 46  1  0  0  0  0
 21 39  1  0  0  0  0
 22 29  2  0  0  0  0
 22 73  1  0  0  0  0
 23 84  1  0  0  0  0
 24 85  1  0  0  0  0
 25 27  2  0  0  0  0
 25 84  1  0  0  0  0
 26 86  1  0  0  0  0
 27 87  1  0  0  0  0
 28 66  2  0  0  0  0
 29 57  1  0  0  0  0
 29 67  1  0  0  0  0
 30 68  1  0  0  0  0
 30 71  1  0  0  0  0
 31 65  1  0  0  0  0
 31 67  2  0  0  0  0
 31 74  1  0  0  0  0
 32 72  1  0  0  0  0
 32 79  2  0  0  0  0
 33 47  1  0  0  0  0
 33 75  1  0  0  0  0
 33 80  2  0  0  0  0
 34 60  1  0  0  0  0
 34 69  1  0  0  0  0
 34 81  2  0  0  0  0
 35 61  1  0  0  0  0
 35 76  1  0  0  0  0
 35 82  2  0  0  0  0
 36 70  1  0  0  0  0
 36 77  1  0  0  0  0
 36 83  2  0  0  0  0
 37 40  1  0  0  0  0
 38 47  1  0  0  0  0
 39 69  1  0  0  0  0
 40 42  1  0  0  0  0
 41 43  1  0  0  0  0
 41 44  1  0  0  0  0
 42 46  1  0  0  0  0
 43 48  1  0  0  0  0
 44 70  1  0  0  0  0
 45 48  1  0  0  0  0
 45 70  1  0  0  0  0
 46 75  1  0  0  0  0
 47 69  1  0  0  0  0
 48 68  1  0  0  0  0
 49 58  1  0  0  0  0
 50 61  1  0  0  0  0
 51 62  1  0  0  0  0
 52 63  1  0  0  0  0
 53 64  1  0  0  0  0
 54 64  1  0  0  0  0
 55 64  1  0  0  0  0
 56 78  1  0  0  0  0
 57 77  1  0  0  0  0
 58 62  1  0  0  0  0
 59 63  1  0  0  0  0
 59 85  1  0  0  0  0
 60 64  1  0  0  0  0
 60 76  1  0  0  0  0
 61 78  1  0  0  0  0
 62 73  1  0  0  0  0
 63 74  1  0  0  0  0
 66 68  1  0  0  0  0
M  CHG  1  78   1
M  ISO  4  36 100  59 101  77 100  85 101
M  END
> <Batch ID>
0194

> <Smiles>
CCC(C)Nc1cnc(NC(C)[101CH2:1][101O:1]c2ccc3c(c2)CN(C(=O)C(NC(=O)C(C)NC)C(C)(C)C)C(C(=O)NC2CCCc4ccccc42)C3)nc1C[100NH:0][100C:0](=O)N1CCCC(n2nc(-c3ccc(Oc4ccc(F)cc4F)cc3)c(C(N)=O)c2N)C1

> <Shape>
0.200

> <Color>
0.076

> <Negative vol penalty>
0.000

$$$$

  -OEChem-04052305333D

 87 95  0     1  0  0  0  0  0999 V2000
  -24.3114  -27.7696   31.9376 C   0  0  0  0  0  0  0  0  0  0  0  0
  -24.9056  -27.6473   30.6857 C   0  0  0  0  0  0  0  0  0  0  0  0
  -24.5019   -9.7037   21.4544 C   0  0  0  0  0  0  0  0  0  0  0  0
  -24.8715  -10.7978   23.5765 C   0  0  0  0  0  0  0  0  0  0  0  0
  -24.7825  -27.0113   33.0086 C   0  0  0  0  0  0  0  0  0  0  0  0
  -25.9720  -26.7673   30.5042 C   0  0  0  0  0  0  0  0  0  0  0  0
  -25.5186  -24.0102   26.2807 C   0  0  0  0  0  0  0  0  0  0  0  0
  -24.1981   -8.5160   22.1196 C   0  0  0  0  0  0  0  0  0  0  0  0
  -24.5676   -9.6100   24.2418 C   0  0  0  0  0  0  0  0  0  0  0  0
  -25.8380  -24.6343   25.0756 C   0  0  0  0  0  0  0  0  0  0  0  0
  -22.9738   -5.2923   23.2703 C   0  0  0  0  0  0  0  0  0  0  0  0
  -21.8581   -4.5747   22.8392 C   0  0  0  0  0  0  0  0  0  0  0  0
  -27.9995  -23.5635   25.1009 C   0  0  0  0  0  0  0  0  0  0  0  0
  -20.4458   -6.4702   23.3387 C   0  0  0  0  0  0  0  0  0  0  0  0
  -29.0152  -21.4644   20.2575 C   0  0  0  0  0  0  0  0  0  0  0  0
  -24.8387  -10.8446   22.1829 C   0  0  0  0  0  0  0  0  0  0  0  0
  -24.2572  -13.0926   21.1263 C   0  0  0  0  0  0  0  0  0  0  0  0
  -25.8489  -26.1145   32.8380 C   0  0  0  0  0  0  0  0  0  0  0  0
  -26.4430  -23.1652   26.9116 C   0  0  0  0  0  0  0  0  0  0  0  0
  -26.4586  -25.9973   31.5743 C   0  0  0  0  0  0  0  0  0  0  0  0
  -27.6885  -22.9279   26.3126 C   0  0  0  0  0  0  0  0  0  0  0  0
  -24.2309   -8.4691   23.5133 C   0  0  0  0  0  0  0  0  0  0  0  0
  -27.0797  -24.4133   24.4870 C   0  0  0  0  0  0  0  0  0  0  0  0
  -22.8255   -6.5989   23.7357 C   0  0  0  0  0  0  0  0  0  0  0  0
  -20.5941   -5.1637   22.8734 C   0  0  0  0  0  0  0  0  0  0  0  0
  -21.5615   -7.1879   23.7699 C   0  0  0  0  0  0  0  0  0  0  0  0
  -25.1532  -12.0717   21.4963 C   0  0  0  0  0  0  0  0  0  0  0  0
  -25.0441  -14.0319   20.5059 C   0  0  0  0  0  0  0  0  0  0  0  0
  -27.7608  -21.6070   20.8128 C   0  0  0  0  0  0  0  0  0  0  0  0
  -28.5664  -19.3463   20.6065 C   0  0  0  0  0  0  0  0  0  0  0  0
  -22.8403  -13.1836   21.3256 C   0  0  0  0  0  0  0  0  0  0  0  0
  -27.9669  -23.1922   29.7010 C   0  0  0  0  0  0  0  0  0  0  0  0
  -28.9740  -20.2634   28.7366 C   0  0  0  0  0  0  0  0  0  0  0  0
  -29.5939  -18.1172   26.1566 C   0  0  0  0  0  0  0  0  0  0  0  0
  -29.6766  -17.1115   20.2612 C   0  0  0  0  0  0  0  0  0  0  0  0
  -26.3542  -25.3510   34.0364 C   0  0  0  0  0  0  0  0  0  0  0  0
  -26.0731  -22.4786   28.1976 C   0  0  0  0  0  0  0  0  0  0  0  0
  -28.7084  -22.0137   26.9391 C   0  0  0  0  0  0  0  0  0  0  0  0
  -27.2446  -24.1657   33.6724 C   0  0  0  0  0  0  0  0  0  0  0  0
  -29.8617  -13.7983   18.9704 C   0  0  0  0  0  0  0  0  0  0  0  0
  -28.2787  -24.5755   32.6286 C   0  0  0  0  0  0  0  0  0  0  0  0
  -28.5795  -13.1378   19.4820 C   0  0  0  0  0  0  0  0  0  0  0  0
  -30.4502  -14.7648   19.9967 C   0  0  0  0  0  0  0  0  0  0  0  0
  -28.2339  -15.1190   21.0125 C   0  0  0  0  0  0  0  0  0  0  0  0
  -27.6014  -25.0353   31.3319 C   0  0  1  0  0  0  0  0  0  0  0  0
  -27.2867  -22.0427   29.0128 C   0  0  1  0  0  0  0  0  0  0  0  0
  -27.5688  -14.1857   19.9877 C   0  0  2  0  0  0  0  0  0  0  0  0
  -28.9797  -25.6152   17.0251 C   0  0  0  0  0  0  0  0  0  0  0  0
  -27.1469  -29.0343   19.8314 C   0  0  0  0  0  0  0  0  0  0  0  0
  -30.4481  -15.8066   25.6781 C   0  0  0  0  0  0  0  0  0  0  0  0
  -31.8282  -21.2166   29.2416 C   0  0  0  0  0  0  0  0  0  0  0  0
  -32.6419  -19.2788   27.8811 C   0  0  0  0  0  0  0  0  0  0  0  0
  -31.3638  -18.8743   29.9848 C   0  0  0  0  0  0  0  0  0  0  0  0
  -25.4538  -25.0163   20.0836 C   0  0  0  0  0  0  0  0  0  0  0  0
  -27.0307  -17.2994   24.9235 C   0  0  0  0  0  0  0  0  0  0  0  0
  -27.9153  -25.8761   18.0798 C   0  0  0  0  0  0  0  0  0  0  0  0
  -26.4828  -27.6938   20.1249 C   0  0  0  0  0  0  0  0  0  0  0  0
  -28.5366  -26.3617   19.3949 C   0  0  0  0  0  0  0  0  0  0  0  0
  -26.3179  -25.3045   22.4178 C   0  0  0  0  0  0  0  0  0  1  0  0
  -27.6676  -23.9802   20.6902 C   0  0  0  0  0  0  0  0  0  0  0  0
  -30.1499  -19.7443   27.9448 C   0  0  1  0  0  0  0  0  0  0  0  0
  -29.2190  -16.6615   25.9450 C   0  0  2  0  0  0  0  0  0  0  0  0
  -27.4729  -26.5606   20.5137 C   0  0  2  0  0  0  0  0  0  0  0  0
  -31.4777  -19.7973   28.7520 C   0  0  0  0  0  0  0  0  0  0  0  0
  -26.7452  -25.2079   20.9206 C   0  0  1  0  0  0  0  0  0  0  0  0
  -29.4789  -20.1688   20.1388 N   0  0  0  0  0  0  0  0  0  0  0  0
  -26.4129  -12.3374   21.1405 N   0  0  0  0  0  0  0  0  0  0  0  0
  -26.3141  -13.5358   20.5404 N   0  0  0  0  0  0  0  0  0  0  0  0
  -28.3020  -21.3705   28.1996 N   0  0  0  0  0  0  0  0  0  0  0  0
  -29.4370  -15.7309   20.4267 N   0  0  0  0  0  0  0  0  0  0  0  0
  -24.7667  -15.2256   19.9397 N   0  0  0  0  0  0  0  0  0  0  0  0
  -22.1888  -12.1301   21.9814 N   0  0  0  0  0  0  0  0  0  0  0  0
  -28.6286  -17.9324   20.6763 N   0  0  0  0  0  0  0  0  0  0  0  0
  -27.1490  -23.8939   30.5658 N   0  0  0  0  0  0  0  0  0  0  0  0
  -29.7790  -18.4081   27.4916 N   0  0  0  0  0  0  0  0  0  0  0  0
  -28.2930  -16.5284   24.7849 N   0  3  0  0  0  0  0  0  0  0  0  0
  -22.1692  -14.1625   20.9193 O   0  0  0  0  0  0  0  0  0  0  0  0
  -29.1470  -23.4244   29.4658 O   0  0  0  0  0  0  0  0  0  0  0  0
  -28.6589  -19.7025   29.7891 O   0  0  0  0  0  0  0  0  0  0  0  0
  -29.7144  -18.9155   25.2299 O   0  0  0  0  0  0  0  0  0  0  0  0
  -30.7226  -17.5332   19.7611 O   0  0  0  0  0  0  0  0  0  0  0  0
  -23.9342   -7.3103   24.1627 O   0  0  0  0  0  0  0  0  0  0  0  0
  -27.3963  -25.0258   23.3031 O   0  0  0  0  0  0  0  0  0  1  0  0
  -27.0483  -22.7515   21.0545 O   0  0  0  0  0  0  0  0  0  0  0  0
  -19.5231   -4.4749   22.4579 F   0  0  0  0  0  0  0  0  0  0  0  0
  -21.4130   -8.4431   24.2149 F   0  0  0  0  0  0  0  0  0  0  0  0
  -27.1260  -20.0627   21.2042 S   0  0  0  0  0  0  0  0  0  0  0  0
  1  2  1  0  0  0  0
  1  5  2  0  0  0  0
  2  6  2  0  0  0  0
  3  8  2  0  0  0  0
  3 16  1  0  0  0  0
  4  9  1  0  0  0  0
  4 16  2  0  0  0  0
  5 18  1  0  0  0  0
  6 20  1  0  0  0  0
  7 10  2  0  0  0  0
  7 19  1  0  0  0  0
  8 22  1  0  0  0  0
  9 22  2  0  0  0  0
 10 23  1  0  0  0  0
 11 12  2  0  0  0  0
 11 24  1  0  0  0  0
 12 25  1  0  0  0  0
 13 21  1  0  0  0  0
 13 23  2  0  0  0  0
 14 25  2  0  0  0  0
 14 26  1  0  0  0  0
 15 29  2  0  0  0  0
 15 66  1  0  0  0  0
 16 27  1  0  0  0  0
 17 27  1  0  0  0  0
 17 28  2  0  0  0  0
 17 31  1  0  0  0  0
 18 20  2  0  0  0  0
 18 36  1  0  0  0  0
 19 21  2  0  0  0  0
 19 37  1  0  0  0  0
 20 45  1  0  0  0  0
 21 38  1  0  0  0  0
 22 82  1  0  0  0  0
 23 83  1  0  0  0  0
 24 26  2  0  0  0  0
 24 82  1  0  0  0  0
 25 85  1  0  0  0  0
 26 86  1  0  0  0  0
 27 67  2  0  0  0  0
 28 68  1  0  0  0  0
 28 71  1  0  0  0  0
 29 84  1  0  0  0  0
 29 87  1  0  0  0  0
 30 66  2  0  0  0  0
 30 73  1  0  0  0  0
 30 87  1  0  0  0  0
 31 72  1  0  0  0  0
 31 77  2  0  0  0  0
 32 46  1  0  0  0  0
 32 74  1  0  0  0  0
 32 78  2  0  0  0  0
 33 61  1  0  0  0  0
 33 69  1  0  0  0  0
 33 79  2  0  0  0  0
 34 62  1  0  0  0  0
 34 75  1  0  0  0  0
 34 80  2  0  0  0  0
 35 70  1  0  0  0  0
 35 73  1  0  0  0  0
 35 81  2  0  0  0  0
 36 39  1  0  0  0  0
 37 46  1  0  0  0  0
 38 69  1  0  0  0  0
 39 41  1  0  0  0  0
 40 42  1  0  0  0  0
 40 43  1  0  0  0  0
 41 45  1  0  0  0  0
 42 47  1  0  0  0  0
 43 70  1  0  0  0  0
 44 47  1  0  0  0  0
 44 70  1  0  0  0  0
 45 74  1  0  0  0  0
 46 69  1  0  0  0  0
 47 68  1  0  0  0  0
 48 56  1  0  0  0  0
 49 57  1  0  0  0  0
 50 62  1  0  0  0  0
 51 64  1  0  0  0  0
 52 64  1  0  0  0  0
 53 64  1  0  0  0  0
 54 65  1  0  0  0  0
 55 76  1  0  0  0  0
 56 58  1  0  0  0  0
 57 63  1  0  0  0  0
 58 63  1  0  0  0  0
 59 65  1  0  0  0  0
 59 83  1  0  0  0  0
 60 65  1  0  0  0  0
 60 84  1  0  0  0  0
 61 64  1  0  0  0  0
 61 75  1  0  0  0  0
 62 76  1  0  0  0  0
 63 65  1  0  0  0  0
 67 68  1  0  0  0  0
M  CHG  1  76   1
M  ISO  4  35 100  59 101  73 100  83 101
M  END
> <Batch ID>
0194

> <Smiles>
CCCC(CC)C(C)(COc1cnc([100NH:0][100C:0](=O)N2CCCC(n3nc(-c4ccc(Oc5ccc(F)cc5F)cc4)c(C(N)=O)c3N)C2)s1)[101CH2:1][101O:1]c1ccc2c(c1)CN(C(=O)C(NC(=O)C(C)NC)C(C)(C)C)C(C(=O)NC1CCCc3ccccc31)C2

> <Shape>
0.183

> <Color>
0.101

> <Negative vol penalty>
0.000

$$$$

  -OEChem-04052305333D

 83 91  0     1  0  0  0  0  0999 V2000
  -17.1230  -31.7200   22.9809 C   0  0  0  0  0  0  0  0  0  0  0  0
  -18.2590  -32.0477   22.2479 C   0  0  0  0  0  0  0  0  0  0  0  0
  -25.6268  -12.6330   19.2642 C   0  0  0  0  0  0  0  0  0  0  0  0
  -26.1849  -13.6726   21.3725 C   0  0  0  0  0  0  0  0  0  0  0  0
  -17.1983  -30.7603   23.9894 C   0  0  0  0  0  0  0  0  0  0  0  0
  -19.4715  -31.4165   22.5237 C   0  0  0  0  0  0  0  0  0  0  0  0
  -25.4471  -29.1480   19.2891 C   0  0  0  0  0  0  0  0  0  0  0  0
  -25.2811  -11.4596   19.9343 C   0  0  0  0  0  0  0  0  0  0  0  0
  -25.8392  -12.4991   22.0426 C   0  0  0  0  0  0  0  0  0  0  0  0
  -26.8336  -29.2516   19.3925 C   0  0  0  0  0  0  0  0  0  0  0  0
  -23.9088   -8.3097   21.1218 C   0  0  0  0  0  0  0  0  0  0  0  0
  -22.7256   -7.6733   20.7469 C   0  0  0  0  0  0  0  0  0  0  0  0
  -26.8270  -27.5521   21.1044 C   0  0  0  0  0  0  0  0  0  0  0  0
  -21.4730   -9.6518   21.3417 C   0  0  0  0  0  0  0  0  0  0  0  0
  -31.3242  -23.9352   17.6771 C   0  0  0  0  0  0  0  0  0  0  0  0
  -26.0788  -13.7396   19.9833 C   0  0  0  0  0  0  0  0  0  0  0  0
  -25.5920  -16.0346   18.9815 C   0  0  0  0  0  0  0  0  0  0  0  0
  -18.4101  -30.1100   24.2713 C   0  0  0  0  0  0  0  0  0  0  0  0
  -24.7378  -28.2518   20.1017 C   0  0  0  0  0  0  0  0  0  0  0  0
  -19.5634  -30.4481   23.5378 C   0  0  0  0  0  0  0  0  0  0  0  0
  -25.4318  -27.4371   21.0076 C   0  0  0  0  0  0  0  0  0  0  0  0
  -25.3873  -11.3926   21.3235 C   0  0  0  0  0  0  0  0  0  0  0  0
  -27.5234  -28.4557   20.3023 C   0  0  0  0  0  0  0  0  0  0  0  0
  -23.8741   -9.6171   21.6067 C   0  0  0  0  0  0  0  0  0  0  0  0
  -21.5077   -8.3443   20.8568 C   0  0  0  0  0  0  0  0  0  0  0  0
  -22.6562  -10.2881   21.7167 C   0  0  0  0  0  0  0  0  0  0  0  0
  -26.4365  -14.9518   19.2916 C   0  0  0  0  0  0  0  0  0  0  0  0
  -30.2792  -24.6633   18.2018 C   0  0  0  0  0  0  0  0  0  0  0  0
  -30.2750  -21.9948   18.2798 C   0  0  0  0  0  0  0  0  0  0  0  0
  -29.2303  -22.7228   18.8052 C   0  0  0  0  0  0  0  0  0  0  0  0
  -26.4047  -16.9275   18.3269 C   0  0  0  0  0  0  0  0  0  0  0  0
  -24.1974  -16.2169   19.2603 C   0  0  0  0  0  0  0  0  0  0  0  0
  -22.4887  -28.5416   22.3291 C   0  0  0  0  0  0  0  0  0  0  0  0
  -22.4925  -25.3004   22.2006 C   0  0  0  0  0  0  0  0  0  0  0  0
  -24.1824  -22.4327   21.4471 C   0  0  0  0  0  0  0  0  0  0  0  0
  -31.2125  -19.6958   17.8528 C   0  0  0  0  0  0  0  0  0  0  0  0
  -18.4532  -29.1135   25.4025 C   0  0  0  0  0  0  0  0  0  0  0  0
  -23.2452  -28.1328   19.9592 C   0  0  0  0  0  0  0  0  0  0  0  0
  -24.7192  -26.4448   21.8885 C   0  0  0  0  0  0  0  0  0  0  0  0
  -19.6913  -28.2207   25.3809 C   0  0  0  0  0  0  0  0  0  0  0  0
  -31.1042  -16.3946   16.5234 C   0  0  0  0  0  0  0  0  0  0  0  0
  -20.9469  -29.0547   25.1472 C   0  0  0  0  0  0  0  0  0  0  0  0
  -29.8107  -15.8140   17.0996 C   0  0  0  0  0  0  0  0  0  0  0  0
  -31.8116  -17.3067   17.5242 C   0  0  0  0  0  0  0  0  0  0  0  0
  -29.6831  -17.7940   18.6649 C   0  0  0  0  0  0  0  0  0  0  0  0
  -20.8912  -29.7675   23.7906 C   0  0  1  0  0  0  0  0  0  0  0  0
  -22.5707  -27.5545   21.1994 C   0  0  1  0  0  0  0  0  0  0  0  0
  -28.9017  -16.9201   17.6703 C   0  0  2  0  0  0  0  0  0  0  0  0
  -23.9390  -19.9354   21.4836 C   0  0  0  0  0  0  0  0  0  0  0  0
  -22.9144  -25.3058   25.2225 C   0  0  0  0  0  0  0  0  0  0  0  0
  -23.6037  -22.9044   25.0605 C   0  0  0  0  0  0  0  0  0  0  0  0
  -21.2972  -23.5855   24.3980 C   0  0  0  0  0  0  0  0  0  0  0  0
  -24.5287  -22.2400   18.5142 C   0  0  0  0  0  0  0  0  0  0  0  0
  -30.2944  -26.1727   18.1501 C   0  0  0  0  0  0  0  0  0  0  0  0
  -30.9892  -28.3186   19.2902 C   0  0  0  0  0  0  0  0  0  0  0  0
  -29.5924  -28.9271   19.2284 C   0  0  0  0  0  0  0  0  0  1  0  0
  -23.2470  -24.2031   22.9118 C   0  0  1  0  0  0  0  0  0  0  0  0
  -23.7756  -21.2017   20.6575 C   0  0  2  0  0  0  0  0  0  0  0  0
  -30.9575  -26.7898   19.3894 C   0  0  2  0  0  0  0  0  0  0  0  0
  -22.7791  -24.0197   24.3831 C   0  0  0  0  0  0  0  0  0  0  0  0
  -31.3409  -22.5879   17.7067 N   0  0  0  0  0  0  0  0  0  0  0  0
  -27.6898  -15.1379   18.8686 N   0  0  0  0  0  0  0  0  0  0  0  0
  -29.2134  -24.0701   18.7753 N   0  0  0  0  0  0  0  0  0  0  0  0
  -27.6386  -16.3478   18.2860 N   0  0  0  0  0  0  0  0  0  0  0  0
  -23.2590  -26.3699   21.7165 N   0  0  0  0  0  0  0  0  0  0  0  0
  -30.8904  -18.3322   18.0187 N   0  0  0  0  0  0  0  0  0  0  0  0
  -28.1363  -22.0501   19.3959 N   0  0  0  0  0  0  0  0  0  0  0  0
  -26.1772  -18.1442   17.7881 N   0  0  0  0  0  0  0  0  0  0  0  0
  -23.5138  -15.2005   19.9415 N   0  0  0  0  0  0  0  0  0  0  0  0
  -30.2462  -20.5791   18.3331 N   0  0  0  0  0  0  0  0  0  0  0  0
  -21.1981  -28.8426   22.7207 N   0  0  0  0  0  0  0  0  0  0  0  0
  -23.1048  -23.0087   22.0862 N   0  0  0  0  0  0  0  0  0  0  0  0
  -24.6118  -21.0737   19.4306 N   0  3  0  0  0  0  0  0  0  0  0  0
  -23.5721  -17.2432   18.9010 O   0  0  0  0  0  0  0  0  0  0  0  0
  -23.5200  -28.9955   22.8109 O   0  0  0  0  0  0  0  0  0  0  0  0
  -21.2690  -25.2083   22.0729 O   0  0  0  0  0  0  0  0  0  0  0  0
  -25.3409  -22.8403   21.4955 O   0  0  0  0  0  0  0  0  0  0  0  0
  -32.2553  -20.0536   17.2991 O   0  0  0  0  0  0  0  0  0  0  0  0
  -32.2926  -26.2989   19.5075 O   0  0  0  0  0  0  0  0  0  0  0  0
  -25.0498  -10.2478   21.9778 O   0  0  0  0  0  0  0  0  0  0  0  0
  -28.8767  -28.5554   20.4056 O   0  0  0  0  0  0  0  0  0  1  0  0
  -20.3717   -7.7336   20.4953 F   0  0  0  0  0  0  0  0  0  0  0  0
  -22.6168  -11.5447   22.1808 F   0  0  0  0  0  0  0  0  0  0  0  0
  1  2  1  0  0  0  0
  1  5  2  0  0  0  0
  2  6  2  0  0  0  0
  3  8  2  0  0  0  0
  3 16  1  0  0  0  0
  4  9  1  0  0  0  0
  4 16  2  0  0  0  0
  5 18  1  0  0  0  0
  6 20  1  0  0  0  0
  7 10  2  0  0  0  0
  7 19  1  0  0  0  0
  8 22  1  0  0  0  0
  9 22  2  0  0  0  0
 10 23  1  0  0  0  0
 11 12  2  0  0  0  0
 11 24  1  0  0  0  0
 12 25  1  0  0  0  0
 13 21  1  0  0  0  0
 13 23  2  0  0  0  0
 14 25  2  0  0  0  0
 14 26  1  0  0  0  0
 15 28  1  0  0  0  0
 15 61  2  0  0  0  0
 16 27  1  0  0  0  0
 17 27  1  0  0  0  0
 17 31  2  0  0  0  0
 17 32  1  0  0  0  0
 18 20  2  0  0  0  0
 18 37  1  0  0  0  0
 19 21  2  0  0  0  0
 19 38  1  0  0  0  0
 20 46  1  0  0  0  0
 21 39  1  0  0  0  0
 22 80  1  0  0  0  0
 23 81  1  0  0  0  0
 24 26  2  0  0  0  0
 24 80  1  0  0  0  0
 25 82  1  0  0  0  0
 26 83  1  0  0  0  0
 27 62  2  0  0  0  0
 28 54  1  0  0  0  0
 28 63  2  0  0  0  0
 29 30  2  0  0  0  0
 29 61  1  0  0  0  0
 29 70  1  0  0  0  0
 30 63  1  0  0  0  0
 30 67  1  0  0  0  0
 31 64  1  0  0  0  0
 31 68  1  0  0  0  0
 32 69  1  0  0  0  0
 32 74  2  0  0  0  0
 33 47  1  0  0  0  0
 33 71  1  0  0  0  0
 33 75  2  0  0  0  0
 34 57  1  0  0  0  0
 34 65  1  0  0  0  0
 34 76  2  0  0  0  0
 35 58  1  0  0  0  0
 35 72  1  0  0  0  0
 35 77  2  0  0  0  0
 36 66  1  0  0  0  0
 36 70  1  0  0  0  0
 36 78  2  0  0  0  0
 37 40  1  0  0  0  0
 38 47  1  0  0  0  0
 39 65  1  0  0  0  0
 40 42  1  0  0  0  0
 41 43  1  0  0  0  0
 41 44  1  0  0  0  0
 42 46  1  0  0  0  0
 43 48  1  0  0  0  0
 44 66  1  0  0  0  0
 45 48  1  0  0  0  0
 45 66  1  0  0  0  0
 46 71  1  0  0  0  0
 47 65  1  0  0  0  0
 48 64  1  0  0  0  0
 49 58  1  0  0  0  0
 50 60  1  0  0  0  0
 51 60  1  0  0  0  0
 52 60  1  0  0  0  0
 53 73  1  0  0  0  0
 54 59  1  0  0  0  0
 55 56  1  0  0  0  0
 55 59  1  0  0  0  0
 56 81  1  0  0  0  0
 57 60  1  0  0  0  0
 57 72  1  0  0  0  0
 58 73  1  0  0  0  0
 59 79  1  0  0  0  0
 62 64  1  0  0  0  0
M  CHG  1  73   1
M  ISO  4  36 100  56 101  70 100  81 101
M  END
> <Batch ID>
0194

> <Smiles>
CNC(C)C(=O)NC(C(=O)N1Cc2cc([101O:1][101CH2:1]CC(O)Cc3cnc([100NH:0][100C:0](=O)N4CCCC(n5nc(-c6ccc(Oc7ccc(F)cc7F)cc6)c(C(N)=O)c5N)C4)c(N)n3)ccc2CC1C(=O)NC1CCCc2ccccc21)C(C)(C)C

> <Shape>
0.228

> <Color>
0.082

> <Negative vol penalty>
0.000

$$$$

  -OEChem-04052305333D

 84 92  0     1  0  0  0  0  0999 V2000
  -30.6329  -22.4767   15.1960 C   0  0  0  0  0  0  0  0  0  0  0  0
  -30.6663  -22.4228   16.5857 C   0  0  0  0  0  0  0  0  0  0  0  0
  -25.4190  -13.5401   19.2195 C   0  0  0  0  0  0  0  0  0  0  0  0
  -25.1232  -13.3507   21.6098 C   0  0  0  0  0  0  0  0  0  0  0  0
  -30.2364  -23.6493   14.5543 C   0  0  0  0  0  0  0  0  0  0  0  0
  -30.3040  -23.5418   17.3346 C   0  0  0  0  0  0  0  0  0  0  0  0
  -27.4312  -23.5797   22.7431 C   0  0  0  0  0  0  0  0  0  0  0  0
  -25.3250  -12.1538   19.0980 C   0  0  0  0  0  0  0  0  0  0  0  0
  -25.0292  -11.9643   21.4883 C   0  0  0  0  0  0  0  0  0  0  0  0
  -27.8957  -23.7107   24.0510 C   0  0  0  0  0  0  0  0  0  0  0  0
  -24.3505   -8.4033   21.7655 C   0  0  0  0  0  0  0  0  0  0  0  0
  -23.3362   -7.7570   22.4720 C   0  0  0  0  0  0  0  0  0  0  0  0
  -27.4088  -26.0723   23.9810 C   0  0  0  0  0  0  0  0  0  0  0  0
  -21.6808   -9.0494   21.2777 C   0  0  0  0  0  0  0  0  0  0  0  0
  -25.3182  -14.1386   20.4754 C   0  0  0  0  0  0  0  0  0  0  0  0
  -24.3623  -16.5027   20.5454 C   0  0  0  0  0  0  0  0  0  0  0  0
  -29.8598  -24.7802   15.2959 C   0  0  0  0  0  0  0  0  0  0  0  0
  -26.9613  -24.6978   22.0392 C   0  0  0  0  0  0  0  0  0  0  0  0
  -29.9033  -24.7311   16.7023 C   0  0  0  0  0  0  0  0  0  0  0  0
  -26.9364  -25.9523   22.6651 C   0  0  0  0  0  0  0  0  0  0  0  0
  -25.1301  -11.3659   20.2324 C   0  0  0  0  0  0  0  0  0  0  0  0
  -27.8873  -24.9577   24.6692 C   0  0  0  0  0  0  0  0  0  0  0  0
  -24.0299   -9.3728   20.8152 C   0  0  0  0  0  0  0  0  0  0  0  0
  -22.0014   -8.0800   22.2280 C   0  0  0  0  0  0  0  0  0  0  0  0
  -22.6951   -9.6958   20.5713 C   0  0  0  0  0  0  0  0  0  0  0  0
  -25.4158  -15.5706   20.6017 C   0  0  0  0  0  0  0  0  0  0  0  0
  -30.3392  -20.1378   27.6989 C   0  0  0  0  0  0  0  0  0  0  0  0
  -24.9723  -17.7211   20.7183 C   0  0  0  0  0  0  0  0  0  0  0  0
  -29.3854  -19.2995   28.2370 C   0  0  0  0  0  0  0  0  0  0  0  0
  -29.6005  -19.2417   25.8384 C   0  0  0  0  0  0  0  0  0  0  0  0
  -22.9579  -16.2866   20.3541 C   0  0  0  0  0  0  0  0  0  0  0  0
  -27.8445  -26.2136   19.3886 C   0  0  0  0  0  0  0  0  0  0  0  0
  -25.1305  -27.9092   19.9195 C   0  0  0  0  0  0  0  0  0  0  0  0
  -22.7880  -29.0051   22.1462 C   0  0  0  0  0  0  0  0  0  0  0  0
  -30.0588  -19.4006   23.3664 C   0  0  0  0  0  0  0  0  0  0  0  0
  -29.4836  -26.0403   14.5574 C   0  0  0  0  0  0  0  0  0  0  0  0
  -26.4387  -24.5349   20.6383 C   0  0  0  0  0  0  0  0  0  0  0  0
  -26.4232  -27.1803   21.9599 C   0  0  0  0  0  0  0  0  0  0  0  0
  -28.7562  -27.0620   15.4274 C   0  0  0  0  0  0  0  0  0  0  0  0
  -29.1382  -19.9627   19.9732 C   0  0  0  0  0  0  0  0  0  0  0  0
  -29.4728  -27.2324   16.7632 C   0  0  0  0  0  0  0  0  0  0  0  0
  -27.9792  -18.9893   19.7460 C   0  0  0  0  0  0  0  0  0  0  0  0
  -30.2084  -19.3670   20.8861 C   0  0  0  0  0  0  0  0  0  0  0  0
  -28.5543  -17.8771   21.9412 C   0  0  0  0  0  0  0  0  0  0  0  0
  -29.4940  -25.9162   17.5497 C   0  0  1  0  0  0  0  0  0  0  0  0
  -26.4619  -25.8331   19.8372 C   0  0  1  0  0  0  0  0  0  0  0  0
  -27.4204  -18.4572   21.0802 C   0  0  2  0  0  0  0  0  0  0  0  0
  -32.7249  -20.7789   28.2379 C   0  0  0  0  0  0  0  0  0  0  0  0
  -20.7105  -30.4053   22.2907 C   0  0  0  0  0  0  0  0  0  0  0  0
  -30.1804  -23.4820   30.2202 C   0  0  0  0  0  0  0  0  0  0  0  0
  -26.8272  -30.4395   19.7498 C   0  0  0  0  0  0  0  0  0  0  0  0
  -24.9424  -31.6915   20.8214 C   0  0  0  0  0  0  0  0  0  0  0  0
  -24.6080  -30.5929   18.6069 C   0  0  0  0  0  0  0  0  0  0  0  0
  -21.1656  -26.7097   23.0725 C   0  0  0  0  0  0  0  0  0  0  0  0
  -29.2835  -24.2721   27.9949 C   0  0  0  0  0  0  0  0  0  0  0  0
  -28.8110  -23.9065   26.5921 C   0  0  0  0  0  0  0  0  0  1  0  0
  -31.2445  -21.0716   28.4686 C   0  0  1  0  0  0  0  0  0  0  0  0
  -24.7865  -29.1640   20.6850 C   0  0  1  0  0  0  0  0  0  0  0  0
  -21.2708  -29.0053   22.0938 C   0  0  2  0  0  0  0  0  0  0  0  0
  -29.7949  -23.0780   28.8033 C   0  0  1  0  0  0  0  0  0  0  0  0
  -25.3026  -30.4494   19.9787 C   0  0  0  0  0  0  0  0  0  0  0  0
  -26.6048  -16.1474   20.7950 N   0  0  0  0  0  0  0  0  0  0  0  0
  -30.4643  -20.1057   26.3237 N   0  0  0  0  0  0  0  0  0  0  0  0
  -26.3023  -17.4551   20.8617 N   0  0  0  0  0  0  0  0  0  0  0  0
  -25.9287  -26.9708   20.5891 N   0  0  0  0  0  0  0  0  0  0  0  0
  -29.6063  -18.8878   22.1322 N   0  0  0  0  0  0  0  0  0  0  0  0
  -24.4954  -18.9834   20.7600 N   0  0  0  0  0  0  0  0  0  0  0  0
  -29.0589  -19.1332   29.5417 N   0  0  0  0  0  0  0  0  0  0  0  0
  -22.5002  -14.9717   20.1925 N   0  0  0  0  0  0  0  0  0  0  0  0
  -29.3900  -18.8951   24.4807 N   0  0  0  0  0  0  0  0  0  0  0  0
  -28.2078  -25.6764   18.1684 N   0  0  0  0  0  0  0  0  0  0  0  0
  -23.3424  -29.1339   20.8903 N   0  0  0  0  0  0  0  0  0  0  0  0
  -20.7156  -28.1229   23.1587 N   0  3  0  0  0  0  0  0  0  0  0  0
  -31.0009  -22.5016   28.1462 N   0  3  0  0  0  0  0  0  0  0  0  0
  -22.1353  -17.2326   20.3108 O   0  0  0  0  0  0  0  0  0  0  0  0
  -28.5302  -26.9420   20.0963 O   0  0  0  0  0  0  0  0  0  0  0  0
  -24.7009  -27.7636   18.7724 O   0  0  0  0  0  0  0  0  0  0  0  0
  -23.4182  -28.9047   23.1966 O   0  0  0  0  0  0  0  0  0  0  0  0
  -30.9538  -20.2474   23.4283 O   0  0  0  0  0  0  0  0  0  0  0  0
  -25.0380  -10.0131   20.1141 O   0  0  0  0  0  0  0  0  0  0  0  0
  -28.3408  -25.0885   25.9455 O   0  0  0  0  0  0  0  0  0  1  0  0
  -21.0274   -7.4581   22.9054 F   0  0  0  0  0  0  0  0  0  0  0  0
  -22.3809  -10.6255   19.6587 F   0  0  0  0  0  0  0  0  0  0  0  0
  -28.6060  -18.4325   26.9791 S   0  0  0  0  0  0  0  0  0  0  0  0
  1  2  1  0  0  0  0
  1  5  2  0  0  0  0
  2  6  2  0  0  0  0
  3  8  2  0  0  0  0
  3 15  1  0  0  0  0
  4  9  1  0  0  0  0
  4 15  2  0  0  0  0
  5 17  1  0  0  0  0
  6 19  1  0  0  0  0
  7 10  2  0  0  0  0
  7 18  1  0  0  0  0
  8 21  1  0  0  0  0
  9 21  2  0  0  0  0
 10 22  1  0  0  0  0
 11 12  2  0  0  0  0
 11 23  1  0  0  0  0
 12 24  1  0  0  0  0
 13 20  1  0  0  0  0
 13 22  2  0  0  0  0
 14 24  2  0  0  0  0
 14 25  1  0  0  0  0
 15 26  1  0  0  0  0
 16 26  1  0  0  0  0
 16 28  2  0  0  0  0
 16 31  1  0  0  0  0
 17 19  2  0  0  0  0
 17 36  1  0  0  0  0
 18 20  2  0  0  0  0
 18 37  1  0  0  0  0
 19 45  1  0  0  0  0
 20 38  1  0  0  0  0
 21 80  1  0  0  0  0
 22 81  1  0  0  0  0
 23 25  2  0  0  0  0
 23 80  1  0  0  0  0
 24 82  1  0  0  0  0
 25 83  1  0  0  0  0
 26 62  2  0  0  0  0
 27 29  2  0  0  0  0
 27 57  1  0  0  0  0
 27 63  1  0  0  0  0
 28 64  1  0  0  0  0
 28 67  1  0  0  0  0
 29 68  1  0  0  0  0
 29 84  1  0  0  0  0
 30 63  2  0  0  0  0
 30 70  1  0  0  0  0
 30 84  1  0  0  0  0
 31 69  1  0  0  0  0
 31 75  2  0  0  0  0
 32 46  1  0  0  0  0
 32 71  1  0  0  0  0
 32 76  2  0  0  0  0
 33 58  1  0  0  0  0
 33 65  1  0  0  0  0
 33 77  2  0  0  0  0
 34 59  1  0  0  0  0
 34 72  1  0  0  0  0
 34 78  2  0  0  0  0
 35 66  1  0  0  0  0
 35 70  1  0  0  0  0
 35 79  2  0  0  0  0
 36 39  1  0  0  0  0
 37 46  1  0  0  0  0
 38 65  1  0  0  0  0
 39 41  1  0  0  0  0
 40 42  1  0  0  0  0
 40 43  1  0  0  0  0
 41 45  1  0  0  0  0
 42 47  1  0  0  0  0
 43 66  1  0  0  0  0
 44 47  1  0  0  0  0
 44 66  1  0  0  0  0
 45 71  1  0  0  0  0
 46 65  1  0  0  0  0
 47 64  1  0  0  0  0
 48 57  1  0  0  0  0
 49 59  1  0  0  0  0
 50 60  1  0  0  0  0
 51 61  1  0  0  0  0
 52 61  1  0  0  0  0
 53 61  1  0  0  0  0
 54 73  1  0  0  0  0
 55 56  1  0  0  0  0
 55 60  1  0  0  0  0
 56 81  1  0  0  0  0
 57 74  1  0  0  0  0
 58 61  1  0  0  0  0
 58 72  1  0  0  0  0
 59 73  1  0  0  0  0
 60 74  1  0  0  0  0
 62 64  1  0  0  0  0
M  CHG  2  73   1  74   1
M  ISO  4  35 100  56 101  70 100  81 101
M  END
> <Batch ID>
0194

> <Smiles>
CNC(C)C(=O)NC(C(=O)N1Cc2cc([101O:1][101CH2:1]CC(C)NC(C)c3nc([100NH:0][100C:0](=O)N4CCCC(n5nc(-c6ccc(Oc7ccc(F)cc7F)cc6)c(C(N)=O)c5N)C4)sc3N)ccc2CC1C(=O)NC1CCCc2ccccc21)C(C)(C)C

> <Shape>
0.214

> <Color>
0.067

> <Negative vol penalty>
0.000

$$$$

  -OEChem-04052305333D

 84 92  0     1  0  0  0  0  0999 V2000
  -30.8698  -24.1336   18.8863 C   0  0  0  0  0  0  0  0  0  0  0  0
  -29.4836  -24.0674   18.9828 C   0  0  0  0  0  0  0  0  0  0  0  0
  -28.3504  -14.0254   21.3216 C   0  0  0  0  0  0  0  0  0  0  0  0
  -26.7969  -14.9183   19.7009 C   0  0  0  0  0  0  0  0  0  0  0  0
  -31.5975  -24.8763   19.8152 C   0  0  0  0  0  0  0  0  0  0  0  0
  -28.8242  -24.7430   20.0091 C   0  0  0  0  0  0  0  0  0  0  0  0
  -23.3244  -27.4210   19.7149 C   0  0  0  0  0  0  0  0  0  0  0  0
  -27.6426  -12.8236   21.3379 C   0  0  0  0  0  0  0  0  0  0  0  0
  -26.0891  -13.7164   19.7172 C   0  0  0  0  0  0  0  0  0  0  0  0
  -22.0545  -27.0014   20.1088 C   0  0  0  0  0  0  0  0  0  0  0  0
  -23.8266  -12.1845   21.7084 C   0  0  0  0  0  0  0  0  0  0  0  0
  -22.4353  -12.2527   21.7795 C   0  0  0  0  0  0  0  0  0  0  0  0
  -22.3172  -28.1842   22.1947 C   0  0  0  0  0  0  0  0  0  0  0  0
  -22.2702  -11.0799   19.6737 C   0  0  0  0  0  0  0  0  0  0  0  0
  -21.9959  -22.6457   21.8567 C   0  0  0  0  0  0  0  0  0  0  0  0
  -27.9275  -15.0728   20.5031 C   0  0  0  0  0  0  0  0  0  0  0  0
  -29.7329  -16.6573   19.6443 C   0  0  0  0  0  0  0  0  0  0  0  0
  -30.9460  -25.5692   20.8476 C   0  0  0  0  0  0  0  0  0  0  0  0
  -24.1059  -28.2177   20.5639 C   0  0  0  0  0  0  0  0  0  0  0  0
  -29.5440  -25.4946   20.9535 C   0  0  0  0  0  0  0  0  0  0  0  0
  -23.5956  -28.6148   21.8081 C   0  0  0  0  0  0  0  0  0  0  0  0
  -26.5120  -12.6691   20.5357 C   0  0  0  0  0  0  0  0  0  0  0  0
  -21.5519  -27.3806   21.3500 C   0  0  0  0  0  0  0  0  0  0  0  0
  -24.4398  -11.5640   20.6199 C   0  0  0  0  0  0  0  0  0  0  0  0
  -21.6570  -11.7004   20.7621 C   0  0  0  0  0  0  0  0  0  0  0  0
  -23.6616  -11.0117   19.6026 C   0  0  0  0  0  0  0  0  0  0  0  0
  -28.6579  -16.3147   20.4862 C   0  0  0  0  0  0  0  0  0  0  0  0
  -21.9307  -23.8422   22.5396 C   0  0  0  0  0  0  0  0  0  0  0  0
  -30.0714  -17.9338   20.0219 C   0  0  0  0  0  0  0  0  0  0  0  0
  -24.0435  -23.3436   21.4957 C   0  0  0  0  0  0  0  0  0  0  0  0
  -30.3686  -15.8903   18.6131 C   0  0  0  0  0  0  0  0  0  0  0  0
  -26.9179  -27.8717   22.0050 C   0  0  0  0  0  0  0  0  0  0  0  0
  -26.4278  -30.9656   22.8477 C   0  0  0  0  0  0  0  0  0  0  0  0
  -24.2120  -33.5014   23.4015 C   0  0  0  0  0  0  0  0  0  0  0  0
  -27.0050  -22.3595   22.6412 C   0  0  0  0  0  0  0  0  0  0  0  0
  -31.7788  -26.3203   21.8561 C   0  0  0  0  0  0  0  0  0  0  0  0
  -25.4630  -28.6842   20.1132 C   0  0  0  0  0  0  0  0  0  0  0  0
  -24.3865  -29.4862   22.7481 C   0  0  0  0  0  0  0  0  0  0  0  0
  -30.9746  -27.3127   22.6920 C   0  0  0  0  0  0  0  0  0  0  0  0
  -30.0149  -20.8579   23.8083 C   0  0  0  0  0  0  0  0  0  0  0  0
  -29.6914  -26.6645   23.2019 C   0  0  0  0  0  0  0  0  0  0  0  0
  -30.1054  -19.5542   23.0133 C   0  0  0  0  0  0  0  0  0  0  0  0
  -28.5711  -21.1992   24.1701 C   0  0  0  0  0  0  0  0  0  0  0  0
  -27.7285  -19.9292   22.2334 C   0  0  0  0  0  0  0  0  0  0  0  0
  -28.7907  -26.2339   22.0379 C   0  0  1  0  0  0  0  0  0  0  0  0
  -26.3784  -29.0672   21.2719 C   0  0  1  0  0  0  0  0  0  0  0  0
  -29.1598  -19.5721   21.7973 C   0  0  2  0  0  0  0  0  0  0  0  0
  -24.1068  -35.9042   24.1176 C   0  0  0  0  0  0  0  0  0  0  0  0
  -18.6169  -25.9612   20.3767 C   0  0  0  0  0  0  0  0  0  0  0  0
  -21.4286  -23.3571   25.5346 C   0  0  0  0  0  0  0  0  0  0  0  0
  -26.8975  -30.1211   25.7418 C   0  0  0  0  0  0  0  0  0  0  0  0
  -25.8646  -32.2833   26.4672 C   0  0  0  0  0  0  0  0  0  0  0  0
  -27.9545  -32.2964   25.1052 C   0  0  0  0  0  0  0  0  0  0  0  0
  -23.0139  -34.3368   20.8275 C   0  0  0  0  0  0  0  0  0  0  0  0
  -25.4412  -23.3903   21.0129 C   0  0  0  0  0  0  0  0  0  0  0  0
  -19.5544  -24.7562   22.3906 C   0  0  0  0  0  0  0  0  0  0  0  0
  -20.7728  -24.4662   23.3041 C   0  0  1  0  0  0  0  0  0  0  0  0
  -25.7651  -31.6650   24.0098 C   0  0  1  0  0  0  0  0  0  0  0  0
  -24.1998  -34.9473   22.9393 C   0  0  2  0  0  0  0  0  0  0  0  0
  -19.8548  -25.7187   21.2310 C   0  0  2  0  0  0  0  0  0  1  0  0
  -20.3304  -23.6124   24.5141 C   0  0  1  0  0  0  0  0  0  0  0  0
  -26.6060  -31.5734   25.3144 C   0  0  0  0  0  0  0  0  0  0  0  0
  -23.2066  -22.3583   21.2571 N   0  0  0  0  0  0  0  0  0  0  0  0
  -28.3350  -17.2944   21.3347 N   0  0  0  0  0  0  0  0  0  0  0  0
  -29.2123  -18.2651   21.0280 N   0  0  0  0  0  0  0  0  0  0  0  0
  -25.7106  -29.9113   22.2647 N   0  0  0  0  0  0  0  0  0  0  0  0
  -27.7271  -21.2012   22.9727 N   0  0  0  0  0  0  0  0  0  0  0  0
  -31.0172  -18.7938   19.5881 N   0  0  0  0  0  0  0  0  0  0  0  0
  -29.8956  -14.5965   18.3549 N   0  0  0  0  0  0  0  0  0  0  0  0
  -28.0988  -27.3781   21.4842 N   0  0  0  0  0  0  0  0  0  0  0  0
  -25.4968  -33.0288   23.5663 N   0  0  0  0  0  0  0  0  0  0  0  0
  -26.2350  -22.2787   21.4874 N   0  0  0  0  0  0  0  0  0  0  0  0
  -23.0369  -35.1940   22.0406 N   0  3  0  0  0  0  0  0  0  0  0  0
  -31.3383  -16.3329   17.9518 O   0  0  0  0  0  0  0  0  0  0  0  0
  -26.3087  -27.4308   22.9726 O   0  0  0  0  0  0  0  0  0  0  0  0
  -27.5378  -31.3455   22.4665 O   0  0  0  0  0  0  0  0  0  0  0  0
  -23.1845  -32.8569   23.6003 O   0  0  0  0  0  0  0  0  0  0  0  0
  -27.0479  -23.3912   23.3200 O   0  0  0  0  0  0  0  0  0  0  0  0
  -25.8212  -11.4964   20.5512 O   0  0  0  0  0  0  0  0  0  0  0  0
  -20.3130  -26.9718   21.7372 O   0  0  0  0  0  0  0  0  0  1  0  0
  -20.3209  -11.7646   20.8313 F   0  0  0  0  0  0  0  0  0  0  0  0
  -24.2449  -10.4133   18.5550 F   0  0  0  0  0  0  0  0  0  0  0  0
  -19.8597  -22.4096   24.0835 F   0  0  0  0  0  0  0  0  0  0  0  0
  -23.4413  -24.6474   22.4350 S   0  0  0  0  0  0  0  0  0  0  0  0
  1  2  1  0  0  0  0
  1  5  2  0  0  0  0
  2  6  2  0  0  0  0
  3  8  2  0  0  0  0
  3 16  1  0  0  0  0
  4  9  1  0  0  0  0
  4 16  2  0  0  0  0
  5 18  1  0  0  0  0
  6 20  1  0  0  0  0
  7 10  2  0  0  0  0
  7 19  1  0  0  0  0
  8 22  1  0  0  0  0
  9 22  2  0  0  0  0
 10 23  1  0  0  0  0
 11 12  2  0  0  0  0
 11 24  1  0  0  0  0
 12 25  1  0  0  0  0
 13 21  1  0  0  0  0
 13 23  2  0  0  0  0
 14 25  2  0  0  0  0
 14 26  1  0  0  0  0
 15 28  2  0  0  0  0
 15 63  1  0  0  0  0
 16 27  1  0  0  0  0
 17 27  1  0  0  0  0
 17 29  2  0  0  0  0
 17 31  1  0  0  0  0
 18 20  2  0  0  0  0
 18 36  1  0  0  0  0
 19 21  2  0  0  0  0
 19 37  1  0  0  0  0
 20 45  1  0  0  0  0
 21 38  1  0  0  0  0
 22 79  1  0  0  0  0
 23 80  1  0  0  0  0
 24 26  2  0  0  0  0
 24 79  1  0  0  0  0
 25 81  1  0  0  0  0
 26 82  1  0  0  0  0
 27 64  2  0  0  0  0
 28 57  1  0  0  0  0
 28 84  1  0  0  0  0
 29 65  1  0  0  0  0
 29 68  1  0  0  0  0
 30 55  1  0  0  0  0
 30 63  2  0  0  0  0
 30 84  1  0  0  0  0
 31 69  1  0  0  0  0
 31 74  2  0  0  0  0
 32 46  1  0  0  0  0
 32 70  1  0  0  0  0
 32 75  2  0  0  0  0
 33 58  1  0  0  0  0
 33 66  1  0  0  0  0
 33 76  2  0  0  0  0
 34 59  1  0  0  0  0
 34 71  1  0  0  0  0
 34 77  2  0  0  0  0
 35 67  1  0  0  0  0
 35 72  1  0  0  0  0
 35 78  2  0  0  0  0
 36 39  1  0  0  0  0
 37 46  1  0  0  0  0
 38 66  1  0  0  0  0
 39 41  1  0  0  0  0
 40 42  1  0  0  0  0
 40 43  1  0  0  0  0
 41 45  1  0  0  0  0
 42 47  1  0  0  0  0
 43 67  1  0  0  0  0
 44 47  1  0  0  0  0
 44 67  1  0  0  0  0
 45 70  1  0  0  0  0
 46 66  1  0  0  0  0
 47 65  1  0  0  0  0
 48 59  1  0  0  0  0
 49 60  1  0  0  0  0
 50 61  1  0  0  0  0
 51 62  1  0  0  0  0
 52 62  1  0  0  0  0
 53 62  1  0  0  0  0
 54 73  1  0  0  0  0
 55 72  1  0  0  0  0
 56 57  1  0  0  0  0
 56 60  1  0  0  0  0
 57 61  1  0  0  0  0
 58 62  1  0  0  0  0
 58 71  1  0  0  0  0
 59 73  1  0  0  0  0
 60 80  1  0  0  0  0
 61 83  1  0  0  0  0
 64 65  1  0  0  0  0
M  CHG  1  73   1
M  ISO  4  35 100  60 101  72 100  80 101
M  END
> <Batch ID>
0194

> <Smiles>
CNC(C)C(=O)NC(C(=O)N1Cc2cc([101O:1][101CH:1](C)CC(c3cnc(C[100NH:0][100C:0](=O)N4CCCC(n5nc(-c6ccc(Oc7ccc(F)cc7F)cc6)c(C(N)=O)c5N)C4)s3)C(C)F)ccc2CC1C(=O)NC1CCCc2ccccc21)C(C)(C)C

> <Shape>
0.267

> <Color>
0.059

> <Negative vol penalty>
0.000

$$$$

  -OEChem-04052305333D

 83 91  0     1  0  0  0  0  0999 V2000
  -24.9789  -16.4862   16.7053 C   0  0  0  0  0  0  0  0  0  0  0  0
  -25.3699  -17.3279   17.7405 C   0  0  0  0  0  0  0  0  0  0  0  0
  -26.3792  -12.9160   21.6123 C   0  0  0  0  0  0  0  0  0  0  0  0
  -25.8561  -13.8534   19.4479 C   0  0  0  0  0  0  0  0  0  0  0  0
  -24.5003  -17.0283   15.5144 C   0  0  0  0  0  0  0  0  0  0  0  0
  -25.2712  -18.7115   17.5896 C   0  0  0  0  0  0  0  0  0  0  0  0
  -26.9874  -23.2328   21.2964 C   0  0  0  0  0  0  0  0  0  0  0  0
  -25.1316  -12.2931   21.6441 C   0  0  0  0  0  0  0  0  0  0  0  0
  -24.6085  -13.2304   19.4796 C   0  0  0  0  0  0  0  0  0  0  0  0
  -28.1142  -24.0294   21.4946 C   0  0  0  0  0  0  0  0  0  0  0  0
  -23.6838   -9.5467   20.3044 C   0  0  0  0  0  0  0  0  0  0  0  0
  -23.6351   -8.2137   20.7119 C   0  0  0  0  0  0  0  0  0  0  0  0
  -27.1217  -25.7602   20.1387 C   0  0  0  0  0  0  0  0  0  0  0  0
  -22.1786   -8.8258   22.5398 C   0  0  0  0  0  0  0  0  0  0  0  0
  -28.7308  -21.2630   17.2100 C   0  0  0  0  0  0  0  0  0  0  0  0
  -26.7415  -13.6962   20.5143 C   0  0  0  0  0  0  0  0  0  0  0  0
  -29.2295  -13.8159   19.9639 C   0  0  0  0  0  0  0  0  0  0  0  0
  -24.4079  -18.4196   15.3450 C   0  0  0  0  0  0  0  0  0  0  0  0
  -25.9221  -23.6903   20.5075 C   0  0  0  0  0  0  0  0  0  0  0  0
  -24.7683  -19.2774   16.4041 C   0  0  0  0  0  0  0  0  0  0  0  0
  -25.9813  -24.9685   19.9341 C   0  0  0  0  0  0  0  0  0  0  0  0
  -24.2462  -12.4502   20.5777 C   0  0  0  0  0  0  0  0  0  0  0  0
  -28.1828  -25.2922   20.9133 C   0  0  0  0  0  0  0  0  0  0  0  0
  -22.9801  -10.5194   21.0146 C   0  0  0  0  0  0  0  0  0  0  0  0
  -22.8825   -7.8532   21.8296 C   0  0  0  0  0  0  0  0  0  0  0  0
  -22.2274  -10.1589   22.1323 C   0  0  0  0  0  0  0  0  0  0  0  0
  -28.0299  -14.3404   20.4812 C   0  0  0  0  0  0  0  0  0  0  0  0
  -29.2569  -21.6027   18.4397 C   0  0  0  0  0  0  0  0  0  0  0  0
  -28.7656  -22.2548   16.2512 C   0  0  0  0  0  0  0  0  0  0  0  0
  -30.1554  -14.8094   20.1694 C   0  0  0  0  0  0  0  0  0  0  0  0
  -29.7556  -23.6951   17.7047 C   0  0  0  0  0  0  0  0  0  0  0  0
  -29.4841  -12.5445   19.3521 C   0  0  0  0  0  0  0  0  0  0  0  0
  -24.5478  -22.7173   17.8115 C   0  0  0  0  0  0  0  0  0  0  0  0
  -22.4444  -25.0934   18.4839 C   0  0  0  0  0  0  0  0  0  0  0  0
  -21.8224  -28.0476   20.0754 C   0  0  0  0  0  0  0  0  0  0  0  0
  -29.7172  -20.7392   20.7611 C   0  0  0  0  0  0  0  0  0  0  0  0
  -23.8755  -18.9523   14.0381 C   0  0  0  0  0  0  0  0  0  0  0  0
  -24.7021  -22.8296   20.3254 C   0  0  0  0  0  0  0  0  0  0  0  0
  -24.8557  -25.5143   19.0954 C   0  0  0  0  0  0  0  0  0  0  0  0
  -24.2236  -20.4194   13.8081 C   0  0  0  0  0  0  0  0  0  0  0  0
  -31.1370  -18.4647   23.1037 C   0  0  0  0  0  0  0  0  0  0  0  0
  -23.8702  -21.2369   15.0415 C   0  0  0  0  0  0  0  0  0  0  0  0
  -30.6154  -17.1005   22.6463 C   0  0  0  0  0  0  0  0  0  0  0  0
  -30.0916  -19.5630   22.9178 C   0  0  0  0  0  0  0  0  0  0  0  0
  -29.0022  -18.2932   21.1094 C   0  0  0  0  0  0  0  0  0  0  0  0
  -24.6986  -20.7861   16.2513 C   0  0  1  0  0  0  0  0  0  0  0  0
  -23.8970  -23.1899   19.0807 C   0  0  1  0  0  0  0  0  0  0  0  0
  -30.0427  -17.1665   21.2169 C   0  0  2  0  0  0  0  0  0  0  0  0
  -20.0235  -29.7655   20.4076 C   0  0  0  0  0  0  0  0  0  0  0  0
  -29.5333  -28.4015   20.5975 C   0  0  0  0  0  0  0  0  0  0  0  0
  -22.9668  -26.1790   15.6806 C   0  0  0  0  0  0  0  0  0  0  0  0
  -21.9254  -28.3395   16.3987 C   0  0  0  0  0  0  0  0  0  0  0  0
  -20.5710  -26.2447   16.3951 C   0  0  0  0  0  0  0  0  0  0  0  0
  -21.7680  -27.5941   22.9995 C   0  0  0  0  0  0  0  0  0  0  0  0
  -31.0309  -26.6699   19.5301 C   0  0  0  0  0  0  0  0  0  0  0  0
  -31.1973  -25.2307   19.0422 C   0  0  0  0  0  0  0  0  0  0  0  0
  -22.3540  -26.5649   18.1588 C   0  0  1  0  0  0  0  0  0  0  0  0
  -20.6648  -28.4971   20.9486 C   0  0  2  0  0  0  0  0  0  0  0  0
  -29.6241  -26.9798   20.0585 C   0  0  1  0  0  0  0  0  0  1  0  0
  -21.9765  -26.8213   16.6725 C   0  0  0  0  0  0  0  0  0  0  0  0
  -28.1773  -15.5714   20.9781 N   0  0  0  0  0  0  0  0  0  0  0  0
  -29.7794  -22.8139   18.7227 N   0  0  0  0  0  0  0  0  0  0  0  0
  -29.2724  -23.4868   16.4650 N   0  0  0  0  0  0  0  0  0  0  0  0
  -29.4804  -15.8287   20.7741 N   0  0  0  0  0  0  0  0  0  0  0  0
  -23.6870  -24.6324   18.9414 N   0  0  0  0  0  0  0  0  0  0  0  0
  -29.5975  -19.5683   21.5391 N   0  0  0  0  0  0  0  0  0  0  0  0
  -31.4729  -14.9017   19.8902 N   0  0  0  0  0  0  0  0  0  0  0  0
  -28.4201  -11.6419   19.2192 N   0  0  0  0  0  0  0  0  0  0  0  0
  -29.2425  -20.6152   19.4558 N   0  0  0  0  0  0  0  0  0  0  0  0
  -30.2848  -24.9505   17.9600 N   0  0  0  0  0  0  0  0  0  0  0  0
  -24.1906  -21.4353   17.4397 N   0  0  0  0  0  0  0  0  0  0  0  0
  -21.4188  -27.1386   19.1203 N   0  0  0  0  0  0  0  0  0  0  0  0
  -21.1364  -28.7641   22.3368 N   0  3  0  0  0  0  0  0  0  0  0  0
  -30.6250  -12.2119   18.9506 O   0  0  0  0  0  0  0  0  0  0  0  0
  -25.3160  -23.4613   17.2131 O   0  0  0  0  0  0  0  0  0  0  0  0
  -21.4473  -24.3808   18.3442 O   0  0  0  0  0  0  0  0  0  0  0  0
  -22.9692  -28.4642   20.2232 O   0  0  0  0  0  0  0  0  0  0  0  0
  -30.2297  -21.7674   21.2106 O   0  0  0  0  0  0  0  0  0  0  0  0
  -23.0288  -11.8423   20.6082 O   0  0  0  0  0  0  0  0  0  0  0  0
  -29.2818  -26.0716   21.1046 O   0  0  0  0  0  0  0  0  0  1  0  0
  -22.8345   -6.5727   22.2200 F   0  0  0  0  0  0  0  0  0  0  0  0
  -21.5482  -11.0887   22.8179 F   0  0  0  0  0  0  0  0  0  0  0  0
  -28.2697  -21.9904   15.0328 F   0  0  0  0  0  0  0  0  0  0  0  0
  1  2  1  0  0  0  0
  1  5  2  0  0  0  0
  2  6  2  0  0  0  0
  3  8  2  0  0  0  0
  3 16  1  0  0  0  0
  4  9  1  0  0  0  0
  4 16  2  0  0  0  0
  5 18  1  0  0  0  0
  6 20  1  0  0  0  0
  7 10  2  0  0  0  0
  7 19  1  0  0  0  0
  8 22  1  0  0  0  0
  9 22  2  0  0  0  0
 10 23  1  0  0  0  0
 11 12  2  0  0  0  0
 11 24  1  0  0  0  0
 12 25  1  0  0  0  0
 13 21  1  0  0  0  0
 13 23  2  0  0  0  0
 14 25  2  0  0  0  0
 14 26  1  0  0  0  0
 15 28  2  0  0  0  0
 15 29  1  0  0  0  0
 16 27  1  0  0  0  0
 17 27  1  0  0  0  0
 17 30  2  0  0  0  0
 17 32  1  0  0  0  0
 18 20  2  0  0  0  0
 18 37  1  0  0  0  0
 19 21  2  0  0  0  0
 19 38  1  0  0  0  0
 20 46  1  0  0  0  0
 21 39  1  0  0  0  0
 22 79  1  0  0  0  0
 23 80  1  0  0  0  0
 24 26  2  0  0  0  0
 24 79  1  0  0  0  0
 25 81  1  0  0  0  0
 26 82  1  0  0  0  0
 27 61  2  0  0  0  0
 28 62  1  0  0  0  0
 28 69  1  0  0  0  0
 29 63  2  0  0  0  0
 29 83  1  0  0  0  0
 30 64  1  0  0  0  0
 30 67  1  0  0  0  0
 31 62  2  0  0  0  0
 31 63  1  0  0  0  0
 31 70  1  0  0  0  0
 32 68  1  0  0  0  0
 32 74  2  0  0  0  0
 33 47  1  0  0  0  0
 33 71  1  0  0  0  0
 33 75  2  0  0  0  0
 34 57  1  0  0  0  0
 34 65  1  0  0  0  0
 34 76  2  0  0  0  0
 35 58  1  0  0  0  0
 35 72  1  0  0  0  0
 35 77  2  0  0  0  0
 36 66  1  0  0  0  0
 36 69  1  0  0  0  0
 36 78  2  0  0  0  0
 37 40  1  0  0  0  0
 38 47  1  0  0  0  0
 39 65  1  0  0  0  0
 40 42  1  0  0  0  0
 41 43  1  0  0  0  0
 41 44  1  0  0  0  0
 42 46  1  0  0  0  0
 43 48  1  0  0  0  0
 44 66  1  0  0  0  0
 45 48  1  0  0  0  0
 45 66  1  0  0  0  0
 46 71  1  0  0  0  0
 47 65  1  0  0  0  0
 48 64  1  0  0  0  0
 49 58  1  0  0  0  0
 50 59  1  0  0  0  0
 51 60  1  0  0  0  0
 52 60  1  0  0  0  0
 53 60  1  0  0  0  0
 54 73  1  0  0  0  0
 55 56  1  0  0  0  0
 55 59  1  0  0  0  0
 56 70  1  0  0  0  0
 57 60  1  0  0  0  0
 57 72  1  0  0  0  0
 58 73  1  0  0  0  0
 59 80  1  0  0  0  0
 61 64  1  0  0  0  0
M  CHG  1  73   1
M  ISO  4  36 100  59 101  69 100  80 101
M  END
> <Batch ID>
0194

> <Smiles>
CNC(C)C(=O)NC(C(=O)N1Cc2cc([101O:1][101CH:1](C)CCNc3nc(F)cc([100NH:0][100C:0](=O)N4CCCC(n5nc(-c6ccc(Oc7ccc(F)cc7F)cc6)c(C(N)=O)c5N)C4)n3)ccc2CC1C(=O)NC1CCCc2ccccc21)C(C)(C)C

> <Shape>
0.237

> <Color>
0.071

> <Negative vol penalty>
0.000

$$$$

  -OEChem-04052305333D

 83 91  0     1  0  0  0  0  0999 V2000
  -18.0399  -31.2243   20.7600 C   0  0  0  0  0  0  0  0  0  0  0  0
  -19.4167  -31.1486   20.5747 C   0  0  0  0  0  0  0  0  0  0  0  0
  -26.4128  -12.6852   21.5824 C   0  0  0  0  0  0  0  0  0  0  0  0
  -25.9180  -13.5627   19.3865 C   0  0  0  0  0  0  0  0  0  0  0  0
  -17.3854  -30.2545   21.5183 C   0  0  0  0  0  0  0  0  0  0  0  0
  -20.1399  -30.1037   21.1487 C   0  0  0  0  0  0  0  0  0  0  0  0
  -25.0595  -27.3087   18.8055 C   0  0  0  0  0  0  0  0  0  0  0  0
  -25.1823  -12.0285   21.5973 C   0  0  0  0  0  0  0  0  0  0  0  0
  -24.6875  -12.9060   19.4014 C   0  0  0  0  0  0  0  0  0  0  0  0
  -26.4256  -27.4643   19.0366 C   0  0  0  0  0  0  0  0  0  0  0  0
  -23.8438   -9.2158   20.2821 C   0  0  0  0  0  0  0  0  0  0  0  0
  -23.8215   -7.8906   20.7167 C   0  0  0  0  0  0  0  0  0  0  0  0
  -26.3617  -25.6363   20.6094 C   0  0  0  0  0  0  0  0  0  0  0  0
  -22.3040   -8.4996   22.4954 C   0  0  0  0  0  0  0  0  0  0  0  0
  -26.7807  -13.4523   20.4770 C   0  0  0  0  0  0  0  0  0  0  0  0
  -29.2773  -13.6299   19.9844 C   0  0  0  0  0  0  0  0  0  0  0  0
  -18.0996  -29.1918   22.0939 C   0  0  0  0  0  0  0  0  0  0  0  0
  -24.3309  -26.3211   19.4840 C   0  0  0  0  0  0  0  0  0  0  0  0
  -19.4945  -29.1195   21.9166 C   0  0  0  0  0  0  0  0  0  0  0  0
  -24.9870  -25.4686   20.3833 C   0  0  0  0  0  0  0  0  0  0  0  0
  -24.3197  -12.1389   20.5068 C   0  0  0  0  0  0  0  0  0  0  0  0
  -27.0764  -26.6299   19.9408 C   0  0  0  0  0  0  0  0  0  0  0  0
  -23.0963  -10.1830   20.9541 C   0  0  0  0  0  0  0  0  0  0  0  0
  -23.0516   -7.5325   21.8234 C   0  0  0  0  0  0  0  0  0  0  0  0
  -22.3264   -9.8249   22.0608 C   0  0  0  0  0  0  0  0  0  0  0  0
  -28.0514  -14.1314   20.4613 C   0  0  0  0  0  0  0  0  0  0  0  0
  -30.1704  -14.6528   20.1910 C   0  0  0  0  0  0  0  0  0  0  0  0
  -28.6980  -21.9586   16.1699 C   0  0  0  0  0  0  0  0  0  0  0  0
  -29.1294  -21.3812   18.2952 C   0  0  0  0  0  0  0  0  0  0  0  0
  -29.6023  -23.4544   17.5777 C   0  0  0  0  0  0  0  0  0  0  0  0
  -29.5817  -12.3536   19.4063 C   0  0  0  0  0  0  0  0  0  0  0  0
  -21.8923  -26.3359   21.5227 C   0  0  0  0  0  0  0  0  0  0  0  0
  -22.0695  -23.1182   21.1527 C   0  0  0  0  0  0  0  0  0  0  0  0
  -23.9582  -20.3954   20.3366 C   0  0  0  0  0  0  0  0  0  0  0  0
  -29.5556  -20.5791   20.6450 C   0  0  0  0  0  0  0  0  0  0  0  0
  -17.3552  -28.1936   22.9448 C   0  0  0  0  0  0  0  0  0  0  0  0
  -22.8632  -26.1487   19.2037 C   0  0  0  0  0  0  0  0  0  0  0  0
  -24.2542  -24.3797   21.1221 C   0  0  0  0  0  0  0  0  0  0  0  0
  -18.1407  -26.9111   23.2070 C   0  0  0  0  0  0  0  0  0  0  0  0
  -30.9788  -18.3940   23.0693 C   0  0  0  0  0  0  0  0  0  0  0  0
  -19.5730  -27.2370   23.6183 C   0  0  0  0  0  0  0  0  0  0  0  0
  -30.5062  -17.0067   22.6287 C   0  0  0  0  0  0  0  0  0  0  0  0
  -29.9086  -19.4587   22.8348 C   0  0  0  0  0  0  0  0  0  0  0  0
  -28.8994  -18.1219   21.0282 C   0  0  0  0  0  0  0  0  0  0  0  0
  -20.3102  -27.9875   22.5026 C   0  0  1  0  0  0  0  0  0  0  0  0
  -22.1176  -25.4455   20.3337 C   0  0  1  0  0  0  0  0  0  0  0  0
  -29.9674  -17.0271   21.1848 C   0  0  2  0  0  0  0  0  0  0  0  0
  -23.8383  -17.8947   20.1646 C   0  0  0  0  0  0  0  0  0  0  0  0
  -32.0185  -24.5979   19.2816 C   0  0  0  0  0  0  0  0  0  0  0  0
  -22.2372  -22.9036   24.1918 C   0  0  0  0  0  0  0  0  0  0  0  0
  -23.0574  -20.5548   23.9110 C   0  0  0  0  0  0  0  0  0  0  0  0
  -20.7828  -21.1847   23.1033 C   0  0  0  0  0  0  0  0  0  0  0  0
  -24.5570  -20.4499   17.4387 C   0  0  0  0  0  0  0  0  0  0  0  0
  -30.6017  -26.6789   19.1953 C   0  0  0  0  0  0  0  0  0  0  0  0
  -29.2013  -27.2744   19.0892 C   0  0  0  0  0  0  0  0  0  1  0  0
  -22.8162  -22.0022   21.8427 C   0  0  1  0  0  0  0  0  0  0  0  0
  -23.6809  -19.2139   19.4246 C   0  0  2  0  0  0  0  0  0  0  0  0
  -30.6068  -25.1495   19.1085 C   0  0  1  0  0  0  0  0  0  0  0  0
  -22.2371  -21.6830   23.2499 C   0  0  0  0  0  0  0  0  0  0  0  0
  -28.1527  -15.3760   20.9352 N   0  0  0  0  0  0  0  0  0  0  0  0
  -28.6525  -20.9927   17.1018 N   0  0  0  0  0  0  0  0  0  0  0  0
  -29.1580  -23.2094   16.3345 N   0  0  0  0  0  0  0  0  0  0  0  0
  -29.6193  -22.5919   18.6067 N   0  0  0  0  0  0  0  0  0  0  0  0
  -29.4530  -15.6652   20.7573 N   0  0  0  0  0  0  0  0  0  0  0  0
  -22.8190  -24.2550   20.8186 N   0  0  0  0  0  0  0  0  0  0  0  0
  -29.4488  -19.4216   21.4448 N   0  0  0  0  0  0  0  0  0  0  0  0
  -31.4914  -14.7760   19.9418 N   0  0  0  0  0  0  0  0  0  0  0  0
  -28.2108  -21.6249   14.8876 N   0  0  0  0  0  0  0  0  0  0  0  0
  -28.5464  -11.4193   19.2671 N   0  0  0  0  0  0  0  0  0  0  0  0
  -29.1169  -20.4149   19.3316 N   0  0  0  0  0  0  0  0  0  0  0  0
  -30.0928  -24.7244   17.8232 N   0  0  0  0  0  0  0  0  0  0  0  0
  -20.7226  -27.0693   21.4628 N   0  0  0  0  0  0  0  0  0  0  0  0
  -22.8035  -20.8716   20.9208 N   0  0  0  0  0  0  0  0  0  0  0  0
  -24.6219  -19.2196   18.2689 N   0  3  0  0  0  0  0  0  0  0  0  0
  -30.7409  -12.0448   19.0397 O   0  0  0  0  0  0  0  0  0  0  0  0
  -22.7176  -26.3551   22.4283 O   0  0  0  0  0  0  0  0  0  0  0  0
  -20.8671  -22.9832   20.9125 O   0  0  0  0  0  0  0  0  0  0  0  0
  -25.0867  -20.8481   20.5158 O   0  0  0  0  0  0  0  0  0  0  0  0
  -30.0285  -21.6303   21.0847 O   0  0  0  0  0  0  0  0  0  0  0  0
  -23.1189  -11.4981   20.5209 O   0  0  0  0  0  0  0  0  0  0  0  0
  -28.4095  -26.7801   20.1686 O   0  0  0  0  0  0  0  0  0  1  0  0
  -23.0290   -6.2596   22.2397 F   0  0  0  0  0  0  0  0  0  0  0  0
  -21.6053  -10.7493   22.7098 F   0  0  0  0  0  0  0  0  0  0  0  0
  1  2  1  0  0  0  0
  1  5  2  0  0  0  0
  2  6  2  0  0  0  0
  3  8  2  0  0  0  0
  3 15  1  0  0  0  0
  4  9  1  0  0  0  0
  4 15  2  0  0  0  0
  5 17  1  0  0  0  0
  6 19  1  0  0  0  0
  7 10  2  0  0  0  0
  7 18  1  0  0  0  0
  8 21  1  0  0  0  0
  9 21  2  0  0  0  0
 10 22  1  0  0  0  0
 11 12  2  0  0  0  0
 11 23  1  0  0  0  0
 12 24  1  0  0  0  0
 13 20  1  0  0  0  0
 13 22  2  0  0  0  0
 14 24  2  0  0  0  0
 14 25  1  0  0  0  0
 15 26  1  0  0  0  0
 16 26  1  0  0  0  0
 16 27  2  0  0  0  0
 16 31  1  0  0  0  0
 17 19  2  0  0  0  0
 17 36  1  0  0  0  0
 18 20  2  0  0  0  0
 18 37  1  0  0  0  0
 19 45  1  0  0  0  0
 20 38  1  0  0  0  0
 21 80  1  0  0  0  0
 22 81  1  0  0  0  0
 23 25  2  0  0  0  0
 23 80  1  0  0  0  0
 24 82  1  0  0  0  0
 25 83  1  0  0  0  0
 26 60  2  0  0  0  0
 27 64  1  0  0  0  0
 27 67  1  0  0  0  0
 28 61  1  0  0  0  0
 28 62  2  0  0  0  0
 28 68  1  0  0  0  0
 29 61  2  0  0  0  0
 29 63  1  0  0  0  0
 29 70  1  0  0  0  0
 30 62  1  0  0  0  0
 30 63  2  0  0  0  0
 30 71  1  0  0  0  0
 31 69  1  0  0  0  0
 31 75  2  0  0  0  0
 32 46  1  0  0  0  0
 32 72  1  0  0  0  0
 32 76  2  0  0  0  0
 33 56  1  0  0  0  0
 33 65  1  0  0  0  0
 33 77  2  0  0  0  0
 34 57  1  0  0  0  0
 34 73  1  0  0  0  0
 34 78  2  0  0  0  0
 35 66  1  0  0  0  0
 35 70  1  0  0  0  0
 35 79  2  0  0  0  0
 36 39  1  0  0  0  0
 37 46  1  0  0  0  0
 38 65  1  0  0  0  0
 39 41  1  0  0  0  0
 40 42  1  0  0  0  0
 40 43  1  0  0  0  0
 41 45  1  0  0  0  0
 42 47  1  0  0  0  0
 43 66  1  0  0  0  0
 44 47  1  0  0  0  0
 44 66  1  0  0  0  0
 45 72  1  0  0  0  0
 46 65  1  0  0  0  0
 47 64  1  0  0  0  0
 48 57  1  0  0  0  0
 49 58  1  0  0  0  0
 50 59  1  0  0  0  0
 51 59  1  0  0  0  0
 52 59  1  0  0  0  0
 53 74  1  0  0  0  0
 54 55  1  0  0  0  0
 54 58  1  0  0  0  0
 55 81  1  0  0  0  0
 56 59  1  0  0  0  0
 56 73  1  0  0  0  0
 57 74  1  0  0  0  0
 58 71  1  0  0  0  0
 60 64  1  0  0  0  0
M  CHG  1  74   1
M  ISO  4  35 100  55 101  70 100  81 101
M  END
> <Batch ID>
0194

> <Smiles>
CNC(C)C(=O)NC(C(=O)N1Cc2cc([101O:1][101CH2:1]CC(C)Nc3nc(N)nc([100NH:0][100C:0](=O)N4CCCC(n5nc(-c6ccc(Oc7ccc(F)cc7F)cc6)c(C(N)=O)c5N)C4)n3)ccc2CC1C(=O)NC1CCCc2ccccc21)C(C)(C)C

> <Shape>
0.271

> <Color>
0.088

> <Negative vol penalty>
0.000

$$$$

  -OEChem-04052305333D

 84 92  0     1  0  0  0  0  0999 V2000
  -19.7910  -31.5394   22.8223 C   0  0  0  0  0  0  0  0  0  0  0  0
  -21.1029  -31.0855   22.9124 C   0  0  0  0  0  0  0  0  0  0  0  0
  -28.0031  -15.4195   23.4572 C   0  0  0  0  0  0  0  0  0  0  0  0
  -26.8118  -15.3402   21.3568 C   0  0  0  0  0  0  0  0  0  0  0  0
  -18.7480  -30.6272   22.6673 C   0  0  0  0  0  0  0  0  0  0  0  0
  -21.3726  -29.7189   22.8486 C   0  0  0  0  0  0  0  0  0  0  0  0
  -25.2930  -28.6515   19.8260 C   0  0  0  0  0  0  0  0  0  0  0  0
  -27.0394  -14.5932   24.0351 C   0  0  0  0  0  0  0  0  0  0  0  0
  -25.8480  -14.5138   21.9347 C   0  0  0  0  0  0  0  0  0  0  0  0
  -26.5706  -28.8723   20.3383 C   0  0  0  0  0  0  0  0  0  0  0  0
  -23.2663  -12.0901   22.7585 C   0  0  0  0  0  0  0  0  0  0  0  0
  -22.8479  -10.9747   22.0329 C   0  0  0  0  0  0  0  0  0  0  0  0
  -26.7776  -26.5179   20.8210 C   0  0  0  0  0  0  0  0  0  0  0  0
  -25.1120  -10.1316   22.0232 C   0  0  0  0  0  0  0  0  0  0  0  0
  -31.1579  -26.7170   16.0911 C   0  0  0  0  0  0  0  0  0  0  0  0
  -27.8893  -15.7930   22.1181 C   0  0  0  0  0  0  0  0  0  0  0  0
  -30.0648  -16.2479   20.8659 C   0  0  0  0  0  0  0  0  0  0  0  0
  -19.0060  -29.2494   22.5919 C   0  0  0  0  0  0  0  0  0  0  0  0
  -24.7428  -27.3616   19.8172 C   0  0  0  0  0  0  0  0  0  0  0  0
  -20.3321  -28.7873   22.6938 C   0  0  0  0  0  0  0  0  0  0  0  0
  -25.4937  -26.2829   20.3056 C   0  0  0  0  0  0  0  0  0  0  0  0
  -25.9618  -14.1403   23.2739 C   0  0  0  0  0  0  0  0  0  0  0  0
  -27.3120  -27.8060   20.8386 C   0  0  0  0  0  0  0  0  0  0  0  0
  -24.6076  -12.2263   23.1164 C   0  0  0  0  0  0  0  0  0  0  0  0
  -23.7707   -9.9955   21.6653 C   0  0  0  0  0  0  0  0  0  0  0  0
  -25.5304  -11.2470   22.7487 C   0  0  0  0  0  0  0  0  0  0  0  0
  -28.8842  -16.6471   21.5207 C   0  0  0  0  0  0  0  0  0  0  0  0
  -31.1326  -25.9292   17.2239 C   0  0  0  0  0  0  0  0  0  0  0  0
  -31.1040  -28.0785   16.3095 C   0  0  0  0  0  0  0  0  0  0  0  0
  -30.6598  -17.4251   20.4830 C   0  0  0  0  0  0  0  0  0  0  0  0
  -31.0135  -27.7651   18.5591 C   0  0  0  0  0  0  0  0  0  0  0  0
  -30.5777  -14.9308   20.6253 C   0  0  0  0  0  0  0  0  0  0  0  0
  -22.2043  -25.9966   21.1577 C   0  0  0  0  0  0  0  0  0  0  0  0
  -23.0998  -23.4581   19.3476 C   0  0  0  0  0  0  0  0  0  0  0  0
  -25.5896  -21.8189   17.6861 C   0  0  0  0  0  0  0  0  0  0  0  0
  -30.3513  -22.3866   18.1948 C   0  0  0  0  0  0  0  0  0  0  0  0
  -17.8416  -28.2984   22.4715 C   0  0  0  0  0  0  0  0  0  0  0  0
  -23.3738  -27.1358   19.2366 C   0  0  0  0  0  0  0  0  0  0  0  0
  -24.9566  -24.8758   20.3003 C   0  0  0  0  0  0  0  0  0  0  0  0
  -18.2461  -26.8922   22.0365 C   0  0  0  0  0  0  0  0  0  0  0  0
  -29.5983  -22.2114   21.7303 C   0  0  0  0  0  0  0  0  0  0  0  0
  -19.4506  -26.4108   22.8392 C   0  0  0  0  0  0  0  0  0  0  0  0
  -29.4428  -20.7033   21.9338 C   0  0  0  0  0  0  0  0  0  0  0  0
  -29.0326  -22.6486   20.3823 C   0  0  0  0  0  0  0  0  0  0  0  0
  -29.4539  -20.4228   19.4117 C   0  0  0  0  0  0  0  0  0  0  0  0
  -20.6671  -27.3143   22.6039 C   0  0  1  0  0  0  0  0  0  0  0  0
  -22.7100  -25.8615   19.7492 C   0  0  1  0  0  0  0  0  0  0  0  0
  -30.0272  -19.9145   20.7470 C   0  0  2  0  0  0  0  0  0  0  0  0
  -32.7175  -28.9552   22.0886 C   0  0  0  0  0  0  0  0  0  0  0  0
  -26.0256  -19.7502   16.3341 C   0  0  0  0  0  0  0  0  0  0  0  0
  -23.0680  -21.7863   21.8999 C   0  0  0  0  0  0  0  0  0  0  0  0
  -24.3948  -20.0413   20.6904 C   0  0  0  0  0  0  0  0  0  0  0  0
  -22.1094  -20.6437   19.8924 C   0  0  0  0  0  0  0  0  0  0  0  0
  -26.3907  -23.3975   15.3144 C   0  0  0  0  0  0  0  0  0  0  0  0
  -31.1868  -24.4445   17.0885 C   0  0  0  0  0  0  0  0  0  0  0  0
  -31.3228  -28.3614   22.2408 C   0  0  0  0  0  0  0  0  0  0  0  0
  -29.4966  -26.9492   21.2251 C   0  0  0  0  0  0  0  0  0  1  0  0
  -24.0123  -22.2720   19.5465 C   0  0  1  0  0  0  0  0  0  0  0  0
  -25.6468  -21.2225   16.2913 C   0  0  2  0  0  0  0  0  0  0  0  0
  -30.9097  -27.5035   21.0383 C   0  0  1  0  0  0  0  0  0  0  0  0
  -23.4057  -21.2125   20.5093 C   0  0  0  0  0  0  0  0  0  0  0  0
  -28.7364  -17.9741   21.5538 N   0  0  0  0  0  0  0  0  0  0  0  0
  -31.0605  -26.4217   18.4779 N   0  0  0  0  0  0  0  0  0  0  0  0
  -31.0308  -28.6390   17.5346 N   0  0  0  0  0  0  0  0  0  0  0  0
  -29.8319  -18.4191   20.9151 N   0  0  0  0  0  0  0  0  0  0  0  0
  -23.6107  -24.7071   19.7279 N   0  0  0  0  0  0  0  0  0  0  0  0
  -29.6435  -21.8725   19.2939 N   0  0  0  0  0  0  0  0  0  0  0  0
  -31.1276  -28.9228   15.1725 N   0  0  0  0  0  0  0  0  0  0  0  0
  -31.8053  -17.6966   19.8222 N   0  0  0  0  0  0  0  0  0  0  0  0
  -29.8398  -13.8320   21.0862 N   0  0  0  0  0  0  0  0  0  0  0  0
  -30.9395  -28.3045   19.8293 N   0  0  0  0  0  0  0  0  0  0  0  0
  -21.2825  -27.0116   21.3295 N   0  0  0  0  0  0  0  0  0  0  0  0
  -24.3168  -21.7633   18.2136 N   0  0  0  0  0  0  0  0  0  0  0  0
  -30.4801  -23.7695   18.1543 N   0  0  0  0  0  0  0  0  0  0  0  0
  -26.6531  -21.9427   15.4609 N   0  3  0  0  0  0  0  0  0  0  0  0
  -31.6664  -14.7348   20.0339 O   0  0  0  0  0  0  0  0  0  0  0  0
  -22.6186  -25.2354   22.0240 O   0  0  0  0  0  0  0  0  0  0  0  0
  -21.9777  -23.2837   18.8657 O   0  0  0  0  0  0  0  0  0  0  0  0
  -26.5761  -22.2841   18.2526 O   0  0  0  0  0  0  0  0  0  0  0  0
  -30.8375  -21.6659   17.3166 O   0  0  0  0  0  0  0  0  0  0  0  0
  -25.0213  -13.3338   23.8374 O   0  0  0  0  0  0  0  0  0  0  0  0
  -28.5591  -28.0189   21.3399 O   0  0  0  0  0  0  0  0  0  1  0  0
  -23.3684   -8.9237   20.9698 F   0  0  0  0  0  0  0  0  0  0  0  0
  -26.8201  -11.3718   23.0907 F   0  0  0  0  0  0  0  0  0  0  0  0
  1  2  1  0  0  0  0
  1  5  2  0  0  0  0
  2  6  2  0  0  0  0
  3  8  2  0  0  0  0
  3 16  1  0  0  0  0
  4  9  1  0  0  0  0
  4 16  2  0  0  0  0
  5 18  1  0  0  0  0
  6 20  1  0  0  0  0
  7 10  2  0  0  0  0
  7 19  1  0  0  0  0
  8 22  1  0  0  0  0
  9 22  2  0  0  0  0
 10 23  1  0  0  0  0
 11 12  2  0  0  0  0
 11 24  1  0  0  0  0
 12 25  1  0  0  0  0
 13 21  1  0  0  0  0
 13 23  2  0  0  0  0
 14 25  2  0  0  0  0
 14 26  1  0  0  0  0
 15 28  2  0  0  0  0
 15 29  1  0  0  0  0
 16 27  1  0  0  0  0
 17 27  1  0  0  0  0
 17 30  2  0  0  0  0
 17 32  1  0  0  0  0
 18 20  2  0  0  0  0
 18 37  1  0  0  0  0
 19 21  2  0  0  0  0
 19 38  1  0  0  0  0
 20 46  1  0  0  0  0
 21 39  1  0  0  0  0
 22 81  1  0  0  0  0
 23 82  1  0  0  0  0
 24 26  2  0  0  0  0
 24 81  1  0  0  0  0
 25 83  1  0  0  0  0
 26 84  1  0  0  0  0
 27 62  2  0  0  0  0
 28 55  1  0  0  0  0
 28 63  1  0  0  0  0
 29 64  2  0  0  0  0
 29 68  1  0  0  0  0
 30 65  1  0  0  0  0
 30 69  1  0  0  0  0
 31 63  2  0  0  0  0
 31 64  1  0  0  0  0
 31 71  1  0  0  0  0
 32 70  1  0  0  0  0
 32 76  2  0  0  0  0
 33 47  1  0  0  0  0
 33 72  1  0  0  0  0
 33 77  2  0  0  0  0
 34 58  1  0  0  0  0
 34 66  1  0  0  0  0
 34 78  2  0  0  0  0
 35 59  1  0  0  0  0
 35 73  1  0  0  0  0
 35 79  2  0  0  0  0
 36 67  1  0  0  0  0
 36 74  1  0  0  0  0
 36 80  2  0  0  0  0
 37 40  1  0  0  0  0
 38 47  1  0  0  0  0
 39 66  1  0  0  0  0
 40 42  1  0  0  0  0
 41 43  1  0  0  0  0
 41 44  1  0  0  0  0
 42 46  1  0  0  0  0
 43 48  1  0  0  0  0
 44 67  1  0  0  0  0
 45 48  1  0  0  0  0
 45 67  1  0  0  0  0
 46 72  1  0  0  0  0
 47 66  1  0  0  0  0
 48 65  1  0  0  0  0
 49 56  1  0  0  0  0
 50 59  1  0  0  0  0
 51 61  1  0  0  0  0
 52 61  1  0  0  0  0
 53 61  1  0  0  0  0
 54 75  1  0  0  0  0
 55 74  1  0  0  0  0
 56 60  1  0  0  0  0
 57 60  1  0  0  0  0
 57 82  1  0  0  0  0
 58 61  1  0  0  0  0
 58 73  1  0  0  0  0
 59 75  1  0  0  0  0
 60 71  1  0  0  0  0
 62 65  1  0  0  0  0
M  CHG  1  75   1
M  ISO  4  36 100  57 101  74 100  82 101
M  END
> <Batch ID>
0194

> <Smiles>
CCC(Nc1nc(N)cc(C[100NH:0][100C:0](=O)N2CCCC(n3nc(-c4ccc(Oc5ccc(F)cc5F)cc4)c(C(N)=O)c3N)C2)n1)[101CH2:1][101O:1]c1ccc2c(c1)CN(C(=O)C(NC(=O)C(C)NC)C(C)(C)C)C(C(=O)NC1CCCc3ccccc31)C2

> <Shape>
0.242

> <Color>
0.050

> <Negative vol penalty>
0.000

$$$$

  -OEChem-04052305333D

 83 91  0     1  0  0  0  0  0999 V2000
  -32.0944  -15.3562   19.3841 C   0  0  0  0  0  0  0  0  0  0  0  0
  -31.1358  -16.3639   19.3510 C   0  0  0  0  0  0  0  0  0  0  0  0
  -28.1508  -24.8030   18.6377 C   0  0  0  0  0  0  0  0  0  0  0  0
  -25.9924  -23.7843   19.0132 C   0  0  0  0  0  0  0  0  0  0  0  0
  -31.7015  -14.0266   19.5320 C   0  0  0  0  0  0  0  0  0  0  0  0
  -29.7837  -16.0425   19.4648 C   0  0  0  0  0  0  0  0  0  0  0  0
  -25.4316  -19.3549   22.2202 C   0  0  0  0  0  0  0  0  0  0  0  0
  -28.7685  -23.5690   18.8410 C   0  0  0  0  0  0  0  0  0  0  0  0
  -26.6102  -22.5503   19.2164 C   0  0  0  0  0  0  0  0  0  0  0  0
  -24.4717  -20.2379   21.7275 C   0  0  0  0  0  0  0  0  0  0  0  0
  -30.9411  -20.7579   19.6163 C   0  0  0  0  0  0  0  0  0  0  0  0
  -32.0755  -20.7246   20.4272 C   0  0  0  0  0  0  0  0  0  0  0  0
  -22.8481  -18.4539   21.7102 C   0  0  0  0  0  0  0  0  0  0  0  0
  -30.7804  -21.5888   22.2746 C   0  0  0  0  0  0  0  0  0  0  0  0
  -26.7627  -24.9107   18.7239 C   0  0  0  0  0  0  0  0  0  0  0  0
  -25.6619  -26.7143   17.2946 C   0  0  0  0  0  0  0  0  0  0  0  0
  -30.3446  -13.6897   19.6574 C   0  0  0  0  0  0  0  0  0  0  0  0
  -25.1093  -18.0100   22.4518 C   0  0  0  0  0  0  0  0  0  0  0  0
  -29.3723  -14.7071   19.6132 C   0  0  0  0  0  0  0  0  0  0  0  0
  -23.8050  -17.5565   22.2084 C   0  0  0  0  0  0  0  0  0  0  0  0
  -27.9983  -22.4427   19.1303 C   0  0  0  0  0  0  0  0  0  0  0  0
  -23.1806  -19.7868   21.4696 C   0  0  0  0  0  0  0  0  0  0  0  0
  -29.7263  -21.2067   20.1346 C   0  0  0  0  0  0  0  0  0  0  0  0
  -31.9952  -21.1400   21.7563 C   0  0  0  0  0  0  0  0  0  0  0  0
  -29.6460  -21.6221   21.4637 C   0  0  0  0  0  0  0  0  0  0  0  0
  -26.1240  -26.1852   18.5146 C   0  0  0  0  0  0  0  0  0  0  0  0
  -19.7759  -28.1015   22.7415 C   0  0  0  0  0  0  0  0  0  0  0  0
  -25.1402  -27.9404   17.6278 C   0  0  0  0  0  0  0  0  0  0  0  0
  -18.4032  -28.1275   22.6107 C   0  0  0  0  0  0  0  0  0  0  0  0
  -19.4609  -26.0118   22.1551 C   0  0  0  0  0  0  0  0  0  0  0  0
  -25.7006  -26.1480   15.9780 C   0  0  0  0  0  0  0  0  0  0  0  0
  -26.1231  -15.2289   21.2936 C   0  0  0  0  0  0  0  0  0  0  0  0
  -24.1816  -14.0092   23.5882 C   0  0  0  0  0  0  0  0  0  0  0  0
  -21.4823  -14.4435   25.6307 C   0  0  0  0  0  0  0  0  0  0  0  0
  -22.8997  -30.1732   22.7117 C   0  0  0  0  0  0  0  0  0  0  0  0
  -29.9652  -12.2342   19.7679 C   0  0  0  0  0  0  0  0  0  0  0  0
  -26.1488  -17.0764   23.0088 C   0  0  0  0  0  0  0  0  0  0  0  0
  -23.4027  -16.1269   22.4594 C   0  0  0  0  0  0  0  0  0  0  0  0
  -28.5366  -12.0126   20.2582 C   0  0  0  0  0  0  0  0  0  0  0  0
  -25.6213  -31.4724   20.8191 C   0  0  0  0  0  0  0  0  0  0  0  0
  -27.5683  -12.9236   19.5105 C   0  0  0  0  0  0  0  0  0  0  0  0
  -26.0171  -30.3124   19.9038 C   0  0  0  0  0  0  0  0  0  0  0  0
  -25.1846  -30.9802   22.1972 C   0  0  0  0  0  0  0  0  0  0  0  0
  -24.5172  -28.7981   21.2662 C   0  0  0  0  0  0  0  0  0  0  0  0
  -27.8975  -14.4007   19.7584 C   0  0  1  0  0  0  0  0  0  0  0  0
  -25.8491  -15.6085   22.7213 C   0  0  1  0  0  0  0  0  0  0  0  0
  -24.9117  -29.2408   19.8468 C   0  0  2  0  0  0  0  0  0  0  0  0
  -20.1153  -13.2558   27.3680 C   0  0  0  0  0  0  0  0  0  0  0  0
  -22.8455  -12.3532   21.4013 C   0  0  0  0  0  0  0  0  0  0  0  0
  -20.9410  -11.9417   22.9733 C   0  0  0  0  0  0  0  0  0  0  0  0
  -23.2285  -11.1303   23.5489 C   0  0  0  0  0  0  0  0  0  0  0  0
  -22.1260  -16.4699   27.6895 C   0  0  0  0  0  0  0  0  0  0  0  0
  -20.6388  -29.2382   23.1275 C   0  0  0  0  0  0  0  0  0  0  0  0
  -21.0462  -24.1155   21.8135 C   0  0  0  0  0  0  0  0  0  0  0  0
  -22.3642  -22.0179   21.3626 C   0  0  0  0  0  0  0  0  0  1  0  0
  -22.7283  -13.6063   23.6557 C   0  0  1  0  0  0  0  0  0  0  0  0
  -21.2905  -14.1873   27.1146 C   0  0  2  0  0  0  0  0  0  0  0  0
  -20.9768  -22.6501   21.3884 C   0  0  1  0  0  0  0  0  0  0  0  0
  -22.4436  -12.2844   22.8881 C   0  0  0  0  0  0  0  0  0  0  0  0
  -25.9146  -27.0078   19.5457 N   0  0  0  0  0  0  0  0  0  0  0  0
  -20.3841  -26.8890   22.4811 N   0  0  0  0  0  0  0  0  0  0  0  0
  -25.3151  -28.0664   18.9746 N   0  0  0  0  0  0  0  0  0  0  0  0
  -24.4563  -15.2512   22.9983 N   0  0  0  0  0  0  0  0  0  0  0  0
  -24.1336  -29.9673   22.0728 N   0  0  0  0  0  0  0  0  0  0  0  0
  -24.5536  -28.9123   16.8972 N   0  0  0  0  0  0  0  0  0  0  0  0
  -17.5649  -29.1745   22.8028 N   0  0  0  0  0  0  0  0  0  0  0  0
  -26.2718  -24.8788   15.8130 N   0  0  0  0  0  0  0  0  0  0  0  0
  -19.7199  -24.6907   21.8313 N   0  0  0  0  0  0  0  0  0  0  0  0
  -27.4202  -14.8131   21.0610 N   0  0  0  0  0  0  0  0  0  0  0  0
  -22.3827  -13.5610   25.0723 N   0  0  0  0  0  0  0  0  0  0  0  0
  -21.9570  -29.1674   22.5376 N   0  0  0  0  0  0  0  0  0  0  0  0
  -21.0382  -15.4683   27.8331 N   0  3  0  0  0  0  0  0  0  0  0  0
  -25.2571  -26.7568   14.9748 O   0  0  0  0  0  0  0  0  0  0  0  0
  -25.2239  -15.3061   20.4646 O   0  0  0  0  0  0  0  0  0  0  0  0
  -25.0408  -13.2532   24.0485 O   0  0  0  0  0  0  0  0  0  0  0  0
  -20.8898  -15.3348   25.0266 O   0  0  0  0  0  0  0  0  0  0  0  0
  -22.6544  -31.1813   23.3828 O   0  0  0  0  0  0  0  0  0  0  0  0
  -20.1867  -21.9262   22.3339 O   0  0  0  0  0  0  0  0  0  0  0  0
  -28.6007  -21.2384   19.3285 O   0  0  0  0  0  0  0  0  0  0  0  0
  -22.2419  -20.6464   20.9880 O   0  0  0  0  0  0  0  0  0  1  0  0
  -33.0844  -21.1066   22.5353 F   0  0  0  0  0  0  0  0  0  0  0  0
  -28.4814  -22.0532   21.9676 F   0  0  0  0  0  0  0  0  0  0  0  0
  -17.8406  -26.5769   22.1410 S   0  0  0  0  0  0  0  0  0  0  0  0
  1  2  1  0  0  0  0
  1  5  2  0  0  0  0
  2  6  2  0  0  0  0
  3  8  2  0  0  0  0
  3 15  1  0  0  0  0
  4  9  1  0  0  0  0
  4 15  2  0  0  0  0
  5 17  1  0  0  0  0
  6 19  1  0  0  0  0
  7 10  2  0  0  0  0
  7 18  1  0  0  0  0
  8 21  1  0  0  0  0
  9 21  2  0  0  0  0
 10 22  1  0  0  0  0
 11 12  2  0  0  0  0
 11 23  1  0  0  0  0
 12 24  1  0  0  0  0
 13 20  1  0  0  0  0
 13 22  2  0  0  0  0
 14 24  2  0  0  0  0
 14 25  1  0  0  0  0
 15 26  1  0  0  0  0
 16 26  1  0  0  0  0
 16 28  2  0  0  0  0
 16 31  1  0  0  0  0
 17 19  2  0  0  0  0
 17 36  1  0  0  0  0
 18 20  2  0  0  0  0
 18 37  1  0  0  0  0
 19 45  1  0  0  0  0
 20 38  1  0  0  0  0
 21 79  1  0  0  0  0
 22 80  1  0  0  0  0
 23 25  2  0  0  0  0
 23 79  1  0  0  0  0
 24 81  1  0  0  0  0
 25 82  1  0  0  0  0
 26 60  2  0  0  0  0
 27 29  2  0  0  0  0
 27 53  1  0  0  0  0
 27 61  1  0  0  0  0
 28 62  1  0  0  0  0
 28 65  1  0  0  0  0
 29 66  1  0  0  0  0
 29 83  1  0  0  0  0
 30 61  2  0  0  0  0
 30 68  1  0  0  0  0
 30 83  1  0  0  0  0
 31 67  1  0  0  0  0
 31 73  2  0  0  0  0
 32 46  1  0  0  0  0
 32 69  1  0  0  0  0
 32 74  2  0  0  0  0
 33 56  1  0  0  0  0
 33 63  1  0  0  0  0
 33 75  2  0  0  0  0
 34 57  1  0  0  0  0
 34 70  1  0  0  0  0
 34 76  2  0  0  0  0
 35 64  1  0  0  0  0
 35 71  1  0  0  0  0
 35 77  2  0  0  0  0
 36 39  1  0  0  0  0
 37 46  1  0  0  0  0
 38 63  1  0  0  0  0
 39 41  1  0  0  0  0
 40 42  1  0  0  0  0
 40 43  1  0  0  0  0
 41 45  1  0  0  0  0
 42 47  1  0  0  0  0
 43 64  1  0  0  0  0
 44 47  1  0  0  0  0
 44 64  1  0  0  0  0
 45 69  1  0  0  0  0
 46 63  1  0  0  0  0
 47 62  1  0  0  0  0
 48 57  1  0  0  0  0
 49 59  1  0  0  0  0
 50 59  1  0  0  0  0
 51 59  1  0  0  0  0
 52 72  1  0  0  0  0
 53 71  1  0  0  0  0
 54 58  1  0  0  0  0
 54 68  1  0  0  0  0
 55 58  1  0  0  0  0
 55 80  1  0  0  0  0
 56 59  1  0  0  0  0
 56 70  1  0  0  0  0
 57 72  1  0  0  0  0
 58 78  1  0  0  0  0
 60 62  1  0  0  0  0
M  CHG  1  72   1
M  ISO  4  35 100  55 101  71 100  80 101
M  END
> <Batch ID>
0194

> <Smiles>
CNC(C)C(=O)NC(C(=O)N1Cc2cc([101O:1][101CH2:1]C(O)CNc3nc(C[100NH:0][100C:0](=O)N4CCCC(n5nc(-c6ccc(Oc7ccc(F)cc7F)cc6)c(C(N)=O)c5N)C4)c(N)s3)ccc2CC1C(=O)NC1CCCc2ccccc21)C(C)(C)C

> <Shape>
0.215

> <Color>
0.079

> <Negative vol penalty>
0.000

$$$$

  -OEChem-04052305333D

 84 92  0     1  0  0  0  0  0999 V2000
  -25.2016  -29.1938   19.4686 C   0  0  0  0  0  0  0  0  0  0  0  0
  -24.9215  -27.8548   19.2155 C   0  0  0  0  0  0  0  0  0  0  0  0
  -29.4446  -22.9423   19.2577 C   0  0  0  0  0  0  0  0  0  0  0  0
  -31.3027  -21.8278   18.1889 C   0  0  0  0  0  0  0  0  0  0  0  0
  -26.1146  -29.5376   20.4646 C   0  0  0  0  0  0  0  0  0  0  0  0
  -25.5550  -26.8588   19.9578 C   0  0  0  0  0  0  0  0  0  0  0  0
  -23.1797  -21.4874   21.6933 C   0  0  0  0  0  0  0  0  0  0  0  0
  -30.1002  -24.1659   19.1216 C   0  0  0  0  0  0  0  0  0  0  0  0
  -31.9583  -23.0515   18.0527 C   0  0  0  0  0  0  0  0  0  0  0  0
  -23.2860  -20.2008   21.1668 C   0  0  0  0  0  0  0  0  0  0  0  0
  -32.5848  -25.8469   20.6789 C   0  0  0  0  0  0  0  0  0  0  0  0
  -32.5964  -26.7013   21.7814 C   0  0  0  0  0  0  0  0  0  0  0  0
  -25.0592  -19.7147   22.7283 C   0  0  0  0  0  0  0  0  0  0  0  0
  -31.4548  -28.3901   20.4846 C   0  0  0  0  0  0  0  0  0  0  0  0
  -30.0459  -21.7732   18.7915 C   0  0  0  0  0  0  0  0  0  0  0  0
  -28.4840  -19.9116   18.0153 C   0  0  0  0  0  0  0  0  0  0  0  0
  -26.7524  -28.5456   21.2260 C   0  0  0  0  0  0  0  0  0  0  0  0
  -24.0213  -21.9015   22.7357 C   0  0  0  0  0  0  0  0  0  0  0  0
  -26.4784  -27.1896   20.9640 C   0  0  0  0  0  0  0  0  0  0  0  0
  -24.9599  -21.0062   23.2680 C   0  0  0  0  0  0  0  0  0  0  0  0
  -31.3570  -24.2206   18.5190 C   0  0  0  0  0  0  0  0  0  0  0  0
  -24.2278  -19.3152   21.6823 C   0  0  0  0  0  0  0  0  0  0  0  0
  -32.0083  -26.2641   19.4792 C   0  0  0  0  0  0  0  0  0  0  0  0
  -32.0314  -27.9729   21.6842 C   0  0  0  0  0  0  0  0  0  0  0  0
  -31.4432  -27.5357   19.3821 C   0  0  0  0  0  0  0  0  0  0  0  0
  -29.3695  -20.5088   18.9324 C   0  0  0  0  0  0  0  0  0  0  0  0
  -28.1186  -18.7292   18.6110 C   0  0  0  0  0  0  0  0  0  0  0  0
  -26.4514  -12.6436   19.8193 C   0  0  0  0  0  0  0  0  0  0  0  0
  -24.9660  -12.2850   21.4630 C   0  0  0  0  0  0  0  0  0  0  0  0
  -24.9040  -14.1988   20.2924 C   0  0  0  0  0  0  0  0  0  0  0  0
  -28.0322  -20.3834   16.7389 C   0  0  0  0  0  0  0  0  0  0  0  0
  -26.2255  -24.1667   23.0738 C   0  0  0  0  0  0  0  0  0  0  0  0
  -26.2164  -23.1700   26.1607 C   0  0  0  0  0  0  0  0  0  0  0  0
  -25.5773  -20.6725   28.3969 C   0  0  0  0  0  0  0  0  0  0  0  0
  -29.4260  -14.0854   21.4166 C   0  0  0  0  0  0  0  0  0  0  0  0
  -27.7673  -28.9644   22.2600 C   0  0  0  0  0  0  0  0  0  0  0  0
  -23.8760  -23.2838   23.3107 C   0  0  0  0  0  0  0  0  0  0  0  0
  -25.8733  -21.3951   24.4007 C   0  0  0  0  0  0  0  0  0  0  0  0
  -28.1146  -27.8600   23.2550 C   0  0  0  0  0  0  0  0  0  0  0  0
  -28.8750  -17.0436   23.3198 C   0  0  0  0  0  0  0  0  0  0  0  0
  -28.3746  -26.5462   22.5248 C   0  0  0  0  0  0  0  0  0  0  0  0
  -28.8878  -18.1594   22.2735 C   0  0  0  0  0  0  0  0  0  0  0  0
  -29.8832  -15.9461   22.9868 C   0  0  0  0  0  0  0  0  0  0  0  0
  -29.7663  -16.4920   20.5863 C   0  0  0  0  0  0  0  0  0  0  0  0
  -27.1267  -26.0811   21.7647 C   0  0  1  0  0  0  0  0  0  0  0  0
  -25.1333  -23.7688   24.0258 C   0  0  1  0  0  0  0  0  0  0  0  0
  -28.7264  -17.5946   20.8494 C   0  0  2  0  0  0  0  0  0  0  0  0
  -25.7045  -20.1412   30.8462 C   0  0  0  0  0  0  0  0  0  0  0  0
  -21.9270  -15.3034   20.2578 C   0  0  0  0  0  0  0  0  0  0  0  0
  -29.2381  -22.8181   25.9249 C   0  0  0  0  0  0  0  0  0  0  0  0
  -29.1680  -21.4250   28.0040 C   0  0  0  0  0  0  0  0  0  0  0  0
  -28.4697  -23.8185   28.0844 C   0  0  0  0  0  0  0  0  0  0  0  0
  -22.6552  -20.2372   28.5726 C   0  0  0  0  0  0  0  0  0  0  0  0
  -27.6137  -12.1842   19.0066 C   0  0  0  0  0  0  0  0  0  0  0  0
  -28.9616  -12.3317   19.7231 C   0  0  0  0  0  0  0  0  0  0  0  0
  -23.1473  -17.4727   20.6365 C   0  0  0  0  0  0  0  0  0  1  0  0
  -26.9712  -22.1276   26.9497 C   0  0  1  0  0  0  0  0  0  0  0  0
  -24.8315  -20.6708   29.7191 C   0  0  2  0  0  0  0  0  0  0  0  0
  -23.1997  -15.9535   20.7843 C   0  0  2  0  0  0  0  0  0  0  0  0
  -28.4460  -22.5403   27.2181 C   0  0  0  0  0  0  0  0  0  0  0  0
  -29.5552  -19.7671   20.0275 N   0  0  0  0  0  0  0  0  0  0  0  0
  -26.0140  -11.8061   20.7736 N   0  0  0  0  0  0  0  0  0  0  0  0
  -25.9476  -13.8523   19.5219 N   0  0  0  0  0  0  0  0  0  0  0  0
  -24.3597  -13.4689   21.2793 N   0  0  0  0  0  0  0  0  0  0  0  0
  -28.7813  -18.6917   19.8025 N   0  0  0  0  0  0  0  0  0  0  0  0
  -25.6970  -22.7596   24.9247 N   0  0  0  0  0  0  0  0  0  0  0  0
  -29.6750  -15.4523   21.6234 N   0  0  0  0  0  0  0  0  0  0  0  0
  -27.2982  -17.7284   18.2267 N   0  0  0  0  0  0  0  0  0  0  0  0
  -24.4501  -11.4599   22.4861 N   0  0  0  0  0  0  0  0  0  0  0  0
  -28.5066  -21.6188   16.2772 N   0  0  0  0  0  0  0  0  0  0  0  0
  -24.3317  -15.4329   20.0443 N   0  0  0  0  0  0  0  0  0  0  0  0
  -26.1712  -25.4889   22.6761 N   0  0  0  0  0  0  0  0  0  0  0  0
  -26.1895  -21.8845   28.1573 N   0  0  0  0  0  0  0  0  0  0  0  0
  -29.2337  -13.7023   20.0948 N   0  0  0  0  0  0  0  0  0  0  0  0
  -23.6143  -19.8161   29.6262 N   0  3  0  0  0  0  0  0  0  0  0  0
  -27.2189  -19.7366   16.0364 O   0  0  0  0  0  0  0  0  0  0  0  0
  -27.0570  -23.3360   22.7269 O   0  0  0  0  0  0  0  0  0  0  0  0
  -26.0862  -24.3045   26.6271 O   0  0  0  0  0  0  0  0  0  0  0  0
  -25.6162  -19.6950   27.6528 O   0  0  0  0  0  0  0  0  0  0  0  0
  -29.3733  -13.2681   22.3418 O   0  0  0  0  0  0  0  0  0  0  0  0
  -31.9969  -25.4144   18.3858 O   0  0  0  0  0  0  0  0  0  0  0  0
  -24.3340  -18.0591   21.1697 O   0  0  0  0  0  0  0  0  0  1  0  0
  -32.0412  -28.7927   22.7435 F   0  0  0  0  0  0  0  0  0  0  0  0
  -30.8869  -27.9417   18.2325 F   0  0  0  0  0  0  0  0  0  0  0  0
  1  2  1  0  0  0  0
  1  5  2  0  0  0  0
  2  6  2  0  0  0  0
  3  8  2  0  0  0  0
  3 15  1  0  0  0  0
  4  9  1  0  0  0  0
  4 15  2  0  0  0  0
  5 17  1  0  0  0  0
  6 19  1  0  0  0  0
  7 10  2  0  0  0  0
  7 18  1  0  0  0  0
  8 21  1  0  0  0  0
  9 21  2  0  0  0  0
 10 22  1  0  0  0  0
 11 12  2  0  0  0  0
 11 23  1  0  0  0  0
 12 24  1  0  0  0  0
 13 20  1  0  0  0  0
 13 22  2  0  0  0  0
 14 24  2  0  0  0  0
 14 25  1  0  0  0  0
 15 26  1  0  0  0  0
 16 26  1  0  0  0  0
 16 27  2  0  0  0  0
 16 31  1  0  0  0  0
 17 19  2  0  0  0  0
 17 36  1  0  0  0  0
 18 20  2  0  0  0  0
 18 37  1  0  0  0  0
 19 45  1  0  0  0  0
 20 38  1  0  0  0  0
 21 81  1  0  0  0  0
 22 82  1  0  0  0  0
 23 25  2  0  0  0  0
 23 81  1  0  0  0  0
 24 83  1  0  0  0  0
 25 84  1  0  0  0  0
 26 61  2  0  0  0  0
 27 65  1  0  0  0  0
 27 68  1  0  0  0  0
 28 54  1  0  0  0  0
 28 62  2  0  0  0  0
 28 63  1  0  0  0  0
 29 62  1  0  0  0  0
 29 64  2  0  0  0  0
 29 69  1  0  0  0  0
 30 63  2  0  0  0  0
 30 64  1  0  0  0  0
 30 71  1  0  0  0  0
 31 70  1  0  0  0  0
 31 76  2  0  0  0  0
 32 46  1  0  0  0  0
 32 72  1  0  0  0  0
 32 77  2  0  0  0  0
 33 57  1  0  0  0  0
 33 66  1  0  0  0  0
 33 78  2  0  0  0  0
 34 58  1  0  0  0  0
 34 73  1  0  0  0  0
 34 79  2  0  0  0  0
 35 67  1  0  0  0  0
 35 74  1  0  0  0  0
 35 80  2  0  0  0  0
 36 39  1  0  0  0  0
 37 46  1  0  0  0  0
 38 66  1  0  0  0  0
 39 41  1  0  0  0  0
 40 42  1  0  0  0  0
 40 43  1  0  0  0  0
 41 45  1  0  0  0  0
 42 47  1  0  0  0  0
 43 67  1  0  0  0  0
 44 47  1  0  0  0  0
 44 67  1  0  0  0  0
 45 72  1  0  0  0  0
 46 66  1  0  0  0  0
 47 65  1  0  0  0  0
 48 58  1  0  0  0  0
 49 59  1  0  0  0  0
 50 60  1  0  0  0  0
 51 60  1  0  0  0  0
 52 60  1  0  0  0  0
 53 75  1  0  0  0  0
 54 55  1  0  0  0  0
 55 74  1  0  0  0  0
 56 59  1  0  0  0  0
 56 82  1  0  0  0  0
 57 60  1  0  0  0  0
 57 73  1  0  0  0  0
 58 75  1  0  0  0  0
 59 71  1  0  0  0  0
 61 65  1  0  0  0  0
M  CHG  1  75   1
M  ISO  4  35 100  56 101  74 100  82 101
M  END
> <Batch ID>
0194

> <Smiles>
CNC(C)C(=O)NC(C(=O)N1Cc2cc([101O:1][101CH2:1]C(C)Nc3nc(N)nc(CC[100NH:0][100C:0](=O)N4CCCC(n5nc(-c6ccc(Oc7ccc(F)cc7F)cc6)c(C(N)=O)c5N)C4)n3)ccc2CC1C(=O)NC1CCCc2ccccc21)C(C)(C)C

> <Shape>
0.193

> <Color>
0.066

> <Negative vol penalty>
0.000

$$$$

  -OEChem-04052305333D

 84 92  0     1  0  0  0  0  0999 V2000
  -29.7071   -8.6438   17.8243 C   0  0  0  0  0  0  0  0  0  0  0  0
  -28.6139   -9.2347   18.4497 C   0  0  0  0  0  0  0  0  0  0  0  0
  -25.0978  -30.5259   20.5223 C   0  0  0  0  0  0  0  0  0  0  0  0
  -24.4732  -28.9276   22.2230 C   0  0  0  0  0  0  0  0  0  0  0  0
  -30.9798   -9.1903   17.9843 C   0  0  0  0  0  0  0  0  0  0  0  0
  -28.7930  -10.3719   19.2366 C   0  0  0  0  0  0  0  0  0  0  0  0
  -25.3004  -13.9266   18.3365 C   0  0  0  0  0  0  0  0  0  0  0  0
  -24.6607  -31.5675   21.3405 C   0  0  0  0  0  0  0  0  0  0  0  0
  -24.0361  -29.9692   23.0413 C   0  0  0  0  0  0  0  0  0  0  0  0
  -24.0411  -13.7404   18.9050 C   0  0  0  0  0  0  0  0  0  0  0  0
  -24.0424  -34.6723   23.1275 C   0  0  0  0  0  0  0  0  0  0  0  0
  -24.8621  -35.7950   23.2416 C   0  0  0  0  0  0  0  0  0  0  0  0
  -24.6176  -15.2789   20.6714 C   0  0  0  0  0  0  0  0  0  0  0  0
  -26.6335  -34.4116   24.1279 C   0  0  0  0  0  0  0  0  0  0  0  0
  -21.6983  -21.3974   20.1912 C   0  0  0  0  0  0  0  0  0  0  0  0
  -25.0040  -29.2059   20.9635 C   0  0  0  0  0  0  0  0  0  0  0  0
  -26.7464  -27.5715   20.0687 C   0  0  0  0  0  0  0  0  0  0  0  0
  -31.1731  -10.3404   18.7657 C   0  0  0  0  0  0  0  0  0  0  0  0
  -26.2332  -14.7835   18.9382 C   0  0  0  0  0  0  0  0  0  0  0  0
  -30.0696  -10.9335   19.4084 C   0  0  0  0  0  0  0  0  0  0  0  0
  -25.8871  -15.4763   20.1071 C   0  0  0  0  0  0  0  0  0  0  0  0
  -24.1298  -31.2892   22.6001 C   0  0  0  0  0  0  0  0  0  0  0  0
  -23.7005  -14.4143   20.0742 C   0  0  0  0  0  0  0  0  0  0  0  0
  -24.5182  -33.4192   23.5136 C   0  0  0  0  0  0  0  0  0  0  0  0
  -26.1577  -35.6647   23.7418 C   0  0  0  0  0  0  0  0  0  0  0  0
  -25.8138  -33.2888   24.0138 C   0  0  0  0  0  0  0  0  0  0  0  0
  -25.4549  -28.1295   20.1184 C   0  0  0  0  0  0  0  0  0  0  0  0
  -20.6303  -19.6066   18.5239 C   0  0  0  0  0  0  0  0  0  0  0  0
  -21.6135  -21.6472   18.8392 C   0  0  0  0  0  0  0  0  0  0  0  0
  -20.7158  -19.3566   19.8759 C   0  0  0  0  0  0  0  0  0  0  0  0
  -26.6591  -26.5882   19.1137 C   0  0  0  0  0  0  0  0  0  0  0  0
  -27.9200  -27.9116   20.8188 C   0  0  0  0  0  0  0  0  0  0  0  0
  -29.1271  -14.4172   20.2011 C   0  0  0  0  0  0  0  0  0  0  0  0
  -29.0176  -17.6522   20.4133 C   0  0  0  0  0  0  0  0  0  0  0  0
  -27.1172  -20.4812   20.5920 C   0  0  0  0  0  0  0  0  0  0  0  0
  -22.1146  -23.3198   17.0233 C   0  0  0  0  0  0  0  0  0  0  0  0
  -32.5745  -10.8672   18.9478 C   0  0  0  0  0  0  0  0  0  0  0  0
  -27.5778  -14.9942   18.2978 C   0  0  0  0  0  0  0  0  0  0  0  0
  -26.8452  -16.4230   20.7810 C   0  0  0  0  0  0  0  0  0  0  0  0
  -32.6235  -12.2919   19.4938 C   0  0  0  0  0  0  0  0  0  0  0  0
  -24.2612  -25.4383   15.1310 C   0  0  0  0  0  0  0  0  0  0  0  0
  -31.6698  -12.4441   20.6745 C   0  0  0  0  0  0  0  0  0  0  0  0
  -24.9330  -26.3140   16.1912 C   0  0  0  0  0  0  0  0  0  0  0  0
  -22.8039  -25.1418   15.4806 C   0  0  0  0  0  0  0  0  0  0  0  0
  -23.2604  -25.4569   17.8809 C   0  0  0  0  0  0  0  0  0  0  0  0
  -30.2198  -12.1823   20.2498 C   0  0  1  0  0  0  0  0  0  0  0  0
  -28.6344  -15.4951   19.2776 C   0  0  1  0  0  0  0  0  0  0  0  0
  -24.7483  -25.7287   17.6051 C   0  0  2  0  0  0  0  0  0  0  0  0
  -20.0368  -18.6182   17.5777 C   0  0  0  0  0  0  0  0  0  0  0  0
  -27.3110  -22.9749   20.7960 C   0  0  0  0  0  0  0  0  0  0  0  0
  -29.6859  -17.3556   23.3756 C   0  0  0  0  0  0  0  0  0  0  0  0
  -28.9387  -19.7216   23.7096 C   0  0  0  0  0  0  0  0  0  0  0  0
  -30.8771  -19.2262   22.2197 C   0  0  0  0  0  0  0  0  0  0  0  0
  -25.7578  -20.9152   17.9992 C   0  0  0  0  0  0  0  0  0  0  0  0
  -20.4045  -15.2592   21.2777 C   0  0  0  0  0  0  0  0  0  0  0  0
  -20.2802  -17.7952   21.7727 C   0  0  0  0  0  0  0  0  0  0  0  0
  -21.9221  -15.3305   21.3602 C   0  0  0  0  0  0  0  0  0  1  0  0
  -28.5410  -18.6400   21.4506 C   0  0  1  0  0  0  0  0  0  0  0  0
  -27.1971  -21.7975   19.8401 C   0  0  2  0  0  0  0  0  0  0  0  0
  -19.6908  -16.4031   22.0058 C   0  0  1  0  0  0  0  0  0  0  0  0
  -29.4931  -18.7166   22.6775 C   0  0  0  0  0  0  0  0  0  0  0  0
  -21.2510  -20.2476   20.7338 N   0  0  0  0  0  0  0  0  0  0  0  0
  -24.6091  -27.5490   19.2629 N   0  0  0  0  0  0  0  0  0  0  0  0
  -21.0779  -20.7562   17.9813 N   0  0  0  0  0  0  0  0  0  0  0  0
  -25.3709  -26.6161   18.6666 N   0  0  0  0  0  0  0  0  0  0  0  0
  -28.1500  -16.5906   20.1199 N   0  0  0  0  0  0  0  0  0  0  0  0
  -22.7069  -24.5860   16.8321 N   0  0  0  0  0  0  0  0  0  0  0  0
  -27.5594  -25.7112   18.6212 N   0  0  0  0  0  0  0  0  0  0  0  0
  -27.8350  -28.9470   21.7595 N   0  0  0  0  0  0  0  0  0  0  0  0
  -22.1079  -22.8803   18.3467 N   0  0  0  0  0  0  0  0  0  0  0  0
  -20.2384  -18.1556   20.3740 N   0  0  0  0  0  0  0  0  0  0  0  0
  -29.6822  -13.3308   19.5522 N   0  0  0  0  0  0  0  0  0  0  0  0
  -28.3613  -19.9090   20.7536 N   0  0  0  0  0  0  0  0  0  0  0  0
  -25.9805  -21.9894   19.0010 N   0  3  0  0  0  0  0  0  0  0  0  0
  -29.0161  -27.3260   20.6478 O   0  0  0  0  0  0  0  0  0  0  0  0
  -29.0135  -14.5611   21.4127 O   0  0  0  0  0  0  0  0  0  0  0  0
  -30.1160  -17.8204   19.8776 O   0  0  0  0  0  0  0  0  0  0  0  0
  -26.0576  -20.0097   20.9989 O   0  0  0  0  0  0  0  0  0  0  0  0
  -21.6721  -22.6610   16.0787 O   0  0  0  0  0  0  0  0  0  0  0  0
  -18.3195  -16.4252   21.6051 O   0  0  0  0  0  0  0  0  0  0  0  0
  -23.7034  -32.3053   23.3989 O   0  0  0  0  0  0  0  0  0  0  0  0
  -22.4723  -14.2338   20.6316 O   0  0  0  0  0  0  0  0  0  1  0  0
  -26.9453  -36.7428   23.8500 F   0  0  0  0  0  0  0  0  0  0  0  0
  -26.2768  -32.0874   24.3852 F   0  0  0  0  0  0  0  0  0  0  0  0
  1  2  1  0  0  0  0
  1  5  2  0  0  0  0
  2  6  2  0  0  0  0
  3  8  2  0  0  0  0
  3 16  1  0  0  0  0
  4  9  1  0  0  0  0
  4 16  2  0  0  0  0
  5 18  1  0  0  0  0
  6 20  1  0  0  0  0
  7 10  2  0  0  0  0
  7 19  1  0  0  0  0
  8 22  1  0  0  0  0
  9 22  2  0  0  0  0
 10 23  1  0  0  0  0
 11 12  2  0  0  0  0
 11 24  1  0  0  0  0
 12 25  1  0  0  0  0
 13 21  1  0  0  0  0
 13 23  2  0  0  0  0
 14 25  2  0  0  0  0
 14 26  1  0  0  0  0
 15 29  1  0  0  0  0
 15 62  2  0  0  0  0
 16 27  1  0  0  0  0
 17 27  1  0  0  0  0
 17 31  2  0  0  0  0
 17 32  1  0  0  0  0
 18 20  2  0  0  0  0
 18 37  1  0  0  0  0
 19 21  2  0  0  0  0
 19 38  1  0  0  0  0
 20 46  1  0  0  0  0
 21 39  1  0  0  0  0
 22 81  1  0  0  0  0
 23 82  1  0  0  0  0
 24 26  2  0  0  0  0
 24 81  1  0  0  0  0
 25 83  1  0  0  0  0
 26 84  1  0  0  0  0
 27 63  2  0  0  0  0
 28 30  2  0  0  0  0
 28 49  1  0  0  0  0
 28 64  1  0  0  0  0
 29 64  2  0  0  0  0
 29 70  1  0  0  0  0
 30 62  1  0  0  0  0
 30 71  1  0  0  0  0
 31 65  1  0  0  0  0
 31 68  1  0  0  0  0
 32 69  1  0  0  0  0
 32 75  2  0  0  0  0
 33 47  1  0  0  0  0
 33 72  1  0  0  0  0
 33 76  2  0  0  0  0
 34 58  1  0  0  0  0
 34 66  1  0  0  0  0
 34 77  2  0  0  0  0
 35 59  1  0  0  0  0
 35 73  1  0  0  0  0
 35 78  2  0  0  0  0
 36 67  1  0  0  0  0
 36 70  1  0  0  0  0
 36 79  2  0  0  0  0
 37 40  1  0  0  0  0
 38 47  1  0  0  0  0
 39 66  1  0  0  0  0
 40 42  1  0  0  0  0
 41 43  1  0  0  0  0
 41 44  1  0  0  0  0
 42 46  1  0  0  0  0
 43 48  1  0  0  0  0
 44 67  1  0  0  0  0
 45 48  1  0  0  0  0
 45 67  1  0  0  0  0
 46 72  1  0  0  0  0
 47 66  1  0  0  0  0
 48 65  1  0  0  0  0
 50 59  1  0  0  0  0
 51 61  1  0  0  0  0
 52 61  1  0  0  0  0
 53 61  1  0  0  0  0
 54 74  1  0  0  0  0
 55 57  1  0  0  0  0
 55 60  1  0  0  0  0
 56 60  1  0  0  0  0
 56 71  1  0  0  0  0
 57 82  1  0  0  0  0
 58 61  1  0  0  0  0
 58 73  1  0  0  0  0
 59 74  1  0  0  0  0
 60 80  1  0  0  0  0
 63 65  1  0  0  0  0
M  CHG  1  74   1
M  ISO  4  36 100  57 101  70 100  82 101
M  END
> <Batch ID>
0194

> <Smiles>
CNC(C)C(=O)NC(C(=O)N1Cc2cc([101O:1][101CH2:1]CC(O)CNc3ncc([100NH:0][100C:0](=O)N4CCCC(n5nc(-c6ccc(Oc7ccc(F)cc7F)cc6)c(C(N)=O)c5N)C4)nc3C)ccc2CC1C(=O)NC1CCCc2ccccc21)C(C)(C)C

> <Shape>
0.230

> <Color>
0.068

> <Negative vol penalty>
0.000

$$$$

  -OEChem-04052305333D

 93101  0     1  0  0  0  0  0999 V2000
  -27.8561  -37.9509   20.8459 C   0  0  0  0  0  0  0  0  0  0  0  0
  -28.2773  -36.7746   20.2341 C   0  0  0  0  0  0  0  0  0  0  0  0
  -25.9084   -7.9831   20.9077 C   0  0  0  0  0  0  0  0  0  0  0  0
  -23.9934   -9.2358   21.6825 C   0  0  0  0  0  0  0  0  0  0  0  0
  -27.1434  -37.8963   22.0429 C   0  0  0  0  0  0  0  0  0  0  0  0
  -27.9870  -35.5429   20.8198 C   0  0  0  0  0  0  0  0  0  0  0  0
  -26.4960  -28.7526   19.0919 C   0  0  0  0  0  0  0  0  0  0  0  0
  -23.3827  -18.6259   22.2353 C   0  0  0  0  0  0  0  0  0  0  0  0
  -25.6039   -6.9613   21.8070 C   0  0  0  0  0  0  0  0  0  0  0  0
  -23.6888   -8.2140   22.5818 C   0  0  0  0  0  0  0  0  0  0  0  0
  -26.9147  -27.4528   19.3731 C   0  0  0  0  0  0  0  0  0  0  0  0
  -22.1993   -5.7748   24.8290 C   0  0  0  0  0  0  0  0  0  0  0  0
  -20.8686   -5.3676   24.9227 C   0  0  0  0  0  0  0  0  0  0  0  0
  -24.1034  -17.4850   21.9000 C   0  0  0  0  0  0  0  0  0  0  0  0
  -25.6083  -27.4771   21.4009 C   0  0  0  0  0  0  0  0  0  0  0  0
  -20.8892   -4.7622   22.5839 C   0  0  0  0  0  0  0  0  0  0  0  0
  -25.1032   -9.1204   20.8455 C   0  0  0  0  0  0  0  0  0  0  0  0
  -24.9646  -10.3049   18.5904 C   0  0  0  0  0  0  0  0  0  0  0  0
  -26.8358  -36.6629   22.6385 C   0  0  0  0  0  0  0  0  0  0  0  0
  -25.6375  -29.4295   19.9701 C   0  0  0  0  0  0  0  0  0  0  0  0
  -27.2707  -35.4717   22.0266 C   0  0  0  0  0  0  0  0  0  0  0  0
  -25.1781  -28.7845   21.1273 C   0  0  0  0  0  0  0  0  0  0  0  0
  -24.0184  -19.8624   22.2544 C   0  0  0  0  0  0  0  0  0  0  0  0
  -24.4941   -7.0767   22.6440 C   0  0  0  0  0  0  0  0  0  0  0  0
  -26.4732  -26.8160   20.5292 C   0  0  0  0  0  0  0  0  0  0  0  0
  -22.8750   -5.6758   23.6127 C   0  0  0  0  0  0  0  0  0  0  0  0
  -20.2135   -4.8613   23.8002 C   0  0  0  0  0  0  0  0  0  0  0  0
  -22.2200   -5.1695   22.4902 C   0  0  0  0  0  0  0  0  0  0  0  0
  -25.4176  -10.1765   19.9171 C   0  0  0  0  0  0  0  0  0  0  0  0
  -25.4467  -17.6330   21.5944 C   0  0  0  0  0  0  0  0  0  0  0  0
  -25.3655  -19.9039   21.9331 C   0  0  0  0  0  0  0  0  0  0  0  0
  -25.5422  -11.4673   18.1414 C   0  0  0  0  0  0  0  0  0  0  0  0
  -24.0990   -9.4500   17.8318 C   0  0  0  0  0  0  0  0  0  0  0  0
  -25.8490  -32.0750   21.7195 C   0  0  0  0  0  0  0  0  0  0  0  0
  -22.7208  -31.4618   22.3197 C   0  0  0  0  0  0  0  0  0  0  0  0
  -20.1971  -29.1702   22.4832 C   0  0  0  0  0  0  0  0  0  0  0  0
  -27.5215  -16.3776   20.9120 C   0  0  0  0  0  0  0  0  0  0  0  0
  -26.1040  -36.6560   23.9573 C   0  0  0  0  0  0  0  0  0  0  0  0
  -25.1738  -30.8215   19.6390 C   0  0  0  0  0  0  0  0  0  0  0  0
  -24.2397  -29.4602   22.0923 C   0  0  0  0  0  0  0  0  0  0  0  0
  -25.5125  -35.2958   24.3185 C   0  0  0  0  0  0  0  0  0  0  0  0
  -29.4037  -14.2243   18.7913 C   0  0  0  0  0  0  0  0  0  0  0  0
  -26.5389  -34.1903   24.0926 C   0  0  0  0  0  0  0  0  0  0  0  0
  -28.5509  -12.9559   18.7137 C   0  0  0  0  0  0  0  0  0  0  0  0
  -29.3483  -14.8610   20.1788 C   0  0  0  0  0  0  0  0  0  0  0  0
  -27.1433  -13.8513   20.6120 C   0  0  0  0  0  0  0  0  0  0  0  0
  -26.9536  -34.1154   22.6182 C   0  0  1  0  0  0  0  0  0  0  0  0
  -24.7079  -31.6033   20.8634 C   0  0  1  0  0  0  0  0  0  0  0  0
  -27.1158  -13.2101   19.2149 C   0  0  2  0  0  0  0  0  0  0  0  0
  -23.4323  -19.0831   26.7388 C   0  0  0  0  0  0  0  0  0  0  0  0
  -17.7591  -28.9612   23.0398 C   0  0  0  0  0  0  0  0  0  0  0  0
  -23.8492  -21.6685   25.3660 C   0  0  0  0  0  0  0  0  0  0  0  0
  -28.2281  -20.8791   22.8433 C   0  0  0  0  0  0  0  0  0  0  0  0
  -23.3875  -31.6290   25.2924 C   0  0  0  0  0  0  0  0  0  0  0  0
  -21.2057  -30.4994   25.7741 C   0  0  0  0  0  0  0  0  0  0  0  0
  -21.2342  -32.7226   24.6432 C   0  0  0  0  0  0  0  0  0  0  0  0
  -19.8901  -22.1785   23.9750 C   0  0  0  0  0  0  0  0  0  0  0  0
  -20.8614  -22.2164   21.6621 C   0  0  0  0  0  0  0  0  0  0  0  0
  -21.9331  -23.5069   23.4998 C   0  0  0  0  0  0  0  0  0  0  0  0
  -19.5339  -28.2448   19.7514 C   0  0  0  0  0  0  0  0  0  0  0  0
  -23.0061  -19.3180   25.2961 C   0  0  0  0  0  0  0  0  0  0  0  0
  -26.8791  -23.2456   20.0548 C   0  0  0  0  0  0  0  0  0  0  0  0
  -27.7091  -22.7662   21.2538 C   0  0  0  0  0  0  0  0  0  0  0  0
  -27.1699  -24.6992   19.6986 C   0  0  0  0  0  0  0  0  0  1  0  0
  -21.9671  -30.6705   23.3612 C   0  0  1  0  0  0  0  0  0  0  0  0
  -18.7809  -29.1908   21.9371 C   0  0  2  0  0  0  0  0  0  0  0  0
  -22.6565  -20.7934   24.9644 C   0  0  2  0  0  0  0  0  0  0  0  0
  -27.4046  -21.3103   21.6338 C   0  0  2  0  0  0  0  0  0  0  0  0
  -22.1672  -20.9849   23.4948 C   0  0  1  0  0  0  0  0  0  0  0  0
  -21.9679  -31.3681   24.7507 C   0  0  0  0  0  0  0  0  0  0  0  0
  -21.2021  -22.1807   23.1643 C   0  0  0  0  0  0  0  0  0  0  0  0
  -26.2212  -11.1773   20.2867 N   0  0  0  0  0  0  0  0  0  0  0  0
  -26.0987  -18.8173   21.6023 N   0  0  0  0  0  0  0  0  0  0  0  0
  -26.2777  -11.9457   19.1856 N   0  0  0  0  0  0  0  0  0  0  0  0
  -23.8197  -30.8233   21.7277 N   0  0  0  0  0  0  0  0  0  0  0  0
  -27.9579  -15.0762   20.5857 N   0  0  0  0  0  0  0  0  0  0  0  0
  -25.4877  -12.1167   16.9591 N   0  0  0  0  0  0  0  0  0  0  0  0
  -23.5936   -8.2961   18.4461 N   0  0  0  0  0  0  0  0  0  0  0  0
  -23.3049  -20.9951   22.5889 N   0  0  0  0  0  0  0  0  0  0  0  0
  -26.1720  -16.4648   21.2525 N   0  0  0  0  0  0  0  0  0  0  0  0
  -26.0217  -21.1605   21.9487 N   0  0  0  0  0  0  0  0  0  0  0  0
  -25.9321  -33.4492   21.8391 N   0  0  0  0  0  0  0  0  0  0  0  0
  -20.6364  -30.4354   22.8113 N   0  0  0  0  0  0  0  0  0  0  0  0
  -18.6075  -28.1279   20.9069 N   0  3  0  0  0  0  0  0  0  0  0  0
  -23.7962   -9.6933   16.6391 O   0  0  0  0  0  0  0  0  0  0  0  0
  -26.5978  -31.2531   22.2347 O   0  0  0  0  0  0  0  0  0  0  0  0
  -22.3438  -32.6017   22.0365 O   0  0  0  0  0  0  0  0  0  0  0  0
  -20.8472  -28.1349   22.6099 O   0  0  0  0  0  0  0  0  0  0  0  0
  -28.2818  -17.3480   20.8647 O   0  0  0  0  0  0  0  0  0  0  0  0
  -24.1965   -6.0797   23.5215 O   0  0  0  0  0  0  0  0  0  0  0  0
  -26.8839  -25.5379   20.8085 O   0  0  0  0  0  0  0  0  0  1  0  0
  -18.9360   -4.4689   23.8906 F   0  0  0  0  0  0  0  0  0  0  0  0
  -22.8642   -5.0708   21.3193 F   0  0  0  0  0  0  0  0  0  0  0  0
  1  2  1  0  0  0  0
  1  5  2  0  0  0  0
  2  6  2  0  0  0  0
  3  9  2  0  0  0  0
  3 17  1  0  0  0  0
  4 10  1  0  0  0  0
  4 17  2  0  0  0  0
  5 19  1  0  0  0  0
  6 21  1  0  0  0  0
  7 11  2  0  0  0  0
  7 20  1  0  0  0  0
  8 14  2  0  0  0  0
  8 23  1  0  0  0  0
  9 24  1  0  0  0  0
 10 24  2  0  0  0  0
 11 25  1  0  0  0  0
 12 13  2  0  0  0  0
 12 26  1  0  0  0  0
 13 27  1  0  0  0  0
 14 30  1  0  0  0  0
 15 22  1  0  0  0  0
 15 25  2  0  0  0  0
 16 27  2  0  0  0  0
 16 28  1  0  0  0  0
 17 29  1  0  0  0  0
 18 29  1  0  0  0  0
 18 32  2  0  0  0  0
 18 33  1  0  0  0  0
 19 21  2  0  0  0  0
 19 38  1  0  0  0  0
 20 22  2  0  0  0  0
 20 39  1  0  0  0  0
 21 47  1  0  0  0  0
 22 40  1  0  0  0  0
 23 31  2  0  0  0  0
 23 79  1  0  0  0  0
 24 90  1  0  0  0  0
 25 91  1  0  0  0  0
 26 28  2  0  0  0  0
 26 90  1  0  0  0  0
 27 92  1  0  0  0  0
 28 93  1  0  0  0  0
 29 72  2  0  0  0  0
 30 73  2  0  0  0  0
 30 80  1  0  0  0  0
 31 73  1  0  0  0  0
 31 81  1  0  0  0  0
 32 74  1  0  0  0  0
 32 77  1  0  0  0  0
 33 78  1  0  0  0  0
 33 85  2  0  0  0  0
 34 48  1  0  0  0  0
 34 82  1  0  0  0  0
 34 86  2  0  0  0  0
 35 65  1  0  0  0  0
 35 75  1  0  0  0  0
 35 87  2  0  0  0  0
 36 66  1  0  0  0  0
 36 83  1  0  0  0  0
 36 88  2  0  0  0  0
 37 76  1  0  0  0  0
 37 80  1  0  0  0  0
 37 89  2  0  0  0  0
 38 41  1  0  0  0  0
 39 48  1  0  0  0  0
 40 75  1  0  0  0  0
 41 43  1  0  0  0  0
 42 44  1  0  0  0  0
 42 45  1  0  0  0  0
 43 47  1  0  0  0  0
 44 49  1  0  0  0  0
 45 76  1  0  0  0  0
 46 49  1  0  0  0  0
 46 76  1  0  0  0  0
 47 82  1  0  0  0  0
 48 75  1  0  0  0  0
 49 74  1  0  0  0  0
 50 61  1  0  0  0  0
 51 66  1  0  0  0  0
 52 67  1  0  0  0  0
 53 68  1  0  0  0  0
 54 70  1  0  0  0  0
 55 70  1  0  0  0  0
 56 70  1  0  0  0  0
 57 71  1  0  0  0  0
 58 71  1  0  0  0  0
 59 71  1  0  0  0  0
 60 84  1  0  0  0  0
 61 67  1  0  0  0  0
 62 63  1  0  0  0  0
 62 64  1  0  0  0  0
 63 68  1  0  0  0  0
 64 91  1  0  0  0  0
 65 70  1  0  0  0  0
 65 83  1  0  0  0  0
 66 84  1  0  0  0  0
 67 69  1  0  0  0  0
 68 81  1  0  0  0  0
 69 71  1  0  0  0  0
 69 79  1  0  0  0  0
 72 74  1  0  0  0  0
M  CHG  1  84   1
M  ISO  4  37 100  64 101  80 100  91 101
M  END
> <Batch ID>
0194

> <Smiles>
CCC(C)C(Nc1ccc([100NH:0][100C:0](=O)N2CCCC(n3nc(-c4ccc(Oc5ccc(F)cc5F)cc4)c(C(N)=O)c3N)C2)nc1NC(C)CC[101CH2:1][101O:1]c1ccc2c(c1)CN(C(=O)C(NC(=O)C(C)NC)C(C)(C)C)C(C(=O)NC1CCCc3ccccc31)C2)C(C)(C)C

> <Shape>
0.234

> <Color>
0.070

> <Negative vol penalty>
0.000

$$$$

  -OEChem-04052305333D

 84 92  0     1  0  0  0  0  0999 V2000
  -18.2047  -32.5377   21.8236 C   0  0  0  0  0  0  0  0  0  0  0  0
  -19.5332  -32.5335   21.4109 C   0  0  0  0  0  0  0  0  0  0  0  0
  -26.4266  -13.0477   21.6693 C   0  0  0  0  0  0  0  0  0  0  0  0
  -25.9677  -14.0796   19.5334 C   0  0  0  0  0  0  0  0  0  0  0  0
  -17.7720  -31.6264   22.7860 C   0  0  0  0  0  0  0  0  0  0  0  0
  -20.4302  -31.6186   21.9612 C   0  0  0  0  0  0  0  0  0  0  0  0
  -25.1221  -28.8970   19.1178 C   0  0  0  0  0  0  0  0  0  0  0  0
  -25.1568  -12.4706   21.6633 C   0  0  0  0  0  0  0  0  0  0  0  0
  -24.6979  -13.5024   19.5275 C   0  0  0  0  0  0  0  0  0  0  0  0
  -26.4886  -29.1722   19.0890 C   0  0  0  0  0  0  0  0  0  0  0  0
  -22.1701  -10.4328   22.0402 C   0  0  0  0  0  0  0  0  0  0  0  0
  -22.0664   -9.0899   22.4027 C   0  0  0  0  0  0  0  0  0  0  0  0
  -26.8458  -27.5515   20.8396 C   0  0  0  0  0  0  0  0  0  0  0  0
  -23.5239   -8.4835   20.5738 C   0  0  0  0  0  0  0  0  0  0  0  0
  -29.1415  -21.4524   17.5972 C   0  0  0  0  0  0  0  0  0  0  0  0
  -26.8321  -13.8522   20.6043 C   0  0  0  0  0  0  0  0  0  0  0  0
  -29.3301  -13.8992   20.0893 C   0  0  0  0  0  0  0  0  0  0  0  0
  -18.6618  -30.6935   23.3413 C   0  0  0  0  0  0  0  0  0  0  0  0
  -24.6050  -27.9533   20.0169 C   0  0  0  0  0  0  0  0  0  0  0  0
  -20.0093  -30.6948   22.9329 C   0  0  0  0  0  0  0  0  0  0  0  0
  -25.4728  -27.2643   20.8761 C   0  0  0  0  0  0  0  0  0  0  0  0
  -24.2924  -12.6979   20.5924 C   0  0  0  0  0  0  0  0  0  0  0  0
  -27.3503  -28.5015   19.9519 C   0  0  0  0  0  0  0  0  0  0  0  0
  -22.9507  -10.8011   20.9444 C   0  0  0  0  0  0  0  0  0  0  0  0
  -22.7433   -8.1152   21.6696 C   0  0  0  0  0  0  0  0  0  0  0  0
  -23.6276   -9.8264   20.2112 C   0  0  0  0  0  0  0  0  0  0  0  0
  -28.1435  -14.4491   20.6102 C   0  0  0  0  0  0  0  0  0  0  0  0
  -29.2269  -22.4753   16.6748 C   0  0  0  0  0  0  0  0  0  0  0  0
  -29.6627  -21.7284   18.8447 C   0  0  0  0  0  0  0  0  0  0  0  0
  -30.2888  -14.8498   20.3417 C   0  0  0  0  0  0  0  0  0  0  0  0
  -30.2494  -23.8251   18.1913 C   0  0  0  0  0  0  0  0  0  0  0  0
  -29.5465  -12.6415   19.4358 C   0  0  0  0  0  0  0  0  0  0  0  0
  -22.5443  -28.0531   22.4350 C   0  0  0  0  0  0  0  0  0  0  0  0
  -22.9401  -24.8338   22.3948 C   0  0  0  0  0  0  0  0  0  0  0  0
  -24.9000  -22.1658   21.5657 C   0  0  0  0  0  0  0  0  0  0  0  0
  -30.0594  -20.7673   21.1393 C   0  0  0  0  0  0  0  0  0  0  0  0
  -18.1587  -29.7593   24.4131 C   0  0  0  0  0  0  0  0  0  0  0  0
  -23.1320  -27.6485   20.0170 C   0  0  0  0  0  0  0  0  0  0  0  0
  -24.9704  -26.2273   21.8460 C   0  0  0  0  0  0  0  0  0  0  0  0
  -19.0862  -28.5751   24.6734 C   0  0  0  0  0  0  0  0  0  0  0  0
  -31.3631  -18.3606   23.4165 C   0  0  0  0  0  0  0  0  0  0  0  0
  -20.5325  -29.0455   24.7908 C   0  0  0  0  0  0  0  0  0  0  0  0
  -30.7984  -17.0337   22.9043 C   0  0  0  0  0  0  0  0  0  0  0  0
  -30.3611  -19.5027   23.2571 C   0  0  0  0  0  0  0  0  0  0  0  0
  -29.2508  -18.3386   21.3912 C   0  0  0  0  0  0  0  0  0  0  0  0
  -21.0067  -29.7014   23.4884 C   0  0  1  0  0  0  0  0  0  0  0  0
  -22.6478  -27.0405   21.3298 C   0  0  1  0  0  0  0  0  0  0  0  0
  -30.2480  -17.1712   21.4712 C   0  0  2  0  0  0  0  0  0  0  0  0
  -24.9735  -19.6606   21.6924 C   0  0  0  0  0  0  0  0  0  0  0  0
  -23.6250  -25.0065   25.3631 C   0  0  0  0  0  0  0  0  0  0  0  0
  -24.5907  -22.7021   25.2030 C   0  0  0  0  0  0  0  0  0  0  0  0
  -22.1677  -23.0721   24.7396 C   0  0  0  0  0  0  0  0  0  0  0  0
  -25.0054  -21.9041   18.6196 C   0  0  0  0  0  0  0  0  0  0  0  0
  -30.8858  -27.9007   19.5457 C   0  0  0  0  0  0  0  0  0  0  0  0
  -31.3750  -25.3726   19.7924 C   0  0  0  0  0  0  0  0  0  0  0  0
  -29.5669  -27.7040   20.2783 C   0  0  0  0  0  0  0  0  0  1  0  0
  -23.8855  -23.8644   23.0623 C   0  0  1  0  0  0  0  0  0  0  0  0
  -24.5810  -20.8651   20.8510 C   0  0  2  0  0  0  0  0  0  0  0  0
  -31.9176  -26.8024   19.8231 C   0  0  1  0  0  0  0  0  0  0  0  0
  -23.5768  -23.6822   24.5752 C   0  0  0  0  0  0  0  0  0  0  0  0
  -28.3290  -15.6555   21.1526 N   0  0  0  0  0  0  0  0  0  0  0  0
  -29.7765  -23.6788   16.9389 N   0  0  0  0  0  0  0  0  0  0  0  0
  -30.2262  -22.9083   19.1774 N   0  0  0  0  0  0  0  0  0  0  0  0
  -29.6433  -15.8715   20.9740 N   0  0  0  0  0  0  0  0  0  0  0  0
  -23.5214  -25.9691   21.8126 N   0  0  0  0  0  0  0  0  0  0  0  0
  -29.8864  -19.5749   21.8735 N   0  0  0  0  0  0  0  0  0  0  0  0
  -28.7029  -22.2330   15.3813 N   0  0  0  0  0  0  0  0  0  0  0  0
  -31.6125  -14.9031   20.0822 N   0  0  0  0  0  0  0  0  0  0  0  0
  -28.4521  -11.7842   19.2576 N   0  0  0  0  0  0  0  0  0  0  0  0
  -29.5983  -20.7070   19.8246 N   0  0  0  0  0  0  0  0  0  0  0  0
  -30.8202  -25.0492   18.4979 N   0  0  0  0  0  0  0  0  0  0  0  0
  -21.3210  -28.6925   22.4996 N   0  0  0  0  0  0  0  0  0  0  0  0
  -23.8203  -22.6308   22.2863 N   0  0  0  0  0  0  0  0  0  0  0  0
  -25.3141  -20.7925   19.5556 N   0  3  0  0  0  0  0  0  0  0  0  0
  -30.6799  -12.2813   19.0367 O   0  0  0  0  0  0  0  0  0  0  0  0
  -23.5029  -28.2395   23.1754 O   0  0  0  0  0  0  0  0  0  0  0  0
  -21.7311  -24.5890   22.3839 O   0  0  0  0  0  0  0  0  0  0  0  0
  -25.9984  -22.7126   21.4950 O   0  0  0  0  0  0  0  0  0  0  0  0
  -30.6030  -21.7594   21.6315 O   0  0  0  0  0  0  0  0  0  0  0  0
  -32.9715  -26.9014   18.8634 O   0  0  0  0  0  0  0  0  0  0  0  0
  -23.0533  -12.1348   20.5862 O   0  0  0  0  0  0  0  0  0  0  0  0
  -28.6844  -28.7687   19.9263 O   0  0  0  0  0  0  0  0  0  1  0  0
  -22.6448   -6.8259   22.0188 F   0  0  0  0  0  0  0  0  0  0  0  0
  -24.3800  -10.1743   19.1582 F   0  0  0  0  0  0  0  0  0  0  0  0
  1  2  1  0  0  0  0
  1  5  2  0  0  0  0
  2  6  2  0  0  0  0
  3  8  2  0  0  0  0
  3 16  1  0  0  0  0
  4  9  1  0  0  0  0
  4 16  2  0  0  0  0
  5 18  1  0  0  0  0
  6 20  1  0  0  0  0
  7 10  2  0  0  0  0
  7 19  1  0  0  0  0
  8 22  1  0  0  0  0
  9 22  2  0  0  0  0
 10 23  1  0  0  0  0
 11 12  2  0  0  0  0
 11 24  1  0  0  0  0
 12 25  1  0  0  0  0
 13 21  1  0  0  0  0
 13 23  2  0  0  0  0
 14 25  2  0  0  0  0
 14 26  1  0  0  0  0
 15 28  1  0  0  0  0
 15 29  2  0  0  0  0
 16 27  1  0  0  0  0
 17 27  1  0  0  0  0
 17 30  2  0  0  0  0
 17 32  1  0  0  0  0
 18 20  2  0  0  0  0
 18 37  1  0  0  0  0
 19 21  2  0  0  0  0
 19 38  1  0  0  0  0
 20 46  1  0  0  0  0
 21 39  1  0  0  0  0
 22 81  1  0  0  0  0
 23 82  1  0  0  0  0
 24 26  2  0  0  0  0
 24 81  1  0  0  0  0
 25 83  1  0  0  0  0
 26 84  1  0  0  0  0
 27 61  2  0  0  0  0
 28 62  2  0  0  0  0
 28 67  1  0  0  0  0
 29 63  1  0  0  0  0
 29 70  1  0  0  0  0
 30 64  1  0  0  0  0
 30 68  1  0  0  0  0
 31 62  1  0  0  0  0
 31 63  2  0  0  0  0
 31 71  1  0  0  0  0
 32 69  1  0  0  0  0
 32 75  2  0  0  0  0
 33 47  1  0  0  0  0
 33 72  1  0  0  0  0
 33 76  2  0  0  0  0
 34 57  1  0  0  0  0
 34 65  1  0  0  0  0
 34 77  2  0  0  0  0
 35 58  1  0  0  0  0
 35 73  1  0  0  0  0
 35 78  2  0  0  0  0
 36 66  1  0  0  0  0
 36 70  1  0  0  0  0
 36 79  2  0  0  0  0
 37 40  1  0  0  0  0
 38 47  1  0  0  0  0
 39 65  1  0  0  0  0
 40 42  1  0  0  0  0
 41 43  1  0  0  0  0
 41 44  1  0  0  0  0
 42 46  1  0  0  0  0
 43 48  1  0  0  0  0
 44 66  1  0  0  0  0
 45 48  1  0  0  0  0
 45 66  1  0  0  0  0
 46 72  1  0  0  0  0
 47 65  1  0  0  0  0
 48 64  1  0  0  0  0
 49 58  1  0  0  0  0
 50 60  1  0  0  0  0
 51 60  1  0  0  0  0
 52 60  1  0  0  0  0
 53 74  1  0  0  0  0
 54 56  1  0  0  0  0
 54 59  1  0  0  0  0
 55 59  1  0  0  0  0
 55 71  1  0  0  0  0
 56 82  1  0  0  0  0
 57 60  1  0  0  0  0
 57 73  1  0  0  0  0
 58 74  1  0  0  0  0
 59 80  1  0  0  0  0
 61 64  1  0  0  0  0
M  CHG  1  74   1
M  ISO  4  36 100  56 101  70 100  82 101
M  END
> <Batch ID>
0194

> <Smiles>
CNC(C)C(=O)NC(C(=O)N1Cc2cc([101O:1][101CH2:1]CC(O)CNc3nc(N)cc([100NH:0][100C:0](=O)N4CCCC(n5nc(-c6ccc(Oc7ccc(F)cc7F)cc6)c(C(N)=O)c5N)C4)n3)ccc2CC1C(=O)NC1CCCc2ccccc21)C(C)(C)C

> <Shape>
0.281

> <Color>
0.088

> <Negative vol penalty>
0.000

$$$$

  -OEChem-04052305333D

 85 93  0     1  0  0  0  0  0999 V2000
  -19.3999  -27.4803   26.4702 C   0  0  0  0  0  0  0  0  0  0  0  0
  -20.6224  -27.0686   25.9494 C   0  0  0  0  0  0  0  0  0  0  0  0
  -24.8395   -8.6369   20.1192 C   0  0  0  0  0  0  0  0  0  0  0  0
  -25.2596   -9.1472   22.4430 C   0  0  0  0  0  0  0  0  0  0  0  0
  -18.5004  -28.1787   25.6657 C   0  0  0  0  0  0  0  0  0  0  0  0
  -20.9458  -27.3541   24.6234 C   0  0  0  0  0  0  0  0  0  0  0  0
  -26.4969  -28.6504   22.3850 C   0  0  0  0  0  0  0  0  0  0  0  0
  -24.7697   -7.2789   20.4300 C   0  0  0  0  0  0  0  0  0  0  0  0
  -25.1897   -7.7892   22.7539 C   0  0  0  0  0  0  0  0  0  0  0  0
  -27.4482  -27.8721   21.7270 C   0  0  0  0  0  0  0  0  0  0  0  0
  -24.7637   -4.4886   24.2175 C   0  0  0  0  0  0  0  0  0  0  0  0
  -24.0254   -4.1168   25.3410 C   0  0  0  0  0  0  0  0  0  0  0  0
  -26.6097  -28.6527   19.6041 C   0  0  0  0  0  0  0  0  0  0  0  0
  -26.9575  -21.2715   22.6054 C   0  0  0  0  0  0  0  0  0  0  0  0
  -26.2753  -18.9612   22.5773 C   0  0  0  0  0  0  0  0  0  0  0  0
  -22.0439   -5.0926   24.3618 C   0  0  0  0  0  0  0  0  0  0  0  0
  -25.0846   -9.5711   21.1257 C   0  0  0  0  0  0  0  0  0  0  0  0
  -24.0968  -11.8995   20.7938 C   0  0  0  0  0  0  0  0  0  0  0  0
  -18.8170  -28.4813   24.3320 C   0  0  0  0  0  0  0  0  0  0  0  0
  -25.5863  -29.4287   21.6560 C   0  0  0  0  0  0  0  0  0  0  0  0
  -20.0492  -28.0560   23.7999 C   0  0  0  0  0  0  0  0  0  0  0  0
  -25.6495  -29.4421   20.2553 C   0  0  0  0  0  0  0  0  0  0  0  0
  -26.0353  -20.2838   22.9378 C   0  0  0  0  0  0  0  0  0  0  0  0
  -24.9447   -6.8551   21.7473 C   0  0  0  0  0  0  0  0  0  0  0  0
  -27.5028  -27.8709   20.3363 C   0  0  0  0  0  0  0  0  0  0  0  0
  -24.1422   -5.1624   23.1661 C   0  0  0  0  0  0  0  0  0  0  0  0
  -22.6655   -4.4188   25.4132 C   0  0  0  0  0  0  0  0  0  0  0  0
  -22.7823   -5.4644   23.2383 C   0  0  0  0  0  0  0  0  0  0  0  0
  -25.1574  -10.9739   20.8052 C   0  0  0  0  0  0  0  0  0  0  0  0
  -28.1056  -20.9090   21.9154 C   0  0  0  0  0  0  0  0  0  0  0  0
  -24.6816  -13.0873   20.4282 C   0  0  0  0  0  0  0  0  0  0  0  0
  -27.4406  -18.6572   21.8879 C   0  0  0  0  0  0  0  0  0  0  0  0
  -22.7073  -11.7032   21.0876 C   0  0  0  0  0  0  0  0  0  0  0  0
  -22.4224  -29.4874   21.3561 C   0  0  0  0  0  0  0  0  0  0  0  0
  -23.0278  -32.1498   19.6048 C   0  0  0  0  0  0  0  0  0  0  0  0
  -25.2354  -33.9270   17.7035 C   0  0  0  0  0  0  0  0  0  0  0  0
  -28.7963  -16.8172   20.8283 C   0  0  0  0  0  0  0  0  0  0  0  0
  -17.7930  -29.1972   23.4873 C   0  0  0  0  0  0  0  0  0  0  0  0
  -24.5836  -30.2835   22.3815 C   0  0  0  0  0  0  0  0  0  0  0  0
  -24.7077  -30.2759   19.4269 C   0  0  0  0  0  0  0  0  0  0  0  0
  -18.3682  -29.7868   22.2021 C   0  0  0  0  0  0  0  0  0  0  0  0
  -29.3118  -14.0635   18.6309 C   0  0  0  0  0  0  0  0  0  0  0  0
  -19.2536  -28.7652   21.4956 C   0  0  0  0  0  0  0  0  0  0  0  0
  -28.1897  -13.0904   18.9998 C   0  0  0  0  0  0  0  0  0  0  0  0
  -29.8581  -14.7907   19.8583 C   0  0  0  0  0  0  0  0  0  0  0  0
  -27.7240  -14.4900   21.0519 C   0  0  0  0  0  0  0  0  0  0  0  0
  -20.4467  -28.3684   22.3735 C   0  0  1  0  0  0  0  0  0  0  0  0
  -23.3718  -30.6396   21.5258 C   0  0  1  0  0  0  0  0  0  0  0  0
  -27.0977  -13.7816   19.8396 C   0  0  2  0  0  0  0  0  0  0  0  0
  -29.7709  -22.6322   22.7213 C   0  0  0  0  0  0  0  0  0  0  0  0
  -25.4305  -36.0482   16.3769 C   0  0  0  0  0  0  0  0  0  0  0  0
  -30.1816  -22.6246   18.7156 C   0  0  0  0  0  0  0  0  0  0  0  0
  -21.3894  -30.8930   17.3585 C   0  0  0  0  0  0  0  0  0  0  0  0
  -22.3935  -32.5627   15.7862 C   0  0  0  0  0  0  0  0  0  0  0  0
  -20.9911  -33.3386   17.6978 C   0  0  0  0  0  0  0  0  0  0  0  0
  -27.4196  -34.9393   19.4249 C   0  0  0  0  0  0  0  0  0  0  0  0
  -29.2604  -24.8998   19.2703 C   0  0  0  0  0  0  0  0  0  0  0  0
  -28.8472  -25.9091   20.3367 C   0  0  0  0  0  0  0  0  0  1  0  0
  -29.1574  -21.9215   21.5166 C   0  0  2  0  0  0  0  0  0  0  0  0
  -23.3073  -32.4306   18.1481 C   0  0  1  0  0  0  0  0  0  0  0  0
  -25.6393  -35.3900   17.7319 C   0  0  2  0  0  0  0  0  0  0  0  0
  -29.7113  -23.5468   19.8397 C   0  0  1  0  0  0  0  0  0  0  0  0
  -22.0369  -32.2889   17.2629 C   0  0  0  0  0  0  0  0  0  0  0  0
  -26.3273  -11.5262   20.4729 N   0  0  0  0  0  0  0  0  0  0  0  0
  -26.0053  -12.8116   20.2493 N   0  0  0  0  0  0  0  0  0  0  0  0
  -28.3117  -19.6279   21.5806 N   0  3  0  0  0  0  0  0  0  0  0  0
  -23.7411  -31.0899   20.1823 N   0  0  0  0  0  0  0  0  0  0  0  0
  -28.7676  -15.4248   20.6024 N   0  0  0  0  0  0  0  0  0  0  0  0
  -24.8596  -20.6225   23.6387 N   0  0  0  0  0  0  0  0  0  0  0  0
  -24.1874  -14.3302   20.2453 N   0  0  0  0  0  0  0  0  0  0  0  0
  -22.2752  -10.4193   21.4469 N   0  0  0  0  0  0  0  0  0  0  0  0
  -27.6902  -17.3123   21.5183 N   0  0  0  0  0  0  0  0  0  0  0  0
  -21.4608  -29.4004   22.3447 N   0  0  0  0  0  0  0  0  0  0  0  0
  -23.9261  -33.7509   18.0983 N   0  0  0  0  0  0  0  0  0  0  0  0
  -28.6271  -22.8877   20.5678 N   0  0  0  0  0  0  0  0  0  0  0  0
  -27.0765  -35.5235   18.1028 N   0  3  0  0  0  0  0  0  0  0  0  0
  -21.8706  -12.6352   21.0172 O   0  0  0  0  0  0  0  0  0  0  0  0
  -22.5517  -28.7339   20.3984 O   0  0  0  0  0  0  0  0  0  0  0  0
  -22.2121  -32.8499   20.2100 O   0  0  0  0  0  0  0  0  0  0  0  0
  -26.0034  -33.0305   17.3614 O   0  0  0  0  0  0  0  0  0  0  0  0
  -29.7198  -17.5229   20.4146 O   0  0  0  0  0  0  0  0  0  0  0  0
  -24.8764   -5.5301   22.0511 O   0  0  0  0  0  0  0  0  0  0  0  0
  -28.4299  -27.1115   19.6915 O   0  0  0  0  0  0  0  0  0  1  0  0
  -21.9563   -4.0604   26.4915 F   0  0  0  0  0  0  0  0  0  0  0  0
  -22.1794   -6.1105   22.2308 F   0  0  0  0  0  0  0  0  0  0  0  0
  1  2  1  0  0  0  0
  1  5  2  0  0  0  0
  2  6  2  0  0  0  0
  3  8  2  0  0  0  0
  3 17  1  0  0  0  0
  4  9  1  0  0  0  0
  4 17  2  0  0  0  0
  5 19  1  0  0  0  0
  6 21  1  0  0  0  0
  7 10  2  0  0  0  0
  7 20  1  0  0  0  0
  8 24  1  0  0  0  0
  9 24  2  0  0  0  0
 10 25  1  0  0  0  0
 11 12  2  0  0  0  0
 11 26  1  0  0  0  0
 12 27  1  0  0  0  0
 13 22  1  0  0  0  0
 13 25  2  0  0  0  0
 14 23  2  0  0  0  0
 14 30  1  0  0  0  0
 15 23  1  0  0  0  0
 15 32  2  0  0  0  0
 16 27  2  0  0  0  0
 16 28  1  0  0  0  0
 17 29  1  0  0  0  0
 18 29  1  0  0  0  0
 18 31  2  0  0  0  0
 18 33  1  0  0  0  0
 19 21  2  0  0  0  0
 19 38  1  0  0  0  0
 20 22  2  0  0  0  0
 20 39  1  0  0  0  0
 21 47  1  0  0  0  0
 22 40  1  0  0  0  0
 23 69  1  0  0  0  0
 24 82  1  0  0  0  0
 25 83  1  0  0  0  0
 26 28  2  0  0  0  0
 26 82  1  0  0  0  0
 27 84  1  0  0  0  0
 28 85  1  0  0  0  0
 29 64  2  0  0  0  0
 30 59  1  0  0  0  0
 30 66  2  0  0  0  0
 31 65  1  0  0  0  0
 31 70  1  0  0  0  0
 32 66  1  0  0  0  0
 32 72  1  0  0  0  0
 33 71  1  0  0  0  0
 33 77  2  0  0  0  0
 34 48  1  0  0  0  0
 34 73  1  0  0  0  0
 34 78  2  0  0  0  0
 35 60  1  0  0  0  0
 35 67  1  0  0  0  0
 35 79  2  0  0  0  0
 36 61  1  0  0  0  0
 36 74  1  0  0  0  0
 36 80  2  0  0  0  0
 37 68  1  0  0  0  0
 37 72  1  0  0  0  0
 37 81  2  0  0  0  0
 38 41  1  0  0  0  0
 39 48  1  0  0  0  0
 40 67  1  0  0  0  0
 41 43  1  0  0  0  0
 42 44  1  0  0  0  0
 42 45  1  0  0  0  0
 43 47  1  0  0  0  0
 44 49  1  0  0  0  0
 45 68  1  0  0  0  0
 46 49  1  0  0  0  0
 46 68  1  0  0  0  0
 47 73  1  0  0  0  0
 48 67  1  0  0  0  0
 49 65  1  0  0  0  0
 50 59  1  0  0  0  0
 51 61  1  0  0  0  0
 52 62  1  0  0  0  0
 53 63  1  0  0  0  0
 54 63  1  0  0  0  0
 55 63  1  0  0  0  0
 56 76  1  0  0  0  0
 57 58  1  0  0  0  0
 57 62  1  0  0  0  0
 58 83  1  0  0  0  0
 59 75  1  0  0  0  0
 60 63  1  0  0  0  0
 60 74  1  0  0  0  0
 61 76  1  0  0  0  0
 62 75  1  0  0  0  0
 64 65  1  0  0  0  0
M  CHG  2  66   1  76   1
M  ISO  4  37 100  58 101  72 100  83 101
M  END
> <Batch ID>
0194

> <Smiles>
CNC(C)C(=O)NC(C(=O)N1Cc2cc([101O:1][101CH2:1]CC(C)NC(C)c3cc(N)cc([100NH:0][100C:0](=O)N4CCCC(n5nc(-c6ccc(Oc7ccc(F)cc7F)cc6)c(C(N)=O)c5N)C4)n3)ccc2CC1C(=O)NC1CCCc2ccccc21)C(C)(C)C

> <Shape>
0.272

> <Color>
0.109

> <Negative vol penalty>
0.000

$$$$

  -OEChem-04052305333D

 85 93  0     1  0  0  0  0  0999 V2000
  -20.7093  -24.2836   23.9962 C   0  0  0  0  0  0  0  0  0  0  0  0
  -21.7361  -24.5270   23.0897 C   0  0  0  0  0  0  0  0  0  0  0  0
  -23.5887   -9.5888   22.9163 C   0  0  0  0  0  0  0  0  0  0  0  0
  -23.2883  -10.2361   20.6080 C   0  0  0  0  0  0  0  0  0  0  0  0
  -19.6465  -25.1799   24.1011 C   0  0  0  0  0  0  0  0  0  0  0  0
  -21.7002  -25.6663   22.2866 C   0  0  0  0  0  0  0  0  0  0  0  0
  -26.1697  -28.0381   22.0781 C   0  0  0  0  0  0  0  0  0  0  0  0
  -22.9001   -8.4005   22.6726 C   0  0  0  0  0  0  0  0  0  0  0  0
  -22.5998   -9.0478   20.3644 C   0  0  0  0  0  0  0  0  0  0  0  0
  -27.1431  -27.4898   21.2441 C   0  0  0  0  0  0  0  0  0  0  0  0
  -23.5445   -5.3896   21.2755 C   0  0  0  0  0  0  0  0  0  0  0  0
  -24.0858   -4.2102   21.7868 C   0  0  0  0  0  0  0  0  0  0  0  0
  -26.6119  -29.1292   19.5562 C   0  0  0  0  0  0  0  0  0  0  0  0
  -22.0786   -3.8507   23.0825 C   0  0  0  0  0  0  0  0  0  0  0  0
  -27.6149  -19.0742   20.0645 C   0  0  0  0  0  0  0  0  0  0  0  0
  -23.7828  -10.5067   21.8840 C   0  0  0  0  0  0  0  0  0  0  0  0
  -25.8789  -11.9545   22.0163 C   0  0  0  0  0  0  0  0  0  0  0  0
  -19.6024  -26.3358   23.3057 C   0  0  0  0  0  0  0  0  0  0  0  0
  -25.4012  -29.1310   21.6524 C   0  0  0  0  0  0  0  0  0  0  0  0
  -20.6351  -26.5783   22.3799 C   0  0  0  0  0  0  0  0  0  0  0  0
  -25.6311  -29.6911   20.3876 C   0  0  0  0  0  0  0  0  0  0  0  0
  -22.4056   -8.1300   21.3967 C   0  0  0  0  0  0  0  0  0  0  0  0
  -27.3624  -28.0335   19.9818 C   0  0  0  0  0  0  0  0  0  0  0  0
  -22.2702   -5.7996   21.6677 C   0  0  0  0  0  0  0  0  0  0  0  0
  -23.3529   -3.4407   22.6903 C   0  0  0  0  0  0  0  0  0  0  0  0
  -21.5373   -5.0301   22.5712 C   0  0  0  0  0  0  0  0  0  0  0  0
  -24.4935  -11.7346   22.1351 C   0  0  0  0  0  0  0  0  0  0  0  0
  -28.3160  -21.2493   19.9813 C   0  0  0  0  0  0  0  0  0  0  0  0
  -26.5500  -19.4477   20.8544 C   0  0  0  0  0  0  0  0  0  0  0  0
  -27.2507  -21.6230   20.7705 C   0  0  0  0  0  0  0  0  0  0  0  0
  -26.0483  -13.2727   22.3631 C   0  0  0  0  0  0  0  0  0  0  0  0
  -26.9196  -11.0483   21.6273 C   0  0  0  0  0  0  0  0  0  0  0  0
  -29.3200  -22.2054   19.4729 C   0  0  0  0  0  0  0  0  0  0  0  0
  -22.3048  -29.6309   21.1364 C   0  0  0  0  0  0  0  0  0  0  0  0
  -23.2751  -32.6909   20.6698 C   0  0  0  0  0  0  0  0  0  0  0  0
  -25.7971  -34.8364   19.8434 C   0  0  0  0  0  0  0  0  0  0  0  0
  -24.5146  -18.6181   22.0854 C   0  0  0  0  0  0  0  0  0  0  0  0
  -18.4093  -27.2512   23.4209 C   0  0  0  0  0  0  0  0  0  0  0  0
  -24.3734  -29.7277   22.5743 C   0  0  0  0  0  0  0  0  0  0  0  0
  -24.8469  -30.8774   19.8912 C   0  0  0  0  0  0  0  0  0  0  0  0
  -18.6350  -28.6272   22.7997 C   0  0  0  0  0  0  0  0  0  0  0  0
  -22.8269  -16.5680   24.4572 C   0  0  0  0  0  0  0  0  0  0  0  0
  -19.2709  -28.4921   21.4198 C   0  0  0  0  0  0  0  0  0  0  0  0
  -23.2240  -15.1459   24.0548 C   0  0  0  0  0  0  0  0  0  0  0  0
  -22.6369  -17.4700   23.2390 C   0  0  0  0  0  0  0  0  0  0  0  0
  -24.1666  -16.0763   21.9024 C   0  0  0  0  0  0  0  0  0  0  0  0
  -20.6443  -27.8158   21.5090 C   0  0  1  0  0  0  0  0  0  0  0  0
  -23.2958  -30.5168   21.8371 C   0  0  1  0  0  0  0  0  0  0  0  0
  -24.4327  -15.1476   23.0984 C   0  0  2  0  0  0  0  0  0  0  0  0
  -26.2773  -37.2769   19.5101 C   0  0  0  0  0  0  0  0  0  0  0  0
  -21.8416  -32.6028   17.9778 C   0  0  0  0  0  0  0  0  0  0  0  0
  -23.1252  -34.6447   17.3061 C   0  0  0  0  0  0  0  0  0  0  0  0
  -21.5556  -34.7413   19.2426 C   0  0  0  0  0  0  0  0  0  0  0  0
  -27.8190  -34.8526   22.0046 C   0  0  0  0  0  0  0  0  0  0  0  0
  -29.8036  -24.2163   18.1241 C   0  0  0  0  0  0  0  0  0  0  0  0
  -28.5751  -26.1040   19.3018 C   0  0  0  0  0  0  0  0  0  1  0  0
  -23.7422  -33.4947   19.4805 C   0  0  1  0  0  0  0  0  0  0  0  0
  -26.2832  -36.1183   20.4953 C   0  0  2  0  0  0  0  0  0  0  0  0
  -29.0687  -25.5427   17.9723 C   0  0  2  0  0  0  0  0  0  0  0  0
  -22.5797  -33.8473   18.5100 C   0  0  0  0  0  0  0  0  0  0  0  0
  -28.5171  -19.9683   19.6138 N   0  0  0  0  0  0  0  0  0  0  0  0
  -23.8300  -12.8256   22.5269 N   0  0  0  0  0  0  0  0  0  0  0  0
  -26.3487  -20.7288   21.2215 N   0  0  0  0  0  0  0  0  0  0  0  0
  -24.8026  -13.7438   22.6573 N   0  0  0  0  0  0  0  0  0  0  0  0
  -23.8489  -31.4212   20.8270 N   0  0  0  0  0  0  0  0  0  0  0  0
  -23.8229  -17.4244   22.3811 N   0  0  0  0  0  0  0  0  0  0  0  0
  -27.0967  -22.9836   21.1199 N   0  0  0  0  0  0  0  0  0  0  0  0
  -27.1398  -14.0632   22.4420 N   0  0  0  0  0  0  0  0  0  0  0  0
  -26.5711   -9.7299   21.3037 N   0  0  0  0  0  0  0  0  0  0  0  0
  -30.5939  -22.0225   19.8202 N   0  0  0  0  0  0  0  0  0  0  0  0
  -25.6453  -18.4468   21.2874 N   0  0  0  0  0  0  0  0  0  0  0  0
  -21.6411  -28.7558   21.9750 N   0  0  0  0  0  0  0  0  0  0  0  0
  -24.4418  -34.6551   20.0214 N   0  0  0  0  0  0  0  0  0  0  0  0
  -28.9035  -23.2087   18.6915 N   0  3  0  0  0  0  0  0  0  0  0  0
  -27.6716  -35.9445   21.0081 N   0  3  0  0  0  0  0  0  0  0  0  0
  -28.1250  -11.3929   21.5842 O   0  0  0  0  0  0  0  0  0  0  0  0
  -22.1525  -29.7348   19.9249 O   0  0  0  0  0  0  0  0  0  0  0  0
  -22.4375  -33.1746   21.4354 O   0  0  0  0  0  0  0  0  0  0  0  0
  -26.5442  -34.0743   19.2339 O   0  0  0  0  0  0  0  0  0  0  0  0
  -24.1476  -19.7083   22.5312 O   0  0  0  0  0  0  0  0  0  0  0  0
  -27.9442  -25.3670   17.1107 O   0  0  0  0  0  0  0  0  0  0  0  0
  -21.7339   -6.9704   21.1586 O   0  0  0  0  0  0  0  0  0  0  0  0
  -28.3115  -27.4998   19.1655 O   0  0  0  0  0  0  0  0  0  1  0  0
  -23.8722   -2.3073   23.1801 F   0  0  0  0  0  0  0  0  0  0  0  0
  -20.3121   -5.4183   22.9508 F   0  0  0  0  0  0  0  0  0  0  0  0
  1  2  1  0  0  0  0
  1  5  2  0  0  0  0
  2  6  2  0  0  0  0
  3  8  2  0  0  0  0
  3 16  1  0  0  0  0
  4  9  1  0  0  0  0
  4 16  2  0  0  0  0
  5 18  1  0  0  0  0
  6 20  1  0  0  0  0
  7 10  2  0  0  0  0
  7 19  1  0  0  0  0
  8 22  1  0  0  0  0
  9 22  2  0  0  0  0
 10 23  1  0  0  0  0
 11 12  2  0  0  0  0
 11 24  1  0  0  0  0
 12 25  1  0  0  0  0
 13 21  1  0  0  0  0
 13 23  2  0  0  0  0
 14 25  2  0  0  0  0
 14 26  1  0  0  0  0
 15 29  1  0  0  0  0
 15 61  2  0  0  0  0
 16 27  1  0  0  0  0
 17 27  1  0  0  0  0
 17 31  2  0  0  0  0
 17 32  1  0  0  0  0
 18 20  2  0  0  0  0
 18 38  1  0  0  0  0
 19 21  2  0  0  0  0
 19 39  1  0  0  0  0
 20 47  1  0  0  0  0
 21 40  1  0  0  0  0
 22 82  1  0  0  0  0
 23 83  1  0  0  0  0
 24 26  2  0  0  0  0
 24 82  1  0  0  0  0
 25 84  1  0  0  0  0
 26 85  1  0  0  0  0
 27 62  2  0  0  0  0
 28 30  2  0  0  0  0
 28 33  1  0  0  0  0
 28 61  1  0  0  0  0
 29 63  2  0  0  0  0
 29 71  1  0  0  0  0
 30 63  1  0  0  0  0
 30 67  1  0  0  0  0
 31 64  1  0  0  0  0
 31 68  1  0  0  0  0
 32 69  1  0  0  0  0
 32 76  2  0  0  0  0
 33 70  1  0  0  0  0
 33 74  2  0  0  0  0
 34 48  1  0  0  0  0
 34 72  1  0  0  0  0
 34 77  2  0  0  0  0
 35 57  1  0  0  0  0
 35 65  1  0  0  0  0
 35 78  2  0  0  0  0
 36 58  1  0  0  0  0
 36 73  1  0  0  0  0
 36 79  2  0  0  0  0
 37 66  1  0  0  0  0
 37 71  1  0  0  0  0
 37 80  2  0  0  0  0
 38 41  1  0  0  0  0
 39 48  1  0  0  0  0
 40 65  1  0  0  0  0
 41 43  1  0  0  0  0
 42 44  1  0  0  0  0
 42 45  1  0  0  0  0
 43 47  1  0  0  0  0
 44 49  1  0  0  0  0
 45 66  1  0  0  0  0
 46 49  1  0  0  0  0
 46 66  1  0  0  0  0
 47 72  1  0  0  0  0
 48 65  1  0  0  0  0
 49 64  1  0  0  0  0
 50 58  1  0  0  0  0
 51 60  1  0  0  0  0
 52 60  1  0  0  0  0
 53 60  1  0  0  0  0
 54 75  1  0  0  0  0
 55 59  1  0  0  0  0
 55 74  1  0  0  0  0
 56 59  1  0  0  0  0
 56 83  1  0  0  0  0
 57 60  1  0  0  0  0
 57 73  1  0  0  0  0
 58 75  1  0  0  0  0
 59 81  1  0  0  0  0
 62 64  1  0  0  0  0
M  CHG  2  74   1  75   1
M  ISO  4  37 100  56 101  71 100  83 101
M  END
> <Batch ID>
0194

> <Smiles>
CNC(C)C(=O)NC(C(=O)N1Cc2cc([101O:1][101CH2:1]C(O)CNC(=N)c3ncc([100NH:0][100C:0](=O)N4CCCC(n5nc(-c6ccc(Oc7ccc(F)cc7F)cc6)c(C(N)=O)c5N)C4)nc3N)ccc2CC1C(=O)NC1CCCc2ccccc21)C(C)(C)C

> <Shape>
0.242

> <Color>
0.093

> <Negative vol penalty>
0.000

$$$$

  -OEChem-04052305333D

 85 93  0     1  0  0  0  0  0999 V2000
  -23.1988  -22.1674   18.0457 C   0  0  0  0  0  0  0  0  0  0  0  0
  -24.3660  -21.4765   17.7361 C   0  0  0  0  0  0  0  0  0  0  0  0
  -24.8541  -25.6482   20.2410 C   0  0  0  0  0  0  0  0  0  0  0  0
  -25.6740  -25.2504   22.4785 C   0  0  0  0  0  0  0  0  0  0  0  0
  -22.5195  -21.8899   19.2312 C   0  0  0  0  0  0  0  0  0  0  0  0
  -24.8551  -20.5084   18.6124 C   0  0  0  0  0  0  0  0  0  0  0  0
  -28.3826  -14.2736   18.6394 C   0  0  0  0  0  0  0  0  0  0  0  0
  -23.6403  -26.0930   20.7648 C   0  0  0  0  0  0  0  0  0  0  0  0
  -24.4602  -25.6953   23.0024 C   0  0  0  0  0  0  0  0  0  0  0  0
  -29.4925  -13.6666   19.2254 C   0  0  0  0  0  0  0  0  0  0  0  0
  -22.4256  -28.9064   22.1939 C   0  0  0  0  0  0  0  0  0  0  0  0
  -21.8781  -30.0732   21.6606 C   0  0  0  0  0  0  0  0  0  0  0  0
  -28.1921  -13.2154   21.2065 C   0  0  0  0  0  0  0  0  0  0  0  0
  -19.9085  -28.8438   20.9925 C   0  0  0  0  0  0  0  0  0  0  0  0
  -30.9027  -19.0589   24.0587 C   0  0  0  0  0  0  0  0  0  0  0  0
  -25.8709  -25.2268   21.0978 C   0  0  0  0  0  0  0  0  0  0  0  0
  -28.2657  -25.5424   20.2774 C   0  0  0  0  0  0  0  0  0  0  0  0
  -22.9952  -20.9111   20.1179 C   0  0  0  0  0  0  0  0  0  0  0  0
  -27.1702  -14.3660   19.3379 C   0  0  0  0  0  0  0  0  0  0  0  0
  -24.1821  -20.2185   19.8116 C   0  0  0  0  0  0  0  0  0  0  0  0
  -27.0676  -13.8218   20.6261 C   0  0  0  0  0  0  0  0  0  0  0  0
  -23.4433  -26.1166   22.1455 C   0  0  0  0  0  0  0  0  0  0  0  0
  -29.3982  -13.1400   20.5103 C   0  0  0  0  0  0  0  0  0  0  0  0
  -21.7146  -27.7082   22.1264 C   0  0  0  0  0  0  0  0  0  0  0  0
  -20.6196  -30.0419   21.0599 C   0  0  0  0  0  0  0  0  0  0  0  0
  -20.4560  -27.6769   21.5258 C   0  0  0  0  0  0  0  0  0  0  0  0
  -27.1248  -24.7666   20.5573 C   0  0  0  0  0  0  0  0  0  0  0  0
  -31.6275  -18.3624   25.0041 C   0  0  0  0  0  0  0  0  0  0  0  0
  -30.8330  -18.4749   22.8104 C   0  0  0  0  0  0  0  0  0  0  0  0
  -29.1794  -24.6436   19.7837 C   0  0  0  0  0  0  0  0  0  0  0  0
  -32.0992  -16.7197   23.5054 C   0  0  0  0  0  0  0  0  0  0  0  0
  -28.4804  -26.9496   20.4484 C   0  0  0  0  0  0  0  0  0  0  0  0
  -25.3565  -16.7609   20.3764 C   0  0  0  0  0  0  0  0  0  0  0  0
  -23.3194  -14.3620   21.1625 C   0  0  0  0  0  0  0  0  0  0  0  0
  -22.8843  -11.0652   21.9295 C   0  0  0  0  0  0  0  0  0  0  0  0
  -29.9015  -18.7538   20.4864 C   0  0  0  0  0  0  0  0  0  0  0  0
  -22.2523  -20.6793   21.4098 C   0  0  0  0  0  0  0  0  0  0  0  0
  -25.9746  -15.0000   18.6814 C   0  0  0  0  0  0  0  0  0  0  0  0
  -25.7829  -13.8772   21.4103 C   0  0  0  0  0  0  0  0  0  0  0  0
  -22.6327  -19.3749   22.1055 C   0  0  0  0  0  0  0  0  0  0  0  0
  -29.4425  -20.4911   17.4126 C   0  0  0  0  0  0  0  0  0  0  0  0
  -24.1489  -19.2117   22.1420 C   0  0  0  0  0  0  0  0  0  0  0  0
  -28.9056  -21.8574   17.8451 C   0  0  0  0  0  0  0  0  0  0  0  0
  -28.9043  -19.3654   18.2940 C   0  0  0  0  0  0  0  0  0  0  0  0
  -28.5613  -20.9260   20.1691 C   0  0  0  0  0  0  0  0  0  0  0  0
  -24.7307  -19.1437   20.7249 C   0  0  1  0  0  0  0  0  0  0  0  0
  -24.9361  -15.4961   19.6828 C   0  0  1  0  0  0  0  0  0  0  0  0
  -29.1266  -22.0987   19.3513 C   0  0  2  0  0  0  0  0  0  0  0  0
  -31.7570  -18.9133   26.3844 C   0  0  0  0  0  0  0  0  0  0  0  0
  -21.1097   -9.4074   22.5619 C   0  0  0  0  0  0  0  0  0  0  0  0
  -33.6368  -15.5791   20.9891 C   0  0  0  0  0  0  0  0  0  0  0  0
  -23.2612  -15.5067   23.9903 C   0  0  0  0  0  0  0  0  0  0  0  0
  -22.2839  -13.3386   24.7729 C   0  0  0  0  0  0  0  0  0  0  0  0
  -21.0413  -14.7432   23.1280 C   0  0  0  0  0  0  0  0  0  0  0  0
  -23.3981   -9.4220   19.5223 C   0  0  0  0  0  0  0  0  0  0  0  0
  -33.0059  -13.3842   22.0523 C   0  0  0  0  0  0  0  0  0  0  0  0
  -30.5821  -12.6205   22.5064 C   0  0  0  0  0  0  0  0  0  1  0  0
  -23.1084  -13.4945   22.3798 C   0  0  1  0  0  0  0  0  0  0  0  0
  -21.8933  -10.0346   21.4193 C   0  0  2  0  0  0  0  0  0  0  0  0
  -32.6589  -14.8729   21.9237 C   0  0  1  0  0  0  0  0  0  0  0  0
  -32.0460  -12.5728   22.9378 C   0  0  1  0  0  0  0  0  0  0  0  0
  -22.4486  -14.2712   23.5540 C   0  0  0  0  0  0  0  0  0  0  0  0
  -27.2956  -23.4745   20.2655 N   0  0  0  0  0  0  0  0  0  0  0  0
  -32.2411  -17.1856   24.7608 N   0  0  0  0  0  0  0  0  0  0  0  0
  -31.4215  -17.3018   22.4977 N   0  0  0  0  0  0  0  0  0  0  0  0
  -28.5544  -23.4314   19.7970 N   0  0  0  0  0  0  0  0  0  0  0  0
  -24.6438  -14.5129   20.7278 N   0  0  0  0  0  0  0  0  0  0  0  0
  -29.1531  -19.6608   19.7067 N   0  0  0  0  0  0  0  0  0  0  0  0
  -30.4483  -24.7798   19.3437 N   0  0  0  0  0  0  0  0  0  0  0  0
  -27.4361  -27.7265   20.9684 N   0  0  0  0  0  0  0  0  0  0  0  0
  -30.1013  -19.1564   21.8065 N   0  0  0  0  0  0  0  0  0  0  0  0
  -32.7141  -15.5133   23.2208 N   0  0  0  0  0  0  0  0  0  0  0  0
  -24.5137  -17.8326   20.1518 N   0  0  0  0  0  0  0  0  0  0  0  0
  -22.3470  -12.3351   21.9277 N   0  0  0  0  0  0  0  0  0  0  0  0
  -22.6053   -8.9497   20.6865 N   0  3  0  0  0  0  0  0  0  0  0  0
  -29.5604  -27.5046   20.1337 O   0  0  0  0  0  0  0  0  0  0  0  0
  -26.3697  -16.7639   21.0657 O   0  0  0  0  0  0  0  0  0  0  0  0
  -22.3443  -14.8808   20.6132 O   0  0  0  0  0  0  0  0  0  0  0  0
  -24.0201  -10.7724   22.2966 O   0  0  0  0  0  0  0  0  0  0  0  0
  -30.3565  -17.7105   20.0104 O   0  0  0  0  0  0  0  0  0  0  0  0
  -32.4599  -11.2039   22.9095 O   0  0  0  0  0  0  0  0  0  0  0  0
  -22.2591  -26.5508   22.6570 O   0  0  0  0  0  0  0  0  0  0  0  0
  -30.4802  -12.5475   21.0849 O   0  0  0  0  0  0  0  0  0  1  0  0
  -20.0933  -31.1628   20.5492 F   0  0  0  0  0  0  0  0  0  0  0  0
  -19.7677  -26.5291   21.4591 F   0  0  0  0  0  0  0  0  0  0  0  0
  1  2  1  0  0  0  0
  1  5  2  0  0  0  0
  2  6  2  0  0  0  0
  3  8  2  0  0  0  0
  3 16  1  0  0  0  0
  4  9  1  0  0  0  0
  4 16  2  0  0  0  0
  5 18  1  0  0  0  0
  6 20  1  0  0  0  0
  7 10  2  0  0  0  0
  7 19  1  0  0  0  0
  8 22  1  0  0  0  0
  9 22  2  0  0  0  0
 10 23  1  0  0  0  0
 11 12  2  0  0  0  0
 11 24  1  0  0  0  0
 12 25  1  0  0  0  0
 13 21  1  0  0  0  0
 13 23  2  0  0  0  0
 14 25  2  0  0  0  0
 14 26  1  0  0  0  0
 15 28  1  0  0  0  0
 15 29  2  0  0  0  0
 16 27  1  0  0  0  0
 17 27  1  0  0  0  0
 17 30  2  0  0  0  0
 17 32  1  0  0  0  0
 18 20  2  0  0  0  0
 18 37  1  0  0  0  0
 19 21  2  0  0  0  0
 19 38  1  0  0  0  0
 20 46  1  0  0  0  0
 21 39  1  0  0  0  0
 22 82  1  0  0  0  0
 23 83  1  0  0  0  0
 24 26  2  0  0  0  0
 24 82  1  0  0  0  0
 25 84  1  0  0  0  0
 26 85  1  0  0  0  0
 27 63  2  0  0  0  0
 28 49  1  0  0  0  0
 28 64  2  0  0  0  0
 29 65  1  0  0  0  0
 29 71  1  0  0  0  0
 30 66  1  0  0  0  0
 30 69  1  0  0  0  0
 31 64  1  0  0  0  0
 31 65  2  0  0  0  0
 31 72  1  0  0  0  0
 32 70  1  0  0  0  0
 32 76  2  0  0  0  0
 33 47  1  0  0  0  0
 33 73  1  0  0  0  0
 33 77  2  0  0  0  0
 34 58  1  0  0  0  0
 34 67  1  0  0  0  0
 34 78  2  0  0  0  0
 35 59  1  0  0  0  0
 35 74  1  0  0  0  0
 35 79  2  0  0  0  0
 36 68  1  0  0  0  0
 36 71  1  0  0  0  0
 36 80  2  0  0  0  0
 37 40  1  0  0  0  0
 38 47  1  0  0  0  0
 39 67  1  0  0  0  0
 40 42  1  0  0  0  0
 41 43  1  0  0  0  0
 41 44  1  0  0  0  0
 42 46  1  0  0  0  0
 43 48  1  0  0  0  0
 44 68  1  0  0  0  0
 45 48  1  0  0  0  0
 45 68  1  0  0  0  0
 46 73  1  0  0  0  0
 47 67  1  0  0  0  0
 48 66  1  0  0  0  0
 50 59  1  0  0  0  0
 51 60  1  0  0  0  0
 52 62  1  0  0  0  0
 53 62  1  0  0  0  0
 54 62  1  0  0  0  0
 55 75  1  0  0  0  0
 56 60  1  0  0  0  0
 56 61  1  0  0  0  0
 57 61  1  0  0  0  0
 57 83  1  0  0  0  0
 58 62  1  0  0  0  0
 58 74  1  0  0  0  0
 59 75  1  0  0  0  0
 60 72  1  0  0  0  0
 61 81  1  0  0  0  0
 63 66  1  0  0  0  0
M  CHG  1  75   1
M  ISO  4  36 100  57 101  71 100  83 101
M  END
> <Batch ID>
0194

> <Smiles>
CNC(C)C(=O)NC(C(=O)N1Cc2cc([101O:1][101CH2:1]C(O)CC(C)Nc3nc(C)cc([100NH:0][100C:0](=O)N4CCCC(n5nc(-c6ccc(Oc7ccc(F)cc7F)cc6)c(C(N)=O)c5N)C4)n3)ccc2CC1C(=O)NC1CCCc2ccccc21)C(C)(C)C

> <Shape>
0.230

> <Color>
0.067

> <Negative vol penalty>
0.000

$$$$

  -OEChem-04052305333D

 85 93  0     1  0  0  0  0  0999 V2000
  -20.5691  -33.3696   19.4149 C   0  0  0  0  0  0  0  0  0  0  0  0
  -21.8473  -32.8246   19.4843 C   0  0  0  0  0  0  0  0  0  0  0  0
  -26.2000  -13.0011   21.8630 C   0  0  0  0  0  0  0  0  0  0  0  0
  -25.5803  -14.1878   19.8518 C   0  0  0  0  0  0  0  0  0  0  0  0
  -19.6308  -33.0710   20.4020 C   0  0  0  0  0  0  0  0  0  0  0  0
  -22.1882  -31.9817   20.5414 C   0  0  0  0  0  0  0  0  0  0  0  0
  -24.7059  -27.8639   19.0085 C   0  0  0  0  0  0  0  0  0  0  0  0
  -25.0245  -12.2544   21.7847 C   0  0  0  0  0  0  0  0  0  0  0  0
  -24.4048  -13.4411   19.7734 C   0  0  0  0  0  0  0  0  0  0  0  0
  -26.0580  -28.0200   18.7064 C   0  0  0  0  0  0  0  0  0  0  0  0
  -23.8712   -9.6003   20.0358 C   0  0  0  0  0  0  0  0  0  0  0  0
  -23.9625   -8.2240   20.2429 C   0  0  0  0  0  0  0  0  0  0  0  0
  -26.6387  -27.1176   20.8670 C   0  0  0  0  0  0  0  0  0  0  0  0
  -22.4511   -8.4060   22.1190 C   0  0  0  0  0  0  0  0  0  0  0  0
  -31.6640  -23.3905   18.2393 C   0  0  0  0  0  0  0  0  0  0  0  0
  -26.4779  -13.9678   20.8966 C   0  0  0  0  0  0  0  0  0  0  0  0
  -28.9394  -14.4244   20.4065 C   0  0  0  0  0  0  0  0  0  0  0  0
  -19.9574  -32.2163   21.4666 C   0  0  0  0  0  0  0  0  0  0  0  0
  -24.3092  -27.3427   20.2485 C   0  0  0  0  0  0  0  0  0  0  0  0
  -21.2538  -31.6725   21.5444 C   0  0  0  0  0  0  0  0  0  0  0  0
  -25.2810  -26.9535   21.1813 C   0  0  0  0  0  0  0  0  0  0  0  0
  -24.1269  -12.4744   20.7399 C   0  0  0  0  0  0  0  0  0  0  0  0
  -27.0246  -27.6495   19.6368 C   0  0  0  0  0  0  0  0  0  0  0  0
  -23.0700  -10.3796   20.8704 C   0  0  0  0  0  0  0  0  0  0  0  0
  -23.2524   -7.6268   21.2844 C   0  0  0  0  0  0  0  0  0  0  0  0
  -22.3599   -9.7824   21.9119 C   0  0  0  0  0  0  0  0  0  0  0  0
  -27.6918  -14.7399   20.9772 C   0  0  0  0  0  0  0  0  0  0  0  0
  -29.3846  -22.7985   19.4967 C   0  0  0  0  0  0  0  0  0  0  0  0
  -31.3017  -24.0413   19.3981 C   0  0  0  0  0  0  0  0  0  0  0  0
  -29.7465  -22.1483   18.3375 C   0  0  0  0  0  0  0  0  0  0  0  0
  -29.7564  -15.4673   20.7690 C   0  0  0  0  0  0  0  0  0  0  0  0
  -29.3253  -13.2902   19.6189 C   0  0  0  0  0  0  0  0  0  0  0  0
  -22.6175  -28.4406   22.7054 C   0  0  0  0  0  0  0  0  0  0  0  0
  -22.9568  -25.4037   23.7937 C   0  0  0  0  0  0  0  0  0  0  0  0
  -24.7391  -22.4936   23.7530 C   0  0  0  0  0  0  0  0  0  0  0  0
  -28.6783  -21.1695   22.2432 C   0  0  0  0  0  0  0  0  0  0  0  0
  -18.9244  -31.9605   22.5354 C   0  0  0  0  0  0  0  0  0  0  0  0
  -22.8472  -27.1557   20.5485 C   0  0  0  0  0  0  0  0  0  0  0  0
  -24.9077  -26.3701   22.5188 C   0  0  0  0  0  0  0  0  0  0  0  0
  -19.2485  -30.7601   23.4209 C   0  0  0  0  0  0  0  0  0  0  0  0
  -30.3579  -18.7287   24.2175 C   0  0  0  0  0  0  0  0  0  0  0  0
  -20.7068  -30.8035   23.8664 C   0  0  0  0  0  0  0  0  0  0  0  0
  -29.9777  -17.4012   23.5595 C   0  0  0  0  0  0  0  0  0  0  0  0
  -29.2014  -19.7255   24.1868 C   0  0  0  0  0  0  0  0  0  0  0  0
  -28.2461  -18.6383   22.1920 C   0  0  0  0  0  0  0  0  0  0  0  0
  -21.6538  -30.7341   22.6623 C   0  0  1  0  0  0  0  0  0  0  0  0
  -22.5471  -27.0938   22.0430 C   0  0  1  0  0  0  0  0  0  0  0  0
  -29.3984  -17.6202   22.1489 C   0  0  2  0  0  0  0  0  0  0  0  0
  -24.7937  -20.2026   24.7756 C   0  0  0  0  0  0  0  0  0  0  0  0
  -24.0620  -26.5871   26.3799 C   0  0  0  0  0  0  0  0  0  0  0  0
  -24.9614  -24.3213   26.9504 C   0  0  0  0  0  0  0  0  0  0  0  0
  -22.5026  -24.6580   26.6982 C   0  0  0  0  0  0  0  0  0  0  0  0
  -24.4179  -21.1835   21.1187 C   0  0  0  0  0  0  0  0  0  0  0  0
  -28.1154  -22.4810   20.2128 C   0  0  0  0  0  0  0  0  0  0  0  0
  -30.6880  -27.6768   19.8338 C   0  0  0  0  0  0  0  0  0  0  0  0
  -31.8856  -25.7671   21.1029 C   0  0  0  0  0  0  0  0  0  0  0  0
  -29.2815  -27.4012   20.3444 C   0  0  0  0  0  0  0  0  0  1  0  0
  -23.9739  -24.6795   24.6423 C   0  0  1  0  0  0  0  0  0  0  0  0
  -24.3023  -21.0468   23.6100 C   0  0  2  0  0  0  0  0  0  0  0  0
  -31.7931  -27.2660   20.8125 C   0  0  1  0  0  0  0  0  0  0  0  0
  -23.8823  -25.0742   26.1433 C   0  0  0  0  0  0  0  0  0  0  0  0
  -30.8928  -22.4324   17.6881 N   0  0  0  0  0  0  0  0  0  0  0  0
  -27.7099  -15.8928   21.6513 N   0  0  0  0  0  0  0  0  0  0  0  0
  -30.1555  -23.7569   20.0476 N   0  0  0  0  0  0  0  0  0  0  0  0
  -28.9789  -16.3109   21.5065 N   0  0  0  0  0  0  0  0  0  0  0  0
  -23.4652  -26.2129   22.7678 N   0  0  0  0  0  0  0  0  0  0  0  0
  -28.6990  -19.8892   22.8205 N   0  0  0  0  0  0  0  0  0  0  0  0
  -28.8943  -21.1525   17.8094 N   0  0  0  0  0  0  0  0  0  0  0  0
  -31.0569  -15.7357   20.5258 N   0  0  0  0  0  0  0  0  0  0  0  0
  -28.3615  -12.3118   19.3394 N   0  0  0  0  0  0  0  0  0  0  0  0
  -32.1511  -25.0143   19.8984 N   0  0  0  0  0  0  0  0  0  0  0  0
  -21.7505  -29.3755   22.1730 N   0  0  0  0  0  0  0  0  0  0  0  0
  -23.7805  -23.2564   24.3858 N   0  0  0  0  0  0  0  0  0  0  0  0
  -28.1930  -21.2353   20.9429 N   0  0  0  0  0  0  0  0  0  0  0  0
  -24.8414  -20.4652   22.3482 N   0  3  0  0  0  0  0  0  0  0  0  0
  -30.4945  -13.1404   19.1898 O   0  0  0  0  0  0  0  0  0  0  0  0
  -23.3995  -28.6180   23.6321 O   0  0  0  0  0  0  0  0  0  0  0  0
  -21.7553  -25.2512   24.0279 O   0  0  0  0  0  0  0  0  0  0  0  0
  -25.8239  -22.9051   23.3474 O   0  0  0  0  0  0  0  0  0  0  0  0
  -29.0688  -22.1785   22.8403 O   0  0  0  0  0  0  0  0  0  0  0  0
  -33.0538  -27.7007   20.2993 O   0  0  0  0  0  0  0  0  0  0  0  0
  -22.9798  -11.7458   20.6630 O   0  0  0  0  0  0  0  0  0  0  0  0
  -28.3450  -27.8014   19.3448 O   0  0  0  0  0  0  0  0  0  1  0  0
  -23.3390   -6.3048   21.4822 F   0  0  0  0  0  0  0  0  0  0  0  0
  -21.5876  -10.5257   22.7163 F   0  0  0  0  0  0  0  0  0  0  0  0
  1  2  1  0  0  0  0
  1  5  2  0  0  0  0
  2  6  2  0  0  0  0
  3  8  2  0  0  0  0
  3 16  1  0  0  0  0
  4  9  1  0  0  0  0
  4 16  2  0  0  0  0
  5 18  1  0  0  0  0
  6 20  1  0  0  0  0
  7 10  2  0  0  0  0
  7 19  1  0  0  0  0
  8 22  1  0  0  0  0
  9 22  2  0  0  0  0
 10 23  1  0  0  0  0
 11 12  2  0  0  0  0
 11 24  1  0  0  0  0
 12 25  1  0  0  0  0
 13 21  1  0  0  0  0
 13 23  2  0  0  0  0
 14 25  2  0  0  0  0
 14 26  1  0  0  0  0
 15 29  1  0  0  0  0
 15 62  2  0  0  0  0
 16 27  1  0  0  0  0
 17 27  1  0  0  0  0
 17 31  2  0  0  0  0
 17 32  1  0  0  0  0
 18 20  2  0  0  0  0
 18 37  1  0  0  0  0
 19 21  2  0  0  0  0
 19 38  1  0  0  0  0
 20 46  1  0  0  0  0
 21 39  1  0  0  0  0
 22 82  1  0  0  0  0
 23 83  1  0  0  0  0
 24 26  2  0  0  0  0
 24 82  1  0  0  0  0
 25 84  1  0  0  0  0
 26 85  1  0  0  0  0
 27 63  2  0  0  0  0
 28 30  2  0  0  0  0
 28 54  1  0  0  0  0
 28 64  1  0  0  0  0
 29 64  2  0  0  0  0
 29 71  1  0  0  0  0
 30 62  1  0  0  0  0
 30 68  1  0  0  0  0
 31 65  1  0  0  0  0
 31 69  1  0  0  0  0
 32 70  1  0  0  0  0
 32 76  2  0  0  0  0
 33 47  1  0  0  0  0
 33 72  1  0  0  0  0
 33 77  2  0  0  0  0
 34 58  1  0  0  0  0
 34 66  1  0  0  0  0
 34 78  2  0  0  0  0
 35 59  1  0  0  0  0
 35 73  1  0  0  0  0
 35 79  2  0  0  0  0
 36 67  1  0  0  0  0
 36 74  1  0  0  0  0
 36 80  2  0  0  0  0
 37 40  1  0  0  0  0
 38 47  1  0  0  0  0
 39 66  1  0  0  0  0
 40 42  1  0  0  0  0
 41 43  1  0  0  0  0
 41 44  1  0  0  0  0
 42 46  1  0  0  0  0
 43 48  1  0  0  0  0
 44 67  1  0  0  0  0
 45 48  1  0  0  0  0
 45 67  1  0  0  0  0
 46 72  1  0  0  0  0
 47 66  1  0  0  0  0
 48 65  1  0  0  0  0
 49 59  1  0  0  0  0
 50 61  1  0  0  0  0
 51 61  1  0  0  0  0
 52 61  1  0  0  0  0
 53 75  1  0  0  0  0
 54 74  1  0  0  0  0
 55 57  1  0  0  0  0
 55 60  1  0  0  0  0
 56 60  1  0  0  0  0
 56 71  1  0  0  0  0
 57 83  1  0  0  0  0
 58 61  1  0  0  0  0
 58 73  1  0  0  0  0
 59 75  1  0  0  0  0
 60 81  1  0  0  0  0
 63 65  1  0  0  0  0
M  CHG  1  75   1
M  ISO  4  36 100  57 101  74 100  83 101
M  END
> <Batch ID>
0194

> <Smiles>
CNC(C)C(=O)NC(C(=O)N1Cc2cc([101O:1][101CH2:1]CC(O)CNc3cnc(N)c(C[100NH:0][100C:0](=O)N4CCCC(n5nc(-c6ccc(Oc7ccc(F)cc7F)cc6)c(C(N)=O)c5N)C4)n3)ccc2CC1C(=O)NC1CCCc2ccccc21)C(C)(C)C

> <Shape>
0.242

> <Color>
0.076

> <Negative vol penalty>
0.000

$$$$

  -OEChem-04052305333D

 83 91  0     1  0  0  0  0  0999 V2000
  -21.5604  -12.6190   19.7152 C   0  0  0  0  0  0  0  0  0  0  0  0
  -21.5995  -13.8376   20.3851 C   0  0  0  0  0  0  0  0  0  0  0  0
  -30.1146  -28.2474   21.4936 C   0  0  0  0  0  0  0  0  0  0  0  0
  -28.9136  -26.1901   21.8965 C   0  0  0  0  0  0  0  0  0  0  0  0
  -22.7267  -11.8702   19.5640 C   0  0  0  0  0  0  0  0  0  0  0  0
  -22.8049  -14.3076   20.9053 C   0  0  0  0  0  0  0  0  0  0  0  0
  -23.5613  -19.2178   19.9238 C   0  0  0  0  0  0  0  0  0  0  0  0
  -31.1802  -27.7755   22.2601 C   0  0  0  0  0  0  0  0  0  0  0  0
  -29.9792  -25.7182   22.6630 C   0  0  0  0  0  0  0  0  0  0  0  0
  -22.8709  -20.1382   20.7112 C   0  0  0  0  0  0  0  0  0  0  0  0
  -31.1823  -26.1538   25.7925 C   0  0  0  0  0  0  0  0  0  0  0  0
  -30.8839  -25.5423   27.0101 C   0  0  0  0  0  0  0  0  0  0  0  0
  -24.8542  -20.4786   22.0416 C   0  0  0  0  0  0  0  0  0  0  0  0
  -31.9330  -23.5052   26.2440 C   0  0  0  0  0  0  0  0  0  0  0  0
  -20.0250  -25.4490   21.5414 C   0  0  0  0  0  0  0  0  0  0  0  0
  -28.9813  -27.4547   21.3119 C   0  0  0  0  0  0  0  0  0  0  0  0
  -27.6918  -27.7802   19.1350 C   0  0  0  0  0  0  0  0  0  0  0  0
  -23.9488  -12.3358   20.0742 C   0  0  0  0  0  0  0  0  0  0  0  0
  -24.9024  -18.9122   20.1966 C   0  0  0  0  0  0  0  0  0  0  0  0
  -23.9884  -13.5637   20.7620 C   0  0  0  0  0  0  0  0  0  0  0  0
  -25.5601  -19.5558   21.2546 C   0  0  0  0  0  0  0  0  0  0  0  0
  -31.1125  -26.5109   22.8448 C   0  0  0  0  0  0  0  0  0  0  0  0
  -23.5165  -20.7666   21.7720 C   0  0  0  0  0  0  0  0  0  0  0  0
  -31.8559  -25.4411   24.8006 C   0  0  0  0  0  0  0  0  0  0  0  0
  -31.2593  -24.2180   27.2358 C   0  0  0  0  0  0  0  0  0  0  0  0
  -32.2313  -24.1168   25.0263 C   0  0  0  0  0  0  0  0  0  0  0  0
  -27.8800  -27.9419   20.5207 C   0  0  0  0  0  0  0  0  0  0  0  0
  -20.5236  -26.1595   22.6143 C   0  0  0  0  0  0  0  0  0  0  0  0
  -20.1928  -24.0807   21.6017 C   0  0  0  0  0  0  0  0  0  0  0  0
  -26.5054  -28.4205   18.8726 C   0  0  0  0  0  0  0  0  0  0  0  0
  -21.2419  -24.2472   23.6114 C   0  0  0  0  0  0  0  0  0  0  0  0
  -28.5157  -27.1109   18.1711 C   0  0  0  0  0  0  0  0  0  0  0  0
  -26.4794  -16.2800   21.0264 C   0  0  0  0  0  0  0  0  0  0  0  0
  -29.0773  -18.1839   20.6416 C   0  0  0  0  0  0  0  0  0  0  0  0
  -30.3734  -21.3405   20.5872 C   0  0  0  0  0  0  0  0  0  0  0  0
  -21.7280  -29.6979   22.2484 C   0  0  0  0  0  0  0  0  0  0  0  0
  -25.1742  -11.4689   19.9274 C   0  0  0  0  0  0  0  0  0  0  0  0
  -25.6408  -17.9370   19.3213 C   0  0  0  0  0  0  0  0  0  0  0  0
  -27.0050  -19.2779   21.5765 C   0  0  0  0  0  0  0  0  0  0  0  0
  -26.4819  -12.2146   20.1810 C   0  0  0  0  0  0  0  0  0  0  0  0
  -23.7566  -32.0052   20.4490 C   0  0  0  0  0  0  0  0  0  0  0  0
  -26.3792  -13.0561   21.4491 C   0  0  0  0  0  0  0  0  0  0  0  0
  -25.0264  -31.2109   20.1383 C   0  0  0  0  0  0  0  0  0  0  0  0
  -23.1912  -31.6509   21.8226 C   0  0  0  0  0  0  0  0  0  0  0  0
  -24.2285  -29.4171   21.7334 C   0  0  0  0  0  0  0  0  0  0  0  0
  -25.2815  -14.1189   21.3187 C   0  0  1  0  0  0  0  0  0  0  0  0
  -26.8549  -17.3186   20.0077 C   0  0  1  0  0  0  0  0  0  0  0  0
  -24.8045  -29.6992   20.3352 C   0  0  2  0  0  0  0  0  0  0  0  0
  -32.5360  -22.5771   20.2853 C   0  0  0  0  0  0  0  0  0  0  0  0
  -22.2808  -21.8231   26.2318 C   0  0  0  0  0  0  0  0  0  0  0  0
  -29.9257  -17.3837   23.4611 C   0  0  0  0  0  0  0  0  0  0  0  0
  -31.5096  -19.3227   23.4597 C   0  0  0  0  0  0  0  0  0  0  0  0
  -31.7916  -17.4829   21.7989 C   0  0  0  0  0  0  0  0  0  0  0  0
  -29.3531  -22.7790   18.2106 C   0  0  0  0  0  0  0  0  0  0  0  0
  -20.3892  -27.6451   22.6389 C   0  0  0  0  0  0  0  0  0  0  0  0
  -23.2464  -21.7786   23.9072 C   0  0  0  0  0  0  0  0  0  1  0  0
  -29.8699  -19.1049   21.5374 C   0  0  1  0  0  0  0  0  0  0  0  0
  -31.2920  -22.0353   19.5984 C   0  0  2  0  0  0  0  0  0  0  0  0
  -22.0582  -22.1947   24.7717 C   0  0  2  0  0  0  0  0  0  0  0  0
  -30.7464  -18.3275   22.5597 C   0  0  0  0  0  0  0  0  0  0  0  0
  -26.8924  -28.6311   21.0983 N   0  0  0  0  0  0  0  0  0  0  0  0
  -21.1400  -25.5887   23.6700 N   0  0  0  0  0  0  0  0  0  0  0  0
  -20.7989  -23.4441   22.6253 N   0  0  0  0  0  0  0  0  0  0  0  0
  -26.0721  -28.9081   20.0704 N   0  0  0  0  0  0  0  0  0  0  0  0
  -27.6821  -18.3120   20.6956 N   0  0  0  0  0  0  0  0  0  0  0  0
  -23.0028  -30.2033   21.9440 N   0  0  0  0  0  0  0  0  0  0  0  0
  -19.6950  -23.3142   20.5196 N   0  0  0  0  0  0  0  0  0  0  0  0
  -25.8009  -28.6084   17.7365 N   0  0  0  0  0  0  0  0  0  0  0  0
  -29.7011  -26.5059   18.6106 N   0  0  0  0  0  0  0  0  0  0  0  0
  -21.8682  -23.6283   24.6775 N   0  0  0  0  0  0  0  0  0  0  0  0
  -25.7450  -15.2280   20.5129 N   0  0  0  0  0  0  0  0  0  0  0  0
  -30.6238  -19.9861   20.6523 N   0  0  0  0  0  0  0  0  0  0  0  0
  -21.6352  -28.3145   22.3388 N   0  0  0  0  0  0  0  0  0  0  0  0
  -30.5840  -23.1716   18.9439 N   0  3  0  0  0  0  0  0  0  0  0  0
  -28.2181  -27.0654   16.9534 O   0  0  0  0  0  0  0  0  0  0  0  0
  -26.8311  -16.4217   22.1917 O   0  0  0  0  0  0  0  0  0  0  0  0
  -29.6743  -17.3854   19.9152 O   0  0  0  0  0  0  0  0  0  0  0  0
  -29.5215  -21.9399   21.2396 O   0  0  0  0  0  0  0  0  0  0  0  0
  -20.7443  -30.4255   22.4212 O   0  0  0  0  0  0  0  0  0  0  0  0
  -32.1521  -26.0499   23.5926 O   0  0  0  0  0  0  0  0  0  0  0  0
  -22.8448  -21.6649   22.5426 O   0  0  0  0  0  0  0  0  0  1  0  0
  -30.9740  -23.6313   28.4057 F   0  0  0  0  0  0  0  0  0  0  0  0
  -32.8798  -23.4274   24.0777 F   0  0  0  0  0  0  0  0  0  0  0  0
  1  2  1  0  0  0  0
  1  5  2  0  0  0  0
  2  6  2  0  0  0  0
  3  8  2  0  0  0  0
  3 16  1  0  0  0  0
  4  9  1  0  0  0  0
  4 16  2  0  0  0  0
  5 18  1  0  0  0  0
  6 20  1  0  0  0  0
  7 10  2  0  0  0  0
  7 19  1  0  0  0  0
  8 22  1  0  0  0  0
  9 22  2  0  0  0  0
 10 23  1  0  0  0  0
 11 12  2  0  0  0  0
 11 24  1  0  0  0  0
 12 25  1  0  0  0  0
 13 21  1  0  0  0  0
 13 23  2  0  0  0  0
 14 25  2  0  0  0  0
 14 26  1  0  0  0  0
 15 28  2  0  0  0  0
 15 29  1  0  0  0  0
 16 27  1  0  0  0  0
 17 27  1  0  0  0  0
 17 30  2  0  0  0  0
 17 32  1  0  0  0  0
 18 20  2  0  0  0  0
 18 37  1  0  0  0  0
 19 21  2  0  0  0  0
 19 38  1  0  0  0  0
 20 46  1  0  0  0  0
 21 39  1  0  0  0  0
 22 80  1  0  0  0  0
 23 81  1  0  0  0  0
 24 26  2  0  0  0  0
 24 80  1  0  0  0  0
 25 82  1  0  0  0  0
 26 83  1  0  0  0  0
 27 61  2  0  0  0  0
 28 55  1  0  0  0  0
 28 62  1  0  0  0  0
 29 63  2  0  0  0  0
 29 67  1  0  0  0  0
 30 64  1  0  0  0  0
 30 68  1  0  0  0  0
 31 62  2  0  0  0  0
 31 63  1  0  0  0  0
 31 70  1  0  0  0  0
 32 69  1  0  0  0  0
 32 75  2  0  0  0  0
 33 47  1  0  0  0  0
 33 71  1  0  0  0  0
 33 76  2  0  0  0  0
 34 57  1  0  0  0  0
 34 65  1  0  0  0  0
 34 77  2  0  0  0  0
 35 58  1  0  0  0  0
 35 72  1  0  0  0  0
 35 78  2  0  0  0  0
 36 66  1  0  0  0  0
 36 73  1  0  0  0  0
 36 79  2  0  0  0  0
 37 40  1  0  0  0  0
 38 47  1  0  0  0  0
 39 65  1  0  0  0  0
 40 42  1  0  0  0  0
 41 43  1  0  0  0  0
 41 44  1  0  0  0  0
 42 46  1  0  0  0  0
 43 48  1  0  0  0  0
 44 66  1  0  0  0  0
 45 48  1  0  0  0  0
 45 66  1  0  0  0  0
 46 71  1  0  0  0  0
 47 65  1  0  0  0  0
 48 64  1  0  0  0  0
 49 58  1  0  0  0  0
 50 59  1  0  0  0  0
 51 60  1  0  0  0  0
 52 60  1  0  0  0  0
 53 60  1  0  0  0  0
 54 74  1  0  0  0  0
 55 73  1  0  0  0  0
 56 59  1  0  0  0  0
 56 81  1  0  0  0  0
 57 60  1  0  0  0  0
 57 72  1  0  0  0  0
 58 74  1  0  0  0  0
 59 70  1  0  0  0  0
 61 64  1  0  0  0  0
M  CHG  1  74   1
M  ISO  4  36 100  56 101  73 100  81 101
M  END
> <Batch ID>
0194

> <Smiles>
CNC(C)C(=O)NC(C(=O)N1Cc2cc([101O:1][101CH2:1]C(C)Nc3nc(N)cc(C[100NH:0][100C:0](=O)N4CCCC(n5nc(-c6ccc(Oc7ccc(F)cc7F)cc6)c(C(N)=O)c5N)C4)n3)ccc2CC1C(=O)NC1CCCc2ccccc21)C(C)(C)C

> <Shape>
0.218

> <Color>
0.065

> <Negative vol penalty>
0.000

$$$$

  -OEChem-04052305333D

 84 92  0     1  0  0  0  0  0999 V2000
  -32.1719  -13.4228   21.6661 C   0  0  0  0  0  0  0  0  0  0  0  0
  -31.5339  -14.6581   21.7161 C   0  0  0  0  0  0  0  0  0  0  0  0
  -29.0447  -25.8378   20.8004 C   0  0  0  0  0  0  0  0  0  0  0  0
  -27.1028  -24.4856   21.2880 C   0  0  0  0  0  0  0  0  0  0  0  0
  -31.5413  -12.3379   21.0586 C   0  0  0  0  0  0  0  0  0  0  0  0
  -30.2651  -14.8093   21.1576 C   0  0  0  0  0  0  0  0  0  0  0  0
  -25.7447  -18.3971   23.2067 C   0  0  0  0  0  0  0  0  0  0  0  0
  -29.8557  -24.9074   21.4501 C   0  0  0  0  0  0  0  0  0  0  0  0
  -27.9139  -23.5551   21.9377 C   0  0  0  0  0  0  0  0  0  0  0  0
  -25.3082  -19.6655   22.8264 C   0  0  0  0  0  0  0  0  0  0  0  0
  -29.4392  -23.2457   24.9391 C   0  0  0  0  0  0  0  0  0  0  0  0
  -29.0048  -22.7554   26.1705 C   0  0  0  0  0  0  0  0  0  0  0  0
  -23.6263  -18.6585   21.4205 C   0  0  0  0  0  0  0  0  0  0  0  0
  -28.9908  -20.5125   25.2724 C   0  0  0  0  0  0  0  0  0  0  0  0
  -18.3081  -27.7451   22.5619 C   0  0  0  0  0  0  0  0  0  0  0  0
  -27.6682  -25.6269   20.7194 C   0  0  0  0  0  0  0  0  0  0  0  0
  -26.4766  -26.6036   18.6862 C   0  0  0  0  0  0  0  0  0  0  0  0
  -30.2601  -12.4734   20.5010 C   0  0  0  0  0  0  0  0  0  0  0  0
  -25.1313  -17.2480   22.6874 C   0  0  0  0  0  0  0  0  0  0  0  0
  -29.6173  -13.7255   20.5409 C   0  0  0  0  0  0  0  0  0  0  0  0
  -24.0552  -17.3768   21.7978 C   0  0  0  0  0  0  0  0  0  0  0  0
  -29.2904  -23.7660   22.0187 C   0  0  0  0  0  0  0  0  0  0  0  0
  -24.2508  -19.7963   21.9310 C   0  0  0  0  0  0  0  0  0  0  0  0
  -29.6494  -22.3695   23.8743 C   0  0  0  0  0  0  0  0  0  0  0  0
  -28.7806  -21.3888   26.3372 C   0  0  0  0  0  0  0  0  0  0  0  0
  -29.4252  -21.0029   24.0409 C   0  0  0  0  0  0  0  0  0  0  0  0
  -26.8298  -26.5880   20.0489 C   0  0  0  0  0  0  0  0  0  0  0  0
  -19.6214  -28.0777   22.8201 C   0  0  0  0  0  0  0  0  0  0  0  0
  -25.6723  -27.7090   18.5527 C   0  0  0  0  0  0  0  0  0  0  0  0
  -19.8099  -25.8946   22.9120 C   0  0  0  0  0  0  0  0  0  0  0  0
  -26.8426  -25.6997   17.6352 C   0  0  0  0  0  0  0  0  0  0  0  0
  -26.1003  -14.7957   20.9122 C   0  0  0  0  0  0  0  0  0  0  0  0
  -23.1158  -13.6797   21.5201 C   0  0  0  0  0  0  0  0  0  0  0  0
  -19.8797  -14.3684   22.3569 C   0  0  0  0  0  0  0  0  0  0  0  0
  -22.2298  -30.7360   22.4046 C   0  0  0  0  0  0  0  0  0  0  0  0
  -29.6382  -11.2840   19.8131 C   0  0  0  0  0  0  0  0  0  0  0  0
  -25.5965  -15.8872   23.1283 C   0  0  0  0  0  0  0  0  0  0  0  0
  -23.3497  -16.1746   21.2272 C   0  0  0  0  0  0  0  0  0  0  0  0
  -28.1375  -11.4330   19.5767 C   0  0  0  0  0  0  0  0  0  0  0  0
  -24.9073  -32.0342   20.4495 C   0  0  0  0  0  0  0  0  0  0  0  0
  -27.8224  -12.8084   18.9972 C   0  0  0  0  0  0  0  0  0  0  0  0
  -25.6717  -30.7870   20.0022 C   0  0  0  0  0  0  0  0  0  0  0  0
  -24.3590  -31.8820   21.8667 C   0  0  0  0  0  0  0  0  0  0  0  0
  -24.3041  -29.4286   21.6402 C   0  0  0  0  0  0  0  0  0  0  0  0
  -28.2305  -13.9229   19.9683 C   0  0  1  0  0  0  0  0  0  0  0  0
  -25.2343  -14.7828   22.1401 C   0  0  1  0  0  0  0  0  0  0  0  0
  -24.8283  -29.5126   20.1964 C   0  0  2  0  0  0  0  0  0  0  0  0
  -17.6644  -13.2539   22.7409 C   0  0  0  0  0  0  0  0  0  0  0  0
  -22.0051  -24.6740   24.8289 C   0  0  0  0  0  0  0  0  0  0  0  0
  -22.7568  -13.3606   18.5069 C   0  0  0  0  0  0  0  0  0  0  0  0
  -20.2901  -13.1710   18.8912 C   0  0  0  0  0  0  0  0  0  0  0  0
  -21.8372  -11.4778   19.8722 C   0  0  0  0  0  0  0  0  0  0  0  0
  -19.7688  -15.2960   25.1651 C   0  0  0  0  0  0  0  0  0  0  0  0
  -20.1654  -29.4482   22.8936 C   0  0  0  0  0  0  0  0  0  0  0  0
  -22.1539  -22.9634   22.9827 C   0  0  0  0  0  0  0  0  0  0  0  0
  -22.4430  -21.1690   21.2213 C   0  0  0  0  0  0  0  0  0  1  0  0
  -21.7692  -13.8084   20.8500 C   0  0  1  0  0  0  0  0  0  0  0  0
  -18.9509  -13.7472   23.3844 C   0  0  2  0  0  0  0  0  0  0  0  0
  -21.7648  -24.4059   23.3457 C   0  0  1  0  0  0  0  0  0  0  0  0
  -21.9882  -22.6001   21.4996 C   0  0  2  0  0  0  0  0  0  0  0  0
  -21.6777  -12.9773   19.5392 C   0  0  0  0  0  0  0  0  0  0  0  0
  -26.2940  -27.6029   20.7321 N   0  0  0  0  0  0  0  0  0  0  0  0
  -20.4840  -27.0179   23.0215 N   0  0  0  0  0  0  0  0  0  0  0  0
  -25.5960  -28.2667   19.7950 N   0  0  0  0  0  0  0  0  0  0  0  0
  -23.8454  -14.8657   21.6839 N   0  0  0  0  0  0  0  0  0  0  0  0
  -23.5673  -30.6550   21.9834 N   0  0  0  0  0  0  0  0  0  0  0  0
  -25.0301  -28.2486   17.4950 N   0  0  0  0  0  0  0  0  0  0  0  0
  -27.6758  -24.6164   17.9456 N   0  0  0  0  0  0  0  0  0  0  0  0
  -20.3650  -24.6355   23.0564 N   0  0  0  0  0  0  0  0  0  0  0  0
  -27.2566  -14.0487   21.0314 N   0  0  0  0  0  0  0  0  0  0  0  0
  -20.7763  -13.4481   21.8564 N   0  0  0  0  0  0  0  0  0  0  0  0
  -21.5493  -29.5270   22.4821 N   0  0  0  0  0  0  0  0  0  0  0  0
  -22.8189  -23.5168   20.6638 N   0  3  0  0  0  0  0  0  0  0  0  0
  -18.5989  -14.7444   24.4344 N   0  3  0  0  0  0  0  0  0  0  0  0
  -26.4560  -25.8577   16.4523 O   0  0  0  0  0  0  0  0  0  0  0  0
  -25.7448  -15.4349   19.9289 O   0  0  0  0  0  0  0  0  0  0  0  0
  -23.5029  -12.5688   21.8912 O   0  0  0  0  0  0  0  0  0  0  0  0
  -19.8138  -15.5508   22.0282 O   0  0  0  0  0  0  0  0  0  0  0  0
  -21.6810  -31.8069   22.6854 O   0  0  0  0  0  0  0  0  0  0  0  0
  -30.0815  -22.8578   22.6526 O   0  0  0  0  0  0  0  0  0  0  0  0
  -23.8232  -21.0331   21.5576 O   0  0  0  0  0  0  0  0  0  1  0  0
  -28.3649  -20.9178   27.5202 F   0  0  0  0  0  0  0  0  0  0  0  0
  -29.6266  -20.1561   23.0220 F   0  0  0  0  0  0  0  0  0  0  0  0
  -18.1350  -26.0388   22.5672 S   0  0  0  0  0  0  0  0  0  0  0  0
  1  2  1  0  0  0  0
  1  5  2  0  0  0  0
  2  6  2  0  0  0  0
  3  8  2  0  0  0  0
  3 16  1  0  0  0  0
  4  9  1  0  0  0  0
  4 16  2  0  0  0  0
  5 18  1  0  0  0  0
  6 20  1  0  0  0  0
  7 10  2  0  0  0  0
  7 19  1  0  0  0  0
  8 22  1  0  0  0  0
  9 22  2  0  0  0  0
 10 23  1  0  0  0  0
 11 12  2  0  0  0  0
 11 24  1  0  0  0  0
 12 25  1  0  0  0  0
 13 21  1  0  0  0  0
 13 23  2  0  0  0  0
 14 25  2  0  0  0  0
 14 26  1  0  0  0  0
 15 28  2  0  0  0  0
 15 84  1  0  0  0  0
 16 27  1  0  0  0  0
 17 27  1  0  0  0  0
 17 29  2  0  0  0  0
 17 31  1  0  0  0  0
 18 20  2  0  0  0  0
 18 36  1  0  0  0  0
 19 21  2  0  0  0  0
 19 37  1  0  0  0  0
 20 45  1  0  0  0  0
 21 38  1  0  0  0  0
 22 80  1  0  0  0  0
 23 81  1  0  0  0  0
 24 26  2  0  0  0  0
 24 80  1  0  0  0  0
 25 82  1  0  0  0  0
 26 83  1  0  0  0  0
 27 62  2  0  0  0  0
 28 54  1  0  0  0  0
 28 63  1  0  0  0  0
 29 64  1  0  0  0  0
 29 67  1  0  0  0  0
 30 63  2  0  0  0  0
 30 69  1  0  0  0  0
 30 84  1  0  0  0  0
 31 68  1  0  0  0  0
 31 75  2  0  0  0  0
 32 46  1  0  0  0  0
 32 70  1  0  0  0  0
 32 76  2  0  0  0  0
 33 57  1  0  0  0  0
 33 65  1  0  0  0  0
 33 77  2  0  0  0  0
 34 58  1  0  0  0  0
 34 71  1  0  0  0  0
 34 78  2  0  0  0  0
 35 66  1  0  0  0  0
 35 72  1  0  0  0  0
 35 79  2  0  0  0  0
 36 39  1  0  0  0  0
 37 46  1  0  0  0  0
 38 65  1  0  0  0  0
 39 41  1  0  0  0  0
 40 42  1  0  0  0  0
 40 43  1  0  0  0  0
 41 45  1  0  0  0  0
 42 47  1  0  0  0  0
 43 66  1  0  0  0  0
 44 47  1  0  0  0  0
 44 66  1  0  0  0  0
 45 70  1  0  0  0  0
 46 65  1  0  0  0  0
 47 64  1  0  0  0  0
 48 58  1  0  0  0  0
 49 59  1  0  0  0  0
 50 61  1  0  0  0  0
 51 61  1  0  0  0  0
 52 61  1  0  0  0  0
 53 74  1  0  0  0  0
 54 72  1  0  0  0  0
 55 59  1  0  0  0  0
 55 60  1  0  0  0  0
 56 60  1  0  0  0  0
 56 81  1  0  0  0  0
 57 61  1  0  0  0  0
 57 71  1  0  0  0  0
 58 74  1  0  0  0  0
 59 69  1  0  0  0  0
 60 73  1  0  0  0  0
 62 64  1  0  0  0  0
M  CHG  2  73   1  74   1
M  ISO  4  35 100  56 101  72 100  81 101
M  END
> <Batch ID>
0194

> <Smiles>
CNC(C)C(=O)NC(C(=O)N1Cc2cc([101O:1][101CH2:1]C(N)CC(C)Nc3nc(C[100NH:0][100C:0](=O)N4CCCC(n5nc(-c6ccc(Oc7ccc(F)cc7F)cc6)c(C(N)=O)c5N)C4)cs3)ccc2CC1C(=O)NC1CCCc2ccccc21)C(C)(C)C

> <Shape>
0.209

> <Color>
0.079

> <Negative vol penalty>
0.000

$$$$

  -OEChem-04052305333D

 84 92  0     1  0  0  0  0  0999 V2000
  -24.7089  -34.9552   23.1692 C   0  0  0  0  0  0  0  0  0  0  0  0
  -25.4681  -33.8154   22.9244 C   0  0  0  0  0  0  0  0  0  0  0  0
  -23.6564  -12.6293   21.2371 C   0  0  0  0  0  0  0  0  0  0  0  0
  -24.4742  -12.7137   18.9653 C   0  0  0  0  0  0  0  0  0  0  0  0
  -23.4222  -34.8351   23.6925 C   0  0  0  0  0  0  0  0  0  0  0  0
  -24.9413  -32.5549   23.2037 C   0  0  0  0  0  0  0  0  0  0  0  0
  -25.7967  -29.2246   19.4858 C   0  0  0  0  0  0  0  0  0  0  0  0
  -22.7102  -11.6759   20.8610 C   0  0  0  0  0  0  0  0  0  0  0  0
  -23.5281  -11.7603   18.5892 C   0  0  0  0  0  0  0  0  0  0  0  0
  -27.0724  -28.6670   19.4115 C   0  0  0  0  0  0  0  0  0  0  0  0
  -22.6345   -8.3542   20.2338 C   0  0  0  0  0  0  0  0  0  0  0  0
  -22.4702   -7.2428   21.0605 C   0  0  0  0  0  0  0  0  0  0  0  0
  -26.2597  -26.6766   20.5056 C   0  0  0  0  0  0  0  0  0  0  0  0
  -20.1541   -7.8396   21.4024 C   0  0  0  0  0  0  0  0  0  0  0  0
  -30.6479  -20.3810   16.7313 C   0  0  0  0  0  0  0  0  0  0  0  0
  -24.5384  -13.1483   20.2892 C   0  0  0  0  0  0  0  0  0  0  0  0
  -26.8241  -13.8971   21.1390 C   0  0  0  0  0  0  0  0  0  0  0  0
  -22.8757  -33.5720   23.9693 C   0  0  0  0  0  0  0  0  0  0  0  0
  -24.7437  -28.5155   20.0814 C   0  0  0  0  0  0  0  0  0  0  0  0
  -23.6466  -32.4179   23.7324 C   0  0  0  0  0  0  0  0  0  0  0  0
  -24.9710  -27.2264   20.5839 C   0  0  0  0  0  0  0  0  0  0  0  0
  -29.3187  -20.0269   16.6207 C   0  0  0  0  0  0  0  0  0  0  0  0
  -22.6461  -11.2414   19.5371 C   0  0  0  0  0  0  0  0  0  0  0  0
  -27.3048  -27.3941   19.9240 C   0  0  0  0  0  0  0  0  0  0  0  0
  -21.5586   -9.2083   19.9915 C   0  0  0  0  0  0  0  0  0  0  0  0
  -21.2300   -6.9855   21.6448 C   0  0  0  0  0  0  0  0  0  0  0  0
  -20.3185   -8.9510   20.5758 C   0  0  0  0  0  0  0  0  0  0  0  0
  -25.5156  -14.1336   20.6769 C   0  0  0  0  0  0  0  0  0  0  0  0
  -28.4093  -21.0219   16.9161 C   0  0  0  0  0  0  0  0  0  0  0  0
  -27.3384  -15.1496   21.3698 C   0  0  0  0  0  0  0  0  0  0  0  0
  -30.0854  -22.4912   17.3620 C   0  0  0  0  0  0  0  0  0  0  0  0
  -27.5132  -12.6562   21.3415 C   0  0  0  0  0  0  0  0  0  0  0  0
  -22.8579  -28.9917   22.5955 C   0  0  0  0  0  0  0  0  0  0  0  0
  -21.3626  -26.3354   21.4862 C   0  0  0  0  0  0  0  0  0  0  0  0
  -21.5422  -23.4608   19.6556 C   0  0  0  0  0  0  0  0  0  0  0  0
  -26.0570  -20.5575   19.1420 C   0  0  0  0  0  0  0  0  0  0  0  0
  -21.4982  -33.4947   24.5785 C   0  0  0  0  0  0  0  0  0  0  0  0
  -23.3673  -29.1201   20.1298 C   0  0  0  0  0  0  0  0  0  0  0  0
  -23.8697  -26.4156   21.2149 C   0  0  0  0  0  0  0  0  0  0  0  0
  -20.8728  -32.1046   24.4958 C   0  0  0  0  0  0  0  0  0  0  0  0
  -26.0004  -19.5846   22.5664 C   0  0  0  0  0  0  0  0  0  0  0  0
  -21.8781  -31.0405   24.9246 C   0  0  0  0  0  0  0  0  0  0  0  0
  -25.9878  -18.0559   22.5122 C   0  0  0  0  0  0  0  0  0  0  0  0
  -25.1823  -20.1963   21.4313 C   0  0  0  0  0  0  0  0  0  0  0  0
  -25.5393  -18.2027   20.0270 C   0  0  0  0  0  0  0  0  0  0  0  0
  -23.1007  -31.0318   23.9990 C   0  0  1  0  0  0  0  0  0  0  0  0
  -22.4871  -28.5158   21.2194 C   0  0  1  0  0  0  0  0  0  0  0  0
  -26.3969  -17.5408   21.1191 C   0  0  2  0  0  0  0  0  0  0  0  0
  -20.1702  -21.4766   18.9644 C   0  0  0  0  0  0  0  0  0  0  0  0
  -21.7033  -25.1334   24.2699 C   0  0  0  0  0  0  0  0  0  0  0  0
  -21.2048  -22.8864   23.2846 C   0  0  0  0  0  0  0  0  0  0  0  0
  -19.4835  -24.6902   23.2067 C   0  0  0  0  0  0  0  0  0  0  0  0
  -21.7947  -24.1396   16.7860 C   0  0  0  0  0  0  0  0  0  0  0  0
  -26.9416  -20.7570   16.8318 C   0  0  0  0  0  0  0  0  0  0  0  0
  -29.5557  -24.8273   18.0602 C   0  0  0  0  0  0  0  0  0  0  0  0
  -29.3695  -27.2408   18.7538 C   0  0  0  0  0  0  0  0  0  1  0  0
  -21.5151  -24.8504   21.7105 C   0  0  1  0  0  0  0  0  0  0  0  0
  -20.6212  -22.8817   18.5969 C   0  0  2  0  0  0  0  0  0  0  0  0
  -30.3226  -26.1000   18.4141 C   0  0  1  0  0  0  0  0  0  0  0  0
  -20.9981  -24.4059   23.1079 C   0  0  0  0  0  0  0  0  0  0  0  0
  -31.0684  -21.6086   17.1008 N   0  0  0  0  0  0  0  0  0  0  0  0
  -25.2170  -15.4341   20.6172 N   0  0  0  0  0  0  0  0  0  0  0  0
  -28.7589  -22.2698   17.2915 N   0  0  0  0  0  0  0  0  0  0  0  0
  -26.3451  -16.0260   21.0449 N   0  0  0  0  0  0  0  0  0  0  0  0
  -22.5428  -27.0527   21.2442 N   0  0  0  0  0  0  0  0  0  0  0  0
  -25.6212  -19.6676   20.1375 N   0  0  0  0  0  0  0  0  0  0  0  0
  -28.9383  -18.7371   16.2319 N   0  0  0  0  0  0  0  0  0  0  0  0
  -28.5387  -15.5757   21.8171 N   0  0  0  0  0  0  0  0  0  0  0  0
  -26.8376  -11.4622   21.0546 N   0  0  0  0  0  0  0  0  0  0  0  0
  -30.4806  -23.7621   17.7441 N   0  0  0  0  0  0  0  0  0  0  0  0
  -22.7878  -30.3626   22.7546 N   0  0  0  0  0  0  0  0  0  0  0  0
  -20.8461  -24.1975   20.5904 N   0  0  0  0  0  0  0  0  0  0  0  0
  -26.4616  -19.9731   17.9480 N   0  0  0  0  0  0  0  0  0  0  0  0
  -21.3177  -22.8225   17.2807 N   0  3  0  0  0  0  0  0  0  0  0  0
  -28.6875  -12.6070   21.7798 O   0  0  0  0  0  0  0  0  0  0  0  0
  -23.1821  -28.1755   23.4502 O   0  0  0  0  0  0  0  0  0  0  0  0
  -20.2371  -26.8393   21.5173 O   0  0  0  0  0  0  0  0  0  0  0  0
  -22.7571  -23.2750   19.6554 O   0  0  0  0  0  0  0  0  0  0  0  0
  -26.0886  -21.7817   19.3069 O   0  0  0  0  0  0  0  0  0  0  0  0
  -31.1325  -25.8527   19.5653 O   0  0  0  0  0  0  0  0  0  0  0  0
  -21.7231  -10.3109   19.1699 O   0  0  0  0  0  0  0  0  0  0  0  0
  -28.5491  -26.8478   19.8533 O   0  0  0  0  0  0  0  0  0  1  0  0
  -21.0720   -5.9173   22.4374 F   0  0  0  0  0  0  0  0  0  0  0  0
  -19.2809   -9.7673   20.3457 F   0  0  0  0  0  0  0  0  0  0  0  0
  1  2  1  0  0  0  0
  1  5  2  0  0  0  0
  2  6  2  0  0  0  0
  3  8  2  0  0  0  0
  3 16  1  0  0  0  0
  4  9  1  0  0  0  0
  4 16  2  0  0  0  0
  5 18  1  0  0  0  0
  6 20  1  0  0  0  0
  7 10  2  0  0  0  0
  7 19  1  0  0  0  0
  8 23  1  0  0  0  0
  9 23  2  0  0  0  0
 10 24  1  0  0  0  0
 11 12  2  0  0  0  0
 11 25  1  0  0  0  0
 12 26  1  0  0  0  0
 13 21  1  0  0  0  0
 13 24  2  0  0  0  0
 14 26  2  0  0  0  0
 14 27  1  0  0  0  0
 15 22  1  0  0  0  0
 15 61  2  0  0  0  0
 16 28  1  0  0  0  0
 17 28  1  0  0  0  0
 17 30  2  0  0  0  0
 17 32  1  0  0  0  0
 18 20  2  0  0  0  0
 18 37  1  0  0  0  0
 19 21  2  0  0  0  0
 19 38  1  0  0  0  0
 20 46  1  0  0  0  0
 21 39  1  0  0  0  0
 22 29  2  0  0  0  0
 22 67  1  0  0  0  0
 23 81  1  0  0  0  0
 24 82  1  0  0  0  0
 25 27  2  0  0  0  0
 25 81  1  0  0  0  0
 26 83  1  0  0  0  0
 27 84  1  0  0  0  0
 28 62  2  0  0  0  0
 29 54  1  0  0  0  0
 29 63  1  0  0  0  0
 30 64  1  0  0  0  0
 30 68  1  0  0  0  0
 31 61  1  0  0  0  0
 31 63  2  0  0  0  0
 31 70  1  0  0  0  0
 32 69  1  0  0  0  0
 32 75  2  0  0  0  0
 33 47  1  0  0  0  0
 33 71  1  0  0  0  0
 33 76  2  0  0  0  0
 34 57  1  0  0  0  0
 34 65  1  0  0  0  0
 34 77  2  0  0  0  0
 35 58  1  0  0  0  0
 35 72  1  0  0  0  0
 35 78  2  0  0  0  0
 36 66  1  0  0  0  0
 36 73  1  0  0  0  0
 36 79  2  0  0  0  0
 37 40  1  0  0  0  0
 38 47  1  0  0  0  0
 39 65  1  0  0  0  0
 40 42  1  0  0  0  0
 41 43  1  0  0  0  0
 41 44  1  0  0  0  0
 42 46  1  0  0  0  0
 43 48  1  0  0  0  0
 44 66  1  0  0  0  0
 45 48  1  0  0  0  0
 45 66  1  0  0  0  0
 46 71  1  0  0  0  0
 47 65  1  0  0  0  0
 48 64  1  0  0  0  0
 49 58  1  0  0  0  0
 50 60  1  0  0  0  0
 51 60  1  0  0  0  0
 52 60  1  0  0  0  0
 53 74  1  0  0  0  0
 54 73  1  0  0  0  0
 55 59  1  0  0  0  0
 55 70  1  0  0  0  0
 56 59  1  0  0  0  0
 56 82  1  0  0  0  0
 57 60  1  0  0  0  0
 57 72  1  0  0  0  0
 58 74  1  0  0  0  0
 59 80  1  0  0  0  0
 62 64  1  0  0  0  0
M  CHG  1  74   1
M  ISO  4  36 100  56 101  73 100  82 101
M  END
> <Batch ID>
0194

> <Smiles>
CNC(C)C(=O)NC(C(=O)N1Cc2cc([101O:1][101CH2:1]C(O)CNc3ncc(N)c(C[100NH:0][100C:0](=O)N4CCCC(n5nc(-c6ccc(Oc7ccc(F)cc7F)cc6)c(C(N)=O)c5N)C4)n3)ccc2CC1C(=O)NC1CCCc2ccccc21)C(C)(C)C

> <Shape>
0.232

> <Color>
0.072

> <Negative vol penalty>
0.000

$$$$

  -OEChem-04052305333D

 84 92  0     1  0  0  0  0  0999 V2000
  -29.1177  -33.5075   24.5251 C   0  0  0  0  0  0  0  0  0  0  0  0
  -29.2194  -32.1400   24.2910 C   0  0  0  0  0  0  0  0  0  0  0  0
  -26.9559  -12.9647   21.0126 C   0  0  0  0  0  0  0  0  0  0  0  0
  -26.8828  -13.2825   18.6187 C   0  0  0  0  0  0  0  0  0  0  0  0
  -27.8665  -34.1226   24.5242 C   0  0  0  0  0  0  0  0  0  0  0  0
  -28.0697  -31.3865   24.0569 C   0  0  0  0  0  0  0  0  0  0  0  0
  -28.6083  -28.1742   20.1792 C   0  0  0  0  0  0  0  0  0  0  0  0
  -26.3300  -11.7267   20.8675 C   0  0  0  0  0  0  0  0  0  0  0  0
  -26.2569  -12.0444   18.4735 C   0  0  0  0  0  0  0  0  0  0  0  0
  -29.3203  -26.9998   20.4194 C   0  0  0  0  0  0  0  0  0  0  0  0
  -24.4265   -8.6418   21.1571 C   0  0  0  0  0  0  0  0  0  0  0  0
  -23.3825   -8.3349   22.0297 C   0  0  0  0  0  0  0  0  0  0  0  0
  -27.2433  -25.7945   20.6483 C   0  0  0  0  0  0  0  0  0  0  0  0
  -22.1516  -10.2548   21.2325 C   0  0  0  0  0  0  0  0  0  0  0  0
  -28.0273  -23.7391   14.8045 C   0  0  0  0  0  0  0  0  0  0  0  0
  -27.2322  -13.7426   19.8883 C   0  0  0  0  0  0  0  0  0  0  0  0
  -29.2618  -15.2817   20.0297 C   0  0  0  0  0  0  0  0  0  0  0  0
  -26.7017  -33.3780   24.2804 C   0  0  0  0  0  0  0  0  0  0  0  0
  -27.2060  -28.1697   20.1826 C   0  0  0  0  0  0  0  0  0  0  0  0
  -26.8016  -31.9919   24.0540 C   0  0  0  0  0  0  0  0  0  0  0  0
  -26.5158  -26.9696   20.4053 C   0  0  0  0  0  0  0  0  0  0  0  0
  -26.8524  -23.0540   15.0383 C   0  0  0  0  0  0  0  0  0  0  0  0
  -25.9806  -11.2665   19.5979 C   0  0  0  0  0  0  0  0  0  0  0  0
  -28.6378  -25.8103   20.6569 C   0  0  0  0  0  0  0  0  0  0  0  0
  -24.3331   -9.7553   20.3222 C   0  0  0  0  0  0  0  0  0  0  0  0
  -22.2451   -9.1413   22.0674 C   0  0  0  0  0  0  0  0  0  0  0  0
  -23.1956  -10.5618   20.3599 C   0  0  0  0  0  0  0  0  0  0  0  0
  -27.8782  -15.0219   20.0377 C   0  0  0  0  0  0  0  0  0  0  0  0
  -26.7750  -22.3976   16.2497 C   0  0  0  0  0  0  0  0  0  0  0  0
  -29.3571  -16.6404   20.2063 C   0  0  0  0  0  0  0  0  0  0  0  0
  -28.8569  -23.1065   16.8241 C   0  0  0  0  0  0  0  0  0  0  0  0
  -30.3625  -14.3757   19.8763 C   0  0  0  0  0  0  0  0  0  0  0  0
  -24.9624  -29.5989   21.9224 C   0  0  0  0  0  0  0  0  0  0  0  0
  -22.9667  -28.2390   19.7568 C   0  0  0  0  0  0  0  0  0  0  0  0
  -22.4280  -25.7680   17.4653 C   0  0  0  0  0  0  0  0  0  0  0  0
  -25.6189  -21.1738   19.0549 C   0  0  0  0  0  0  0  0  0  0  0  0
  -25.3673  -34.0786   24.3362 C   0  0  0  0  0  0  0  0  0  0  0  0
  -26.4528  -29.4395   19.8953 C   0  0  0  0  0  0  0  0  0  0  0  0
  -25.0110  -26.9074   20.3995 C   0  0  0  0  0  0  0  0  0  0  0  0
  -24.2310  -33.2754   23.7086 C   0  0  0  0  0  0  0  0  0  0  0  0
  -27.0524  -20.3276   22.2023 C   0  0  0  0  0  0  0  0  0  0  0  0
  -24.2716  -31.8281   24.1887 C   0  0  0  0  0  0  0  0  0  0  0  0
  -27.5515  -18.8953   22.0037 C   0  0  0  0  0  0  0  0  0  0  0  0
  -25.7437  -20.5779   21.4561 C   0  0  0  0  0  0  0  0  0  0  0  0
  -26.2752  -18.8119   19.8213 C   0  0  0  0  0  0  0  0  0  0  0  0
  -25.5796  -31.1451   23.7716 C   0  0  1  0  0  0  0  0  0  0  0  0
  -25.0247  -29.4216   20.4317 C   0  0  1  0  0  0  0  0  0  0  0  0
  -27.6215  -18.5281   20.5092 C   0  0  2  0  0  0  0  0  0  0  0  0
  -20.6869  -24.8935   15.8838 C   0  0  0  0  0  0  0  0  0  0  0  0
  -30.1050  -20.9715   18.8072 C   0  0  0  0  0  0  0  0  0  0  0  0
  -21.4419  -27.0308   22.1074 C   0  0  0  0  0  0  0  0  0  0  0  0
  -20.3511  -25.4527   20.4986 C   0  0  0  0  0  0  0  0  0  0  0  0
  -19.9951  -27.9108   20.2671 C   0  0  0  0  0  0  0  0  0  0  0  0
  -24.1725  -26.2115   15.1161 C   0  0  0  0  0  0  0  0  0  0  0  0
  -25.5517  -21.6219   16.6149 C   0  0  0  0  0  0  0  0  0  0  0  0
  -30.8720  -23.0655   19.9786 C   0  0  0  0  0  0  0  0  0  0  0  0
  -30.6110  -24.5388   20.2751 C   0  0  0  0  0  0  0  0  0  1  0  0
  -22.2390  -26.9203   19.6541 C   0  0  1  0  0  0  0  0  0  0  0  0
  -21.8896  -25.8099   16.0465 C   0  0  2  0  0  0  0  0  0  0  0  0
  -29.8393  -22.4579   19.0241 C   0  0  1  0  0  0  0  0  0  0  0  0
  -21.0351  -26.8299   20.6339 C   0  0  0  0  0  0  0  0  0  0  0  0
  -29.0539  -23.7867   15.6787 N   0  0  0  0  0  0  0  0  0  0  0  0
  -27.1471  -16.1269   20.2062 N   0  0  0  0  0  0  0  0  0  0  0  0
  -27.7620  -22.4026   17.1695 N   0  0  0  0  0  0  0  0  0  0  0  0
  -28.0747  -17.0942   20.3058 N   0  0  0  0  0  0  0  0  0  0  0  0
  -24.3195  -28.1767   20.1200 N   0  0  0  0  0  0  0  0  0  0  0  0
  -25.8778  -20.2109   20.0443 N   0  0  0  0  0  0  0  0  0  0  0  0
  -25.8179  -23.0388   14.0954 N   0  0  0  0  0  0  0  0  0  0  0  0
  -30.4118  -17.4793   20.2847 N   0  0  0  0  0  0  0  0  0  0  0  0
  -30.0867  -13.0124   19.7045 N   0  0  0  0  0  0  0  0  0  0  0  0
  -29.8894  -23.1337   17.7444 N   0  0  0  0  0  0  0  0  0  0  0  0
  -25.5326  -30.7740   22.3735 N   0  0  0  0  0  0  0  0  0  0  0  0
  -21.8794  -26.7608   18.2493 N   0  0  0  0  0  0  0  0  0  0  0  0
  -25.7756  -20.7450   17.7426 N   0  0  0  0  0  0  0  0  0  0  0  0
  -22.9408  -25.3817   15.0808 N   0  3  0  0  0  0  0  0  0  0  0  0
  -31.5556  -14.7616   19.9076 O   0  0  0  0  0  0  0  0  0  0  0  0
  -24.4346  -28.7344   22.6122 O   0  0  0  0  0  0  0  0  0  0  0  0
  -22.3591  -29.2853   19.5164 O   0  0  0  0  0  0  0  0  0  0  0  0
  -23.2500  -24.9354   17.8415 O   0  0  0  0  0  0  0  0  0  0  0  0
  -25.2788  -22.3315   19.3216 O   0  0  0  0  0  0  0  0  0  0  0  0
  -25.3700  -10.0583   19.4558 O   0  0  0  0  0  0  0  0  0  0  0  0
  -29.3303  -24.6628   20.8923 O   0  0  0  0  0  0  0  0  0  1  0  0
  -21.2419   -8.8456   22.9043 F   0  0  0  0  0  0  0  0  0  0  0  0
  -23.0996  -11.6322   19.5593 F   0  0  0  0  0  0  0  0  0  0  0  0
  1  2  1  0  0  0  0
  1  5  2  0  0  0  0
  2  6  2  0  0  0  0
  3  8  2  0  0  0  0
  3 16  1  0  0  0  0
  4  9  1  0  0  0  0
  4 16  2  0  0  0  0
  5 18  1  0  0  0  0
  6 20  1  0  0  0  0
  7 10  2  0  0  0  0
  7 19  1  0  0  0  0
  8 23  1  0  0  0  0
  9 23  2  0  0  0  0
 10 24  1  0  0  0  0
 11 12  2  0  0  0  0
 11 25  1  0  0  0  0
 12 26  1  0  0  0  0
 13 21  1  0  0  0  0
 13 24  2  0  0  0  0
 14 26  2  0  0  0  0
 14 27  1  0  0  0  0
 15 22  1  0  0  0  0
 15 62  2  0  0  0  0
 16 28  1  0  0  0  0
 17 28  1  0  0  0  0
 17 30  2  0  0  0  0
 17 32  1  0  0  0  0
 18 20  2  0  0  0  0
 18 37  1  0  0  0  0
 19 21  2  0  0  0  0
 19 38  1  0  0  0  0
 20 46  1  0  0  0  0
 21 39  1  0  0  0  0
 22 29  2  0  0  0  0
 22 68  1  0  0  0  0
 23 81  1  0  0  0  0
 24 82  1  0  0  0  0
 25 27  2  0  0  0  0
 25 81  1  0  0  0  0
 26 83  1  0  0  0  0
 27 84  1  0  0  0  0
 28 63  2  0  0  0  0
 29 55  1  0  0  0  0
 29 64  1  0  0  0  0
 30 65  1  0  0  0  0
 30 69  1  0  0  0  0
 31 62  1  0  0  0  0
 31 64  2  0  0  0  0
 31 71  1  0  0  0  0
 32 70  1  0  0  0  0
 32 76  2  0  0  0  0
 33 47  1  0  0  0  0
 33 72  1  0  0  0  0
 33 77  2  0  0  0  0
 34 58  1  0  0  0  0
 34 66  1  0  0  0  0
 34 78  2  0  0  0  0
 35 59  1  0  0  0  0
 35 73  1  0  0  0  0
 35 79  2  0  0  0  0
 36 67  1  0  0  0  0
 36 74  1  0  0  0  0
 36 80  2  0  0  0  0
 37 40  1  0  0  0  0
 38 47  1  0  0  0  0
 39 66  1  0  0  0  0
 40 42  1  0  0  0  0
 41 43  1  0  0  0  0
 41 44  1  0  0  0  0
 42 46  1  0  0  0  0
 43 48  1  0  0  0  0
 44 67  1  0  0  0  0
 45 48  1  0  0  0  0
 45 67  1  0  0  0  0
 46 72  1  0  0  0  0
 47 66  1  0  0  0  0
 48 65  1  0  0  0  0
 49 59  1  0  0  0  0
 50 60  1  0  0  0  0
 51 61  1  0  0  0  0
 52 61  1  0  0  0  0
 53 61  1  0  0  0  0
 54 75  1  0  0  0  0
 55 74  1  0  0  0  0
 56 57  1  0  0  0  0
 56 60  1  0  0  0  0
 57 82  1  0  0  0  0
 58 61  1  0  0  0  0
 58 73  1  0  0  0  0
 59 75  1  0  0  0  0
 60 71  1  0  0  0  0
 63 65  1  0  0  0  0
M  CHG  1  75   1
M  ISO  4  36 100  57 101  74 100  82 101
M  END
> <Batch ID>
0194

> <Smiles>
CNC(C)C(=O)NC(C(=O)N1Cc2cc([101O:1][101CH2:1]CC(C)Nc3ncc(N)c(C[100NH:0][100C:0](=O)N4CCCC(n5nc(-c6ccc(Oc7ccc(F)cc7F)cc6)c(C(N)=O)c5N)C4)n3)ccc2CC1C(=O)NC1CCCc2ccccc21)C(C)(C)C

> <Shape>
0.272

> <Color>
0.072

> <Negative vol penalty>
0.000

$$$$

  -OEChem-04052305333D

 83 91  0     1  0  0  0  0  0999 V2000
  -33.8147  -33.2514   18.4447 C   0  0  0  0  0  0  0  0  0  0  0  0
  -33.3151  -32.1693   19.1622 C   0  0  0  0  0  0  0  0  0  0  0  0
  -23.0763   -9.8644   19.9419 C   0  0  0  0  0  0  0  0  0  0  0  0
  -23.8360   -9.8746   22.2354 C   0  0  0  0  0  0  0  0  0  0  0  0
  -33.6936  -33.2812   17.0560 C   0  0  0  0  0  0  0  0  0  0  0  0
  -32.6931  -31.1168   18.4916 C   0  0  0  0  0  0  0  0  0  0  0  0
  -34.2020  -26.5829   20.1683 C   0  0  0  0  0  0  0  0  0  0  0  0
  -22.3337   -8.7107   20.1930 C   0  0  0  0  0  0  0  0  0  0  0  0
  -23.0933   -8.7209   22.4865 C   0  0  0  0  0  0  0  0  0  0  0  0
  -33.6532  -26.1329   21.3684 C   0  0  0  0  0  0  0  0  0  0  0  0
  -19.8660   -7.9202   23.0895 C   0  0  0  0  0  0  0  0  0  0  0  0
  -19.1090   -7.8807   24.2604 C   0  0  0  0  0  0  0  0  0  0  0  0
  -32.1069  -24.7511   20.1361 C   0  0  0  0  0  0  0  0  0  0  0  0
  -20.3525   -5.9453   24.9990 C   0  0  0  0  0  0  0  0  0  0  0  0
  -29.7670  -17.7313   22.7107 C   0  0  0  0  0  0  0  0  0  0  0  0
  -23.8276  -10.4463   20.9631 C   0  0  0  0  0  0  0  0  0  0  0  0
  -24.1666  -12.9717   20.8404 C   0  0  0  0  0  0  0  0  0  0  0  0
  -33.0784  -32.2241   16.3672 C   0  0  0  0  0  0  0  0  0  0  0  0
  -33.6992  -26.1278   18.9409 C   0  0  0  0  0  0  0  0  0  0  0  0
  -32.5625  -31.1331   17.0925 C   0  0  0  0  0  0  0  0  0  0  0  0
  -32.6527  -25.1948   18.9220 C   0  0  0  0  0  0  0  0  0  0  0  0
  -22.3422   -8.1390   21.4653 C   0  0  0  0  0  0  0  0  0  0  0  0
  -32.6036  -25.2191   21.3524 C   0  0  0  0  0  0  0  0  0  0  0  0
  -20.8662   -6.9722   22.8733 C   0  0  0  0  0  0  0  0  0  0  0  0
  -19.3522   -6.8933   25.2152 C   0  0  0  0  0  0  0  0  0  0  0  0
  -21.1095   -5.9849   23.8281 C   0  0  0  0  0  0  0  0  0  0  0  0
  -24.5953  -11.6378   20.7042 C   0  0  0  0  0  0  0  0  0  0  0  0
  -32.1886  -18.5665   21.9586 C   0  0  0  0  0  0  0  0  0  0  0  0
  -30.5659  -16.9561   21.8994 C   0  0  0  0  0  0  0  0  0  0  0  0
  -31.3893  -19.3420   22.7693 C   0  0  0  0  0  0  0  0  0  0  0  0
  -25.2580  -13.7220   20.4765 C   0  0  0  0  0  0  0  0  0  0  0  0
  -22.8955  -13.4866   21.2587 C   0  0  0  0  0  0  0  0  0  0  0  0
  -32.3051  -27.5056   16.4385 C   0  0  0  0  0  0  0  0  0  0  0  0
  -32.5601  -24.5373   15.1553 C   0  0  0  0  0  0  0  0  0  0  0  0
  -32.8473  -21.1752   15.6658 C   0  0  0  0  0  0  0  0  0  0  0  0
  -30.7230  -14.7738   20.6506 C   0  0  0  0  0  0  0  0  0  0  0  0
  -32.9287  -32.3231   14.8697 C   0  0  0  0  0  0  0  0  0  0  0  0
  -34.3198  -26.6025   17.6556 C   0  0  0  0  0  0  0  0  0  0  0  0
  -32.0903  -24.6600   17.6312 C   0  0  0  0  0  0  0  0  0  0  0  0
  -32.5901  -30.9926   14.2021 C   0  0  0  0  0  0  0  0  0  0  0  0
  -29.6115  -12.3563   18.2848 C   0  0  0  0  0  0  0  0  0  0  0  0
  -31.4742  -30.2827   14.9622 C   0  0  0  0  0  0  0  0  0  0  0  0
  -28.1721  -12.0636   18.7145 C   0  0  0  0  0  0  0  0  0  0  0  0
  -30.5262  -12.5874   19.4863 C   0  0  0  0  0  0  0  0  0  0  0  0
  -28.6183  -13.3112   20.8666 C   0  0  0  0  0  0  0  0  0  0  0  0
  -31.9034  -29.9608   16.3987 C   0  0  1  0  0  0  0  0  0  0  0  0
  -33.3882  -26.4643   16.4555 C   0  0  1  0  0  0  0  0  0  0  0  0
  -27.6458  -13.1356   19.6888 C   0  0  2  0  0  0  0  0  0  0  0  0
  -33.5439  -19.0166   21.5286 C   0  0  0  0  0  0  0  0  0  0  0  0
  -32.9950  -18.9997   14.4238 C   0  0  0  0  0  0  0  0  0  0  0  0
  -31.1749  -20.9572   25.4885 C   0  0  0  0  0  0  0  0  0  0  0  0
  -29.5659  -24.6642   14.5819 C   0  0  0  0  0  0  0  0  0  0  0  0
  -29.5967  -22.1841   14.2411 C   0  0  0  0  0  0  0  0  0  0  0  0
  -30.9381  -23.6635   12.7462 C   0  0  0  0  0  0  0  0  0  0  0  0
  -35.5176  -20.5789   16.7941 C   0  0  0  0  0  0  0  0  0  0  0  0
  -31.6374  -22.8890   23.9395 C   0  0  0  0  0  0  0  0  0  0  0  0
  -31.5189  -23.4607   22.5303 C   0  0  0  0  0  0  0  0  0  1  0  0
  -31.6899  -23.3039   15.1331 C   0  0  1  0  0  0  0  0  0  0  0  0
  -33.7763  -20.1398   15.0580 C   0  0  2  0  0  0  0  0  0  0  0  0
  -31.0921  -21.4618   24.0513 C   0  0  1  0  0  0  0  0  0  0  0  0
  -30.4568  -23.4653   14.2001 C   0  0  0  0  0  0  0  0  0  0  0  0
  -30.1643  -18.9382   23.1602 N   0  0  0  0  0  0  0  0  0  0  0  0
  -25.8604  -11.5429   20.2861 N   0  0  0  0  0  0  0  0  0  0  0  0
  -31.7911  -17.3598   21.5088 N   0  0  0  0  0  0  0  0  0  0  0  0
  -26.2359  -12.8268   20.1565 N   0  0  0  0  0  0  0  0  0  0  0  0
  -32.7266  -25.1591   16.4009 N   0  0  0  0  0  0  0  0  0  0  0  0
  -29.9660  -13.6185   20.3625 N   0  0  0  0  0  0  0  0  0  0  0  0
  -25.4669  -15.0537   20.4021 N   0  0  0  0  0  0  0  0  0  0  0  0
  -21.8846  -12.5767   21.5968 N   0  0  0  0  0  0  0  0  0  0  0  0
  -30.0745  -15.6990   21.4680 N   0  0  0  0  0  0  0  0  0  0  0  0
  -31.8530  -20.5725   23.1987 N   0  0  0  0  0  0  0  0  0  0  0  0
  -32.7744  -28.8052   16.4191 N   0  0  0  0  0  0  0  0  0  0  0  0
  -32.5661  -22.1926   14.7786 N   0  0  0  0  0  0  0  0  0  0  0  0
  -34.6726  -19.5707   16.1038 N   0  3  0  0  0  0  0  0  0  0  0  0
  -22.6579  -14.7170   21.3147 O   0  0  0  0  0  0  0  0  0  0  0  0
  -31.1307  -27.1559   16.4412 O   0  0  0  0  0  0  0  0  0  0  0  0
  -33.0789  -24.9303   14.1075 O   0  0  0  0  0  0  0  0  0  0  0  0
  -32.4115  -21.0881   16.8117 O   0  0  0  0  0  0  0  0  0  0  0  0
  -31.8519  -14.9433   20.1829 O   0  0  0  0  0  0  0  0  0  0  0  0
  -21.6175   -7.0133   21.7108 O   0  0  0  0  0  0  0  0  0  0  0  0
  -32.0657  -24.7787   22.5223 O   0  0  0  0  0  0  0  0  0  1  0  0
  -18.6262   -6.8564   26.3402 F   0  0  0  0  0  0  0  0  0  0  0  0
  -22.0698   -5.0722   23.6265 F   0  0  0  0  0  0  0  0  0  0  0  0
  1  2  1  0  0  0  0
  1  5  2  0  0  0  0
  2  6  2  0  0  0  0
  3  8  2  0  0  0  0
  3 16  1  0  0  0  0
  4  9  1  0  0  0  0
  4 16  2  0  0  0  0
  5 18  1  0  0  0  0
  6 20  1  0  0  0  0
  7 10  2  0  0  0  0
  7 19  1  0  0  0  0
  8 22  1  0  0  0  0
  9 22  2  0  0  0  0
 10 23  1  0  0  0  0
 11 12  2  0  0  0  0
 11 24  1  0  0  0  0
 12 25  1  0  0  0  0
 13 21  1  0  0  0  0
 13 23  2  0  0  0  0
 14 25  2  0  0  0  0
 14 26  1  0  0  0  0
 15 29  1  0  0  0  0
 15 62  2  0  0  0  0
 16 27  1  0  0  0  0
 17 27  1  0  0  0  0
 17 31  2  0  0  0  0
 17 32  1  0  0  0  0
 18 20  2  0  0  0  0
 18 37  1  0  0  0  0
 19 21  2  0  0  0  0
 19 38  1  0  0  0  0
 20 46  1  0  0  0  0
 21 39  1  0  0  0  0
 22 80  1  0  0  0  0
 23 81  1  0  0  0  0
 24 26  2  0  0  0  0
 24 80  1  0  0  0  0
 25 82  1  0  0  0  0
 26 83  1  0  0  0  0
 27 63  2  0  0  0  0
 28 30  2  0  0  0  0
 28 49  1  0  0  0  0
 28 64  1  0  0  0  0
 29 64  2  0  0  0  0
 29 70  1  0  0  0  0
 30 62  1  0  0  0  0
 30 71  1  0  0  0  0
 31 65  1  0  0  0  0
 31 68  1  0  0  0  0
 32 69  1  0  0  0  0
 32 75  2  0  0  0  0
 33 47  1  0  0  0  0
 33 72  1  0  0  0  0
 33 76  2  0  0  0  0
 34 58  1  0  0  0  0
 34 66  1  0  0  0  0
 34 77  2  0  0  0  0
 35 59  1  0  0  0  0
 35 73  1  0  0  0  0
 35 78  2  0  0  0  0
 36 67  1  0  0  0  0
 36 70  1  0  0  0  0
 36 79  2  0  0  0  0
 37 40  1  0  0  0  0
 38 47  1  0  0  0  0
 39 66  1  0  0  0  0
 40 42  1  0  0  0  0
 41 43  1  0  0  0  0
 41 44  1  0  0  0  0
 42 46  1  0  0  0  0
 43 48  1  0  0  0  0
 44 67  1  0  0  0  0
 45 48  1  0  0  0  0
 45 67  1  0  0  0  0
 46 72  1  0  0  0  0
 47 66  1  0  0  0  0
 48 65  1  0  0  0  0
 50 59  1  0  0  0  0
 51 60  1  0  0  0  0
 52 61  1  0  0  0  0
 53 61  1  0  0  0  0
 54 61  1  0  0  0  0
 55 74  1  0  0  0  0
 56 57  1  0  0  0  0
 56 60  1  0  0  0  0
 57 81  1  0  0  0  0
 58 61  1  0  0  0  0
 58 73  1  0  0  0  0
 59 74  1  0  0  0  0
 60 71  1  0  0  0  0
 63 65  1  0  0  0  0
M  CHG  1  74   1
M  ISO  4  36 100  57 101  70 100  81 101
M  END
> <Batch ID>
0194

> <Smiles>
CNC(C)C(=O)NC(C(=O)N1Cc2cc([101O:1][101CH2:1]CC(C)Nc3ncc([100NH:0][100C:0](=O)N4CCCC(n5nc(-c6ccc(Oc7ccc(F)cc7F)cc6)c(C(N)=O)c5N)C4)nc3C)ccc2CC1C(=O)NC1CCCc2ccccc21)C(C)(C)C

> <Shape>
0.180

> <Color>
0.188

> <Negative vol penalty>
0.000

$$$$

  -OEChem-04052305333D

 83 91  0     1  0  0  0  0  0999 V2000
  -28.0567  -30.2217   23.1747 C   0  0  0  0  0  0  0  0  0  0  0  0
  -28.0187  -29.0937   23.9880 C   0  0  0  0  0  0  0  0  0  0  0  0
  -23.9159   -9.4933   19.8660 C   0  0  0  0  0  0  0  0  0  0  0  0
  -24.5229   -9.7017   22.1952 C   0  0  0  0  0  0  0  0  0  0  0  0
  -27.6911  -30.1247   21.8327 C   0  0  0  0  0  0  0  0  0  0  0  0
  -27.6140  -27.8681   23.4600 C   0  0  0  0  0  0  0  0  0  0  0  0
  -29.7190  -22.3246   24.9911 C   0  0  0  0  0  0  0  0  0  0  0  0
  -23.5154   -8.1758   20.0882 C   0  0  0  0  0  0  0  0  0  0  0  0
  -24.1223   -8.3842   22.4174 C   0  0  0  0  0  0  0  0  0  0  0  0
  -29.2278  -21.3375   25.8444 C   0  0  0  0  0  0  0  0  0  0  0  0
  -21.2232   -6.7051   22.8608 C   0  0  0  0  0  0  0  0  0  0  0  0
  -20.4484   -6.4470   23.9916 C   0  0  0  0  0  0  0  0  0  0  0  0
  -28.2037  -20.2288   23.9625 C   0  0  0  0  0  0  0  0  0  0  0  0
  -22.1456   -4.9342   24.8090 C   0  0  0  0  0  0  0  0  0  0  0  0
  -32.4522  -16.6297   25.0831 C   0  0  0  0  0  0  0  0  0  0  0  0
  -24.4198  -10.2562   20.9195 C   0  0  0  0  0  0  0  0  0  0  0  0
  -24.0417  -12.7759   20.7935 C   0  0  0  0  0  0  0  0  0  0  0  0
  -27.2910  -28.8954   21.2856 C   0  0  0  0  0  0  0  0  0  0  0  0
  -29.4466  -22.2770   23.6163 C   0  0  0  0  0  0  0  0  0  0  0  0
  -27.2415  -27.7549   22.1098 C   0  0  0  0  0  0  0  0  0  0  0  0
  -28.6948  -21.2151   23.0936 C   0  0  0  0  0  0  0  0  0  0  0  0
  -23.6185   -7.6213   21.3639 C   0  0  0  0  0  0  0  0  0  0  0  0
  -28.4676  -20.2910   25.3306 C   0  0  0  0  0  0  0  0  0  0  0  0
  -22.4591   -6.0778   22.7040 C   0  0  0  0  0  0  0  0  0  0  0  0
  -20.9096   -5.5615   24.9657 C   0  0  0  0  0  0  0  0  0  0  0  0
  -22.9204   -5.1923   23.6781 C   0  0  0  0  0  0  0  0  0  0  0  0
  -24.8343  -11.6170   20.6904 C   0  0  0  0  0  0  0  0  0  0  0  0
  -33.0518  -16.2288   23.9066 C   0  0  0  0  0  0  0  0  0  0  0  0
  -31.0939  -16.4020   25.1688 C   0  0  0  0  0  0  0  0  0  0  0  0
  -24.8956  -13.8049   20.4798 C   0  0  0  0  0  0  0  0  0  0  0  0
  -31.0662  -15.4813   23.0906 C   0  0  0  0  0  0  0  0  0  0  0  0
  -22.6574  -12.9102   21.1417 C   0  0  0  0  0  0  0  0  0  0  0  0
  -27.9149  -24.1627   21.5665 C   0  0  0  0  0  0  0  0  0  0  0  0
  -29.0523  -22.0544   19.3792 C   0  0  0  0  0  0  0  0  0  0  0  0
  -30.1988  -18.9107   18.7089 C   0  0  0  0  0  0  0  0  0  0  0  0
  -30.8287  -14.4316   20.8129 C   0  0  0  0  0  0  0  0  0  0  0  0
  -26.8597  -28.8496   19.8412 C   0  0  0  0  0  0  0  0  0  0  0  0
  -30.0063  -23.3350   22.7054 C   0  0  0  0  0  0  0  0  0  0  0  0
  -28.3913  -21.1071   21.6223 C   0  0  0  0  0  0  0  0  0  0  0  0
  -26.8016  -27.4363   19.2673 C   0  0  0  0  0  0  0  0  0  0  0  0
  -28.8125  -14.7655   17.8973 C   0  0  0  0  0  0  0  0  0  0  0  0
  -26.0844  -26.4974   20.2322 C   0  0  0  0  0  0  0  0  0  0  0  0
  -27.4893  -14.1069   18.2941 C   0  0  0  0  0  0  0  0  0  0  0  0
  -30.0122  -14.0361   18.4995 C   0  0  0  0  0  0  0  0  0  0  0  0
  -28.6297  -13.1802   20.3503 C   0  0  0  0  0  0  0  0  0  0  0  0
  -26.8318  -26.4027   21.5678 C   0  0  1  0  0  0  0  0  0  0  0  0
  -29.2347  -23.4651   21.3958 C   0  0  1  0  0  0  0  0  0  0  0  0
  -27.3893  -13.9181   19.8205 C   0  0  2  0  0  0  0  0  0  0  0  0
  -34.5178  -16.4337   23.7212 C   0  0  0  0  0  0  0  0  0  0  0  0
  -31.0163  -17.4729   16.8217 C   0  0  0  0  0  0  0  0  0  0  0  0
  -28.7716  -15.1599   26.9331 C   0  0  0  0  0  0  0  0  0  0  0  0
  -26.1838  -21.7207   18.3941 C   0  0  0  0  0  0  0  0  0  0  0  0
  -26.9070  -19.6373   17.2091 C   0  0  0  0  0  0  0  0  0  0  0  0
  -27.9026  -21.8366   16.5812 C   0  0  0  0  0  0  0  0  0  0  0  0
  -32.8433  -18.5384   19.9844 C   0  0  0  0  0  0  0  0  0  0  0  0
  -28.5670  -17.5578   27.6771 C   0  0  0  0  0  0  0  0  0  0  0  0
  -28.7548  -19.0305   27.3268 C   0  0  0  0  0  0  0  0  0  1  0  0
  -28.5511  -20.7641   18.7769 C   0  0  1  0  0  0  0  0  0  0  0  0
  -31.4137  -18.4244   17.9394 C   0  0  2  0  0  0  0  0  0  0  0  0
  -29.0362  -16.6161   26.5636 C   0  0  1  0  0  0  0  0  0  0  0  0
  -27.3900  -20.9925   17.7684 C   0  0  0  0  0  0  0  0  0  0  0  0
  -26.0948  -11.8841   20.3386 N   0  0  0  0  0  0  0  0  0  0  0  0
  -32.3866  -15.6492   22.8859 N   0  0  0  0  0  0  0  0  0  0  0  0
  -30.3667  -15.8280   24.1879 N   0  0  0  0  0  0  0  0  0  0  0  0
  -26.1007  -13.2225   20.2178 N   0  0  0  0  0  0  0  0  0  0  0  0
  -28.9554  -22.1694   20.7732 N   0  0  0  0  0  0  0  0  0  0  0  0
  -29.8497  -13.8977   19.9484 N   0  0  0  0  0  0  0  0  0  0  0  0
  -24.7257  -15.1421   20.4052 N   0  0  0  0  0  0  0  0  0  0  0  0
  -21.9267  -11.7507   21.4351 N   0  0  0  0  0  0  0  0  0  0  0  0
  -30.4552  -16.7898   26.3329 N   0  0  0  0  0  0  0  0  0  0  0  0
  -30.3348  -14.8752   22.0392 N   0  0  0  0  0  0  0  0  0  0  0  0
  -27.9847  -25.5371   21.4415 N   0  0  0  0  0  0  0  0  0  0  0  0
  -29.7177  -20.1005   18.2048 N   0  0  0  0  0  0  0  0  0  0  0  0
  -32.3533  -17.7123   18.8511 N   0  3  0  0  0  0  0  0  0  0  0  0
  -22.0812  -14.0239   21.1753 O   0  0  0  0  0  0  0  0  0  0  0  0
  -26.9075  -23.5027   21.7932 O   0  0  0  0  0  0  0  0  0  0  0  0
  -29.5192  -22.9253   18.6409 O   0  0  0  0  0  0  0  0  0  0  0  0
  -29.7220  -18.2947   19.6595 O   0  0  0  0  0  0  0  0  0  0  0  0
  -32.0132  -14.5160   20.4786 O   0  0  0  0  0  0  0  0  0  0  0  0
  -23.2275   -6.3358   21.5812 O   0  0  0  0  0  0  0  0  0  0  0  0
  -27.9863  -19.3266   26.1614 O   0  0  0  0  0  0  0  0  0  1  0  0
  -20.1662   -5.3148   26.0523 F   0  0  0  0  0  0  0  0  0  0  0  0
  -24.1074   -4.5876   23.5336 F   0  0  0  0  0  0  0  0  0  0  0  0
  1  2  1  0  0  0  0
  1  5  2  0  0  0  0
  2  6  2  0  0  0  0
  3  8  2  0  0  0  0
  3 16  1  0  0  0  0
  4  9  1  0  0  0  0
  4 16  2  0  0  0  0
  5 18  1  0  0  0  0
  6 20  1  0  0  0  0
  7 10  2  0  0  0  0
  7 19  1  0  0  0  0
  8 22  1  0  0  0  0
  9 22  2  0  0  0  0
 10 23  1  0  0  0  0
 11 12  2  0  0  0  0
 11 24  1  0  0  0  0
 12 25  1  0  0  0  0
 13 21  1  0  0  0  0
 13 23  2  0  0  0  0
 14 25  2  0  0  0  0
 14 26  1  0  0  0  0
 15 28  2  0  0  0  0
 15 29  1  0  0  0  0
 16 27  1  0  0  0  0
 17 27  1  0  0  0  0
 17 30  2  0  0  0  0
 17 32  1  0  0  0  0
 18 20  2  0  0  0  0
 18 37  1  0  0  0  0
 19 21  2  0  0  0  0
 19 38  1  0  0  0  0
 20 46  1  0  0  0  0
 21 39  1  0  0  0  0
 22 80  1  0  0  0  0
 23 81  1  0  0  0  0
 24 26  2  0  0  0  0
 24 80  1  0  0  0  0
 25 82  1  0  0  0  0
 26 83  1  0  0  0  0
 27 62  2  0  0  0  0
 28 49  1  0  0  0  0
 28 63  1  0  0  0  0
 29 64  2  0  0  0  0
 29 70  1  0  0  0  0
 30 65  1  0  0  0  0
 30 68  1  0  0  0  0
 31 63  2  0  0  0  0
 31 64  1  0  0  0  0
 31 71  1  0  0  0  0
 32 69  1  0  0  0  0
 32 75  2  0  0  0  0
 33 47  1  0  0  0  0
 33 72  1  0  0  0  0
 33 76  2  0  0  0  0
 34 58  1  0  0  0  0
 34 66  1  0  0  0  0
 34 77  2  0  0  0  0
 35 59  1  0  0  0  0
 35 73  1  0  0  0  0
 35 78  2  0  0  0  0
 36 67  1  0  0  0  0
 36 71  1  0  0  0  0
 36 79  2  0  0  0  0
 37 40  1  0  0  0  0
 38 47  1  0  0  0  0
 39 66  1  0  0  0  0
 40 42  1  0  0  0  0
 41 43  1  0  0  0  0
 41 44  1  0  0  0  0
 42 46  1  0  0  0  0
 43 48  1  0  0  0  0
 44 67  1  0  0  0  0
 45 48  1  0  0  0  0
 45 67  1  0  0  0  0
 46 72  1  0  0  0  0
 47 66  1  0  0  0  0
 48 65  1  0  0  0  0
 50 59  1  0  0  0  0
 51 60  1  0  0  0  0
 52 61  1  0  0  0  0
 53 61  1  0  0  0  0
 54 61  1  0  0  0  0
 55 74  1  0  0  0  0
 56 57  1  0  0  0  0
 56 60  1  0  0  0  0
 57 81  1  0  0  0  0
 58 61  1  0  0  0  0
 58 73  1  0  0  0  0
 59 74  1  0  0  0  0
 60 70  1  0  0  0  0
 62 65  1  0  0  0  0
M  CHG  1  74   1
M  ISO  4  36 100  57 101  71 100  81 101
M  END
> <Batch ID>
0194

> <Smiles>
CNC(C)C(=O)NC(C(=O)N1Cc2cc([101O:1][101CH2:1]CC(C)Nc3cc(C)nc([100NH:0][100C:0](=O)N4CCCC(n5nc(-c6ccc(Oc7ccc(F)cc7F)cc6)c(C(N)=O)c5N)C4)n3)ccc2CC1C(=O)NC1CCCc2ccccc21)C(C)(C)C

> <Shape>
0.245

> <Color>
0.148

> <Negative vol penalty>
0.000

$$$$

  -OEChem-04052305333D

 85 93  0     1  0  0  0  0  0999 V2000
  -29.2554  -37.4271   24.5261 C   0  0  0  0  0  0  0  0  0  0  0  0
  -29.6381  -36.2678   23.8592 C   0  0  0  0  0  0  0  0  0  0  0  0
  -23.6413   -9.1581   19.8733 C   0  0  0  0  0  0  0  0  0  0  0  0
  -24.2449   -9.2716   22.2099 C   0  0  0  0  0  0  0  0  0  0  0  0
  -28.1744  -37.3991   25.4062 C   0  0  0  0  0  0  0  0  0  0  0  0
  -28.9407  -35.0793   24.0728 C   0  0  0  0  0  0  0  0  0  0  0  0
  -27.8262  -30.6754   19.9656 C   0  0  0  0  0  0  0  0  0  0  0  0
  -23.4332   -7.7842   19.9938 C   0  0  0  0  0  0  0  0  0  0  0  0
  -24.0367   -7.8977   22.3305 C   0  0  0  0  0  0  0  0  0  0  0  0
  -28.4502  -29.4563   19.7049 C   0  0  0  0  0  0  0  0  0  0  0  0
  -21.4090   -5.7969   22.6504 C   0  0  0  0  0  0  0  0  0  0  0  0
  -20.6939   -5.3462   23.7600 C   0  0  0  0  0  0  0  0  0  0  0  0
  -26.8183  -28.3334   21.0815 C   0  0  0  0  0  0  0  0  0  0  0  0
  -22.5982   -4.0305   24.4528 C   0  0  0  0  0  0  0  0  0  0  0  0
  -26.6502  -20.3897   24.0570 C   0  0  0  0  0  0  0  0  0  0  0  0
  -24.0473   -9.9018   20.9814 C   0  0  0  0  0  0  0  0  0  0  0  0
  -23.3168  -12.3450   21.0523 C   0  0  0  0  0  0  0  0  0  0  0  0
  -27.4573  -36.2120   25.6234 C   0  0  0  0  0  0  0  0  0  0  0  0
  -26.6981  -30.7343   20.7964 C   0  0  0  0  0  0  0  0  0  0  0  0
  -27.8499  -35.0351   24.9577 C   0  0  0  0  0  0  0  0  0  0  0  0
  -26.1802  -29.5543   21.3491 C   0  0  0  0  0  0  0  0  0  0  0  0
  -23.6308   -7.1539   21.2224 C   0  0  0  0  0  0  0  0  0  0  0  0
  -27.9480  -28.2854   20.2652 C   0  0  0  0  0  0  0  0  0  0  0  0
  -22.7187   -5.3643   22.4420 C   0  0  0  0  0  0  0  0  0  0  0  0
  -21.2885   -4.4630   24.6612 C   0  0  0  0  0  0  0  0  0  0  0  0
  -23.3132   -4.4811   23.3432 C   0  0  0  0  0  0  0  0  0  0  0  0
  -24.2630  -11.3211   20.8574 C   0  0  0  0  0  0  0  0  0  0  0  0
  -27.8319  -20.5741   23.3702 C   0  0  0  0  0  0  0  0  0  0  0  0
  -24.0130  -13.5053   20.8169 C   0  0  0  0  0  0  0  0  0  0  0  0
  -27.4549  -18.4841   22.8226 C   0  0  0  0  0  0  0  0  0  0  0  0
  -21.9322  -12.2553   21.4138 C   0  0  0  0  0  0  0  0  0  0  0  0
  -26.0228  -32.1407   23.5658 C   0  0  0  0  0  0  0  0  0  0  0  0
  -28.4906  -24.9505   23.7337 C   0  0  0  0  0  0  0  0  0  0  0  0
  -23.0380  -31.0249   22.9590 C   0  0  0  0  0  0  0  0  0  0  0  0
  -21.0673  -28.7445   21.3581 C   0  0  0  0  0  0  0  0  0  0  0  0
  -28.5449  -16.6789   21.4444 C   0  0  0  0  0  0  0  0  0  0  0  0
  -26.3254  -36.2196   26.6201 C   0  0  0  0  0  0  0  0  0  0  0  0
  -26.0206  -32.0538   21.0462 C   0  0  0  0  0  0  0  0  0  0  0  0
  -24.9596  -29.5609   22.2314 C   0  0  0  0  0  0  0  0  0  0  0  0
  -25.4052  -35.0070   26.5060 C   0  0  0  0  0  0  0  0  0  0  0  0
  -28.6184  -14.2419   18.8496 C   0  0  0  0  0  0  0  0  0  0  0  0
  -26.2235  -33.7240   26.4004 C   0  0  0  0  0  0  0  0  0  0  0  0
  -27.4140  -13.3490   19.1567 C   0  0  0  0  0  0  0  0  0  0  0  0
  -29.3116  -14.7175   20.1252 C   0  0  0  0  0  0  0  0  0  0  0  0
  -27.2263  -14.4707   21.4136 C   0  0  0  0  0  0  0  0  0  0  0  0
  -27.1028  -33.7323   25.1442 C   0  0  1  0  0  0  0  0  0  0  0  0
  -25.1837  -32.0637   22.3217 C   0  0  1  0  0  0  0  0  0  0  0  0
  -26.4567  -14.0197   20.1614 C   0  0  2  0  0  0  0  0  0  0  0  0
  -29.6442  -25.1702   24.6793 C   0  0  0  0  0  0  0  0  0  0  0  0
  -18.6682  -28.0607   21.0860 C   0  0  0  0  0  0  0  0  0  0  0  0
  -30.5747  -26.2485   20.9924 C   0  0  0  0  0  0  0  0  0  0  0  0
  -23.0968  -29.7282   25.7204 C   0  0  0  0  0  0  0  0  0  0  0  0
  -21.1513  -28.3157   25.0218 C   0  0  0  0  0  0  0  0  0  0  0  0
  -20.9183  -30.7975   25.1163 C   0  0  0  0  0  0  0  0  0  0  0  0
  -21.1272  -29.2690   18.4461 C   0  0  0  0  0  0  0  0  0  0  0  0
  -28.6357  -21.8404   23.3337 C   0  0  0  0  0  0  0  0  0  0  0  0
  -28.3939  -24.9951   21.2240 C   0  0  0  0  0  0  0  0  0  0  0  0
  -28.7854  -24.1751   22.4588 C   0  0  2  0  0  0  0  0  0  0  0  0
  -22.2896  -29.7508   23.2680 C   0  0  1  0  0  0  0  0  0  0  0  0
  -19.8035  -28.9082   20.5333 C   0  0  2  0  0  0  0  0  0  0  0  0
  -29.0630  -26.3733   21.1351 C   0  0  2  0  0  0  0  0  0  1  0  0
  -21.8882  -29.6478   24.7666 C   0  0  0  0  0  0  0  0  0  0  0  0
  -25.4685  -11.7896   20.5238 N   0  0  0  0  0  0  0  0  0  0  0  0
  -28.2951  -19.4824   22.6621 N   0  0  0  0  0  0  0  0  0  0  0  0
  -25.2844  -13.1208   20.5071 N   0  0  0  0  0  0  0  0  0  0  0  0
  -24.3363  -30.8765   22.4511 N   0  0  0  0  0  0  0  0  0  0  0  0
  -28.3439  -15.3461   21.0271 N   0  0  0  0  0  0  0  0  0  0  0  0
  -23.6557  -14.8068   20.8467 N   0  0  0  0  0  0  0  0  0  0  0  0
  -21.3760  -10.9852   21.6184 N   0  0  0  0  0  0  0  0  0  0  0  0
  -27.5429  -17.1805   22.2744 N   0  0  0  0  0  0  0  0  0  0  0  0
  -26.3111  -33.4299   23.9711 N   0  0  0  0  0  0  0  0  0  0  0  0
  -21.1624  -29.7048   22.3430 N   0  0  0  0  0  0  0  0  0  0  0  0
  -20.0501  -28.5003   19.1212 N   0  3  0  0  0  0  0  0  0  0  0  0
  -28.0322  -22.8882   22.4713 N   0  3  0  0  0  0  0  0  0  0  0  0
  -21.2056  -13.2706   21.5353 O   0  0  0  0  0  0  0  0  0  0  0  0
  -26.3808  -31.1070   24.1180 O   0  0  0  0  0  0  0  0  0  0  0  0
  -27.3739  -25.4036   23.9856 O   0  0  0  0  0  0  0  0  0  0  0  0
  -22.4881  -32.1117   23.1542 O   0  0  0  0  0  0  0  0  0  0  0  0
  -21.8863  -27.8515   21.1520 O   0  0  0  0  0  0  0  0  0  0  0  0
  -29.5191  -17.3364   21.0696 O   0  0  0  0  0  0  0  0  0  0  0  0
  -23.4276   -5.8133   21.3404 O   0  0  0  0  0  0  0  0  0  0  0  0
  -28.5556  -27.0942   20.0129 O   0  0  0  0  0  0  0  0  0  1  0  0
  -20.6022   -4.0315   25.7275 F   0  0  0  0  0  0  0  0  0  0  0  0
  -24.5715   -4.0630   23.1489 F   0  0  0  0  0  0  0  0  0  0  0  0
  -26.0862  -18.7887   23.8120 S   0  0  0  0  0  0  0  0  0  0  0  0
  1  2  1  0  0  0  0
  1  5  2  0  0  0  0
  2  6  2  0  0  0  0
  3  8  2  0  0  0  0
  3 16  1  0  0  0  0
  4  9  1  0  0  0  0
  4 16  2  0  0  0  0
  5 18  1  0  0  0  0
  6 20  1  0  0  0  0
  7 10  2  0  0  0  0
  7 19  1  0  0  0  0
  8 22  1  0  0  0  0
  9 22  2  0  0  0  0
 10 23  1  0  0  0  0
 11 12  2  0  0  0  0
 11 24  1  0  0  0  0
 12 25  1  0  0  0  0
 13 21  1  0  0  0  0
 13 23  2  0  0  0  0
 14 25  2  0  0  0  0
 14 26  1  0  0  0  0
 15 28  2  0  0  0  0
 15 85  1  0  0  0  0
 16 27  1  0  0  0  0
 17 27  1  0  0  0  0
 17 29  2  0  0  0  0
 17 31  1  0  0  0  0
 18 20  2  0  0  0  0
 18 37  1  0  0  0  0
 19 21  2  0  0  0  0
 19 38  1  0  0  0  0
 20 46  1  0  0  0  0
 21 39  1  0  0  0  0
 22 81  1  0  0  0  0
 23 82  1  0  0  0  0
 24 26  2  0  0  0  0
 24 81  1  0  0  0  0
 25 83  1  0  0  0  0
 26 84  1  0  0  0  0
 27 63  2  0  0  0  0
 28 56  1  0  0  0  0
 28 64  1  0  0  0  0
 29 65  1  0  0  0  0
 29 68  1  0  0  0  0
 30 64  2  0  0  0  0
 30 70  1  0  0  0  0
 30 85  1  0  0  0  0
 31 69  1  0  0  0  0
 31 75  2  0  0  0  0
 32 47  1  0  0  0  0
 32 71  1  0  0  0  0
 32 76  2  0  0  0  0
 33 49  1  0  0  0  0
 33 58  1  0  0  0  0
 33 77  2  0  0  0  0
 34 59  1  0  0  0  0
 34 66  1  0  0  0  0
 34 78  2  0  0  0  0
 35 60  1  0  0  0  0
 35 72  1  0  0  0  0
 35 79  2  0  0  0  0
 36 67  1  0  0  0  0
 36 70  1  0  0  0  0
 36 80  2  0  0  0  0
 37 40  1  0  0  0  0
 38 47  1  0  0  0  0
 39 66  1  0  0  0  0
 40 42  1  0  0  0  0
 41 43  1  0  0  0  0
 41 44  1  0  0  0  0
 42 46  1  0  0  0  0
 43 48  1  0  0  0  0
 44 67  1  0  0  0  0
 45 48  1  0  0  0  0
 45 67  1  0  0  0  0
 46 71  1  0  0  0  0
 47 66  1  0  0  0  0
 48 65  1  0  0  0  0
 50 60  1  0  0  0  0
 51 61  1  0  0  0  0
 52 62  1  0  0  0  0
 53 62  1  0  0  0  0
 54 62  1  0  0  0  0
 55 73  1  0  0  0  0
 56 74  1  0  0  0  0
 57 58  1  0  0  0  0
 57 61  1  0  0  0  0
 58 74  1  0  0  0  0
 59 62  1  0  0  0  0
 59 72  1  0  0  0  0
 60 73  1  0  0  0  0
 61 82  1  0  0  0  0
 63 65  1  0  0  0  0
M  CHG  2  73   1  74   1
M  ISO  4  36 100  61 101  70 100  82 101
M  END
> <Batch ID>
0194

> <Smiles>
CNC(C)C(=O)NC(C(=O)N1Cc2cc([101O:1][101CH:1](C)CC(NCc3csc([100NH:0][100C:0](=O)N4CCCC(n5nc(-c6ccc(Oc7ccc(F)cc7F)cc6)c(C(N)=O)c5N)C4)n3)C(C)=O)ccc2CC1C(=O)NC1CCCc2ccccc21)C(C)(C)C

> <Shape>
0.302

> <Color>
0.105

> <Negative vol penalty>
0.000

$$$$

  -OEChem-04052305333D

 84 92  0     1  0  0  0  0  0999 V2000
  -16.7402  -28.4628   23.7205 C   0  0  0  0  0  0  0  0  0  0  0  0
  -17.5093  -27.9363   22.6876 C   0  0  0  0  0  0  0  0  0  0  0  0
  -24.3003   -8.7361   20.4016 C   0  0  0  0  0  0  0  0  0  0  0  0
  -22.7588  -10.4957   21.0056 C   0  0  0  0  0  0  0  0  0  0  0  0
  -17.0752  -29.6957   24.2789 C   0  0  0  0  0  0  0  0  0  0  0  0
  -18.6132  -28.6430   22.2118 C   0  0  0  0  0  0  0  0  0  0  0  0
  -22.6747  -25.6903   21.5558 C   0  0  0  0  0  0  0  0  0  0  0  0
  -23.3940   -7.7829   20.8658 C   0  0  0  0  0  0  0  0  0  0  0  0
  -21.8525   -9.5425   21.4697 C   0  0  0  0  0  0  0  0  0  0  0  0
  -22.7031  -24.8911   20.4138 C   0  0  0  0  0  0  0  0  0  0  0  0
  -22.4170   -6.5180   23.8440 C   0  0  0  0  0  0  0  0  0  0  0  0
  -22.9146   -5.4834   24.6363 C   0  0  0  0  0  0  0  0  0  0  0  0
  -24.1521  -26.4914   19.3373 C   0  0  0  0  0  0  0  0  0  0  0  0
  -22.1348   -3.8685   23.0173 C   0  0  0  0  0  0  0  0  0  0  0  0
  -27.5458  -18.8334   18.4766 C   0  0  0  0  0  0  0  0  0  0  0  0
  -23.9827  -10.0926   20.4716 C   0  0  0  0  0  0  0  0  0  0  0  0
  -25.0078  -11.6033   18.6898 C   0  0  0  0  0  0  0  0  0  0  0  0
  -18.1894  -30.4133   23.8162 C   0  0  0  0  0  0  0  0  0  0  0  0
  -23.3771  -26.9034   21.5933 C   0  0  0  0  0  0  0  0  0  0  0  0
  -18.9626  -29.8873   22.7636 C   0  0  0  0  0  0  0  0  0  0  0  0
  -24.1330  -27.3029   20.4819 C   0  0  0  0  0  0  0  0  0  0  0  0
  -22.1701   -8.1860   21.3998 C   0  0  0  0  0  0  0  0  0  0  0  0
  -23.4395  -25.2930   19.3032 C   0  0  0  0  0  0  0  0  0  0  0  0
  -21.7782   -6.2278   22.6384 C   0  0  0  0  0  0  0  0  0  0  0  0
  -22.7736   -4.1587   24.2229 C   0  0  0  0  0  0  0  0  0  0  0  0
  -21.6372   -4.9031   22.2251 C   0  0  0  0  0  0  0  0  0  0  0  0
  -24.9187  -11.0778   19.9928 C   0  0  0  0  0  0  0  0  0  0  0  0
  -28.3434  -18.3891   19.5697 C   0  0  0  0  0  0  0  0  0  0  0  0
  -26.0495  -12.4963   18.7501 C   0  0  0  0  0  0  0  0  0  0  0  0
  -28.0017  -20.0520   18.0226 C   0  0  0  0  0  0  0  0  0  0  0  0
  -24.2192  -11.3104   17.5287 C   0  0  0  0  0  0  0  0  0  0  0  0
  -22.5637  -29.9567   21.9389 C   0  0  0  0  0  0  0  0  0  0  0  0
  -25.7762  -30.4003   22.0097 C   0  0  0  0  0  0  0  0  0  0  0  0
  -26.5137  -20.7172   16.1034 C   0  0  0  0  0  0  0  0  0  0  0  0
  -28.8783  -29.2558   21.1647 C   0  0  0  0  0  0  0  0  0  0  0  0
  -28.7924  -16.6157   21.3017 C   0  0  0  0  0  0  0  0  0  0  0  0
  -18.4844  -31.7640   24.4189 C   0  0  0  0  0  0  0  0  0  0  0  0
  -23.3579  -27.7411   22.8424 C   0  0  0  0  0  0  0  0  0  0  0  0
  -24.9210  -28.5865   20.4787 C   0  0  0  0  0  0  0  0  0  0  0  0
  -19.8897  -32.2746   24.1112 C   0  0  0  0  0  0  0  0  0  0  0  0
  -29.5001  -13.2928   22.3669 C   0  0  0  0  0  0  0  0  0  0  0  0
  -20.2110  -32.0940   22.6310 C   0  0  0  0  0  0  0  0  0  0  0  0
  -28.3786  -12.4636   21.7370 C   0  0  0  0  0  0  0  0  0  0  0  0
  -29.0038  -14.6633   22.8243 C   0  0  0  0  0  0  0  0  0  0  0  0
  -27.1814  -14.6151   21.1672 C   0  0  0  0  0  0  0  0  0  0  0  0
  -20.1821  -30.6123   22.2370 C   0  0  1  0  0  0  0  0  0  0  0  0
  -23.6944  -29.2065   22.5843 C   0  0  1  0  0  0  0  0  0  0  0  0
  -27.6477  -13.2513   20.6321 C   0  0  2  0  0  0  0  0  0  0  0  0
  -31.3101  -29.8543   21.3253 C   0  0  0  0  0  0  0  0  0  0  0  0
  -25.4163  -32.4512   19.7794 C   0  0  0  0  0  0  0  0  0  0  0  0
  -27.8766  -32.3024   19.3404 C   0  0  0  0  0  0  0  0  0  0  0  0
  -27.0526  -33.1130   21.5510 C   0  0  0  0  0  0  0  0  0  0  0  0
  -29.4911  -26.8275   22.7418 C   0  0  0  0  0  0  0  0  0  0  0  0
  -24.8319  -23.2281   16.6877 C   0  0  0  0  0  0  0  0  0  0  0  0
  -26.0968  -23.2159   15.8244 C   0  0  0  0  0  0  0  0  0  0  0  0
  -24.6499  -24.5686   17.3885 C   0  0  0  0  0  0  0  0  0  1  0  0
  -26.8426  -30.6606   20.9733 C   0  0  1  0  0  0  0  0  0  0  0  0
  -26.3842  -21.8803   15.1266 C   0  0  2  0  0  0  0  0  0  0  0  0
  -30.1537  -29.1105   21.9752 C   0  0  2  0  0  0  0  0  0  0  0  0
  -26.7807  -32.1085   20.4101 C   0  0  0  0  0  0  0  0  0  0  0  0
  -25.8313  -11.5939   20.8203 N   0  0  0  0  0  0  0  0  0  0  0  0
  -29.3442  -19.1778   19.9538 N   0  0  0  0  0  0  0  0  0  0  0  0
  -26.5037  -12.4530   20.0354 N   0  0  0  0  0  0  0  0  0  0  0  0
  -24.8655  -29.3741   21.7213 N   0  0  0  0  0  0  0  0  0  0  0  0
  -28.3259  -15.3530   21.7245 N   0  0  0  0  0  0  0  0  0  0  0  0
  -26.6123  -13.3066   17.8286 N   0  0  0  0  0  0  0  0  0  0  0  0
  -23.1883  -10.3675   17.6416 N   0  0  0  0  0  0  0  0  0  0  0  0
  -28.0898  -17.1597   20.2270 N   0  0  0  0  0  0  0  0  0  0  0  0
  -27.5747  -20.9110   16.9823 N   0  0  0  0  0  0  0  0  0  0  0  0
  -21.3927  -29.9497   22.6726 N   0  0  0  0  0  0  0  0  0  0  0  0
  -28.1141  -30.3174   21.6008 N   0  0  0  0  0  0  0  0  0  0  0  0
  -25.3262  -21.5976   14.1153 N   0  3  0  0  0  0  0  0  0  0  0  0
  -30.5287  -27.6734   22.0977 N   0  3  0  0  0  0  0  0  0  0  0  0
  -24.4333  -11.8561   16.4197 O   0  0  0  0  0  0  0  0  0  0  0  0
  -22.7410  -30.5027   20.8563 O   0  0  0  0  0  0  0  0  0  0  0  0
  -25.7566  -31.0777   23.0404 O   0  0  0  0  0  0  0  0  0  0  0  0
  -25.7466  -19.7594   16.0652 O   0  0  0  0  0  0  0  0  0  0  0  0
  -28.5907  -28.5050   20.2352 O   0  0  0  0  0  0  0  0  0  0  0  0
  -29.7621  -17.1611   21.8347 O   0  0  0  0  0  0  0  0  0  0  0  0
  -21.2854   -7.2560   21.8526 O   0  0  0  0  0  0  0  0  0  0  0  0
  -23.4684  -24.5151   18.1870 O   0  0  0  0  0  0  0  0  0  1  0  0
  -23.2529   -3.1654   24.9831 F   0  0  0  0  0  0  0  0  0  0  0  0
  -21.0255   -4.6182   21.0673 F   0  0  0  0  0  0  0  0  0  0  0  0
  -29.3473  -20.5198   18.9735 S   0  0  0  0  0  0  0  0  0  0  0  0
  1  2  1  0  0  0  0
  1  5  2  0  0  0  0
  2  6  2  0  0  0  0
  3  8  2  0  0  0  0
  3 16  1  0  0  0  0
  4  9  1  0  0  0  0
  4 16  2  0  0  0  0
  5 18  1  0  0  0  0
  6 20  1  0  0  0  0
  7 10  2  0  0  0  0
  7 19  1  0  0  0  0
  8 22  1  0  0  0  0
  9 22  2  0  0  0  0
 10 23  1  0  0  0  0
 11 12  2  0  0  0  0
 11 24  1  0  0  0  0
 12 25  1  0  0  0  0
 13 21  1  0  0  0  0
 13 23  2  0  0  0  0
 14 25  2  0  0  0  0
 14 26  1  0  0  0  0
 15 28  1  0  0  0  0
 15 30  2  0  0  0  0
 16 27  1  0  0  0  0
 17 27  1  0  0  0  0
 17 29  2  0  0  0  0
 17 31  1  0  0  0  0
 18 20  2  0  0  0  0
 18 37  1  0  0  0  0
 19 21  2  0  0  0  0
 19 38  1  0  0  0  0
 20 46  1  0  0  0  0
 21 39  1  0  0  0  0
 22 80  1  0  0  0  0
 23 81  1  0  0  0  0
 24 26  2  0  0  0  0
 24 80  1  0  0  0  0
 25 82  1  0  0  0  0
 26 83  1  0  0  0  0
 27 61  2  0  0  0  0
 28 62  2  0  0  0  0
 28 68  1  0  0  0  0
 29 63  1  0  0  0  0
 29 66  1  0  0  0  0
 30 69  1  0  0  0  0
 30 84  1  0  0  0  0
 31 67  1  0  0  0  0
 31 74  2  0  0  0  0
 32 47  1  0  0  0  0
 32 70  1  0  0  0  0
 32 75  2  0  0  0  0
 33 57  1  0  0  0  0
 33 64  1  0  0  0  0
 33 76  2  0  0  0  0
 34 58  1  0  0  0  0
 34 69  1  0  0  0  0
 34 77  2  0  0  0  0
 35 59  1  0  0  0  0
 35 71  1  0  0  0  0
 35 78  2  0  0  0  0
 36 65  1  0  0  0  0
 36 68  1  0  0  0  0
 36 79  2  0  0  0  0
 37 40  1  0  0  0  0
 38 47  1  0  0  0  0
 39 64  1  0  0  0  0
 40 42  1  0  0  0  0
 41 43  1  0  0  0  0
 41 44  1  0  0  0  0
 42 46  1  0  0  0  0
 43 48  1  0  0  0  0
 44 65  1  0  0  0  0
 45 48  1  0  0  0  0
 45 65  1  0  0  0  0
 46 70  1  0  0  0  0
 47 64  1  0  0  0  0
 48 63  1  0  0  0  0
 49 59  1  0  0  0  0
 50 60  1  0  0  0  0
 51 60  1  0  0  0  0
 52 60  1  0  0  0  0
 53 73  1  0  0  0  0
 54 55  1  0  0  0  0
 54 56  1  0  0  0  0
 55 58  1  0  0  0  0
 56 81  1  0  0  0  0
 57 60  1  0  0  0  0
 57 71  1  0  0  0  0
 58 72  1  0  0  0  0
 59 73  1  0  0  0  0
 61 63  1  0  0  0  0
 62 84  1  0  0  0  0
M  CHG  2  72   1  73   1
M  ISO  4  36 100  56 101  68 100  81 101
M  END
> <Batch ID>
0194

> <Smiles>
CNC(C)C(=O)NC(C(=O)N1Cc2cc([101O:1][101CH2:1]CCC(N)C(=O)Nc3cc([100NH:0][100C:0](=O)N4CCCC(n5nc(-c6ccc(Oc7ccc(F)cc7F)cc6)c(C(N)=O)c5N)C4)ns3)ccc2CC1C(=O)NC1CCCc2ccccc21)C(C)(C)C

> <Shape>
0.274

> <Color>
0.096

> <Negative vol penalty>
0.000

$$$$

  -OEChem-04052305333D

 88 96  0     1  0  0  0  0  0999 V2000
  -25.2979  -37.2875   16.9281 C   0  0  0  0  0  0  0  0  0  0  0  0
  -25.7580  -35.9837   16.7731 C   0  0  0  0  0  0  0  0  0  0  0  0
  -24.2782   -9.1252   22.0755 C   0  0  0  0  0  0  0  0  0  0  0  0
  -23.1120   -9.6152   20.0171 C   0  0  0  0  0  0  0  0  0  0  0  0
  -25.2262  -37.8535   18.2003 C   0  0  0  0  0  0  0  0  0  0  0  0
  -26.1477  -35.2456   17.8901 C   0  0  0  0  0  0  0  0  0  0  0  0
  -25.4762  -29.2176   18.7369 C   0  0  0  0  0  0  0  0  0  0  0  0
  -27.3218  -19.3156   16.5307 C   0  0  0  0  0  0  0  0  0  0  0  0
  -23.5796   -7.9230   22.1851 C   0  0  0  0  0  0  0  0  0  0  0  0
  -22.4134   -8.4129   20.1267 C   0  0  0  0  0  0  0  0  0  0  0  0
  -26.3528  -28.1449   18.5799 C   0  0  0  0  0  0  0  0  0  0  0  0
  -20.5065   -6.9085   23.1606 C   0  0  0  0  0  0  0  0  0  0  0  0
  -19.9755   -6.5799   24.4078 C   0  0  0  0  0  0  0  0  0  0  0  0
  -26.6812  -18.3718   17.3257 C   0  0  0  0  0  0  0  0  0  0  0  0
  -26.8733  -28.2335   20.9337 C   0  0  0  0  0  0  0  0  0  0  0  0
  -21.3086   -4.5653   24.4445 C   0  0  0  0  0  0  0  0  0  0  0  0
  -24.0444   -9.9714   20.9914 C   0  0  0  0  0  0  0  0  0  0  0  0
  -25.9973  -11.4255   20.2302 C   0  0  0  0  0  0  0  0  0  0  0  0
  -25.6060  -37.1186   19.3344 C   0  0  0  0  0  0  0  0  0  0  0  0
  -25.2994  -29.8143   19.9936 C   0  0  0  0  0  0  0  0  0  0  0  0
  -26.0823  -35.8028   19.1785 C   0  0  0  0  0  0  0  0  0  0  0  0
  -25.9919  -29.3120   21.1045 C   0  0  0  0  0  0  0  0  0  0  0  0
  -27.2489  -20.6632   16.8656 C   0  0  0  0  0  0  0  0  0  0  0  0
  -22.6472   -7.5668   21.2108 C   0  0  0  0  0  0  0  0  0  0  0  0
  -27.0537  -27.6546   19.6778 C   0  0  0  0  0  0  0  0  0  0  0  0
  -21.4385   -6.0655   22.5553 C   0  0  0  0  0  0  0  0  0  0  0  0
  -20.3765   -5.4083   25.0498 C   0  0  0  0  0  0  0  0  0  0  0  0
  -21.8396   -4.8939   23.1973 C   0  0  0  0  0  0  0  0  0  0  0  0
  -24.7654  -11.2137   20.8779 C   0  0  0  0  0  0  0  0  0  0  0  0
  -25.9862  -18.8234   18.4361 C   0  0  0  0  0  0  0  0  0  0  0  0
  -26.5283  -21.0122   17.9964 C   0  0  0  0  0  0  0  0  0  0  0  0
  -26.2509  -12.7642   20.4041 C   0  0  0  0  0  0  0  0  0  0  0  0
  -26.8371  -10.4955   19.5335 C   0  0  0  0  0  0  0  0  0  0  0  0
  -25.8037  -32.7158   21.1898 C   0  0  0  0  0  0  0  0  0  0  0  0
  -24.2418  -22.8401   19.1643 C   0  0  0  0  0  0  0  0  0  0  0  0
  -24.3491  -31.4648   23.8054 C   0  0  0  0  0  0  0  0  0  0  0  0
  -23.5214  -28.6895   25.6108 C   0  0  0  0  0  0  0  0  0  0  0  0
  -24.5884  -18.0782   20.3949 C   0  0  0  0  0  0  0  0  0  0  0  0
  -25.5556  -37.7893   20.6844 C   0  0  0  0  0  0  0  0  0  0  0  0
  -24.3300  -30.9534   20.1515 C   0  0  0  0  0  0  0  0  0  0  0  0
  -25.8223  -29.9043   22.4789 C   0  0  0  0  0  0  0  0  0  0  0  0
  -25.6336  -36.8111   21.8537 C   0  0  0  0  0  0  0  0  0  0  0  0
  -23.9747  -16.1922   23.3519 C   0  0  0  0  0  0  0  0  0  0  0  0
  -26.7504  -35.7970   21.6279 C   0  0  0  0  0  0  0  0  0  0  0  0
  -24.2271  -14.7463   22.9186 C   0  0  0  0  0  0  0  0  0  0  0  0
  -23.3155  -17.0099   22.2425 C   0  0  0  0  0  0  0  0  0  0  0  0
  -24.2628  -15.5297   20.5160 C   0  0  0  0  0  0  0  0  0  0  0  0
  -26.4907  -34.9617   20.3684 C   0  0  1  0  0  0  0  0  0  0  0  0
  -24.6155  -31.8154   21.3773 C   0  0  1  0  0  0  0  0  0  0  0  0
  -24.9847  -14.6838   21.5778 C   0  0  2  0  0  0  0  0  0  0  0  0
  -21.8388  -22.6046   19.9185 C   0  0  0  0  0  0  0  0  0  0  0  0
  -22.3639  -27.9868   27.7236 C   0  0  0  0  0  0  0  0  0  0  0  0
  -29.5466  -25.7819   21.0762 C   0  0  0  0  0  0  0  0  0  0  0  0
  -26.7694  -32.3682   25.4289 C   0  0  0  0  0  0  0  0  0  0  0  0
  -26.0188  -30.8424   27.2665 C   0  0  0  0  0  0  0  0  0  0  0  0
  -24.5645  -32.7381   26.5496 C   0  0  0  0  0  0  0  0  0  0  0  0
  -21.5067  -27.1148   24.1207 C   0  0  0  0  0  0  0  0  0  0  0  0
  -23.3005  -22.5635   20.3267 C   0  0  0  0  0  0  0  0  0  0  0  0
  -26.1769  -24.2620   19.8554 C   0  0  0  0  0  0  0  0  0  0  0  0
  -27.6558  -24.3255   20.2642 C   0  0  0  0  0  0  0  0  0  0  0  0
  -25.7305  -22.8420   19.4933 C   0  0  2  0  0  0  0  0  0  0  0  0
  -24.8148  -30.7274   25.0376 C   0  0  1  0  0  0  0  0  0  0  0  0
  -22.2094  -28.2471   26.2333 C   0  0  2  0  0  0  0  0  0  0  0  0
  -28.0851  -25.7448   20.6500 C   0  0  2  0  0  0  0  0  0  1  0  0
  -25.5468  -31.6589   26.0445 C   0  0  0  0  0  0  0  0  0  0  0  0
  -24.2710  -12.3284   21.4228 N   0  0  0  0  0  0  0  0  0  0  0  0
  -25.8929  -20.1239   18.7932 N   0  0  0  0  0  0  0  0  0  0  0  0
  -25.1968  -13.2536   21.1180 N   0  0  0  0  0  0  0  0  0  0  0  0
  -24.8678  -31.0205   22.5809 N   0  0  0  0  0  0  0  0  0  0  0  0
  -24.0906  -16.9069   21.0042 N   0  0  0  0  0  0  0  0  0  0  0  0
  -27.8952  -21.6199   16.0605 N   0  0  0  0  0  0  0  0  0  0  0  0
  -27.2706  -13.5585   20.0147 N   0  0  0  0  0  0  0  0  0  0  0  0
  -26.4264   -9.1582   19.4487 N   0  0  0  0  0  0  0  0  0  0  0  0
  -25.3381  -17.8537   19.2407 N   0  0  0  0  0  0  0  0  0  0  0  0
  -26.4515  -22.3506   18.3378 N   0  0  0  0  0  0  0  0  0  0  0  0
  -25.4975  -33.9430   20.6334 N   0  0  0  0  0  0  0  0  0  0  0  0
  -23.6370  -30.0633   25.5855 N   0  0  0  0  0  0  0  0  0  0  0  0
  -21.7247  -26.9956   25.5854 N   0  3  0  0  0  0  0  0  0  0  0  0
  -27.9276  -10.8368   19.0160 O   0  0  0  0  0  0  0  0  0  0  0  0
  -26.9158  -32.3264   21.5264 O   0  0  0  0  0  0  0  0  0  0  0  0
  -23.8278  -23.0694   18.0277 O   0  0  0  0  0  0  0  0  0  0  0  0
  -23.5488  -32.3960   23.9243 O   0  0  0  0  0  0  0  0  0  0  0  0
  -24.3613  -27.8958   25.1926 O   0  0  0  0  0  0  0  0  0  0  0  0
  -24.3888  -19.1958   20.8776 O   0  0  0  0  0  0  0  0  0  0  0  0
  -21.9654   -6.3936   21.3174 O   0  0  0  0  0  0  0  0  0  0  0  0
  -27.9105  -26.6081   19.5272 O   0  0  0  0  0  0  0  0  0  1  0  0
  -19.8676   -5.0936   26.2482 F   0  0  0  0  0  0  0  0  0  0  0  0
  -22.7355   -4.0807   22.6213 F   0  0  0  0  0  0  0  0  0  0  0  0
  1  2  1  0  0  0  0
  1  5  2  0  0  0  0
  2  6  2  0  0  0  0
  3  9  2  0  0  0  0
  3 17  1  0  0  0  0
  4 10  1  0  0  0  0
  4 17  2  0  0  0  0
  5 19  1  0  0  0  0
  6 21  1  0  0  0  0
  7 11  2  0  0  0  0
  7 20  1  0  0  0  0
  8 14  2  0  0  0  0
  8 23  1  0  0  0  0
  9 24  1  0  0  0  0
 10 24  2  0  0  0  0
 11 25  1  0  0  0  0
 12 13  2  0  0  0  0
 12 26  1  0  0  0  0
 13 27  1  0  0  0  0
 14 30  1  0  0  0  0
 15 22  1  0  0  0  0
 15 25  2  0  0  0  0
 16 27  2  0  0  0  0
 16 28  1  0  0  0  0
 17 29  1  0  0  0  0
 18 29  1  0  0  0  0
 18 32  2  0  0  0  0
 18 33  1  0  0  0  0
 19 21  2  0  0  0  0
 19 39  1  0  0  0  0
 20 22  2  0  0  0  0
 20 40  1  0  0  0  0
 21 48  1  0  0  0  0
 22 41  1  0  0  0  0
 23 31  2  0  0  0  0
 23 71  1  0  0  0  0
 24 85  1  0  0  0  0
 25 86  1  0  0  0  0
 26 28  2  0  0  0  0
 26 85  1  0  0  0  0
 27 87  1  0  0  0  0
 28 88  1  0  0  0  0
 29 66  2  0  0  0  0
 30 67  2  0  0  0  0
 30 74  1  0  0  0  0
 31 67  1  0  0  0  0
 31 75  1  0  0  0  0
 32 68  1  0  0  0  0
 32 72  1  0  0  0  0
 33 73  1  0  0  0  0
 33 79  2  0  0  0  0
 34 49  1  0  0  0  0
 34 76  1  0  0  0  0
 34 80  2  0  0  0  0
 35 58  1  0  0  0  0
 35 61  1  0  0  0  0
 35 81  2  0  0  0  0
 36 62  1  0  0  0  0
 36 69  1  0  0  0  0
 36 82  2  0  0  0  0
 37 63  1  0  0  0  0
 37 77  1  0  0  0  0
 37 83  2  0  0  0  0
 38 70  1  0  0  0  0
 38 74  1  0  0  0  0
 38 84  2  0  0  0  0
 39 42  1  0  0  0  0
 40 49  1  0  0  0  0
 41 69  1  0  0  0  0
 42 44  1  0  0  0  0
 43 45  1  0  0  0  0
 43 46  1  0  0  0  0
 44 48  1  0  0  0  0
 45 50  1  0  0  0  0
 46 70  1  0  0  0  0
 47 50  1  0  0  0  0
 47 70  1  0  0  0  0
 48 76  1  0  0  0  0
 49 69  1  0  0  0  0
 50 68  1  0  0  0  0
 51 58  1  0  0  0  0
 52 63  1  0  0  0  0
 53 64  1  0  0  0  0
 54 65  1  0  0  0  0
 55 65  1  0  0  0  0
 56 65  1  0  0  0  0
 57 78  1  0  0  0  0
 59 60  1  0  0  0  0
 59 61  1  0  0  0  0
 60 64  1  0  0  0  0
 61 75  1  0  0  0  0
 62 65  1  0  0  0  0
 62 77  1  0  0  0  0
 63 78  1  0  0  0  0
 64 86  1  0  0  0  0
 66 68  1  0  0  0  0
M  CHG  1  78   1
M  ISO  4  38 100  64 101  74 100  86 101
M  END
> <Batch ID>
0194

> <Smiles>
CCC(=O)C(CC[101CH:1](C)[101O:1]c1ccc2c(c1)CN(C(=O)C(NC(=O)C(C)NC)C(C)(C)C)C(C(=O)NC1CCCc3ccccc31)C2)Nc1nc([100NH:0][100C:0](=O)N2CCCC(n3nc(-c4ccc(Oc5ccc(F)cc5F)cc4)c(C(N)=O)c3N)C2)ccc1N

> <Shape>
0.232

> <Color>
0.107

> <Negative vol penalty>
0.000

$$$$

  -OEChem-04052305333D

 82 90  0     1  0  0  0  0  0999 V2000
  -16.5743  -29.7117   23.3723 C   0  0  0  0  0  0  0  0  0  0  0  0
  -17.6053  -30.5222   23.8364 C   0  0  0  0  0  0  0  0  0  0  0  0
  -29.1450  -17.6753   19.8047 C   0  0  0  0  0  0  0  0  0  0  0  0
  -31.2953  -18.4671   20.5704 C   0  0  0  0  0  0  0  0  0  0  0  0
  -16.8596  -28.4446   22.8654 C   0  0  0  0  0  0  0  0  0  0  0  0
  -18.9222  -30.0657   23.7949 C   0  0  0  0  0  0  0  0  0  0  0  0
  -25.6255  -32.4308   22.9076 C   0  0  0  0  0  0  0  0  0  0  0  0
  -29.6062  -16.3605   19.8693 C   0  0  0  0  0  0  0  0  0  0  0  0
  -31.7565  -17.1523   20.6350 C   0  0  0  0  0  0  0  0  0  0  0  0
  -26.8758  -32.3802   23.5225 C   0  0  0  0  0  0  0  0  0  0  0  0
  -33.3861  -13.9811   21.3467 C   0  0  0  0  0  0  0  0  0  0  0  0
  -34.1047  -13.6001   22.4798 C   0  0  0  0  0  0  0  0  0  0  0  0
  -27.2581  -30.2049   22.5523 C   0  0  0  0  0  0  0  0  0  0  0  0
  -32.2002  -14.1341   23.8672 C   0  0  0  0  0  0  0  0  0  0  0  0
  -32.2475  -29.5716   18.6383 C   0  0  0  0  0  0  0  0  0  0  0  0
  -29.9896  -18.7286   20.1553 C   0  0  0  0  0  0  0  0  0  0  0  0
  -28.8808  -20.8175   21.1117 C   0  0  0  0  0  0  0  0  0  0  0  0
  -18.1817  -27.9760   22.8087 C   0  0  0  0  0  0  0  0  0  0  0  0
  -25.1769  -31.3624   22.1180 C   0  0  0  0  0  0  0  0  0  0  0  0
  -19.2253  -28.7906   23.2880 C   0  0  0  0  0  0  0  0  0  0  0  0
  -26.0029  -30.2456   21.9264 C   0  0  0  0  0  0  0  0  0  0  0  0
  -30.9119  -16.0990   20.2844 C   0  0  0  0  0  0  0  0  0  0  0  0
  -27.6911  -31.2659   23.3473 C   0  0  0  0  0  0  0  0  0  0  0  0
  -32.0746  -14.4388   21.4738 C   0  0  0  0  0  0  0  0  0  0  0  0
  -33.5117  -13.6765   23.7400 C   0  0  0  0  0  0  0  0  0  0  0  0
  -31.4816  -14.5153   22.7340 C   0  0  0  0  0  0  0  0  0  0  0  0
  -29.5140  -20.0871   20.0883 C   0  0  0  0  0  0  0  0  0  0  0  0
  -28.6289  -22.0460   20.5513 C   0  0  0  0  0  0  0  0  0  0  0  0
  -31.4663  -27.6362   18.6084 C   0  0  0  0  0  0  0  0  0  0  0  0
  -28.5499  -20.4211   22.4492 C   0  0  0  0  0  0  0  0  0  0  0  0
  -22.7350  -29.3330   22.2679 C   0  0  0  0  0  0  0  0  0  0  0  0
  -23.8467  -28.3895   19.3703 C   0  0  0  0  0  0  0  0  0  0  0  0
  -26.4764  -28.1747   17.2058 C   0  0  0  0  0  0  0  0  0  0  0  0
  -30.9611  -25.8602   16.8946 C   0  0  0  0  0  0  0  0  0  0  0  0
  -18.4360  -26.5807   22.2960 C   0  0  0  0  0  0  0  0  0  0  0  0
  -23.8368  -31.4440   21.4398 C   0  0  0  0  0  0  0  0  0  0  0  0
  -25.5763  -29.0810   21.0719 C   0  0  0  0  0  0  0  0  0  0  0  0
  -19.8974  -26.3193   21.9406 C   0  0  0  0  0  0  0  0  0  0  0  0
  -28.2591  -23.7551   15.9225 C   0  0  0  0  0  0  0  0  0  0  0  0
  -20.8152  -26.8257   23.0487 C   0  0  0  0  0  0  0  0  0  0  0  0
  -28.2439  -22.6653   16.9969 C   0  0  0  0  0  0  0  0  0  0  0  0
  -29.6821  -24.1882   15.5741 C   0  0  0  0  0  0  0  0  0  0  0  0
  -30.4929  -23.4970   17.7954 C   0  0  0  0  0  0  0  0  0  0  0  0
  -20.6693  -28.3406   23.2367 C   0  0  1  0  0  0  0  0  0  0  0  0
  -23.2672  -30.0764   21.0755 C   0  0  1  0  0  0  0  0  0  0  0  0
  -29.0789  -23.0742   18.2262 C   0  0  2  0  0  0  0  0  0  0  0  0
  -27.0880  -27.3175   14.9279 C   0  0  0  0  0  0  0  0  0  0  0  0
  -30.1927  -33.0278   24.8574 C   0  0  0  0  0  0  0  0  0  0  0  0
  -23.9123  -25.5412   20.4624 C   0  0  0  0  0  0  0  0  0  0  0  0
  -25.3851  -24.9116   18.5382 C   0  0  0  0  0  0  0  0  0  0  0  0
  -23.0702  -25.7396   18.1159 C   0  0  0  0  0  0  0  0  0  0  0  0
  -27.1827  -30.8845   16.2482 C   0  0  0  0  0  0  0  0  0  0  0  0
  -31.1019  -31.5859   22.9999 C   0  0  0  0  0  0  0  0  0  0  0  0
  -32.1639  -30.1676   21.1900 C   0  0  0  0  0  0  0  0  0  0  0  0
  -24.8456  -27.3643   18.8905 C   0  0  1  0  0  0  0  0  0  0  0  0
  -26.5971  -28.5122   15.7306 C   0  0  2  0  0  0  0  0  0  0  0  0
  -30.8504  -30.7630   21.7241 C   0  0  2  0  0  0  0  0  0  0  0  0
  -29.8483  -32.2338   23.6031 C   0  0  1  0  0  0  0  0  0  1  0  0
  -24.3108  -25.9101   19.0195 C   0  0  0  0  0  0  0  0  0  0  0  0
  -31.9392  -28.5471   17.7898 N   0  0  0  0  0  0  0  0  0  0  0  0
  -29.6554  -20.7926   18.9630 N   0  0  0  0  0  0  0  0  0  0  0  0
  -31.4962  -28.1073   19.8839 N   0  0  0  0  0  0  0  0  0  0  0  0
  -31.9951  -29.3519   19.9304 N   0  0  0  0  0  0  0  0  0  0  0  0
  -29.1075  -21.9791   19.2759 N   0  0  0  0  0  0  0  0  0  0  0  0
  -24.2547  -29.2052   20.4351 N   0  0  0  0  0  0  0  0  0  0  0  0
  -30.4114  -24.5652   16.7869 N   0  0  0  0  0  0  0  0  0  0  0  0
  -28.0467  -23.1659   21.0300 N   0  0  0  0  0  0  0  0  0  0  0  0
  -28.8800  -19.1231   22.8623 N   0  0  0  0  0  0  0  0  0  0  0  0
  -31.0015  -26.3632   18.1946 N   0  0  0  0  0  0  0  0  0  0  0  0
  -21.3843  -29.0500   22.1975 N   0  0  0  0  0  0  0  0  0  0  0  0
  -25.2053  -27.7503   17.5303 N   0  0  0  0  0  0  0  0  0  0  0  0
  -30.2614  -31.6489   20.6766 N   0  3  0  0  0  0  0  0  0  0  0  0
  -27.5550  -29.6367   15.5332 N   0  3  0  0  0  0  0  0  0  0  0  0
  -27.9638  -21.1895   23.2489 O   0  0  0  0  0  0  0  0  0  0  0  0
  -23.4940  -29.0367   23.1833 O   0  0  0  0  0  0  0  0  0  0  0  0
  -22.7476  -28.4685   18.8158 O   0  0  0  0  0  0  0  0  0  0  0  0
  -27.4168  -28.2737   17.9908 O   0  0  0  0  0  0  0  0  0  0  0  0
  -31.3410  -26.4885   15.9031 O   0  0  0  0  0  0  0  0  0  0  0  0
  -31.3622  -14.8161   20.3477 O   0  0  0  0  0  0  0  0  0  0  0  0
  -28.9116  -31.2136   23.9468 O   0  0  0  0  0  0  0  0  0  1  0  0
  -34.2014  -13.3090   24.8279 F   0  0  0  0  0  0  0  0  0  0  0  0
  -30.2216  -14.9531   22.8623 F   0  0  0  0  0  0  0  0  0  0  0  0
  1  2  1  0  0  0  0
  1  5  2  0  0  0  0
  2  6  2  0  0  0  0
  3  8  2  0  0  0  0
  3 16  1  0  0  0  0
  4  9  1  0  0  0  0
  4 16  2  0  0  0  0
  5 18  1  0  0  0  0
  6 20  1  0  0  0  0
  7 10  2  0  0  0  0
  7 19  1  0  0  0  0
  8 22  1  0  0  0  0
  9 22  2  0  0  0  0
 10 23  1  0  0  0  0
 11 12  2  0  0  0  0
 11 24  1  0  0  0  0
 12 25  1  0  0  0  0
 13 21  1  0  0  0  0
 13 23  2  0  0  0  0
 14 25  2  0  0  0  0
 14 26  1  0  0  0  0
 15 60  2  0  0  0  0
 15 63  1  0  0  0  0
 16 27  1  0  0  0  0
 17 27  1  0  0  0  0
 17 28  2  0  0  0  0
 17 30  1  0  0  0  0
 18 20  2  0  0  0  0
 18 35  1  0  0  0  0
 19 21  2  0  0  0  0
 19 36  1  0  0  0  0
 20 44  1  0  0  0  0
 21 37  1  0  0  0  0
 22 79  1  0  0  0  0
 23 80  1  0  0  0  0
 24 26  2  0  0  0  0
 24 79  1  0  0  0  0
 25 81  1  0  0  0  0
 26 82  1  0  0  0  0
 27 61  2  0  0  0  0
 28 64  1  0  0  0  0
 28 67  1  0  0  0  0
 29 60  1  0  0  0  0
 29 62  2  0  0  0  0
 29 69  1  0  0  0  0
 30 68  1  0  0  0  0
 30 74  2  0  0  0  0
 31 45  1  0  0  0  0
 31 70  1  0  0  0  0
 31 75  2  0  0  0  0
 32 55  1  0  0  0  0
 32 65  1  0  0  0  0
 32 76  2  0  0  0  0
 33 56  1  0  0  0  0
 33 71  1  0  0  0  0
 33 77  2  0  0  0  0
 34 66  1  0  0  0  0
 34 69  1  0  0  0  0
 34 78  2  0  0  0  0
 35 38  1  0  0  0  0
 36 45  1  0  0  0  0
 37 65  1  0  0  0  0
 38 40  1  0  0  0  0
 39 41  1  0  0  0  0
 39 42  1  0  0  0  0
 40 44  1  0  0  0  0
 41 46  1  0  0  0  0
 42 66  1  0  0  0  0
 43 46  1  0  0  0  0
 43 66  1  0  0  0  0
 44 70  1  0  0  0  0
 45 65  1  0  0  0  0
 46 64  1  0  0  0  0
 47 56  1  0  0  0  0
 48 58  1  0  0  0  0
 49 59  1  0  0  0  0
 50 59  1  0  0  0  0
 51 59  1  0  0  0  0
 52 73  1  0  0  0  0
 53 57  1  0  0  0  0
 53 58  1  0  0  0  0
 54 57  1  0  0  0  0
 54 63  1  0  0  0  0
 55 59  1  0  0  0  0
 55 71  1  0  0  0  0
 56 73  1  0  0  0  0
 57 72  1  0  0  0  0
 58 80  1  0  0  0  0
 61 64  1  0  0  0  0
 62 63  1  0  0  0  0
M  CHG  2  72   1  73   1
M  ISO  4  34 100  58 101  69 100  80 101
M  END
> <Batch ID>
0194

> <Smiles>
CNC(C)C(=O)NC(C(=O)N1Cc2cc([101O:1][101CH:1](C)CC(N)Cn3cnc([100NH:0][100C:0](=O)N4CCCC(n5nc(-c6ccc(Oc7ccc(F)cc7F)cc6)c(C(N)=O)c5N)C4)n3)ccc2CC1C(=O)NC1CCCc2ccccc21)C(C)(C)C

> <Shape>
0.272

> <Color>
0.108

> <Negative vol penalty>
0.000

$$$$

  -OEChem-04052305333D

 85 93  0     1  0  0  0  0  0999 V2000
  -22.8969  -27.4172   17.7118 C   0  0  0  0  0  0  0  0  0  0  0  0
  -23.8746  -26.6351   17.1053 C   0  0  0  0  0  0  0  0  0  0  0  0
  -21.9655  -26.1631   23.3426 C   0  0  0  0  0  0  0  0  0  0  0  0
  -20.7798  -24.4392   24.5506 C   0  0  0  0  0  0  0  0  0  0  0  0
  -23.1711  -28.0643   18.9159 C   0  0  0  0  0  0  0  0  0  0  0  0
  -25.1277  -26.5007   17.7020 C   0  0  0  0  0  0  0  0  0  0  0  0
  -27.6834  -20.0215   19.5405 C   0  0  0  0  0  0  0  0  0  0  0  0
  -21.0743  -27.1185   23.8310 C   0  0  0  0  0  0  0  0  0  0  0  0
  -19.8886  -25.3945   25.0391 C   0  0  0  0  0  0  0  0  0  0  0  0
  -28.3310  -18.8003   19.7286 C   0  0  0  0  0  0  0  0  0  0  0  0
  -18.8947  -29.9576   24.4732 C   0  0  0  0  0  0  0  0  0  0  0  0
  -18.3916  -30.8973   23.5736 C   0  0  0  0  0  0  0  0  0  0  0  0
  -30.2500  -19.9475   20.6500 C   0  0  0  0  0  0  0  0  0  0  0  0
  -17.4319  -29.1175   22.2512 C   0  0  0  0  0  0  0  0  0  0  0  0
  -21.8183  -24.8235   23.7023 C   0  0  0  0  0  0  0  0  0  0  0  0
  -23.9462  -23.4191   23.7883 C   0  0  0  0  0  0  0  0  0  0  0  0
  -24.4250  -27.9299   19.5326 C   0  0  0  0  0  0  0  0  0  0  0  0
  -28.3113  -21.2107   19.9212 C   0  0  0  0  0  0  0  0  0  0  0  0
  -25.4195  -27.1477   18.9149 C   0  0  0  0  0  0  0  0  0  0  0  0
  -29.6013  -21.1729   20.4756 C   0  0  0  0  0  0  0  0  0  0  0  0
  -20.0358  -26.7342   24.6793 C   0  0  0  0  0  0  0  0  0  0  0  0
  -29.6112  -18.7634   20.2817 C   0  0  0  0  0  0  0  0  0  0  0  0
  -18.6665  -28.5978   24.2619 C   0  0  0  0  0  0  0  0  0  0  0  0
  -17.6602  -30.4773   22.4626 C   0  0  0  0  0  0  0  0  0  0  0  0
  -17.9352  -28.1778   23.1509 C   0  0  0  0  0  0  0  0  0  0  0  0
  -22.7383  -23.8361   23.1976 C   0  0  0  0  0  0  0  0  0  0  0  0
  -24.4416  -22.4724   22.9253 C   0  0  0  0  0  0  0  0  0  0  0  0
  -26.4338  -14.7119   21.9971 C   0  0  0  0  0  0  0  0  0  0  0  0
  -25.1268  -16.4224   21.0313 C   0  0  0  0  0  0  0  0  0  0  0  0
  -24.5649  -23.8489   25.0082 C   0  0  0  0  0  0  0  0  0  0  0  0
  -28.1081  -24.9484   20.1747 C   0  0  0  0  0  0  0  0  0  0  0  0
  -29.4487  -23.9524   22.7478 C   0  0  0  0  0  0  0  0  0  0  0  0
  -30.5023  -22.4208   25.6082 C   0  0  0  0  0  0  0  0  0  0  0  0
  -23.7425  -18.0179   19.6585 C   0  0  0  0  0  0  0  0  0  0  0  0
  -24.6906  -28.6867   20.8099 C   0  0  0  0  0  0  0  0  0  0  0  0
  -27.6765  -22.5534   19.6804 C   0  0  0  0  0  0  0  0  0  0  0  0
  -30.2520  -22.4798   20.8382 C   0  0  0  0  0  0  0  0  0  0  0  0
  -25.9192  -28.1903   21.5678 C   0  0  0  0  0  0  0  0  0  0  0  0
  -22.9891  -21.1985   18.2467 C   0  0  0  0  0  0  0  0  0  0  0  0
  -27.0967  -28.0087   20.6152 C   0  0  0  0  0  0  0  0  0  0  0  0
  -22.9561  -22.1339   19.4575 C   0  0  0  0  0  0  0  0  0  0  0  0
  -22.4173  -19.8212   18.5783 C   0  0  0  0  0  0  0  0  0  0  0  0
  -22.9817  -20.1019   20.9599 C   0  0  0  0  0  0  0  0  0  0  0  0
  -26.7826  -26.9574   19.5439 C   0  0  1  0  0  0  0  0  0  0  0  0
  -28.0002  -23.5800   20.7806 C   0  0  1  0  0  0  0  0  0  0  0  0
  -23.6072  -21.4806   20.6923 C   0  0  2  0  0  0  0  0  0  0  0  0
  -26.6618  -12.4167   23.0330 C   0  0  0  0  0  0  0  0  0  0  0  0
  -31.3298  -22.9256   27.9229 C   0  0  0  0  0  0  0  0  0  0  0  0
  -29.9710  -14.7176   24.2459 C   0  0  0  0  0  0  0  0  0  0  0  0
  -32.1691  -24.7227   21.6033 C   0  0  0  0  0  0  0  0  0  0  0  0
  -33.1628  -24.2854   23.8593 C   0  0  0  0  0  0  0  0  0  0  0  0
  -31.4476  -26.0748   23.5795 C   0  0  0  0  0  0  0  0  0  0  0  0
  -28.2260  -21.0003   26.8571 C   0  0  0  0  0  0  0  0  0  0  0  0
  -30.7052  -14.9331   21.8385 C   0  0  0  0  0  0  0  0  0  0  0  0
  -29.5229  -16.3957   20.0728 C   0  0  0  0  0  0  0  0  0  1  0  0
  -27.2486  -13.8203   22.9055 C   0  0  1  0  0  0  0  0  0  0  0  0
  -30.7393  -23.6505   23.4666 C   0  0  1  0  0  0  0  0  0  0  0  0
  -30.1134  -22.6235   27.0615 C   0  0  2  0  0  0  0  0  0  0  0  0
  -29.5147  -14.8654   22.7999 C   0  0  1  0  0  0  0  0  0  0  0  0
  -30.3538  -15.1471   20.3579 C   0  0  1  0  0  0  0  0  0  0  0  0
  -31.8651  -24.6630   23.1136 C   0  0  0  0  0  0  0  0  0  0  0  0
  -22.4821  -23.2061   22.0480 N   0  0  0  0  0  0  0  0  0  0  0  0
  -26.1689  -14.4676   20.7314 N   0  0  0  0  0  0  0  0  0  0  0  0
  -25.4031  -15.4714   20.1647 N   0  0  0  0  0  0  0  0  0  0  0  0
  -23.5358  -22.3837   21.9095 N   0  0  0  0  0  0  0  0  0  0  0  0
  -29.2733  -23.3647   21.4891 N   0  0  0  0  0  0  0  0  0  0  0  0
  -23.0848  -19.2623   19.7560 N   0  0  0  0  0  0  0  0  0  0  0  0
  -25.5593  -21.7156   22.9438 N   0  0  0  0  0  0  0  0  0  0  0  0
  -23.9209  -24.8299   25.7745 N   0  0  0  0  0  0  0  0  0  0  0  0
  -24.3688  -17.6031   20.8334 N   0  0  0  0  0  0  0  0  0  0  0  0
  -26.9055  -25.6240   20.0929 N   0  0  0  0  0  0  0  0  0  0  0  0
  -30.4115  -23.5926   24.8871 N   0  0  0  0  0  0  0  0  0  0  0  0
  -29.4513  -21.4000   27.5960 N   0  3  0  0  0  0  0  0  0  0  0  0
  -28.6622  -13.6914   22.4652 N   0  3  0  0  0  0  0  0  0  0  0  0
  -25.6647  -23.3889   25.3985 O   0  0  0  0  0  0  0  0  0  0  0  0
  -29.2019  -25.3628   19.8091 O   0  0  0  0  0  0  0  0  0  0  0  0
  -28.6193  -24.6933   23.2830 O   0  0  0  0  0  0  0  0  0  0  0  0
  -30.8551  -21.3328   25.1585 O   0  0  0  0  0  0  0  0  0  0  0  0
  -23.7727  -17.3808   18.6025 O   0  0  0  0  0  0  0  0  0  0  0  0
  -31.5747  -15.2630   19.6208 O   0  0  0  0  0  0  0  0  0  0  0  0
  -19.1661  -27.6661   25.1563 O   0  0  0  0  0  0  0  0  0  0  0  0
  -30.2358  -17.5674   20.4667 O   0  0  0  0  0  0  0  0  0  1  0  0
  -17.1757  -31.3799   21.5996 F   0  0  0  0  0  0  0  0  0  0  0  0
  -17.7117  -26.8729   22.9431 F   0  0  0  0  0  0  0  0  0  0  0  0
  -25.7738  -16.1756   22.6004 S   0  0  0  0  0  0  0  0  0  0  0  0
  1  2  1  0  0  0  0
  1  5  2  0  0  0  0
  2  6  2  0  0  0  0
  3  8  2  0  0  0  0
  3 15  1  0  0  0  0
  4  9  1  0  0  0  0
  4 15  2  0  0  0  0
  5 17  1  0  0  0  0
  6 19  1  0  0  0  0
  7 10  2  0  0  0  0
  7 18  1  0  0  0  0
  8 21  1  0  0  0  0
  9 21  2  0  0  0  0
 10 22  1  0  0  0  0
 11 12  2  0  0  0  0
 11 23  1  0  0  0  0
 12 24  1  0  0  0  0
 13 20  1  0  0  0  0
 13 22  2  0  0  0  0
 14 24  2  0  0  0  0
 14 25  1  0  0  0  0
 15 26  1  0  0  0  0
 16 26  1  0  0  0  0
 16 27  2  0  0  0  0
 16 30  1  0  0  0  0
 17 19  2  0  0  0  0
 17 35  1  0  0  0  0
 18 20  2  0  0  0  0
 18 36  1  0  0  0  0
 19 44  1  0  0  0  0
 20 37  1  0  0  0  0
 21 81  1  0  0  0  0
 22 82  1  0  0  0  0
 23 25  2  0  0  0  0
 23 81  1  0  0  0  0
 24 83  1  0  0  0  0
 25 84  1  0  0  0  0
 26 62  2  0  0  0  0
 27 65  1  0  0  0  0
 27 68  1  0  0  0  0
 28 56  1  0  0  0  0
 28 63  2  0  0  0  0
 28 85  1  0  0  0  0
 29 64  2  0  0  0  0
 29 70  1  0  0  0  0
 29 85  1  0  0  0  0
 30 69  1  0  0  0  0
 30 75  2  0  0  0  0
 31 45  1  0  0  0  0
 31 71  1  0  0  0  0
 31 76  2  0  0  0  0
 32 57  1  0  0  0  0
 32 66  1  0  0  0  0
 32 77  2  0  0  0  0
 33 58  1  0  0  0  0
 33 72  1  0  0  0  0
 33 78  2  0  0  0  0
 34 67  1  0  0  0  0
 34 70  1  0  0  0  0
 34 79  2  0  0  0  0
 35 38  1  0  0  0  0
 36 45  1  0  0  0  0
 37 66  1  0  0  0  0
 38 40  1  0  0  0  0
 39 41  1  0  0  0  0
 39 42  1  0  0  0  0
 40 44  1  0  0  0  0
 41 46  1  0  0  0  0
 42 67  1  0  0  0  0
 43 46  1  0  0  0  0
 43 67  1  0  0  0  0
 44 71  1  0  0  0  0
 45 66  1  0  0  0  0
 46 65  1  0  0  0  0
 47 56  1  0  0  0  0
 48 58  1  0  0  0  0
 49 59  1  0  0  0  0
 50 61  1  0  0  0  0
 51 61  1  0  0  0  0
 52 61  1  0  0  0  0
 53 73  1  0  0  0  0
 54 59  1  0  0  0  0
 54 60  1  0  0  0  0
 55 60  1  0  0  0  0
 55 82  1  0  0  0  0
 56 74  1  0  0  0  0
 57 61  1  0  0  0  0
 57 72  1  0  0  0  0
 58 73  1  0  0  0  0
 59 74  1  0  0  0  0
 60 80  1  0  0  0  0
 62 65  1  0  0  0  0
 63 64  1  0  0  0  0
M  CHG  2  73   1  74   1
M  ISO  4  34 100  55 101  70 100  82 101
M  END
> <Batch ID>
0194

> <Smiles>
CNC(C)C(=O)NC(C(=O)N1Cc2cc([101O:1][101CH2:1]C(O)CC(C)NC(C)c3nnc([100NH:0][100C:0](=O)N4CCCC(n5nc(-c6ccc(Oc7ccc(F)cc7F)cc6)c(C(N)=O)c5N)C4)s3)ccc2CC1C(=O)NC1CCCc2ccccc21)C(C)(C)C

> <Shape>
0.176

> <Color>
0.076

> <Negative vol penalty>
0.000

$$$$

  -OEChem-04052305333D

 84 92  0     1  0  0  0  0  0999 V2000
  -27.1700   -9.9664   23.3269 C   0  0  0  0  0  0  0  0  0  0  0  0
  -27.8804  -11.1285   23.0435 C   0  0  0  0  0  0  0  0  0  0  0  0
  -20.1440  -28.9752   22.8427 C   0  0  0  0  0  0  0  0  0  0  0  0
  -21.0170  -26.8842   23.6809 C   0  0  0  0  0  0  0  0  0  0  0  0
  -25.9602   -9.7153   22.6809 C   0  0  0  0  0  0  0  0  0  0  0  0
  -27.3819  -12.0397   22.1131 C   0  0  0  0  0  0  0  0  0  0  0  0
  -27.9159  -18.1382   22.2818 C   0  0  0  0  0  0  0  0  0  0  0  0
  -18.9461  -28.3422   22.5112 C   0  0  0  0  0  0  0  0  0  0  0  0
  -19.8191  -26.2511   23.3494 C   0  0  0  0  0  0  0  0  0  0  0  0
  -28.7896  -19.0211   21.6487 C   0  0  0  0  0  0  0  0  0  0  0  0
  -16.7062  -25.9826   24.6373 C   0  0  0  0  0  0  0  0  0  0  0  0
  -16.1490  -25.1189   25.5801 C   0  0  0  0  0  0  0  0  0  0  0  0
  -27.1498  -19.3945   19.9193 C   0  0  0  0  0  0  0  0  0  0  0  0
  -16.3010  -23.2969   24.0007 C   0  0  0  0  0  0  0  0  0  0  0  0
  -21.1795  -28.2462   23.4275 C   0  0  0  0  0  0  0  0  0  0  0  0
  -22.7405  -29.5231   24.9897 C   0  0  0  0  0  0  0  0  0  0  0  0
  -25.4419  -10.6285   21.7492 C   0  0  0  0  0  0  0  0  0  0  0  0
  -26.6547  -17.8680   21.7316 C   0  0  0  0  0  0  0  0  0  0  0  0
  -26.1647  -11.7999   21.4530 C   0  0  0  0  0  0  0  0  0  0  0  0
  -26.2609  -18.5097   20.5487 C   0  0  0  0  0  0  0  0  0  0  0  0
  -18.7836  -26.9802   22.7646 C   0  0  0  0  0  0  0  0  0  0  0  0
  -28.4078  -19.6472   20.4658 C   0  0  0  0  0  0  0  0  0  0  0  0
  -17.0609  -25.5035   23.3761 C   0  0  0  0  0  0  0  0  0  0  0  0
  -15.9464  -23.7760   25.2619 C   0  0  0  0  0  0  0  0  0  0  0  0
  -16.8583  -24.1607   23.0579 C   0  0  0  0  0  0  0  0  0  0  0  0
  -22.4174  -28.8994   23.7697 C   0  0  0  0  0  0  0  0  0  0  0  0
  -24.0215  -29.9851   24.8104 C   0  0  0  0  0  0  0  0  0  0  0  0
  -30.7389  -26.6675   19.5673 C   0  0  0  0  0  0  0  0  0  0  0  0
  -30.9696  -26.1177   17.4037 C   0  0  0  0  0  0  0  0  0  0  0  0
  -30.4714  -24.5363   18.9163 C   0  0  0  0  0  0  0  0  0  0  0  0
  -21.9532  -29.6716   26.1787 C   0  0  0  0  0  0  0  0  0  0  0  0
  -25.2035  -15.2685   20.6179 C   0  0  0  0  0  0  0  0  0  0  0  0
  -22.6495  -17.2577   20.4109 C   0  0  0  0  0  0  0  0  0  0  0  0
  -21.4798  -20.4526   20.1439 C   0  0  0  0  0  0  0  0  0  0  0  0
  -28.4036  -28.1652   21.2974 C   0  0  0  0  0  0  0  0  0  0  0  0
  -24.1536  -10.2909   21.0414 C   0  0  0  0  0  0  0  0  0  0  0  0
  -25.7134  -16.9335   22.4410 C   0  0  0  0  0  0  0  0  0  0  0  0
  -24.9099  -18.2692   19.9280 C   0  0  0  0  0  0  0  0  0  0  0  0
  -23.5094  -11.4872   20.3456 C   0  0  0  0  0  0  0  0  0  0  0  0
  -27.0109  -31.5041   21.3951 C   0  0  0  0  0  0  0  0  0  0  0  0
  -24.5514  -12.2661   19.5490 C   0  0  0  0  0  0  0  0  0  0  0  0
  -25.6958  -31.2635   22.1387 C   0  0  0  0  0  0  0  0  0  0  0  0
  -27.3364  -30.3446   20.4583 C   0  0  0  0  0  0  0  0  0  0  0  0
  -26.0676  -28.7681   21.8649 C   0  0  0  0  0  0  0  0  0  0  0  0
  -25.6445  -12.8243   20.4682 C   0  0  1  0  0  0  0  0  0  0  0  0
  -24.6540  -16.3385   21.5184 C   0  0  1  0  0  0  0  0  0  0  0  0
  -25.6939  -29.8949   22.8452 C   0  0  2  0  0  0  0  0  0  0  0  0
  -19.3459  -21.7600   19.9583 C   0  0  0  0  0  0  0  0  0  0  0  0
  -28.4815  -23.1168   20.9235 C   0  0  0  0  0  0  0  0  0  0  0  0
  -31.5937  -20.8290   20.3170 C   0  0  0  0  0  0  0  0  0  0  0  0
  -22.3976  -16.4266   17.4859 C   0  0  0  0  0  0  0  0  0  0  0  0
  -20.9169  -18.4123   17.1216 C   0  0  0  0  0  0  0  0  0  0  0  0
  -20.2236  -16.6159   18.7075 C   0  0  0  0  0  0  0  0  0  0  0  0
  -22.0159  -21.9073   22.6648 C   0  0  0  0  0  0  0  0  0  0  0  0
  -30.7516  -27.6958   20.6466 C   0  0  0  0  0  0  0  0  0  0  0  0
  -22.0987  -18.1839   19.3537 C   0  0  1  0  0  0  0  0  0  0  0  0
  -20.3949  -21.1948   20.9032 C   0  0  2  0  0  0  0  0  0  0  0  0
  -29.9194  -22.7474   20.5657 C   0  0  1  0  0  0  0  0  0  0  0  0
  -30.1675  -21.2334   20.6737 C   0  0  1  0  0  0  0  0  0  1  0  0
  -21.4355  -17.4130   18.1776 C   0  0  0  0  0  0  0  0  0  0  0  0
  -23.4127  -28.9582   22.8810 N   0  0  0  0  0  0  0  0  0  0  0  0
  -30.9995  -27.0969   18.3218 N   0  0  0  0  0  0  0  0  0  0  0  0
  -30.4668  -25.4061   19.9392 N   0  0  0  0  0  0  0  0  0  0  0  0
  -30.7136  -24.8185   17.6260 N   0  0  0  0  0  0  0  0  0  0  0  0
  -24.3739  -29.6244   23.5431 N   0  0  0  0  0  0  0  0  0  0  0  0
  -24.0275  -17.3423   20.6558 N   0  0  0  0  0  0  0  0  0  0  0  0
  -27.3368  -29.0736   21.1964 N   0  0  0  0  0  0  0  0  0  0  0  0
  -24.8695  -30.6608   25.6146 N   0  0  0  0  0  0  0  0  0  0  0  0
  -31.2357  -26.4926   16.0686 N   0  0  0  0  0  0  0  0  0  0  0  0
  -20.6576  -29.1373   26.1932 N   0  0  0  0  0  0  0  0  0  0  0  0
  -30.1994  -23.2159   19.2229 N   0  0  0  0  0  0  0  0  0  0  0  0
  -25.1676  -13.9999   21.1646 N   0  0  0  0  0  0  0  0  0  0  0  0
  -21.2032  -19.1054   20.0446 N   0  0  0  0  0  0  0  0  0  0  0  0
  -29.5676  -28.5258   20.6298 N   0  0  0  0  0  0  0  0  0  0  0  0
  -20.9845  -22.3221   21.6793 N   0  3  0  0  0  0  0  0  0  0  0  0
  -22.3798  -30.2749   27.1924 O   0  0  0  0  0  0  0  0  0  0  0  0
  -25.6272  -15.5712   19.5086 O   0  0  0  0  0  0  0  0  0  0  0  0
  -21.8842  -16.4925   21.0028 O   0  0  0  0  0  0  0  0  0  0  0  0
  -22.4714  -21.0125   19.6816 O   0  0  0  0  0  0  0  0  0  0  0  0
  -28.3263  -27.1124   21.9399 O   0  0  0  0  0  0  0  0  0  0  0  0
  -17.6148  -26.3622   22.4415 O   0  0  0  0  0  0  0  0  0  0  0  0
  -29.2589  -20.5090   19.8455 O   0  0  0  0  0  0  0  0  0  1  0  0
  -15.4126  -22.9463   26.1679 F   0  0  0  0  0  0  0  0  0  0  0  0
  -17.1981  -23.6944   21.8484 F   0  0  0  0  0  0  0  0  0  0  0  0
  1  2  1  0  0  0  0
  1  5  2  0  0  0  0
  2  6  2  0  0  0  0
  3  8  2  0  0  0  0
  3 15  1  0  0  0  0
  4  9  1  0  0  0  0
  4 15  2  0  0  0  0
  5 17  1  0  0  0  0
  6 19  1  0  0  0  0
  7 10  2  0  0  0  0
  7 18  1  0  0  0  0
  8 21  1  0  0  0  0
  9 21  2  0  0  0  0
 10 22  1  0  0  0  0
 11 12  2  0  0  0  0
 11 23  1  0  0  0  0
 12 24  1  0  0  0  0
 13 20  1  0  0  0  0
 13 22  2  0  0  0  0
 14 24  2  0  0  0  0
 14 25  1  0  0  0  0
 15 26  1  0  0  0  0
 16 26  1  0  0  0  0
 16 27  2  0  0  0  0
 16 31  1  0  0  0  0
 17 19  2  0  0  0  0
 17 36  1  0  0  0  0
 18 20  2  0  0  0  0
 18 37  1  0  0  0  0
 19 45  1  0  0  0  0
 20 38  1  0  0  0  0
 21 81  1  0  0  0  0
 22 82  1  0  0  0  0
 23 25  2  0  0  0  0
 23 81  1  0  0  0  0
 24 83  1  0  0  0  0
 25 84  1  0  0  0  0
 26 61  2  0  0  0  0
 27 65  1  0  0  0  0
 27 68  1  0  0  0  0
 28 55  1  0  0  0  0
 28 62  2  0  0  0  0
 28 63  1  0  0  0  0
 29 62  1  0  0  0  0
 29 64  2  0  0  0  0
 29 69  1  0  0  0  0
 30 63  2  0  0  0  0
 30 64  1  0  0  0  0
 30 71  1  0  0  0  0
 31 70  1  0  0  0  0
 31 76  2  0  0  0  0
 32 46  1  0  0  0  0
 32 72  1  0  0  0  0
 32 77  2  0  0  0  0
 33 56  1  0  0  0  0
 33 66  1  0  0  0  0
 33 78  2  0  0  0  0
 34 57  1  0  0  0  0
 34 73  1  0  0  0  0
 34 79  2  0  0  0  0
 35 67  1  0  0  0  0
 35 74  1  0  0  0  0
 35 80  2  0  0  0  0
 36 39  1  0  0  0  0
 37 46  1  0  0  0  0
 38 66  1  0  0  0  0
 39 41  1  0  0  0  0
 40 42  1  0  0  0  0
 40 43  1  0  0  0  0
 41 45  1  0  0  0  0
 42 47  1  0  0  0  0
 43 67  1  0  0  0  0
 44 47  1  0  0  0  0
 44 67  1  0  0  0  0
 45 72  1  0  0  0  0
 46 66  1  0  0  0  0
 47 65  1  0  0  0  0
 48 57  1  0  0  0  0
 49 58  1  0  0  0  0
 50 59  1  0  0  0  0
 51 60  1  0  0  0  0
 52 60  1  0  0  0  0
 53 60  1  0  0  0  0
 54 75  1  0  0  0  0
 55 74  1  0  0  0  0
 56 60  1  0  0  0  0
 56 73  1  0  0  0  0
 57 75  1  0  0  0  0
 58 59  1  0  0  0  0
 58 71  1  0  0  0  0
 59 82  1  0  0  0  0
 61 65  1  0  0  0  0
M  CHG  1  75   1
M  ISO  4  35 100  59 101  74 100  82 101
M  END
> <Batch ID>
0194

> <Smiles>
CNC(C)C(=O)NC(C(=O)N1Cc2cc([101O:1][101CH:1](C)C(C)Nc3nc(N)nc(C[100NH:0][100C:0](=O)N4CCCC(n5nc(-c6ccc(Oc7ccc(F)cc7F)cc6)c(C(N)=O)c5N)C4)n3)ccc2CC1C(=O)NC1CCCc2ccccc21)C(C)(C)C

> <Shape>
0.236

> <Color>
0.069

> <Negative vol penalty>
0.000

$$$$

  -OEChem-04052305333D

 84 92  0     1  0  0  0  0  0999 V2000
  -25.7730  -34.9202   21.6649 C   0  0  0  0  0  0  0  0  0  0  0  0
  -26.4029  -33.7009   21.8927 C   0  0  0  0  0  0  0  0  0  0  0  0
  -23.7199   -9.9482   22.0153 C   0  0  0  0  0  0  0  0  0  0  0  0
  -24.3184  -11.2825   23.9384 C   0  0  0  0  0  0  0  0  0  0  0  0
  -24.4106  -35.0593   21.9268 C   0  0  0  0  0  0  0  0  0  0  0  0
  -25.6711  -32.6202   22.3836 C   0  0  0  0  0  0  0  0  0  0  0  0
  -26.4850  -26.7034   21.0292 C   0  0  0  0  0  0  0  0  0  0  0  0
  -23.1684   -8.9823   22.8570 C   0  0  0  0  0  0  0  0  0  0  0  0
  -23.7669  -10.3166   24.7802 C   0  0  0  0  0  0  0  0  0  0  0  0
  -27.1459  -25.6713   21.6938 C   0  0  0  0  0  0  0  0  0  0  0  0
  -20.3114   -8.5458   24.6119 C   0  0  0  0  0  0  0  0  0  0  0  0
  -19.0653   -8.0216   24.2682 C   0  0  0  0  0  0  0  0  0  0  0  0
  -25.0555  -24.9720   22.6738 C   0  0  0  0  0  0  0  0  0  0  0  0
  -20.0311   -5.8108   24.1388 C   0  0  0  0  0  0  0  0  0  0  0  0
  -32.5863  -18.5492   21.0275 C   0  0  0  0  0  0  0  0  0  0  0  0
  -24.2950  -11.0983   22.5560 C   0  0  0  0  0  0  0  0  0  0  0  0
  -24.2095  -13.2059   21.1213 C   0  0  0  0  0  0  0  0  0  0  0  0
  -23.6597  -33.9770   22.4120 C   0  0  0  0  0  0  0  0  0  0  0  0
  -25.1039  -26.8845   21.1907 C   0  0  0  0  0  0  0  0  0  0  0  0
  -24.2977  -32.7454   22.6535 C   0  0  0  0  0  0  0  0  0  0  0  0
  -24.3790  -26.0055   22.0080 C   0  0  0  0  0  0  0  0  0  0  0  0
  -30.7125  -17.6132   22.7075 C   0  0  0  0  0  0  0  0  0  0  0  0
  -23.1919   -9.1666   24.2394 C   0  0  0  0  0  0  0  0  0  0  0  0
  -26.4316  -24.8072   22.5186 C   0  0  0  0  0  0  0  0  0  0  0  0
  -21.4173   -7.7025   24.7190 C   0  0  0  0  0  0  0  0  0  0  0  0
  -18.9252   -6.6541   24.0316 C   0  0  0  0  0  0  0  0  0  0  0  0
  -21.2772   -6.3350   24.4825 C   0  0  0  0  0  0  0  0  0  0  0  0
  -24.8653  -12.0961   21.6870 C   0  0  0  0  0  0  0  0  0  0  0  0
  -31.7437  -16.8228   22.2427 C   0  0  0  0  0  0  0  0  0  0  0  0
  -30.7072  -18.9161   22.2527 C   0  0  0  0  0  0  0  0  0  0  0  0
  -25.1794  -13.8379   20.3821 C   0  0  0  0  0  0  0  0  0  0  0  0
  -22.8455  -13.6280   21.2525 C   0  0  0  0  0  0  0  0  0  0  0  0
  -23.2652  -29.2121   22.3331 C   0  0  0  0  0  0  0  0  0  0  0  0
  -20.8649  -27.3146   21.2557 C   0  0  0  0  0  0  0  0  0  0  0  0
  -19.8057  -24.1833   20.4072 C   0  0  0  0  0  0  0  0  0  0  0  0
  -31.1538  -13.9683   20.7565 C   0  0  0  0  0  0  0  0  0  0  0  0
  -22.1996  -34.1889   22.7250 C   0  0  0  0  0  0  0  0  0  0  0  0
  -24.4013  -27.9863   20.4457 C   0  0  0  0  0  0  0  0  0  0  0  0
  -22.8915  -26.1447   22.1989 C   0  0  0  0  0  0  0  0  0  0  0  0
  -21.4169  -32.8886   22.8892 C   0  0  0  0  0  0  0  0  0  0  0  0
  -29.2060  -12.9552   17.9535 C   0  0  0  0  0  0  0  0  0  0  0  0
  -22.1803  -31.9152   23.7817 C   0  0  0  0  0  0  0  0  0  0  0  0
  -27.8135  -12.7203   18.5415 C   0  0  0  0  0  0  0  0  0  0  0  0
  -30.3070  -12.5328   18.9239 C   0  0  0  0  0  0  0  0  0  0  0  0
  -28.8205  -12.8996   20.8551 C   0  0  0  0  0  0  0  0  0  0  0  0
  -23.5326  -31.5428   23.1620 C   0  0  1  0  0  0  0  0  0  0  0  0
  -23.0784  -28.3925   21.0877 C   0  0  1  0  0  0  0  0  0  0  0  0
  -27.6777  -13.3624   19.9352 C   0  0  2  0  0  0  0  0  0  0  0  0
  -17.7814  -22.9404   19.5983 C   0  0  0  0  0  0  0  0  0  0  0  0
  -19.6546  -27.4707   24.0522 C   0  0  0  0  0  0  0  0  0  0  0  0
  -18.2195  -25.5050   23.4651 C   0  0  0  0  0  0  0  0  0  0  0  0
  -17.9966  -27.6358   22.1873 C   0  0  0  0  0  0  0  0  0  0  0  0
  -21.1815  -23.3191   17.9335 C   0  0  0  0  0  0  0  0  0  0  0  0
  -31.8555  -15.3935   22.6632 C   0  0  0  0  0  0  0  0  0  0  0  0
  -29.5823  -21.1431   22.2742 C   0  0  0  0  0  0  0  0  0  0  0  0
  -28.2298  -23.2508   22.5362 C   0  0  0  0  0  0  0  0  0  1  0  0
  -20.0436  -26.1924   21.8430 C   0  0  1  0  0  0  0  0  0  0  0  0
  -19.0533  -23.6690   19.1933 C   0  0  2  0  0  0  0  0  0  0  0  0
  -28.3740  -21.7899   22.9485 C   0  0  1  0  0  0  0  0  0  0  0  0
  -19.0069  -26.6993   22.8851 C   0  0  0  0  0  0  0  0  0  0  0  0
  -32.7013  -17.2598   21.3987 N   0  0  0  0  0  0  0  0  0  0  0  0
  -31.6320  -19.4194   21.4091 N   0  0  0  0  0  0  0  0  0  0  0  0
  -26.1523  -12.0242   21.3370 N   0  0  0  0  0  0  0  0  0  0  0  0
  -26.3130  -13.0968   20.5433 N   0  0  0  0  0  0  0  0  0  0  0  0
  -22.2509  -27.2413   21.4542 N   0  0  0  0  0  0  0  0  0  0  0  0
  -30.1210  -13.1779   20.2259 N   0  0  0  0  0  0  0  0  0  0  0  0
  -29.7355  -17.1160   23.5834 N   0  0  0  0  0  0  0  0  0  0  0  0
  -25.1646  -14.9495   19.6163 N   0  0  0  0  0  0  0  0  0  0  0  0
  -21.9834  -12.8635   22.0503 N   0  0  0  0  0  0  0  0  0  0  0  0
  -29.6960  -19.7601   22.6797 N   0  0  0  0  0  0  0  0  0  0  0  0
  -23.3534  -30.5719   22.1039 N   0  0  0  0  0  0  0  0  0  0  0  0
  -19.4560  -25.4817   20.7125 N   0  0  0  0  0  0  0  0  0  0  0  0
  -30.8932  -14.5484   21.9919 N   0  0  0  0  0  0  0  0  0  0  0  0
  -19.9070  -22.7272   18.4154 N   0  3  0  0  0  0  0  0  0  0  0  0
  -22.4003  -14.6435   20.6660 O   0  0  0  0  0  0  0  0  0  0  0  0
  -23.3233  -28.6523   23.4217 O   0  0  0  0  0  0  0  0  0  0  0  0
  -20.2983  -28.2191   20.6372 O   0  0  0  0  0  0  0  0  0  0  0  0
  -20.6194  -23.5003   21.0253 O   0  0  0  0  0  0  0  0  0  0  0  0
  -32.2265  -14.1484   20.1700 O   0  0  0  0  0  0  0  0  0  0  0  0
  -27.1885  -21.1039   22.5404 O   0  0  0  0  0  0  0  0  0  0  0  0
  -22.6536   -8.2244   25.0611 O   0  0  0  0  0  0  0  0  0  0  0  0
  -27.0743  -23.7993   23.1690 O   0  0  0  0  0  0  0  0  0  1  0  0
  -17.7282   -6.1506   23.7031 F   0  0  0  0  0  0  0  0  0  0  0  0
  -22.3358   -5.5198   24.5850 F   0  0  0  0  0  0  0  0  0  0  0  0
  1  2  1  0  0  0  0
  1  5  2  0  0  0  0
  2  6  2  0  0  0  0
  3  8  2  0  0  0  0
  3 16  1  0  0  0  0
  4  9  1  0  0  0  0
  4 16  2  0  0  0  0
  5 18  1  0  0  0  0
  6 20  1  0  0  0  0
  7 10  2  0  0  0  0
  7 19  1  0  0  0  0
  8 23  1  0  0  0  0
  9 23  2  0  0  0  0
 10 24  1  0  0  0  0
 11 12  2  0  0  0  0
 11 25  1  0  0  0  0
 12 26  1  0  0  0  0
 13 21  1  0  0  0  0
 13 24  2  0  0  0  0
 14 26  2  0  0  0  0
 14 27  1  0  0  0  0
 15 61  1  0  0  0  0
 15 62  2  0  0  0  0
 16 28  1  0  0  0  0
 17 28  1  0  0  0  0
 17 31  2  0  0  0  0
 17 32  1  0  0  0  0
 18 20  2  0  0  0  0
 18 37  1  0  0  0  0
 19 21  2  0  0  0  0
 19 38  1  0  0  0  0
 20 46  1  0  0  0  0
 21 39  1  0  0  0  0
 22 29  1  0  0  0  0
 22 30  2  0  0  0  0
 22 67  1  0  0  0  0
 23 81  1  0  0  0  0
 24 82  1  0  0  0  0
 25 27  2  0  0  0  0
 25 81  1  0  0  0  0
 26 83  1  0  0  0  0
 27 84  1  0  0  0  0
 28 63  2  0  0  0  0
 29 54  1  0  0  0  0
 29 61  2  0  0  0  0
 30 62  1  0  0  0  0
 30 70  1  0  0  0  0
 31 64  1  0  0  0  0
 31 68  1  0  0  0  0
 32 69  1  0  0  0  0
 32 75  2  0  0  0  0
 33 47  1  0  0  0  0
 33 71  1  0  0  0  0
 33 76  2  0  0  0  0
 34 57  1  0  0  0  0
 34 65  1  0  0  0  0
 34 77  2  0  0  0  0
 35 58  1  0  0  0  0
 35 72  1  0  0  0  0
 35 78  2  0  0  0  0
 36 66  1  0  0  0  0
 36 73  1  0  0  0  0
 36 79  2  0  0  0  0
 37 40  1  0  0  0  0
 38 47  1  0  0  0  0
 39 65  1  0  0  0  0
 40 42  1  0  0  0  0
 41 43  1  0  0  0  0
 41 44  1  0  0  0  0
 42 46  1  0  0  0  0
 43 48  1  0  0  0  0
 44 66  1  0  0  0  0
 45 48  1  0  0  0  0
 45 66  1  0  0  0  0
 46 71  1  0  0  0  0
 47 65  1  0  0  0  0
 48 64  1  0  0  0  0
 49 58  1  0  0  0  0
 50 60  1  0  0  0  0
 51 60  1  0  0  0  0
 52 60  1  0  0  0  0
 53 74  1  0  0  0  0
 54 73  1  0  0  0  0
 55 59  1  0  0  0  0
 55 70  1  0  0  0  0
 56 59  1  0  0  0  0
 56 82  1  0  0  0  0
 57 60  1  0  0  0  0
 57 72  1  0  0  0  0
 58 74  1  0  0  0  0
 59 80  1  0  0  0  0
 63 64  1  0  0  0  0
M  CHG  1  74   1
M  ISO  4  36 100  56 101  73 100  82 101
M  END
> <Batch ID>
0194

> <Smiles>
CNC(C)C(=O)NC(C(=O)N1Cc2cc([101O:1][101CH2:1]C(O)CNc3ncnc(C[100NH:0][100C:0](=O)N4CCCC(n5nc(-c6ccc(Oc7ccc(F)cc7F)cc6)c(C(N)=O)c5N)C4)c3N)ccc2CC1C(=O)NC1CCCc2ccccc21)C(C)(C)C

> <Shape>
0.254

> <Color>
0.124

> <Negative vol penalty>
0.000

$$$$

  -OEChem-04052305333D

 86 94  0     1  0  0  0  0  0999 V2000
  -26.8752  -19.1453   24.3944 C   0  0  0  0  0  0  0  0  0  0  0  0
  -27.3519  -19.9459   23.3613 C   0  0  0  0  0  0  0  0  0  0  0  0
  -23.2731   -9.8010   20.0814 C   0  0  0  0  0  0  0  0  0  0  0  0
  -24.0933   -9.9843   22.3465 C   0  0  0  0  0  0  0  0  0  0  0  0
  -25.5826  -19.3343   24.8815 C   0  0  0  0  0  0  0  0  0  0  0  0
  -26.5358  -20.9352   22.8139 C   0  0  0  0  0  0  0  0  0  0  0  0
  -28.9767  -25.3232   22.1565 C   0  0  0  0  0  0  0  0  0  0  0  0
  -29.8493  -19.0961   17.7752 C   0  0  0  0  0  0  0  0  0  0  0  0
  -22.6094   -8.6210   20.4173 C   0  0  0  0  0  0  0  0  0  0  0  0
  -23.4296   -8.8044   22.6824 C   0  0  0  0  0  0  0  0  0  0  0  0
  -29.8236  -25.4217   21.0534 C   0  0  0  0  0  0  0  0  0  0  0  0
  -19.7570   -7.7314   22.0000 C   0  0  0  0  0  0  0  0  0  0  0  0
  -18.4428   -7.5786   21.5584 C   0  0  0  0  0  0  0  0  0  0  0  0
  -29.7112  -17.8907   18.4544 C   0  0  0  0  0  0  0  0  0  0  0  0
  -28.1093  -26.6205   19.8520 C   0  0  0  0  0  0  0  0  0  0  0  0
  -19.0859   -5.6009   20.3287 C   0  0  0  0  0  0  0  0  0  0  0  0
  -28.8912  -20.2024   19.6499 C   0  0  0  0  0  0  0  0  0  0  0  0
  -24.0151  -10.4826   21.0461 C   0  0  0  0  0  0  0  0  0  0  0  0
  -24.1960  -13.0129   20.7767 C   0  0  0  0  0  0  0  0  0  0  0  0
  -24.7536  -20.3329   24.3464 C   0  0  0  0  0  0  0  0  0  0  0  0
  -27.6837  -25.8640   22.1117 C   0  0  0  0  0  0  0  0  0  0  0  0
  -25.2304  -21.1369   23.2935 C   0  0  0  0  0  0  0  0  0  0  0  0
  -27.2489  -26.5298   20.9568 C   0  0  0  0  0  0  0  0  0  0  0  0
  -29.4339  -20.2785   18.3773 C   0  0  0  0  0  0  0  0  0  0  0  0
  -22.6876   -8.1227   21.7177 C   0  0  0  0  0  0  0  0  0  0  0  0
  -29.3889  -26.0678   19.8998 C   0  0  0  0  0  0  0  0  0  0  0  0
  -20.7357   -6.8189   21.6059 C   0  0  0  0  0  0  0  0  0  0  0  0
  -18.1072   -6.5134   20.7228 C   0  0  0  0  0  0  0  0  0  0  0  0
  -20.4001   -5.7537   20.7703 C   0  0  0  0  0  0  0  0  0  0  0  0
  -24.7014  -11.7013   20.6996 C   0  0  0  0  0  0  0  0  0  0  0  0
  -29.1563  -17.9215   19.7236 C   0  0  0  0  0  0  0  0  0  0  0  0
  -25.2292  -13.8052   20.3393 C   0  0  0  0  0  0  0  0  0  0  0  0
  -22.9079  -13.4739   21.2053 C   0  0  0  0  0  0  0  0  0  0  0  0
  -24.7452  -24.6737   22.3405 C   0  0  0  0  0  0  0  0  0  0  0  0
  -23.8927  -27.8029   22.2772 C   0  0  0  0  0  0  0  0  0  0  0  0
  -29.1978  -22.7783   18.1835 C   0  0  0  0  0  0  0  0  0  0  0  0
  -24.6747  -31.0011   21.3791 C   0  0  0  0  0  0  0  0  0  0  0  0
  -30.7949  -14.8898   20.7447 C   0  0  0  0  0  0  0  0  0  0  0  0
  -23.3471  -20.4683   24.8737 C   0  0  0  0  0  0  0  0  0  0  0  0
  -26.7920  -25.7728   23.3196 C   0  0  0  0  0  0  0  0  0  0  0  0
  -25.8773  -27.1451   20.8650 C   0  0  0  0  0  0  0  0  0  0  0  0
  -22.6781  -21.7865   24.4929 C   0  0  0  0  0  0  0  0  0  0  0  0
  -29.5881  -12.6153   18.0855 C   0  0  0  0  0  0  0  0  0  0  0  0
  -22.8924  -22.0858   23.0126 C   0  0  0  0  0  0  0  0  0  0  0  0
  -28.1946  -12.2328   18.5814 C   0  0  0  0  0  0  0  0  0  0  0  0
  -30.5278  -12.9525   19.2391 C   0  0  0  0  0  0  0  0  0  0  0  0
  -28.6108  -13.6193   20.6514 C   0  0  0  0  0  0  0  0  0  0  0  0
  -24.3840  -22.2370   22.6906 C   0  0  1  0  0  0  0  0  0  0  0  0
  -25.3109  -25.9098   22.9806 C   0  0  1  0  0  0  0  0  0  0  0  0
  -27.6261  -13.3186   19.5115 C   0  0  2  0  0  0  0  0  0  0  0  0
  -23.7637  -33.3389   21.4256 C   0  0  0  0  0  0  0  0  0  0  0  0
  -32.5654  -25.7060   18.7024 C   0  0  0  0  0  0  0  0  0  0  0  0
  -22.0222  -27.1173   19.9662 C   0  0  0  0  0  0  0  0  0  0  0  0
  -21.8786  -29.5627   19.4486 C   0  0  0  0  0  0  0  0  0  0  0  0
  -21.0668  -28.7049   21.6459 C   0  0  0  0  0  0  0  0  0  0  0  0
  -31.1044  -17.1633   21.6475 C   0  0  0  0  0  0  0  0  0  0  0  0
  -26.9205  -31.9672   23.0470 C   0  0  0  0  0  0  0  0  0  0  0  0
  -28.9928  -16.6465   20.4814 C   0  0  0  0  0  0  0  0  0  0  0  0
  -29.5073  -23.8506   17.1459 C   0  0  0  0  0  0  0  0  0  0  0  0
  -30.9109  -24.4483   17.2757 C   0  0  0  0  0  0  0  0  0  0  0  0
  -23.5524  -28.7965   21.1929 C   0  0  1  0  0  0  0  0  0  0  0  0
  -24.6142  -32.3073   22.1502 C   0  0  2  0  0  0  0  0  0  0  0  0
  -31.1626  -25.1161   18.6332 C   0  0  2  0  0  0  0  0  0  1  0  0
  -22.1552  -28.5322   20.5641 C   0  0  0  0  0  0  0  0  0  0  0  0
  -28.7411  -19.0503   20.3410 N   0  0  0  0  0  0  0  0  0  0  0  0
  -25.9579  -11.6585   20.2486 N   0  0  0  0  0  0  0  0  0  0  0  0
  -26.2507  -12.9531   20.0383 N   0  0  0  0  0  0  0  0  0  0  0  0
  -25.0402  -27.0242   22.0701 N   0  0  0  0  0  0  0  0  0  0  0  0
  -29.9447  -13.9551   20.1312 N   0  0  0  0  0  0  0  0  0  0  0  0
  -25.3544  -15.1407   20.1866 N   0  0  0  0  0  0  0  0  0  0  0  0
  -21.9639  -12.5258   21.6231 N   0  0  0  0  0  0  0  0  0  0  0  0
  -29.5619  -21.5205   17.7110 N   0  0  0  0  0  0  0  0  0  0  0  0
  -24.8635  -23.5350   23.1143 N   0  0  0  0  0  0  0  0  0  0  0  0
  -23.6980  -30.1192   21.7909 N   0  0  0  0  0  0  0  0  0  0  0  0
  -30.2587  -16.1564   21.0225 N   0  0  0  0  0  0  0  0  0  0  0  0
  -25.9835  -32.8680   22.3275 N   0  3  0  0  0  0  0  0  0  0  0  0
  -22.5973  -14.6892   21.2020 O   0  0  0  0  0  0  0  0  0  0  0  0
  -24.2377  -24.7479   21.2276 O   0  0  0  0  0  0  0  0  0  0  0  0
  -23.1712  -27.7256   23.2748 O   0  0  0  0  0  0  0  0  0  0  0  0
  -28.7158  -23.0504   19.2780 O   0  0  0  0  0  0  0  0  0  0  0  0
  -25.5029  -30.7861   20.4969 O   0  0  0  0  0  0  0  0  0  0  0  0
  -31.9692  -14.6114   21.0194 O   0  0  0  0  0  0  0  0  0  0  0  0
  -22.0399   -6.9715   22.0459 O   0  0  0  0  0  0  0  0  0  0  0  0
  -30.2133  -26.1648   18.8214 O   0  0  0  0  0  0  0  0  0  1  0  0
  -16.8448   -6.3660   20.3000 F   0  0  0  0  0  0  0  0  0  0  0  0
  -21.3358   -4.8733   20.3893 F   0  0  0  0  0  0  0  0  0  0  0  0
  1  2  1  0  0  0  0
  1  5  2  0  0  0  0
  2  6  2  0  0  0  0
  3  9  2  0  0  0  0
  3 18  1  0  0  0  0
  4 10  1  0  0  0  0
  4 18  2  0  0  0  0
  5 20  1  0  0  0  0
  6 22  1  0  0  0  0
  7 11  2  0  0  0  0
  7 21  1  0  0  0  0
  8 14  2  0  0  0  0
  8 24  1  0  0  0  0
  9 25  1  0  0  0  0
 10 25  2  0  0  0  0
 11 26  1  0  0  0  0
 12 13  2  0  0  0  0
 12 27  1  0  0  0  0
 13 28  1  0  0  0  0
 14 31  1  0  0  0  0
 15 23  1  0  0  0  0
 15 26  2  0  0  0  0
 16 28  2  0  0  0  0
 16 29  1  0  0  0  0
 17 24  2  0  0  0  0
 17 65  1  0  0  0  0
 18 30  1  0  0  0  0
 19 30  1  0  0  0  0
 19 32  2  0  0  0  0
 19 33  1  0  0  0  0
 20 22  2  0  0  0  0
 20 39  1  0  0  0  0
 21 23  2  0  0  0  0
 21 40  1  0  0  0  0
 22 48  1  0  0  0  0
 23 41  1  0  0  0  0
 24 72  1  0  0  0  0
 25 83  1  0  0  0  0
 26 84  1  0  0  0  0
 27 29  2  0  0  0  0
 27 83  1  0  0  0  0
 28 85  1  0  0  0  0
 29 86  1  0  0  0  0
 30 66  2  0  0  0  0
 31 58  1  0  0  0  0
 31 65  2  0  0  0  0
 32 67  1  0  0  0  0
 32 70  1  0  0  0  0
 33 71  1  0  0  0  0
 33 77  2  0  0  0  0
 34 49  1  0  0  0  0
 34 73  1  0  0  0  0
 34 78  2  0  0  0  0
 35 61  1  0  0  0  0
 35 68  1  0  0  0  0
 35 79  2  0  0  0  0
 36 59  1  0  0  0  0
 36 72  1  0  0  0  0
 36 80  2  0  0  0  0
 37 62  1  0  0  0  0
 37 74  1  0  0  0  0
 37 81  2  0  0  0  0
 38 69  1  0  0  0  0
 38 75  1  0  0  0  0
 38 82  2  0  0  0  0
 39 42  1  0  0  0  0
 40 49  1  0  0  0  0
 41 68  1  0  0  0  0
 42 44  1  0  0  0  0
 43 45  1  0  0  0  0
 43 46  1  0  0  0  0
 44 48  1  0  0  0  0
 45 50  1  0  0  0  0
 46 69  1  0  0  0  0
 47 50  1  0  0  0  0
 47 69  1  0  0  0  0
 48 73  1  0  0  0  0
 49 68  1  0  0  0  0
 50 67  1  0  0  0  0
 51 62  1  0  0  0  0
 52 63  1  0  0  0  0
 53 64  1  0  0  0  0
 54 64  1  0  0  0  0
 55 64  1  0  0  0  0
 56 75  1  0  0  0  0
 57 76  1  0  0  0  0
 58 75  1  0  0  0  0
 59 60  1  0  0  0  0
 60 63  1  0  0  0  0
 61 64  1  0  0  0  0
 61 74  1  0  0  0  0
 62 76  1  0  0  0  0
 63 84  1  0  0  0  0
 66 67  1  0  0  0  0
M  CHG  1  76   1
M  ISO  4  38 100  63 101  75 100  84 101
M  END
> <Batch ID>
0194

> <Smiles>
CNC(C)C(=O)NC(C(=O)N1Cc2cc([101O:1][101CH:1](C)CCC(=O)Nc3ccc(C[100N:0](C)[100C:0](=O)N4CCCC(n5nc(-c6ccc(Oc7ccc(F)cc7F)cc6)c(C(N)=O)c5N)C4)nc3)ccc2CC1C(=O)NC1CCCc2ccccc21)C(C)(C)C

> <Shape>
0.316

> <Color>
0.202

> <Negative vol penalty>
0.000

$$$$

  -OEChem-04052305333D

 83 91  0     1  0  0  0  0  0999 V2000
  -17.3476  -30.5663   23.6823 C   0  0  0  0  0  0  0  0  0  0  0  0
  -18.7265  -30.7295   23.5961 C   0  0  0  0  0  0  0  0  0  0  0  0
  -25.3855  -15.0705   19.6514 C   0  0  0  0  0  0  0  0  0  0  0  0
  -27.4008  -14.8753   20.9696 C   0  0  0  0  0  0  0  0  0  0  0  0
  -16.7814  -29.3089   23.4769 C   0  0  0  0  0  0  0  0  0  0  0  0
  -19.5401  -29.6350   23.3054 C   0  0  0  0  0  0  0  0  0  0  0  0
  -24.7121  -29.6605   20.0258 C   0  0  0  0  0  0  0  0  0  0  0  0
  -25.1836  -13.6944   19.7563 C   0  0  0  0  0  0  0  0  0  0  0  0
  -27.1988  -13.4991   21.0746 C   0  0  0  0  0  0  0  0  0  0  0  0
  -26.0564  -29.6867   20.3944 C   0  0  0  0  0  0  0  0  0  0  0  0
  -23.9434  -10.2846   19.9811 C   0  0  0  0  0  0  0  0  0  0  0  0
  -22.6561   -9.8390   20.2807 C   0  0  0  0  0  0  0  0  0  0  0  0
  -26.1531  -27.2850   20.1901 C   0  0  0  0  0  0  0  0  0  0  0  0
  -22.7128  -11.0717   22.3578 C   0  0  0  0  0  0  0  0  0  0  0  0
  -26.4942  -15.6610   20.2580 C   0  0  0  0  0  0  0  0  0  0  0  0
  -26.2299  -18.0805   21.0220 C   0  0  0  0  0  0  0  0  0  0  0  0
  -17.5877  -28.2003   23.1741 C   0  0  0  0  0  0  0  0  0  0  0  0
  -24.0742  -28.4432   19.7466 C   0  0  0  0  0  0  0  0  0  0  0  0
  -18.9843  -28.3613   23.0971 C   0  0  0  0  0  0  0  0  0  0  0  0
  -24.8013  -27.2463   19.8156 C   0  0  0  0  0  0  0  0  0  0  0  0
  -26.0902  -12.9086   20.4679 C   0  0  0  0  0  0  0  0  0  0  0  0
  -26.7764  -28.4986   20.4794 C   0  0  0  0  0  0  0  0  0  0  0  0
  -24.6156  -11.1237   20.8699 C   0  0  0  0  0  0  0  0  0  0  0  0
  -22.0408  -10.2326   21.4690 C   0  0  0  0  0  0  0  0  0  0  0  0
  -24.0002  -11.5173   22.0582 C   0  0  0  0  0  0  0  0  0  0  0  0
  -26.7036  -17.0824   20.1496 C   0  0  0  0  0  0  0  0  0  0  0  0
  -31.8834  -25.9008   20.4241 C   0  0  0  0  0  0  0  0  0  0  0  0
  -26.6960  -19.2555   20.4849 C   0  0  0  0  0  0  0  0  0  0  0  0
  -31.4514  -25.6382   21.7073 C   0  0  0  0  0  0  0  0  0  0  0  0
  -31.0435  -23.9031   20.0869 C   0  0  0  0  0  0  0  0  0  0  0  0
  -25.4392  -17.9566   22.2116 C   0  0  0  0  0  0  0  0  0  0  0  0
  -21.6326  -26.8485   21.0112 C   0  0  0  0  0  0  0  0  0  0  0  0
  -22.1101  -24.8814   18.4765 C   0  0  0  0  0  0  0  0  0  0  0  0
  -24.2484  -23.6819   16.1025 C   0  0  0  0  0  0  0  0  0  0  0  0
  -30.7612  -22.2823   18.1791 C   0  0  0  0  0  0  0  0  0  0  0  0
  -16.9342  -26.8514   23.0069 C   0  0  0  0  0  0  0  0  0  0  0  0
  -22.6306  -28.4343   19.3244 C   0  0  0  0  0  0  0  0  0  0  0  0
  -24.1684  -25.9150   19.5063 C   0  0  0  0  0  0  0  0  0  0  0  0
  -17.8338  -25.8181   22.3336 C   0  0  0  0  0  0  0  0  0  0  0  0
  -28.8571  -20.2014   16.0063 C   0  0  0  0  0  0  0  0  0  0  0  0
  -19.2271  -25.8381   22.9541 C   0  0  0  0  0  0  0  0  0  0  0  0
  -28.0881  -19.2865   16.9623 C   0  0  0  0  0  0  0  0  0  0  0  0
  -30.2647  -20.5019   16.5183 C   0  0  0  0  0  0  0  0  0  0  0  0
  -29.5595  -20.1081   18.8457 C   0  0  0  0  0  0  0  0  0  0  0  0
  -19.8981  -27.2032   22.7595 C   0  0  1  0  0  0  0  0  0  0  0  0
  -21.9468  -27.0914   19.5621 C   0  0  1  0  0  0  0  0  0  0  0  0
  -28.1133  -19.8297   18.4045 C   0  0  2  0  0  0  0  0  0  0  0  0
  -24.3623  -22.0548   14.1954 C   0  0  0  0  0  0  0  0  0  0  0  0
  -22.2788  -22.5702   20.4615 C   0  0  0  0  0  0  0  0  0  0  0  0
  -23.3152  -21.1839   18.6526 C   0  0  0  0  0  0  0  0  0  0  0  0
  -20.9969  -22.0620   18.3751 C   0  0  0  0  0  0  0  0  0  0  0  0
  -24.8569  -25.8271   14.1566 C   0  0  0  0  0  0  0  0  0  0  0  0
  -30.4177  -28.2964   19.0766 C   0  0  0  0  0  0  0  0  0  0  0  0
  -30.2895  -29.3092   20.2192 C   0  0  0  0  0  0  0  0  0  0  0  0
  -31.8673  -27.8775   18.7925 C   0  0  0  0  0  0  0  0  0  0  0  0
  -28.8374  -29.6853   20.4920 C   0  0  0  0  0  0  0  0  0  1  0  0
  -32.5786  -27.1599   19.9546 C   0  0  2  0  0  0  0  0  0  0  0  0
  -22.9531  -23.6560   18.2182 C   0  0  1  0  0  0  0  0  0  0  0  0
  -24.0875  -23.4935   14.6048 C   0  0  2  0  0  0  0  0  0  0  0  0
  -22.3977  -22.3928   18.9346 C   0  0  0  0  0  0  0  0  0  0  0  0
  -27.4160  -17.5799   19.1351 N   0  0  0  0  0  0  0  0  0  0  0  0
  -31.6508  -24.9068   19.4937 N   0  0  0  0  0  0  0  0  0  0  0  0
  -27.3932  -18.9035   19.3667 N   0  0  0  0  0  0  0  0  0  0  0  0
  -22.7528  -25.9579   19.1041 N   0  0  0  0  0  0  0  0  0  0  0  0
  -30.2097  -21.0166   17.8882 N   0  0  0  0  0  0  0  0  0  0  0  0
  -26.5734  -20.5452   20.8646 N   0  0  0  0  0  0  0  0  0  0  0  0
  -31.5524  -26.4307   22.8020 N   0  0  0  0  0  0  0  0  0  0  0  0
  -25.0458  -16.6755   22.6219 N   0  0  0  0  0  0  0  0  0  0  0  0
  -30.6210  -22.6807   19.5081 N   0  0  0  0  0  0  0  0  0  0  0  0
  -20.4003  -27.3315   21.4083 N   0  0  0  0  0  0  0  0  0  0  0  0
  -23.0510  -23.5261   16.7684 N   0  0  0  0  0  0  0  0  0  0  0  0
  -33.9876  -26.8837   19.5173 N   0  3  0  0  0  0  0  0  0  0  0  0
  -25.0308  -24.3804   13.8669 N   0  3  0  0  0  0  0  0  0  0  0  0
  -25.0780  -18.9537   22.8815 O   0  0  0  0  0  0  0  0  0  0  0  0
  -22.4472  -26.2648   21.7164 O   0  0  0  0  0  0  0  0  0  0  0  0
  -20.9269  -24.8860   18.1277 O   0  0  0  0  0  0  0  0  0  0  0  0
  -25.3288  -23.9377   16.6294 O   0  0  0  0  0  0  0  0  0  0  0  0
  -31.2928  -22.9745   17.3072 O   0  0  0  0  0  0  0  0  0  0  0  0
  -25.8933  -11.5658   20.5706 O   0  0  0  0  0  0  0  0  0  0  0  0
  -28.0885  -28.5214   20.8397 O   0  0  0  0  0  0  0  0  0  1  0  0
  -20.8039   -9.8059   21.7559 F   0  0  0  0  0  0  0  0  0  0  0  0
  -24.6405  -12.3242   22.9154 F   0  0  0  0  0  0  0  0  0  0  0  0
  -30.7209  -24.0875   21.7623 S   0  0  0  0  0  0  0  0  0  0  0  0
  1  2  1  0  0  0  0
  1  5  2  0  0  0  0
  2  6  2  0  0  0  0
  3  8  2  0  0  0  0
  3 15  1  0  0  0  0
  4  9  1  0  0  0  0
  4 15  2  0  0  0  0
  5 17  1  0  0  0  0
  6 19  1  0  0  0  0
  7 10  2  0  0  0  0
  7 18  1  0  0  0  0
  8 21  1  0  0  0  0
  9 21  2  0  0  0  0
 10 22  1  0  0  0  0
 11 12  2  0  0  0  0
 11 23  1  0  0  0  0
 12 24  1  0  0  0  0
 13 20  1  0  0  0  0
 13 22  2  0  0  0  0
 14 24  2  0  0  0  0
 14 25  1  0  0  0  0
 15 26  1  0  0  0  0
 16 26  1  0  0  0  0
 16 28  2  0  0  0  0
 16 31  1  0  0  0  0
 17 19  2  0  0  0  0
 17 36  1  0  0  0  0
 18 20  2  0  0  0  0
 18 37  1  0  0  0  0
 19 45  1  0  0  0  0
 20 38  1  0  0  0  0
 21 79  1  0  0  0  0
 22 80  1  0  0  0  0
 23 25  2  0  0  0  0
 23 79  1  0  0  0  0
 24 81  1  0  0  0  0
 25 82  1  0  0  0  0
 26 61  2  0  0  0  0
 27 29  2  0  0  0  0
 27 57  1  0  0  0  0
 27 62  1  0  0  0  0
 28 63  1  0  0  0  0
 28 66  1  0  0  0  0
 29 67  1  0  0  0  0
 29 83  1  0  0  0  0
 30 62  2  0  0  0  0
 30 69  1  0  0  0  0
 30 83  1  0  0  0  0
 31 68  1  0  0  0  0
 31 74  2  0  0  0  0
 32 46  1  0  0  0  0
 32 70  1  0  0  0  0
 32 75  2  0  0  0  0
 33 58  1  0  0  0  0
 33 64  1  0  0  0  0
 33 76  2  0  0  0  0
 34 59  1  0  0  0  0
 34 71  1  0  0  0  0
 34 77  2  0  0  0  0
 35 65  1  0  0  0  0
 35 69  1  0  0  0  0
 35 78  2  0  0  0  0
 36 39  1  0  0  0  0
 37 46  1  0  0  0  0
 38 64  1  0  0  0  0
 39 41  1  0  0  0  0
 40 42  1  0  0  0  0
 40 43  1  0  0  0  0
 41 45  1  0  0  0  0
 42 47  1  0  0  0  0
 43 65  1  0  0  0  0
 44 47  1  0  0  0  0
 44 65  1  0  0  0  0
 45 70  1  0  0  0  0
 46 64  1  0  0  0  0
 47 63  1  0  0  0  0
 48 59  1  0  0  0  0
 49 60  1  0  0  0  0
 50 60  1  0  0  0  0
 51 60  1  0  0  0  0
 52 73  1  0  0  0  0
 53 54  1  0  0  0  0
 53 55  1  0  0  0  0
 54 56  1  0  0  0  0
 55 57  1  0  0  0  0
 56 80  1  0  0  0  0
 57 72  1  0  0  0  0
 58 60  1  0  0  0  0
 58 71  1  0  0  0  0
 59 73  1  0  0  0  0
 61 63  1  0  0  0  0
M  CHG  2  72   1  73   1
M  ISO  4  35 100  56 101  69 100  80 101
M  END
> <Batch ID>
0194

> <Smiles>
CNC(C)C(=O)NC(C(=O)N1Cc2cc([101O:1][101CH2:1]CCCC(N)c3nc([100NH:0][100C:0](=O)N4CCCC(n5nc(-c6ccc(Oc7ccc(F)cc7F)cc6)c(C(N)=O)c5N)C4)sc3N)ccc2CC1C(=O)NC1CCCc2ccccc21)C(C)(C)C

> <Shape>
0.233

> <Color>
0.060

> <Negative vol penalty>
0.000

$$$$

  -OEChem-04052305333D

 87 95  0     1  0  0  0  0  0999 V2000
  -19.3981  -25.7286   25.6224 C   0  0  0  0  0  0  0  0  0  0  0  0
  -20.5446  -25.4285   24.8939 C   0  0  0  0  0  0  0  0  0  0  0  0
  -22.9865  -12.4857   22.8004 C   0  0  0  0  0  0  0  0  0  0  0  0
  -23.1614  -14.8938   22.7138 C   0  0  0  0  0  0  0  0  0  0  0  0
  -18.5364  -26.7322   25.1818 C   0  0  0  0  0  0  0  0  0  0  0  0
  -20.8296  -26.1312   23.7237 C   0  0  0  0  0  0  0  0  0  0  0  0
  -26.3669  -27.6818   21.6165 C   0  0  0  0  0  0  0  0  0  0  0  0
  -22.1749  -12.5853   23.9304 C   0  0  0  0  0  0  0  0  0  0  0  0
  -22.3497  -14.9934   23.8438 C   0  0  0  0  0  0  0  0  0  0  0  0
  -27.1995  -27.1085   20.6564 C   0  0  0  0  0  0  0  0  0  0  0  0
  -20.0287  -15.8959   26.4927 C   0  0  0  0  0  0  0  0  0  0  0  0
  -19.0077  -16.8461   26.4771 C   0  0  0  0  0  0  0  0  0  0  0  0
  -26.3415  -28.6431   19.0047 C   0  0  0  0  0  0  0  0  0  0  0  0
  -18.0301  -15.7641   24.5508 C   0  0  0  0  0  0  0  0  0  0  0  0
  -32.2845  -18.9842   19.4897 C   0  0  0  0  0  0  0  0  0  0  0  0
  -23.4798  -13.6400   22.1921 C   0  0  0  0  0  0  0  0  0  0  0  0
  -23.9049  -13.5197   19.6796 C   0  0  0  0  0  0  0  0  0  0  0  0
  -18.8159  -27.4542   24.0107 C   0  0  0  0  0  0  0  0  0  0  0  0
  -25.5059  -28.7347   21.2748 C   0  0  0  0  0  0  0  0  0  0  0  0
  -19.9702  -27.1445   23.2662 C   0  0  0  0  0  0  0  0  0  0  0  0
  -25.5008  -29.2298   19.9629 C   0  0  0  0  0  0  0  0  0  0  0  0
  -21.8565  -13.8391   24.4521 C   0  0  0  0  0  0  0  0  0  0  0  0
  -27.1848  -27.5872   19.3496 C   0  0  0  0  0  0  0  0  0  0  0  0
  -20.0504  -14.8798   25.5373 C   0  0  0  0  0  0  0  0  0  0  0  0
  -18.0084  -16.7802   25.5062 C   0  0  0  0  0  0  0  0  0  0  0  0
  -19.0511  -14.8139   24.5664 C   0  0  0  0  0  0  0  0  0  0  0  0
  -24.3187  -13.5378   21.0251 C   0  0  0  0  0  0  0  0  0  0  0  0
  -31.1798  -19.7888   19.6751 C   0  0  0  0  0  0  0  0  0  0  0  0
  -25.0715  -13.4100   18.9631 C   0  0  0  0  0  0  0  0  0  0  0  0
  -30.8089  -17.4223   19.9291 C   0  0  0  0  0  0  0  0  0  0  0  0
  -22.5841  -13.5953   19.1270 C   0  0  0  0  0  0  0  0  0  0  0  0
  -22.3538  -29.1444   21.2734 C   0  0  0  0  0  0  0  0  0  0  0  0
  -23.1419  -32.1931   20.4946 C   0  0  0  0  0  0  0  0  0  0  0  0
  -25.4235  -34.3403   19.1414 C   0  0  0  0  0  0  0  0  0  0  0  0
  -30.7359  -14.9122   20.1308 C   0  0  0  0  0  0  0  0  0  0  0  0
  -17.8303  -28.4980   23.5487 C   0  0  0  0  0  0  0  0  0  0  0  0
  -24.6334  -29.3600   22.3283 C   0  0  0  0  0  0  0  0  0  0  0  0
  -24.6098  -30.3716   19.5497 C   0  0  0  0  0  0  0  0  0  0  0  0
  -18.3986  -29.4506   22.5000 C   0  0  0  0  0  0  0  0  0  0  0  0
  -29.5213  -11.6712   19.2958 C   0  0  0  0  0  0  0  0  0  0  0  0
  -19.1385  -28.6721   21.4168 C   0  0  0  0  0  0  0  0  0  0  0  0
  -28.0109  -11.7822   19.5162 C   0  0  0  0  0  0  0  0  0  0  0  0
  -30.3061  -12.4731   20.3324 C   0  0  0  0  0  0  0  0  0  0  0  0
  -28.3978  -13.9918   20.6801 C   0  0  0  0  0  0  0  0  0  0  0  0
  -20.3265  -27.9014   22.0052 C   0  0  1  0  0  0  0  0  0  0  0  0
  -23.4237  -30.0864   21.7484 C   0  0  1  0  0  0  0  0  0  0  0  0
  -27.5633  -13.2533   19.6210 C   0  0  2  0  0  0  0  0  0  0  0  0
  -29.0332  -25.5290   14.1462 C   0  0  0  0  0  0  0  0  0  0  0  0
  -25.7694  -36.7680   18.6089 C   0  0  0  0  0  0  0  0  0  0  0  0
  -26.1556  -24.5385   16.5711 C   0  0  0  0  0  0  0  0  0  0  0  0
  -31.5122  -23.8214   17.7761 C   0  0  0  0  0  0  0  0  0  0  0  0
  -21.2740  -31.9308   18.0963 C   0  0  0  0  0  0  0  0  0  0  0  0
  -22.3651  -33.9583   17.1130 C   0  0  0  0  0  0  0  0  0  0  0  0
  -21.1461  -34.1286   19.2827 C   0  0  0  0  0  0  0  0  0  0  0  0
  -27.7825  -34.5137   20.9201 C   0  0  0  0  0  0  0  0  0  0  0  0
  -31.0549  -21.2819   19.5966 C   0  0  0  0  0  0  0  0  0  0  0  0
  -27.8203  -24.8118   14.7209 C   0  0  0  0  0  0  0  0  0  0  0  0
  -28.9989  -23.5066   17.3708 C   0  0  0  0  0  0  0  0  0  0  0  0
  -28.3196  -25.6489   18.5678 C   0  0  0  0  0  0  0  0  0  1  0  0
  -23.3763  -32.9404   19.2040 C   0  0  1  0  0  0  0  0  0  0  0  0
  -25.9763  -35.6650   19.6352 C   0  0  2  0  0  0  0  0  0  0  0  0
  -27.4688  -25.2247   16.1691 C   0  0  2  0  0  0  0  0  0  0  0  0
  -28.6233  -24.9991   17.2032 C   0  0  2  0  0  0  0  0  0  0  0  0
  -30.2046  -23.2277   18.2815 C   0  0  1  0  0  0  0  0  0  0  0  0
  -22.0559  -33.2167   18.4310 C   0  0  0  0  0  0  0  0  0  0  0  0
  -32.0738  -17.6269   19.6354 N   0  0  0  0  0  0  0  0  0  0  0  0
  -25.6446  -13.4468   21.1581 N   0  0  0  0  0  0  0  0  0  0  0  0
  -26.0741  -13.3703   19.8869 N   0  0  0  0  0  0  0  0  0  0  0  0
  -23.7704  -30.9455   20.6144 N   0  0  0  0  0  0  0  0  0  0  0  0
  -29.8304  -13.8576   20.3727 N   0  0  0  0  0  0  0  0  0  0  0  0
  -25.3273  -13.3446   17.6392 N   0  0  0  0  0  0  0  0  0  0  0  0
  -21.4976  -13.7051   20.0054 N   0  0  0  0  0  0  0  0  0  0  0  0
  -30.1628  -16.1831   20.1630 N   0  0  0  0  0  0  0  0  0  0  0  0
  -21.4385  -28.7952   22.2479 N   0  0  0  0  0  0  0  0  0  0  0  0
  -24.1241  -34.1420   19.5581 N   0  0  0  0  0  0  0  0  0  0  0  0
  -27.4362  -35.5468   19.9102 N   0  3  0  0  0  0  0  0  0  0  0  0
  -30.3807  -21.7445   18.3589 N   0  3  0  0  0  0  0  0  0  0  0  0
  -22.3725  -13.5499   17.8914 O   0  0  0  0  0  0  0  0  0  0  0  0
  -22.3576  -28.7638   20.1086 O   0  0  0  0  0  0  0  0  0  0  0  0
  -22.4333  -32.7010   21.3673 O   0  0  0  0  0  0  0  0  0  0  0  0
  -26.0775  -33.5611   18.4517 O   0  0  0  0  0  0  0  0  0  0  0  0
  -31.9263  -14.7019   19.8842 O   0  0  0  0  0  0  0  0  0  0  0  0
  -21.0643  -13.9367   25.5546 O   0  0  0  0  0  0  0  0  0  0  0  0
  -28.0017  -27.0250   18.4037 O   0  0  0  0  0  0  0  0  0  1  0  0
  -17.0272  -17.6919   25.4922 F   0  0  0  0  0  0  0  0  0  0  0  0
  -19.0660  -13.8393   23.6467 F   0  0  0  0  0  0  0  0  0  0  0  0
  -29.8160  -18.8172   20.0453 S   0  0  0  0  0  0  0  0  0  0  0  0
  1  2  1  0  0  0  0
  1  5  2  0  0  0  0
  2  6  2  0  0  0  0
  3  8  2  0  0  0  0
  3 16  1  0  0  0  0
  4  9  1  0  0  0  0
  4 16  2  0  0  0  0
  5 18  1  0  0  0  0
  6 20  1  0  0  0  0
  7 10  2  0  0  0  0
  7 19  1  0  0  0  0
  8 22  1  0  0  0  0
  9 22  2  0  0  0  0
 10 23  1  0  0  0  0
 11 12  2  0  0  0  0
 11 24  1  0  0  0  0
 12 25  1  0  0  0  0
 13 21  1  0  0  0  0
 13 23  2  0  0  0  0
 14 25  2  0  0  0  0
 14 26  1  0  0  0  0
 15 28  2  0  0  0  0
 15 66  1  0  0  0  0
 16 27  1  0  0  0  0
 17 27  1  0  0  0  0
 17 29  2  0  0  0  0
 17 31  1  0  0  0  0
 18 20  2  0  0  0  0
 18 36  1  0  0  0  0
 19 21  2  0  0  0  0
 19 37  1  0  0  0  0
 20 45  1  0  0  0  0
 21 38  1  0  0  0  0
 22 83  1  0  0  0  0
 23 84  1  0  0  0  0
 24 26  2  0  0  0  0
 24 83  1  0  0  0  0
 25 85  1  0  0  0  0
 26 86  1  0  0  0  0
 27 67  2  0  0  0  0
 28 56  1  0  0  0  0
 28 87  1  0  0  0  0
 29 68  1  0  0  0  0
 29 71  1  0  0  0  0
 30 66  2  0  0  0  0
 30 73  1  0  0  0  0
 30 87  1  0  0  0  0
 31 72  1  0  0  0  0
 31 78  2  0  0  0  0
 32 46  1  0  0  0  0
 32 74  1  0  0  0  0
 32 79  2  0  0  0  0
 33 60  1  0  0  0  0
 33 69  1  0  0  0  0
 33 80  2  0  0  0  0
 34 61  1  0  0  0  0
 34 75  1  0  0  0  0
 34 81  2  0  0  0  0
 35 70  1  0  0  0  0
 35 73  1  0  0  0  0
 35 82  2  0  0  0  0
 36 39  1  0  0  0  0
 37 46  1  0  0  0  0
 38 69  1  0  0  0  0
 39 41  1  0  0  0  0
 40 42  1  0  0  0  0
 40 43  1  0  0  0  0
 41 45  1  0  0  0  0
 42 47  1  0  0  0  0
 43 70  1  0  0  0  0
 44 47  1  0  0  0  0
 44 70  1  0  0  0  0
 45 74  1  0  0  0  0
 46 69  1  0  0  0  0
 47 68  1  0  0  0  0
 48 57  1  0  0  0  0
 49 61  1  0  0  0  0
 50 62  1  0  0  0  0
 51 64  1  0  0  0  0
 52 65  1  0  0  0  0
 53 65  1  0  0  0  0
 54 65  1  0  0  0  0
 55 76  1  0  0  0  0
 56 77  1  0  0  0  0
 57 62  1  0  0  0  0
 58 63  1  0  0  0  0
 58 64  1  0  0  0  0
 59 63  1  0  0  0  0
 59 84  1  0  0  0  0
 60 65  1  0  0  0  0
 60 75  1  0  0  0  0
 61 76  1  0  0  0  0
 62 63  1  0  0  0  0
 64 77  1  0  0  0  0
 67 68  1  0  0  0  0
M  CHG  2  76   1  77   1
M  ISO  4  35 100  59 101  73 100  84 101
M  END
> <Batch ID>
0194

> <Smiles>
CCC(C)C(CC(C)NCc1cnc([100NH:0][100C:0](=O)N2CCCC(n3nc(-c4ccc(Oc5ccc(F)cc5F)cc4)c(C(N)=O)c3N)C2)s1)[101CH2:1][101O:1]c1ccc2c(c1)CN(C(=O)C(NC(=O)C(C)NC)C(C)(C)C)C(C(=O)NC1CCCc3ccccc31)C2

> <Shape>
0.220

> <Color>
0.101

> <Negative vol penalty>
0.000

$$$$

  -OEChem-04052305333D

 83 91  0     1  0  0  0  0  0999 V2000
  -21.5573  -12.6479   19.7077 C   0  0  0  0  0  0  0  0  0  0  0  0
  -21.6051  -13.8626   20.3841 C   0  0  0  0  0  0  0  0  0  0  0  0
  -30.1841  -28.2844   21.5164 C   0  0  0  0  0  0  0  0  0  0  0  0
  -29.0008  -26.2255   21.9611 C   0  0  0  0  0  0  0  0  0  0  0  0
  -22.7185  -11.8923   19.5510 C   0  0  0  0  0  0  0  0  0  0  0  0
  -22.8142  -14.3220   20.9052 C   0  0  0  0  0  0  0  0  0  0  0  0
  -23.6012  -19.2323   19.9490 C   0  0  0  0  0  0  0  0  0  0  0  0
  -31.2525  -27.8384   22.2944 C   0  0  0  0  0  0  0  0  0  0  0  0
  -30.0692  -25.7795   22.7391 C   0  0  0  0  0  0  0  0  0  0  0  0
  -22.9178  -20.1530   20.7421 C   0  0  0  0  0  0  0  0  0  0  0  0
  -31.2629  -26.2922   25.8605 C   0  0  0  0  0  0  0  0  0  0  0  0
  -30.9679  -25.7040   27.0903 C   0  0  0  0  0  0  0  0  0  0  0  0
  -24.9050  -20.4734   22.0717 C   0  0  0  0  0  0  0  0  0  0  0  0
  -32.0364  -23.6606   26.3692 C   0  0  0  0  0  0  0  0  0  0  0  0
  -29.0582  -27.4780   21.3498 C   0  0  0  0  0  0  0  0  0  0  0  0
  -27.7696  -27.7456   19.1645 C   0  0  0  0  0  0  0  0  0  0  0  0
  -23.9443  -12.3473   20.0621 C   0  0  0  0  0  0  0  0  0  0  0  0
  -24.9407  -18.9166   20.2183 C   0  0  0  0  0  0  0  0  0  0  0  0
  -23.9927  -13.5712   20.7564 C   0  0  0  0  0  0  0  0  0  0  0  0
  -25.6039  -19.5503   21.2789 C   0  0  0  0  0  0  0  0  0  0  0  0
  -31.1950  -26.5860   22.9057 C   0  0  0  0  0  0  0  0  0  0  0  0
  -23.5688  -20.7715   21.8055 C   0  0  0  0  0  0  0  0  0  0  0  0
  -31.9446  -25.5647   24.8849 C   0  0  0  0  0  0  0  0  0  0  0  0
  -31.3547  -24.3882   27.3447 C   0  0  0  0  0  0  0  0  0  0  0  0
  -32.3314  -24.2489   25.1394 C   0  0  0  0  0  0  0  0  0  0  0  0
  -27.9540  -27.9383   20.5467 C   0  0  0  0  0  0  0  0  0  0  0  0
  -26.5780  -28.3695   18.8867 C   0  0  0  0  0  0  0  0  0  0  0  0
  -20.6087  -26.1358   22.6653 C   0  0  0  0  0  0  0  0  0  0  0  0
  -20.2768  -24.1459   21.6819 C   0  0  0  0  0  0  0  0  0  0  0  0
  -21.3192  -24.2569   23.6664 C   0  0  0  0  0  0  0  0  0  0  0  0
  -28.6012  -27.0634   18.2164 C   0  0  0  0  0  0  0  0  0  0  0  0
  -26.5015  -16.2698   21.0320 C   0  0  0  0  0  0  0  0  0  0  0  0
  -29.1113  -18.1589   20.6540 C   0  0  0  0  0  0  0  0  0  0  0  0
  -30.4277  -21.3073   20.6148 C   0  0  0  0  0  0  0  0  0  0  0  0
  -21.7835  -29.6754   22.2272 C   0  0  0  0  0  0  0  0  0  0  0  0
  -25.1638  -11.4732   19.9091 C   0  0  0  0  0  0  0  0  0  0  0  0
  -25.6716  -17.9413   19.3369 C   0  0  0  0  0  0  0  0  0  0  0  0
  -27.0473  -19.2613   21.5974 C   0  0  0  0  0  0  0  0  0  0  0  0
  -26.4766  -12.2091   20.1649 C   0  0  0  0  0  0  0  0  0  0  0  0
  -23.7946  -31.9620   20.3823 C   0  0  0  0  0  0  0  0  0  0  0  0
  -26.3810  -13.0445   21.4377 C   0  0  0  0  0  0  0  0  0  0  0  0
  -25.0720  -31.1727   20.0905 C   0  0  0  0  0  0  0  0  0  0  0  0
  -23.2300  -31.6319   21.7623 C   0  0  0  0  0  0  0  0  0  0  0  0
  -24.2873  -29.4061   21.7222 C   0  0  0  0  0  0  0  0  0  0  0  0
  -25.2900  -14.1150   21.3144 C   0  0  1  0  0  0  0  0  0  0  0  0
  -26.8825  -17.3115   20.0183 C   0  0  1  0  0  0  0  0  0  0  0  0
  -24.8632  -29.6636   20.3192 C   0  0  2  0  0  0  0  0  0  0  0  0
  -32.5980  -22.5314   20.3166 C   0  0  0  0  0  0  0  0  0  0  0  0
  -22.3457  -21.8121   26.2725 C   0  0  0  0  0  0  0  0  0  0  0  0
  -29.9581  -17.3382   23.4681 C   0  0  0  0  0  0  0  0  0  0  0  0
  -31.5545  -19.2668   23.4749 C   0  0  0  0  0  0  0  0  0  0  0  0
  -31.8225  -17.4341   21.8039 C   0  0  0  0  0  0  0  0  0  0  0  0
  -29.4138  -22.7651   18.2471 C   0  0  0  0  0  0  0  0  0  0  0  0
  -20.4624  -27.6194   22.6592 C   0  0  0  0  0  0  0  0  0  0  0  0
  -23.3080  -21.7738   23.9463 C   0  0  0  0  0  0  0  0  0  1  0  0
  -29.9110  -19.0699   21.5537 C   0  0  1  0  0  0  0  0  0  0  0  0
  -31.3497  -22.0014   19.6285 C   0  0  2  0  0  0  0  0  0  0  0  0
  -22.1237  -22.1929   24.8146 C   0  0  2  0  0  0  0  0  0  0  0  0
  -30.7837  -18.2815   22.5706 C   0  0  0  0  0  0  0  0  0  0  0  0
  -26.9592  -28.6307   21.1080 N   0  0  0  0  0  0  0  0  0  0  0  0
  -20.1102  -25.4761   21.6071 N   0  0  0  0  0  0  0  0  0  0  0  0
  -21.2246  -25.5949   23.7289 N   0  0  0  0  0  0  0  0  0  0  0  0
  -20.8699  -23.4675   22.6775 N   0  0  0  0  0  0  0  0  0  0  0  0
  -26.1383  -28.8785   20.0732 N   0  0  0  0  0  0  0  0  0  0  0  0
  -27.7170  -18.2957   20.7105 N   0  0  0  0  0  0  0  0  0  0  0  0
  -23.0542  -30.1856   21.9141 N   0  0  0  0  0  0  0  0  0  0  0  0
  -25.8739  -28.5269   17.7457 N   0  0  0  0  0  0  0  0  0  0  0  0
  -19.7787  -23.3832   20.6031 N   0  0  0  0  0  0  0  0  0  0  0  0
  -29.7911  -26.4785   18.6705 N   0  0  0  0  0  0  0  0  0  0  0  0
  -21.9428  -23.6283   24.7283 N   0  0  0  0  0  0  0  0  0  0  0  0
  -25.7597  -15.2254   20.5139 N   0  0  0  0  0  0  0  0  0  0  0  0
  -30.6695  -19.9510   20.6723 N   0  0  0  0  0  0  0  0  0  0  0  0
  -21.7029  -28.2934   22.3469 N   0  0  0  0  0  0  0  0  0  0  0  0
  -30.6482  -23.1458   18.9809 N   0  3  0  0  0  0  0  0  0  0  0  0
  -28.3061  -26.9894   16.9994 O   0  0  0  0  0  0  0  0  0  0  0  0
  -26.8557  -16.4030   22.1975 O   0  0  0  0  0  0  0  0  0  0  0  0
  -29.7021  -17.3605   19.9225 O   0  0  0  0  0  0  0  0  0  0  0  0
  -29.5806  -21.9087   21.2714 O   0  0  0  0  0  0  0  0  0  0  0  0
  -20.7930  -30.3976   22.3830 O   0  0  0  0  0  0  0  0  0  0  0  0
  -32.2375  -26.1504   23.6648 O   0  0  0  0  0  0  0  0  0  0  0  0
  -22.9040  -21.6700   22.5817 O   0  0  0  0  0  0  0  0  0  1  0  0
  -31.0726  -23.8240   28.5263 F   0  0  0  0  0  0  0  0  0  0  0  0
  -32.9877  -23.5453   24.2066 F   0  0  0  0  0  0  0  0  0  0  0  0
  1  2  1  0  0  0  0
  1  5  2  0  0  0  0
  2  6  2  0  0  0  0
  3  8  2  0  0  0  0
  3 15  1  0  0  0  0
  4  9  1  0  0  0  0
  4 15  2  0  0  0  0
  5 17  1  0  0  0  0
  6 19  1  0  0  0  0
  7 10  2  0  0  0  0
  7 18  1  0  0  0  0
  8 21  1  0  0  0  0
  9 21  2  0  0  0  0
 10 22  1  0  0  0  0
 11 12  2  0  0  0  0
 11 23  1  0  0  0  0
 12 24  1  0  0  0  0
 13 20  1  0  0  0  0
 13 22  2  0  0  0  0
 14 24  2  0  0  0  0
 14 25  1  0  0  0  0
 15 26  1  0  0  0  0
 16 26  1  0  0  0  0
 16 27  2  0  0  0  0
 16 31  1  0  0  0  0
 17 19  2  0  0  0  0
 17 36  1  0  0  0  0
 18 20  2  0  0  0  0
 18 37  1  0  0  0  0
 19 45  1  0  0  0  0
 20 38  1  0  0  0  0
 21 80  1  0  0  0  0
 22 81  1  0  0  0  0
 23 25  2  0  0  0  0
 23 80  1  0  0  0  0
 24 82  1  0  0  0  0
 25 83  1  0  0  0  0
 26 60  2  0  0  0  0
 27 64  1  0  0  0  0
 27 67  1  0  0  0  0
 28 54  1  0  0  0  0
 28 61  2  0  0  0  0
 28 62  1  0  0  0  0
 29 61  1  0  0  0  0
 29 63  2  0  0  0  0
 29 68  1  0  0  0  0
 30 62  2  0  0  0  0
 30 63  1  0  0  0  0
 30 70  1  0  0  0  0
 31 69  1  0  0  0  0
 31 75  2  0  0  0  0
 32 46  1  0  0  0  0
 32 71  1  0  0  0  0
 32 76  2  0  0  0  0
 33 56  1  0  0  0  0
 33 65  1  0  0  0  0
 33 77  2  0  0  0  0
 34 57  1  0  0  0  0
 34 72  1  0  0  0  0
 34 78  2  0  0  0  0
 35 66  1  0  0  0  0
 35 73  1  0  0  0  0
 35 79  2  0  0  0  0
 36 39  1  0  0  0  0
 37 46  1  0  0  0  0
 38 65  1  0  0  0  0
 39 41  1  0  0  0  0
 40 42  1  0  0  0  0
 40 43  1  0  0  0  0
 41 45  1  0  0  0  0
 42 47  1  0  0  0  0
 43 66  1  0  0  0  0
 44 47  1  0  0  0  0
 44 66  1  0  0  0  0
 45 71  1  0  0  0  0
 46 65  1  0  0  0  0
 47 64  1  0  0  0  0
 48 57  1  0  0  0  0
 49 58  1  0  0  0  0
 50 59  1  0  0  0  0
 51 59  1  0  0  0  0
 52 59  1  0  0  0  0
 53 74  1  0  0  0  0
 54 73  1  0  0  0  0
 55 58  1  0  0  0  0
 55 81  1  0  0  0  0
 56 59  1  0  0  0  0
 56 72  1  0  0  0  0
 57 74  1  0  0  0  0
 58 70  1  0  0  0  0
 60 64  1  0  0  0  0
M  CHG  1  74   1
M  ISO  4  35 100  55 101  73 100  81 101
M  END
> <Batch ID>
0194

> <Smiles>
CNC(C)C(=O)NC(C(=O)N1Cc2cc([101O:1][101CH2:1]C(C)Nc3nc(N)nc(C[100NH:0][100C:0](=O)N4CCCC(n5nc(-c6ccc(Oc7ccc(F)cc7F)cc6)c(C(N)=O)c5N)C4)n3)ccc2CC1C(=O)NC1CCCc2ccccc21)C(C)(C)C

> <Shape>
0.217

> <Color>
0.063

> <Negative vol penalty>
0.000

$$$$

  -OEChem-04052305333D

 83 91  0     1  0  0  0  0  0999 V2000
  -22.7112  -26.8617   24.7269 C   0  0  0  0  0  0  0  0  0  0  0  0
  -22.7234  -25.4762   24.6022 C   0  0  0  0  0  0  0  0  0  0  0  0
  -30.0202  -23.7037   19.1642 C   0  0  0  0  0  0  0  0  0  0  0  0
  -28.8937  -23.7975   21.2994 C   0  0  0  0  0  0  0  0  0  0  0  0
  -21.9483  -27.6326   23.8507 C   0  0  0  0  0  0  0  0  0  0  0  0
  -21.9718  -24.8606   23.6019 C   0  0  0  0  0  0  0  0  0  0  0  0
  -23.4399  -19.8001   20.4807 C   0  0  0  0  0  0  0  0  0  0  0  0
  -29.6950  -25.0404   18.9339 C   0  0  0  0  0  0  0  0  0  0  0  0
  -28.5684  -25.1343   21.0691 C   0  0  0  0  0  0  0  0  0  0  0  0
  -23.0636  -18.4656   20.6269 C   0  0  0  0  0  0  0  0  0  0  0  0
  -26.2832  -26.8698   19.2812 C   0  0  0  0  0  0  0  0  0  0  0  0
  -24.9791  -27.2771   19.5621 C   0  0  0  0  0  0  0  0  0  0  0  0
  -21.3448  -18.7742   18.9627 C   0  0  0  0  0  0  0  0  0  0  0  0
  -25.8235  -28.8751   21.1654 C   0  0  0  0  0  0  0  0  0  0  0  0
  -23.0845  -11.8375   19.4213 C   0  0  0  0  0  0  0  0  0  0  0  0
  -29.6195  -23.0823   20.3470 C   0  0  0  0  0  0  0  0  0  0  0  0
  -31.1102  -21.2038   21.2170 C   0  0  0  0  0  0  0  0  0  0  0  0
  -21.1946  -27.0268   22.8331 C   0  0  0  0  0  0  0  0  0  0  0  0
  -22.7632  -20.6359   19.5808 C   0  0  0  0  0  0  0  0  0  0  0  0
  -21.1970  -25.6241   22.7121 C   0  0  0  0  0  0  0  0  0  0  0  0
  -21.7161  -20.1182   18.8051 C   0  0  0  0  0  0  0  0  0  0  0  0
  -24.0897  -12.4940   20.1017 C   0  0  0  0  0  0  0  0  0  0  0  0
  -28.9691  -25.7557   19.8863 C   0  0  0  0  0  0  0  0  0  0  0  0
  -22.0141  -17.9532   19.8700 C   0  0  0  0  0  0  0  0  0  0  0  0
  -27.3575  -27.4651   19.9425 C   0  0  0  0  0  0  0  0  0  0  0  0
  -24.7492  -28.2798   20.5041 C   0  0  0  0  0  0  0  0  0  0  0  0
  -27.1277  -28.4677   20.8845 C   0  0  0  0  0  0  0  0  0  0  0  0
  -29.9547  -21.7013   20.5853 C   0  0  0  0  0  0  0  0  0  0  0  0
  -23.7181  -13.6630   20.7338 C   0  0  0  0  0  0  0  0  0  0  0  0
  -30.9532  -19.8395   21.1950 C   0  0  0  0  0  0  0  0  0  0  0  0
  -21.5746  -13.4302   20.0137 C   0  0  0  0  0  0  0  0  0  0  0  0
  -32.2258  -21.9117   21.7740 C   0  0  0  0  0  0  0  0  0  0  0  0
  -21.0395  -23.2931   19.8495 C   0  0  0  0  0  0  0  0  0  0  0  0
  -21.0817  -23.1838   16.6078 C   0  0  0  0  0  0  0  0  0  0  0  0
  -21.4078  -21.3070   13.7762 C   0  0  0  0  0  0  0  0  0  0  0  0
  -26.1318  -16.4380   20.9957 C   0  0  0  0  0  0  0  0  0  0  0  0
  -20.3482  -27.8986   21.9396 C   0  0  0  0  0  0  0  0  0  0  0  0
  -23.1986  -22.0661   19.4154 C   0  0  0  0  0  0  0  0  0  0  0  0
  -20.9707  -20.9686   17.8103 C   0  0  0  0  0  0  0  0  0  0  0  0
  -19.8751  -27.1932   20.6713 C   0  0  0  0  0  0  0  0  0  0  0  0
  -28.8895  -16.3481   18.6537 C   0  0  0  0  0  0  0  0  0  0  0  0
  -19.3288  -25.8081   21.0029 C   0  0  0  0  0  0  0  0  0  0  0  0
  -29.5857  -17.6770   18.9525 C   0  0  0  0  0  0  0  0  0  0  0  0
  -27.3727  -16.4850   18.7484 C   0  0  0  0  0  0  0  0  0  0  0  0
  -27.5768  -18.3457   20.3514 C   0  0  0  0  0  0  0  0  0  0  0  0
  -20.4144  -24.9211   21.6243 C   0  0  1  0  0  0  0  0  0  0  0  0
  -22.1043  -22.9615   18.8426 C   0  0  1  0  0  0  0  0  0  0  0  0
  -29.1133  -18.2679   20.2941 C   0  0  2  0  0  0  0  0  0  0  0  0
  -21.3570  -21.4913   11.2741 C   0  0  0  0  0  0  0  0  0  0  0  0
  -18.3473  -15.0915   20.8178 C   0  0  0  0  0  0  0  0  0  0  0  0
  -18.0376  -23.3779   16.6864 C   0  0  0  0  0  0  0  0  0  0  0  0
  -17.9968  -22.6112   14.3034 C   0  0  0  0  0  0  0  0  0  0  0  0
  -19.1250  -24.7537   14.9033 C   0  0  0  0  0  0  0  0  0  0  0  0
  -24.2060  -20.3740   13.5347 C   0  0  0  0  0  0  0  0  0  0  0  0
  -24.7201  -14.4612   21.5020 C   0  0  0  0  0  0  0  0  0  0  0  0
  -20.2723  -16.3366   19.7773 C   0  0  0  0  0  0  0  0  0  1  0  0
  -20.2060  -22.5609   15.5476 C   0  0  1  0  0  0  0  0  0  0  0  0
  -22.2312  -21.5165   12.5182 C   0  0  2  0  0  0  0  0  0  0  0  0
  -19.8572  -15.1346   20.6229 C   0  0  2  0  0  0  0  0  0  0  0  0
  -18.8539  -23.3101   15.3802 C   0  0  0  0  0  0  0  0  0  0  0  0
  -21.8112  -12.2789   19.3563 N   0  0  0  0  0  0  0  0  0  0  0  0
  -29.1249  -20.7319   20.1906 N   0  0  0  0  0  0  0  0  0  0  0  0
  -22.4649  -14.1622   20.7102 N   0  0  0  0  0  0  0  0  0  0  0  0
  -29.7598  -19.6116   20.5753 N   0  0  0  0  0  0  0  0  0  0  0  0
  -21.4297  -22.3623   17.6894 N   0  0  0  0  0  0  0  0  0  0  0  0
  -26.9882  -17.0352   20.0559 N   0  0  0  0  0  0  0  0  0  0  0  0
  -25.3952  -11.9898   20.1370 N   0  0  0  0  0  0  0  0  0  0  0  0
  -31.7209  -18.8246   21.6455 N   0  0  0  0  0  0  0  0  0  0  0  0
  -32.2269  -23.3118   21.7122 N   0  0  0  0  0  0  0  0  0  0  0  0
  -20.2795  -13.9123   19.9687 N   0  0  0  0  0  0  0  0  0  0  0  0
  -21.3068  -24.4221   20.6000 N   0  0  0  0  0  0  0  0  0  0  0  0
  -21.0124  -22.5048   14.3332 N   0  0  0  0  0  0  0  0  0  0  0  0
  -25.6112  -15.2009   20.6361 N   0  0  0  0  0  0  0  0  0  0  0  0
  -23.2621  -20.4480   12.3899 N   0  3  0  0  0  0  0  0  0  0  0  0
  -33.2007  -21.3194   22.2959 O   0  0  0  0  0  0  0  0  0  0  0  0
  -20.0480  -22.5784   19.9379 O   0  0  0  0  0  0  0  0  0  0  0  0
  -21.4495  -24.3541   16.4775 O   0  0  0  0  0  0  0  0  0  0  0  0
  -21.1389  -20.1923   14.2184 O   0  0  0  0  0  0  0  0  0  0  0  0
  -25.8557  -16.9658   22.0784 O   0  0  0  0  0  0  0  0  0  0  0  0
  -28.6517  -27.0601   19.6619 O   0  0  0  0  0  0  0  0  0  0  0  0
  -21.6444  -16.6512   20.0112 O   0  0  0  0  0  0  0  0  0  1  0  0
  -23.4969  -28.6719   20.7726 F   0  0  0  0  0  0  0  0  0  0  0  0
  -28.1558  -29.0441   21.5221 F   0  0  0  0  0  0  0  0  0  0  0  0
  1  2  1  0  0  0  0
  1  5  2  0  0  0  0
  2  6  2  0  0  0  0
  3  8  2  0  0  0  0
  3 16  1  0  0  0  0
  4  9  1  0  0  0  0
  4 16  2  0  0  0  0
  5 18  1  0  0  0  0
  6 20  1  0  0  0  0
  7 10  2  0  0  0  0
  7 19  1  0  0  0  0
  8 23  1  0  0  0  0
  9 23  2  0  0  0  0
 10 24  1  0  0  0  0
 11 12  2  0  0  0  0
 11 25  1  0  0  0  0
 12 26  1  0  0  0  0
 13 21  1  0  0  0  0
 13 24  2  0  0  0  0
 14 26  2  0  0  0  0
 14 27  1  0  0  0  0
 15 22  1  0  0  0  0
 15 61  2  0  0  0  0
 16 28  1  0  0  0  0
 17 28  1  0  0  0  0
 17 30  2  0  0  0  0
 17 32  1  0  0  0  0
 18 20  2  0  0  0  0
 18 37  1  0  0  0  0
 19 21  2  0  0  0  0
 19 38  1  0  0  0  0
 20 46  1  0  0  0  0
 21 39  1  0  0  0  0
 22 29  2  0  0  0  0
 22 67  1  0  0  0  0
 23 80  1  0  0  0  0
 24 81  1  0  0  0  0
 25 27  2  0  0  0  0
 25 80  1  0  0  0  0
 26 82  1  0  0  0  0
 27 83  1  0  0  0  0
 28 62  2  0  0  0  0
 29 55  1  0  0  0  0
 29 63  1  0  0  0  0
 30 64  1  0  0  0  0
 30 68  1  0  0  0  0
 31 61  1  0  0  0  0
 31 63  2  0  0  0  0
 31 70  1  0  0  0  0
 32 69  1  0  0  0  0
 32 75  2  0  0  0  0
 33 47  1  0  0  0  0
 33 71  1  0  0  0  0
 33 76  2  0  0  0  0
 34 57  1  0  0  0  0
 34 65  1  0  0  0  0
 34 77  2  0  0  0  0
 35 58  1  0  0  0  0
 35 72  1  0  0  0  0
 35 78  2  0  0  0  0
 36 66  1  0  0  0  0
 36 73  1  0  0  0  0
 36 79  2  0  0  0  0
 37 40  1  0  0  0  0
 38 47  1  0  0  0  0
 39 65  1  0  0  0  0
 40 42  1  0  0  0  0
 41 43  1  0  0  0  0
 41 44  1  0  0  0  0
 42 46  1  0  0  0  0
 43 48  1  0  0  0  0
 44 66  1  0  0  0  0
 45 48  1  0  0  0  0
 45 66  1  0  0  0  0
 46 71  1  0  0  0  0
 47 65  1  0  0  0  0
 48 64  1  0  0  0  0
 49 58  1  0  0  0  0
 50 59  1  0  0  0  0
 51 60  1  0  0  0  0
 52 60  1  0  0  0  0
 53 60  1  0  0  0  0
 54 74  1  0  0  0  0
 55 73  1  0  0  0  0
 56 59  1  0  0  0  0
 56 81  1  0  0  0  0
 57 60  1  0  0  0  0
 57 72  1  0  0  0  0
 58 74  1  0  0  0  0
 59 70  1  0  0  0  0
 62 64  1  0  0  0  0
M  CHG  1  74   1
M  ISO  4  36 100  56 101  73 100  81 101
M  END
> <Batch ID>
0194

> <Smiles>
CNC(C)C(=O)NC(C(=O)N1Cc2cc([101O:1][101CH2:1]C(C)Nc3ncc(N)c(C[100NH:0][100C:0](=O)N4CCCC(n5nc(-c6ccc(Oc7ccc(F)cc7F)cc6)c(C(N)=O)c5N)C4)n3)ccc2CC1C(=O)NC1CCCc2ccccc21)C(C)(C)C

> <Shape>
0.184

> <Color>
0.089

> <Negative vol penalty>
0.000

$$$$

  -OEChem-04052305333D

 85 93  0     1  0  0  0  0  0999 V2000
  -27.3360  -36.7240   21.1201 C   0  0  0  0  0  0  0  0  0  0  0  0
  -27.7099  -35.4028   21.3441 C   0  0  0  0  0  0  0  0  0  0  0  0
  -26.2891  -12.7042   21.2649 C   0  0  0  0  0  0  0  0  0  0  0  0
  -24.5485  -13.6352   19.8718 C   0  0  0  0  0  0  0  0  0  0  0  0
  -26.0615  -37.1576   21.4828 C   0  0  0  0  0  0  0  0  0  0  0  0
  -26.8098  -34.5148   21.9320 C   0  0  0  0  0  0  0  0  0  0  0  0
  -26.6920  -30.0295   19.5838 C   0  0  0  0  0  0  0  0  0  0  0  0
  -25.4707  -11.6134   21.5584 C   0  0  0  0  0  0  0  0  0  0  0  0
  -23.7302  -12.5444   20.1653 C   0  0  0  0  0  0  0  0  0  0  0  0
  -27.7328  -29.1420   19.8537 C   0  0  0  0  0  0  0  0  0  0  0  0
  -21.3171   -9.8267   20.2599 C   0  0  0  0  0  0  0  0  0  0  0  0
  -20.6292   -9.2285   19.2042 C   0  0  0  0  0  0  0  0  0  0  0  0
  -26.3113  -27.9544   21.3990 C   0  0  0  0  0  0  0  0  0  0  0  0
  -22.7292   -8.7280   18.1195 C   0  0  0  0  0  0  0  0  0  0  0  0
  -24.4726  -23.1668   18.0678 C   0  0  0  0  0  0  0  0  0  0  0  0
  -25.8280  -13.7151   20.4216 C   0  0  0  0  0  0  0  0  0  0  0  0
  -27.5864  -14.9580   19.0538 C   0  0  0  0  0  0  0  0  0  0  0  0
  -25.1420  -36.2719   22.0665 C   0  0  0  0  0  0  0  0  0  0  0  0
  -25.4544  -29.8924   20.2288 C   0  0  0  0  0  0  0  0  0  0  0  0
  -25.5223  -34.9373   22.3040 C   0  0  0  0  0  0  0  0  0  0  0  0
  -25.2556  -28.8399   21.1336 C   0  0  0  0  0  0  0  0  0  0  0  0
  -24.1913  -11.5335   21.0086 C   0  0  0  0  0  0  0  0  0  0  0  0
  -27.5434  -28.1060   20.7636 C   0  0  0  0  0  0  0  0  0  0  0  0
  -22.7111   -9.8756   20.2454 C   0  0  0  0  0  0  0  0  0  0  0  0
  -21.3352   -8.6791   18.1340 C   0  0  0  0  0  0  0  0  0  0  0  0
  -23.4171   -9.3262   19.1752 C   0  0  0  0  0  0  0  0  0  0  0  0
  -26.6726  -14.8424   20.1185 C   0  0  0  0  0  0  0  0  0  0  0  0
  -25.1156  -23.0195   19.2799 C   0  0  0  0  0  0  0  0  0  0  0  0
  -25.1785  -23.8465   17.0962 C   0  0  0  0  0  0  0  0  0  0  0  0
  -28.1333  -16.2088   19.2050 C   0  0  0  0  0  0  0  0  0  0  0  0
  -26.9366  -24.1391   18.5070 C   0  0  0  0  0  0  0  0  0  0  0  0
  -27.9116  -14.0188   18.0205 C   0  0  0  0  0  0  0  0  0  0  0  0
  -23.7401  -31.7021   22.2011 C   0  0  0  0  0  0  0  0  0  0  0  0
  -21.5251  -29.3679   21.7919 C   0  0  0  0  0  0  0  0  0  0  0  0
  -20.8537  -26.1194   20.9897 C   0  0  0  0  0  0  0  0  0  0  0  0
  -26.1685  -21.2306   21.8074 C   0  0  0  0  0  0  0  0  0  0  0  0
  -23.7921  -36.7986   22.4850 C   0  0  0  0  0  0  0  0  0  0  0  0
  -24.3333  -30.8421   19.9066 C   0  0  0  0  0  0  0  0  0  0  0  0
  -23.9395  -28.6371   21.8374 C   0  0  0  0  0  0  0  0  0  0  0  0
  -22.7682  -35.7002   22.7597 C   0  0  0  0  0  0  0  0  0  0  0  0
  -29.1673  -19.4633   22.5561 C   0  0  0  0  0  0  0  0  0  0  0  0
  -23.3806  -34.6042   23.6261 C   0  0  0  0  0  0  0  0  0  0  0  0
  -28.9504  -18.0891   21.9202 C   0  0  0  0  0  0  0  0  0  0  0  0
  -27.8732  -20.0252   23.1406 C   0  0  0  0  0  0  0  0  0  0  0  0
  -26.5213  -18.6983   21.5642 C   0  0  0  0  0  0  0  0  0  0  0  0
  -24.5654  -33.9377   22.9167 C   0  0  1  0  0  0  0  0  0  0  0  0
  -23.2786  -30.9164   21.0064 C   0  0  1  0  0  0  0  0  0  0  0  0
  -27.7864  -18.1154   20.9115 C   0  0  2  0  0  0  0  0  0  0  0  0
  -18.9529  -24.4945   20.7803 C   0  0  0  0  0  0  0  0  0  0  0  0
  -29.4563  -23.0815   20.0911 C   0  0  0  0  0  0  0  0  0  0  0  0
  -21.3969  -29.1300   24.8311 C   0  0  0  0  0  0  0  0  0  0  0  0
  -20.2526  -26.9222   24.5404 C   0  0  0  0  0  0  0  0  0  0  0  0
  -19.1800  -29.0038   23.6804 C   0  0  0  0  0  0  0  0  0  0  0  0
  -21.3853  -25.6902   18.1100 C   0  0  0  0  0  0  0  0  0  0  0  0
  -24.4315  -22.2983   20.3924 C   0  0  0  0  0  0  0  0  0  0  0  0
  -29.4903  -26.9882   19.9785 C   0  0  0  0  0  0  0  0  0  1  0  0
  -21.2021  -28.0670   22.4864 C   0  0  1  0  0  0  0  0  0  0  0  0
  -19.8285  -25.5040   20.0544 C   0  0  2  0  0  0  0  0  0  0  0  0
  -28.9068  -24.5027   19.9942 C   0  0  1  0  0  0  0  0  0  0  0  0
  -30.0159  -25.5604   20.1176 C   0  0  1  0  0  0  0  0  0  0  0  0
  -20.5334  -28.2855   23.8729 C   0  0  0  0  0  0  0  0  0  0  0  0
  -26.6383  -15.9327   20.8892 N   0  0  0  0  0  0  0  0  0  0  0  0
  -26.3522  -23.4947   19.5350 N   0  0  0  0  0  0  0  0  0  0  0  0
  -26.4171  -24.3481   17.2823 N   0  0  0  0  0  0  0  0  0  0  0  0
  -27.5373  -16.7453   20.3083 N   0  0  0  0  0  0  0  0  0  0  0  0
  -22.8761  -29.5955   21.4937 N   0  0  0  0  0  0  0  0  0  0  0  0
  -26.8101  -20.0242   22.1328 N   0  0  0  0  0  0  0  0  0  0  0  0
  -24.5537  -24.0195   15.8369 N   0  0  0  0  0  0  0  0  0  0  0  0
  -29.0610  -16.8911   18.5006 N   0  0  0  0  0  0  0  0  0  0  0  0
  -27.2560  -12.7801   18.0130 N   0  0  0  0  0  0  0  0  0  0  0  0
  -28.2055  -24.6394   18.7331 N   0  0  0  0  0  0  0  0  0  0  0  0
  -24.0951  -33.0063   21.9138 N   0  0  0  0  0  0  0  0  0  0  0  0
  -20.3951  -27.2933   21.5491 N   0  0  0  0  0  0  0  0  0  0  0  0
  -25.1770  -21.1422   20.8380 N   0  0  0  0  0  0  0  0  0  0  0  0
  -20.5088  -24.8098   18.9247 N   0  3  0  0  0  0  0  0  0  0  0  0
  -28.7705  -14.2642   17.1397 O   0  0  0  0  0  0  0  0  0  0  0  0
  -23.7704  -31.1654   23.3023 O   0  0  0  0  0  0  0  0  0  0  0  0
  -20.6115  -30.1500   21.5175 O   0  0  0  0  0  0  0  0  0  0  0  0
  -21.9502  -25.6079   21.2055 O   0  0  0  0  0  0  0  0  0  0  0  0
  -26.4615  -22.3077   22.3374 O   0  0  0  0  0  0  0  0  0  0  0  0
  -31.0127  -25.3312   19.1201 O   0  0  0  0  0  0  0  0  0  0  0  0
  -23.3926  -10.4692   21.2946 O   0  0  0  0  0  0  0  0  0  0  0  0
  -28.5579  -27.2387   21.0293 O   0  0  0  0  0  0  0  0  0  1  0  0
  -20.6745   -8.1032   17.1211 F   0  0  0  0  0  0  0  0  0  0  0  0
  -24.7563   -9.3692   19.1562 F   0  0  0  0  0  0  0  0  0  0  0  0
  1  2  1  0  0  0  0
  1  5  2  0  0  0  0
  2  6  2  0  0  0  0
  3  8  2  0  0  0  0
  3 16  1  0  0  0  0
  4  9  1  0  0  0  0
  4 16  2  0  0  0  0
  5 18  1  0  0  0  0
  6 20  1  0  0  0  0
  7 10  2  0  0  0  0
  7 19  1  0  0  0  0
  8 22  1  0  0  0  0
  9 22  2  0  0  0  0
 10 23  1  0  0  0  0
 11 12  2  0  0  0  0
 11 24  1  0  0  0  0
 12 25  1  0  0  0  0
 13 21  1  0  0  0  0
 13 23  2  0  0  0  0
 14 25  2  0  0  0  0
 14 26  1  0  0  0  0
 15 28  2  0  0  0  0
 15 29  1  0  0  0  0
 16 27  1  0  0  0  0
 17 27  1  0  0  0  0
 17 30  2  0  0  0  0
 17 32  1  0  0  0  0
 18 20  2  0  0  0  0
 18 37  1  0  0  0  0
 19 21  2  0  0  0  0
 19 38  1  0  0  0  0
 20 46  1  0  0  0  0
 21 39  1  0  0  0  0
 22 82  1  0  0  0  0
 23 83  1  0  0  0  0
 24 26  2  0  0  0  0
 24 82  1  0  0  0  0
 25 84  1  0  0  0  0
 26 85  1  0  0  0  0
 27 62  2  0  0  0  0
 28 55  1  0  0  0  0
 28 63  1  0  0  0  0
 29 64  2  0  0  0  0
 29 68  1  0  0  0  0
 30 65  1  0  0  0  0
 30 69  1  0  0  0  0
 31 63  2  0  0  0  0
 31 64  1  0  0  0  0
 31 71  1  0  0  0  0
 32 70  1  0  0  0  0
 32 76  2  0  0  0  0
 33 47  1  0  0  0  0
 33 72  1  0  0  0  0
 33 77  2  0  0  0  0
 34 57  1  0  0  0  0
 34 66  1  0  0  0  0
 34 78  2  0  0  0  0
 35 58  1  0  0  0  0
 35 73  1  0  0  0  0
 35 79  2  0  0  0  0
 36 67  1  0  0  0  0
 36 74  1  0  0  0  0
 36 80  2  0  0  0  0
 37 40  1  0  0  0  0
 38 47  1  0  0  0  0
 39 66  1  0  0  0  0
 40 42  1  0  0  0  0
 41 43  1  0  0  0  0
 41 44  1  0  0  0  0
 42 46  1  0  0  0  0
 43 48  1  0  0  0  0
 44 67  1  0  0  0  0
 45 48  1  0  0  0  0
 45 67  1  0  0  0  0
 46 72  1  0  0  0  0
 47 66  1  0  0  0  0
 48 65  1  0  0  0  0
 49 58  1  0  0  0  0
 50 59  1  0  0  0  0
 51 61  1  0  0  0  0
 52 61  1  0  0  0  0
 53 61  1  0  0  0  0
 54 75  1  0  0  0  0
 55 74  1  0  0  0  0
 56 60  1  0  0  0  0
 56 83  1  0  0  0  0
 57 61  1  0  0  0  0
 57 73  1  0  0  0  0
 58 75  1  0  0  0  0
 59 60  1  0  0  0  0
 59 71  1  0  0  0  0
 60 81  1  0  0  0  0
 62 65  1  0  0  0  0
M  CHG  1  75   1
M  ISO  4  36 100  56 101  74 100  83 101
M  END
> <Batch ID>
0194

> <Smiles>
CNC(C)C(=O)NC(C(=O)N1Cc2cc([101O:1][101CH2:1]C(O)C(C)Nc3nc(N)cc(C[100NH:0][100C:0](=O)N4CCCC(n5nc(-c6ccc(Oc7ccc(F)cc7F)cc6)c(C(N)=O)c5N)C4)n3)ccc2CC1C(=O)NC1CCCc2ccccc21)C(C)(C)C

> <Shape>
0.267

> <Color>
0.062

> <Negative vol penalty>
0.000

$$$$

  -OEChem-04052305333D

 84 92  0     1  0  0  0  0  0999 V2000
  -33.0922  -20.0548   25.6797 C   0  0  0  0  0  0  0  0  0  0  0  0
  -31.9150  -20.6836   25.2868 C   0  0  0  0  0  0  0  0  0  0  0  0
  -28.0468  -25.0538   18.7066 C   0  0  0  0  0  0  0  0  0  0  0  0
  -25.8303  -24.0973   18.8026 C   0  0  0  0  0  0  0  0  0  0  0  0
  -33.5271  -18.9113   25.0109 C   0  0  0  0  0  0  0  0  0  0  0  0
  -31.1727  -20.1698   24.2241 C   0  0  0  0  0  0  0  0  0  0  0  0
  -25.0763  -20.1912   23.6418 C   0  0  0  0  0  0  0  0  0  0  0  0
  -28.6013  -23.7877   18.8940 C   0  0  0  0  0  0  0  0  0  0  0  0
  -26.3848  -22.8312   18.9900 C   0  0  0  0  0  0  0  0  0  0  0  0
  -24.2034  -21.0267   22.9463 C   0  0  0  0  0  0  0  0  0  0  0  0
  -30.6066  -20.7570   18.9864 C   0  0  0  0  0  0  0  0  0  0  0  0
  -31.6815  -20.3932   18.1753 C   0  0  0  0  0  0  0  0  0  0  0  0
  -24.1920  -19.4704   21.1031 C   0  0  0  0  0  0  0  0  0  0  0  0
  -30.2972  -20.6736   16.2151 C   0  0  0  0  0  0  0  0  0  0  0  0
  -17.9254  -26.7231   23.5298 C   0  0  0  0  0  0  0  0  0  0  0  0
  -26.6613  -25.2087   18.6609 C   0  0  0  0  0  0  0  0  0  0  0  0
  -25.7688  -27.1323   17.2429 C   0  0  0  0  0  0  0  0  0  0  0  0
  -32.7847  -18.3778   23.9457 C   0  0  0  0  0  0  0  0  0  0  0  0
  -25.5229  -18.9923   23.0678 C   0  0  0  0  0  0  0  0  0  0  0  0
  -31.5988  -19.0190   23.5395 C   0  0  0  0  0  0  0  0  0  0  0  0
  -25.0685  -18.6202   21.7945 C   0  0  0  0  0  0  0  0  0  0  0  0
  -18.4334  -28.0057   23.4933 C   0  0  0  0  0  0  0  0  0  0  0  0
  -27.7703  -22.6764   19.0357 C   0  0  0  0  0  0  0  0  0  0  0  0
  -23.7634  -20.6678   21.6756 C   0  0  0  0  0  0  0  0  0  0  0  0
  -29.3770  -21.0791   18.4118 C   0  0  0  0  0  0  0  0  0  0  0  0
  -31.5268  -20.3515   16.7896 C   0  0  0  0  0  0  0  0  0  0  0  0
  -29.2223  -21.0374   17.0262 C   0  0  0  0  0  0  0  0  0  0  0  0
  -26.0879  -26.5163   18.4679 C   0  0  0  0  0  0  0  0  0  0  0  0
  -19.6168  -28.1596   22.8004 C   0  0  0  0  0  0  0  0  0  0  0  0
  -25.2553  -28.3558   17.5973 C   0  0  0  0  0  0  0  0  0  0  0  0
  -19.6669  -25.9442   22.2939 C   0  0  0  0  0  0  0  0  0  0  0  0
  -25.9228  -26.6422   15.9043 C   0  0  0  0  0  0  0  0  0  0  0  0
  -28.3579  -17.8296   22.2223 C   0  0  0  0  0  0  0  0  0  0  0  0
  -26.6441  -15.1387   21.6356 C   0  0  0  0  0  0  0  0  0  0  0  0
  -23.6227  -13.7297   20.9056 C   0  0  0  0  0  0  0  0  0  0  0  0
  -22.5830  -30.3735   22.5611 C   0  0  0  0  0  0  0  0  0  0  0  0
  -33.3196  -17.1671   23.2227 C   0  0  0  0  0  0  0  0  0  0  0  0
  -26.4434  -18.0891   23.8420 C   0  0  0  0  0  0  0  0  0  0  0  0
  -25.5024  -17.3339   21.1422 C   0  0  0  0  0  0  0  0  0  0  0  0
  -32.2796  -16.4708   22.3487 C   0  0  0  0  0  0  0  0  0  0  0  0
  -25.5222  -31.6764   21.0314 C   0  0  0  0  0  0  0  0  0  0  0  0
  -31.5146  -17.4921   21.5128 C   0  0  0  0  0  0  0  0  0  0  0  0
  -25.9717  -30.5573   20.0904 C   0  0  0  0  0  0  0  0  0  0  0  0
  -24.9327  -31.1221   22.3265 C   0  0  0  0  0  0  0  0  0  0  0  0
  -24.2942  -29.0244   21.2016 C   0  0  0  0  0  0  0  0  0  0  0  0
  -30.7530  -18.4777   22.4074 C   0  0  1  0  0  0  0  0  0  0  0  0
  -27.2388  -17.1404   22.9505 C   0  0  1  0  0  0  0  0  0  0  0  0
  -24.8444  -29.5333   19.8583 C   0  0  2  0  0  0  0  0  0  0  0  0
  -22.5428  -11.5112   20.4480 C   0  0  0  0  0  0  0  0  0  0  0  0
  -20.0274  -21.2583   20.5717 C   0  0  0  0  0  0  0  0  0  0  0  0
  -27.8463  -15.1348   18.8312 C   0  0  0  0  0  0  0  0  0  0  0  0
  -26.0597  -13.5214   18.1431 C   0  0  0  0  0  0  0  0  0  0  0  0
  -27.7028  -12.8821   19.9079 C   0  0  0  0  0  0  0  0  0  0  0  0
  -21.8282  -13.9899   23.2446 C   0  0  0  0  0  0  0  0  0  0  0  0
  -20.2630  -29.5020   22.6921 C   0  0  0  0  0  0  0  0  0  0  0  0
  -19.8018  -23.5266   21.6916 C   0  0  0  0  0  0  0  0  0  0  0  0
  -22.0135  -22.2757   21.7682 C   0  0  0  0  0  0  0  0  0  1  0  0
  -25.9070  -14.5795   20.4427 C   0  0  1  0  0  0  0  0  0  0  0  0
  -22.8925  -12.5433   21.5087 C   0  0  2  0  0  0  0  0  0  0  0  0
  -20.7412  -22.5581   20.9594 C   0  0  1  0  0  0  0  0  0  0  0  0
  -26.8721  -14.0547   19.3424 C   0  0  0  0  0  0  0  0  0  0  0  0
  -18.5182  -25.6650   22.9389 N   0  0  0  0  0  0  0  0  0  0  0  0
  -25.8012  -27.2853   19.5217 N   0  0  0  0  0  0  0  0  0  0  0  0
  -20.2632  -27.1469   22.1865 N   0  0  0  0  0  0  0  0  0  0  0  0
  -25.2967  -28.3970   18.9599 N   0  0  0  0  0  0  0  0  0  0  0  0
  -26.4079  -16.4876   21.9368 N   0  0  0  0  0  0  0  0  0  0  0  0
  -23.8681  -30.1585   22.0364 N   0  0  0  0  0  0  0  0  0  0  0  0
  -17.7755  -29.0682   24.1241 N   0  0  0  0  0  0  0  0  0  0  0  0
  -24.7769  -29.3899   16.8731 N   0  0  0  0  0  0  0  0  0  0  0  0
  -26.4672  -25.3640   15.7193 N   0  0  0  0  0  0  0  0  0  0  0  0
  -20.3034  -24.8805   21.6747 N   0  0  0  0  0  0  0  0  0  0  0  0
  -29.5481  -17.8644   22.9236 N   0  0  0  0  0  0  0  0  0  0  0  0
  -24.9911  -13.5710   20.9648 N   0  0  0  0  0  0  0  0  0  0  0  0
  -21.6313  -29.4158   22.2328 N   0  0  0  0  0  0  0  0  0  0  0  0
  -21.6306  -12.9902   22.1637 N   0  3  0  0  0  0  0  0  0  0  0  0
  -25.6028  -27.3242   14.9014 O   0  0  0  0  0  0  0  0  0  0  0  0
  -28.1569  -18.2940   21.1063 O   0  0  0  0  0  0  0  0  0  0  0  0
  -27.3959  -14.4039   22.2808 O   0  0  0  0  0  0  0  0  0  0  0  0
  -23.0377  -14.6985   20.4263 O   0  0  0  0  0  0  0  0  0  0  0  0
  -22.3031  -31.3496   23.2652 O   0  0  0  0  0  0  0  0  0  0  0  0
  -28.3111  -21.4408   19.2184 O   0  0  0  0  0  0  0  0  0  0  0  0
  -22.9118  -21.4818   20.9942 O   0  0  0  0  0  0  0  0  0  1  0  0
  -32.5595  -20.0037   16.0108 F   0  0  0  0  0  0  0  0  0  0  0  0
  -28.0438  -21.3468   16.4684 F   0  0  0  0  0  0  0  0  0  0  0  0
  1  2  1  0  0  0  0
  1  5  2  0  0  0  0
  2  6  2  0  0  0  0
  3  8  2  0  0  0  0
  3 16  1  0  0  0  0
  4  9  1  0  0  0  0
  4 16  2  0  0  0  0
  5 18  1  0  0  0  0
  6 20  1  0  0  0  0
  7 10  2  0  0  0  0
  7 19  1  0  0  0  0
  8 23  1  0  0  0  0
  9 23  2  0  0  0  0
 10 24  1  0  0  0  0
 11 12  2  0  0  0  0
 11 25  1  0  0  0  0
 12 26  1  0  0  0  0
 13 21  1  0  0  0  0
 13 24  2  0  0  0  0
 14 26  2  0  0  0  0
 14 27  1  0  0  0  0
 15 22  1  0  0  0  0
 15 62  2  0  0  0  0
 16 28  1  0  0  0  0
 17 28  1  0  0  0  0
 17 30  2  0  0  0  0
 17 32  1  0  0  0  0
 18 20  2  0  0  0  0
 18 37  1  0  0  0  0
 19 21  2  0  0  0  0
 19 38  1  0  0  0  0
 20 46  1  0  0  0  0
 21 39  1  0  0  0  0
 22 29  2  0  0  0  0
 22 68  1  0  0  0  0
 23 81  1  0  0  0  0
 24 82  1  0  0  0  0
 25 27  2  0  0  0  0
 25 81  1  0  0  0  0
 26 83  1  0  0  0  0
 27 84  1  0  0  0  0
 28 63  2  0  0  0  0
 29 55  1  0  0  0  0
 29 64  1  0  0  0  0
 30 65  1  0  0  0  0
 30 69  1  0  0  0  0
 31 62  1  0  0  0  0
 31 64  2  0  0  0  0
 31 71  1  0  0  0  0
 32 70  1  0  0  0  0
 32 76  2  0  0  0  0
 33 47  1  0  0  0  0
 33 72  1  0  0  0  0
 33 77  2  0  0  0  0
 34 58  1  0  0  0  0
 34 66  1  0  0  0  0
 34 78  2  0  0  0  0
 35 59  1  0  0  0  0
 35 73  1  0  0  0  0
 35 79  2  0  0  0  0
 36 67  1  0  0  0  0
 36 74  1  0  0  0  0
 36 80  2  0  0  0  0
 37 40  1  0  0  0  0
 38 47  1  0  0  0  0
 39 66  1  0  0  0  0
 40 42  1  0  0  0  0
 41 43  1  0  0  0  0
 41 44  1  0  0  0  0
 42 46  1  0  0  0  0
 43 48  1  0  0  0  0
 44 67  1  0  0  0  0
 45 48  1  0  0  0  0
 45 67  1  0  0  0  0
 46 72  1  0  0  0  0
 47 66  1  0  0  0  0
 48 65  1  0  0  0  0
 49 59  1  0  0  0  0
 50 60  1  0  0  0  0
 51 61  1  0  0  0  0
 52 61  1  0  0  0  0
 53 61  1  0  0  0  0
 54 75  1  0  0  0  0
 55 74  1  0  0  0  0
 56 60  1  0  0  0  0
 56 71  1  0  0  0  0
 57 60  1  0  0  0  0
 57 82  1  0  0  0  0
 58 61  1  0  0  0  0
 58 73  1  0  0  0  0
 59 75  1  0  0  0  0
 63 65  1  0  0  0  0
M  CHG  1  75   1
M  ISO  4  36 100  57 101  74 100  82 101
M  END
> <Batch ID>
0194

> <Smiles>
CNC(C)C(=O)NC(C(=O)N1Cc2cc([101O:1][101CH2:1]C(C)CNc3ncc(N)c(C[100NH:0][100C:0](=O)N4CCCC(n5nc(-c6ccc(Oc7ccc(F)cc7F)cc6)c(C(N)=O)c5N)C4)n3)ccc2CC1C(=O)NC1CCCc2ccccc21)C(C)(C)C

> <Shape>
0.209

> <Color>
0.072

> <Negative vol penalty>
0.000

$$$$

  -OEChem-04052305333D

 85 93  0     1  0  0  0  0  0999 V2000
  -26.8020  -10.7503   22.7356 C   0  0  0  0  0  0  0  0  0  0  0  0
  -27.7152  -11.7999   22.7426 C   0  0  0  0  0  0  0  0  0  0  0  0
  -19.5681  -28.5596   23.9291 C   0  0  0  0  0  0  0  0  0  0  0  0
  -20.4300  -27.4412   21.9687 C   0  0  0  0  0  0  0  0  0  0  0  0
  -25.7170  -10.7776   21.8605 C   0  0  0  0  0  0  0  0  0  0  0  0
  -27.5444  -12.8769   21.8735 C   0  0  0  0  0  0  0  0  0  0  0  0
  -28.6422  -19.9436   21.4578 C   0  0  0  0  0  0  0  0  0  0  0  0
  -18.2708  -28.4282   23.4338 C   0  0  0  0  0  0  0  0  0  0  0  0
  -19.1327  -27.3098   21.4733 C   0  0  0  0  0  0  0  0  0  0  0  0
  -29.2347  -20.8946   20.6281 C   0  0  0  0  0  0  0  0  0  0  0  0
  -16.0159  -26.3585   19.8612 C   0  0  0  0  0  0  0  0  0  0  0  0
  -15.6471  -25.1242   19.3264 C   0  0  0  0  0  0  0  0  0  0  0  0
  -30.4294  -27.2559   19.9079 C   0  0  0  0  0  0  0  0  0  0  0  0
  -27.2793  -20.8717   19.2156 C   0  0  0  0  0  0  0  0  0  0  0  0
  -16.0907  -24.0696   21.4544 C   0  0  0  0  0  0  0  0  0  0  0  0
  -30.8787  -28.5103   20.2879 C   0  0  0  0  0  0  0  0  0  0  0  0
  -20.6477  -28.0662   23.1965 C   0  0  0  0  0  0  0  0  0  0  0  0
  -22.6806  -27.2935   24.5300 C   0  0  0  0  0  0  0  0  0  0  0  0
  -25.5275  -11.8601   20.9870 C   0  0  0  0  0  0  0  0  0  0  0  0
  -27.3661  -19.4407   21.1661 C   0  0  0  0  0  0  0  0  0  0  0  0
  -26.4566  -12.9181   20.9849 C   0  0  0  0  0  0  0  0  0  0  0  0
  -26.6717  -19.9163   20.0446 C   0  0  0  0  0  0  0  0  0  0  0  0
  -28.3503  -28.2923   19.2852 C   0  0  0  0  0  0  0  0  0  0  0  0
  -29.1399  -27.1534   19.3980 C   0  0  0  0  0  0  0  0  0  0  0  0
  -18.0531  -27.8033   22.2059 C   0  0  0  0  0  0  0  0  0  0  0  0
  -28.5544  -21.3567   19.5052 C   0  0  0  0  0  0  0  0  0  0  0  0
  -16.4222  -26.4484   21.1926 C   0  0  0  0  0  0  0  0  0  0  0  0
  -15.6845  -23.9797   20.1230 C   0  0  0  0  0  0  0  0  0  0  0  0
  -16.4596  -25.3039   21.9892 C   0  0  0  0  0  0  0  0  0  0  0  0
  -21.9881  -28.2021   23.7075 C   0  0  0  0  0  0  0  0  0  0  0  0
  -28.8926  -29.5003   19.6933 C   0  0  0  0  0  0  0  0  0  0  0  0
  -23.9060  -27.8795   24.7334 C   0  0  0  0  0  0  0  0  0  0  0  0
  -22.2542  -26.0324   25.0626 C   0  0  0  0  0  0  0  0  0  0  0  0
  -26.1902  -16.5686   20.4791 C   0  0  0  0  0  0  0  0  0  0  0  0
  -23.3476  -18.1225   20.6449 C   0  0  0  0  0  0  0  0  0  0  0  0
  -21.6400  -21.0696   20.4316 C   0  0  0  0  0  0  0  0  0  0  0  0
  -29.3166  -24.6653   19.0603 C   0  0  0  0  0  0  0  0  0  0  0  0
  -27.0978  -31.8523   21.5902 C   0  0  0  0  0  0  0  0  0  0  0  0
  -24.3658  -11.8226   20.0260 C   0  0  0  0  0  0  0  0  0  0  0  0
  -26.7298  -18.4349   22.0858 C   0  0  0  0  0  0  0  0  0  0  0  0
  -25.2913  -19.4233   19.6987 C   0  0  0  0  0  0  0  0  0  0  0  0
  -24.0497  -13.1783   19.3994 C   0  0  0  0  0  0  0  0  0  0  0  0
  -26.0129  -32.1687   24.9665 C   0  0  0  0  0  0  0  0  0  0  0  0
  -25.3282  -13.8519   18.9111 C   0  0  0  0  0  0  0  0  0  0  0  0
  -24.9209  -31.1060   25.1009 C   0  0  0  0  0  0  0  0  0  0  0  0
  -25.9976  -32.8223   23.5865 C   0  0  0  0  0  0  0  0  0  0  0  0
  -24.9699  -30.8169   22.5884 C   0  0  0  0  0  0  0  0  0  0  0  0
  -26.2917  -14.1157   20.0745 C   0  0  1  0  0  0  0  0  0  0  0  0
  -25.6381  -17.6124   21.4083 C   0  0  1  0  0  0  0  0  0  0  0  0
  -24.9815  -30.0903   23.9442 C   0  0  2  0  0  0  0  0  0  0  0  0
  -26.9621  -28.2173   18.7421 C   0  0  0  0  0  0  0  0  0  0  0  0
  -29.2640  -23.7873   16.1253 C   0  0  0  0  0  0  0  0  0  0  0  0
  -19.3210  -22.0176   20.5764 C   0  0  0  0  0  0  0  0  0  0  0  0
  -22.7288  -17.0269   17.8652 C   0  0  0  0  0  0  0  0  0  0  0  0
  -20.9012  -18.7278   17.6778 C   0  0  0  0  0  0  0  0  0  0  0  0
  -20.8005  -16.9823   19.4571 C   0  0  0  0  0  0  0  0  0  0  0  0
  -22.3616  -22.7898   22.7293 C   0  0  0  0  0  0  0  0  0  0  0  0
  -28.0920  -30.7582   19.5968 C   0  0  0  0  0  0  0  0  0  0  0  0
  -28.0639  -23.7079   17.0624 C   0  0  0  0  0  0  0  0  0  0  0  0
  -22.4760  -18.8647   19.6609 C   0  0  1  0  0  0  0  0  0  0  0  0
  -20.5974  -21.6976   21.3388 C   0  0  2  0  0  0  0  0  0  0  0  0
  -28.4441  -23.5253   18.5352 C   0  0  1  0  0  0  0  0  0  1  0  0
  -21.7534  -17.9085   18.6704 C   0  0  0  0  0  0  0  0  0  0  0  0
  -30.1409  -29.6392   20.1934 N   0  0  0  0  0  0  0  0  0  0  0  0
  -22.7133  -29.2833   23.4089 N   0  0  0  0  0  0  0  0  0  0  0  0
  -23.8741  -29.0578   24.0473 N   0  0  0  0  0  0  0  0  0  0  0  0
  -24.7142  -18.4354   20.6252 N   0  0  0  0  0  0  0  0  0  0  0  0
  -26.0588  -31.8049   22.5343 N   0  0  0  0  0  0  0  0  0  0  0  0
  -24.9968  -27.4967   25.4305 N   0  0  0  0  0  0  0  0  0  0  0  0
  -20.9642  -25.5790   24.7550 N   0  0  0  0  0  0  0  0  0  0  0  0
  -28.6523  -25.8855   19.0015 N   0  0  0  0  0  0  0  0  0  0  0  0
  -25.8649  -15.2727   20.8318 N   0  0  0  0  0  0  0  0  0  0  0  0
  -21.5758  -19.6925   20.4564 N   0  0  0  0  0  0  0  0  0  0  0  0
  -27.0854  -30.8470   20.6311 N   0  0  0  0  0  0  0  0  0  0  0  0
  -21.1200  -22.9610   21.9317 N   0  3  0  0  0  0  0  0  0  0  0  0
  -22.9894  -25.3362   25.8031 O   0  0  0  0  0  0  0  0  0  0  0  0
  -26.8603  -16.9134   19.5128 O   0  0  0  0  0  0  0  0  0  0  0  0
  -22.8337  -17.3006   21.4079 O   0  0  0  0  0  0  0  0  0  0  0  0
  -22.4299  -21.7343   19.7647 O   0  0  0  0  0  0  0  0  0  0  0  0
  -30.4491  -24.4544   19.4850 O   0  0  0  0  0  0  0  0  0  0  0  0
  -27.9748  -32.7228   21.6044 O   0  0  0  0  0  0  0  0  0  0  0  0
  -16.7873  -27.6746   21.7223 O   0  0  0  0  0  0  0  0  0  0  0  0
  -29.1307  -22.2844   18.6933 O   0  0  0  0  0  0  0  0  0  1  0  0
  -15.3288  -22.7947   19.6097 F   0  0  0  0  0  0  0  0  0  0  0  0
  -16.8479  -25.3842   23.2693 F   0  0  0  0  0  0  0  0  0  0  0  0
  1  2  1  0  0  0  0
  1  5  2  0  0  0  0
  2  6  2  0  0  0  0
  3  8  2  0  0  0  0
  3 17  1  0  0  0  0
  4  9  1  0  0  0  0
  4 17  2  0  0  0  0
  5 19  1  0  0  0  0
  6 21  1  0  0  0  0
  7 10  2  0  0  0  0
  7 20  1  0  0  0  0
  8 25  1  0  0  0  0
  9 25  2  0  0  0  0
 10 26  1  0  0  0  0
 11 12  2  0  0  0  0
 11 27  1  0  0  0  0
 12 28  1  0  0  0  0
 13 16  2  0  0  0  0
 13 24  1  0  0  0  0
 14 22  1  0  0  0  0
 14 26  2  0  0  0  0
 15 28  2  0  0  0  0
 15 29  1  0  0  0  0
 16 64  1  0  0  0  0
 17 30  1  0  0  0  0
 18 30  1  0  0  0  0
 18 32  2  0  0  0  0
 18 33  1  0  0  0  0
 19 21  2  0  0  0  0
 19 39  1  0  0  0  0
 20 22  2  0  0  0  0
 20 40  1  0  0  0  0
 21 48  1  0  0  0  0
 22 41  1  0  0  0  0
 23 24  2  0  0  0  0
 23 31  1  0  0  0  0
 23 51  1  0  0  0  0
 24 71  1  0  0  0  0
 25 82  1  0  0  0  0
 26 83  1  0  0  0  0
 27 29  2  0  0  0  0
 27 82  1  0  0  0  0
 28 84  1  0  0  0  0
 29 85  1  0  0  0  0
 30 65  2  0  0  0  0
 31 58  1  0  0  0  0
 31 64  2  0  0  0  0
 32 66  1  0  0  0  0
 32 69  1  0  0  0  0
 33 70  1  0  0  0  0
 33 76  2  0  0  0  0
 34 49  1  0  0  0  0
 34 72  1  0  0  0  0
 34 77  2  0  0  0  0
 35 60  1  0  0  0  0
 35 67  1  0  0  0  0
 35 78  2  0  0  0  0
 36 61  1  0  0  0  0
 36 73  1  0  0  0  0
 36 79  2  0  0  0  0
 37 62  1  0  0  0  0
 37 71  1  0  0  0  0
 37 80  2  0  0  0  0
 38 68  1  0  0  0  0
 38 74  1  0  0  0  0
 38 81  2  0  0  0  0
 39 42  1  0  0  0  0
 40 49  1  0  0  0  0
 41 67  1  0  0  0  0
 42 44  1  0  0  0  0
 43 45  1  0  0  0  0
 43 46  1  0  0  0  0
 44 48  1  0  0  0  0
 45 50  1  0  0  0  0
 46 68  1  0  0  0  0
 47 50  1  0  0  0  0
 47 68  1  0  0  0  0
 48 72  1  0  0  0  0
 49 67  1  0  0  0  0
 50 66  1  0  0  0  0
 52 59  1  0  0  0  0
 53 61  1  0  0  0  0
 54 63  1  0  0  0  0
 55 63  1  0  0  0  0
 56 63  1  0  0  0  0
 57 75  1  0  0  0  0
 58 74  1  0  0  0  0
 59 62  1  0  0  0  0
 60 63  1  0  0  0  0
 60 73  1  0  0  0  0
 61 75  1  0  0  0  0
 62 83  1  0  0  0  0
 65 66  1  0  0  0  0
M  CHG  1  75   1
M  ISO  4  38 100  62 101  74 100  83 101
M  END
> <Batch ID>
0194

> <Smiles>
CC[101CH:1](C(=O)Nc1ccnc(C[100NH:0][100C:0](=O)N2CCCC(n3nc(-c4ccc(Oc5ccc(F)cc5F)cc4)c(C(N)=O)c3N)C2)c1C)[101O:1]c1ccc2c(c1)CN(C(=O)C(NC(=O)C(C)NC)C(C)(C)C)C(C(=O)NC1CCCc3ccccc31)C2

> <Shape>
0.221

> <Color>
0.069

> <Negative vol penalty>
0.000

$$$$

  -OEChem-04052305333D

 89 97  0     1  0  0  0  0  0999 V2000
  -22.6118  -27.1292   17.4022 C   0  0  0  0  0  0  0  0  0  0  0  0
  -23.3084  -26.4946   18.4257 C   0  0  0  0  0  0  0  0  0  0  0  0
  -22.9908   -9.9178   19.9687 C   0  0  0  0  0  0  0  0  0  0  0  0
  -23.7292   -9.9310   22.2690 C   0  0  0  0  0  0  0  0  0  0  0  0
  -23.2735  -27.4887   16.2288 C   0  0  0  0  0  0  0  0  0  0  0  0
  -24.6669  -26.2181   18.2758 C   0  0  0  0  0  0  0  0  0  0  0  0
  -27.3547  -27.3886   22.4051 C   0  0  0  0  0  0  0  0  0  0  0  0
  -22.2196   -8.7836   20.2228 C   0  0  0  0  0  0  0  0  0  0  0  0
  -22.9581   -8.7969   22.5231 C   0  0  0  0  0  0  0  0  0  0  0  0
  -27.2986  -26.4967   23.4752 C   0  0  0  0  0  0  0  0  0  0  0  0
  -23.1817   -5.4640   22.0009 C   0  0  0  0  0  0  0  0  0  0  0  0
  -23.7679   -4.4327   22.7347 C   0  0  0  0  0  0  0  0  0  0  0  0
  -29.4233  -25.5704   22.8067 C   0  0  0  0  0  0  0  0  0  0  0  0
  -31.6594  -19.2418   22.8338 C   0  0  0  0  0  0  0  0  0  0  0  0
  -29.8464  -17.6573   22.7590 C   0  0  0  0  0  0  0  0  0  0  0  0
  -22.0549   -4.6602   24.4231 C   0  0  0  0  0  0  0  0  0  0  0  0
  -23.7456  -10.4915   20.9918 C   0  0  0  0  0  0  0  0  0  0  0  0
  -24.1435  -13.0073   20.8505 C   0  0  0  0  0  0  0  0  0  0  0  0
  -24.6430  -27.2252   16.0684 C   0  0  0  0  0  0  0  0  0  0  0  0
  -28.4421  -27.3707   21.5198 C   0  0  0  0  0  0  0  0  0  0  0  0
  -25.3472  -26.5732   17.0986 C   0  0  0  0  0  0  0  0  0  0  0  0
  -29.4920  -26.4648   21.7276 C   0  0  0  0  0  0  0  0  0  0  0  0
  -30.3689  -18.8700   23.1982 C   0  0  0  0  0  0  0  0  0  0  0  0
  -22.2033   -8.2231   21.5000 C   0  0  0  0  0  0  0  0  0  0  0  0
  -28.3316  -25.5855   23.6745 C   0  0  0  0  0  0  0  0  0  0  0  0
  -22.0320   -6.0934   22.4783 C   0  0  0  0  0  0  0  0  0  0  0  0
  -23.2046   -4.0308   23.9458 C   0  0  0  0  0  0  0  0  0  0  0  0
  -21.4687   -5.6915   23.6894 C   0  0  0  0  0  0  0  0  0  0  0  0
  -24.5429  -11.6628   20.7298 C   0  0  0  0  0  0  0  0  0  0  0  0
  -32.4008  -18.3848   22.0329 C   0  0  0  0  0  0  0  0  0  0  0  0
  -25.2551  -13.7292   20.4904 C   0  0  0  0  0  0  0  0  0  0  0  0
  -30.6336  -16.8404   21.9599 C   0  0  0  0  0  0  0  0  0  0  0  0
  -22.8808  -13.5547   21.2523 C   0  0  0  0  0  0  0  0  0  0  0  0
  -33.7434  -18.6877   21.6084 C   0  0  0  0  0  0  0  0  0  0  0  0
  -28.7932  -26.8204   18.4090 C   0  0  0  0  0  0  0  0  0  0  0  0
  -31.8561  -27.7146   18.9932 C   0  0  0  0  0  0  0  0  0  0  0  0
  -34.3952  -28.0542   21.2480 C   0  0  0  0  0  0  0  0  0  0  0  0
  -30.7409  -14.6576   20.7069 C   0  0  0  0  0  0  0  0  0  0  0  0
  -25.3044  -27.5900   14.7630 C   0  0  0  0  0  0  0  0  0  0  0  0
  -28.5004  -28.3572   20.3859 C   0  0  0  0  0  0  0  0  0  0  0  0
  -30.6913  -26.4186   20.8177 C   0  0  0  0  0  0  0  0  0  0  0  0
  -26.8292  -27.5982   14.8341 C   0  0  0  0  0  0  0  0  0  0  0  0
  -29.5963  -12.2451   18.3517 C   0  0  0  0  0  0  0  0  0  0  0  0
  -27.3375  -26.3446   15.5390 C   0  0  0  0  0  0  0  0  0  0  0  0
  -28.1467  -11.9892   18.7704 C   0  0  0  0  0  0  0  0  0  0  0  0
  -30.5049  -12.4659   19.5598 C   0  0  0  0  0  0  0  0  0  0  0  0
  -28.6014  -13.2453   20.9157 C   0  0  0  0  0  0  0  0  0  0  0  0
  -26.8271  -26.2786   16.9835 C   0  0  1  0  0  0  0  0  0  0  0  0
  -29.4089  -27.9051   19.2467 C   0  0  1  0  0  0  0  0  0  0  0  0
  -27.6361  -13.0815   19.7304 C   0  0  2  0  0  0  0  0  0  0  0  0
  -35.4783  -21.9222   20.9102 C   0  0  0  0  0  0  0  0  0  0  0  0
  -36.7923  -28.7761   21.4214 C   0  0  0  0  0  0  0  0  0  0  0  0
  -32.7358  -25.0965   17.6963 C   0  0  0  0  0  0  0  0  0  0  0  0
  -34.9920  -25.4229   18.7314 C   0  0  0  0  0  0  0  0  0  0  0  0
  -34.1258  -27.0831   17.0833 C   0  0  0  0  0  0  0  0  0  0  0  0
  -33.7278  -30.2132   23.1590 C   0  0  0  0  0  0  0  0  0  0  0  0
  -27.7311  -20.4840   25.3634 C   0  0  0  0  0  0  0  0  0  0  0  0
  -27.0893  -22.8948   25.7380 C   0  0  0  0  0  0  0  0  0  0  0  0
  -28.2615  -19.4004   24.4242 C   0  0  0  0  0  0  0  0  0  0  0  0
  -35.4509  -20.4120   21.0074 C   0  0  0  0  0  0  0  0  0  0  0  0
  -26.9849  -24.3000   25.1542 C   0  0  0  0  0  0  0  0  0  1  0  0
  -33.1200  -26.9970   19.4012 C   0  0  1  0  0  0  0  0  0  0  0  0
  -35.3387  -29.2080   21.5364 C   0  0  2  0  0  0  0  0  0  0  0  0
  -27.6218  -21.8771   24.7242 C   0  0  2  0  0  0  0  0  0  0  0  0
  -33.7200  -26.1492   18.2442 C   0  0  0  0  0  0  0  0  0  0  0  0
  -25.8092  -11.5353   20.3246 N   0  0  0  0  0  0  0  0  0  0  0  0
  -26.2151  -12.8091   20.1873 N   0  0  0  0  0  0  0  0  0  0  0  0
  -31.8731  -17.2229   21.6239 N   0  3  0  0  0  0  0  0  0  0  0  0
  -30.6991  -27.3991   19.7195 N   0  0  0  0  0  0  0  0  0  0  0  0
  -29.9604  -13.5173   20.4217 N   0  0  0  0  0  0  0  0  0  0  0  0
  -25.4952  -15.0550   20.4064 N   0  0  0  0  0  0  0  0  0  0  0  0
  -21.8462  -12.6711   21.5887 N   0  0  0  0  0  0  0  0  0  0  0  0
  -34.6137  -17.6790   21.3869 N   0  0  0  0  0  0  0  0  0  0  0  0
  -29.6060  -19.7057   23.9991 N   0  0  0  0  0  0  0  0  0  0  0  0
  -30.1063  -15.6046   21.5101 N   0  0  0  0  0  0  0  0  0  0  0  0
  -27.5888  -27.1719   17.8299 N   0  0  0  0  0  0  0  0  0  0  0  0
  -34.0205  -28.0202   19.9215 N   0  0  0  0  0  0  0  0  0  0  0  0
  -34.1191  -19.9793   21.4383 N   0  3  0  0  0  0  0  0  0  0  0  0
  -35.1113  -29.7313   22.9131 N   0  3  0  0  0  0  0  0  0  0  0  0
  -22.6709  -14.7907   21.2954 O   0  0  0  0  0  0  0  0  0  0  0  0
  -29.3690  -25.7447   18.2950 O   0  0  0  0  0  0  0  0  0  0  0  0
  -31.8955  -28.5305   18.0688 O   0  0  0  0  0  0  0  0  0  0  0  0
  -34.0303  -27.2602   22.1123 O   0  0  0  0  0  0  0  0  0  0  0  0
  -31.8777  -14.7971   20.2484 O   0  0  0  0  0  0  0  0  0  0  0  0
  -26.7265  -21.8334   23.6164 O   0  0  0  0  0  0  0  0  0  0  0  0
  -21.4507   -7.1165   21.7483 O   0  0  0  0  0  0  0  0  0  0  0  0
  -28.2791  -24.7135   24.7179 O   0  0  0  0  0  0  0  0  0  1  0  0
  -23.7668   -3.0394   24.6495 F   0  0  0  0  0  0  0  0  0  0  0  0
  -20.3636   -6.2916   24.1526 F   0  0  0  0  0  0  0  0  0  0  0  0
  1  2  1  0  0  0  0
  1  5  2  0  0  0  0
  2  6  2  0  0  0  0
  3  8  2  0  0  0  0
  3 17  1  0  0  0  0
  4  9  1  0  0  0  0
  4 17  2  0  0  0  0
  5 19  1  0  0  0  0
  6 21  1  0  0  0  0
  7 10  2  0  0  0  0
  7 20  1  0  0  0  0
  8 24  1  0  0  0  0
  9 24  2  0  0  0  0
 10 25  1  0  0  0  0
 11 12  2  0  0  0  0
 11 26  1  0  0  0  0
 12 27  1  0  0  0  0
 13 22  1  0  0  0  0
 13 25  2  0  0  0  0
 14 23  2  0  0  0  0
 14 30  1  0  0  0  0
 15 23  1  0  0  0  0
 15 32  2  0  0  0  0
 16 27  2  0  0  0  0
 16 28  1  0  0  0  0
 17 29  1  0  0  0  0
 18 29  1  0  0  0  0
 18 31  2  0  0  0  0
 18 33  1  0  0  0  0
 19 21  2  0  0  0  0
 19 39  1  0  0  0  0
 20 22  2  0  0  0  0
 20 40  1  0  0  0  0
 21 48  1  0  0  0  0
 22 41  1  0  0  0  0
 23 74  1  0  0  0  0
 24 86  1  0  0  0  0
 25 87  1  0  0  0  0
 26 28  2  0  0  0  0
 26 86  1  0  0  0  0
 27 88  1  0  0  0  0
 28 89  1  0  0  0  0
 29 66  2  0  0  0  0
 30 34  1  0  0  0  0
 30 68  2  0  0  0  0
 31 67  1  0  0  0  0
 31 71  1  0  0  0  0
 32 68  1  0  0  0  0
 32 75  1  0  0  0  0
 33 72  1  0  0  0  0
 33 80  2  0  0  0  0
 34 73  1  0  0  0  0
 34 78  2  0  0  0  0
 35 49  1  0  0  0  0
 35 76  1  0  0  0  0
 35 81  2  0  0  0  0
 36 62  1  0  0  0  0
 36 69  1  0  0  0  0
 36 82  2  0  0  0  0
 37 63  1  0  0  0  0
 37 77  1  0  0  0  0
 37 83  2  0  0  0  0
 38 70  1  0  0  0  0
 38 75  1  0  0  0  0
 38 84  2  0  0  0  0
 39 42  1  0  0  0  0
 40 49  1  0  0  0  0
 41 69  1  0  0  0  0
 42 44  1  0  0  0  0
 43 45  1  0  0  0  0
 43 46  1  0  0  0  0
 44 48  1  0  0  0  0
 45 50  1  0  0  0  0
 46 70  1  0  0  0  0
 47 50  1  0  0  0  0
 47 70  1  0  0  0  0
 48 76  1  0  0  0  0
 49 69  1  0  0  0  0
 50 67  1  0  0  0  0
 51 60  1  0  0  0  0
 52 63  1  0  0  0  0
 53 65  1  0  0  0  0
 54 65  1  0  0  0  0
 55 65  1  0  0  0  0
 56 79  1  0  0  0  0
 57 59  1  0  0  0  0
 57 64  1  0  0  0  0
 58 61  1  0  0  0  0
 58 64  1  0  0  0  0
 59 74  1  0  0  0  0
 60 78  1  0  0  0  0
 61 87  1  0  0  0  0
 62 65  1  0  0  0  0
 62 77  1  0  0  0  0
 63 79  1  0  0  0  0
 64 85  1  0  0  0  0
 66 67  1  0  0  0  0
M  CHG  3  68   1  78   1  79   1
M  ISO  4  38 100  61 101  75 100  87 101
M  END
> <Batch ID>
0194

> <Smiles>
CCN=C(N)c1cc(NCCC(O)C[101CH2:1][101O:1]c2ccc3c(c2)CN(C(=O)C(NC(=O)C(C)NC)C(C)(C)C)C(C(=O)NC2CCCc4ccccc42)C3)cc([100NH:0][100C:0](=O)N2CCCC(n3nc(-c4ccc(Oc5ccc(F)cc5F)cc4)c(C(N)=O)c3N)C2)n1

> <Shape>
0.231

> <Color>
0.179

> <Negative vol penalty>
0.000

$$$$

  -OEChem-04052305333D

 86 94  0     1  0  0  0  0  0999 V2000
  -22.9410  -23.5989   21.0769 C   0  0  0  0  0  0  0  0  0  0  0  0
  -23.8567  -23.0408   20.1907 C   0  0  0  0  0  0  0  0  0  0  0  0
  -26.3125  -28.2813   19.0797 C   0  0  0  0  0  0  0  0  0  0  0  0
  -26.0286  -27.0676   21.1493 C   0  0  0  0  0  0  0  0  0  0  0  0
  -22.6538  -22.9537   22.2791 C   0  0  0  0  0  0  0  0  0  0  0  0
  -24.4867  -21.8376   20.5067 C   0  0  0  0  0  0  0  0  0  0  0  0
  -27.0833  -15.9170   17.4213 C   0  0  0  0  0  0  0  0  0  0  0  0
  -25.2566  -29.1233   19.4286 C   0  0  0  0  0  0  0  0  0  0  0  0
  -24.9727  -27.9096   21.4983 C   0  0  0  0  0  0  0  0  0  0  0  0
  -28.2445  -15.1466   17.3761 C   0  0  0  0  0  0  0  0  0  0  0  0
  -24.5819  -31.0239   22.7508 C   0  0  0  0  0  0  0  0  0  0  0  0
  -24.5520  -31.5168   24.0553 C   0  0  0  0  0  0  0  0  0  0  0  0
  -27.6110  -14.0811   19.4455 C   0  0  0  0  0  0  0  0  0  0  0  0
  -22.4085  -30.4588   24.4060 C   0  0  0  0  0  0  0  0  0  0  0  0
  -26.6985  -27.2534   19.9400 C   0  0  0  0  0  0  0  0  0  0  0  0
  -29.1536  -26.5639   19.8735 C   0  0  0  0  0  0  0  0  0  0  0  0
  -23.2734  -21.7371   22.6056 C   0  0  0  0  0  0  0  0  0  0  0  0
  -26.1812  -15.7827   18.4864 C   0  0  0  0  0  0  0  0  0  0  0  0
  -24.2086  -21.1762   21.7149 C   0  0  0  0  0  0  0  0  0  0  0  0
  -26.4379  -14.8490   19.5006 C   0  0  0  0  0  0  0  0  0  0  0  0
  -24.5868  -28.9375   20.6379 C   0  0  0  0  0  0  0  0  0  0  0  0
  -28.5100  -14.2306   18.3897 C   0  0  0  0  0  0  0  0  0  0  0  0
  -23.5250  -30.2484   22.2739 C   0  0  0  0  0  0  0  0  0  0  0  0
  -23.4653  -31.2343   24.8829 C   0  0  0  0  0  0  0  0  0  0  0  0
  -22.4383  -29.9658   23.1015 C   0  0  0  0  0  0  0  0  0  0  0  0
  -27.7888  -26.3829   19.5799 C   0  0  0  0  0  0  0  0  0  0  0  0
  -31.1122  -17.7052   22.2851 C   0  0  0  0  0  0  0  0  0  0  0  0
  -30.9471  -16.9896   21.1177 C   0  0  0  0  0  0  0  0  0  0  0  0
  -29.7722  -25.4705   19.3181 C   0  0  0  0  0  0  0  0  0  0  0  0
  -30.0262  -18.8756   20.4814 C   0  0  0  0  0  0  0  0  0  0  0  0
  -29.8042  -27.6253   20.5847 C   0  0  0  0  0  0  0  0  0  0  0  0
  -25.0920  -17.7175   20.7610 C   0  0  0  0  0  0  0  0  0  0  0  0
  -23.1539  -15.2035   21.4289 C   0  0  0  0  0  0  0  0  0  0  0  0
  -22.6098  -11.8388   21.2563 C   0  0  0  0  0  0  0  0  0  0  0  0
  -28.9301  -19.8270   18.4224 C   0  0  0  0  0  0  0  0  0  0  0  0
  -22.9663  -21.1007   23.9380 C   0  0  0  0  0  0  0  0  0  0  0  0
  -24.9199  -16.6019   18.5068 C   0  0  0  0  0  0  0  0  0  0  0  0
  -25.4913  -14.6522   20.6555 C   0  0  0  0  0  0  0  0  0  0  0  0
  -23.3967  -19.6389   24.0285 C   0  0  0  0  0  0  0  0  0  0  0  0
  -28.5781  -22.2059   15.7967 C   0  0  0  0  0  0  0  0  0  0  0  0
  -24.8135  -19.4653   23.4905 C   0  0  0  0  0  0  0  0  0  0  0  0
  -28.4721  -23.5441   16.5317 C   0  0  0  0  0  0  0  0  0  0  0  0
  -27.8735  -21.0838   16.5571 C   0  0  0  0  0  0  0  0  0  0  0  0
  -28.1757  -22.2708   18.6946 C   0  0  0  0  0  0  0  0  0  0  0  0
  -24.8940  -19.8598   22.0108 C   0  0  1  0  0  0  0  0  0  0  0  0
  -24.3259  -16.7498   19.9041 C   0  0  1  0  0  0  0  0  0  0  0  0
  -28.9260  -23.4185   17.9993 C   0  0  2  0  0  0  0  0  0  0  0  0
  -30.8148  -16.4168   24.4154 C   0  0  0  0  0  0  0  0  0  0  0  0
  -20.9548  -10.0743   21.9230 C   0  0  0  0  0  0  0  0  0  0  0  0
  -34.2319  -15.0933   20.3654 C   0  0  0  0  0  0  0  0  0  0  0  0
  -33.6772  -15.2013   17.9233 C   0  0  0  0  0  0  0  0  0  0  0  0
  -30.1599  -11.5621   19.6612 C   0  0  0  0  0  0  0  0  0  0  0  0
  -24.1463  -15.3647   24.3098 C   0  0  0  0  0  0  0  0  0  0  0  0
  -23.2293  -13.0647   24.6808 C   0  0  0  0  0  0  0  0  0  0  0  0
  -21.6940  -14.9347   24.0737 C   0  0  0  0  0  0  0  0  0  0  0  0
  -22.1233  -11.0670   18.4409 C   0  0  0  0  0  0  0  0  0  0  0  0
  -31.7266  -17.3113   23.5697 C   0  0  0  0  0  0  0  0  0  0  0  0
  -31.6522  -13.5920   19.7192 C   0  0  0  0  0  0  0  0  0  0  0  0
  -23.2483  -13.9877   22.3189 C   0  0  1  0  0  0  0  0  0  0  0  0
  -21.3944  -11.0356   20.8297 C   0  0  2  0  0  0  0  0  0  0  0  0
  -33.2171  -15.5948   19.3307 C   0  0  0  0  0  0  0  0  0  0  0  0
  -31.7805  -15.1280   19.6804 C   0  0  2  0  0  0  0  0  0  0  0  0
  -30.2066  -13.0833   19.5985 C   0  0  1  0  0  0  0  0  0  1  0  0
  -23.0985  -14.3428   23.8251 C   0  0  0  0  0  0  0  0  0  0  0  0
  -27.5535  -25.2629   18.8913 N   0  0  0  0  0  0  0  0  0  0  0  0
  -30.3242  -17.6590   20.0825 N   0  0  0  0  0  0  0  0  0  0  0  0
  -28.7789  -24.7302   18.7475 N   0  0  0  0  0  0  0  0  0  0  0  0
  -24.2748  -15.4812   20.6337 N   0  0  0  0  0  0  0  0  0  0  0  0
  -28.3572  -21.0220   17.9381 N   0  0  0  0  0  0  0  0  0  0  0  0
  -31.0634  -25.0798   19.2669 N   0  0  0  0  0  0  0  0  0  0  0  0
  -29.0190  -28.6709   21.0893 N   0  0  0  0  0  0  0  0  0  0  0  0
  -31.3629  -15.6817   20.9543 N   0  0  0  0  0  0  0  0  0  0  0  0
  -29.3837  -19.8973   19.7391 N   0  0  0  0  0  0  0  0  0  0  0  0
  -24.3525  -18.8081   21.1771 N   0  0  0  0  0  0  0  0  0  0  0  0
  -22.2523  -13.0426   21.8258 N   0  0  0  0  0  0  0  0  0  0  0  0
  -21.7000  -10.2452   19.6038 N   0  3  0  0  0  0  0  0  0  0  0  0
  -31.0469  -27.6543   20.7531 O   0  0  0  0  0  0  0  0  0  0  0  0
  -26.2667  -17.4907   21.0264 O   0  0  0  0  0  0  0  0  0  0  0  0
  -22.1210  -15.8777   21.4337 O   0  0  0  0  0  0  0  0  0  0  0  0
  -23.7611  -11.4369   21.1033 O   0  0  0  0  0  0  0  0  0  0  0  0
  -29.0369  -18.8241   17.7119 O   0  0  0  0  0  0  0  0  0  0  0  0
  -23.5565  -29.7590   20.9788 O   0  0  0  0  0  0  0  0  0  0  0  0
  -29.6429  -13.4779   18.3483 O   0  0  0  0  0  0  0  0  0  1  0  0
  -23.4374  -31.7065   26.1361 F   0  0  0  0  0  0  0  0  0  0  0  0
  -21.4207  -29.2204   22.6493 F   0  0  0  0  0  0  0  0  0  0  0  0
  -30.4666  -19.2820   22.0894 S   0  0  0  0  0  0  0  0  0  0  0  0
  1  2  1  0  0  0  0
  1  5  2  0  0  0  0
  2  6  2  0  0  0  0
  3  8  2  0  0  0  0
  3 15  1  0  0  0  0
  4  9  1  0  0  0  0
  4 15  2  0  0  0  0
  5 17  1  0  0  0  0
  6 19  1  0  0  0  0
  7 10  2  0  0  0  0
  7 18  1  0  0  0  0
  8 21  1  0  0  0  0
  9 21  2  0  0  0  0
 10 22  1  0  0  0  0
 11 12  2  0  0  0  0
 11 23  1  0  0  0  0
 12 24  1  0  0  0  0
 13 20  1  0  0  0  0
 13 22  2  0  0  0  0
 14 24  2  0  0  0  0
 14 25  1  0  0  0  0
 15 26  1  0  0  0  0
 16 26  1  0  0  0  0
 16 29  2  0  0  0  0
 16 31  1  0  0  0  0
 17 19  2  0  0  0  0
 17 36  1  0  0  0  0
 18 20  2  0  0  0  0
 18 37  1  0  0  0  0
 19 45  1  0  0  0  0
 20 38  1  0  0  0  0
 21 82  1  0  0  0  0
 22 83  1  0  0  0  0
 23 25  2  0  0  0  0
 23 82  1  0  0  0  0
 24 84  1  0  0  0  0
 25 85  1  0  0  0  0
 26 65  2  0  0  0  0
 27 28  2  0  0  0  0
 27 57  1  0  0  0  0
 27 86  1  0  0  0  0
 28 66  1  0  0  0  0
 28 72  1  0  0  0  0
 29 67  1  0  0  0  0
 29 70  1  0  0  0  0
 30 66  2  0  0  0  0
 30 73  1  0  0  0  0
 30 86  1  0  0  0  0
 31 71  1  0  0  0  0
 31 77  2  0  0  0  0
 32 46  1  0  0  0  0
 32 74  1  0  0  0  0
 32 78  2  0  0  0  0
 33 59  1  0  0  0  0
 33 68  1  0  0  0  0
 33 79  2  0  0  0  0
 34 60  1  0  0  0  0
 34 75  1  0  0  0  0
 34 80  2  0  0  0  0
 35 69  1  0  0  0  0
 35 73  1  0  0  0  0
 35 81  2  0  0  0  0
 36 39  1  0  0  0  0
 37 46  1  0  0  0  0
 38 68  1  0  0  0  0
 39 41  1  0  0  0  0
 40 42  1  0  0  0  0
 40 43  1  0  0  0  0
 41 45  1  0  0  0  0
 42 47  1  0  0  0  0
 43 69  1  0  0  0  0
 44 47  1  0  0  0  0
 44 69  1  0  0  0  0
 45 74  1  0  0  0  0
 46 68  1  0  0  0  0
 47 67  1  0  0  0  0
 48 57  1  0  0  0  0
 49 60  1  0  0  0  0
 50 61  1  0  0  0  0
 51 61  1  0  0  0  0
 52 63  1  0  0  0  0
 53 64  1  0  0  0  0
 54 64  1  0  0  0  0
 55 64  1  0  0  0  0
 56 76  1  0  0  0  0
 58 62  1  0  0  0  0
 58 63  1  0  0  0  0
 59 64  1  0  0  0  0
 59 75  1  0  0  0  0
 60 76  1  0  0  0  0
 61 62  1  0  0  0  0
 62 72  1  0  0  0  0
 63 83  1  0  0  0  0
 65 67  1  0  0  0  0
M  CHG  1  76   1
M  ISO  4  35 100  63 101  73 100  83 101
M  END
> <Batch ID>
0194

> <Smiles>
CCc1sc([100NH:0][100C:0](=O)N2CCCC(n3nc(-c4ccc(Oc5ccc(F)cc5F)cc4)c(C(N)=O)c3N)C2)nc1NC(C[101CH:1](C)[101O:1]c1ccc2c(c1)CN(C(=O)C(NC(=O)C(C)NC)C(C)(C)C)C(C(=O)NC1CCCc3ccccc31)C2)C(C)C

> <Shape>
0.256

> <Color>
0.067

> <Negative vol penalty>
0.000

$$$$

  -OEChem-04052305333D

 85 93  0     1  0  0  0  0  0999 V2000
  -20.0597  -30.6141   15.4629 C   0  0  0  0  0  0  0  0  0  0  0  0
  -21.3838  -30.2693   15.7149 C   0  0  0  0  0  0  0  0  0  0  0  0
  -23.3538   -9.5138   21.6732 C   0  0  0  0  0  0  0  0  0  0  0  0
  -23.8560  -10.7352   23.6963 C   0  0  0  0  0  0  0  0  0  0  0  0
  -19.4632  -31.6529   16.1763 C   0  0  0  0  0  0  0  0  0  0  0  0
  -22.1124  -30.9640   16.6798 C   0  0  0  0  0  0  0  0  0  0  0  0
  -24.7836  -27.8862   19.6859 C   0  0  0  0  0  0  0  0  0  0  0  0
  -22.6900   -8.5434   22.4237 C   0  0  0  0  0  0  0  0  0  0  0  0
  -23.1922   -9.7648   24.4469 C   0  0  0  0  0  0  0  0  0  0  0  0
  -25.9717  -27.3680   19.1723 C   0  0  0  0  0  0  0  0  0  0  0  0
  -19.6816   -8.1813   23.9242 C   0  0  0  0  0  0  0  0  0  0  0  0
  -18.4443   -7.7361   23.4590 C   0  0  0  0  0  0  0  0  0  0  0  0
  -28.9956  -18.5126   20.5289 C   0  0  0  0  0  0  0  0  0  0  0  0
  -29.3237  -19.8389   20.3093 C   0  0  0  0  0  0  0  0  0  0  0  0
  -27.2187  -29.0347   20.3913 C   0  0  0  0  0  0  0  0  0  0  0  0
  -19.3111   -5.4861   23.3069 C   0  0  0  0  0  0  0  0  0  0  0  0
  -23.9368  -10.6097   22.3094 C   0  0  0  0  0  0  0  0  0  0  0  0
  -24.0693  -12.7764   20.9695 C   0  0  0  0  0  0  0  0  0  0  0  0
  -20.1819  -32.3542   17.1572 C   0  0  0  0  0  0  0  0  0  0  0  0
  -24.8035  -28.9912   20.5490 C   0  0  0  0  0  0  0  0  0  0  0  0
  -21.5252  -32.0140   17.4061 C   0  0  0  0  0  0  0  0  0  0  0  0
  -26.0297  -29.5635   20.9166 C   0  0  0  0  0  0  0  0  0  0  0  0
  -22.6092   -8.6689   23.8106 C   0  0  0  0  0  0  0  0  0  0  0  0
  -27.1892  -27.9441   19.5227 C   0  0  0  0  0  0  0  0  0  0  0  0
  -20.7337   -7.2789   24.0806 C   0  0  0  0  0  0  0  0  0  0  0  0
  -18.2590   -6.3885   23.1504 C   0  0  0  0  0  0  0  0  0  0  0  0
  -20.5485   -5.9313   23.7720 C   0  0  0  0  0  0  0  0  0  0  0  0
  -24.6231  -11.6121   21.5347 C   0  0  0  0  0  0  0  0  0  0  0  0
  -29.9500  -17.5559   20.2477 C   0  0  0  0  0  0  0  0  0  0  0  0
  -30.5847  -20.1206   19.8234 C   0  0  0  0  0  0  0  0  0  0  0  0
  -25.1253  -13.3879   20.3392 C   0  0  0  0  0  0  0  0  0  0  0  0
  -22.7208  -13.2618   21.0107 C   0  0  0  0  0  0  0  0  0  0  0  0
  -23.6382  -31.9464   20.4366 C   0  0  0  0  0  0  0  0  0  0  0  0
  -24.7242  -32.0732   23.4906 C   0  0  0  0  0  0  0  0  0  0  0  0
  -26.8797  -30.8777   25.8510 C   0  0  0  0  0  0  0  0  0  0  0  0
  -30.4285  -15.0825   20.2544 C   0  0  0  0  0  0  0  0  0  0  0  0
  -19.5089  -33.5008   17.8694 C   0  0  0  0  0  0  0  0  0  0  0  0
  -23.5150  -29.5216   21.1156 C   0  0  0  0  0  0  0  0  0  0  0  0
  -26.1066  -30.7384   21.8557 C   0  0  0  0  0  0  0  0  0  0  0  0
  -20.2351  -33.9401   19.1382 C   0  0  0  0  0  0  0  0  0  0  0  0
  -29.7922  -11.7000   19.3429 C   0  0  0  0  0  0  0  0  0  0  0  0
  -21.7322  -34.0724   18.8778 C   0  0  0  0  0  0  0  0  0  0  0  0
  -28.3451  -11.4714   19.7854 C   0  0  0  0  0  0  0  0  0  0  0  0
  -30.5478  -12.6013   20.3179 C   0  0  0  0  0  0  0  0  0  0  0  0
  -28.4461  -13.6534   21.0564 C   0  0  0  0  0  0  0  0  0  0  0  0
  -22.3408  -32.7276   18.4624 C   0  0  1  0  0  0  0  0  0  0  0  0
  -23.6183  -30.9712   21.5795 C   0  0  1  0  0  0  0  0  0  0  0  0
  -27.6261  -12.8043   20.0715 C   0  0  2  0  0  0  0  0  0  0  0  0
  -27.5582  -31.2041   28.2448 C   0  0  0  0  0  0  0  0  0  0  0  0
  -26.2458  -34.6008   22.7121 C   0  0  0  0  0  0  0  0  0  0  0  0
  -27.6113  -34.3361   24.7939 C   0  0  0  0  0  0  0  0  0  0  0  0
  -25.1480  -34.6938   24.9572 C   0  0  0  0  0  0  0  0  0  0  0  0
  -26.1140  -28.1099   26.5666 C   0  0  0  0  0  0  0  0  0  0  0  0
  -29.7825  -25.0627   19.7961 C   0  0  0  0  0  0  0  0  0  0  0  0
  -30.0111  -22.5487   19.8546 C   0  0  0  0  0  0  0  0  0  0  0  0
  -29.5168  -27.5682   19.8342 C   0  0  0  0  0  0  0  0  0  1  0  0
  -26.0258  -32.4656   24.1469 C   0  0  1  0  0  0  0  0  0  0  0  0
  -26.6582  -30.4387   27.2872 C   0  0  2  0  0  0  0  0  0  0  0  0
  -30.4630  -26.4107   19.5284 C   0  0  2  0  0  0  0  0  0  0  0  0
  -30.7038  -23.8688   19.5361 C   0  0  2  0  0  0  0  0  0  0  0  0
  -26.2565  -34.0032   24.1333 C   0  0  0  0  0  0  0  0  0  0  0  0
  -25.9295  -11.4890   21.2853 N   0  0  0  0  0  0  0  0  0  0  0  0
  -31.1764  -17.8603   19.7728 N   0  0  0  0  0  0  0  0  0  0  0  0
  -31.4990  -19.1639   19.5574 N   0  0  0  0  0  0  0  0  0  0  0  0
  -26.2054  -12.5839   20.5564 N   0  0  0  0  0  0  0  0  0  0  0  0
  -24.8191  -31.2250   22.3782 N   0  0  0  0  0  0  0  0  0  0  0  0
  -29.8093  -13.8468   20.5375 N   0  0  0  0  0  0  0  0  0  0  0  0
  -25.2261  -14.5295   19.6258 N   0  0  0  0  0  0  0  0  0  0  0  0
  -21.7609  -12.5100   21.7019 N   0  0  0  0  0  0  0  0  0  0  0  0
  -29.6181  -16.1965   20.4708 N   0  0  0  0  0  0  0  0  0  0  0  0
  -30.9129  -21.4484   19.6038 N   0  0  0  0  0  0  0  0  0  0  0  0
  -22.5262  -31.8778   19.6191 N   0  0  0  0  0  0  0  0  0  0  0  0
  -26.0039  -31.8765   25.4814 N   0  0  0  0  0  0  0  0  0  0  0  0
  -26.9451  -28.9837   27.4342 N   0  3  0  0  0  0  0  0  0  0  0  0
  -22.3738  -14.3221   20.4372 O   0  0  0  0  0  0  0  0  0  0  0  0
  -24.5911  -32.7059   20.3069 O   0  0  0  0  0  0  0  0  0  0  0  0
  -23.6620  -32.4977   23.9522 O   0  0  0  0  0  0  0  0  0  0  0  0
  -27.7456  -30.3864   25.1303 O   0  0  0  0  0  0  0  0  0  0  0  0
  -31.5829  -15.1464   19.8238 O   0  0  0  0  0  0  0  0  0  0  0  0
  -30.8291  -26.5051   18.1522 O   0  0  0  0  0  0  0  0  0  0  0  0
  -21.9613   -7.7224   24.5433 O   0  0  0  0  0  0  0  0  0  0  0  0
  -28.3503  -27.4407   19.0222 O   0  0  0  0  0  0  0  0  0  1  0  0
  -17.0703   -5.9608   22.7052 F   0  0  0  0  0  0  0  0  0  0  0  0
  -21.5551   -5.0595   23.9214 F   0  0  0  0  0  0  0  0  0  0  0  0
  -31.7901  -23.9840   20.3532 F   0  0  0  0  0  0  0  0  0  0  0  0
  1  2  1  0  0  0  0
  1  5  2  0  0  0  0
  2  6  2  0  0  0  0
  3  8  2  0  0  0  0
  3 17  1  0  0  0  0
  4  9  1  0  0  0  0
  4 17  2  0  0  0  0
  5 19  1  0  0  0  0
  6 21  1  0  0  0  0
  7 10  2  0  0  0  0
  7 20  1  0  0  0  0
  8 23  1  0  0  0  0
  9 23  2  0  0  0  0
 10 24  1  0  0  0  0
 11 12  2  0  0  0  0
 11 25  1  0  0  0  0
 12 26  1  0  0  0  0
 13 14  2  0  0  0  0
 13 29  1  0  0  0  0
 14 30  1  0  0  0  0
 15 22  1  0  0  0  0
 15 24  2  0  0  0  0
 16 26  2  0  0  0  0
 16 27  1  0  0  0  0
 17 28  1  0  0  0  0
 18 28  1  0  0  0  0
 18 31  2  0  0  0  0
 18 32  1  0  0  0  0
 19 21  2  0  0  0  0
 19 37  1  0  0  0  0
 20 22  2  0  0  0  0
 20 38  1  0  0  0  0
 21 46  1  0  0  0  0
 22 39  1  0  0  0  0
 23 81  1  0  0  0  0
 24 82  1  0  0  0  0
 25 27  2  0  0  0  0
 25 81  1  0  0  0  0
 26 83  1  0  0  0  0
 27 84  1  0  0  0  0
 28 62  2  0  0  0  0
 29 63  2  0  0  0  0
 29 70  1  0  0  0  0
 30 64  2  0  0  0  0
 30 71  1  0  0  0  0
 31 65  1  0  0  0  0
 31 68  1  0  0  0  0
 32 69  1  0  0  0  0
 32 75  2  0  0  0  0
 33 47  1  0  0  0  0
 33 72  1  0  0  0  0
 33 76  2  0  0  0  0
 34 57  1  0  0  0  0
 34 66  1  0  0  0  0
 34 77  2  0  0  0  0
 35 58  1  0  0  0  0
 35 73  1  0  0  0  0
 35 78  2  0  0  0  0
 36 67  1  0  0  0  0
 36 70  1  0  0  0  0
 36 79  2  0  0  0  0
 37 40  1  0  0  0  0
 38 47  1  0  0  0  0
 39 66  1  0  0  0  0
 40 42  1  0  0  0  0
 41 43  1  0  0  0  0
 41 44  1  0  0  0  0
 42 46  1  0  0  0  0
 43 48  1  0  0  0  0
 44 67  1  0  0  0  0
 45 48  1  0  0  0  0
 45 67  1  0  0  0  0
 46 72  1  0  0  0  0
 47 66  1  0  0  0  0
 48 65  1  0  0  0  0
 49 58  1  0  0  0  0
 50 61  1  0  0  0  0
 51 61  1  0  0  0  0
 52 61  1  0  0  0  0
 53 74  1  0  0  0  0
 54 59  1  0  0  0  0
 54 60  1  0  0  0  0
 55 60  1  0  0  0  0
 55 71  1  0  0  0  0
 56 59  1  0  0  0  0
 56 82  1  0  0  0  0
 57 61  1  0  0  0  0
 57 73  1  0  0  0  0
 58 74  1  0  0  0  0
 59 80  1  0  0  0  0
 60 85  1  0  0  0  0
 62 65  1  0  0  0  0
 63 64  1  0  0  0  0
M  CHG  1  74   1
M  ISO  4  36 100  56 101  70 100  82 101
M  END
> <Batch ID>
0194

> <Smiles>
CNC(C)C(=O)NC(C(=O)N1Cc2cc([101O:1][101CH2:1]C(O)CC(F)CNc3ccc([100NH:0][100C:0](=O)N4CCCC(n5nc(-c6ccc(Oc7ccc(F)cc7F)cc6)c(C(N)=O)c5N)C4)nn3)ccc2CC1C(=O)NC1CCCc2ccccc21)C(C)(C)C

> <Shape>
0.344

> <Color>
0.171

> <Negative vol penalty>
0.000

$$$$

  -OEChem-04052305333D

 87 95  0     1  0  0  0  0  0999 V2000
  -19.9525   -8.9968   22.7714 C   0  0  0  0  0  0  0  0  0  0  0  0
  -20.6970  -10.0117   23.3640 C   0  0  0  0  0  0  0  0  0  0  0  0
  -24.7227  -28.8963   20.2954 C   0  0  0  0  0  0  0  0  0  0  0  0
  -24.5139  -27.8009   22.4387 C   0  0  0  0  0  0  0  0  0  0  0  0
  -20.4995   -8.2505   21.7285 C   0  0  0  0  0  0  0  0  0  0  0  0
  -21.9895  -10.2801   22.9147 C   0  0  0  0  0  0  0  0  0  0  0  0
  -22.8644  -15.2374   22.3634 C   0  0  0  0  0  0  0  0  0  0  0  0
  -23.4292  -29.4014   20.4275 C   0  0  0  0  0  0  0  0  0  0  0  0
  -23.2204  -28.3060   22.5708 C   0  0  0  0  0  0  0  0  0  0  0  0
  -23.1221  -15.9711   23.5206 C   0  0  0  0  0  0  0  0  0  0  0  0
  -19.7320  -29.0099   23.3095 C   0  0  0  0  0  0  0  0  0  0  0  0
  -18.7377  -28.1381   23.7530 C   0  0  0  0  0  0  0  0  0  0  0  0
  -29.0068  -18.2832   24.3944 C   0  0  0  0  0  0  0  0  0  0  0  0
  -25.4855  -15.8776   23.0464 C   0  0  0  0  0  0  0  0  0  0  0  0
  -19.1365  -26.7121   21.8439 C   0  0  0  0  0  0  0  0  0  0  0  0
  -29.3862  -18.1695   23.0645 C   0  0  0  0  0  0  0  0  0  0  0  0
  -25.2650  -28.0960   21.3010 C   0  0  0  0  0  0  0  0  0  0  0  0
  -27.7981  -28.1791   21.5912 C   0  0  0  0  0  0  0  0  0  0  0  0
  -21.7958   -8.5163   21.2597 C   0  0  0  0  0  0  0  0  0  0  0  0
  -23.9179  -14.8083   21.5434 C   0  0  0  0  0  0  0  0  0  0  0  0
  -22.5549   -9.5357   21.8654 C   0  0  0  0  0  0  0  0  0  0  0  0
  -25.2383  -15.1409   21.8780 C   0  0  0  0  0  0  0  0  0  0  0  0
  -28.4264  -19.4718   24.8265 C   0  0  0  0  0  0  0  0  0  0  0  0
  -28.2368  -20.5177   23.9283 C   0  0  0  0  0  0  0  0  0  0  0  0
  -22.6781  -29.1063   21.5652 C   0  0  0  0  0  0  0  0  0  0  0  0
  -24.4330  -16.2888   23.8638 C   0  0  0  0  0  0  0  0  0  0  0  0
  -20.4286  -28.7330   22.1331 C   0  0  0  0  0  0  0  0  0  0  0  0
  -18.4400  -26.9892   23.0202 C   0  0  0  0  0  0  0  0  0  0  0  0
  -20.1308  -27.5841   21.4004 C   0  0  0  0  0  0  0  0  0  0  0  0
  -26.6009  -27.5735   21.1648 C   0  0  0  0  0  0  0  0  0  0  0  0
  -28.7801  -27.2883   21.2325 C   0  0  0  0  0  0  0  0  0  0  0  0
  -28.6358  -20.3475   22.6102 C   0  0  0  0  0  0  0  0  0  0  0  0
  -28.0041  -29.4345   22.2523 C   0  0  0  0  0  0  0  0  0  0  0  0
  -25.0319  -11.9782   20.6198 C   0  0  0  0  0  0  0  0  0  0  0  0
  -26.9650  -13.7869   18.7453 C   0  0  0  0  0  0  0  0  0  0  0  0
  -28.4864  -16.7930   18.2012 C   0  0  0  0  0  0  0  0  0  0  0  0
  -28.7996  -21.3831   20.3195 C   0  0  0  0  0  0  0  0  0  0  0  0
  -22.3621   -7.6516   20.1614 C   0  0  0  0  0  0  0  0  0  0  0  0
  -23.6214  -14.0407   20.2843 C   0  0  0  0  0  0  0  0  0  0  0  0
  -26.4033  -14.7213   21.0205 C   0  0  0  0  0  0  0  0  0  0  0  0
  -23.5992   -8.2470   19.4941 C   0  0  0  0  0  0  0  0  0  0  0  0
  -29.7617  -23.9007   17.9929 C   0  0  0  0  0  0  0  0  0  0  0  0
  -24.5793   -8.7577   20.5455 C   0  0  0  0  0  0  0  0  0  0  0  0
  -29.1744  -25.1843   18.5842 C   0  0  0  0  0  0  0  0  0  0  0  0
  -28.8411  -22.7017   18.2137 C   0  0  0  0  0  0  0  0  0  0  0  0
  -27.8418  -23.7671   20.1975 C   0  0  0  0  0  0  0  0  0  0  0  0
  -23.9512   -9.8733   21.3895 C   0  0  1  0  0  0  0  0  0  0  0  0
  -24.8067  -13.2140   19.7954 C   0  0  1  0  0  0  0  0  0  0  0  0
  -28.7633  -24.9897   20.0569 C   0  0  2  0  0  0  0  0  0  0  0  0
  -30.2238  -17.8702   28.5453 C   0  0  0  0  0  0  0  0  0  0  0  0
  -30.0354  -17.9568   16.6064 C   0  0  0  0  0  0  0  0  0  0  0  0
  -26.9805  -19.9858   28.9483 C   0  0  0  0  0  0  0  0  0  0  0  0
  -29.3308  -12.2819   19.9485 C   0  0  0  0  0  0  0  0  0  0  0  0
  -30.8332  -14.0814   19.0694 C   0  0  0  0  0  0  0  0  0  0  0  0
  -29.4974  -12.6907   17.4869 C   0  0  0  0  0  0  0  0  0  0  0  0
  -26.4408  -18.8167   17.5094 C   0  0  0  0  0  0  0  0  0  0  0  0
  -29.3001  -19.0398   28.8544 C   0  0  0  0  0  0  0  0  0  0  0  0
  -26.0539  -17.2944   25.2842 C   0  0  0  0  0  0  0  0  0  1  0  0
  -28.3252  -14.4209   18.9097 C   0  0  1  0  0  0  0  0  0  0  0  0
  -28.5861  -17.6615   16.9602 C   0  0  2  0  0  0  0  0  0  0  0  0
  -27.8216  -18.7923   28.4722 C   0  0  2  0  0  0  0  0  0  0  0  0
  -27.6185  -18.4679   26.9631 C   0  0  1  0  0  0  0  0  0  0  0  0
  -26.1675  -18.0896   26.5898 C   0  0  2  0  0  0  0  0  0  0  0  0
  -29.4751  -13.3751   18.8710 C   0  0  0  0  0  0  0  0  0  0  0  0
  -26.8017  -26.3896   20.5799 N   0  0  0  0  0  0  0  0  0  0  0  0
  -28.1365  -26.2441   20.6361 N   0  0  0  0  0  0  0  0  0  0  0  0
  -29.1922  -19.1924   22.2208 N   0  3  0  0  0  0  0  0  0  0  0  0
  -26.0625  -13.9671   19.8030 N   0  0  0  0  0  0  0  0  0  0  0  0
  -28.4972  -22.5774   19.6318 N   0  0  0  0  0  0  0  0  0  0  0  0
  -27.6481  -21.7288   24.3541 N   0  0  0  0  0  0  0  0  0  0  0  0
  -30.1227  -27.3041   21.3722 N   0  0  0  0  0  0  0  0  0  0  0  0
  -26.8855  -30.2259   22.5470 N   0  0  0  0  0  0  0  0  0  0  0  0
  -28.0458  -19.5904   26.1497 N   0  0  0  0  0  0  0  0  0  0  0  0
  -28.4559  -21.3931   21.6710 N   0  0  0  0  0  0  0  0  0  0  0  0
  -23.9486  -11.1211   20.6564 N   0  0  0  0  0  0  0  0  0  0  0  0
  -28.4213  -15.4529   17.8829 N   0  0  0  0  0  0  0  0  0  0  0  0
  -27.8818  -18.9569   17.1766 N   0  3  0  0  0  0  0  0  0  0  0  0
  -29.1477  -29.8499   22.5576 O   0  0  0  0  0  0  0  0  0  0  0  0
  -26.1093  -11.8136   21.1799 O   0  0  0  0  0  0  0  0  0  0  0  0
  -26.7103  -13.1611   17.7132 O   0  0  0  0  0  0  0  0  0  0  0  0
  -28.4718  -17.2567   19.3394 O   0  0  0  0  0  0  0  0  0  0  0  0
  -29.3494  -20.4322   19.7578 O   0  0  0  0  0  0  0  0  0  0  0  0
  -25.6116  -17.3037   27.6449 O   0  0  0  0  0  0  0  0  0  0  0  0
  -21.4160  -29.5992   21.6946 O   0  0  0  0  0  0  0  0  0  0  0  0
  -24.6873  -17.0042   24.9931 O   0  0  0  0  0  0  0  0  0  1  0  0
  -17.4861  -26.1512   23.4471 F   0  0  0  0  0  0  0  0  0  0  0  0
  -20.7974  -27.3121   20.2701 F   0  0  0  0  0  0  0  0  0  0  0  0
  1  2  1  0  0  0  0
  1  5  2  0  0  0  0
  2  6  2  0  0  0  0
  3  8  2  0  0  0  0
  3 17  1  0  0  0  0
  4  9  1  0  0  0  0
  4 17  2  0  0  0  0
  5 19  1  0  0  0  0
  6 21  1  0  0  0  0
  7 10  2  0  0  0  0
  7 20  1  0  0  0  0
  8 25  1  0  0  0  0
  9 25  2  0  0  0  0
 10 26  1  0  0  0  0
 11 12  2  0  0  0  0
 11 27  1  0  0  0  0
 12 28  1  0  0  0  0
 13 16  2  0  0  0  0
 13 23  1  0  0  0  0
 14 22  1  0  0  0  0
 14 26  2  0  0  0  0
 15 28  2  0  0  0  0
 15 29  1  0  0  0  0
 16 67  1  0  0  0  0
 17 30  1  0  0  0  0
 18 30  1  0  0  0  0
 18 31  2  0  0  0  0
 18 33  1  0  0  0  0
 19 21  2  0  0  0  0
 19 38  1  0  0  0  0
 20 22  2  0  0  0  0
 20 39  1  0  0  0  0
 21 47  1  0  0  0  0
 22 40  1  0  0  0  0
 23 24  2  0  0  0  0
 23 73  1  0  0  0  0
 24 32  1  0  0  0  0
 24 70  1  0  0  0  0
 25 84  1  0  0  0  0
 26 85  1  0  0  0  0
 27 29  2  0  0  0  0
 27 84  1  0  0  0  0
 28 86  1  0  0  0  0
 29 87  1  0  0  0  0
 30 65  2  0  0  0  0
 31 66  1  0  0  0  0
 31 71  1  0  0  0  0
 32 67  2  0  0  0  0
 32 74  1  0  0  0  0
 33 72  1  0  0  0  0
 33 78  2  0  0  0  0
 34 48  1  0  0  0  0
 34 75  1  0  0  0  0
 34 79  2  0  0  0  0
 35 59  1  0  0  0  0
 35 68  1  0  0  0  0
 35 80  2  0  0  0  0
 36 60  1  0  0  0  0
 36 76  1  0  0  0  0
 36 81  2  0  0  0  0
 37 69  1  0  0  0  0
 37 74  1  0  0  0  0
 37 82  2  0  0  0  0
 38 41  1  0  0  0  0
 39 48  1  0  0  0  0
 40 68  1  0  0  0  0
 41 43  1  0  0  0  0
 42 44  1  0  0  0  0
 42 45  1  0  0  0  0
 43 47  1  0  0  0  0
 44 49  1  0  0  0  0
 45 69  1  0  0  0  0
 46 49  1  0  0  0  0
 46 69  1  0  0  0  0
 47 75  1  0  0  0  0
 48 68  1  0  0  0  0
 49 66  1  0  0  0  0
 50 57  1  0  0  0  0
 51 60  1  0  0  0  0
 52 61  1  0  0  0  0
 53 64  1  0  0  0  0
 54 64  1  0  0  0  0
 55 64  1  0  0  0  0
 56 77  1  0  0  0  0
 57 61  1  0  0  0  0
 58 63  1  0  0  0  0
 58 85  1  0  0  0  0
 59 64  1  0  0  0  0
 59 76  1  0  0  0  0
 60 77  1  0  0  0  0
 61 62  1  0  0  0  0
 62 63  1  0  0  0  0
 62 73  1  0  0  0  0
 63 83  1  0  0  0  0
 65 66  1  0  0  0  0
M  CHG  2  67   1  77   1
M  ISO  4  37 100  58 101  74 100  85 101
M  END
> <Batch ID>
0194

> <Smiles>
CCC(C)C(Nc1ccnc([100NH:0][100C:0](=O)N2CCCC(n3nc(-c4ccc(Oc5ccc(F)cc5F)cc4)c(C(N)=O)c3N)C2)c1N)C(O)[101CH2:1][101O:1]c1ccc2c(c1)CN(C(=O)C(NC(=O)C(C)NC)C(C)(C)C)C(C(=O)NC1CCCc3ccccc31)C2

> <Shape>
0.279

> <Color>
0.059

> <Negative vol penalty>
0.000

$$$$

  -OEChem-04052305333D

 81 88  0     1  0  0  0  0  0999 V2000
  -28.5114  -10.3710   16.6466 C   0  0  0  0  0  0  0  0  0  0  0  0
  -27.5512  -11.3271   16.3316 C   0  0  0  0  0  0  0  0  0  0  0  0
  -26.0542  -29.6209   20.7679 C   0  0  0  0  0  0  0  0  0  0  0  0
  -23.6886  -29.1502   20.6294 C   0  0  0  0  0  0  0  0  0  0  0  0
  -29.2744  -10.5065   17.8056 C   0  0  0  0  0  0  0  0  0  0  0  0
  -27.3527  -12.4188   17.1761 C   0  0  0  0  0  0  0  0  0  0  0  0
  -25.8458  -18.1215   15.5285 C   0  0  0  0  0  0  0  0  0  0  0  0
  -25.7807  -30.7839   21.4878 C   0  0  0  0  0  0  0  0  0  0  0  0
  -23.4150  -30.3132   21.3494 C   0  0  0  0  0  0  0  0  0  0  0  0
  -24.6276  -18.7989   15.5008 C   0  0  0  0  0  0  0  0  0  0  0  0
  -24.9718  -31.6151   24.6639 C   0  0  0  0  0  0  0  0  0  0  0  0
  -25.7445  -31.8734   25.7961 C   0  0  0  0  0  0  0  0  0  0  0  0
  -25.1123  -19.7469   17.6654 C   0  0  0  0  0  0  0  0  0  0  0  0
  -26.4977  -33.9460   24.8091 C   0  0  0  0  0  0  0  0  0  0  0  0
  -25.0082  -28.8041   20.3386 C   0  0  0  0  0  0  0  0  0  0  0  0
  -25.5158  -26.3142   20.1141 C   0  0  0  0  0  0  0  0  0  0  0  0
  -29.0918  -11.6055   18.6598 C   0  0  0  0  0  0  0  0  0  0  0  0
  -26.7030  -18.2434   16.6316 C   0  0  0  0  0  0  0  0  0  0  0  0
  -28.1130  -12.5685   18.3483 C   0  0  0  0  0  0  0  0  0  0  0  0
  -26.3421  -19.0721   17.7036 C   0  0  0  0  0  0  0  0  0  0  0  0
  -24.4611  -31.1300   21.7786 C   0  0  0  0  0  0  0  0  0  0  0  0
  -24.2593  -19.6095   16.5706 C   0  0  0  0  0  0  0  0  0  0  0  0
  -24.9621  -32.5221   23.6043 C   0  0  0  0  0  0  0  0  0  0  0  0
  -26.5074  -33.0389   25.8687 C   0  0  0  0  0  0  0  0  0  0  0  0
  -25.7250  -33.6876   23.6769 C   0  0  0  0  0  0  0  0  0  0  0  0
  -25.2900  -27.6029   19.5944 C   0  0  0  0  0  0  0  0  0  0  0  0
  -25.7355  -25.5313   19.0071 C   0  0  0  0  0  0  0  0  0  0  0  0
  -25.5259  -25.8650   21.4756 C   0  0  0  0  0  0  0  0  0  0  0  0
  -27.8801  -16.2295   18.7908 C   0  0  0  0  0  0  0  0  0  0  0  0
  -29.5871  -18.8290   19.7133 C   0  0  0  0  0  0  0  0  0  0  0  0
  -22.3489  -22.6953   15.0979 C   0  0  0  0  0  0  0  0  0  0  0  0
  -29.8602  -22.2293   19.8135 C   0  0  0  0  0  0  0  0  0  0  0  0
  -24.0840  -26.0221   13.2728 C   0  0  0  0  0  0  0  0  0  0  0  0
  -29.9076  -11.6843   19.9258 C   0  0  0  0  0  0  0  0  0  0  0  0
  -28.0257  -17.5272   16.6343 C   0  0  0  0  0  0  0  0  0  0  0  0
  -27.2358  -19.2525   18.9023 C   0  0  0  0  0  0  0  0  0  0  0  0
  -29.8948  -13.0665   20.5736 C   0  0  0  0  0  0  0  0  0  0  0  0
  -27.4051  -25.7617   14.5294 C   0  0  0  0  0  0  0  0  0  0  0  0
  -28.4727  -13.6149   20.6334 C   0  0  0  0  0  0  0  0  0  0  0  0
  -27.2600  -26.0878   16.0169 C   0  0  0  0  0  0  0  0  0  0  0  0
  -26.4593  -26.6006   13.6729 C   0  0  0  0  0  0  0  0  0  0  0  0
  -24.8959  -26.8628   15.5599 C   0  0  0  0  0  0  0  0  0  0  0  0
  -27.8854  -13.7798   19.2264 C   0  0  1  0  0  0  0  0  0  0  0  0
  -28.5893  -17.3184   18.0365 C   0  0  1  0  0  0  0  0  0  0  0  0
  -25.7898  -26.0020   16.4689 C   0  0  2  0  0  0  0  0  0  0  0  0
  -31.3462  -24.0619   20.6685 C   0  0  0  0  0  0  0  0  0  0  0  0
  -18.9522  -24.0444   12.7451 C   0  0  0  0  0  0  0  0  0  0  0  0
  -20.2044  -21.9205   12.2925 C   0  0  0  0  0  0  0  0  0  0  0  0
  -28.5286  -18.3663   22.5374 C   0  0  0  0  0  0  0  0  0  0  0  0
  -29.2443  -20.6956   23.1123 C   0  0  0  0  0  0  0  0  0  0  0  0
  -30.9436  -19.0056   22.4202 C   0  0  0  0  0  0  0  0  0  0  0  0
  -30.3631  -23.2539   17.0829 C   0  0  0  0  0  0  0  0  0  0  0  0
  -22.0037  -22.4282   16.5547 C   0  0  0  0  0  0  0  0  0  0  0  0
  -21.6767  -25.4695   13.0308 C   0  0  0  0  0  0  0  0  0  0  0  0
  -23.0048  -21.5142   17.2444 C   0  0  0  0  0  0  0  0  0  1  0  0
  -29.3685  -19.9606   20.6884 C   0  0  1  0  0  0  0  0  0  0  0  0
  -31.0180  -23.1568   19.4913 C   0  0  2  0  0  0  0  0  0  0  0  0
  -20.2894  -23.4510   12.2915 C   0  0  0  0  0  0  0  0  0  0  0  0
  -21.5000  -23.9494   13.1190 C   0  0  2  0  0  0  0  0  0  0  0  0
  -29.5033  -19.5023   22.1680 C   0  0  0  0  0  0  0  0  0  0  0  0
  -25.3600  -27.6408   18.2611 N   0  0  0  0  0  0  0  0  0  0  0  0
  -25.6324  -26.3662   17.9336 N   0  0  0  0  0  0  0  0  0  0  0  0
  -28.5159  -18.5264   18.8608 N   0  0  0  0  0  0  0  0  0  0  0  0
  -25.0811  -26.4740   14.1530 N   0  0  0  0  0  0  0  0  0  0  0  0
  -26.0051  -24.2170   18.8571 N   0  0  0  0  0  0  0  0  0  0  0  0
  -25.2811  -26.8008   22.4898 N   0  0  0  0  0  0  0  0  0  0  0  0
  -28.4135  -14.9699   18.5946 N   0  0  0  0  0  0  0  0  0  0  0  0
  -30.2980  -21.0169   20.3029 N   0  0  0  0  0  0  0  0  0  0  0  0
  -21.4169  -23.5311   14.4999 N   0  0  0  0  0  0  0  0  0  0  0  0
  -22.8063  -25.9250   13.8101 N   0  0  0  0  0  0  0  0  0  0  0  0
  -30.6844  -24.0136   18.3185 N   0  3  0  0  0  0  0  0  0  0  0  0
  -25.7618  -24.6723   21.7846 O   0  0  0  0  0  0  0  0  0  0  0  0
  -26.9211  -16.5114   19.4996 O   0  0  0  0  0  0  0  0  0  0  0  0
  -30.6709  -18.2402   19.7035 O   0  0  0  0  0  0  0  0  0  0  0  0
  -23.3348  -22.2199   14.5413 O   0  0  0  0  0  0  0  0  0  0  0  0
  -28.6849  -22.5498   19.6511 O   0  0  0  0  0  0  0  0  0  0  0  0
  -24.3164  -25.7221   12.0968 O   0  0  0  0  0  0  0  0  0  0  0  0
  -24.1939  -32.2646   22.4813 O   0  0  0  0  0  0  0  0  0  0  0  0
  -23.0705  -20.2713   16.5465 O   0  0  0  0  0  0  0  0  0  1  0  0
  -27.2482  -33.2876   26.9566 F   0  0  0  0  0  0  0  0  0  0  0  0
  -25.7188  -34.5634   22.6626 F   0  0  0  0  0  0  0  0  0  0  0  0
  1  2  1  0  0  0  0
  1  5  2  0  0  0  0
  2  6  2  0  0  0  0
  3  8  2  0  0  0  0
  3 15  1  0  0  0  0
  4  9  1  0  0  0  0
  4 15  2  0  0  0  0
  5 17  1  0  0  0  0
  6 19  1  0  0  0  0
  7 10  2  0  0  0  0
  7 18  1  0  0  0  0
  8 21  1  0  0  0  0
  9 21  2  0  0  0  0
 10 22  1  0  0  0  0
 11 12  2  0  0  0  0
 11 23  1  0  0  0  0
 12 24  1  0  0  0  0
 13 20  1  0  0  0  0
 13 22  2  0  0  0  0
 14 24  2  0  0  0  0
 14 25  1  0  0  0  0
 15 26  1  0  0  0  0
 16 26  1  0  0  0  0
 16 27  2  0  0  0  0
 16 28  1  0  0  0  0
 17 19  2  0  0  0  0
 17 34  1  0  0  0  0
 18 20  2  0  0  0  0
 18 35  1  0  0  0  0
 19 43  1  0  0  0  0
 20 36  1  0  0  0  0
 21 78  1  0  0  0  0
 22 79  1  0  0  0  0
 23 25  2  0  0  0  0
 23 78  1  0  0  0  0
 24 80  1  0  0  0  0
 25 81  1  0  0  0  0
 26 61  2  0  0  0  0
 27 62  1  0  0  0  0
 27 65  1  0  0  0  0
 28 66  1  0  0  0  0
 28 72  2  0  0  0  0
 29 44  1  0  0  0  0
 29 67  1  0  0  0  0
 29 73  2  0  0  0  0
 30 56  1  0  0  0  0
 30 63  1  0  0  0  0
 30 74  2  0  0  0  0
 31 53  1  0  0  0  0
 31 69  1  0  0  0  0
 31 75  2  0  0  0  0
 32 57  1  0  0  0  0
 32 68  1  0  0  0  0
 32 76  2  0  0  0  0
 33 64  1  0  0  0  0
 33 70  1  0  0  0  0
 33 77  2  0  0  0  0
 34 37  1  0  0  0  0
 35 44  1  0  0  0  0
 36 63  1  0  0  0  0
 37 39  1  0  0  0  0
 38 40  1  0  0  0  0
 38 41  1  0  0  0  0
 39 43  1  0  0  0  0
 40 45  1  0  0  0  0
 41 64  1  0  0  0  0
 42 45  1  0  0  0  0
 42 64  1  0  0  0  0
 43 67  1  0  0  0  0
 44 63  1  0  0  0  0
 45 62  1  0  0  0  0
 46 57  1  0  0  0  0
 47 58  1  0  0  0  0
 48 58  1  0  0  0  0
 49 60  1  0  0  0  0
 50 60  1  0  0  0  0
 51 60  1  0  0  0  0
 52 71  1  0  0  0  0
 53 55  1  0  0  0  0
 54 59  1  0  0  0  0
 54 70  1  0  0  0  0
 55 79  1  0  0  0  0
 56 60  1  0  0  0  0
 56 68  1  0  0  0  0
 57 71  1  0  0  0  0
 58 59  1  0  0  0  0
 59 69  1  0  0  0  0
 61 62  1  0  0  0  0
M  CHG  1  71   1
M  ISO  4  33 100  55 101  70 100  79 101
M  END
> <Batch ID>
0194

> <Smiles>
CNC(C)C(=O)NC(C(=O)N1Cc2cc([101O:1][101CH2:1]CC(=O)NC(C[100NH:0][100C:0](=O)N3CCCC(n4nc(-c5ccc(Oc6ccc(F)cc6F)cc5)c(C(N)=O)c4N)C3)C(C)C)ccc2CC1C(=O)NC1CCCc2ccccc21)C(C)(C)C

> <Shape>
0.226

> <Color>
0.059

> <Negative vol penalty>
0.000

$$$$

  -OEChem-04052305333D

 81 89  0     1  0  0  0  0  0999 V2000
  -24.3019  -35.4054   22.7065 C   0  0  0  0  0  0  0  0  0  0  0  0
  -25.1282  -34.2983   22.5422 C   0  0  0  0  0  0  0  0  0  0  0  0
  -24.6510  -12.1962   21.5754 C   0  0  0  0  0  0  0  0  0  0  0  0
  -25.1402  -12.3081   19.2121 C   0  0  0  0  0  0  0  0  0  0  0  0
  -23.0227  -35.2464   23.2377 C   0  0  0  0  0  0  0  0  0  0  0  0
  -24.6760  -33.0316   22.9102 C   0  0  0  0  0  0  0  0  0  0  0  0
  -25.7405  -29.5039   19.4364 C   0  0  0  0  0  0  0  0  0  0  0  0
  -23.9478  -11.0086   21.3737 C   0  0  0  0  0  0  0  0  0  0  0  0
  -24.4370  -11.1205   19.0103 C   0  0  0  0  0  0  0  0  0  0  0  0
  -27.0473  -29.0193   19.4009 C   0  0  0  0  0  0  0  0  0  0  0  0
  -24.6652   -7.7371   20.9092 C   0  0  0  0  0  0  0  0  0  0  0  0
  -24.8964   -6.6878   21.7986 C   0  0  0  0  0  0  0  0  0  0  0  0
  -26.3501  -27.0663   20.6334 C   0  0  0  0  0  0  0  0  0  0  0  0
  -22.5632   -6.7050   22.4253 C   0  0  0  0  0  0  0  0  0  0  0  0
  -25.2471  -12.8460   20.4947 C   0  0  0  0  0  0  0  0  0  0  0  0
  -27.3438  -14.2113   20.9924 C   0  0  0  0  0  0  0  0  0  0  0  0
  -22.5511  -33.9758   23.6034 C   0  0  0  0  0  0  0  0  0  0  0  0
  -24.7292  -28.7774   20.0813 C   0  0  0  0  0  0  0  0  0  0  0  0
  -23.3898  -32.8556   23.4481 C   0  0  0  0  0  0  0  0  0  0  0  0
  -25.0308  -27.5427   20.6735 C   0  0  0  0  0  0  0  0  0  0  0  0
  -23.8408  -10.4707   20.0911 C   0  0  0  0  0  0  0  0  0  0  0  0
  -27.3529  -27.8017   20.0019 C   0  0  0  0  0  0  0  0  0  0  0  0
  -23.3830   -8.2705   20.7779 C   0  0  0  0  0  0  0  0  0  0  0  0
  -23.8454   -6.1717   22.5566 C   0  0  0  0  0  0  0  0  0  0  0  0
  -22.3320   -7.7544   21.5360 C   0  0  0  0  0  0  0  0  0  0  0  0
  -25.9731  -14.0731   20.7024 C   0  0  0  0  0  0  0  0  0  0  0  0
  -27.5379  -15.5670   21.0959 C   0  0  0  0  0  0  0  0  0  0  0  0
  -30.4832  -22.8644   18.1854 C   0  0  0  0  0  0  0  0  0  0  0  0
  -29.1275  -21.2113   18.5911 C   0  0  0  0  0  0  0  0  0  0  0  0
  -28.3514  -13.2042   21.1537 C   0  0  0  0  0  0  0  0  0  0  0  0
  -22.8097  -29.3170   22.5567 C   0  0  0  0  0  0  0  0  0  0  0  0
  -21.4784  -26.5050   21.6388 C   0  0  0  0  0  0  0  0  0  0  0  0
  -21.8345  -23.5241   20.0157 C   0  0  0  0  0  0  0  0  0  0  0  0
  -26.7376  -20.7574   19.2458 C   0  0  0  0  0  0  0  0  0  0  0  0
  -21.1784  -33.8600   24.2175 C   0  0  0  0  0  0  0  0  0  0  0  0
  -23.3193  -29.3011   20.0877 C   0  0  0  0  0  0  0  0  0  0  0  0
  -23.9773  -26.7145   21.3609 C   0  0  0  0  0  0  0  0  0  0  0  0
  -20.6368  -32.4329   24.2336 C   0  0  0  0  0  0  0  0  0  0  0  0
  -24.1991  -19.3651   21.3183 C   0  0  0  0  0  0  0  0  0  0  0  0
  -21.7019  -31.4633   24.7358 C   0  0  0  0  0  0  0  0  0  0  0  0
  -24.5471  -17.8756   21.3666 C   0  0  0  0  0  0  0  0  0  0  0  0
  -24.4868  -19.9704   19.9455 C   0  0  0  0  0  0  0  0  0  0  0  0
  -26.1948  -18.2550   19.4883 C   0  0  0  0  0  0  0  0  0  0  0  0
  -22.9262  -31.4619   23.8124 C   0  0  1  0  0  0  0  0  0  0  0  0
  -22.4726  -28.7240   21.2179 C   0  0  1  0  0  0  0  0  0  0  0  0
  -25.9831  -17.6159   20.8705 C   0  0  2  0  0  0  0  0  0  0  0  0
  -20.5850  -21.4181   19.4674 C   0  0  0  0  0  0  0  0  0  0  0  0
  -21.8798  -25.5247   24.5003 C   0  0  0  0  0  0  0  0  0  0  0  0
  -21.5189  -23.1882   23.6765 C   0  0  0  0  0  0  0  0  0  0  0  0
  -19.6939  -24.8766   23.4725 C   0  0  0  0  0  0  0  0  0  0  0  0
  -22.0565  -24.0124   17.1052 C   0  0  0  0  0  0  0  0  0  0  0  0
  -29.7586  -25.2480   18.3227 C   0  0  0  0  0  0  0  0  0  0  0  0
  -29.4272  -27.6890   18.8441 C   0  0  0  0  0  0  0  0  0  1  0  0
  -21.7179  -25.0511   21.9674 C   0  0  1  0  0  0  0  0  0  0  0  0
  -20.9533  -22.8180   19.0012 C   0  0  2  0  0  0  0  0  0  0  0  0
  -30.4474  -26.5858   18.5852 C   0  0  1  0  0  0  0  0  0  0  0  0
  -21.2231  -24.6764   23.3930 C   0  0  0  0  0  0  0  0  0  0  0  0
  -25.3412  -15.2474   20.6267 N   0  0  0  0  0  0  0  0  0  0  0  0
  -29.1893  -22.5238   18.5417 N   0  0  0  0  0  0  0  0  0  0  0  0
  -31.3995  -21.9228   17.9609 N   0  0  0  0  0  0  0  0  0  0  0  0
  -26.3191  -16.1364   20.8707 N   0  0  0  0  0  0  0  0  0  0  0  0
  -22.6148  -27.2722   21.3460 N   0  0  0  0  0  0  0  0  0  0  0  0
  -25.8663  -19.6881   19.5428 N   0  0  0  0  0  0  0  0  0  0  0  0
  -28.6304  -16.3158   21.3568 N   0  0  0  0  0  0  0  0  0  0  0  0
  -27.9807  -11.8597   21.0141 N   0  0  0  0  0  0  0  0  0  0  0  0
  -30.7461  -24.2199   18.0819 N   0  0  0  0  0  0  0  0  0  0  0  0
  -28.0331  -20.3684   18.9067 N   0  0  0  0  0  0  0  0  0  0  0  0
  -22.6579  -30.6891   22.6186 N   0  0  0  0  0  0  0  0  0  0  0  0
  -21.0927  -24.2823   20.8967 N   0  0  0  0  0  0  0  0  0  0  0  0
  -21.6566  -22.7076   17.6920 N   0  3  0  0  0  0  0  0  0  0  0  0
  -29.5417  -13.4872   21.4302 O   0  0  0  0  0  0  0  0  0  0  0  0
  -23.1786  -28.5839   23.4667 O   0  0  0  0  0  0  0  0  0  0  0  0
  -20.3249  -26.9420   21.6349 O   0  0  0  0  0  0  0  0  0  0  0  0
  -23.0583  -23.4112   20.0280 O   0  0  0  0  0  0  0  0  0  0  0  0
  -26.3696  -21.9329   19.3156 O   0  0  0  0  0  0  0  0  0  0  0  0
  -31.2664  -26.4688   19.7505 O   0  0  0  0  0  0  0  0  0  0  0  0
  -23.1550   -9.3117   19.8939 O   0  0  0  0  0  0  0  0  0  0  0  0
  -28.6277  -27.3266   19.9692 O   0  0  0  0  0  0  0  0  0  1  0  0
  -24.0672   -5.1630   23.4096 F   0  0  0  0  0  0  0  0  0  0  0  0
  -21.0978   -8.2618   21.4133 F   0  0  0  0  0  0  0  0  0  0  0  0
  -30.6223  -20.4613   18.2067 S   0  0  0  0  0  0  0  0  0  0  0  0
  1  2  1  0  0  0  0
  1  5  2  0  0  0  0
  2  6  2  0  0  0  0
  3  8  2  0  0  0  0
  3 15  1  0  0  0  0
  4  9  1  0  0  0  0
  4 15  2  0  0  0  0
  5 17  1  0  0  0  0
  6 19  1  0  0  0  0
  7 10  2  0  0  0  0
  7 18  1  0  0  0  0
  8 21  1  0  0  0  0
  9 21  2  0  0  0  0
 10 22  1  0  0  0  0
 11 12  2  0  0  0  0
 11 23  1  0  0  0  0
 12 24  1  0  0  0  0
 13 20  1  0  0  0  0
 13 22  2  0  0  0  0
 14 24  2  0  0  0  0
 14 25  1  0  0  0  0
 15 26  1  0  0  0  0
 16 26  1  0  0  0  0
 16 27  2  0  0  0  0
 16 30  1  0  0  0  0
 17 19  2  0  0  0  0
 17 35  1  0  0  0  0
 18 20  2  0  0  0  0
 18 36  1  0  0  0  0
 19 44  1  0  0  0  0
 20 37  1  0  0  0  0
 21 77  1  0  0  0  0
 22 78  1  0  0  0  0
 23 25  2  0  0  0  0
 23 77  1  0  0  0  0
 24 79  1  0  0  0  0
 25 80  1  0  0  0  0
 26 58  2  0  0  0  0
 27 61  1  0  0  0  0
 27 64  1  0  0  0  0
 28 59  1  0  0  0  0
 28 60  2  0  0  0  0
 28 66  1  0  0  0  0
 29 59  2  0  0  0  0
 29 67  1  0  0  0  0
 29 81  1  0  0  0  0
 30 65  1  0  0  0  0
 30 71  2  0  0  0  0
 31 45  1  0  0  0  0
 31 68  1  0  0  0  0
 31 72  2  0  0  0  0
 32 54  1  0  0  0  0
 32 62  1  0  0  0  0
 32 73  2  0  0  0  0
 33 55  1  0  0  0  0
 33 69  1  0  0  0  0
 33 74  2  0  0  0  0
 34 63  1  0  0  0  0
 34 67  1  0  0  0  0
 34 75  2  0  0  0  0
 35 38  1  0  0  0  0
 36 45  1  0  0  0  0
 37 62  1  0  0  0  0
 38 40  1  0  0  0  0
 39 41  1  0  0  0  0
 39 42  1  0  0  0  0
 40 44  1  0  0  0  0
 41 46  1  0  0  0  0
 42 63  1  0  0  0  0
 43 46  1  0  0  0  0
 43 63  1  0  0  0  0
 44 68  1  0  0  0  0
 45 62  1  0  0  0  0
 46 61  1  0  0  0  0
 47 55  1  0  0  0  0
 48 57  1  0  0  0  0
 49 57  1  0  0  0  0
 50 57  1  0  0  0  0
 51 70  1  0  0  0  0
 52 56  1  0  0  0  0
 52 66  1  0  0  0  0
 53 56  1  0  0  0  0
 53 78  1  0  0  0  0
 54 57  1  0  0  0  0
 54 69  1  0  0  0  0
 55 70  1  0  0  0  0
 56 76  1  0  0  0  0
 58 61  1  0  0  0  0
 60 81  1  0  0  0  0
M  CHG  1  70   1
M  ISO  4  34 100  53 101  67 100  78 101
M  END
> <Batch ID>
0194

> <Smiles>
CNC(C)C(=O)NC(C(=O)N1Cc2cc([101O:1][101CH2:1]C(O)CNc3nsc([100NH:0][100C:0](=O)N4CCCC(n5nc(-c6ccc(Oc7ccc(F)cc7F)cc6)c(C(N)=O)c5N)C4)n3)ccc2CC1C(=O)NC1CCCc2ccccc21)C(C)(C)C

> <Shape>
0.255

> <Color>
0.085

> <Negative vol penalty>
0.000

$$$$

  -OEChem-04052305333D

 84 92  0     1  0  0  0  0  0999 V2000
  -29.1430  -33.5760   24.4275 C   0  0  0  0  0  0  0  0  0  0  0  0
  -29.2531  -32.2079   24.2002 C   0  0  0  0  0  0  0  0  0  0  0  0
  -26.9593  -12.9591   21.0120 C   0  0  0  0  0  0  0  0  0  0  0  0
  -26.8855  -13.2778   18.6183 C   0  0  0  0  0  0  0  0  0  0  0  0
  -27.8867  -34.1804   24.4410 C   0  0  0  0  0  0  0  0  0  0  0  0
  -28.1066  -31.4432   23.9873 C   0  0  0  0  0  0  0  0  0  0  0  0
  -28.6170  -28.2119   20.1216 C   0  0  0  0  0  0  0  0  0  0  0  0
  -26.3329  -11.7214   20.8666 C   0  0  0  0  0  0  0  0  0  0  0  0
  -26.2591  -12.0400   18.4728 C   0  0  0  0  0  0  0  0  0  0  0  0
  -29.3425  -27.0451   20.3586 C   0  0  0  0  0  0  0  0  0  0  0  0
  -23.1995  -10.5605   20.3578 C   0  0  0  0  0  0  0  0  0  0  0  0
  -22.1547  -10.2572   21.2307 C   0  0  0  0  0  0  0  0  0  0  0  0
  -27.2794  -25.8236   20.6247 C   0  0  0  0  0  0  0  0  0  0  0  0
  -23.3807   -8.3352   22.0304 C   0  0  0  0  0  0  0  0  0  0  0  0
  -26.8321  -23.0448   15.0369 C   0  0  0  0  0  0  0  0  0  0  0  0
  -27.2356  -13.7374   19.8879 C   0  0  0  0  0  0  0  0  0  0  0  0
  -29.2658  -15.2755   20.0292 C   0  0  0  0  0  0  0  0  0  0  0  0
  -26.7250  -33.4244   24.2185 C   0  0  0  0  0  0  0  0  0  0  0  0
  -27.2150  -28.1954   20.1453 C   0  0  0  0  0  0  0  0  0  0  0  0
  -26.8335  -32.0378   23.9991 C   0  0  0  0  0  0  0  0  0  0  0  0
  -26.5385  -26.9909   20.3852 C   0  0  0  0  0  0  0  0  0  0  0  0
  -25.9828  -11.2618   19.5969 C   0  0  0  0  0  0  0  0  0  0  0  0
  -28.6738  -25.8513   20.6130 C   0  0  0  0  0  0  0  0  0  0  0  0
  -24.3350   -9.7511   20.3212 C   0  0  0  0  0  0  0  0  0  0  0  0
  -22.2453   -9.1446   22.0670 C   0  0  0  0  0  0  0  0  0  0  0  0
  -24.4256   -8.6384   21.1575 C   0  0  0  0  0  0  0  0  0  0  0  0
  -27.8821  -15.0163   20.0375 C   0  0  0  0  0  0  0  0  0  0  0  0
  -26.7774  -22.3955   16.2533 C   0  0  0  0  0  0  0  0  0  0  0  0
  -27.9975  -23.7387   14.7824 C   0  0  0  0  0  0  0  0  0  0  0  0
  -29.3617  -16.6342   20.2063 C   0  0  0  0  0  0  0  0  0  0  0  0
  -28.8610  -23.1260   16.7939 C   0  0  0  0  0  0  0  0  0  0  0  0
  -30.3661  -14.3692   19.8751 C   0  0  0  0  0  0  0  0  0  0  0  0
  -24.9844  -29.6162   21.9087 C   0  0  0  0  0  0  0  0  0  0  0  0
  -22.9696  -28.2260   19.7803 C   0  0  0  0  0  0  0  0  0  0  0  0
  -22.4193  -25.7365   17.5117 C   0  0  0  0  0  0  0  0  0  0  0  0
  -25.6250  -21.1695   19.0579 C   0  0  0  0  0  0  0  0  0  0  0  0
  -25.3855  -34.1139   24.2894 C   0  0  0  0  0  0  0  0  0  0  0  0
  -26.4468  -29.4570   19.8612 C   0  0  0  0  0  0  0  0  0  0  0  0
  -25.0343  -26.9158   20.4014 C   0  0  0  0  0  0  0  0  0  0  0  0
  -24.2472  -33.2972   23.6830 C   0  0  0  0  0  0  0  0  0  0  0  0
  -27.0592  -20.3216   22.2044 C   0  0  0  0  0  0  0  0  0  0  0  0
  -24.3072  -31.8533   24.1712 C   0  0  0  0  0  0  0  0  0  0  0  0
  -27.5576  -18.8892   22.0051 C   0  0  0  0  0  0  0  0  0  0  0  0
  -25.7503  -20.5726   21.4588 C   0  0  0  0  0  0  0  0  0  0  0  0
  -26.2806  -18.8071   19.8231 C   0  0  0  0  0  0  0  0  0  0  0  0
  -25.6149  -31.1788   23.7394 C   0  0  1  0  0  0  0  0  0  0  0  0
  -25.0269  -29.4302   20.4183 C   0  0  1  0  0  0  0  0  0  0  0  0
  -27.6270  -18.5224   20.5105 C   0  0  2  0  0  0  0  0  0  0  0  0
  -20.6632  -24.8375   15.9608 C   0  0  0  0  0  0  0  0  0  0  0  0
  -30.1558  -21.0139   18.7715 C   0  0  0  0  0  0  0  0  0  0  0  0
  -21.4892  -27.0193   22.1599 C   0  0  0  0  0  0  0  0  0  0  0  0
  -20.3890  -25.4222   20.5765 C   0  0  0  0  0  0  0  0  0  0  0  0
  -20.0086  -27.8757   20.3354 C   0  0  0  0  0  0  0  0  0  0  0  0
  -24.1260  -26.1805   15.1349 C   0  0  0  0  0  0  0  0  0  0  0  0
  -25.5571  -21.6186   16.6180 C   0  0  0  0  0  0  0  0  0  0  0  0
  -30.9215  -23.1215   19.9191 C   0  0  0  0  0  0  0  0  0  0  0  0
  -30.6521  -24.5944   20.2105 C   0  0  0  0  0  0  0  0  0  1  0  0
  -22.2519  -26.9006   19.6961 C   0  0  1  0  0  0  0  0  0  0  0  0
  -21.8602  -25.7651   16.1007 C   0  0  2  0  0  0  0  0  0  0  0  0
  -29.8804  -22.4993   18.9833 C   0  0  1  0  0  0  0  0  0  0  0  0
  -21.0630  -26.8059   20.6936 C   0  0  0  0  0  0  0  0  0  0  0  0
  -27.1515  -16.1216   20.2067 N   0  0  0  0  0  0  0  0  0  0  0  0
  -27.7772  -22.4151   17.1591 N   0  0  0  0  0  0  0  0  0  0  0  0
  -29.0358  -23.8009   15.6417 N   0  0  0  0  0  0  0  0  0  0  0  0
  -28.0796  -17.0885   20.3064 N   0  0  0  0  0  0  0  0  0  0  0  0
  -24.3279  -28.1775   20.1243 N   0  0  0  0  0  0  0  0  0  0  0  0
  -25.8838  -20.2061   20.0468 N   0  0  0  0  0  0  0  0  0  0  0  0
  -28.0940  -24.4195   13.5441 N   0  0  0  0  0  0  0  0  0  0  0  0
  -30.4168  -17.4727   20.2847 N   0  0  0  0  0  0  0  0  0  0  0  0
  -30.0897  -13.0061   19.7029 N   0  0  0  0  0  0  0  0  0  0  0  0
  -29.9063  -23.1676   17.6989 N   0  0  0  0  0  0  0  0  0  0  0  0
  -25.5510  -30.7988   22.3444 N   0  0  0  0  0  0  0  0  0  0  0  0
  -21.8735  -26.7294   18.2975 N   0  0  0  0  0  0  0  0  0  0  0  0
  -25.7811  -20.7412   17.7453 N   0  0  0  0  0  0  0  0  0  0  0  0
  -22.9011  -25.3400   15.1224 N   0  3  0  0  0  0  0  0  0  0  0  0
  -31.5594  -14.7546   19.9061 O   0  0  0  0  0  0  0  0  0  0  0  0
  -24.4741  -28.7515   22.6112 O   0  0  0  0  0  0  0  0  0  0  0  0
  -22.3496  -29.2656   19.5424 O   0  0  0  0  0  0  0  0  0  0  0  0
  -23.2538  -24.9132   17.8810 O   0  0  0  0  0  0  0  0  0  0  0  0
  -25.2854  -22.3272   19.3251 O   0  0  0  0  0  0  0  0  0  0  0  0
  -25.3718  -10.0540   19.4546 O   0  0  0  0  0  0  0  0  0  0  0  0
  -29.3795  -24.7112   20.8453 O   0  0  0  0  0  0  0  0  0  1  0  0
  -21.2425   -8.8543   22.9063 F   0  0  0  0  0  0  0  0  0  0  0  0
  -25.5144   -7.8578   21.1277 F   0  0  0  0  0  0  0  0  0  0  0  0
  1  2  1  0  0  0  0
  1  5  2  0  0  0  0
  2  6  2  0  0  0  0
  3  8  2  0  0  0  0
  3 16  1  0  0  0  0
  4  9  1  0  0  0  0
  4 16  2  0  0  0  0
  5 18  1  0  0  0  0
  6 20  1  0  0  0  0
  7 10  2  0  0  0  0
  7 19  1  0  0  0  0
  8 22  1  0  0  0  0
  9 22  2  0  0  0  0
 10 23  1  0  0  0  0
 11 12  2  0  0  0  0
 11 24  1  0  0  0  0
 12 25  1  0  0  0  0
 13 21  1  0  0  0  0
 13 23  2  0  0  0  0
 14 25  2  0  0  0  0
 14 26  1  0  0  0  0
 15 28  2  0  0  0  0
 15 29  1  0  0  0  0
 16 27  1  0  0  0  0
 17 27  1  0  0  0  0
 17 30  2  0  0  0  0
 17 32  1  0  0  0  0
 18 20  2  0  0  0  0
 18 37  1  0  0  0  0
 19 21  2  0  0  0  0
 19 38  1  0  0  0  0
 20 46  1  0  0  0  0
 21 39  1  0  0  0  0
 22 81  1  0  0  0  0
 23 82  1  0  0  0  0
 24 26  2  0  0  0  0
 24 81  1  0  0  0  0
 25 83  1  0  0  0  0
 26 84  1  0  0  0  0
 27 62  2  0  0  0  0
 28 55  1  0  0  0  0
 28 63  1  0  0  0  0
 29 64  2  0  0  0  0
 29 68  1  0  0  0  0
 30 65  1  0  0  0  0
 30 69  1  0  0  0  0
 31 63  2  0  0  0  0
 31 64  1  0  0  0  0
 31 71  1  0  0  0  0
 32 70  1  0  0  0  0
 32 76  2  0  0  0  0
 33 47  1  0  0  0  0
 33 72  1  0  0  0  0
 33 77  2  0  0  0  0
 34 58  1  0  0  0  0
 34 66  1  0  0  0  0
 34 78  2  0  0  0  0
 35 59  1  0  0  0  0
 35 73  1  0  0  0  0
 35 79  2  0  0  0  0
 36 67  1  0  0  0  0
 36 74  1  0  0  0  0
 36 80  2  0  0  0  0
 37 40  1  0  0  0  0
 38 47  1  0  0  0  0
 39 66  1  0  0  0  0
 40 42  1  0  0  0  0
 41 43  1  0  0  0  0
 41 44  1  0  0  0  0
 42 46  1  0  0  0  0
 43 48  1  0  0  0  0
 44 67  1  0  0  0  0
 45 48  1  0  0  0  0
 45 67  1  0  0  0  0
 46 72  1  0  0  0  0
 47 66  1  0  0  0  0
 48 65  1  0  0  0  0
 49 59  1  0  0  0  0
 50 60  1  0  0  0  0
 51 61  1  0  0  0  0
 52 61  1  0  0  0  0
 53 61  1  0  0  0  0
 54 75  1  0  0  0  0
 55 74  1  0  0  0  0
 56 57  1  0  0  0  0
 56 60  1  0  0  0  0
 57 82  1  0  0  0  0
 58 61  1  0  0  0  0
 58 73  1  0  0  0  0
 59 75  1  0  0  0  0
 60 71  1  0  0  0  0
 62 65  1  0  0  0  0
M  CHG  1  75   1
M  ISO  4  36 100  57 101  74 100  82 101
M  END
> <Batch ID>
0194

> <Smiles>
CNC(C)C(=O)NC(C(=O)N1Cc2cc([101O:1][101CH2:1]CC(C)Nc3nc(N)cc(C[100NH:0][100C:0](=O)N4CCCC(n5nc(-c6ccc(Oc7ccc(F)cc7F)cc6)c(C(N)=O)c5N)C4)n3)ccc2CC1C(=O)NC1CCCc2ccccc21)C(C)(C)C

> <Shape>
0.269

> <Color>
0.072

> <Negative vol penalty>
0.000

$$$$

  -OEChem-04052305333D

 84 92  0     1  0  0  0  0  0999 V2000
  -16.9780  -30.8625   23.2746 C   0  0  0  0  0  0  0  0  0  0  0  0
  -18.1534  -31.2030   22.6128 C   0  0  0  0  0  0  0  0  0  0  0  0
  -26.9545  -12.4422   21.5714 C   0  0  0  0  0  0  0  0  0  0  0  0
  -26.2505  -13.7692   19.6791 C   0  0  0  0  0  0  0  0  0  0  0  0
  -16.9418  -29.7341   24.0926 C   0  0  0  0  0  0  0  0  0  0  0  0
  -19.2937  -30.4158   22.7696 C   0  0  0  0  0  0  0  0  0  0  0  0
  -25.0771  -28.1881   19.1772 C   0  0  0  0  0  0  0  0  0  0  0  0
  -26.2294  -11.3567   21.0799 C   0  0  0  0  0  0  0  0  0  0  0  0
  -25.5255  -12.6837   19.1876 C   0  0  0  0  0  0  0  0  0  0  0  0
  -26.4650  -28.1339   19.2974 C   0  0  0  0  0  0  0  0  0  0  0  0
  -24.2711   -8.3464   20.5082 C   0  0  0  0  0  0  0  0  0  0  0  0
  -23.4875   -7.6263   21.4099 C   0  0  0  0  0  0  0  0  0  0  0  0
  -26.2629  -26.1628   20.6734 C   0  0  0  0  0  0  0  0  0  0  0  0
  -22.2200   -9.6231   21.9032 C   0  0  0  0  0  0  0  0  0  0  0  0
  -30.4865  -22.7113   21.3247 C   0  0  0  0  0  0  0  0  0  0  0  0
  -30.3633  -24.5378   22.5516 C   0  0  0  0  0  0  0  0  0  0  0  0
  -26.9650  -13.6485   20.8710 C   0  0  0  0  0  0  0  0  0  0  0  0
  -29.0563  -15.0908   21.1034 C   0  0  0  0  0  0  0  0  0  0  0  0
  -18.0795  -28.9272   24.2519 C   0  0  0  0  0  0  0  0  0  0  0  0
  -24.2697  -27.2347   19.8142 C   0  0  0  0  0  0  0  0  0  0  0  0
  -19.2730  -29.2763   23.5917 C   0  0  0  0  0  0  0  0  0  0  0  0
  -24.8651  -26.2056   20.5575 C   0  0  0  0  0  0  0  0  0  0  0  0
  -25.5149  -11.4774   19.8880 C   0  0  0  0  0  0  0  0  0  0  0  0
  -27.0580  -27.1229   20.0480 C   0  0  0  0  0  0  0  0  0  0  0  0
  -24.0292   -9.7049   20.3041 C   0  0  0  0  0  0  0  0  0  0  0  0
  -22.4619   -8.2646   22.1073 C   0  0  0  0  0  0  0  0  0  0  0  0
  -23.0036  -10.3432   21.0015 C   0  0  0  0  0  0  0  0  0  0  0  0
  -27.7133  -14.7703   21.3785 C   0  0  0  0  0  0  0  0  0  0  0  0
  -29.5363  -22.5913   22.3112 C   0  0  0  0  0  0  0  0  0  0  0  0
  -29.2892  -16.2387   21.8207 C   0  0  0  0  0  0  0  0  0  0  0  0
  -30.0080  -14.4116   20.2736 C   0  0  0  0  0  0  0  0  0  0  0  0
  -22.0202  -27.3392   22.0575 C   0  0  0  0  0  0  0  0  0  0  0  0
  -21.7113  -24.1899   21.3442 C   0  0  0  0  0  0  0  0  0  0  0  0
  -23.1276  -21.3523   20.0839 C   0  0  0  0  0  0  0  0  0  0  0  0
  -27.7493  -21.3068   23.5371 C   0  0  0  0  0  0  0  0  0  0  0  0
  -18.0054  -27.7438   25.1840 C   0  0  0  0  0  0  0  0  0  0  0  0
  -22.7754  -27.2914   19.6526 C   0  0  0  0  0  0  0  0  0  0  0  0
  -24.0439  -25.1461   21.2442 C   0  0  0  0  0  0  0  0  0  0  0  0
  -19.1510  -26.7517   25.0010 C   0  0  0  0  0  0  0  0  0  0  0  0
  -26.5031  -18.5239   25.3756 C   0  0  0  0  0  0  0  0  0  0  0  0
  -20.4857  -27.4860   24.9221 C   0  0  0  0  0  0  0  0  0  0  0  0
  -26.8174  -17.3257   24.4770 C   0  0  0  0  0  0  0  0  0  0  0  0
  -26.1026  -19.7534   24.5621 C   0  0  0  0  0  0  0  0  0  0  0  0
  -27.3654  -18.9385   22.6101 C   0  0  0  0  0  0  0  0  0  0  0  0
  -20.5237  -28.4335   23.7169 C   0  0  1  0  0  0  0  0  0  0  0  0
  -22.0260  -26.5686   20.7676 C   0  0  1  0  0  0  0  0  0  0  0  0
  -27.8367  -17.6949   23.3814 C   0  0  2  0  0  0  0  0  0  0  0  0
  -34.3025  -24.4011   18.5740 C   0  0  0  0  0  0  0  0  0  0  0  0
  -22.6420  -18.9257   19.6676 C   0  0  0  0  0  0  0  0  0  0  0  0
  -22.0779  -23.6091   24.3172 C   0  0  0  0  0  0  0  0  0  0  0  0
  -22.5334  -21.2200   23.7230 C   0  0  0  0  0  0  0  0  0  0  0  0
  -20.3161  -22.2338   23.1950 C   0  0  0  0  0  0  0  0  0  0  0  0
  -23.5056  -21.6579   17.1645 C   0  0  0  0  0  0  0  0  0  0  0  0
  -33.0140  -25.1832   18.3501 C   0  0  0  0  0  0  0  0  0  0  0  0
  -30.5586  -26.9100   19.0242 C   0  0  0  0  0  0  0  0  0  0  0  0
  -32.0985  -24.5960   20.6599 C   0  0  0  0  0  0  0  0  0  0  0  0
  -29.1817  -27.5733   19.0769 C   0  0  0  0  0  0  0  0  0  1  0  0
  -22.3428  -22.9134   21.8449 C   0  0  1  0  0  0  0  0  0  0  0  0
  -22.6172  -20.3300   19.0844 C   0  0  2  0  0  0  0  0  0  0  0  0
  -31.8042  -24.6257   19.1402 C   0  0  1  0  0  0  0  0  0  0  0  0
  -30.4942  -25.3913   18.7930 C   0  0  2  0  0  0  0  0  0  0  0  0
  -21.8332  -22.5150   23.2588 C   0  0  0  0  0  0  0  0  0  0  0  0
  -29.4643  -23.7318   23.0713 N   0  0  0  0  0  0  0  0  0  0  0  0
  -27.1339  -15.6440   22.2061 N   0  0  0  0  0  0  0  0  0  0  0  0
  -31.0074  -23.9635   21.4911 N   0  0  0  0  0  0  0  0  0  0  0  0
  -28.1174  -16.5247   22.4573 N   0  0  0  0  0  0  0  0  0  0  0  0
  -22.5866  -25.2482   21.0617 N   0  0  0  0  0  0  0  0  0  0  0  0
  -27.1171  -20.0454   23.5470 N   0  0  0  0  0  0  0  0  0  0  0  0
  -30.3800  -17.0212   21.9627 N   0  0  0  0  0  0  0  0  0  0  0  0
  -29.6029  -13.2465   19.6082 N   0  0  0  0  0  0  0  0  0  0  0  0
  -28.7194  -21.4577   22.5469 N   0  0  0  0  0  0  0  0  0  0  0  0
  -20.7582  -27.6907   22.4972 N   0  0  0  0  0  0  0  0  0  0  0  0
  -22.0999  -21.9073   20.8168 N   0  0  0  0  0  0  0  0  0  0  0  0
  -23.4586  -20.3431   17.8545 N   0  3  0  0  0  0  0  0  0  0  0  0
  -31.1877  -14.8165   20.1396 O   0  0  0  0  0  0  0  0  0  0  0  0
  -23.0820  -27.5948   22.6134 O   0  0  0  0  0  0  0  0  0  0  0  0
  -20.4871  -24.2437   21.2021 O   0  0  0  0  0  0  0  0  0  0  0  0
  -24.3192  -21.6280   20.2050 O   0  0  0  0  0  0  0  0  0  0  0  0
  -27.4712  -22.1785   24.3646 O   0  0  0  0  0  0  0  0  0  0  0  0
  -30.1716  -25.1668   17.4170 O   0  0  0  0  0  0  0  0  0  0  0  0
  -24.8075  -10.4183   19.4080 O   0  0  0  0  0  0  0  0  0  0  0  0
  -28.4124  -27.0681   20.1675 O   0  0  0  0  0  0  0  0  0  1  0  0
  -21.7086   -7.5725   22.9720 F   0  0  0  0  0  0  0  0  0  0  0  0
  -22.7657  -11.6479   20.8087 F   0  0  0  0  0  0  0  0  0  0  0  0
  1  2  1  0  0  0  0
  1  5  2  0  0  0  0
  2  6  2  0  0  0  0
  3  8  2  0  0  0  0
  3 17  1  0  0  0  0
  4  9  1  0  0  0  0
  4 17  2  0  0  0  0
  5 19  1  0  0  0  0
  6 21  1  0  0  0  0
  7 10  2  0  0  0  0
  7 20  1  0  0  0  0
  8 23  1  0  0  0  0
  9 23  2  0  0  0  0
 10 24  1  0  0  0  0
 11 12  2  0  0  0  0
 11 25  1  0  0  0  0
 12 26  1  0  0  0  0
 13 22  1  0  0  0  0
 13 24  2  0  0  0  0
 14 26  2  0  0  0  0
 14 27  1  0  0  0  0
 15 29  2  0  0  0  0
 15 65  1  0  0  0  0
 16 63  2  0  0  0  0
 16 65  1  0  0  0  0
 17 28  1  0  0  0  0
 18 28  1  0  0  0  0
 18 30  2  0  0  0  0
 18 31  1  0  0  0  0
 19 21  2  0  0  0  0
 19 36  1  0  0  0  0
 20 22  2  0  0  0  0
 20 37  1  0  0  0  0
 21 45  1  0  0  0  0
 22 38  1  0  0  0  0
 23 81  1  0  0  0  0
 24 82  1  0  0  0  0
 25 27  2  0  0  0  0
 25 81  1  0  0  0  0
 26 83  1  0  0  0  0
 27 84  1  0  0  0  0
 28 64  2  0  0  0  0
 29 63  1  0  0  0  0
 29 71  1  0  0  0  0
 30 66  1  0  0  0  0
 30 69  1  0  0  0  0
 31 70  1  0  0  0  0
 31 75  2  0  0  0  0
 32 46  1  0  0  0  0
 32 72  1  0  0  0  0
 32 76  2  0  0  0  0
 33 58  1  0  0  0  0
 33 67  1  0  0  0  0
 33 77  2  0  0  0  0
 34 59  1  0  0  0  0
 34 73  1  0  0  0  0
 34 78  2  0  0  0  0
 35 68  1  0  0  0  0
 35 71  1  0  0  0  0
 35 79  2  0  0  0  0
 36 39  1  0  0  0  0
 37 46  1  0  0  0  0
 38 67  1  0  0  0  0
 39 41  1  0  0  0  0
 40 42  1  0  0  0  0
 40 43  1  0  0  0  0
 41 45  1  0  0  0  0
 42 47  1  0  0  0  0
 43 68  1  0  0  0  0
 44 47  1  0  0  0  0
 44 68  1  0  0  0  0
 45 72  1  0  0  0  0
 46 67  1  0  0  0  0
 47 66  1  0  0  0  0
 48 54  1  0  0  0  0
 49 59  1  0  0  0  0
 50 62  1  0  0  0  0
 51 62  1  0  0  0  0
 52 62  1  0  0  0  0
 53 74  1  0  0  0  0
 54 60  1  0  0  0  0
 55 57  1  0  0  0  0
 55 61  1  0  0  0  0
 56 60  1  0  0  0  0
 56 65  1  0  0  0  0
 57 82  1  0  0  0  0
 58 62  1  0  0  0  0
 58 73  1  0  0  0  0
 59 74  1  0  0  0  0
 60 61  1  0  0  0  0
 61 80  1  0  0  0  0
 64 66  1  0  0  0  0
M  CHG  1  74   1
M  ISO  4  35 100  57 101  71 100  82 101
M  END
> <Batch ID>
0194

> <Smiles>
CCC(Cn1cnc([100NH:0][100C:0](=O)N2CCCC(n3nc(-c4ccc(Oc5ccc(F)cc5F)cc4)c(C(N)=O)c3N)C2)c1)C(O)C[101CH2:1][101O:1]c1ccc2c(c1)CN(C(=O)C(NC(=O)C(C)NC)C(C)(C)C)C(C(=O)NC1CCCc3ccccc31)C2

> <Shape>
0.219

> <Color>
0.071

> <Negative vol penalty>
0.000

$$$$

  -OEChem-04052305333D

 86 94  0     1  0  0  0  0  0999 V2000
  -25.0735  -31.7424   23.4654 C   0  0  0  0  0  0  0  0  0  0  0  0
  -24.5677  -30.4637   23.2546 C   0  0  0  0  0  0  0  0  0  0  0  0
  -24.6013  -17.6086   18.0922 C   0  0  0  0  0  0  0  0  0  0  0  0
  -23.0111  -17.6958   19.9090 C   0  0  0  0  0  0  0  0  0  0  0  0
  -26.1184  -32.2168   22.6734 C   0  0  0  0  0  0  0  0  0  0  0  0
  -25.1057  -29.6589   22.2510 C   0  0  0  0  0  0  0  0  0  0  0  0
  -25.9018  -24.9016   23.7934 C   0  0  0  0  0  0  0  0  0  0  0  0
  -25.2340  -16.5231   18.6980 C   0  0  0  0  0  0  0  0  0  0  0  0
  -23.6438  -16.6102   20.5148 C   0  0  0  0  0  0  0  0  0  0  0  0
  -24.7920  -24.0606   23.8628 C   0  0  0  0  0  0  0  0  0  0  0  0
  -24.7217  -13.1950   19.0049 C   0  0  0  0  0  0  0  0  0  0  0  0
  -25.0638  -12.1107   18.1971 C   0  0  0  0  0  0  0  0  0  0  0  0
  -25.4068  -23.0844   21.7442 C   0  0  0  0  0  0  0  0  0  0  0  0
  -27.3898  -12.4133   18.7760 C   0  0  0  0  0  0  0  0  0  0  0  0
  -19.5677  -28.9435   22.3900 C   0  0  0  0  0  0  0  0  0  0  0  0
  -23.4899  -18.1950   18.6977 C   0  0  0  0  0  0  0  0  0  0  0  0
  -21.7763  -19.2754   17.1473 C   0  0  0  0  0  0  0  0  0  0  0  0
  -26.6760  -31.4138   21.6659 C   0  0  0  0  0  0  0  0  0  0  0  0
  -26.7679  -24.8478   22.6918 C   0  0  0  0  0  0  0  0  0  0  0  0
  -26.1581  -30.1235   21.4439 C   0  0  0  0  0  0  0  0  0  0  0  0
  -26.5283  -23.9240   21.6645 C   0  0  0  0  0  0  0  0  0  0  0  0
  -24.7552  -16.0239   19.9092 C   0  0  0  0  0  0  0  0  0  0  0  0
  -24.5427  -23.1539   22.8368 C   0  0  0  0  0  0  0  0  0  0  0  0
  -25.7136  -13.8886   19.6983 C   0  0  0  0  0  0  0  0  0  0  0  0
  -26.3979  -11.7198   18.0826 C   0  0  0  0  0  0  0  0  0  0  0  0
  -27.0477  -13.4978   19.5838 C   0  0  0  0  0  0  0  0  0  0  0  0
  -22.8363  -19.3167   18.0728 C   0  0  0  0  0  0  0  0  0  0  0  0
  -19.3747  -26.8892   21.4040 C   0  0  0  0  0  0  0  0  0  0  0  0
  -19.8859  -28.3394   23.5864 C   0  0  0  0  0  0  0  0  0  0  0  0
  -19.6936  -26.2850   22.6002 C   0  0  0  0  0  0  0  0  0  0  0  0
  -21.5194  -20.5937   16.8603 C   0  0  0  0  0  0  0  0  0  0  0  0
  -21.0856  -18.1462   16.5963 C   0  0  0  0  0  0  0  0  0  0  0  0
  -27.6477  -26.8983   20.4280 C   0  0  0  0  0  0  0  0  0  0  0  0
  -29.7064  -24.5243   19.6229 C   0  0  0  0  0  0  0  0  0  0  0  0
  -30.4593  -21.1962   19.6885 C   0  0  0  0  0  0  0  0  0  0  0  0
  -21.4277  -25.7880   19.4147 C   0  0  0  0  0  0  0  0  0  0  0  0
  -27.7726  -31.9875   20.8041 C   0  0  0  0  0  0  0  0  0  0  0  0
  -27.9755  -25.7432   22.6448 C   0  0  0  0  0  0  0  0  0  0  0  0
  -27.4389  -23.8127   20.4699 C   0  0  0  0  0  0  0  0  0  0  0  0
  -28.5374  -30.9325   20.0090 C   0  0  0  0  0  0  0  0  0  0  0  0
  -24.0774  -24.8066   17.2486 C   0  0  0  0  0  0  0  0  0  0  0  0
  -27.5690  -29.9627   19.3393 C   0  0  0  0  0  0  0  0  0  0  0  0
  -23.9290  -23.2870   17.1543 C   0  0  0  0  0  0  0  0  0  0  0  0
  -23.7355  -25.3214   18.6451 C   0  0  0  0  0  0  0  0  0  0  0  0
  -22.2657  -23.3867   19.0575 C   0  0  0  0  0  0  0  0  0  0  0  0
  -26.7319  -29.2113   20.3815 C   0  0  1  0  0  0  0  0  0  0  0  0
  -28.5040  -25.9598   21.2302 C   0  0  1  0  0  0  0  0  0  0  0  0
  -22.5457  -22.8268   17.6524 C   0  0  2  0  0  0  0  0  0  0  0  0
  -32.1904  -19.5526   18.9146 C   0  0  0  0  0  0  0  0  0  0  0  0
  -28.5935  -24.6912   16.7868 C   0  0  0  0  0  0  0  0  0  0  0  0
  -29.6326  -22.4612   16.3225 C   0  0  0  0  0  0  0  0  0  0  0  0
  -31.0747  -24.4073   16.9188 C   0  0  0  0  0  0  0  0  0  0  0  0
  -20.4820  -28.6384   25.9907 C   0  0  0  0  0  0  0  0  0  0  0  0
  -31.1020  -20.3904   22.4627 C   0  0  0  0  0  0  0  0  0  0  0  0
  -19.0853  -26.0953   20.1750 C   0  0  0  0  0  0  0  0  0  0  0  0
  -21.0694  -22.1863   22.9979 C   0  0  0  0  0  0  0  0  0  0  0  0
  -19.6562  -24.1559   23.9006 C   0  0  0  0  0  0  0  0  0  0  0  0
  -22.3147  -22.8209   23.5990 C   0  0  0  0  0  0  0  0  0  1  0  0
  -29.6508  -23.3260   18.7063 C   0  0  1  0  0  0  0  0  0  0  0  0
  -31.7369  -20.4594   20.0480 C   0  0  2  0  0  0  0  0  0  0  0  0
  -19.7624  -22.6510   23.6487 C   0  0  1  0  0  0  0  0  0  0  0  0
  -29.7195  -23.7246   17.2051 C   0  0  0  0  0  0  0  0  0  0  0  0
  -19.3063  -28.2292   21.2773 N   0  0  0  0  0  0  0  0  0  0  0  0
  -23.2261  -20.5627   18.3549 N   0  0  0  0  0  0  0  0  0  0  0  0
  -19.9546  -26.9993   23.7129 N   0  0  0  0  0  0  0  0  0  0  0  0
  -22.4068  -21.3165   17.6022 N   0  0  0  0  0  0  0  0  0  0  0  0
  -28.6030  -24.7140   20.4669 N   0  0  0  0  0  0  0  0  0  0  0  0
  -22.4109  -24.8508   19.0572 N   0  0  0  0  0  0  0  0  0  0  0  0
  -20.6233  -21.1937   16.0482 N   0  0  0  0  0  0  0  0  0  0  0  0
  -21.4767  -16.8620   16.9992 N   0  0  0  0  0  0  0  0  0  0  0  0
  -20.1452  -29.1626   24.7047 N   0  0  0  0  0  0  0  0  0  0  0  0
  -19.7483  -24.9027   22.6669 N   0  0  0  0  0  0  0  0  0  0  0  0
  -27.5113  -28.1538   20.9887 N   0  0  0  0  0  0  0  0  0  0  0  0
  -30.7207  -22.4326   19.1369 N   0  0  0  0  0  0  0  0  0  0  0  0
  -20.1983  -25.2579   19.7867 N   0  0  0  0  0  0  0  0  0  0  0  0
  -31.5280  -19.6234   21.2639 N   0  3  0  0  0  0  0  0  0  0  0  0
  -20.1603  -18.2716   15.7587 O   0  0  0  0  0  0  0  0  0  0  0  0
  -27.1490  -26.5124   19.3772 O   0  0  0  0  0  0  0  0  0  0  0  0
  -30.6958  -25.2605   19.5964 O   0  0  0  0  0  0  0  0  0  0  0  0
  -29.3413  -20.7209   19.8746 O   0  0  0  0  0  0  0  0  0  0  0  0
  -21.6287  -27.0072   19.3982 O   0  0  0  0  0  0  0  0  0  0  0  0
  -18.6657  -22.2576   22.8215 O   0  0  0  0  0  0  0  0  0  0  0  0
  -25.3722  -14.9645   20.5005 O   0  0  0  0  0  0  0  0  0  0  0  0
  -23.4598  -22.3323   22.9017 O   0  0  0  0  0  0  0  0  0  1  0  0
  -26.7261  -10.6775   17.3080 F   0  0  0  0  0  0  0  0  0  0  0  0
  -28.0049  -14.1595   20.2484 F   0  0  0  0  0  0  0  0  0  0  0  0
  1  2  1  0  0  0  0
  1  5  2  0  0  0  0
  2  6  2  0  0  0  0
  3  8  2  0  0  0  0
  3 16  1  0  0  0  0
  4  9  1  0  0  0  0
  4 16  2  0  0  0  0
  5 18  1  0  0  0  0
  6 20  1  0  0  0  0
  7 10  2  0  0  0  0
  7 19  1  0  0  0  0
  8 22  1  0  0  0  0
  9 22  2  0  0  0  0
 10 23  1  0  0  0  0
 11 12  2  0  0  0  0
 11 24  1  0  0  0  0
 12 25  1  0  0  0  0
 13 21  1  0  0  0  0
 13 23  2  0  0  0  0
 14 25  2  0  0  0  0
 14 26  1  0  0  0  0
 15 29  1  0  0  0  0
 15 63  2  0  0  0  0
 16 27  1  0  0  0  0
 17 27  1  0  0  0  0
 17 31  2  0  0  0  0
 17 32  1  0  0  0  0
 18 20  2  0  0  0  0
 18 37  1  0  0  0  0
 19 21  2  0  0  0  0
 19 38  1  0  0  0  0
 20 46  1  0  0  0  0
 21 39  1  0  0  0  0
 22 83  1  0  0  0  0
 23 84  1  0  0  0  0
 24 26  2  0  0  0  0
 24 83  1  0  0  0  0
 25 85  1  0  0  0  0
 26 86  1  0  0  0  0
 27 64  2  0  0  0  0
 28 30  2  0  0  0  0
 28 55  1  0  0  0  0
 28 63  1  0  0  0  0
 29 65  2  0  0  0  0
 29 71  1  0  0  0  0
 30 65  1  0  0  0  0
 30 72  1  0  0  0  0
 31 66  1  0  0  0  0
 31 69  1  0  0  0  0
 32 70  1  0  0  0  0
 32 77  2  0  0  0  0
 33 47  1  0  0  0  0
 33 73  1  0  0  0  0
 33 78  2  0  0  0  0
 34 59  1  0  0  0  0
 34 67  1  0  0  0  0
 34 79  2  0  0  0  0
 35 60  1  0  0  0  0
 35 74  1  0  0  0  0
 35 80  2  0  0  0  0
 36 68  1  0  0  0  0
 36 75  1  0  0  0  0
 36 81  2  0  0  0  0
 37 40  1  0  0  0  0
 38 47  1  0  0  0  0
 39 67  1  0  0  0  0
 40 42  1  0  0  0  0
 41 43  1  0  0  0  0
 41 44  1  0  0  0  0
 42 46  1  0  0  0  0
 43 48  1  0  0  0  0
 44 68  1  0  0  0  0
 45 48  1  0  0  0  0
 45 68  1  0  0  0  0
 46 73  1  0  0  0  0
 47 67  1  0  0  0  0
 48 66  1  0  0  0  0
 49 60  1  0  0  0  0
 50 62  1  0  0  0  0
 51 62  1  0  0  0  0
 52 62  1  0  0  0  0
 53 71  1  0  0  0  0
 54 76  1  0  0  0  0
 55 75  1  0  0  0  0
 56 58  1  0  0  0  0
 56 61  1  0  0  0  0
 57 61  1  0  0  0  0
 57 72  1  0  0  0  0
 58 84  1  0  0  0  0
 59 62  1  0  0  0  0
 59 74  1  0  0  0  0
 60 76  1  0  0  0  0
 61 82  1  0  0  0  0
 64 66  1  0  0  0  0
M  CHG  1  76   1
M  ISO  4  36 100  58 101  75 100  84 101
M  END
> <Batch ID>
0194

> <Smiles>
CNc1cnc(C[100NH:0][100C:0](=O)N2CCCC(n3nc(-c4ccc(Oc5ccc(F)cc5F)cc4)c(C(N)=O)c3N)C2)c(NCC(O)C[101CH2:1][101O:1]c2ccc3c(c2)CN(C(=O)C(NC(=O)C(C)NC)C(C)(C)C)C(C(=O)NC2CCCc4ccccc42)C3)n1

> <Shape>
0.189

> <Color>
0.070

> <Negative vol penalty>
0.000

$$$$

  -OEChem-04052305333D

 84 92  0     1  0  0  0  0  0999 V2000
  -28.1858  -35.8797   23.4086 C   0  0  0  0  0  0  0  0  0  0  0  0
  -28.3874  -34.5193   23.1986 C   0  0  0  0  0  0  0  0  0  0  0  0
  -27.4268  -14.8854   21.5702 C   0  0  0  0  0  0  0  0  0  0  0  0
  -26.5346  -15.0504   19.3311 C   0  0  0  0  0  0  0  0  0  0  0  0
  -26.9460  -36.3394   23.8507 C   0  0  0  0  0  0  0  0  0  0  0  0
  -27.3496  -33.6177   23.4317 C   0  0  0  0  0  0  0  0  0  0  0  0
  -26.8933  -30.1833   19.7382 C   0  0  0  0  0  0  0  0  0  0  0  0
  -26.9336  -13.5845   21.6709 C   0  0  0  0  0  0  0  0  0  0  0  0
  -26.0415  -13.7495   19.4317 C   0  0  0  0  0  0  0  0  0  0  0  0
  -27.8019  -29.1258   19.7363 C   0  0  0  0  0  0  0  0  0  0  0  0
  -27.8145  -10.4976   20.6090 C   0  0  0  0  0  0  0  0  0  0  0  0
  -28.6592   -9.5235   21.1413 C   0  0  0  0  0  0  0  0  0  0  0  0
  -26.1412  -27.7050   20.7574 C   0  0  0  0  0  0  0  0  0  0  0  0
  -27.0701   -9.1148   22.9147 C   0  0  0  0  0  0  0  0  0  0  0  0
  -27.2272  -15.6184   20.4003 C   0  0  0  0  0  0  0  0  0  0  0  0
  -29.0006  -17.3582   19.8210 C   0  0  0  0  0  0  0  0  0  0  0  0
  -25.8895  -35.4440   24.0801 C   0  0  0  0  0  0  0  0  0  0  0  0
  -25.6032  -30.0123   20.2606 C   0  0  0  0  0  0  0  0  0  0  0  0
  -26.0949  -34.0657   23.8786 C   0  0  0  0  0  0  0  0  0  0  0  0
  -25.2173  -28.7612   20.7625 C   0  0  0  0  0  0  0  0  0  0  0  0
  -26.2410  -13.0165   20.6016 C   0  0  0  0  0  0  0  0  0  0  0  0
  -27.4269  -27.8873   20.2485 C   0  0  0  0  0  0  0  0  0  0  0  0
  -26.5977  -10.7803   21.2296 C   0  0  0  0  0  0  0  0  0  0  0  0
  -28.2870   -8.8321   22.2942 C   0  0  0  0  0  0  0  0  0  0  0  0
  -26.2255  -10.0889   22.3824 C   0  0  0  0  0  0  0  0  0  0  0  0
  -27.7359  -16.9624   20.2960 C   0  0  0  0  0  0  0  0  0  0  0  0
  -28.9929  -18.7278   19.9241 C   0  0  0  0  0  0  0  0  0  0  0  0
  -24.6092  -23.9529   16.9250 C   0  0  0  0  0  0  0  0  0  0  0  0
  -25.0328  -25.2568   15.1482 C   0  0  0  0  0  0  0  0  0  0  0  0
  -26.6209  -24.9217   16.6982 C   0  0  0  0  0  0  0  0  0  0  0  0
  -30.0854  -16.5593   19.3304 C   0  0  0  0  0  0  0  0  0  0  0  0
  -23.9652  -31.3032   22.6594 C   0  0  0  0  0  0  0  0  0  0  0  0
  -21.5335  -29.5415   21.4326 C   0  0  0  0  0  0  0  0  0  0  0  0
  -20.5551  -26.8434   19.5860 C   0  0  0  0  0  0  0  0  0  0  0  0
  -24.5924  -22.7878   19.9804 C   0  0  0  0  0  0  0  0  0  0  0  0
  -24.5816  -35.9830   24.6029 C   0  0  0  0  0  0  0  0  0  0  0  0
  -24.6262  -31.1555   20.2310 C   0  0  0  0  0  0  0  0  0  0  0  0
  -23.8375  -28.5201   21.3162 C   0  0  0  0  0  0  0  0  0  0  0  0
  -23.4204  -35.0014   24.4674 C   0  0  0  0  0  0  0  0  0  0  0  0
  -27.0680  -22.2790   22.4882 C   0  0  0  0  0  0  0  0  0  0  0  0
  -23.8359  -33.6138   24.9456 C   0  0  0  0  0  0  0  0  0  0  0  0
  -27.6340  -20.8945   22.1679 C   0  0  0  0  0  0  0  0  0  0  0  0
  -25.5672  -22.3521   22.2157 C   0  0  0  0  0  0  0  0  0  0  0  0
  -25.7293  -20.5534   20.5386 C   0  0  0  0  0  0  0  0  0  0  0  0
  -24.9861  -33.0591   24.0967 C   0  0  1  0  0  0  0  0  0  0  0  0
  -23.5074  -31.0121   21.2582 C   0  0  1  0  0  0  0  0  0  0  0  0
  -27.2500  -20.4473   20.7446 C   0  0  2  0  0  0  0  0  0  0  0  0
  -18.5012  -25.6405   18.7912 C   0  0  0  0  0  0  0  0  0  0  0  0
  -28.7904  -23.1213   18.1475 C   0  0  0  0  0  0  0  0  0  0  0  0
  -21.1509  -28.3586   24.2190 C   0  0  0  0  0  0  0  0  0  0  0  0
  -19.7854  -26.5347   23.1813 C   0  0  0  0  0  0  0  0  0  0  0  0
  -19.0270  -28.9055   23.0172 C   0  0  0  0  0  0  0  0  0  0  0  0
  -21.2484  -27.2959   16.7446 C   0  0  0  0  0  0  0  0  0  0  0  0
  -23.6757  -23.0801   17.6928 C   0  0  0  0  0  0  0  0  0  0  0  0
  -29.6264  -25.3811   18.8820 C   0  0  0  0  0  0  0  0  0  0  0  0
  -29.2857  -26.8324   19.2054 C   0  0  0  0  0  0  0  0  0  1  0  0
  -21.0118  -28.1417   21.6500 C   0  0  1  0  0  0  0  0  0  0  0  0
  -19.5391  -26.7037   18.4668 C   0  0  2  0  0  0  0  0  0  0  0  0
  -28.4147  -24.5783   18.3982 C   0  0  1  0  0  0  0  0  0  0  0  0
  -20.2705  -27.9899   23.0083 C   0  0  0  0  0  0  0  0  0  0  0  0
  -26.9798  -17.9969   20.6730 N   0  0  0  0  0  0  0  0  0  0  0  0
  -24.1381  -24.4847   15.7854 N   0  0  0  0  0  0  0  0  0  0  0  0
  -25.8360  -24.1263   17.4427 N   0  0  0  0  0  0  0  0  0  0  0  0
  -26.2888  -25.5205   15.5432 N   0  0  0  0  0  0  0  0  0  0  0  0
  -27.7717  -19.0563   20.4350 N   0  0  0  0  0  0  0  0  0  0  0  0
  -22.9202  -29.6708   21.2709 N   0  0  0  0  0  0  0  0  0  0  0  0
  -25.2704  -21.9165   20.8489 N   0  0  0  0  0  0  0  0  0  0  0  0
  -29.9117  -19.6711   19.6268 N   0  0  0  0  0  0  0  0  0  0  0  0
  -24.6090  -25.8531   13.9405 N   0  0  0  0  0  0  0  0  0  0  0  0
  -29.9260  -15.1674   19.2921 N   0  0  0  0  0  0  0  0  0  0  0  0
  -27.9018  -25.1473   17.1694 N   0  0  0  0  0  0  0  0  0  0  0  0
  -24.4884  -32.5710   22.8284 N   0  0  0  0  0  0  0  0  0  0  0  0
  -20.1938  -27.8252   20.4842 N   0  0  0  0  0  0  0  0  0  0  0  0
  -24.3566  -22.2990   18.7012 N   0  0  0  0  0  0  0  0  0  0  0  0
  -20.2179  -26.3254   17.1952 N   0  3  0  0  0  0  0  0  0  0  0  0
  -31.1701  -17.0637   18.9530 O   0  0  0  0  0  0  0  0  0  0  0  0
  -23.8509  -30.4420   23.5236 O   0  0  0  0  0  0  0  0  0  0  0  0
  -20.7391  -30.4846   21.3999 O   0  0  0  0  0  0  0  0  0  0  0  0
  -21.5662  -26.1484   19.6583 O   0  0  0  0  0  0  0  0  0  0  0  0
  -24.2291  -23.9195   20.3182 O   0  0  0  0  0  0  0  0  0  0  0  0
  -25.7599  -11.7471   20.6994 O   0  0  0  0  0  0  0  0  0  0  0  0
  -28.3120  -26.8536   20.2484 O   0  0  0  0  0  0  0  0  0  1  0  0
  -29.0975   -7.8956   22.8044 F   0  0  0  0  0  0  0  0  0  0  0  0
  -25.0572  -10.3553   22.9823 F   0  0  0  0  0  0  0  0  0  0  0  0
  1  2  1  0  0  0  0
  1  5  2  0  0  0  0
  2  6  2  0  0  0  0
  3  8  2  0  0  0  0
  3 15  1  0  0  0  0
  4  9  1  0  0  0  0
  4 15  2  0  0  0  0
  5 17  1  0  0  0  0
  6 19  1  0  0  0  0
  7 10  2  0  0  0  0
  7 18  1  0  0  0  0
  8 21  1  0  0  0  0
  9 21  2  0  0  0  0
 10 22  1  0  0  0  0
 11 12  2  0  0  0  0
 11 23  1  0  0  0  0
 12 24  1  0  0  0  0
 13 20  1  0  0  0  0
 13 22  2  0  0  0  0
 14 24  2  0  0  0  0
 14 25  1  0  0  0  0
 15 26  1  0  0  0  0
 16 26  1  0  0  0  0
 16 27  2  0  0  0  0
 16 31  1  0  0  0  0
 17 19  2  0  0  0  0
 17 36  1  0  0  0  0
 18 20  2  0  0  0  0
 18 37  1  0  0  0  0
 19 45  1  0  0  0  0
 20 38  1  0  0  0  0
 21 81  1  0  0  0  0
 22 82  1  0  0  0  0
 23 25  2  0  0  0  0
 23 81  1  0  0  0  0
 24 83  1  0  0  0  0
 25 84  1  0  0  0  0
 26 61  2  0  0  0  0
 27 65  1  0  0  0  0
 27 68  1  0  0  0  0
 28 54  1  0  0  0  0
 28 62  2  0  0  0  0
 28 63  1  0  0  0  0
 29 62  1  0  0  0  0
 29 64  2  0  0  0  0
 29 69  1  0  0  0  0
 30 63  2  0  0  0  0
 30 64  1  0  0  0  0
 30 71  1  0  0  0  0
 31 70  1  0  0  0  0
 31 76  2  0  0  0  0
 32 46  1  0  0  0  0
 32 72  1  0  0  0  0
 32 77  2  0  0  0  0
 33 57  1  0  0  0  0
 33 66  1  0  0  0  0
 33 78  2  0  0  0  0
 34 58  1  0  0  0  0
 34 73  1  0  0  0  0
 34 79  2  0  0  0  0
 35 67  1  0  0  0  0
 35 74  1  0  0  0  0
 35 80  2  0  0  0  0
 36 39  1  0  0  0  0
 37 46  1  0  0  0  0
 38 66  1  0  0  0  0
 39 41  1  0  0  0  0
 40 42  1  0  0  0  0
 40 43  1  0  0  0  0
 41 45  1  0  0  0  0
 42 47  1  0  0  0  0
 43 67  1  0  0  0  0
 44 47  1  0  0  0  0
 44 67  1  0  0  0  0
 45 72  1  0  0  0  0
 46 66  1  0  0  0  0
 47 65  1  0  0  0  0
 48 58  1  0  0  0  0
 49 59  1  0  0  0  0
 50 60  1  0  0  0  0
 51 60  1  0  0  0  0
 52 60  1  0  0  0  0
 53 75  1  0  0  0  0
 54 74  1  0  0  0  0
 55 56  1  0  0  0  0
 55 59  1  0  0  0  0
 56 82  1  0  0  0  0
 57 60  1  0  0  0  0
 57 73  1  0  0  0  0
 58 75  1  0  0  0  0
 59 71  1  0  0  0  0
 61 65  1  0  0  0  0
M  CHG  1  75   1
M  ISO  4  35 100  56 101  74 100  82 101
M  END
> <Batch ID>
0194

> <Smiles>
CNC(C)C(=O)NC(C(=O)N1Cc2cc([101O:1][101CH2:1]CC(C)Nc3nc(N)nc(C[100NH:0][100C:0](=O)N4CCCC(n5nc(-c6ccc(Oc7ccc(F)cc7F)cc6)c(C(N)=O)c5N)C4)n3)ccc2CC1C(=O)NC1CCCc2ccccc21)C(C)(C)C

> <Shape>
0.255

> <Color>
0.067

> <Negative vol penalty>
0.000

$$$$

  -OEChem-04052305333D

 89 97  0     1  0  0  0  0  0999 V2000
  -22.3964  -32.9260   22.7762 C   0  0  0  0  0  0  0  0  0  0  0  0
  -23.4987  -32.1300   22.4819 C   0  0  0  0  0  0  0  0  0  0  0  0
  -23.1646   -9.8163   21.2983 C   0  0  0  0  0  0  0  0  0  0  0  0
  -23.9017  -10.6299   23.4505 C   0  0  0  0  0  0  0  0  0  0  0  0
  -21.5526  -32.5835   23.8320 C   0  0  0  0  0  0  0  0  0  0  0  0
  -23.7585  -30.9915   23.2440 C   0  0  0  0  0  0  0  0  0  0  0  0
  -24.9598  -26.9799   20.3963 C   0  0  0  0  0  0  0  0  0  0  0  0
  -29.8168  -19.7952   21.2236 C   0  0  0  0  0  0  0  0  0  0  0  0
  -22.4777   -8.7774   21.9263 C   0  0  0  0  0  0  0  0  0  0  0  0
  -23.2147   -9.5909   24.0785 C   0  0  0  0  0  0  0  0  0  0  0  0
  -26.2565  -26.9260   19.8869 C   0  0  0  0  0  0  0  0  0  0  0  0
  -23.2144   -5.7818   23.3076 C   0  0  0  0  0  0  0  0  0  0  0  0
  -23.3421   -4.5020   22.7678 C   0  0  0  0  0  0  0  0  0  0  0  0
  -29.4096  -18.4657   21.2357 C   0  0  0  0  0  0  0  0  0  0  0  0
  -26.8778  -25.3977   21.6468 C   0  0  0  0  0  0  0  0  0  0  0  0
  -20.9556   -4.4191   22.4002 C   0  0  0  0  0  0  0  0  0  0  0  0
  -31.8522  -19.1084   20.2029 C   0  0  0  0  0  0  0  0  0  0  0  0
  -23.8767  -10.7426   22.0605 C   0  0  0  0  0  0  0  0  0  0  0  0
  -24.0915  -13.0954   21.0985 C   0  0  0  0  0  0  0  0  0  0  0  0
  -21.7967  -31.4350   24.6013 C   0  0  0  0  0  0  0  0  0  0  0  0
  -24.6147  -26.2504   21.5431 C   0  0  0  0  0  0  0  0  0  0  0  0
  -22.9180  -30.6340   24.3119 C   0  0  0  0  0  0  0  0  0  0  0  0
  -25.5754  -25.4420   22.1673 C   0  0  0  0  0  0  0  0  0  0  0  0
  -31.0599  -20.1310   20.6991 C   0  0  0  0  0  0  0  0  0  0  0  0
  -22.5027   -8.6647   23.3163 C   0  0  0  0  0  0  0  0  0  0  0  0
  -27.2165  -26.1371   20.5139 C   0  0  0  0  0  0  0  0  0  0  0  0
  -21.9573   -6.3802   23.3939 C   0  0  0  0  0  0  0  0  0  0  0  0
  -22.2127   -3.8207   22.3140 C   0  0  0  0  0  0  0  0  0  0  0  0
  -20.8280   -5.6988   22.9401 C   0  0  0  0  0  0  0  0  0  0  0  0
  -24.5869  -11.8157   21.4124 C   0  0  0  0  0  0  0  0  0  0  0  0
  -30.2757  -17.5177   20.7152 C   0  0  0  0  0  0  0  0  0  0  0  0
  -25.1477  -13.7343   20.4962 C   0  0  0  0  0  0  0  0  0  0  0  0
  -22.7926  -13.6566   21.3307 C   0  0  0  0  0  0  0  0  0  0  0  0
  -23.5857  -27.0027   24.4549 C   0  0  0  0  0  0  0  0  0  0  0  0
  -23.3081  -23.7856   24.7642 C   0  0  0  0  0  0  0  0  0  0  0  0
  -24.2979  -20.6813   23.7490 C   0  0  0  0  0  0  0  0  0  0  0  0
  -30.5521  -15.0543   20.2661 C   0  0  0  0  0  0  0  0  0  0  0  0
  -20.8833  -31.1313   25.7624 C   0  0  0  0  0  0  0  0  0  0  0  0
  -23.2046  -26.2983   22.0644 C   0  0  0  0  0  0  0  0  0  0  0  0
  -25.2504  -24.6237   23.3893 C   0  0  0  0  0  0  0  0  0  0  0  0
  -21.0163  -29.7031   26.2847 C   0  0  0  0  0  0  0  0  0  0  0  0
  -29.5835  -11.9332   18.8527 C   0  0  0  0  0  0  0  0  0  0  0  0
  -22.4861  -29.3284   26.4460 C   0  0  0  0  0  0  0  0  0  0  0  0
  -28.1564  -11.7297   19.3668 C   0  0  0  0  0  0  0  0  0  0  0  0
  -30.4745  -12.5976   19.9007 C   0  0  0  0  0  0  0  0  0  0  0  0
  -28.5205  -13.6451   20.9748 C   0  0  0  0  0  0  0  0  0  0  0  0
  -23.2190  -29.3776   25.0999 C   0  0  1  0  0  0  0  0  0  0  0  0
  -23.0989  -25.9167   23.5377 C   0  0  1  0  0  0  0  0  0  0  0  0
  -27.5688  -13.0380   19.9311 C   0  0  2  0  0  0  0  0  0  0  0  0
  -32.5572  -21.5826   23.0063 C   0  0  0  0  0  0  0  0  0  0  0  0
  -23.9219  -18.2440   24.2132 C   0  0  0  0  0  0  0  0  0  0  0  0
  -33.9989  -24.2751   16.5114 C   0  0  0  0  0  0  0  0  0  0  0  0
  -33.9537  -25.1774   18.8451 C   0  0  0  0  0  0  0  0  0  0  0  0
  -25.0027  -24.0081   27.2919 C   0  0  0  0  0  0  0  0  0  0  0  0
  -25.3842  -21.5367   27.1698 C   0  0  0  0  0  0  0  0  0  0  0  0
  -23.0728  -22.4270   27.4655 C   0  0  0  0  0  0  0  0  0  0  0  0
  -23.3186  -20.1898   20.9998 C   0  0  0  0  0  0  0  0  0  0  0  0
  -31.5709  -22.2448   22.0519 C   0  0  0  0  0  0  0  0  0  0  0  0
  -32.2668  -23.4323   18.1883 C   0  0  0  0  0  0  0  0  0  0  0  0
  -29.2077  -24.8704   20.2199 C   0  0  0  0  0  0  0  0  0  1  0  0
  -31.5307  -21.5687   20.6711 C   0  0  2  0  0  0  0  0  0  0  0  0
  -24.2188  -22.6734   25.2254 C   0  0  1  0  0  0  0  0  0  0  0  0
  -23.5035  -19.4427   23.3760 C   0  0  2  0  0  0  0  0  0  0  0  0
  -33.0998  -24.6354   17.6945 C   0  0  0  0  0  0  0  0  0  0  0  0
  -31.3292  -23.6962   19.3781 C   0  0  1  0  0  0  0  0  0  0  0  0
  -30.1958  -24.6912   19.0687 C   0  0  1  0  0  0  0  0  0  0  0  0
  -24.4266  -22.6781   26.7663 C   0  0  0  0  0  0  0  0  0  0  0  0
  -31.4908  -17.8057   20.1974 N   0  0  0  0  0  0  0  0  0  0  0  0
  -25.8589  -11.6496   21.0401 N   0  0  0  0  0  0  0  0  0  0  0  0
  -26.1716  -12.8334   20.4860 N   0  0  0  0  0  0  0  0  0  0  0  0
  -23.8596  -24.7089   23.8647 N   0  0  0  0  0  0  0  0  0  0  0  0
  -29.8559  -13.8330   20.3865 N   0  0  0  0  0  0  0  0  0  0  0  0
  -25.2911  -14.9733   19.9796 N   0  0  0  0  0  0  0  0  0  0  0  0
  -21.8249  -12.8628   21.9613 N   0  0  0  0  0  0  0  0  0  0  0  0
  -29.8511  -16.1659   20.7324 N   0  0  0  0  0  0  0  0  0  0  0  0
  -22.9128  -28.2014   24.3144 N   0  0  0  0  0  0  0  0  0  0  0  0
  -23.6489  -21.4361   24.7031 N   0  0  0  0  0  0  0  0  0  0  0  0
  -23.7111  -19.1076   21.9388 N   0  3  0  0  0  0  0  0  0  0  0  0
  -30.6861  -22.4061   19.7863 N   0  3  0  0  0  0  0  0  0  0  0  0
  -22.4939  -14.8216   20.9742 O   0  0  0  0  0  0  0  0  0  0  0  0
  -24.5028  -26.7699   25.2336 O   0  0  0  0  0  0  0  0  0  0  0  0
  -22.1480  -23.8294   25.1811 O   0  0  0  0  0  0  0  0  0  0  0  0
  -25.3870  -20.9503   23.2471 O   0  0  0  0  0  0  0  0  0  0  0  0
  -31.6755  -15.1137   19.7598 O   0  0  0  0  0  0  0  0  0  0  0  0
  -29.4642  -24.1826   17.9457 O   0  0  0  0  0  0  0  0  0  0  0  0
  -21.8324   -7.6511   23.9294 O   0  0  0  0  0  0  0  0  0  0  0  0
  -28.4830  -26.0832   20.0191 O   0  0  0  0  0  0  0  0  0  1  0  0
  -22.3356   -2.5923   21.7942 F   0  0  0  0  0  0  0  0  0  0  0  0
  -19.6178   -6.2690   23.0193 F   0  0  0  0  0  0  0  0  0  0  0  0
  1  2  1  0  0  0  0
  1  5  2  0  0  0  0
  2  6  2  0  0  0  0
  3  9  2  0  0  0  0
  3 18  1  0  0  0  0
  4 10  1  0  0  0  0
  4 18  2  0  0  0  0
  5 20  1  0  0  0  0
  6 22  1  0  0  0  0
  7 11  2  0  0  0  0
  7 21  1  0  0  0  0
  8 14  2  0  0  0  0
  8 24  1  0  0  0  0
  9 25  1  0  0  0  0
 10 25  2  0  0  0  0
 11 26  1  0  0  0  0
 12 13  2  0  0  0  0
 12 27  1  0  0  0  0
 13 28  1  0  0  0  0
 14 31  1  0  0  0  0
 15 23  1  0  0  0  0
 15 26  2  0  0  0  0
 16 28  2  0  0  0  0
 16 29  1  0  0  0  0
 17 24  2  0  0  0  0
 17 68  1  0  0  0  0
 18 30  1  0  0  0  0
 19 30  1  0  0  0  0
 19 32  2  0  0  0  0
 19 33  1  0  0  0  0
 20 22  2  0  0  0  0
 20 38  1  0  0  0  0
 21 23  2  0  0  0  0
 21 39  1  0  0  0  0
 22 47  1  0  0  0  0
 23 40  1  0  0  0  0
 24 61  1  0  0  0  0
 25 86  1  0  0  0  0
 26 87  1  0  0  0  0
 27 29  2  0  0  0  0
 27 86  1  0  0  0  0
 28 88  1  0  0  0  0
 29 89  1  0  0  0  0
 30 69  2  0  0  0  0
 31 68  2  0  0  0  0
 31 75  1  0  0  0  0
 32 70  1  0  0  0  0
 32 73  1  0  0  0  0
 33 74  1  0  0  0  0
 33 80  2  0  0  0  0
 34 48  1  0  0  0  0
 34 76  1  0  0  0  0
 34 81  2  0  0  0  0
 35 62  1  0  0  0  0
 35 71  1  0  0  0  0
 35 82  2  0  0  0  0
 36 63  1  0  0  0  0
 36 77  1  0  0  0  0
 36 83  2  0  0  0  0
 37 72  1  0  0  0  0
 37 75  1  0  0  0  0
 37 84  2  0  0  0  0
 38 41  1  0  0  0  0
 39 48  1  0  0  0  0
 40 71  1  0  0  0  0
 41 43  1  0  0  0  0
 42 44  1  0  0  0  0
 42 45  1  0  0  0  0
 43 47  1  0  0  0  0
 44 49  1  0  0  0  0
 45 72  1  0  0  0  0
 46 49  1  0  0  0  0
 46 72  1  0  0  0  0
 47 76  1  0  0  0  0
 48 71  1  0  0  0  0
 49 70  1  0  0  0  0
 50 58  1  0  0  0  0
 51 63  1  0  0  0  0
 52 64  1  0  0  0  0
 53 64  1  0  0  0  0
 54 67  1  0  0  0  0
 55 67  1  0  0  0  0
 56 67  1  0  0  0  0
 57 78  1  0  0  0  0
 58 61  1  0  0  0  0
 59 64  1  0  0  0  0
 59 65  1  0  0  0  0
 60 66  1  0  0  0  0
 60 87  1  0  0  0  0
 61 79  1  0  0  0  0
 62 67  1  0  0  0  0
 62 77  1  0  0  0  0
 63 78  1  0  0  0  0
 65 66  1  0  0  0  0
 65 79  1  0  0  0  0
 66 85  1  0  0  0  0
 69 70  1  0  0  0  0
M  CHG  2  78   1  79   1
M  ISO  4  37 100  60 101  75 100  87 101
M  END
> <Batch ID>
0194

> <Smiles>
CCC(NC(CC(C)C)C(O)[101CH2:1][101O:1]c1ccc2c(c1)CN(C(=O)C(NC(=O)C(C)NC)C(C)(C)C)C(C(=O)NC1CCCc3ccccc31)C2)c1ccc([100NH:0][100C:0](=O)N2CCCC(n3nc(-c4ccc(Oc5ccc(F)cc5F)cc4)c(C(N)=O)c3N)C2)nc1

> <Shape>
0.229

> <Color>
0.157

> <Negative vol penalty>
0.000

$$$$

  -OEChem-04052305333D

 83 91  0     1  0  0  0  0  0999 V2000
  -19.6546  -23.9261   21.7996 C   0  0  0  0  0  0  0  0  0  0  0  0
  -20.8561  -24.3315   21.2273 C   0  0  0  0  0  0  0  0  0  0  0  0
  -24.6230  -14.9658   21.4985 C   0  0  0  0  0  0  0  0  0  0  0  0
  -27.0347  -14.8635   21.3984 C   0  0  0  0  0  0  0  0  0  0  0  0
  -18.7567  -24.8781   22.2806 C   0  0  0  0  0  0  0  0  0  0  0  0
  -21.1599  -25.6892   21.1346 C   0  0  0  0  0  0  0  0  0  0  0  0
  -25.9260  -26.7117   22.5070 C   0  0  0  0  0  0  0  0  0  0  0  0
  -24.5512  -13.6177   21.1478 C   0  0  0  0  0  0  0  0  0  0  0  0
  -26.9630  -13.5153   21.0477 C   0  0  0  0  0  0  0  0  0  0  0  0
  -26.9294  -26.4313   21.5805 C   0  0  0  0  0  0  0  0  0  0  0  0
  -24.9362  -10.6236   22.6711 C   0  0  0  0  0  0  0  0  0  0  0  0
  -24.0584   -9.8126   23.3902 C   0  0  0  0  0  0  0  0  0  0  0  0
  -26.9996  -28.7615   20.9604 C   0  0  0  0  0  0  0  0  0  0  0  0
  -22.8654   -9.2979   21.3533 C   0  0  0  0  0  0  0  0  0  0  0  0
  -31.4879  -21.4078   18.9760 C   0  0  0  0  0  0  0  0  0  0  0  0
  -32.9058  -22.9977   18.1447 C   0  0  0  0  0  0  0  0  0  0  0  0
  -25.8647  -15.5887   21.6237 C   0  0  0  0  0  0  0  0  0  0  0  0
  -26.0164  -17.5196   23.2840 C   0  0  0  0  0  0  0  0  0  0  0  0
  -19.0539  -26.2479   22.2025 C   0  0  0  0  0  0  0  0  0  0  0  0
  -25.4434  -28.0194   22.6596 C   0  0  0  0  0  0  0  0  0  0  0  0
  -20.2645  -26.6605   21.6138 C   0  0  0  0  0  0  0  0  0  0  0  0
  -25.9918  -29.0563   21.8913 C   0  0  0  0  0  0  0  0  0  0  0  0
  -25.7212  -12.8924   20.9224 C   0  0  0  0  0  0  0  0  0  0  0  0
  -27.4643  -27.4558   20.8050 C   0  0  0  0  0  0  0  0  0  0  0  0
  -24.7787  -10.7719   21.2931 C   0  0  0  0  0  0  0  0  0  0  0  0
  -23.0229   -9.1497   22.7313 C   0  0  0  0  0  0  0  0  0  0  0  0
  -23.7432  -10.1090   20.6342 C   0  0  0  0  0  0  0  0  0  0  0  0
  -25.9395  -16.9815   21.9854 C   0  0  0  0  0  0  0  0  0  0  0  0
  -30.4071  -22.1673   18.5853 C   0  0  0  0  0  0  0  0  0  0  0  0
  -31.8251  -23.7570   17.7533 C   0  0  0  0  0  0  0  0  0  0  0  0
  -26.0669  -18.8784   23.0901 C   0  0  0  0  0  0  0  0  0  0  0  0
  -26.0403  -16.8509   24.5521 C   0  0  0  0  0  0  0  0  0  0  0  0
  -22.6227  -29.4301   22.2627 C   0  0  0  0  0  0  0  0  0  0  0  0
  -24.1625  -31.9899   23.5272 C   0  0  0  0  0  0  0  0  0  0  0  0
  -27.1174  -33.5916   24.1188 C   0  0  0  0  0  0  0  0  0  0  0  0
  -27.8913  -22.2870   18.5340 C   0  0  0  0  0  0  0  0  0  0  0  0
  -18.0310  -27.2418   22.6931 C   0  0  0  0  0  0  0  0  0  0  0  0
  -24.3794  -28.3099   23.6823 C   0  0  0  0  0  0  0  0  0  0  0  0
  -25.5226  -30.4806   22.0313 C   0  0  0  0  0  0  0  0  0  0  0  0
  -18.5948  -28.6457   22.8968 C   0  0  0  0  0  0  0  0  0  0  0  0
  -24.6585  -22.2788   20.0261 C   0  0  0  0  0  0  0  0  0  0  0  0
  -19.4406  -29.0606   21.6971 C   0  0  0  0  0  0  0  0  0  0  0  0
  -24.6294  -20.9713   20.8210 C   0  0  0  0  0  0  0  0  0  0  0  0
  -25.4178  -22.1252   18.7094 C   0  0  0  0  0  0  0  0  0  0  0  0
  -26.7426  -20.2630   19.6294 C   0  0  0  0  0  0  0  0  0  0  0  0
  -20.6409  -28.1231   21.5177 C   0  0  1  0  0  0  0  0  0  0  0  0
  -23.6032  -29.5903   23.3899 C   0  0  1  0  0  0  0  0  0  0  0  0
  -26.0444  -20.3852   20.9937 C   0  0  2  0  0  0  0  0  0  0  0  0
  -28.0539  -35.6840   25.1397 C   0  0  0  0  0  0  0  0  0  0  0  0
  -31.5867  -26.7629   15.5842 C   0  0  0  0  0  0  0  0  0  0  0  0
  -23.2521  -33.5836   21.0898 C   0  0  0  0  0  0  0  0  0  0  0  0
  -24.9617  -35.3176   21.6719 C   0  0  0  0  0  0  0  0  0  0  0  0
  -23.1030  -34.8190   23.2592 C   0  0  0  0  0  0  0  0  0  0  0  0
  -28.6828  -32.0588   26.1086 C   0  0  0  0  0  0  0  0  0  0  0  0
  -29.0533  -27.2175   17.5594 C   0  0  0  0  0  0  0  0  0  0  0  0
  -30.4608  -26.6721   17.8382 C   0  0  0  0  0  0  0  0  0  0  0  0
  -28.5004  -28.0114   18.7377 C   0  0  0  0  0  0  0  0  0  1  0  0
  -24.9679  -33.1371   22.9667 C   0  0  1  0  0  0  0  0  0  0  0  0
  -27.6844  -34.2277   25.3751 C   0  0  2  0  0  0  0  0  0  0  0  0
  -31.0152  -25.8513   16.6654 C   0  0  2  0  0  0  0  0  0  0  0  0
  -24.0789  -34.1873   22.2426 C   0  0  0  0  0  0  0  0  0  0  0  0
  -32.7566  -21.8094   18.7627 N   0  0  0  0  0  0  0  0  0  0  0  0
  -25.9405  -17.9217   21.0367 N   0  0  0  0  0  0  0  0  0  0  0  0
  -30.5564  -23.3555   17.9669 N   0  0  0  0  0  0  0  0  0  0  0  0
  -26.0186  -19.0643   21.7398 N   0  0  0  0  0  0  0  0  0  0  0  0
  -24.4760  -30.7129   23.0404 N   0  0  0  0  0  0  0  0  0  0  0  0
  -26.7508  -21.5689   18.9516 N   0  0  0  0  0  0  0  0  0  0  0  0
  -26.1473  -19.9203   23.9447 N   0  0  0  0  0  0  0  0  0  0  0  0
  -25.9809  -15.4508   24.5703 N   0  0  0  0  0  0  0  0  0  0  0  0
  -29.1045  -21.6750   18.8473 N   0  0  0  0  0  0  0  0  0  0  0  0
  -32.0648  -24.9656   17.1245 N   0  0  0  0  0  0  0  0  0  0  0  0
  -21.6792  -28.4428   22.4738 N   0  0  0  0  0  0  0  0  0  0  0  0
  -25.7416  -33.6752   24.0803 N   0  0  0  0  0  0  0  0  0  0  0  0
  -28.9061  -33.4987   25.8188 N   0  3  0  0  0  0  0  0  0  0  0  0
  -26.0956  -17.4773   25.6375 O   0  0  0  0  0  0  0  0  0  0  0  0
  -22.7145  -30.1499   21.2752 O   0  0  0  0  0  0  0  0  0  0  0  0
  -23.2923  -32.2174   24.3714 O   0  0  0  0  0  0  0  0  0  0  0  0
  -27.8245  -33.0756   23.2560 O   0  0  0  0  0  0  0  0  0  0  0  0
  -27.7991  -23.3784   17.9663 O   0  0  0  0  0  0  0  0  0  0  0  0
  -25.6515  -11.5768   20.5804 O   0  0  0  0  0  0  0  0  0  0  0  0
  -28.4434  -27.1848   19.8995 O   0  0  0  0  0  0  0  0  0  1  0  0
  -22.1809   -8.3697   23.4218 F   0  0  0  0  0  0  0  0  0  0  0  0
  -23.5875  -10.2466   19.3103 F   0  0  0  0  0  0  0  0  0  0  0  0
  1  2  1  0  0  0  0
  1  5  2  0  0  0  0
  2  6  2  0  0  0  0
  3  8  2  0  0  0  0
  3 17  1  0  0  0  0
  4  9  1  0  0  0  0
  4 17  2  0  0  0  0
  5 19  1  0  0  0  0
  6 21  1  0  0  0  0
  7 10  2  0  0  0  0
  7 20  1  0  0  0  0
  8 23  1  0  0  0  0
  9 23  2  0  0  0  0
 10 24  1  0  0  0  0
 11 12  2  0  0  0  0
 11 25  1  0  0  0  0
 12 26  1  0  0  0  0
 13 22  1  0  0  0  0
 13 24  2  0  0  0  0
 14 26  2  0  0  0  0
 14 27  1  0  0  0  0
 15 29  2  0  0  0  0
 15 62  1  0  0  0  0
 16 30  1  0  0  0  0
 16 62  2  0  0  0  0
 17 28  1  0  0  0  0
 18 28  1  0  0  0  0
 18 31  2  0  0  0  0
 18 32  1  0  0  0  0
 19 21  2  0  0  0  0
 19 37  1  0  0  0  0
 20 22  2  0  0  0  0
 20 38  1  0  0  0  0
 21 46  1  0  0  0  0
 22 39  1  0  0  0  0
 23 80  1  0  0  0  0
 24 81  1  0  0  0  0
 25 27  2  0  0  0  0
 25 80  1  0  0  0  0
 26 82  1  0  0  0  0
 27 83  1  0  0  0  0
 28 63  2  0  0  0  0
 29 64  1  0  0  0  0
 29 70  1  0  0  0  0
 30 64  2  0  0  0  0
 30 71  1  0  0  0  0
 31 65  1  0  0  0  0
 31 68  1  0  0  0  0
 32 69  1  0  0  0  0
 32 75  2  0  0  0  0
 33 47  1  0  0  0  0
 33 72  1  0  0  0  0
 33 76  2  0  0  0  0
 34 58  1  0  0  0  0
 34 66  1  0  0  0  0
 34 77  2  0  0  0  0
 35 59  1  0  0  0  0
 35 73  1  0  0  0  0
 35 78  2  0  0  0  0
 36 67  1  0  0  0  0
 36 70  1  0  0  0  0
 36 79  2  0  0  0  0
 37 40  1  0  0  0  0
 38 47  1  0  0  0  0
 39 66  1  0  0  0  0
 40 42  1  0  0  0  0
 41 43  1  0  0  0  0
 41 44  1  0  0  0  0
 42 46  1  0  0  0  0
 43 48  1  0  0  0  0
 44 67  1  0  0  0  0
 45 48  1  0  0  0  0
 45 67  1  0  0  0  0
 46 72  1  0  0  0  0
 47 66  1  0  0  0  0
 48 65  1  0  0  0  0
 49 59  1  0  0  0  0
 50 60  1  0  0  0  0
 51 61  1  0  0  0  0
 52 61  1  0  0  0  0
 53 61  1  0  0  0  0
 54 74  1  0  0  0  0
 55 56  1  0  0  0  0
 55 57  1  0  0  0  0
 56 60  1  0  0  0  0
 57 81  1  0  0  0  0
 58 61  1  0  0  0  0
 58 73  1  0  0  0  0
 59 74  1  0  0  0  0
 60 71  1  0  0  0  0
 63 65  1  0  0  0  0
M  CHG  1  74   1
M  ISO  4  36 100  57 101  70 100  81 101
M  END
> <Batch ID>
0194

> <Smiles>
CNC(C)C(=O)NC(C(=O)N1Cc2cc([101O:1][101CH2:1]CCC(C)Nc3cncc([100NH:0][100C:0](=O)N4CCCC(n5nc(-c6ccc(Oc7ccc(F)cc7F)cc6)c(C(N)=O)c5N)C4)n3)ccc2CC1C(=O)NC1CCCc2ccccc21)C(C)(C)C

> <Shape>
0.251

> <Color>
0.095

> <Negative vol penalty>
0.000

$$$$

  -OEChem-04052305333D

 82 90  0     1  0  0  0  0  0999 V2000
  -28.2826  -34.1617   17.2041 C   0  0  0  0  0  0  0  0  0  0  0  0
  -27.3306  -33.4156   17.8915 C   0  0  0  0  0  0  0  0  0  0  0  0
  -25.2834  -15.7745   23.1572 C   0  0  0  0  0  0  0  0  0  0  0  0
  -26.5639  -17.0177   21.5287 C   0  0  0  0  0  0  0  0  0  0  0  0
  -29.2386  -33.5173   16.4202 C   0  0  0  0  0  0  0  0  0  0  0  0
  -27.3335  -32.0246   17.7944 C   0  0  0  0  0  0  0  0  0  0  0  0
  -26.7221  -29.7626   22.2838 C   0  0  0  0  0  0  0  0  0  0  0  0
  -25.5118  -14.6001   22.4402 C   0  0  0  0  0  0  0  0  0  0  0  0
  -26.7923  -15.8432   20.8117 C   0  0  0  0  0  0  0  0  0  0  0  0
  -25.4289  -29.7165   22.8027 C   0  0  0  0  0  0  0  0  0  0  0  0
  -28.8290  -13.1547   21.0220 C   0  0  0  0  0  0  0  0  0  0  0  0
  -30.1254  -12.9179   20.5651 C   0  0  0  0  0  0  0  0  0  0  0  0
  -18.9606  -28.7111   23.0961 C   0  0  0  0  0  0  0  0  0  0  0  0
  -25.2108  -27.4381   22.0406 C   0  0  0  0  0  0  0  0  0  0  0  0
  -29.3157  -12.8771   18.2891 C   0  0  0  0  0  0  0  0  0  0  0  0
  -18.4623  -28.0308   22.0038 C   0  0  0  0  0  0  0  0  0  0  0  0
  -25.8094  -16.9834   22.7014 C   0  0  0  0  0  0  0  0  0  0  0  0
  -26.3676  -18.7315   24.4735 C   0  0  0  0  0  0  0  0  0  0  0  0
  -29.2592  -32.1171   16.3212 C   0  0  0  0  0  0  0  0  0  0  0  0
  -27.2663  -28.6485   21.6287 C   0  0  0  0  0  0  0  0  0  0  0  0
  -28.2899  -31.3608   17.0073 C   0  0  0  0  0  0  0  0  0  0  0  0
  -26.5121  -27.4718   21.5166 C   0  0  0  0  0  0  0  0  0  0  0  0
  -26.2662  -14.6344   21.2675 C   0  0  0  0  0  0  0  0  0  0  0  0
  -24.6720  -28.5551   22.6786 C   0  0  0  0  0  0  0  0  0  0  0  0
  -27.7759  -13.2526   20.1126 C   0  0  0  0  0  0  0  0  0  0  0  0
  -30.3688  -12.7791   19.1986 C   0  0  0  0  0  0  0  0  0  0  0  0
  -28.0192  -13.1139   18.7461 C   0  0  0  0  0  0  0  0  0  0  0  0
  -25.5734  -18.1970   23.4413 C   0  0  0  0  0  0  0  0  0  0  0  0
  -20.2113  -28.3165   23.5256 C   0  0  0  0  0  0  0  0  0  0  0  0
  -25.7197  -19.8847   24.8432 C   0  0  0  0  0  0  0  0  0  0  0  0
  -20.3350  -26.7477   21.8852 C   0  0  0  0  0  0  0  0  0  0  0  0
  -27.5824  -18.2303   25.0468 C   0  0  0  0  0  0  0  0  0  0  0  0
  -28.3158  -28.0687   18.6849 C   0  0  0  0  0  0  0  0  0  0  0  0
  -29.2025  -25.2296   19.9794 C   0  0  0  0  0  0  0  0  0  0  0  0
  -28.7437  -22.8890   22.4203 C   0  0  0  0  0  0  0  0  0  0  0  0
  -22.1065  -23.4903   21.8766 C   0  0  0  0  0  0  0  0  0  0  0  0
  -30.2828  -31.4678   15.4238 C   0  0  0  0  0  0  0  0  0  0  0  0
  -28.6726  -28.7054   21.0981 C   0  0  0  0  0  0  0  0  0  0  0  0
  -27.0577  -26.2416   20.8401 C   0  0  0  0  0  0  0  0  0  0  0  0
  -30.4489  -29.9709   15.6727 C   0  0  0  0  0  0  0  0  0  0  0  0
  -21.3538  -21.8391   25.0078 C   0  0  0  0  0  0  0  0  0  0  0  0
  -29.0866  -29.2916   15.7707 C   0  0  0  0  0  0  0  0  0  0  0  0
  -22.4391  -20.7619   25.0522 C   0  0  0  0  0  0  0  0  0  0  0  0
  -20.8424  -22.0503   23.5858 C   0  0  0  0  0  0  0  0  0  0  0  0
  -22.9891  -21.3018   22.6344 C   0  0  0  0  0  0  0  0  0  0  0  0
  -28.2757  -29.8488   16.9469 C   0  0  1  0  0  0  0  0  0  0  0  0
  -28.9376  -27.6830   19.9973 C   0  0  1  0  0  0  0  0  0  0  0  0
  -23.5633  -21.0571   24.0417 C   0  0  2  0  0  0  0  0  0  0  0  0
  -29.5921  -20.6579   23.1945 C   0  0  0  0  0  0  0  0  0  0  0  0
  -22.0927  -29.1749   26.6152 C   0  0  0  0  0  0  0  0  0  0  0  0
  -27.6552  -23.8641   17.7320 C   0  0  0  0  0  0  0  0  0  0  0  0
  -27.7308  -21.7443   19.0621 C   0  0  0  0  0  0  0  0  0  0  0  0
  -29.8513  -22.8015   18.2819 C   0  0  0  0  0  0  0  0  0  0  0  0
  -29.6256  -23.9963   25.0193 C   0  0  0  0  0  0  0  0  0  0  0  0
  -21.0983  -25.6580   21.2122 C   0  0  0  0  0  0  0  0  0  0  0  0
  -23.1368  -29.3147   24.3285 C   0  0  0  0  0  0  0  0  0  1  0  0
  -28.5436  -23.8829   20.1561 C   0  0  1  0  0  0  0  0  0  0  0  0
  -29.7290  -22.1671   23.3216 C   0  0  2  0  0  0  0  0  0  0  0  0
  -22.0459  -28.6682   25.1796 C   0  0  2  0  0  0  0  0  0  0  0  0
  -28.4339  -23.0969   18.8191 C   0  0  0  0  0  0  0  0  0  0  0  0
  -19.1250  -27.0401   21.3715 N   0  0  0  0  0  0  0  0  0  0  0  0
  -24.5026  -18.9489   23.1726 N   0  0  0  0  0  0  0  0  0  0  0  0
  -20.9292  -27.3348   22.9416 N   0  0  0  0  0  0  0  0  0  0  0  0
  -24.6194  -19.9676   24.0415 N   0  0  0  0  0  0  0  0  0  0  0  0
  -28.4353  -26.3489   20.3320 N   0  0  0  0  0  0  0  0  0  0  0  0
  -21.9597  -22.3457   22.6778 N   0  0  0  0  0  0  0  0  0  0  0  0
  -25.9894  -20.8259   25.7727 N   0  0  0  0  0  0  0  0  0  0  0  0
  -28.1115  -17.0318   24.5490 N   0  0  0  0  0  0  0  0  0  0  0  0
  -20.7460  -28.9753   24.6173 N   0  0  0  0  0  0  0  0  0  0  0  0
  -28.7453  -29.2875   18.1955 N   0  0  0  0  0  0  0  0  0  0  0  0
  -29.2993  -23.1919   21.1952 N   0  0  0  0  0  0  0  0  0  0  0  0
  -21.0847  -24.4271   21.9710 N   0  0  0  0  0  0  0  0  0  0  0  0
  -29.4988  -22.5417   24.7456 N   0  3  0  0  0  0  0  0  0  0  0  0
  -28.1722  -18.8191   25.9844 O   0  0  0  0  0  0  0  0  0  0  0  0
  -27.5074  -27.3156   18.1548 O   0  0  0  0  0  0  0  0  0  0  0  0
  -30.3580  -25.2860   19.5512 O   0  0  0  0  0  0  0  0  0  0  0  0
  -27.5947  -23.1542   22.7668 O   0  0  0  0  0  0  0  0  0  0  0  0
  -23.0795  -23.6670   21.1355 O   0  0  0  0  0  0  0  0  0  0  0  0
  -26.4895  -13.4885   20.5678 O   0  0  0  0  0  0  0  0  0  0  0  0
  -23.4092  -28.5076   23.1836 O   0  0  0  0  0  0  0  0  0  1  0  0
  -31.6140  -12.5533   18.7598 F   0  0  0  0  0  0  0  0  0  0  0  0
  -27.0118  -13.2082   17.8675 F   0  0  0  0  0  0  0  0  0  0  0  0
  1  2  1  0  0  0  0
  1  5  2  0  0  0  0
  2  6  2  0  0  0  0
  3  8  2  0  0  0  0
  3 17  1  0  0  0  0
  4  9  1  0  0  0  0
  4 17  2  0  0  0  0
  5 19  1  0  0  0  0
  6 21  1  0  0  0  0
  7 10  2  0  0  0  0
  7 20  1  0  0  0  0
  8 23  1  0  0  0  0
  9 23  2  0  0  0  0
 10 24  1  0  0  0  0
 11 12  2  0  0  0  0
 11 25  1  0  0  0  0
 12 26  1  0  0  0  0
 13 16  2  0  0  0  0
 13 29  1  0  0  0  0
 14 22  1  0  0  0  0
 14 24  2  0  0  0  0
 15 26  2  0  0  0  0
 15 27  1  0  0  0  0
 16 61  1  0  0  0  0
 17 28  1  0  0  0  0
 18 28  1  0  0  0  0
 18 30  2  0  0  0  0
 18 32  1  0  0  0  0
 19 21  2  0  0  0  0
 19 37  1  0  0  0  0
 20 22  2  0  0  0  0
 20 38  1  0  0  0  0
 21 46  1  0  0  0  0
 22 39  1  0  0  0  0
 23 79  1  0  0  0  0
 24 80  1  0  0  0  0
 25 27  2  0  0  0  0
 25 79  1  0  0  0  0
 26 81  1  0  0  0  0
 27 82  1  0  0  0  0
 28 62  2  0  0  0  0
 29 63  2  0  0  0  0
 29 69  1  0  0  0  0
 30 64  1  0  0  0  0
 30 67  1  0  0  0  0
 31 55  1  0  0  0  0
 31 61  2  0  0  0  0
 31 63  1  0  0  0  0
 32 68  1  0  0  0  0
 32 74  2  0  0  0  0
 33 47  1  0  0  0  0
 33 70  1  0  0  0  0
 33 75  2  0  0  0  0
 34 57  1  0  0  0  0
 34 65  1  0  0  0  0
 34 76  2  0  0  0  0
 35 58  1  0  0  0  0
 35 71  1  0  0  0  0
 35 77  2  0  0  0  0
 36 66  1  0  0  0  0
 36 72  1  0  0  0  0
 36 78  2  0  0  0  0
 37 40  1  0  0  0  0
 38 47  1  0  0  0  0
 39 65  1  0  0  0  0
 40 42  1  0  0  0  0
 41 43  1  0  0  0  0
 41 44  1  0  0  0  0
 42 46  1  0  0  0  0
 43 48  1  0  0  0  0
 44 66  1  0  0  0  0
 45 48  1  0  0  0  0
 45 66  1  0  0  0  0
 46 70  1  0  0  0  0
 47 65  1  0  0  0  0
 48 64  1  0  0  0  0
 49 58  1  0  0  0  0
 50 59  1  0  0  0  0
 51 60  1  0  0  0  0
 52 60  1  0  0  0  0
 53 60  1  0  0  0  0
 54 73  1  0  0  0  0
 55 72  1  0  0  0  0
 56 59  1  0  0  0  0
 56 80  1  0  0  0  0
 57 60  1  0  0  0  0
 57 71  1  0  0  0  0
 58 73  1  0  0  0  0
 59 69  1  0  0  0  0
 62 64  1  0  0  0  0
M  CHG  1  73   1
M  ISO  4  36 100  56 101  72 100  80 101
M  END
> <Batch ID>
0194

> <Smiles>
CNC(C)C(=O)NC(C(=O)N1Cc2cc([101O:1][101CH2:1]C(C)Nc3ccnc(C[100NH:0][100C:0](=O)N4CCCC(n5nc(-c6ccc(Oc7ccc(F)cc7F)cc6)c(C(N)=O)c5N)C4)n3)ccc2CC1C(=O)NC1CCCc2ccccc21)C(C)(C)C

> <Shape>
0.187

> <Color>
0.068

> <Negative vol penalty>
0.000

$$$$

  -OEChem-04052305333D

 84 92  0     1  0  0  0  0  0999 V2000
  -31.0064  -24.3908   24.7620 C   0  0  0  0  0  0  0  0  0  0  0  0
  -30.5880  -23.3472   23.9426 C   0  0  0  0  0  0  0  0  0  0  0  0
  -28.1659  -26.3995   18.0024 C   0  0  0  0  0  0  0  0  0  0  0  0
  -27.1449  -25.6787   20.0700 C   0  0  0  0  0  0  0  0  0  0  0  0
  -30.2882  -24.7003   25.9162 C   0  0  0  0  0  0  0  0  0  0  0  0
  -29.4517  -22.6118   24.2777 C   0  0  0  0  0  0  0  0  0  0  0  0
  -25.3748  -20.1706   20.4145 C   0  0  0  0  0  0  0  0  0  0  0  0
  -27.2139  -27.4122   17.8853 C   0  0  0  0  0  0  0  0  0  0  0  0
  -26.1929  -26.6915   19.9529 C   0  0  0  0  0  0  0  0  0  0  0  0
  -25.2173  -18.8810   19.9086 C   0  0  0  0  0  0  0  0  0  0  0  0
  -23.7107  -29.3127   20.3848 C   0  0  0  0  0  0  0  0  0  0  0  0
  -23.4183  -30.0637   21.5232 C   0  0  0  0  0  0  0  0  0  0  0  0
  -23.5952  -18.4101   21.6309 C   0  0  0  0  0  0  0  0  0  0  0  0
  -25.7244  -30.7735   21.6471 C   0  0  0  0  0  0  0  0  0  0  0  0
  -28.2509  -11.6312   19.3111 C   0  0  0  0  0  0  0  0  0  0  0  0
  -28.1314  -25.5327   19.0948 C   0  0  0  0  0  0  0  0  0  0  0  0
  -30.3635  -24.5634   19.8602 C   0  0  0  0  0  0  0  0  0  0  0  0
  -29.1370  -23.9744   26.2605 C   0  0  0  0  0  0  0  0  0  0  0  0
  -24.6505  -20.5868   21.5408 C   0  0  0  0  0  0  0  0  0  0  0  0
  -28.7182  -22.9109   25.4384 C   0  0  0  0  0  0  0  0  0  0  0  0
  -23.7434  -19.7063   22.1475 C   0  0  0  0  0  0  0  0  0  0  0  0
  -26.2274  -27.5582   18.8606 C   0  0  0  0  0  0  0  0  0  0  0  0
  -24.3295  -17.9996   20.5186 C   0  0  0  0  0  0  0  0  0  0  0  0
  -25.0100  -29.2920   19.8775 C   0  0  0  0  0  0  0  0  0  0  0  0
  -24.4252  -30.7941   22.1544 C   0  0  0  0  0  0  0  0  0  0  0  0
  -26.0168  -30.0224   20.5087 C   0  0  0  0  0  0  0  0  0  0  0  0
  -29.1141  -24.4860   19.2160 C   0  0  0  0  0  0  0  0  0  0  0  0
  -27.7822  -12.8546   19.7420 C   0  0  0  0  0  0  0  0  0  0  0  0
  -30.9120  -23.3149   19.6968 C   0  0  0  0  0  0  0  0  0  0  0  0
  -29.9283  -13.3065   19.7379 C   0  0  0  0  0  0  0  0  0  0  0  0
  -30.9735  -25.6654   20.5451 C   0  0  0  0  0  0  0  0  0  0  0  0
  -31.1382  -14.0415   19.8917 C   0  0  0  0  0  0  0  0  0  0  0  0
  -25.4185  -21.5613   24.4673 C   0  0  0  0  0  0  0  0  0  0  0  0
  -30.3765  -17.8437   19.9364 C   0  0  0  0  0  0  0  0  0  0  0  0
  -22.2327  -22.1288   24.6926 C   0  0  0  0  0  0  0  0  0  0  0  0
  -19.0786  -21.4161   23.6015 C   0  0  0  0  0  0  0  0  0  0  0  0
  -28.4205  -24.3154   27.5431 C   0  0  0  0  0  0  0  0  0  0  0  0
  -24.8120  -21.9899   22.0580 C   0  0  0  0  0  0  0  0  0  0  0  0
  -22.9270  -20.1109   23.3468 C   0  0  0  0  0  0  0  0  0  0  0  0
  -27.0136  -23.7292   27.6292 C   0  0  0  0  0  0  0  0  0  0  0  0
  -29.4898  -19.4376   16.7900 C   0  0  0  0  0  0  0  0  0  0  0  0
  -27.0199  -22.2624   27.2106 C   0  0  0  0  0  0  0  0  0  0  0  0
  -29.3872  -20.9037   17.2083 C   0  0  0  0  0  0  0  0  0  0  0  0
  -29.0095  -18.5030   17.8972 C   0  0  0  0  0  0  0  0  0  0  0  0
  -29.6049  -20.1735   19.6233 C   0  0  0  0  0  0  0  0  0  0  0  0
  -27.4765  -22.1059   25.7551 C   0  0  1  0  0  0  0  0  0  0  0  0
  -24.4042  -22.1382   23.5206 C   0  0  1  0  0  0  0  0  0  0  0  0
  -30.1085  -21.1479   18.5453 C   0  0  2  0  0  0  0  0  0  0  0  0
  -16.6740  -22.0124   24.0015 C   0  0  0  0  0  0  0  0  0  0  0  0
  -22.2377  -20.4362   27.2314 C   0  0  0  0  0  0  0  0  0  0  0  0
  -19.7459  -20.2777   27.0472 C   0  0  0  0  0  0  0  0  0  0  0  0
  -20.8328  -22.5014   27.3572 C   0  0  0  0  0  0  0  0  0  0  0  0
  -18.7469  -22.4192   20.8370 C   0  0  0  0  0  0  0  0  0  0  0  0
  -31.1636  -15.5229   20.3723 C   0  0  0  0  0  0  0  0  0  0  0  0
  -30.3910  -16.4273   19.4193 C   0  0  0  0  0  0  0  0  0  0  0  0
  -25.9393  -14.4116   20.3785 C   0  0  0  0  0  0  0  0  0  0  0  0
  -23.8275  -15.7172   20.9600 C   0  0  0  0  0  0  0  0  0  1  0  0
  -21.0317  -21.3246   25.1284 C   0  0  1  0  0  0  0  0  0  0  0  0
  -17.9263  -22.3163   23.1938 C   0  0  2  0  0  0  0  0  0  0  0  0
  -24.4194  -14.4013   20.4777 C   0  0  1  0  0  0  0  0  0  0  0  0
  -20.9787  -21.1264   26.6696 C   0  0  0  0  0  0  0  0  0  0  0  0
  -28.8825  -23.2834   18.6830 N   0  0  0  0  0  0  0  0  0  0  0  0
  -28.7427  -13.8164   19.9877 N   0  0  0  0  0  0  0  0  0  0  0  0
  -32.3345  -13.5190   19.6324 N   0  0  0  0  0  0  0  0  0  0  0  0
  -29.9938  -22.5937   18.9918 N   0  0  0  0  0  0  0  0  0  0  0  0
  -23.1250  -21.4912   23.8192 N   0  0  0  0  0  0  0  0  0  0  0  0
  -29.7007  -18.7860   19.1608 N   0  0  0  0  0  0  0  0  0  0  0  0
  -32.0854  -22.7746   20.0887 N   0  0  0  0  0  0  0  0  0  0  0  0
  -30.2721  -26.8765   20.6200 N   0  0  0  0  0  0  0  0  0  0  0  0
  -26.4377  -13.1337   19.9277 N   0  0  0  0  0  0  0  0  0  0  0  0
  -26.4031  -22.4527   24.8486 N   0  0  0  0  0  0  0  0  0  0  0  0
  -19.8644  -22.0003   24.5723 N   0  0  0  0  0  0  0  0  0  0  0  0
  -17.6103  -22.1312   21.7493 N   0  3  0  0  0  0  0  0  0  0  0  0
  -32.1141  -25.5837   21.0608 O   0  0  0  0  0  0  0  0  0  0  0  0
  -25.3146  -20.3943   24.8264 O   0  0  0  0  0  0  0  0  0  0  0  0
  -30.9514  -18.1034   20.9967 O   0  0  0  0  0  0  0  0  0  0  0  0
  -22.3701  -23.2828   25.1062 O   0  0  0  0  0  0  0  0  0  0  0  0
  -19.2610  -20.3041   23.1107 O   0  0  0  0  0  0  0  0  0  0  0  0
  -25.2985  -28.5465   18.7467 O   0  0  0  0  0  0  0  0  0  0  0  0
  -24.1744  -16.7400   20.0273 O   0  0  0  0  0  0  0  0  0  1  0  0
  -24.1439  -31.5165   23.2467 F   0  0  0  0  0  0  0  0  0  0  0  0
  -27.2666  -30.0074   20.0254 F   0  0  0  0  0  0  0  0  0  0  0  0
  -23.9104  -14.1332   19.2400 F   0  0  0  0  0  0  0  0  0  0  0  0
  -29.9620  -11.6760   19.2036 S   0  0  0  0  0  0  0  0  0  0  0  0
  1  2  1  0  0  0  0
  1  5  2  0  0  0  0
  2  6  2  0  0  0  0
  3  8  2  0  0  0  0
  3 16  1  0  0  0  0
  4  9  1  0  0  0  0
  4 16  2  0  0  0  0
  5 18  1  0  0  0  0
  6 20  1  0  0  0  0
  7 10  2  0  0  0  0
  7 19  1  0  0  0  0
  8 22  1  0  0  0  0
  9 22  2  0  0  0  0
 10 23  1  0  0  0  0
 11 12  2  0  0  0  0
 11 24  1  0  0  0  0
 12 25  1  0  0  0  0
 13 21  1  0  0  0  0
 13 23  2  0  0  0  0
 14 25  2  0  0  0  0
 14 26  1  0  0  0  0
 15 28  2  0  0  0  0
 15 84  1  0  0  0  0
 16 27  1  0  0  0  0
 17 27  1  0  0  0  0
 17 29  2  0  0  0  0
 17 31  1  0  0  0  0
 18 20  2  0  0  0  0
 18 37  1  0  0  0  0
 19 21  2  0  0  0  0
 19 38  1  0  0  0  0
 20 46  1  0  0  0  0
 21 39  1  0  0  0  0
 22 79  1  0  0  0  0
 23 80  1  0  0  0  0
 24 26  2  0  0  0  0
 24 79  1  0  0  0  0
 25 81  1  0  0  0  0
 26 82  1  0  0  0  0
 27 62  2  0  0  0  0
 28 63  1  0  0  0  0
 28 70  1  0  0  0  0
 29 65  1  0  0  0  0
 29 68  1  0  0  0  0
 30 32  1  0  0  0  0
 30 63  2  0  0  0  0
 30 84  1  0  0  0  0
 31 69  1  0  0  0  0
 31 74  2  0  0  0  0
 32 54  1  0  0  0  0
 32 64  2  0  0  0  0
 33 47  1  0  0  0  0
 33 71  1  0  0  0  0
 33 75  2  0  0  0  0
 34 55  1  0  0  0  0
 34 67  1  0  0  0  0
 34 76  2  0  0  0  0
 35 58  1  0  0  0  0
 35 66  1  0  0  0  0
 35 77  2  0  0  0  0
 36 59  1  0  0  0  0
 36 72  1  0  0  0  0
 36 78  2  0  0  0  0
 37 40  1  0  0  0  0
 38 47  1  0  0  0  0
 39 66  1  0  0  0  0
 40 42  1  0  0  0  0
 41 43  1  0  0  0  0
 41 44  1  0  0  0  0
 42 46  1  0  0  0  0
 43 48  1  0  0  0  0
 44 67  1  0  0  0  0
 45 48  1  0  0  0  0
 45 67  1  0  0  0  0
 46 71  1  0  0  0  0
 47 66  1  0  0  0  0
 48 65  1  0  0  0  0
 49 59  1  0  0  0  0
 50 61  1  0  0  0  0
 51 61  1  0  0  0  0
 52 61  1  0  0  0  0
 53 73  1  0  0  0  0
 54 55  1  0  0  0  0
 56 60  1  0  0  0  0
 56 70  1  0  0  0  0
 57 60  1  0  0  0  0
 57 80  1  0  0  0  0
 58 61  1  0  0  0  0
 58 72  1  0  0  0  0
 59 73  1  0  0  0  0
 60 83  1  0  0  0  0
 62 65  1  0  0  0  0
M  CHG  1  73   1
M  ISO  4  34 100  55 100  57 101  80 101
M  END
> <Batch ID>
0194

> <Smiles>
CNC(C)C(=O)NC(C(=O)N1Cc2cc([101O:1][101CH2:1]C(F)CNc3csc(C(=N)C[100CH2:0][100C:0](=O)N4CCCC(n5nc(-c6ccc(Oc7ccc(F)cc7F)cc6)c(C(N)=O)c5N)C4)n3)ccc2CC1C(=O)NC1CCCc2ccccc21)C(C)(C)C

> <Shape>
0.200

> <Color>
0.061

> <Negative vol penalty>
0.000

$$$$

  -OEChem-04052305333D

 86 94  0     1  0  0  0  0  0999 V2000
  -31.2269  -23.3247   27.0182 C   0  0  0  0  0  0  0  0  0  0  0  0
  -31.0362  -22.0106   26.6030 C   0  0  0  0  0  0  0  0  0  0  0  0
  -21.7311  -25.5397   22.5478 C   0  0  0  0  0  0  0  0  0  0  0  0
  -23.7371  -25.6575   21.2065 C   0  0  0  0  0  0  0  0  0  0  0  0
  -30.5502  -24.3620   26.3780 C   0  0  0  0  0  0  0  0  0  0  0  0
  -30.1676  -21.7331   25.5481 C   0  0  0  0  0  0  0  0  0  0  0  0
  -30.7798  -17.3292   21.3366 C   0  0  0  0  0  0  0  0  0  0  0  0
  -22.0264  -26.7866   23.0989 C   0  0  0  0  0  0  0  0  0  0  0  0
  -24.0323  -26.9044   21.7575 C   0  0  0  0  0  0  0  0  0  0  0  0
  -30.2222  -16.0564   21.2225 C   0  0  0  0  0  0  0  0  0  0  0  0
  -25.1268  -30.2810   22.5444 C   0  0  0  0  0  0  0  0  0  0  0  0
  -25.5401  -31.2926   21.6775 C   0  0  0  0  0  0  0  0  0  0  0  0
  -28.5046  -16.9448   19.7803 C   0  0  0  0  0  0  0  0  0  0  0  0
  -23.4485  -31.1211   20.4803 C   0  0  0  0  0  0  0  0  0  0  0  0
  -24.4856  -11.7629   21.3359 C   0  0  0  0  0  0  0  0  0  0  0  0
  -22.5865  -24.9751   21.6016 C   0  0  0  0  0  0  0  0  0  0  0  0
  -21.5241  -23.4264   19.8752 C   0  0  0  0  0  0  0  0  0  0  0  0
  -29.6803  -24.0980   25.3084 C   0  0  0  0  0  0  0  0  0  0  0  0
  -30.1967  -18.4231   20.6812 C   0  0  0  0  0  0  0  0  0  0  0  0
  -29.4775  -22.7678   24.8938 C   0  0  0  0  0  0  0  0  0  0  0  0
  -29.0582  -18.2300   19.8857 C   0  0  0  0  0  0  0  0  0  0  0  0
  -24.0395  -12.9242   20.7387 C   0  0  0  0  0  0  0  0  0  0  0  0
  -23.1769  -27.4689   22.7038 C   0  0  0  0  0  0  0  0  0  0  0  0
  -29.0828  -15.8646   20.4466 C   0  0  0  0  0  0  0  0  0  0  0  0
  -23.8744  -29.6894   22.3792 C   0  0  0  0  0  0  0  0  0  0  0  0
  -24.7010  -31.7127   20.6455 C   0  0  0  0  0  0  0  0  0  0  0  0
  -23.0353  -30.1095   21.3472 C   0  0  0  0  0  0  0  0  0  0  0  0
  -22.2823  -23.6869   21.0324 C   0  0  0  0  0  0  0  0  0  0  0  0
  -24.9812  -13.6195   20.0079 C   0  0  0  0  0  0  0  0  0  0  0  0
  -21.5297  -22.0576   19.7619 C   0  0  0  0  0  0  0  0  0  0  0  0
  -26.5744  -12.0728   20.4944 C   0  0  0  0  0  0  0  0  0  0  0  0
  -20.8729  -24.3401   18.9825 C   0  0  0  0  0  0  0  0  0  0  0  0
  -28.8820  -21.1604   21.6205 C   0  0  0  0  0  0  0  0  0  0  0  0
  -28.7877  -21.7579   18.4336 C   0  0  0  0  0  0  0  0  0  0  0  0
  -28.7367  -20.5193   15.2539 C   0  0  0  0  0  0  0  0  0  0  0  0
  -24.2200  -17.2923   19.8032 C   0  0  0  0  0  0  0  0  0  0  0  0
  -28.9347  -25.2476   24.6782 C   0  0  0  0  0  0  0  0  0  0  0  0
  -30.8258  -19.7848   20.7928 C   0  0  0  0  0  0  0  0  0  0  0  0
  -28.4057  -19.3678   19.1454 C   0  0  0  0  0  0  0  0  0  0  0  0
  -28.3188  -24.9051   23.3241 C   0  0  0  0  0  0  0  0  0  0  0  0
  -23.0468  -18.4891   23.0108 C   0  0  0  0  0  0  0  0  0  0  0  0
  -27.5927  -23.5653   23.3915 C   0  0  0  0  0  0  0  0  0  0  0  0
  -22.6792  -19.9366   22.6795 C   0  0  0  0  0  0  0  0  0  0  0  0
  -24.2976  -18.0496   22.2554 C   0  0  0  0  0  0  0  0  0  0  0  0
  -23.8454  -19.6572   20.4430 C   0  0  0  0  0  0  0  0  0  0  0  0
  -28.5626  -22.4289   23.7371 C   0  0  1  0  0  0  0  0  0  0  0  0
  -29.8503  -20.9198   20.4970 C   0  0  1  0  0  0  0  0  0  0  0  0
  -22.5760  -20.1543   21.1583 C   0  0  2  0  0  0  0  0  0  0  0  0
  -28.6198  -21.2512   12.8564 C   0  0  0  0  0  0  0  0  0  0  0  0
  -21.2189  -11.4623   20.8077 C   0  0  0  0  0  0  0  0  0  0  0  0
  -20.6066  -13.5863   22.0158 C   0  0  0  0  0  0  0  0  0  0  0  0
  -30.0043  -11.3653   19.2465 C   0  0  0  0  0  0  0  0  0  0  0  0
  -25.8078  -22.3291   18.7557 C   0  0  0  0  0  0  0  0  0  0  0  0
  -25.5693  -22.1141   16.2727 C   0  0  0  0  0  0  0  0  0  0  0  0
  -27.0138  -23.9059   17.2346 C   0  0  0  0  0  0  0  0  0  0  0  0
  -31.3617  -19.3016   14.6333 C   0  0  0  0  0  0  0  0  0  0  0  0
  -24.6157  -14.8917   19.3157 C   0  0  0  0  0  0  0  0  0  0  0  0
  -29.4251  -13.5112   20.4289 C   0  0  0  0  0  0  0  0  0  1  0  0
  -27.7931  -21.5026   17.3269 C   0  0  1  0  0  0  0  0  0  0  0  0
  -29.5342  -20.8885   14.0162 C   0  0  2  0  0  0  0  0  0  0  0  0
  -21.7296  -12.6324   21.6358 C   0  0  0  0  0  0  0  0  0  0  0  0
  -28.8910  -12.3401   19.6070 C   0  0  2  0  0  0  0  0  0  0  0  0
  -26.5569  -22.4416   17.4129 C   0  0  0  0  0  0  0  0  0  0  0  0
  -25.7510  -11.3059   21.2342 N   0  0  0  0  0  0  0  0  0  0  0  0
  -22.7365  -22.5730   21.6128 N   0  0  0  0  0  0  0  0  0  0  0  0
  -26.2623  -13.2214   19.8643 N   0  0  0  0  0  0  0  0  0  0  0  0
  -22.2622  -21.5993   20.8172 N   0  0  0  0  0  0  0  0  0  0  0  0
  -29.0545  -20.6813   19.2912 N   0  0  0  0  0  0  0  0  0  0  0  0
  -24.1270  -18.2658   20.8117 N   0  0  0  0  0  0  0  0  0  0  0  0
  -20.9795  -21.2134   18.8636 N   0  0  0  0  0  0  0  0  0  0  0  0
  -20.9675  -25.7134   19.2460 N   0  0  0  0  0  0  0  0  0  0  0  0
  -22.7137  -13.3517   20.8767 N   0  0  0  0  0  0  0  0  0  0  0  0
  -27.8797  -11.6345   20.3683 N   0  0  0  0  0  0  0  0  0  0  0  0
  -29.3358  -22.0528   22.5729 N   0  0  0  0  0  0  0  0  0  0  0  0
  -28.5376  -21.6077   16.0767 N   0  0  0  0  0  0  0  0  0  0  0  0
  -24.4961  -16.0010   20.2356 N   0  0  0  0  0  0  0  0  0  0  0  0
  -30.3962  -19.7477   13.5961 N   0  3  0  0  0  0  0  0  0  0  0  0
  -20.2126  -23.9494   17.9901 O   0  0  0  0  0  0  0  0  0  0  0  0
  -27.8024  -20.5806   21.6223 O   0  0  0  0  0  0  0  0  0  0  0  0
  -29.3140  -22.8695   18.5291 O   0  0  0  0  0  0  0  0  0  0  0  0
  -28.3277  -19.3802   15.4676 O   0  0  0  0  0  0  0  0  0  0  0  0
  -24.0631  -17.5536   18.6056 O   0  0  0  0  0  0  0  0  0  0  0  0
  -23.4652  -28.6858   23.2412 O   0  0  0  0  0  0  0  0  0  0  0  0
  -28.5362  -14.6235   20.3340 O   0  0  0  0  0  0  0  0  0  1  0  0
  -25.0973  -32.6852   19.8140 F   0  0  0  0  0  0  0  0  0  0  0  0
  -21.8305  -29.5458   21.1843 F   0  0  0  0  0  0  0  0  0  0  0  0
  1  2  1  0  0  0  0
  1  5  2  0  0  0  0
  2  6  2  0  0  0  0
  3  8  2  0  0  0  0
  3 16  1  0  0  0  0
  4  9  1  0  0  0  0
  4 16  2  0  0  0  0
  5 18  1  0  0  0  0
  6 20  1  0  0  0  0
  7 10  2  0  0  0  0
  7 19  1  0  0  0  0
  8 23  1  0  0  0  0
  9 23  2  0  0  0  0
 10 24  1  0  0  0  0
 11 12  2  0  0  0  0
 11 25  1  0  0  0  0
 12 26  1  0  0  0  0
 13 21  1  0  0  0  0
 13 24  2  0  0  0  0
 14 26  2  0  0  0  0
 14 27  1  0  0  0  0
 15 22  1  0  0  0  0
 15 64  2  0  0  0  0
 16 28  1  0  0  0  0
 17 28  1  0  0  0  0
 17 30  2  0  0  0  0
 17 32  1  0  0  0  0
 18 20  2  0  0  0  0
 18 37  1  0  0  0  0
 19 21  2  0  0  0  0
 19 38  1  0  0  0  0
 20 46  1  0  0  0  0
 21 39  1  0  0  0  0
 22 29  2  0  0  0  0
 22 72  1  0  0  0  0
 23 83  1  0  0  0  0
 24 84  1  0  0  0  0
 25 27  2  0  0  0  0
 25 83  1  0  0  0  0
 26 85  1  0  0  0  0
 27 86  1  0  0  0  0
 28 65  2  0  0  0  0
 29 57  1  0  0  0  0
 29 66  1  0  0  0  0
 30 67  1  0  0  0  0
 30 70  1  0  0  0  0
 31 64  1  0  0  0  0
 31 66  2  0  0  0  0
 31 73  1  0  0  0  0
 32 71  1  0  0  0  0
 32 78  2  0  0  0  0
 33 47  1  0  0  0  0
 33 74  1  0  0  0  0
 33 79  2  0  0  0  0
 34 59  1  0  0  0  0
 34 68  1  0  0  0  0
 34 80  2  0  0  0  0
 35 60  1  0  0  0  0
 35 75  1  0  0  0  0
 35 81  2  0  0  0  0
 36 69  1  0  0  0  0
 36 76  1  0  0  0  0
 36 82  2  0  0  0  0
 37 40  1  0  0  0  0
 38 47  1  0  0  0  0
 39 68  1  0  0  0  0
 40 42  1  0  0  0  0
 41 43  1  0  0  0  0
 41 44  1  0  0  0  0
 42 46  1  0  0  0  0
 43 48  1  0  0  0  0
 44 69  1  0  0  0  0
 45 48  1  0  0  0  0
 45 69  1  0  0  0  0
 46 74  1  0  0  0  0
 47 68  1  0  0  0  0
 48 67  1  0  0  0  0
 49 60  1  0  0  0  0
 50 61  1  0  0  0  0
 51 61  1  0  0  0  0
 52 62  1  0  0  0  0
 53 63  1  0  0  0  0
 54 63  1  0  0  0  0
 55 63  1  0  0  0  0
 56 77  1  0  0  0  0
 57 76  1  0  0  0  0
 58 62  1  0  0  0  0
 58 84  1  0  0  0  0
 59 63  1  0  0  0  0
 59 75  1  0  0  0  0
 60 77  1  0  0  0  0
 61 72  1  0  0  0  0
 62 73  1  0  0  0  0
 65 67  1  0  0  0  0
M  CHG  1  77   1
M  ISO  4  36 100  58 101  76 100  84 101
M  END
> <Batch ID>
0194

> <Smiles>
CNC(C)C(=O)NC(C(=O)N1Cc2cc([101O:1][101CH2:1]C(C)Nc3ncc(NC(C)C)c(C[100NH:0][100C:0](=O)N4CCCC(n5nc(-c6ccc(Oc7ccc(F)cc7F)cc6)c(C(N)=O)c5N)C4)n3)ccc2CC1C(=O)NC1CCCc2ccccc21)C(C)(C)C

> <Shape>
0.199

> <Color>
0.076

> <Negative vol penalty>
0.000

$$$$

  -OEChem-04052305333D

 88 96  0     1  0  0  0  0  0999 V2000
  -22.0545  -34.9400   15.2718 C   0  0  0  0  0  0  0  0  0  0  0  0
  -22.7025  -33.7127   15.3674 C   0  0  0  0  0  0  0  0  0  0  0  0
  -24.7811   -8.1974   21.4972 C   0  0  0  0  0  0  0  0  0  0  0  0
  -23.2175   -9.7701   20.5385 C   0  0  0  0  0  0  0  0  0  0  0  0
  -22.3340  -35.9482   16.1934 C   0  0  0  0  0  0  0  0  0  0  0  0
  -23.6314  -33.4932   16.3840 C   0  0  0  0  0  0  0  0  0  0  0  0
  -24.6810  -28.2330   19.3394 C   0  0  0  0  0  0  0  0  0  0  0  0
  -23.7827   -7.7235   22.3481 C   0  0  0  0  0  0  0  0  0  0  0  0
  -22.2191   -9.2962   21.3895 C   0  0  0  0  0  0  0  0  0  0  0  0
  -25.6526  -27.2458   19.1809 C   0  0  0  0  0  0  0  0  0  0  0  0
  -21.1215   -5.6468   22.1524 C   0  0  0  0  0  0  0  0  0  0  0  0
  -20.9922   -4.2652   22.2938 C   0  0  0  0  0  0  0  0  0  0  0  0
  -26.9726  -28.2745   20.9184 C   0  0  0  0  0  0  0  0  0  0  0  0
  -21.4194   -4.4677   24.6631 C   0  0  0  0  0  0  0  0  0  0  0  0
  -30.2988  -19.9686   19.5296 C   0  0  0  0  0  0  0  0  0  0  0  0
  -24.4985   -9.2207   20.5924 C   0  0  0  0  0  0  0  0  0  0  0  0
  -25.8440   -9.2387   18.4251 C   0  0  0  0  0  0  0  0  0  0  0  0
  -23.2596  -35.7377   17.2276 C   0  0  0  0  0  0  0  0  0  0  0  0
  -24.8533  -29.2563   20.2826 C   0  0  0  0  0  0  0  0  0  0  0  0
  -23.9246  -34.5001   17.3195 C   0  0  0  0  0  0  0  0  0  0  0  0
  -26.0005  -29.2720   21.0886 C   0  0  0  0  0  0  0  0  0  0  0  0
  -29.0934  -20.6172   19.3545 C   0  0  0  0  0  0  0  0  0  0  0  0
  -22.5017   -8.2729   22.2943 C   0  0  0  0  0  0  0  0  0  0  0  0
  -26.7999  -27.2680   19.9684 C   0  0  0  0  0  0  0  0  0  0  0  0
  -21.3998   -6.4389   23.2663 C   0  0  0  0  0  0  0  0  0  0  0  0
  -21.1411   -3.6756   23.5491 C   0  0  0  0  0  0  0  0  0  0  0  0
  -21.5487   -5.8493   24.5217 C   0  0  0  0  0  0  0  0  0  0  0  0
  -25.5296   -9.7111   19.7134 C   0  0  0  0  0  0  0  0  0  0  0  0
  -27.9779  -19.8056   19.3220 C   0  0  0  0  0  0  0  0  0  0  0  0
  -26.8895  -10.0294   18.0151 C   0  0  0  0  0  0  0  0  0  0  0  0
  -29.2574  -17.9498   19.6152 C   0  0  0  0  0  0  0  0  0  0  0  0
  -25.2445   -8.1798   17.6668 C   0  0  0  0  0  0  0  0  0  0  0  0
  -25.1043  -32.4217   20.1375 C   0  0  0  0  0  0  0  0  0  0  0  0
  -25.0377  -32.1853   23.3720 C   0  0  0  0  0  0  0  0  0  0  0  0
  -25.5764  -30.2764   26.1492 C   0  0  0  0  0  0  0  0  0  0  0  0
  -28.2976  -15.6157   19.7376 C   0  0  0  0  0  0  0  0  0  0  0  0
  -23.5639  -36.8737   18.1718 C   0  0  0  0  0  0  0  0  0  0  0  0
  -23.7834  -30.2987   20.4599 C   0  0  0  0  0  0  0  0  0  0  0  0
  -26.2237  -30.3373   22.1297 C   0  0  0  0  0  0  0  0  0  0  0  0
  -24.2844  -36.4326   19.4433 C   0  0  0  0  0  0  0  0  0  0  0  0
  -30.2698  -12.4187   20.5210 C   0  0  0  0  0  0  0  0  0  0  0  0
  -25.4341  -35.4889   19.1053 C   0  0  0  0  0  0  0  0  0  0  0  0
  -29.5367  -11.4385   19.6083 C   0  0  0  0  0  0  0  0  0  0  0  0
  -30.1206  -13.8621   20.0570 C   0  0  0  0  0  0  0  0  0  0  0  0
  -27.7125  -13.2038   19.9023 C   0  0  0  0  0  0  0  0  0  0  0  0
  -24.9202  -34.2154   18.4230 C   0  0  1  0  0  0  0  0  0  0  0  0
  -24.3022  -31.5855   21.0942 C   0  0  1  0  0  0  0  0  0  0  0  0
  -28.1859  -11.9811   19.1010 C   0  0  2  0  0  0  0  0  0  0  0  0
  -25.4699  -30.3697   28.6547 C   0  0  0  0  0  0  0  0  0  0  0  0
  -29.8153  -24.1195   22.1006 C   0  0  0  0  0  0  0  0  0  0  0  0
  -30.9008  -22.7662   17.9061 C   0  0  0  0  0  0  0  0  0  0  0  0
  -25.9644  -20.7478   20.4697 C   0  0  0  0  0  0  0  0  0  0  0  0
  -27.6200  -33.8099   23.4190 C   0  0  0  0  0  0  0  0  0  0  0  0
  -27.9621  -33.0675   25.7854 C   0  0  0  0  0  0  0  0  0  0  0  0
  -25.9630  -34.4336   25.1852 C   0  0  0  0  0  0  0  0  0  0  0  0
  -23.5589  -28.1140   26.2597 C   0  0  0  0  0  0  0  0  0  0  0  0
  -29.7712  -24.3035   19.5535 C   0  0  0  0  0  0  0  0  0  0  0  0
  -28.5150  -25.9591   20.9690 C   0  0  0  0  0  0  0  0  0  1  0  0
  -26.0775  -32.0163   24.4533 C   0  0  1  0  0  0  0  0  0  0  0  0
  -24.7216  -30.0212   27.3774 C   0  0  2  0  0  0  0  0  0  0  0  0
  -28.9869  -24.5008   20.8689 C   0  0  2  0  0  0  0  0  0  0  0  0
  -30.1908  -22.8559   19.2543 C   0  0  1  0  0  0  0  0  0  0  0  0
  -26.6175  -20.3941   19.1366 C   0  0  0  0  0  0  0  0  0  0  0  0
  -26.9027  -33.3127   24.6898 C   0  0  0  0  0  0  0  0  0  0  0  0
  -30.4178  -18.6314   19.6638 N   0  0  0  0  0  0  0  0  0  0  0  0
  -26.3122  -10.7234   20.0966 N   0  0  0  0  0  0  0  0  0  0  0  0
  -28.0235  -18.4632   19.4495 N   0  0  0  0  0  0  0  0  0  0  0  0
  -27.1287  -10.8935   19.0429 N   0  0  0  0  0  0  0  0  0  0  0  0
  -25.1518  -31.3380   22.2608 N   0  0  0  0  0  0  0  0  0  0  0  0
  -28.7191  -14.2716   19.8858 N   0  0  0  0  0  0  0  0  0  0  0  0
  -27.6184  -10.0629   16.8793 N   0  0  0  0  0  0  0  0  0  0  0  0
  -24.1803   -7.4687   18.2378 N   0  0  0  0  0  0  0  0  0  0  0  0
  -29.0289  -21.9930   19.2221 N   0  0  0  0  0  0  0  0  0  0  0  0
  -29.3439  -16.5418   19.7529 N   0  0  0  0  0  0  0  0  0  0  0  0
  -24.3491  -33.3137   19.4003 N   0  0  0  0  0  0  0  0  0  0  0  0
  -25.3655  -31.5376   25.6332 N   0  0  0  0  0  0  0  0  0  0  0  0
  -24.3235  -28.5866   27.4425 N   0  3  0  0  0  0  0  0  0  0  0  0
  -25.6516   -7.8625   16.5234 O   0  0  0  0  0  0  0  0  0  0  0  0
  -26.3187  -32.2700   20.0741 O   0  0  0  0  0  0  0  0  0  0  0  0
  -24.1524  -33.0329   23.5116 O   0  0  0  0  0  0  0  0  0  0  0  0
  -26.3563  -29.4420   25.6953 O   0  0  0  0  0  0  0  0  0  0  0  0
  -27.1087  -15.9100   19.5966 O   0  0  0  0  0  0  0  0  0  0  0  0
  -21.5271   -7.8105   23.1244 O   0  0  0  0  0  0  0  0  0  0  0  0
  -27.7502  -26.3060   19.8153 O   0  0  0  0  0  0  0  0  0  1  0  0
  -21.0153   -2.3490   23.6850 F   0  0  0  0  0  0  0  0  0  0  0  0
  -21.8150   -6.6052   25.5957 F   0  0  0  0  0  0  0  0  0  0  0  0
  -25.7577  -19.5546   18.4770 F   0  0  0  0  0  0  0  0  0  0  0  0
  -26.6284  -21.5359   18.3779 F   0  0  0  0  0  0  0  0  0  0  0  0
  1  2  1  0  0  0  0
  1  5  2  0  0  0  0
  2  6  2  0  0  0  0
  3  8  2  0  0  0  0
  3 16  1  0  0  0  0
  4  9  1  0  0  0  0
  4 16  2  0  0  0  0
  5 18  1  0  0  0  0
  6 20  1  0  0  0  0
  7 10  2  0  0  0  0
  7 19  1  0  0  0  0
  8 23  1  0  0  0  0
  9 23  2  0  0  0  0
 10 24  1  0  0  0  0
 11 12  2  0  0  0  0
 11 25  1  0  0  0  0
 12 26  1  0  0  0  0
 13 21  1  0  0  0  0
 13 24  2  0  0  0  0
 14 26  2  0  0  0  0
 14 27  1  0  0  0  0
 15 22  1  0  0  0  0
 15 65  2  0  0  0  0
 16 28  1  0  0  0  0
 17 28  1  0  0  0  0
 17 30  2  0  0  0  0
 17 32  1  0  0  0  0
 18 20  2  0  0  0  0
 18 37  1  0  0  0  0
 19 21  2  0  0  0  0
 19 38  1  0  0  0  0
 20 46  1  0  0  0  0
 21 39  1  0  0  0  0
 22 29  2  0  0  0  0
 22 73  1  0  0  0  0
 23 83  1  0  0  0  0
 24 84  1  0  0  0  0
 25 27  2  0  0  0  0
 25 83  1  0  0  0  0
 26 85  1  0  0  0  0
 27 86  1  0  0  0  0
 28 66  2  0  0  0  0
 29 63  1  0  0  0  0
 29 67  1  0  0  0  0
 30 68  1  0  0  0  0
 30 71  1  0  0  0  0
 31 65  1  0  0  0  0
 31 67  2  0  0  0  0
 31 74  1  0  0  0  0
 32 72  1  0  0  0  0
 32 78  2  0  0  0  0
 33 47  1  0  0  0  0
 33 75  1  0  0  0  0
 33 79  2  0  0  0  0
 34 59  1  0  0  0  0
 34 69  1  0  0  0  0
 34 80  2  0  0  0  0
 35 60  1  0  0  0  0
 35 76  1  0  0  0  0
 35 81  2  0  0  0  0
 36 70  1  0  0  0  0
 36 74  1  0  0  0  0
 36 82  2  0  0  0  0
 37 40  1  0  0  0  0
 38 47  1  0  0  0  0
 39 69  1  0  0  0  0
 40 42  1  0  0  0  0
 41 43  1  0  0  0  0
 41 44  1  0  0  0  0
 42 46  1  0  0  0  0
 43 48  1  0  0  0  0
 44 70  1  0  0  0  0
 45 48  1  0  0  0  0
 45 70  1  0  0  0  0
 46 75  1  0  0  0  0
 47 69  1  0  0  0  0
 48 68  1  0  0  0  0
 49 60  1  0  0  0  0
 50 61  1  0  0  0  0
 51 62  1  0  0  0  0
 52 63  1  0  0  0  0
 53 64  1  0  0  0  0
 54 64  1  0  0  0  0
 55 64  1  0  0  0  0
 56 77  1  0  0  0  0
 57 61  1  0  0  0  0
 57 62  1  0  0  0  0
 58 61  1  0  0  0  0
 58 84  1  0  0  0  0
 59 64  1  0  0  0  0
 59 76  1  0  0  0  0
 60 77  1  0  0  0  0
 62 73  1  0  0  0  0
 63 87  1  0  0  0  0
 63 88  1  0  0  0  0
 66 68  1  0  0  0  0
M  CHG  1  77   1
M  ISO  4  36 100  58 101  74 100  84 101
M  END
> <Batch ID>
0194

> <Smiles>
CNC(C)C(=O)NC(C(=O)N1Cc2cc([101O:1][101CH2:1]C(C)CC(C)Nc3cnc([100NH:0][100C:0](=O)N4CCCC(n5nc(-c6ccc(Oc7ccc(F)cc7F)cc6)c(C(N)=O)c5N)C4)nc3C(C)(F)F)ccc2CC1C(=O)NC1CCCc2ccccc21)C(C)(C)C

> <Shape>
0.318

> <Color>
0.109

> <Negative vol penalty>
0.000

$$$$

  -OEChem-04052305333D

 83 91  0     1  0  0  0  0  0999 V2000
  -22.5644   -8.0554   20.6263 C   0  0  0  0  0  0  0  0  0  0  0  0
  -21.7636   -9.1008   20.1776 C   0  0  0  0  0  0  0  0  0  0  0  0
  -29.7874  -28.6769   21.6443 C   0  0  0  0  0  0  0  0  0  0  0  0
  -28.5493  -26.6839   22.2204 C   0  0  0  0  0  0  0  0  0  0  0  0
  -23.6213   -8.3131   21.4984 C   0  0  0  0  0  0  0  0  0  0  0  0
  -22.0187  -10.4045   20.6016 C   0  0  0  0  0  0  0  0  0  0  0  0
  -21.6360  -17.1885   18.3328 C   0  0  0  0  0  0  0  0  0  0  0  0
  -30.8277  -28.2725   22.4808 C   0  0  0  0  0  0  0  0  0  0  0  0
  -29.5896  -26.2794   23.0569 C   0  0  0  0  0  0  0  0  0  0  0  0
  -21.1204  -18.4254   18.7174 C   0  0  0  0  0  0  0  0  0  0  0  0
  -32.6286  -24.8376   22.7308 C   0  0  0  0  0  0  0  0  0  0  0  0
  -33.0355  -23.5054   22.6587 C   0  0  0  0  0  0  0  0  0  0  0  0
  -23.0224  -18.7622   20.1624 C   0  0  0  0  0  0  0  0  0  0  0  0
  -32.4816  -23.2099   24.9918 C   0  0  0  0  0  0  0  0  0  0  0  0
  -18.0964  -27.4877   22.8887 C   0  0  0  0  0  0  0  0  0  0  0  0
  -28.6481  -27.8827   21.5141 C   0  0  0  0  0  0  0  0  0  0  0  0
  -27.4158  -28.0024   19.2837 C   0  0  0  0  0  0  0  0  0  0  0  0
  -23.8954   -9.6219   21.9256 C   0  0  0  0  0  0  0  0  0  0  0  0
  -22.8454  -16.7236   18.8692 C   0  0  0  0  0  0  0  0  0  0  0  0
  -23.0794  -10.6798   21.4812 C   0  0  0  0  0  0  0  0  0  0  0  0
  -23.5526  -17.5202   19.7810 C   0  0  0  0  0  0  0  0  0  0  0  0
  -30.7289  -27.0737   23.1871 C   0  0  0  0  0  0  0  0  0  0  0  0
  -21.8121  -19.2112   19.6346 C   0  0  0  0  0  0  0  0  0  0  0  0
  -32.1482  -25.3560   23.9334 C   0  0  0  0  0  0  0  0  0  0  0  0
  -32.9620  -22.6915   23.7892 C   0  0  0  0  0  0  0  0  0  0  0  0
  -32.0747  -24.5422   25.0639 C   0  0  0  0  0  0  0  0  0  0  0  0
  -27.5729  -28.3002   20.6506 C   0  0  0  0  0  0  0  0  0  0  0  0
  -18.7116  -26.2547   22.9453 C   0  0  0  0  0  0  0  0  0  0  0  0
  -26.2448  -28.6263   18.9287 C   0  0  0  0  0  0  0  0  0  0  0  0
  -20.1538  -28.1266   22.4783 C   0  0  0  0  0  0  0  0  0  0  0  0
  -28.2535  -27.2308   18.4127 C   0  0  0  0  0  0  0  0  0  0  0  0
  -23.7023  -14.2217   20.6327 C   0  0  0  0  0  0  0  0  0  0  0  0
  -26.6921  -15.3581   20.0923 C   0  0  0  0  0  0  0  0  0  0  0  0
  -28.6846  -18.0195   19.3217 C   0  0  0  0  0  0  0  0  0  0  0  0
  -21.3967  -30.2677   22.0121 C   0  0  0  0  0  0  0  0  0  0  0  0
  -25.0195   -9.8451   22.9060 C   0  0  0  0  0  0  0  0  0  0  0  0
  -23.4016  -15.3990   18.4238 C   0  0  0  0  0  0  0  0  0  0  0  0
  -24.8652  -17.0757   20.3708 C   0  0  0  0  0  0  0  0  0  0  0  0
  -25.4544  -11.3045   23.0122 C   0  0  0  0  0  0  0  0  0  0  0  0
  -23.5065  -32.3839   20.0762 C   0  0  0  0  0  0  0  0  0  0  0  0
  -24.2379  -12.2162   23.1374 C   0  0  0  0  0  0  0  0  0  0  0  0
  -24.7721  -31.5473   19.8742 C   0  0  0  0  0  0  0  0  0  0  0  0
  -22.8995  -32.1686   21.4614 C   0  0  0  0  0  0  0  0  0  0  0  0
  -23.9157  -29.9298   21.6170 C   0  0  0  0  0  0  0  0  0  0  0  0
  -23.3397  -12.1108   21.8990 C   0  0  1  0  0  0  0  0  0  0  0  0
  -24.3840  -14.7968   19.4235 C   0  0  1  0  0  0  0  0  0  0  0  0
  -24.5270  -30.0638   20.2127 C   0  0  2  0  0  0  0  0  0  0  0  0
  -31.0914  -18.6473   18.9889 C   0  0  0  0  0  0  0  0  0  0  0  0
  -15.9593  -22.7832   22.2978 C   0  0  0  0  0  0  0  0  0  0  0  0
  -27.1169  -15.3215   23.1136 C   0  0  0  0  0  0  0  0  0  0  0  0
  -29.1024  -16.8102   22.7824 C   0  0  0  0  0  0  0  0  0  0  0  0
  -29.0749  -14.5282   21.7752 C   0  0  0  0  0  0  0  0  0  0  0  0
  -28.2077  -18.8211   16.5130 C   0  0  0  0  0  0  0  0  0  0  0  0
  -18.1251  -24.8999   23.2126 C   0  0  0  0  0  0  0  0  0  0  0  0
  -19.4666  -21.5686   21.0720 C   0  0  0  0  0  0  0  0  0  0  0  0
  -17.9435  -21.7469   21.1232 C   0  0  0  0  0  0  0  0  0  0  0  0
  -19.8909  -20.5624   20.0078 C   0  0  0  0  0  0  0  0  0  1  0  0
  -27.6067  -16.3355   20.7903 C   0  0  1  0  0  0  0  0  0  0  0  0
  -29.8112  -18.1766   18.3164 C   0  0  2  0  0  0  0  0  0  0  0  0
  -17.4784  -22.6941   22.2353 C   0  0  1  0  0  0  0  0  0  0  0  0
  -28.1995  -15.7567   22.1059 C   0  0  0  0  0  0  0  0  0  0  0  0
  -18.9219  -28.5624   22.6214 N   0  0  0  0  0  0  0  0  0  0  0  0
  -26.5811  -29.0547   21.1313 N   0  0  0  0  0  0  0  0  0  0  0  0
  -25.7896  -29.2363   20.0605 N   0  0  0  0  0  0  0  0  0  0  0  0
  -25.3646  -15.7701   19.9087 N   0  0  0  0  0  0  0  0  0  0  0  0
  -22.6914  -30.7405   21.7105 N   0  0  0  0  0  0  0  0  0  0  0  0
  -25.5705  -28.7071   17.7621 N   0  0  0  0  0  0  0  0  0  0  0  0
  -29.4197  -26.6598   18.9403 N   0  0  0  0  0  0  0  0  0  0  0  0
  -21.3154  -28.8880   22.1972 N   0  0  0  0  0  0  0  0  0  0  0  0
  -23.9035  -12.8649   20.8000 N   0  0  0  0  0  0  0  0  0  0  0  0
  -28.6088  -16.7309   19.8065 N   0  0  0  0  0  0  0  0  0  0  0  0
  -29.4371  -19.1700   17.2704 N   0  3  0  0  0  0  0  0  0  0  0  0
  -18.0083  -24.0643   21.9894 N   0  3  0  0  0  0  0  0  0  0  0  0
  -27.9846  -27.0667   17.1985 O   0  0  0  0  0  0  0  0  0  0  0  0
  -23.0437  -14.9550   21.3609 O   0  0  0  0  0  0  0  0  0  0  0  0
  -27.1409  -14.2720   19.7173 O   0  0  0  0  0  0  0  0  0  0  0  0
  -27.9481  -18.9479   19.6473 O   0  0  0  0  0  0  0  0  0  0  0  0
  -20.4264  -31.0271   22.0730 O   0  0  0  0  0  0  0  0  0  0  0  0
  -31.7439  -26.6786   24.0032 O   0  0  0  0  0  0  0  0  0  0  0  0
  -21.3107  -20.4186   20.0122 O   0  0  0  0  0  0  0  0  0  1  0  0
  -33.3513  -21.4118   23.7194 F   0  0  0  0  0  0  0  0  0  0  0  0
  -31.6130  -25.0342   26.2217 F   0  0  0  0  0  0  0  0  0  0  0  0
  -20.3915  -26.4359   22.6516 S   0  0  0  0  0  0  0  0  0  0  0  0
  1  2  1  0  0  0  0
  1  5  2  0  0  0  0
  2  6  2  0  0  0  0
  3  8  2  0  0  0  0
  3 16  1  0  0  0  0
  4  9  1  0  0  0  0
  4 16  2  0  0  0  0
  5 18  1  0  0  0  0
  6 20  1  0  0  0  0
  7 10  2  0  0  0  0
  7 19  1  0  0  0  0
  8 22  1  0  0  0  0
  9 22  2  0  0  0  0
 10 23  1  0  0  0  0
 11 12  2  0  0  0  0
 11 24  1  0  0  0  0
 12 25  1  0  0  0  0
 13 21  1  0  0  0  0
 13 23  2  0  0  0  0
 14 25  2  0  0  0  0
 14 26  1  0  0  0  0
 15 28  2  0  0  0  0
 15 62  1  0  0  0  0
 16 27  1  0  0  0  0
 17 27  1  0  0  0  0
 17 29  2  0  0  0  0
 17 31  1  0  0  0  0
 18 20  2  0  0  0  0
 18 36  1  0  0  0  0
 19 21  2  0  0  0  0
 19 37  1  0  0  0  0
 20 45  1  0  0  0  0
 21 38  1  0  0  0  0
 22 79  1  0  0  0  0
 23 80  1  0  0  0  0
 24 26  2  0  0  0  0
 24 79  1  0  0  0  0
 25 81  1  0  0  0  0
 26 82  1  0  0  0  0
 27 63  2  0  0  0  0
 28 54  1  0  0  0  0
 28 83  1  0  0  0  0
 29 64  1  0  0  0  0
 29 67  1  0  0  0  0
 30 62  2  0  0  0  0
 30 69  1  0  0  0  0
 30 83  1  0  0  0  0
 31 68  1  0  0  0  0
 31 74  2  0  0  0  0
 32 46  1  0  0  0  0
 32 70  1  0  0  0  0
 32 75  2  0  0  0  0
 33 58  1  0  0  0  0
 33 65  1  0  0  0  0
 33 76  2  0  0  0  0
 34 59  1  0  0  0  0
 34 71  1  0  0  0  0
 34 77  2  0  0  0  0
 35 66  1  0  0  0  0
 35 69  1  0  0  0  0
 35 78  2  0  0  0  0
 36 39  1  0  0  0  0
 37 46  1  0  0  0  0
 38 65  1  0  0  0  0
 39 41  1  0  0  0  0
 40 42  1  0  0  0  0
 40 43  1  0  0  0  0
 41 45  1  0  0  0  0
 42 47  1  0  0  0  0
 43 66  1  0  0  0  0
 44 47  1  0  0  0  0
 44 66  1  0  0  0  0
 45 70  1  0  0  0  0
 46 65  1  0  0  0  0
 47 64  1  0  0  0  0
 48 59  1  0  0  0  0
 49 60  1  0  0  0  0
 50 61  1  0  0  0  0
 51 61  1  0  0  0  0
 52 61  1  0  0  0  0
 53 72  1  0  0  0  0
 54 73  1  0  0  0  0
 55 56  1  0  0  0  0
 55 57  1  0  0  0  0
 56 60  1  0  0  0  0
 57 80  1  0  0  0  0
 58 61  1  0  0  0  0
 58 71  1  0  0  0  0
 59 72  1  0  0  0  0
 60 73  1  0  0  0  0
 63 64  1  0  0  0  0
M  CHG  2  72   1  73   1
M  ISO  4  35 100  57 101  69 100  80 101
M  END
> <Batch ID>
0194

> <Smiles>
CNC(C)C(=O)NC(C(=O)N1Cc2cc([101O:1][101CH2:1]CCC(C)NCc3cnc([100NH:0][100C:0](=O)N4CCCC(n5nc(-c6ccc(Oc7ccc(F)cc7F)cc6)c(C(N)=O)c5N)C4)s3)ccc2CC1C(=O)NC1CCCc2ccccc21)C(C)(C)C

> <Shape>
0.227

> <Color>
0.067

> <Negative vol penalty>
0.000

$$$$

  -OEChem-04052305333D

 83 91  0     1  0  0  0  0  0999 V2000
  -27.5326  -19.0331   17.3142 C   0  0  0  0  0  0  0  0  0  0  0  0
  -26.5840  -20.0490   17.2554 C   0  0  0  0  0  0  0  0  0  0  0  0
  -24.1493  -16.7215   23.1108 C   0  0  0  0  0  0  0  0  0  0  0  0
  -25.0346  -18.0631   21.3071 C   0  0  0  0  0  0  0  0  0  0  0  0
  -28.5065  -19.0473   18.3119 C   0  0  0  0  0  0  0  0  0  0  0  0
  -26.6080  -21.0791   18.1949 C   0  0  0  0  0  0  0  0  0  0  0  0
  -25.1785  -28.0675   18.8550 C   0  0  0  0  0  0  0  0  0  0  0  0
  -24.4824  -15.5615   22.4115 C   0  0  0  0  0  0  0  0  0  0  0  0
  -25.3677  -16.9031   20.6078 C   0  0  0  0  0  0  0  0  0  0  0  0
  -24.4548  -28.9476   19.6584 C   0  0  0  0  0  0  0  0  0  0  0  0
  -23.2252  -13.7506   19.8493 C   0  0  0  0  0  0  0  0  0  0  0  0
  -22.2735  -12.7323   19.7941 C   0  0  0  0  0  0  0  0  0  0  0  0
  -26.2320  -28.9109   21.2891 C   0  0  0  0  0  0  0  0  0  0  0  0
  -23.8185  -11.2294   20.8856 C   0  0  0  0  0  0  0  0  0  0  0  0
  -24.4254  -17.9723   22.5586 C   0  0  0  0  0  0  0  0  0  0  0  0
  -24.8869  -19.8723   24.1972 C   0  0  0  0  0  0  0  0  0  0  0  0
  -28.5484  -20.0833   19.2583 C   0  0  0  0  0  0  0  0  0  0  0  0
  -26.4317  -27.5931   19.2684 C   0  0  0  0  0  0  0  0  0  0  0  0
  -27.5825  -21.1065   19.2069 C   0  0  0  0  0  0  0  0  0  0  0  0
  -26.9707  -28.0268   20.4880 C   0  0  0  0  0  0  0  0  0  0  0  0
  -25.0916  -15.6523   21.1600 C   0  0  0  0  0  0  0  0  0  0  0  0
  -24.9803  -29.3672   20.8770 C   0  0  0  0  0  0  0  0  0  0  0  0
  -24.4735  -13.5083   20.4226 C   0  0  0  0  0  0  0  0  0  0  0  0
  -22.5702  -11.4717   20.3122 C   0  0  0  0  0  0  0  0  0  0  0  0
  -24.7701  -12.2477   20.9408 C   0  0  0  0  0  0  0  0  0  0  0  0
  -24.0811  -19.1710   23.2803 C   0  0  0  0  0  0  0  0  0  0  0  0
  -24.1081  -20.9294   24.6001 C   0  0  0  0  0  0  0  0  0  0  0  0
  -18.7723  -26.9794   21.9782 C   0  0  0  0  0  0  0  0  0  0  0  0
  -18.3795  -28.8796   23.1058 C   0  0  0  0  0  0  0  0  0  0  0  0
  -20.4784  -28.3273   22.5344 C   0  0  0  0  0  0  0  0  0  0  0  0
  -26.2201  -19.5931   24.6445 C   0  0  0  0  0  0  0  0  0  0  0  0
  -27.6374  -24.7286   19.9352 C   0  0  0  0  0  0  0  0  0  0  0  0
  -30.4134  -26.3872   20.1903 C   0  0  0  0  0  0  0  0  0  0  0  0
  -31.9614  -29.3745   20.7615 C   0  0  0  0  0  0  0  0  0  0  0  0
  -19.6726  -23.7833   21.9474 C   0  0  0  0  0  0  0  0  0  0  0  0
  -29.5911  -20.0306   20.3467 C   0  0  0  0  0  0  0  0  0  0  0  0
  -27.2116  -26.6650   18.3780 C   0  0  0  0  0  0  0  0  0  0  0  0
  -28.3208  -27.5627   20.9680 C   0  0  0  0  0  0  0  0  0  0  0  0
  -29.7760  -21.3577   21.0778 C   0  0  0  0  0  0  0  0  0  0  0  0
  -19.5312  -22.1957   25.1966 C   0  0  0  0  0  0  0  0  0  0  0  0
  -28.4226  -21.9571   21.4466 C   0  0  0  0  0  0  0  0  0  0  0  0
  -20.7716  -21.3016   25.1525 C   0  0  0  0  0  0  0  0  0  0  0  0
  -18.8432  -22.2541   23.8359 C   0  0  0  0  0  0  0  0  0  0  0  0
  -20.9665  -21.7973   22.6713 C   0  0  0  0  0  0  0  0  0  0  0  0
  -27.5908  -22.2543   20.1931 C   0  0  1  0  0  0  0  0  0  0  0  0
  -28.2501  -25.8430   19.1350 C   0  0  1  0  0  0  0  0  0  0  0  0
  -21.7199  -21.7149   24.0113 C   0  0  2  0  0  0  0  0  0  0  0  0
  -34.2404  -30.4092   20.9431 C   0  0  0  0  0  0  0  0  0  0  0  0
  -24.5997  -30.6944   23.9750 C   0  0  0  0  0  0  0  0  0  0  0  0
  -30.7495  -25.1545   22.9612 C   0  0  0  0  0  0  0  0  0  0  0  0
  -32.4712  -26.9041   23.4542 C   0  0  0  0  0  0  0  0  0  0  0  0
  -32.8499  -25.2692   21.6086 C   0  0  0  0  0  0  0  0  0  0  0  0
  -31.4415  -31.1989   18.4898 C   0  0  0  0  0  0  0  0  0  0  0  0
  -18.2686  -25.7343   21.3313 C   0  0  0  0  0  0  0  0  0  0  0  0
  -22.4077  -29.7930   23.1305 C   0  0  0  0  0  0  0  0  0  0  0  0
  -31.1333  -27.1010   21.3089 C   0  0  1  0  0  0  0  0  0  0  0  0
  -33.0756  -30.0898   20.0189 C   0  0  2  0  0  0  0  0  0  0  0  0
  -23.9260  -29.7713   22.9701 C   0  0  1  0  0  0  0  0  0  1  0  0
  -31.7747  -26.1146   22.3253 C   0  0  0  0  0  0  0  0  0  0  0  0
  -22.8823  -19.7350   23.1107 N   0  0  0  0  0  0  0  0  0  0  0  0
  -17.8540  -27.7787   22.5450 N   0  0  0  0  0  0  0  0  0  0  0  0
  -20.0981  -27.1882   21.9340 N   0  0  0  0  0  0  0  0  0  0  0  0
  -19.6781  -29.2196   23.1397 N   0  0  0  0  0  0  0  0  0  0  0  0
  -22.9290  -20.8018   23.9266 N   0  0  0  0  0  0  0  0  0  0  0  0
  -29.0420  -26.6508   20.0648 N   0  0  0  0  0  0  0  0  0  0  0  0
  -19.7956  -22.6716   22.7973 N   0  0  0  0  0  0  0  0  0  0  0  0
  -24.3237  -21.9464   25.4614 N   0  0  0  0  0  0  0  0  0  0  0  0
  -17.4742  -29.7696   23.7241 N   0  0  0  0  0  0  0  0  0  0  0  0
  -26.8756  -18.4665   24.1293 N   0  0  0  0  0  0  0  0  0  0  0  0
  -21.8340  -28.6105   22.5291 N   0  0  0  0  0  0  0  0  0  0  0  0
  -28.0546  -23.4674   19.5546 N   0  0  0  0  0  0  0  0  0  0  0  0
  -32.0849  -28.0042   20.6709 N   0  0  0  0  0  0  0  0  0  0  0  0
  -18.5315  -24.5557   22.1267 N   0  0  0  0  0  0  0  0  0  0  0  0
  -32.5738  -31.3666   19.4368 N   0  3  0  0  0  0  0  0  0  0  0  0
  -26.8065  -20.3119   25.4889 O   0  0  0  0  0  0  0  0  0  0  0  0
  -26.8458  -24.9934   20.8324 O   0  0  0  0  0  0  0  0  0  0  0  0
  -31.0459  -25.6293   19.4506 O   0  0  0  0  0  0  0  0  0  0  0  0
  -31.0726  -29.9716   21.3648 O   0  0  0  0  0  0  0  0  0  0  0  0
  -20.5200  -24.0699   21.0949 O   0  0  0  0  0  0  0  0  0  0  0  0
  -25.4169  -14.5205   20.4774 O   0  0  0  0  0  0  0  0  0  0  0  0
  -24.2757  -30.2257   21.6633 O   0  0  0  0  0  0  0  0  0  1  0  0
  -21.6557  -10.4944   20.2605 F   0  0  0  0  0  0  0  0  0  0  0  0
  -25.9672  -12.0092   21.4938 F   0  0  0  0  0  0  0  0  0  0  0  0
  1  2  1  0  0  0  0
  1  5  2  0  0  0  0
  2  6  2  0  0  0  0
  3  8  2  0  0  0  0
  3 15  1  0  0  0  0
  4  9  1  0  0  0  0
  4 15  2  0  0  0  0
  5 17  1  0  0  0  0
  6 19  1  0  0  0  0
  7 10  2  0  0  0  0
  7 18  1  0  0  0  0
  8 21  1  0  0  0  0
  9 21  2  0  0  0  0
 10 22  1  0  0  0  0
 11 12  2  0  0  0  0
 11 23  1  0  0  0  0
 12 24  1  0  0  0  0
 13 20  1  0  0  0  0
 13 22  2  0  0  0  0
 14 24  2  0  0  0  0
 14 25  1  0  0  0  0
 15 26  1  0  0  0  0
 16 26  1  0  0  0  0
 16 27  2  0  0  0  0
 16 31  1  0  0  0  0
 17 19  2  0  0  0  0
 17 36  1  0  0  0  0
 18 20  2  0  0  0  0
 18 37  1  0  0  0  0
 19 45  1  0  0  0  0
 20 38  1  0  0  0  0
 21 80  1  0  0  0  0
 22 81  1  0  0  0  0
 23 25  2  0  0  0  0
 23 80  1  0  0  0  0
 24 82  1  0  0  0  0
 25 83  1  0  0  0  0
 26 60  2  0  0  0  0
 27 64  1  0  0  0  0
 27 67  1  0  0  0  0
 28 54  1  0  0  0  0
 28 61  2  0  0  0  0
 28 62  1  0  0  0  0
 29 61  1  0  0  0  0
 29 63  2  0  0  0  0
 29 68  1  0  0  0  0
 30 62  2  0  0  0  0
 30 63  1  0  0  0  0
 30 70  1  0  0  0  0
 31 69  1  0  0  0  0
 31 75  2  0  0  0  0
 32 46  1  0  0  0  0
 32 71  1  0  0  0  0
 32 76  2  0  0  0  0
 33 56  1  0  0  0  0
 33 65  1  0  0  0  0
 33 77  2  0  0  0  0
 34 57  1  0  0  0  0
 34 72  1  0  0  0  0
 34 78  2  0  0  0  0
 35 66  1  0  0  0  0
 35 73  1  0  0  0  0
 35 79  2  0  0  0  0
 36 39  1  0  0  0  0
 37 46  1  0  0  0  0
 38 65  1  0  0  0  0
 39 41  1  0  0  0  0
 40 42  1  0  0  0  0
 40 43  1  0  0  0  0
 41 45  1  0  0  0  0
 42 47  1  0  0  0  0
 43 66  1  0  0  0  0
 44 47  1  0  0  0  0
 44 66  1  0  0  0  0
 45 71  1  0  0  0  0
 46 65  1  0  0  0  0
 47 64  1  0  0  0  0
 48 57  1  0  0  0  0
 49 58  1  0  0  0  0
 50 59  1  0  0  0  0
 51 59  1  0  0  0  0
 52 59  1  0  0  0  0
 53 74  1  0  0  0  0
 54 73  1  0  0  0  0
 55 58  1  0  0  0  0
 55 70  1  0  0  0  0
 56 59  1  0  0  0  0
 56 72  1  0  0  0  0
 57 74  1  0  0  0  0
 58 81  1  0  0  0  0
 60 64  1  0  0  0  0
M  CHG  1  74   1
M  ISO  4  35 100  58 101  73 100  81 101
M  END
> <Batch ID>
0194

> <Smiles>
CNC(C)C(=O)NC(C(=O)N1Cc2cc([101O:1][101CH:1](C)CNc3nc(N)nc(C[100NH:0][100C:0](=O)N4CCCC(n5nc(-c6ccc(Oc7ccc(F)cc7F)cc6)c(C(N)=O)c5N)C4)n3)ccc2CC1C(=O)NC1CCCc2ccccc21)C(C)(C)C

> <Shape>
0.238

> <Color>
0.066

> <Negative vol penalty>
0.000

$$$$

  -OEChem-04052305333D

 82 90  0     1  0  0  0  0  0999 V2000
  -17.2210  -30.4524   23.8460 C   0  0  0  0  0  0  0  0  0  0  0  0
  -18.1517  -30.1699   24.8407 C   0  0  0  0  0  0  0  0  0  0  0  0
  -27.2402  -17.3749   19.8172 C   0  0  0  0  0  0  0  0  0  0  0  0
  -28.3444  -17.6296   21.9510 C   0  0  0  0  0  0  0  0  0  0  0  0
  -17.2738  -29.7724   22.6300 C   0  0  0  0  0  0  0  0  0  0  0  0
  -19.1352  -29.2063   24.6203 C   0  0  0  0  0  0  0  0  0  0  0  0
  -25.9338  -27.6851   26.2883 C   0  0  0  0  0  0  0  0  0  0  0  0
  -27.2846  -15.9881   19.9598 C   0  0  0  0  0  0  0  0  0  0  0  0
  -28.3887  -16.2427   22.0936 C   0  0  0  0  0  0  0  0  0  0  0  0
  -26.7091  -26.6508   26.8106 C   0  0  0  0  0  0  0  0  0  0  0  0
  -25.5754  -13.6005   21.6365 C   0  0  0  0  0  0  0  0  0  0  0  0
  -24.4200  -12.8804   21.3333 C   0  0  0  0  0  0  0  0  0  0  0  0
  -26.7520  -25.5958   24.6417 C   0  0  0  0  0  0  0  0  0  0  0  0
  -25.6244  -11.6663   19.6268 C   0  0  0  0  0  0  0  0  0  0  0  0
  -34.2662  -23.1334   25.4749 C   0  0  0  0  0  0  0  0  0  0  0  0
  -27.7702  -18.1957   20.8128 C   0  0  0  0  0  0  0  0  0  0  0  0
  -26.7012  -20.4949   21.0925 C   0  0  0  0  0  0  0  0  0  0  0  0
  -18.2644  -28.8069   22.3910 C   0  0  0  0  0  0  0  0  0  0  0  0
  -25.5520  -27.6770   24.9390 C   0  0  0  0  0  0  0  0  0  0  0  0
  -19.2006  -28.5118   23.4004 C   0  0  0  0  0  0  0  0  0  0  0  0
  -25.9740  -26.6325   24.1041 C   0  0  0  0  0  0  0  0  0  0  0  0
  -27.8588  -15.4220   21.0980 C   0  0  0  0  0  0  0  0  0  0  0  0
  -27.1159  -25.6044   25.9880 C   0  0  0  0  0  0  0  0  0  0  0  0
  -26.7554  -13.3536   20.9348 C   0  0  0  0  0  0  0  0  0  0  0  0
  -24.4444  -11.9133   20.3285 C   0  0  0  0  0  0  0  0  0  0  0  0
  -26.7799  -12.3865   19.9300 C   0  0  0  0  0  0  0  0  0  0  0  0
  -27.7253  -19.6283   20.6658 C   0  0  0  0  0  0  0  0  0  0  0  0
  -32.9812  -23.6135   25.3326 C   0  0  0  0  0  0  0  0  0  0  0  0
  -27.1324  -21.7450   20.7212 C   0  0  0  0  0  0  0  0  0  0  0  0
  -33.7055  -24.0023   23.2993 C   0  0  0  0  0  0  0  0  0  0  0  0
  -25.4704  -20.1966   21.7646 C   0  0  0  0  0  0  0  0  0  0  0  0
  -22.7759  -27.5790   23.3939 C   0  0  0  0  0  0  0  0  0  0  0  0
  -24.6571  -28.0046   20.7857 C   0  0  0  0  0  0  0  0  0  0  0  0
  -27.7385  -27.6885   19.3533 C   0  0  0  0  0  0  0  0  0  0  0  0
  -32.5660  -24.0560   19.7283 C   0  0  0  0  0  0  0  0  0  0  0  0
  -18.2525  -28.0641   21.0784 C   0  0  0  0  0  0  0  0  0  0  0  0
  -24.7379  -28.8138   24.3846 C   0  0  0  0  0  0  0  0  0  0  0  0
  -25.6079  -26.5873   22.6438 C   0  0  0  0  0  0  0  0  0  0  0  0
  -19.5554  -27.3247   20.7851 C   0  0  0  0  0  0  0  0  0  0  0  0
  -29.8332  -23.9554   17.4484 C   0  0  0  0  0  0  0  0  0  0  0  0
  -20.0165  -26.5476   22.0140 C   0  0  0  0  0  0  0  0  0  0  0  0
  -28.8907  -22.9132   18.0530 C   0  0  0  0  0  0  0  0  0  0  0  0
  -31.2985  -23.5780   17.6544 C   0  0  0  0  0  0  0  0  0  0  0  0
  -30.7333  -22.2581   19.6574 C   0  0  0  0  0  0  0  0  0  0  0  0
  -20.2977  -27.4909   23.1898 C   0  0  1  0  0  0  0  0  0  0  0  0
  -23.9755  -28.4403   23.1171 C   0  0  1  0  0  0  0  0  0  0  0  0
  -29.2449  -22.6230   19.5239 C   0  0  2  0  0  0  0  0  0  0  0  0
  -28.9588  -28.0873   17.1971 C   0  0  0  0  0  0  0  0  0  0  0  0
  -23.3312  -25.5346   19.5813 C   0  0  0  0  0  0  0  0  0  0  0  0
  -25.1997  -25.4282   17.9183 C   0  0  0  0  0  0  0  0  0  0  0  0
  -23.6916  -27.4145   17.9719 C   0  0  0  0  0  0  0  0  0  0  0  0
  -29.6139  -29.5879   20.6315 C   0  0  0  0  0  0  0  0  0  0  0  0
  -33.7382  -24.4294   21.8837 C   0  0  0  0  0  0  0  0  0  0  0  0
  -30.7004  -24.1113   26.2134 C   0  0  0  0  0  0  0  0  0  0  0  0
  -28.7433  -24.9145   27.5791 C   0  0  0  0  0  0  0  0  0  1  0  0
  -25.3783  -27.0886   19.8268 C   0  0  1  0  0  0  0  0  0  0  0  0
  -28.5821  -28.6642   18.5529 C   0  0  2  0  0  0  0  0  0  0  0  0
  -29.9500  -23.9832   27.5376 C   0  0  1  0  0  0  0  0  0  0  0  0
  -24.4056  -26.3660   18.8525 C   0  0  0  0  0  0  0  0  0  0  0  0
  -28.7311  -20.2732   20.0689 N   0  0  0  0  0  0  0  0  0  0  0  0
  -32.6580  -24.1126   24.0859 N   0  0  0  0  0  0  0  0  0  0  0  0
  -28.3412  -21.5584   20.1178 N   0  0  0  0  0  0  0  0  0  0  0  0
  -24.8054  -27.7187   22.1503 N   0  0  0  0  0  0  0  0  0  0  0  0
  -31.5688  -23.3173   19.0703 N   0  0  0  0  0  0  0  0  0  0  0  0
  -26.5915  -22.9746   20.8551 N   0  0  0  0  0  0  0  0  0  0  0  0
  -25.1838  -18.8595   22.0716 N   0  0  0  0  0  0  0  0  0  0  0  0
  -32.0487  -23.6096   26.3562 N   0  0  0  0  0  0  0  0  0  0  0  0
  -21.5750  -28.1486   23.0158 N   0  0  0  0  0  0  0  0  0  0  0  0
  -26.3899  -27.9052   19.1648 N   0  0  0  0  0  0  0  0  0  0  0  0
  -32.7537  -23.7506   21.0708 N   0  0  0  0  0  0  0  0  0  0  0  0
  -29.8358  -28.9905   19.2896 N   0  3  0  0  0  0  0  0  0  0  0  0
  -24.6414  -21.0876   22.0687 O   0  0  0  0  0  0  0  0  0  0  0  0
  -22.9286  -26.4785   23.9107 O   0  0  0  0  0  0  0  0  0  0  0  0
  -23.9925  -28.9438   20.3407 O   0  0  0  0  0  0  0  0  0  0  0  0
  -28.2270  -26.8185   20.0709 O   0  0  0  0  0  0  0  0  0  0  0  0
  -33.2355  -24.9272   19.1628 O   0  0  0  0  0  0  0  0  0  0  0  0
  -29.4706  -22.6440   27.6753 O   0  0  0  0  0  0  0  0  0  0  0  0
  -27.9019  -14.0687   21.2376 O   0  0  0  0  0  0  0  0  0  0  0  0
  -27.8722  -24.5933   26.4954 O   0  0  0  0  0  0  0  0  0  1  0  0
  -23.3352  -11.2208   20.0384 F   0  0  0  0  0  0  0  0  0  0  0  0
  -27.9108  -12.1439   19.2532 F   0  0  0  0  0  0  0  0  0  0  0  0
  -35.1126  -23.3070   23.9935 S   0  0  0  0  0  0  0  0  0  0  0  0
  1  2  1  0  0  0  0
  1  5  2  0  0  0  0
  2  6  2  0  0  0  0
  3  8  2  0  0  0  0
  3 16  1  0  0  0  0
  4  9  1  0  0  0  0
  4 16  2  0  0  0  0
  5 18  1  0  0  0  0
  6 20  1  0  0  0  0
  7 10  2  0  0  0  0
  7 19  1  0  0  0  0
  8 22  1  0  0  0  0
  9 22  2  0  0  0  0
 10 23  1  0  0  0  0
 11 12  2  0  0  0  0
 11 24  1  0  0  0  0
 12 25  1  0  0  0  0
 13 21  1  0  0  0  0
 13 23  2  0  0  0  0
 14 25  2  0  0  0  0
 14 26  1  0  0  0  0
 15 28  2  0  0  0  0
 15 82  1  0  0  0  0
 16 27  1  0  0  0  0
 17 27  1  0  0  0  0
 17 29  2  0  0  0  0
 17 31  1  0  0  0  0
 18 20  2  0  0  0  0
 18 36  1  0  0  0  0
 19 21  2  0  0  0  0
 19 37  1  0  0  0  0
 20 45  1  0  0  0  0
 21 38  1  0  0  0  0
 22 78  1  0  0  0  0
 23 79  1  0  0  0  0
 24 26  2  0  0  0  0
 24 78  1  0  0  0  0
 25 80  1  0  0  0  0
 26 81  1  0  0  0  0
 27 60  2  0  0  0  0
 28 61  1  0  0  0  0
 28 67  1  0  0  0  0
 29 62  1  0  0  0  0
 29 65  1  0  0  0  0
 30 53  1  0  0  0  0
 30 61  2  0  0  0  0
 30 82  1  0  0  0  0
 31 66  1  0  0  0  0
 31 72  2  0  0  0  0
 32 46  1  0  0  0  0
 32 68  1  0  0  0  0
 32 73  2  0  0  0  0
 33 56  1  0  0  0  0
 33 63  1  0  0  0  0
 33 74  2  0  0  0  0
 34 57  1  0  0  0  0
 34 69  1  0  0  0  0
 34 75  2  0  0  0  0
 35 64  1  0  0  0  0
 35 70  1  0  0  0  0
 35 76  2  0  0  0  0
 36 39  1  0  0  0  0
 37 46  1  0  0  0  0
 38 63  1  0  0  0  0
 39 41  1  0  0  0  0
 40 42  1  0  0  0  0
 40 43  1  0  0  0  0
 41 45  1  0  0  0  0
 42 47  1  0  0  0  0
 43 64  1  0  0  0  0
 44 47  1  0  0  0  0
 44 64  1  0  0  0  0
 45 68  1  0  0  0  0
 46 63  1  0  0  0  0
 47 62  1  0  0  0  0
 48 57  1  0  0  0  0
 49 59  1  0  0  0  0
 50 59  1  0  0  0  0
 51 59  1  0  0  0  0
 52 71  1  0  0  0  0
 53 70  1  0  0  0  0
 54 58  1  0  0  0  0
 54 67  1  0  0  0  0
 55 58  1  0  0  0  0
 55 79  1  0  0  0  0
 56 59  1  0  0  0  0
 56 69  1  0  0  0  0
 57 71  1  0  0  0  0
 58 77  1  0  0  0  0
 60 62  1  0  0  0  0
M  CHG  1  71   1
M  ISO  4  35 100  55 101  70 100  79 101
M  END
> <Batch ID>
0194

> <Smiles>
CNC(C)C(=O)NC(C(=O)N1Cc2cc([101O:1][101CH2:1]C(O)CNc3csc(C[100NH:0][100C:0](=O)N4CCCC(n5nc(-c6ccc(Oc7ccc(F)cc7F)cc6)c(C(N)=O)c5N)C4)n3)ccc2CC1C(=O)NC1CCCc2ccccc21)C(C)(C)C

> <Shape>
0.220

> <Color>
0.080

> <Negative vol penalty>
0.000

$$$$

  -OEChem-04052305333D

 85 93  0     1  0  0  0  0  0999 V2000
  -21.7954  -23.1770   20.0064 C   0  0  0  0  0  0  0  0  0  0  0  0
  -23.1355  -23.1976   20.3792 C   0  0  0  0  0  0  0  0  0  0  0  0
  -24.6179   -9.5184   21.1761 C   0  0  0  0  0  0  0  0  0  0  0  0
  -24.9573  -10.4945   23.3599 C   0  0  0  0  0  0  0  0  0  0  0  0
  -21.0412  -24.3486   20.0554 C   0  0  0  0  0  0  0  0  0  0  0  0
  -23.7226  -24.3903   20.8002 C   0  0  0  0  0  0  0  0  0  0  0  0
  -26.5760  -23.7952   24.9414 C   0  0  0  0  0  0  0  0  0  0  0  0
  -24.3763   -8.2786   21.7678 C   0  0  0  0  0  0  0  0  0  0  0  0
  -24.7157   -9.2547   23.9516 C   0  0  0  0  0  0  0  0  0  0  0  0
  -27.8435  -23.2412   24.7670 C   0  0  0  0  0  0  0  0  0  0  0  0
  -21.8221   -6.7302   23.3526 C   0  0  0  0  0  0  0  0  0  0  0  0
  -20.7346   -5.9909   22.8876 C   0  0  0  0  0  0  0  0  0  0  0  0
  -28.8146  -25.4472   24.8655 C   0  0  0  0  0  0  0  0  0  0  0  0
  -22.2240   -4.1956   22.2586 C   0  0  0  0  0  0  0  0  0  0  0  0
  -27.9371  -22.0890   20.9572 C   0  0  0  0  0  0  0  0  0  0  0  0
  -27.0493  -19.9031   21.4243 C   0  0  0  0  0  0  0  0  0  0  0  0
  -24.9084  -10.6264   21.9721 C   0  0  0  0  0  0  0  0  0  0  0  0
  -24.2124  -12.9057   21.0624 C   0  0  0  0  0  0  0  0  0  0  0  0
  -21.6169  -25.5543   20.4864 C   0  0  0  0  0  0  0  0  0  0  0  0
  -26.4170  -25.1826   25.0684 C   0  0  0  0  0  0  0  0  0  0  0  0
  -22.9758  -25.5795   20.8538 C   0  0  0  0  0  0  0  0  0  0  0  0
  -27.5443  -26.0160   25.0439 C   0  0  0  0  0  0  0  0  0  0  0  0
  -24.4252   -8.1468   23.1556 C   0  0  0  0  0  0  0  0  0  0  0  0
  -28.9627  -24.0674   24.7262 C   0  0  0  0  0  0  0  0  0  0  0  0
  -23.1106   -6.2023   23.2705 C   0  0  0  0  0  0  0  0  0  0  0  0
  -20.9355   -4.7236   22.3406 C   0  0  0  0  0  0  0  0  0  0  0  0
  -23.3116   -4.9349   22.7235 C   0  0  0  0  0  0  0  0  0  0  0  0
  -26.9129  -21.2866   21.4476 C   0  0  0  0  0  0  0  0  0  0  0  0
  -25.1586  -11.9072   21.3614 C   0  0  0  0  0  0  0  0  0  0  0  0
  -29.0684  -21.4637   20.4582 C   0  0  0  0  0  0  0  0  0  0  0  0
  -28.2202  -19.3757   20.9042 C   0  0  0  0  0  0  0  0  0  0  0  0
  -24.9486  -13.9179   20.4965 C   0  0  0  0  0  0  0  0  0  0  0  0
  -22.7949  -12.9174   21.2770 C   0  0  0  0  0  0  0  0  0  0  0  0
  -24.9147  -27.4305   23.3969 C   0  0  0  0  0  0  0  0  0  0  0  0
  -25.8110  -29.3227   25.8745 C   0  0  0  0  0  0  0  0  0  0  0  0
  -27.9630  -29.8793   28.4641 C   0  0  0  0  0  0  0  0  0  0  0  0
  -29.4299  -17.2214   20.4121 C   0  0  0  0  0  0  0  0  0  0  0  0
  -20.7742  -26.8050   20.4776 C   0  0  0  0  0  0  0  0  0  0  0  0
  -25.0456  -25.7622   25.2826 C   0  0  0  0  0  0  0  0  0  0  0  0
  -27.4294  -27.5101   25.1959 C   0  0  0  0  0  0  0  0  0  0  0  0
  -21.3729  -27.9487   21.2923 C   0  0  0  0  0  0  0  0  0  0  0  0
  -29.7563  -14.0072   18.9156 C   0  0  0  0  0  0  0  0  0  0  0  0
  -22.8554  -28.1127   20.9728 C   0  0  0  0  0  0  0  0  0  0  0  0
  -28.5114  -13.2565   19.3939 C   0  0  0  0  0  0  0  0  0  0  0  0
  -30.3093  -14.9348   19.9961 C   0  0  0  0  0  0  0  0  0  0  0  0
  -28.0891  -15.1204   21.0475 C   0  0  0  0  0  0  0  0  0  0  0  0
  -23.6420  -26.8484   21.3397 C   0  0  1  0  0  0  0  0  0  0  0  0
  -24.9496  -27.2322   24.8859 C   0  0  1  0  0  0  0  0  0  0  0  0
  -27.4580  -14.2223   19.9711 C   0  0  2  0  0  0  0  0  0  0  0  0
  -29.7458  -23.1086   18.6896 C   0  0  0  0  0  0  0  0  0  0  0  0
  -28.4672  -31.5291   30.2866 C   0  0  0  0  0  0  0  0  0  0  0  0
  -27.0595  -31.2044   23.8225 C   0  0  0  0  0  0  0  0  0  0  0  0
  -28.3322  -32.2831   25.6893 C   0  0  0  0  0  0  0  0  0  0  0  0
  -25.8386  -32.3493   25.6807 C   0  0  0  0  0  0  0  0  0  0  0  0
  -27.4960  -27.8620   30.5785 C   0  0  0  0  0  0  0  0  0  0  0  0
  -30.8214  -23.2521   20.9710 C   0  0  0  0  0  0  0  0  0  0  0  0
  -31.4718  -22.4966   22.1360 C   0  0  0  0  0  0  0  0  0  0  0  0
  -31.1719  -24.3333   23.8867 C   0  0  0  0  0  0  0  0  0  1  0  0
  -30.2076  -22.3082   19.9135 C   0  0  1  0  0  0  0  0  0  0  0  0
  -27.0189  -30.1719   26.1886 C   0  0  1  0  0  0  0  0  0  0  0  0
  -27.7183  -30.2592   29.9133 C   0  0  2  0  0  0  0  0  0  0  0  0
  -32.1489  -23.4166   23.1566 C   0  0  1  0  0  0  0  0  0  0  0  0
  -27.0646  -31.4742   25.3405 C   0  0  0  0  0  0  0  0  0  0  0  0
  -26.4010  -12.2535   21.0141 N   0  0  0  0  0  0  0  0  0  0  0  0
  -29.2370  -20.1229   20.4190 N   0  0  0  0  0  0  0  0  0  0  0  0
  -26.2405  -13.4809   20.4909 N   0  0  0  0  0  0  0  0  0  0  0  0
  -26.0666  -28.0296   25.3967 N   0  0  0  0  0  0  0  0  0  0  0  0
  -29.2565  -15.8235   20.4927 N   0  0  0  0  0  0  0  0  0  0  0  0
  -24.6103  -15.1300   20.0080 N   0  0  0  0  0  0  0  0  0  0  0  0
  -22.1997  -11.7957   21.8701 N   0  0  0  0  0  0  0  0  0  0  0  0
  -28.3490  -17.9647   20.8850 N   0  0  0  0  0  0  0  0  0  0  0  0
  -23.8647  -26.7886   22.7684 N   0  0  0  0  0  0  0  0  0  0  0  0
  -26.9954  -30.3979   27.6297 N   0  0  0  0  0  0  0  0  0  0  0  0
  -28.1686  -29.1646   30.8188 N   0  3  0  0  0  0  0  0  0  0  0  0
  -22.0750  -13.8869   20.9374 O   0  0  0  0  0  0  0  0  0  0  0  0
  -25.7756  -28.1164   22.8583 O   0  0  0  0  0  0  0  0  0  0  0  0
  -24.6823  -29.7871   26.0534 O   0  0  0  0  0  0  0  0  0  0  0  0
  -28.9191  -29.1944   28.1073 O   0  0  0  0  0  0  0  0  0  0  0  0
  -30.4501  -17.7222   19.9321 O   0  0  0  0  0  0  0  0  0  0  0  0
  -32.7867  -22.5762   24.1230 O   0  0  0  0  0  0  0  0  0  0  0  0
  -24.1892   -6.9372   23.7333 O   0  0  0  0  0  0  0  0  0  0  0  0
  -30.2010  -23.5294   24.5555 O   0  0  0  0  0  0  0  0  0  1  0  0
  -19.8909   -4.0131   21.8955 F   0  0  0  0  0  0  0  0  0  0  0  0
  -24.5470   -4.4220   22.6431 F   0  0  0  0  0  0  0  0  0  0  0  0
  -25.7999  -21.8448   21.9409 F   0  0  0  0  0  0  0  0  0  0  0  0
  1  2  1  0  0  0  0
  1  5  2  0  0  0  0
  2  6  2  0  0  0  0
  3  8  2  0  0  0  0
  3 17  1  0  0  0  0
  4  9  1  0  0  0  0
  4 17  2  0  0  0  0
  5 19  1  0  0  0  0
  6 21  1  0  0  0  0
  7 10  2  0  0  0  0
  7 20  1  0  0  0  0
  8 23  1  0  0  0  0
  9 23  2  0  0  0  0
 10 24  1  0  0  0  0
 11 12  2  0  0  0  0
 11 25  1  0  0  0  0
 12 26  1  0  0  0  0
 13 22  1  0  0  0  0
 13 24  2  0  0  0  0
 14 26  2  0  0  0  0
 14 27  1  0  0  0  0
 15 28  2  0  0  0  0
 15 30  1  0  0  0  0
 16 28  1  0  0  0  0
 16 31  2  0  0  0  0
 17 29  1  0  0  0  0
 18 29  1  0  0  0  0
 18 32  2  0  0  0  0
 18 33  1  0  0  0  0
 19 21  2  0  0  0  0
 19 38  1  0  0  0  0
 20 22  2  0  0  0  0
 20 39  1  0  0  0  0
 21 47  1  0  0  0  0
 22 40  1  0  0  0  0
 23 81  1  0  0  0  0
 24 82  1  0  0  0  0
 25 27  2  0  0  0  0
 25 81  1  0  0  0  0
 26 83  1  0  0  0  0
 27 84  1  0  0  0  0
 28 85  1  0  0  0  0
 29 64  2  0  0  0  0
 30 59  1  0  0  0  0
 30 65  2  0  0  0  0
 31 65  1  0  0  0  0
 31 71  1  0  0  0  0
 32 66  1  0  0  0  0
 32 69  1  0  0  0  0
 33 70  1  0  0  0  0
 33 75  2  0  0  0  0
 34 48  1  0  0  0  0
 34 72  1  0  0  0  0
 34 76  2  0  0  0  0
 35 60  1  0  0  0  0
 35 67  1  0  0  0  0
 35 77  2  0  0  0  0
 36 61  1  0  0  0  0
 36 73  1  0  0  0  0
 36 78  2  0  0  0  0
 37 68  1  0  0  0  0
 37 71  1  0  0  0  0
 37 79  2  0  0  0  0
 38 41  1  0  0  0  0
 39 48  1  0  0  0  0
 40 67  1  0  0  0  0
 41 43  1  0  0  0  0
 42 44  1  0  0  0  0
 42 45  1  0  0  0  0
 43 47  1  0  0  0  0
 44 49  1  0  0  0  0
 45 68  1  0  0  0  0
 46 49  1  0  0  0  0
 46 68  1  0  0  0  0
 47 72  1  0  0  0  0
 48 67  1  0  0  0  0
 49 66  1  0  0  0  0
 50 59  1  0  0  0  0
 51 61  1  0  0  0  0
 52 63  1  0  0  0  0
 53 63  1  0  0  0  0
 54 63  1  0  0  0  0
 55 74  1  0  0  0  0
 56 57  1  0  0  0  0
 56 59  1  0  0  0  0
 57 62  1  0  0  0  0
 58 62  1  0  0  0  0
 58 82  1  0  0  0  0
 60 63  1  0  0  0  0
 60 73  1  0  0  0  0
 61 74  1  0  0  0  0
 62 80  1  0  0  0  0
 64 66  1  0  0  0  0
M  CHG  1  74   1
M  ISO  4  37 100  58 101  71 100  82 101
M  END
> <Batch ID>
0194

> <Smiles>
CNC(C)C(=O)NC(C(=O)N1Cc2cc([101O:1][101CH2:1]C(O)CCC(C)c3cc(F)cc([100NH:0][100C:0](=O)N4CCCC(n5nc(-c6ccc(Oc7ccc(F)cc7F)cc6)c(C(N)=O)c5N)C4)n3)ccc2CC1C(=O)NC1CCCc2ccccc21)C(C)(C)C

> <Shape>
0.233

> <Color>
0.114

> <Negative vol penalty>
0.000

$$$$

  -OEChem-04052305333D

 82 90  0     1  0  0  0  0  0999 V2000
  -19.9821  -28.9307   26.6755 C   0  0  0  0  0  0  0  0  0  0  0  0
  -21.3227  -28.8255   26.3192 C   0  0  0  0  0  0  0  0  0  0  0  0
  -25.5208  -14.4623   21.7513 C   0  0  0  0  0  0  0  0  0  0  0  0
  -27.2569  -14.2646   20.0828 C   0  0  0  0  0  0  0  0  0  0  0  0
  -18.9888  -28.6656   25.7338 C   0  0  0  0  0  0  0  0  0  0  0  0
  -21.6708  -28.4539   25.0210 C   0  0  0  0  0  0  0  0  0  0  0  0
  -25.3824  -31.3200   23.1092 C   0  0  0  0  0  0  0  0  0  0  0  0
  -25.3008  -13.0866   21.6855 C   0  0  0  0  0  0  0  0  0  0  0  0
  -27.0370  -12.8887   20.0170 C   0  0  0  0  0  0  0  0  0  0  0  0
  -26.6823  -31.0420   23.5296 C   0  0  0  0  0  0  0  0  0  0  0  0
  -24.0366   -9.6770   21.6938 C   0  0  0  0  0  0  0  0  0  0  0  0
  -22.7159   -9.2318   21.6370 C   0  0  0  0  0  0  0  0  0  0  0  0
  -27.0755  -29.8210   21.4866 C   0  0  0  0  0  0  0  0  0  0  0  0
  -22.3880  -10.4661   19.5861 C   0  0  0  0  0  0  0  0  0  0  0  0
  -28.1465  -25.9492   19.1619 C   0  0  0  0  0  0  0  0  0  0  0  0
  -26.4989  -15.0514   20.9499 C   0  0  0  0  0  0  0  0  0  0  0  0
  -27.6203  -17.1513   21.8667 C   0  0  0  0  0  0  0  0  0  0  0  0
  -19.3249  -28.2999   24.4208 C   0  0  0  0  0  0  0  0  0  0  0  0
  -24.9149  -30.8405   21.8771 C   0  0  0  0  0  0  0  0  0  0  0  0
  -20.6811  -28.1823   24.0612 C   0  0  0  0  0  0  0  0  0  0  0  0
  -25.7701  -30.0964   21.0517 C   0  0  0  0  0  0  0  0  0  0  0  0
  -26.0589  -12.2997   20.8184 C   0  0  0  0  0  0  0  0  0  0  0  0
  -27.5281  -30.2900   22.7196 C   0  0  0  0  0  0  0  0  0  0  0  0
  -24.5330  -10.5167   20.6967 C   0  0  0  0  0  0  0  0  0  0  0  0
  -21.8916   -9.6264   20.5832 C   0  0  0  0  0  0  0  0  0  0  0  0
  -23.7087  -10.9112   19.6429 C   0  0  0  0  0  0  0  0  0  0  0  0
  -26.7262  -16.4726   21.0171 C   0  0  0  0  0  0  0  0  0  0  0  0
  -28.8449  -24.7600   19.1507 C   0  0  0  0  0  0  0  0  0  0  0  0
  -27.4618  -18.4768   21.5435 C   0  0  0  0  0  0  0  0  0  0  0  0
  -28.8501  -25.9605   21.2391 C   0  0  0  0  0  0  0  0  0  0  0  0
  -28.5141  -16.6302   22.8592 C   0  0  0  0  0  0  0  0  0  0  0  0
  -22.5881  -28.8728   20.9726 C   0  0  0  0  0  0  0  0  0  0  0  0
  -23.4850  -29.8066   17.9984 C   0  0  0  0  0  0  0  0  0  0  0  0
  -25.9239  -31.0626   15.9684 C   0  0  0  0  0  0  0  0  0  0  0  0
  -26.9253  -22.5293   17.7441 C   0  0  0  0  0  0  0  0  0  0  0  0
  -18.2161  -27.9772   23.4507 C   0  0  0  0  0  0  0  0  0  0  0  0
  -23.5187  -31.1716   21.4261 C   0  0  0  0  0  0  0  0  0  0  0  0
  -25.3232  -29.5756   19.7110 C   0  0  0  0  0  0  0  0  0  0  0  0
  -18.6696  -27.9536   21.9933 C   0  0  0  0  0  0  0  0  0  0  0  0
  -23.9746  -20.7758   18.6904 C   0  0  0  0  0  0  0  0  0  0  0  0
  -19.9649  -27.1608   21.8500 C   0  0  0  0  0  0  0  0  0  0  0  0
  -24.5014  -19.5535   19.4443 C   0  0  0  0  0  0  0  0  0  0  0  0
  -24.8801  -21.1498   17.5190 C   0  0  0  0  0  0  0  0  0  0  0  0
  -26.8266  -20.1183   18.6238 C   0  0  0  0  0  0  0  0  0  0  0  0
  -21.0986  -27.8060   22.6561 C   0  0  1  0  0  0  0  0  0  0  0  0
  -22.9812  -30.1975   20.3823 C   0  0  1  0  0  0  0  0  0  0  0  0
  -25.9768  -19.7365   19.8479 C   0  0  2  0  0  0  0  0  0  0  0  0
  -26.3729  -31.6789   13.5776 C   0  0  0  0  0  0  0  0  0  0  0  0
  -28.4529  -27.4512   24.6193 C   0  0  0  0  0  0  0  0  0  0  0  0
  -30.8188  -28.7174   23.1629 C   0  0  0  0  0  0  0  0  0  0  0  0
  -23.7720  -26.8519   17.2932 C   0  0  0  0  0  0  0  0  0  0  0  0
  -25.0988  -27.5325   15.2821 C   0  0  0  0  0  0  0  0  0  0  0  0
  -22.7214  -28.2532   15.5080 C   0  0  0  0  0  0  0  0  0  0  0  0
  -26.4229  -33.8940   16.6706 C   0  0  0  0  0  0  0  0  0  0  0  0
  -29.0403  -23.7895   18.0564 C   0  0  0  0  0  0  0  0  0  0  0  0
  -24.4832  -29.3139   16.9787 C   0  0  1  0  0  0  0  0  0  0  0  0
  -25.9008  -32.1749   14.9355 C   0  0  2  0  0  0  0  0  0  0  0  0
  -28.5231  -27.5899   23.1002 C   0  0  1  0  0  0  0  0  0  0  0  0
  -29.3772  -28.7951   22.6721 C   0  0  1  0  0  0  0  0  0  1  0  0
  -24.0269  -27.9959   16.2916 C   0  0  0  0  0  0  0  0  0  0  0  0
  -28.1480  -26.6388   20.3587 N   0  0  0  0  0  0  0  0  0  0  0  0
  -26.0498  -17.2988   20.2146 N   0  0  0  0  0  0  0  0  0  0  0  0
  -26.5190  -18.5102   20.5586 N   0  0  0  0  0  0  0  0  0  0  0  0
  -23.9472  -29.9205   19.3172 N   0  0  0  0  0  0  0  0  0  0  0  0
  -26.2647  -21.3103   17.9694 N   0  0  0  0  0  0  0  0  0  0  0  0
  -28.0384  -19.6054   22.0086 N   0  0  0  0  0  0  0  0  0  0  0  0
  -28.5512  -15.2441   23.0632 N   0  0  0  0  0  0  0  0  0  0  0  0
  -29.0582  -26.3623   22.5455 N   0  0  0  0  0  0  0  0  0  0  0  0
  -21.6225  -28.9600   21.9572 N   0  0  0  0  0  0  0  0  0  0  0  0
  -24.7059  -30.4224   16.0567 N   0  0  0  0  0  0  0  0  0  0  0  0
  -28.2331  -22.5995   18.2082 N   0  0  0  0  0  0  0  0  0  0  0  0
  -26.7869  -33.2951   15.3607 N   0  3  0  0  0  0  0  0  0  0  0  0
  -29.2460  -17.3731   23.5563 O   0  0  0  0  0  0  0  0  0  0  0  0
  -23.1204  -27.8474   20.5640 O   0  0  0  0  0  0  0  0  0  0  0  0
  -22.3395  -30.0872   17.6368 O   0  0  0  0  0  0  0  0  0  0  0  0
  -26.9235  -30.7867   16.6280 O   0  0  0  0  0  0  0  0  0  0  0  0
  -26.3875  -23.4861   17.1765 O   0  0  0  0  0  0  0  0  0  0  0  0
  -25.8446  -10.9572   20.7540 O   0  0  0  0  0  0  0  0  0  0  0  0
  -28.7972  -30.0167   23.1278 O   0  0  0  0  0  0  0  0  0  1  0  0
  -20.6238   -9.1976   20.5280 F   0  0  0  0  0  0  0  0  0  0  0  0
  -24.1803  -11.7169   18.6815 F   0  0  0  0  0  0  0  0  0  0  0  0
  -29.5373  -24.4850   20.6955 S   0  0  0  0  0  0  0  0  0  0  0  0
  1  2  1  0  0  0  0
  1  5  2  0  0  0  0
  2  6  2  0  0  0  0
  3  8  2  0  0  0  0
  3 16  1  0  0  0  0
  4  9  1  0  0  0  0
  4 16  2  0  0  0  0
  5 18  1  0  0  0  0
  6 20  1  0  0  0  0
  7 10  2  0  0  0  0
  7 19  1  0  0  0  0
  8 22  1  0  0  0  0
  9 22  2  0  0  0  0
 10 23  1  0  0  0  0
 11 12  2  0  0  0  0
 11 24  1  0  0  0  0
 12 25  1  0  0  0  0
 13 21  1  0  0  0  0
 13 23  2  0  0  0  0
 14 25  2  0  0  0  0
 14 26  1  0  0  0  0
 15 28  2  0  0  0  0
 15 61  1  0  0  0  0
 16 27  1  0  0  0  0
 17 27  1  0  0  0  0
 17 29  2  0  0  0  0
 17 31  1  0  0  0  0
 18 20  2  0  0  0  0
 18 36  1  0  0  0  0
 19 21  2  0  0  0  0
 19 37  1  0  0  0  0
 20 45  1  0  0  0  0
 21 38  1  0  0  0  0
 22 78  1  0  0  0  0
 23 79  1  0  0  0  0
 24 26  2  0  0  0  0
 24 78  1  0  0  0  0
 25 80  1  0  0  0  0
 26 81  1  0  0  0  0
 27 62  2  0  0  0  0
 28 55  1  0  0  0  0
 28 82  1  0  0  0  0
 29 63  1  0  0  0  0
 29 66  1  0  0  0  0
 30 61  2  0  0  0  0
 30 68  1  0  0  0  0
 30 82  1  0  0  0  0
 31 67  1  0  0  0  0
 31 73  2  0  0  0  0
 32 46  1  0  0  0  0
 32 69  1  0  0  0  0
 32 74  2  0  0  0  0
 33 56  1  0  0  0  0
 33 64  1  0  0  0  0
 33 75  2  0  0  0  0
 34 57  1  0  0  0  0
 34 70  1  0  0  0  0
 34 76  2  0  0  0  0
 35 65  1  0  0  0  0
 35 71  1  0  0  0  0
 35 77  2  0  0  0  0
 36 39  1  0  0  0  0
 37 46  1  0  0  0  0
 38 64  1  0  0  0  0
 39 41  1  0  0  0  0
 40 42  1  0  0  0  0
 40 43  1  0  0  0  0
 41 45  1  0  0  0  0
 42 47  1  0  0  0  0
 43 65  1  0  0  0  0
 44 47  1  0  0  0  0
 44 65  1  0  0  0  0
 45 69  1  0  0  0  0
 46 64  1  0  0  0  0
 47 63  1  0  0  0  0
 48 57  1  0  0  0  0
 49 58  1  0  0  0  0
 50 59  1  0  0  0  0
 51 60  1  0  0  0  0
 52 60  1  0  0  0  0
 53 60  1  0  0  0  0
 54 72  1  0  0  0  0
 55 71  1  0  0  0  0
 56 60  1  0  0  0  0
 56 70  1  0  0  0  0
 57 72  1  0  0  0  0
 58 59  1  0  0  0  0
 58 68  1  0  0  0  0
 59 79  1  0  0  0  0
 62 63  1  0  0  0  0
M  CHG  1  72   1
M  ISO  4  35 100  59 101  71 100  79 101
M  END
> <Batch ID>
0194

> <Smiles>
CNC(C)C(=O)NC(C(=O)N1Cc2cc([101O:1][101CH:1](C)C(C)Nc3ncc(C[100NH:0][100C:0](=O)N4CCCC(n5nc(-c6ccc(Oc7ccc(F)cc7F)cc6)c(C(N)=O)c5N)C4)s3)ccc2CC1C(=O)NC1CCCc2ccccc21)C(C)(C)C

> <Shape>
0.229

> <Color>
0.077

> <Negative vol penalty>
0.000

$$$$

  -OEChem-04052305333D

 87 95  0     1  0  0  0  0  0999 V2000
  -28.5179  -11.3636   18.9790 C   0  0  0  0  0  0  0  0  0  0  0  0
  -28.6193  -12.7414   18.8150 C   0  0  0  0  0  0  0  0  0  0  0  0
  -19.8184  -27.7266   23.8479 C   0  0  0  0  0  0  0  0  0  0  0  0
  -19.3669  -27.3168   21.5101 C   0  0  0  0  0  0  0  0  0  0  0  0
  -27.3738  -10.8137   19.5556 C   0  0  0  0  0  0  0  0  0  0  0  0
  -27.5760  -13.5700   19.2264 C   0  0  0  0  0  0  0  0  0  0  0  0
  -29.2101  -17.6387   21.7602 C   0  0  0  0  0  0  0  0  0  0  0  0
  -18.4503  -27.8491   24.0907 C   0  0  0  0  0  0  0  0  0  0  0  0
  -17.9988  -27.4392   21.7528 C   0  0  0  0  0  0  0  0  0  0  0  0
  -29.7372  -18.6878   21.0083 C   0  0  0  0  0  0  0  0  0  0  0  0
  -14.4084  -28.0003   21.6888 C   0  0  0  0  0  0  0  0  0  0  0  0
  -13.6574  -28.7647   20.7959 C   0  0  0  0  0  0  0  0  0  0  0  0
  -27.6424  -19.8689   21.1991 C   0  0  0  0  0  0  0  0  0  0  0  0
  -15.0102  -30.6984   21.3136 C   0  0  0  0  0  0  0  0  0  0  0  0
  -20.2767  -27.4605   22.5576 C   0  0  0  0  0  0  0  0  0  0  0  0
  -22.4619  -26.1586   22.3630 C   0  0  0  0  0  0  0  0  0  0  0  0
  -26.3200  -11.6368   19.9832 C   0  0  0  0  0  0  0  0  0  0  0  0
  -27.8895  -17.6921   22.2288 C   0  0  0  0  0  0  0  0  0  0  0  0
  -26.4161  -13.0305   19.8081 C   0  0  0  0  0  0  0  0  0  0  0  0
  -27.1019  -18.8203   21.9590 C   0  0  0  0  0  0  0  0  0  0  0  0
  -17.5405  -27.7054   23.0431 C   0  0  0  0  0  0  0  0  0  0  0  0
  -28.9524  -19.8018   20.7252 C   0  0  0  0  0  0  0  0  0  0  0  0
  -15.4603  -28.5850   22.3942 C   0  0  0  0  0  0  0  0  0  0  0  0
  -13.9583  -30.1137   20.6083 C   0  0  0  0  0  0  0  0  0  0  0  0
  -15.7611  -29.9340   22.2065 C   0  0  0  0  0  0  0  0  0  0  0  0
  -21.6899  -27.3345   22.3062 C   0  0  0  0  0  0  0  0  0  0  0  0
  -29.7638  -25.8595   16.7541 C   0  0  0  0  0  0  0  0  0  0  0  0
  -30.3092  -27.1255   16.7985 C   0  0  0  0  0  0  0  0  0  0  0  0
  -23.7339  -26.5674   22.0448 C   0  0  0  0  0  0  0  0  0  0  0  0
  -28.4213  -27.5432   17.8336 C   0  0  0  0  0  0  0  0  0  0  0  0
  -22.0646  -24.8169   22.6753 C   0  0  0  0  0  0  0  0  0  0  0  0
  -25.2722  -15.9493   21.7638 C   0  0  0  0  0  0  0  0  0  0  0  0
  -24.0475  -17.8837   24.0617 C   0  0  0  0  0  0  0  0  0  0  0  0
  -24.1765  -20.8722   25.7047 C   0  0  0  0  0  0  0  0  0  0  0  0
  -27.2603  -29.5099   18.8968 C   0  0  0  0  0  0  0  0  0  0  0  0
  -25.0831  -10.9928   20.5577 C   0  0  0  0  0  0  0  0  0  0  0  0
  -27.3446  -16.5641   23.0613 C   0  0  0  0  0  0  0  0  0  0  0  0
  -25.6848  -18.9355   22.4560 C   0  0  0  0  0  0  0  0  0  0  0  0
  -24.1815  -11.9687   21.3094 C   0  0  0  0  0  0  0  0  0  0  0  0
  -25.6841  -31.2167   21.5949 C   0  0  0  0  0  0  0  0  0  0  0  0
  -23.9821  -13.2447   20.4978 C   0  0  0  0  0  0  0  0  0  0  0  0
  -24.5679  -30.2621   22.0251 C   0  0  0  0  0  0  0  0  0  0  0  0
  -25.8854  -31.2080   20.0806 C   0  0  0  0  0  0  0  0  0  0  0  0
  -24.9738  -28.9250   19.9194 C   0  0  0  0  0  0  0  0  0  0  0  0
  -25.3160  -13.9642   20.2644 C   0  0  1  0  0  0  0  0  0  0  0  0
  -25.8205  -16.4963   23.0514 C   0  0  1  0  0  0  0  0  0  0  0  0
  -24.7777  -28.8508   21.4424 C   0  0  2  0  0  0  0  0  0  0  0  0
  -23.0215  -22.1801   27.5081 C   0  0  0  0  0  0  0  0  0  0  0  0
  -34.8321  -25.1113   17.2647 C   0  0  0  0  0  0  0  0  0  0  0  0
  -34.0518  -23.0086   16.1556 C   0  0  0  0  0  0  0  0  0  0  0  0
  -21.7618  -18.5103   22.1400 C   0  0  0  0  0  0  0  0  0  0  0  0
  -21.1903  -20.4822   23.5729 C   0  0  0  0  0  0  0  0  0  0  0  0
  -21.0636  -18.1773   24.5183 C   0  0  0  0  0  0  0  0  0  0  0  0
  -26.6279  -20.9766   27.3597 C   0  0  0  0  0  0  0  0  0  0  0  0
  -30.3114  -24.5779   16.1681 C   0  0  0  0  0  0  0  0  0  0  0  0
  -32.4572  -24.3703   17.6135 C   0  0  0  0  0  0  0  0  0  0  0  0
  -30.3728  -23.1370   18.3282 C   0  0  0  0  0  0  0  0  0  0  0  0
  -28.5491  -21.5751   19.1926 C   0  0  0  0  0  0  0  0  0  1  0  0
  -23.3272  -19.2104   24.0702 C   0  0  1  0  0  0  0  0  0  0  0  0
  -24.1473  -21.2103   27.1843 C   0  0  2  0  0  0  0  0  0  0  0  0
  -33.6359  -24.4061   16.6179 C   0  0  0  0  0  0  0  0  0  0  0  0
  -31.1613  -23.6857   17.1095 C   0  0  1  0  0  0  0  0  0  0  0  0
  -29.2280  -22.1786   17.9624 C   0  0  2  0  0  0  0  0  0  0  0  0
  -21.8617  -19.0923   23.5642 C   0  0  0  0  0  0  0  0  0  0  0  0
  -22.4113  -28.4096   21.9779 N   0  0  0  0  0  0  0  0  0  0  0  0
  -29.5406  -28.0924   17.4167 N   0  0  0  0  0  0  0  0  0  0  0  0
  -23.6499  -27.9109   21.8257 N   0  0  0  0  0  0  0  0  0  0  0  0
  -25.1953  -17.8038   23.2605 N   0  0  0  0  0  0  0  0  0  0  0  0
  -26.0822  -29.8385   19.6004 N   0  0  0  0  0  0  0  0  0  0  0  0
  -31.5188  -27.4416   16.2778 N   0  0  0  0  0  0  0  0  0  0  0  0
  -24.9050  -25.9050   21.9341 N   0  0  0  0  0  0  0  0  0  0  0  0
  -20.7184  -24.5722   22.9789 N   0  0  0  0  0  0  0  0  0  0  0  0
  -27.3515  -28.1708   18.5187 N   0  0  0  0  0  0  0  0  0  0  0  0
  -25.7201  -14.6788   21.4563 N   0  0  0  0  0  0  0  0  0  0  0  0
  -23.4507  -19.7333   25.4266 N   0  0  0  0  0  0  0  0  0  0  0  0
  -25.4368  -21.8315   27.5993 N   0  3  0  0  0  0  0  0  0  0  0  0
  -22.8824  -23.8660   22.7009 O   0  0  0  0  0  0  0  0  0  0  0  0
  -24.4988  -16.6290   21.0993 O   0  0  0  0  0  0  0  0  0  0  0  0
  -23.6119  -16.9547   24.7466 O   0  0  0  0  0  0  0  0  0  0  0  0
  -24.7797  -21.5525   24.8777 O   0  0  0  0  0  0  0  0  0  0  0  0
  -28.1370  -30.3482   18.6718 O   0  0  0  0  0  0  0  0  0  0  0  0
  -29.7236  -21.1219   17.1418 O   0  0  0  0  0  0  0  0  0  0  0  0
  -16.2054  -27.8246   23.2797 O   0  0  0  0  0  0  0  0  0  0  0  0
  -29.4677  -20.8341   19.9857 O   0  0  0  0  0  0  0  0  0  1  0  0
  -13.2380  -30.8473   19.7496 F   0  0  0  0  0  0  0  0  0  0  0  0
  -16.7712  -30.5010   22.8804 F   0  0  0  0  0  0  0  0  0  0  0  0
  -28.2274  -25.8680   17.5161 S   0  0  0  0  0  0  0  0  0  0  0  0
  1  2  1  0  0  0  0
  1  5  2  0  0  0  0
  2  6  2  0  0  0  0
  3  8  2  0  0  0  0
  3 15  1  0  0  0  0
  4  9  1  0  0  0  0
  4 15  2  0  0  0  0
  5 17  1  0  0  0  0
  6 19  1  0  0  0  0
  7 10  2  0  0  0  0
  7 18  1  0  0  0  0
  8 21  1  0  0  0  0
  9 21  2  0  0  0  0
 10 22  1  0  0  0  0
 11 12  2  0  0  0  0
 11 23  1  0  0  0  0
 12 24  1  0  0  0  0
 13 20  1  0  0  0  0
 13 22  2  0  0  0  0
 14 24  2  0  0  0  0
 14 25  1  0  0  0  0
 15 26  1  0  0  0  0
 16 26  1  0  0  0  0
 16 29  2  0  0  0  0
 16 31  1  0  0  0  0
 17 19  2  0  0  0  0
 17 36  1  0  0  0  0
 18 20  2  0  0  0  0
 18 37  1  0  0  0  0
 19 45  1  0  0  0  0
 20 38  1  0  0  0  0
 21 83  1  0  0  0  0
 22 84  1  0  0  0  0
 23 25  2  0  0  0  0
 23 83  1  0  0  0  0
 24 85  1  0  0  0  0
 25 86  1  0  0  0  0
 26 65  2  0  0  0  0
 27 28  2  0  0  0  0
 27 55  1  0  0  0  0
 27 87  1  0  0  0  0
 28 66  1  0  0  0  0
 28 70  1  0  0  0  0
 29 67  1  0  0  0  0
 29 71  1  0  0  0  0
 30 66  2  0  0  0  0
 30 73  1  0  0  0  0
 30 87  1  0  0  0  0
 31 72  1  0  0  0  0
 31 77  2  0  0  0  0
 32 46  1  0  0  0  0
 32 74  1  0  0  0  0
 32 78  2  0  0  0  0
 33 59  1  0  0  0  0
 33 68  1  0  0  0  0
 33 79  2  0  0  0  0
 34 60  1  0  0  0  0
 34 75  1  0  0  0  0
 34 80  2  0  0  0  0
 35 69  1  0  0  0  0
 35 73  1  0  0  0  0
 35 81  2  0  0  0  0
 36 39  1  0  0  0  0
 37 46  1  0  0  0  0
 38 68  1  0  0  0  0
 39 41  1  0  0  0  0
 40 42  1  0  0  0  0
 40 43  1  0  0  0  0
 41 45  1  0  0  0  0
 42 47  1  0  0  0  0
 43 69  1  0  0  0  0
 44 47  1  0  0  0  0
 44 69  1  0  0  0  0
 45 74  1  0  0  0  0
 46 68  1  0  0  0  0
 47 67  1  0  0  0  0
 48 60  1  0  0  0  0
 49 61  1  0  0  0  0
 50 61  1  0  0  0  0
 51 64  1  0  0  0  0
 52 64  1  0  0  0  0
 53 64  1  0  0  0  0
 54 76  1  0  0  0  0
 55 62  1  0  0  0  0
 56 61  1  0  0  0  0
 56 62  1  0  0  0  0
 57 62  1  0  0  0  0
 57 63  1  0  0  0  0
 58 63  1  0  0  0  0
 58 84  1  0  0  0  0
 59 64  1  0  0  0  0
 59 75  1  0  0  0  0
 60 76  1  0  0  0  0
 63 82  1  0  0  0  0
 65 67  1  0  0  0  0
M  CHG  1  76   1
M  ISO  4  35 100  58 101  73 100  84 101
M  END
> <Batch ID>
0194

> <Smiles>
CNC(C)C(=O)NC(C(=O)N1Cc2cc([101O:1][101CH2:1]C(O)CC(Cc3sc([100NH:0][100C:0](=O)N4CCCC(n5nc(-c6ccc(Oc7ccc(F)cc7F)cc6)c(C(N)=O)c5N)C4)nc3N)CC(C)C)ccc2CC1C(=O)NC1CCCc2ccccc21)C(C)(C)C

> <Shape>
0.214

> <Color>
0.059

> <Negative vol penalty>
0.000

$$$$

  -OEChem-04052305333D

 84 92  0     1  0  0  0  0  0999 V2000
  -21.1652  -32.7774   21.6916 C   0  0  0  0  0  0  0  0  0  0  0  0
  -22.3490  -32.0478   21.6498 C   0  0  0  0  0  0  0  0  0  0  0  0
  -24.7468   -8.8726   20.8523 C   0  0  0  0  0  0  0  0  0  0  0  0
  -23.0181  -10.5063   20.4285 C   0  0  0  0  0  0  0  0  0  0  0  0
  -20.0598  -32.2716   22.3744 C   0  0  0  0  0  0  0  0  0  0  0  0
  -22.4284  -30.8125   22.2916 C   0  0  0  0  0  0  0  0  0  0  0  0
  -24.6761  -27.2825   19.4400 C   0  0  0  0  0  0  0  0  0  0  0  0
  -23.7735   -7.9240   21.1659 C   0  0  0  0  0  0  0  0  0  0  0  0
  -22.0448   -9.5576   20.7421 C   0  0  0  0  0  0  0  0  0  0  0  0
  -26.0674  -27.3212   19.3580 C   0  0  0  0  0  0  0  0  0  0  0  0
  -21.7896   -7.1672   23.7956 C   0  0  0  0  0  0  0  0  0  0  0  0
  -21.9911   -6.3844   24.9324 C   0  0  0  0  0  0  0  0  0  0  0  0
  -26.2071  -25.5571   20.9975 C   0  0  0  0  0  0  0  0  0  0  0  0
  -21.9572   -4.3919   23.5663 C   0  0  0  0  0  0  0  0  0  0  0  0
  -29.1443  -20.6124   17.7296 C   0  0  0  0  0  0  0  0  0  0  0  0
  -28.0190  -18.6377   17.9827 C   0  0  0  0  0  0  0  0  0  0  0  0
  -24.3692  -10.1638   20.4836 C   0  0  0  0  0  0  0  0  0  0  0  0
  -25.9308  -11.4051   18.8936 C   0  0  0  0  0  0  0  0  0  0  0  0
  -20.1226  -31.0250   23.0168 C   0  0  0  0  0  0  0  0  0  0  0  0
  -24.0391  -26.3868   20.3109 C   0  0  0  0  0  0  0  0  0  0  0  0
  -21.3232  -30.2901   22.9847 C   0  0  0  0  0  0  0  0  0  0  0  0
  -24.8075  -25.5073   21.0868 C   0  0  0  0  0  0  0  0  0  0  0  0
  -22.4225   -8.2665   21.1108 C   0  0  0  0  0  0  0  0  0  0  0  0
  -26.8331  -26.4604   20.1389 C   0  0  0  0  0  0  0  0  0  0  0  0
  -21.6717   -6.5624   22.5442 C   0  0  0  0  0  0  0  0  0  0  0  0
  -22.0749   -4.9968   24.8177 C   0  0  0  0  0  0  0  0  0  0  0  0
  -21.7556   -5.1748   22.4295 C   0  0  0  0  0  0  0  0  0  0  0  0
  -25.3741  -11.1443   20.1601 C   0  0  0  0  0  0  0  0  0  0  0  0
  -29.5108  -20.5737   19.0569 C   0  0  0  0  0  0  0  0  0  0  0  0
  -28.3862  -18.5985   19.3098 C   0  0  0  0  0  0  0  0  0  0  0  0
  -26.8318  -12.4175   19.1164 C   0  0  0  0  0  0  0  0  0  0  0  0
  -25.6578  -10.7874   17.6288 C   0  0  0  0  0  0  0  0  0  0  0  0
  -30.3353  -21.6325   19.6731 C   0  0  0  0  0  0  0  0  0  0  0  0
  -22.1250  -26.6865   22.8308 C   0  0  0  0  0  0  0  0  0  0  0  0
  -21.9536  -23.4558   22.5951 C   0  0  0  0  0  0  0  0  0  0  0  0
  -23.3858  -20.5490   21.5246 C   0  0  0  0  0  0  0  0  0  0  0  0
  -28.2161  -17.2799   21.4496 C   0  0  0  0  0  0  0  0  0  0  0  0
  -18.9165  -30.5411   23.7822 C   0  0  0  0  0  0  0  0  0  0  0  0
  -22.5368  -26.3390   20.3679 C   0  0  0  0  0  0  0  0  0  0  0  0
  -24.1717  -24.5130   22.0225 C   0  0  0  0  0  0  0  0  0  0  0  0
  -18.9658  -29.0531   24.1194 C   0  0  0  0  0  0  0  0  0  0  0  0
  -28.6053  -14.3556   23.4431 C   0  0  0  0  0  0  0  0  0  0  0  0
  -20.3346  -28.6774   24.6781 C   0  0  0  0  0  0  0  0  0  0  0  0
  -27.8451  -13.2809   22.6625 C   0  0  0  0  0  0  0  0  0  0  0  0
  -27.9141  -15.7152   23.3563 C   0  0  0  0  0  0  0  0  0  0  0  0
  -26.8651  -15.1042   21.2126 C   0  0  0  0  0  0  0  0  0  0  0  0
  -21.4407  -28.9349   23.6477 C   0  0  1  0  0  0  0  0  0  0  0  0
  -22.0070  -25.7421   21.6681 C   0  0  1  0  0  0  0  0  0  0  0  0
  -27.5578  -13.7317   21.2169 C   0  0  2  0  0  0  0  0  0  0  0  0
  -23.0281  -18.0652   21.5105 C   0  0  0  0  0  0  0  0  0  0  0  0
  -32.3265  -24.0609   18.9641 C   0  0  0  0  0  0  0  0  0  0  0  0
  -22.7757  -23.3232   25.5305 C   0  0  0  0  0  0  0  0  0  0  0  0
  -23.3194  -20.9022   25.1967 C   0  0  0  0  0  0  0  0  0  0  0  0
  -20.9809  -21.7093   24.8758 C   0  0  0  0  0  0  0  0  0  0  0  0
  -23.3269  -20.4575   18.5670 C   0  0  0  0  0  0  0  0  0  0  0  0
  -30.1944  -25.2890   19.5233 C   0  0  0  0  0  0  0  0  0  0  0  0
  -28.8887  -25.2767   20.3101 C   0  0  0  0  0  0  0  0  0  1  0  0
  -22.7421  -22.2993   23.1605 C   0  0  1  0  0  0  0  0  0  0  0  0
  -22.8176  -19.3691   20.7567 C   0  0  2  0  0  0  0  0  0  0  0  0
  -31.0047  -24.0088   19.7149 C   0  0  1  0  0  0  0  0  0  0  0  0
  -22.4668  -22.0784   24.6748 C   0  0  0  0  0  0  0  0  0  0  0  0
  -28.3917  -19.6451   17.1687 N   0  0  0  0  0  0  0  0  0  0  0  0
  -25.8793  -11.9278   21.1166 N   0  0  0  0  0  0  0  0  0  0  0  0
  -29.1384  -19.5660   19.8708 N   0  0  0  0  0  0  0  0  0  0  0  0
  -26.7630  -12.6908   20.4509 N   0  0  0  0  0  0  0  0  0  0  0  0
  -22.6997  -24.5091   22.0475 N   0  0  0  0  0  0  0  0  0  0  0  0
  -27.6780  -16.0785   21.9573 N   0  0  0  0  0  0  0  0  0  0  0  0
  -27.6683  -13.0918   18.2991 N   0  0  0  0  0  0  0  0  0  0  0  0
  -24.7029   -9.7627   17.5779 N   0  0  0  0  0  0  0  0  0  0  0  0
  -31.1371  -21.2961   20.6834 N   0  0  0  0  0  0  0  0  0  0  0  0
  -27.9538  -17.5036   20.0984 N   0  0  0  0  0  0  0  0  0  0  0  0
  -21.4590  -27.8841   22.6527 N   0  0  0  0  0  0  0  0  0  0  0  0
  -22.4328  -21.1458   22.3225 N   0  0  0  0  0  0  0  0  0  0  0  0
  -30.2353  -22.8749   19.1895 N   0  3  0  0  0  0  0  0  0  0  0  0
  -23.4749  -19.2532   19.4243 N   0  3  0  0  0  0  0  0  0  0  0  0
  -26.2551  -11.1227   16.5780 O   0  0  0  0  0  0  0  0  0  0  0  0
  -22.7711  -26.3527   23.8171 O   0  0  0  0  0  0  0  0  0  0  0  0
  -20.7211  -23.4225   22.6312 O   0  0  0  0  0  0  0  0  0  0  0  0
  -24.5588  -20.9032   21.4291 O   0  0  0  0  0  0  0  0  0  0  0  0
  -28.8852  -18.0401   22.1542 O   0  0  0  0  0  0  0  0  0  0  0  0
  -21.4725   -7.3410   21.4165 O   0  0  0  0  0  0  0  0  0  0  0  0
  -28.1913  -26.4966   20.0613 O   0  0  0  0  0  0  0  0  0  1  0  0
  -22.2700   -4.2453   25.9092 F   0  0  0  0  0  0  0  0  0  0  0  0
  -21.6443   -4.5881   21.2298 F   0  0  0  0  0  0  0  0  0  0  0  0
  1  2  1  0  0  0  0
  1  5  2  0  0  0  0
  2  6  2  0  0  0  0
  3  8  2  0  0  0  0
  3 17  1  0  0  0  0
  4  9  1  0  0  0  0
  4 17  2  0  0  0  0
  5 19  1  0  0  0  0
  6 21  1  0  0  0  0
  7 10  2  0  0  0  0
  7 20  1  0  0  0  0
  8 23  1  0  0  0  0
  9 23  2  0  0  0  0
 10 24  1  0  0  0  0
 11 12  2  0  0  0  0
 11 25  1  0  0  0  0
 12 26  1  0  0  0  0
 13 22  1  0  0  0  0
 13 24  2  0  0  0  0
 14 26  2  0  0  0  0
 14 27  1  0  0  0  0
 15 29  1  0  0  0  0
 15 62  2  0  0  0  0
 16 30  2  0  0  0  0
 16 62  1  0  0  0  0
 17 28  1  0  0  0  0
 18 28  1  0  0  0  0
 18 31  2  0  0  0  0
 18 32  1  0  0  0  0
 19 21  2  0  0  0  0
 19 38  1  0  0  0  0
 20 22  2  0  0  0  0
 20 39  1  0  0  0  0
 21 47  1  0  0  0  0
 22 40  1  0  0  0  0
 23 81  1  0  0  0  0
 24 82  1  0  0  0  0
 25 27  2  0  0  0  0
 25 81  1  0  0  0  0
 26 83  1  0  0  0  0
 27 84  1  0  0  0  0
 28 63  2  0  0  0  0
 29 33  1  0  0  0  0
 29 64  2  0  0  0  0
 30 64  1  0  0  0  0
 30 71  1  0  0  0  0
 31 65  1  0  0  0  0
 31 68  1  0  0  0  0
 32 69  1  0  0  0  0
 32 76  2  0  0  0  0
 33 70  1  0  0  0  0
 33 74  2  0  0  0  0
 34 48  1  0  0  0  0
 34 72  1  0  0  0  0
 34 77  2  0  0  0  0
 35 58  1  0  0  0  0
 35 66  1  0  0  0  0
 35 78  2  0  0  0  0
 36 59  1  0  0  0  0
 36 73  1  0  0  0  0
 36 79  2  0  0  0  0
 37 67  1  0  0  0  0
 37 71  1  0  0  0  0
 37 80  2  0  0  0  0
 38 41  1  0  0  0  0
 39 48  1  0  0  0  0
 40 66  1  0  0  0  0
 41 43  1  0  0  0  0
 42 44  1  0  0  0  0
 42 45  1  0  0  0  0
 43 47  1  0  0  0  0
 44 49  1  0  0  0  0
 45 67  1  0  0  0  0
 46 49  1  0  0  0  0
 46 67  1  0  0  0  0
 47 72  1  0  0  0  0
 48 66  1  0  0  0  0
 49 65  1  0  0  0  0
 50 59  1  0  0  0  0
 51 60  1  0  0  0  0
 52 61  1  0  0  0  0
 53 61  1  0  0  0  0
 54 61  1  0  0  0  0
 55 75  1  0  0  0  0
 56 57  1  0  0  0  0
 56 60  1  0  0  0  0
 57 82  1  0  0  0  0
 58 61  1  0  0  0  0
 58 73  1  0  0  0  0
 59 75  1  0  0  0  0
 60 74  1  0  0  0  0
 63 65  1  0  0  0  0
M  CHG  2  74   1  75   1
M  ISO  4  37 100  57 101  71 100  82 101
M  END
> <Batch ID>
0194

> <Smiles>
CNC(C)C(=O)NC(C(=O)N1Cc2cc([101O:1][101CH2:1]CC(C)NC(=N)c3cncc([100NH:0][100C:0](=O)N4CCCC(n5nc(-c6ccc(Oc7ccc(F)cc7F)cc6)c(C(N)=O)c5N)C4)n3)ccc2CC1C(=O)NC1CCCc2ccccc21)C(C)(C)C

> <Shape>
0.246

> <Color>
0.085

> <Negative vol penalty>
0.000

$$$$

  -OEChem-04052305333D

 83 91  0     1  0  0  0  0  0999 V2000
  -18.1860  -32.5370   21.8026 C   0  0  0  0  0  0  0  0  0  0  0  0
  -19.5128  -32.5348   21.3843 C   0  0  0  0  0  0  0  0  0  0  0  0
  -29.1889  -22.4332   16.6190 C   0  0  0  0  0  0  0  0  0  0  0  0
  -26.4299  -13.0356   21.6664 C   0  0  0  0  0  0  0  0  0  0  0  0
  -25.9693  -14.0664   19.5305 C   0  0  0  0  0  0  0  0  0  0  0  0
  -17.7618  -31.6336   22.7762 C   0  0  0  0  0  0  0  0  0  0  0  0
  -20.4164  -31.6299   21.9400 C   0  0  0  0  0  0  0  0  0  0  0  0
  -25.1092  -28.9016   19.1044 C   0  0  0  0  0  0  0  0  0  0  0  0
  -25.1606  -12.4572   21.6610 C   0  0  0  0  0  0  0  0  0  0  0  0
  -24.7000  -13.4880   19.5250 C   0  0  0  0  0  0  0  0  0  0  0  0
  -26.4741  -29.1830   19.0669 C   0  0  0  0  0  0  0  0  0  0  0  0
  -23.6342   -9.8134   20.2074 C   0  0  0  0  0  0  0  0  0  0  0  0
  -23.5326   -8.4694   20.5668 C   0  0  0  0  0  0  0  0  0  0  0  0
  -29.1320  -21.4373   17.5876 C   0  0  0  0  0  0  0  0  0  0  0  0
  -29.7605  -23.6628   16.9268 C   0  0  0  0  0  0  0  0  0  0  0  0
  -26.8466  -27.5820   20.8324 C   0  0  0  0  0  0  0  0  0  0  0  0
  -22.0746   -9.0692   22.3975 C   0  0  0  0  0  0  0  0  0  0  0  0
  -26.8342  -13.8402   20.6012 C   0  0  0  0  0  0  0  0  0  0  0  0
  -29.3320  -13.8896   20.0854 C   0  0  0  0  0  0  0  0  0  0  0  0
  -18.6584  -30.7106   23.3372 C   0  0  0  0  0  0  0  0  0  0  0  0
  -24.6004  -27.9647   20.0153 C   0  0  0  0  0  0  0  0  0  0  0  0
  -20.0041  -30.7141   22.9230 C   0  0  0  0  0  0  0  0  0  0  0  0
  -25.4751  -27.2886   20.8778 C   0  0  0  0  0  0  0  0  0  0  0  0
  -24.2957  -12.6834   20.5903 C   0  0  0  0  0  0  0  0  0  0  0  0
  -27.3427  -28.5253   19.9329 C   0  0  0  0  0  0  0  0  0  0  0  0
  -22.9560  -10.7852   20.9431 C   0  0  0  0  0  0  0  0  0  0  0  0
  -22.7529   -8.0973   21.6618 C   0  0  0  0  0  0  0  0  0  0  0  0
  -22.1762  -10.4131   22.0382 C   0  0  0  0  0  0  0  0  0  0  0  0
  -28.1450  -14.4384   20.6065 C   0  0  0  0  0  0  0  0  0  0  0  0
  -29.6564  -21.7189   18.8389 C   0  0  0  0  0  0  0  0  0  0  0  0
  -30.2566  -23.8448   18.2077 C   0  0  0  0  0  0  0  0  0  0  0  0
  -30.2898  -14.8412   20.3372 C   0  0  0  0  0  0  0  0  0  0  0  0
  -29.5494  -12.6320   19.4321 C   0  0  0  0  0  0  0  0  0  0  0  0
  -22.5496  -28.0795   22.4412 C   0  0  0  0  0  0  0  0  0  0  0  0
  -22.9606  -24.8619   22.4322 C   0  0  0  0  0  0  0  0  0  0  0  0
  -24.9297  -22.1949   21.6220 C   0  0  0  0  0  0  0  0  0  0  0  0
  -30.0547  -20.7587   21.1336 C   0  0  0  0  0  0  0  0  0  0  0  0
  -18.1644  -29.7851   24.4207 C   0  0  0  0  0  0  0  0  0  0  0  0
  -23.1289  -27.6529   20.0249 C   0  0  0  0  0  0  0  0  0  0  0  0
  -24.9819  -26.2593   21.8605 C   0  0  0  0  0  0  0  0  0  0  0  0
  -19.0986  -28.6080   24.6891 C   0  0  0  0  0  0  0  0  0  0  0  0
  -31.3616  -18.3538   23.4109 C   0  0  0  0  0  0  0  0  0  0  0  0
  -20.5431  -29.0865   24.7954 C   0  0  0  0  0  0  0  0  0  0  0  0
  -30.7980  -17.0262   22.8992 C   0  0  0  0  0  0  0  0  0  0  0  0
  -30.3584  -19.4949   23.2515 C   0  0  0  0  0  0  0  0  0  0  0  0
  -29.2487  -18.3293   21.3863 C   0  0  0  0  0  0  0  0  0  0  0  0
  -21.0086  -29.7312   23.4842 C   0  0  1  0  0  0  0  0  0  0  0  0
  -22.6532  -27.0562   21.3459 C   0  0  1  0  0  0  0  0  0  0  0  0
  -30.2470  -17.1628   21.4662 C   0  0  2  0  0  0  0  0  0  0  0  0
  -25.0157  -19.6915   21.7740 C   0  0  0  0  0  0  0  0  0  0  0  0
  -23.6573  -25.0682   25.3956 C   0  0  0  0  0  0  0  0  0  0  0  0
  -24.6334  -22.7670   25.2549 C   0  0  0  0  0  0  0  0  0  0  0  0
  -22.2067  -23.1206   24.7982 C   0  0  0  0  0  0  0  0  0  0  0  0
  -25.0238  -21.9034   18.6783 C   0  0  0  0  0  0  0  0  0  0  0  0
  -30.8793  -27.9371   19.5176 C   0  0  0  0  0  0  0  0  0  0  0  0
  -31.3816  -25.4140   19.7880 C   0  0  0  0  0  0  0  0  0  0  0  0
  -29.5645  -27.7416   20.2578 C   0  0  0  0  0  0  0  0  0  1  0  0
  -23.9135  -23.9039   23.1055 C   0  0  1  0  0  0  0  0  0  0  0  0
  -24.6138  -20.8854   20.9220 C   0  0  2  0  0  0  0  0  0  0  0  0
  -31.9175  -26.8465   19.8018 C   0  0  1  0  0  0  0  0  0  0  0  0
  -23.6121  -23.7357   24.6215 C   0  0  0  0  0  0  0  0  0  0  0  0
  -28.3294  -15.6452   21.1486 N   0  0  0  0  0  0  0  0  0  0  0  0
  -30.2192  -22.9011   19.1750 N   0  0  0  0  0  0  0  0  0  0  0  0
  -29.6435  -15.8624   20.9695 N   0  0  0  0  0  0  0  0  0  0  0  0
  -23.5340  -25.9939   21.8360 N   0  0  0  0  0  0  0  0  0  0  0  0
  -29.8832  -19.5662   21.8681 N   0  0  0  0  0  0  0  0  0  0  0  0
  -31.6134  -14.8958   20.0774 N   0  0  0  0  0  0  0  0  0  0  0  0
  -28.4559  -11.7735   19.2544 N   0  0  0  0  0  0  0  0  0  0  0  0
  -29.5933  -20.6976   19.8190 N   0  0  0  0  0  0  0  0  0  0  0  0
  -30.8229  -25.0746   18.4993 N   0  0  0  0  0  0  0  0  0  0  0  0
  -21.3235  -28.7137   22.5045 N   0  0  0  0  0  0  0  0  0  0  0  0
  -23.8508  -22.6620   22.3424 N   0  0  0  0  0  0  0  0  0  0  0  0
  -25.3418  -20.8030   19.6242 N   0  3  0  0  0  0  0  0  0  0  0  0
  -30.6831  -12.2728   19.0328 O   0  0  0  0  0  0  0  0  0  0  0  0
  -23.5104  -28.2780   23.1755 O   0  0  0  0  0  0  0  0  0  0  0  0
  -21.7528  -24.6112   22.4291 O   0  0  0  0  0  0  0  0  0  0  0  0
  -26.0252  -22.7461   21.5409 O   0  0  0  0  0  0  0  0  0  0  0  0
  -30.5975  -21.7514   21.6254 O   0  0  0  0  0  0  0  0  0  0  0  0
  -32.9668  -26.9407   18.8365 O   0  0  0  0  0  0  0  0  0  0  0  0
  -23.0571  -12.1190   20.5846 O   0  0  0  0  0  0  0  0  0  0  0  0
  -28.6754  -28.7985   19.8988 O   0  0  0  0  0  0  0  0  0  1  0  0
  -22.6542   -6.8066   22.0059 F   0  0  0  0  0  0  0  0  0  0  0  0
  -21.5214  -11.3422   22.7481 F   0  0  0  0  0  0  0  0  0  0  0  0
  1  2  1  0  0  0  0
  1  6  2  0  0  0  0
  2  7  2  0  0  0  0
  3 14  1  0  0  0  0
  3 15  2  0  0  0  0
  4  9  2  0  0  0  0
  4 18  1  0  0  0  0
  5 10  1  0  0  0  0
  5 18  2  0  0  0  0
  6 20  1  0  0  0  0
  7 22  1  0  0  0  0
  8 11  2  0  0  0  0
  8 21  1  0  0  0  0
  9 24  1  0  0  0  0
 10 24  2  0  0  0  0
 11 25  1  0  0  0  0
 12 13  2  0  0  0  0
 12 26  1  0  0  0  0
 13 27  1  0  0  0  0
 14 30  2  0  0  0  0
 15 31  1  0  0  0  0
 16 23  1  0  0  0  0
 16 25  2  0  0  0  0
 17 27  2  0  0  0  0
 17 28  1  0  0  0  0
 18 29  1  0  0  0  0
 19 29  1  0  0  0  0
 19 32  2  0  0  0  0
 19 33  1  0  0  0  0
 20 22  2  0  0  0  0
 20 38  1  0  0  0  0
 21 23  2  0  0  0  0
 21 39  1  0  0  0  0
 22 47  1  0  0  0  0
 23 40  1  0  0  0  0
 24 80  1  0  0  0  0
 25 81  1  0  0  0  0
 26 28  2  0  0  0  0
 26 80  1  0  0  0  0
 27 82  1  0  0  0  0
 28 83  1  0  0  0  0
 29 62  2  0  0  0  0
 30 63  1  0  0  0  0
 30 69  1  0  0  0  0
 31 63  2  0  0  0  0
 31 70  1  0  0  0  0
 32 64  1  0  0  0  0
 32 67  1  0  0  0  0
 33 68  1  0  0  0  0
 33 74  2  0  0  0  0
 34 48  1  0  0  0  0
 34 71  1  0  0  0  0
 34 75  2  0  0  0  0
 35 58  1  0  0  0  0
 35 65  1  0  0  0  0
 35 76  2  0  0  0  0
 36 59  1  0  0  0  0
 36 72  1  0  0  0  0
 36 77  2  0  0  0  0
 37 66  1  0  0  0  0
 37 69  1  0  0  0  0
 37 78  2  0  0  0  0
 38 41  1  0  0  0  0
 39 48  1  0  0  0  0
 40 65  1  0  0  0  0
 41 43  1  0  0  0  0
 42 44  1  0  0  0  0
 42 45  1  0  0  0  0
 43 47  1  0  0  0  0
 44 49  1  0  0  0  0
 45 66  1  0  0  0  0
 46 49  1  0  0  0  0
 46 66  1  0  0  0  0
 47 71  1  0  0  0  0
 48 65  1  0  0  0  0
 49 64  1  0  0  0  0
 50 59  1  0  0  0  0
 51 61  1  0  0  0  0
 52 61  1  0  0  0  0
 53 61  1  0  0  0  0
 54 73  1  0  0  0  0
 55 57  1  0  0  0  0
 55 60  1  0  0  0  0
 56 60  1  0  0  0  0
 56 70  1  0  0  0  0
 57 81  1  0  0  0  0
 58 61  1  0  0  0  0
 58 72  1  0  0  0  0
 59 73  1  0  0  0  0
 60 79  1  0  0  0  0
 62 64  1  0  0  0  0
M  CHG  1  73   1
M  ISO  4  37 100  57 101  69 100  81 101
M  END
> <Batch ID>
0194

> <Smiles>
CNC(C)C(=O)NC(C(=O)N1Cc2cc([101O:1][101CH2:1]CC(O)CNc3cccc([100NH:0][100C:0](=O)N4CCCC(n5nc(-c6ccc(Oc7ccc(F)cc7F)cc6)c(C(N)=O)c5N)C4)n3)ccc2CC1C(=O)NC1CCCc2ccccc21)C(C)(C)C

> <Shape>
0.282

> <Color>
0.094

> <Negative vol penalty>
0.000

$$$$

  -OEChem-04052305333D

 83 91  0     1  0  0  0  0  0999 V2000
  -21.5573  -12.6479   19.7077 C   0  0  0  0  0  0  0  0  0  0  0  0
  -21.6051  -13.8626   20.3841 C   0  0  0  0  0  0  0  0  0  0  0  0
  -30.1841  -28.2844   21.5164 C   0  0  0  0  0  0  0  0  0  0  0  0
  -29.0008  -26.2255   21.9611 C   0  0  0  0  0  0  0  0  0  0  0  0
  -22.7185  -11.8923   19.5510 C   0  0  0  0  0  0  0  0  0  0  0  0
  -22.8142  -14.3220   20.9052 C   0  0  0  0  0  0  0  0  0  0  0  0
  -23.6012  -19.2323   19.9490 C   0  0  0  0  0  0  0  0  0  0  0  0
  -31.2525  -27.8384   22.2944 C   0  0  0  0  0  0  0  0  0  0  0  0
  -30.0692  -25.7795   22.7391 C   0  0  0  0  0  0  0  0  0  0  0  0
  -22.9178  -20.1530   20.7421 C   0  0  0  0  0  0  0  0  0  0  0  0
  -31.2629  -26.2922   25.8605 C   0  0  0  0  0  0  0  0  0  0  0  0
  -30.9679  -25.7040   27.0903 C   0  0  0  0  0  0  0  0  0  0  0  0
  -24.9050  -20.4734   22.0717 C   0  0  0  0  0  0  0  0  0  0  0  0
  -32.0364  -23.6606   26.3692 C   0  0  0  0  0  0  0  0  0  0  0  0
  -29.0582  -27.4780   21.3498 C   0  0  0  0  0  0  0  0  0  0  0  0
  -27.7696  -27.7456   19.1645 C   0  0  0  0  0  0  0  0  0  0  0  0
  -23.9443  -12.3473   20.0621 C   0  0  0  0  0  0  0  0  0  0  0  0
  -24.9407  -18.9166   20.2183 C   0  0  0  0  0  0  0  0  0  0  0  0
  -23.9927  -13.5712   20.7564 C   0  0  0  0  0  0  0  0  0  0  0  0
  -25.6039  -19.5503   21.2789 C   0  0  0  0  0  0  0  0  0  0  0  0
  -31.1950  -26.5860   22.9057 C   0  0  0  0  0  0  0  0  0  0  0  0
  -23.5688  -20.7715   21.8055 C   0  0  0  0  0  0  0  0  0  0  0  0
  -31.9446  -25.5647   24.8849 C   0  0  0  0  0  0  0  0  0  0  0  0
  -31.3547  -24.3882   27.3447 C   0  0  0  0  0  0  0  0  0  0  0  0
  -32.3314  -24.2489   25.1394 C   0  0  0  0  0  0  0  0  0  0  0  0
  -27.9540  -27.9383   20.5467 C   0  0  0  0  0  0  0  0  0  0  0  0
  -26.5780  -28.3695   18.8867 C   0  0  0  0  0  0  0  0  0  0  0  0
  -20.6087  -26.1358   22.6653 C   0  0  0  0  0  0  0  0  0  0  0  0
  -20.2768  -24.1459   21.6819 C   0  0  0  0  0  0  0  0  0  0  0  0
  -21.3192  -24.2569   23.6664 C   0  0  0  0  0  0  0  0  0  0  0  0
  -28.6012  -27.0634   18.2164 C   0  0  0  0  0  0  0  0  0  0  0  0
  -26.5015  -16.2698   21.0320 C   0  0  0  0  0  0  0  0  0  0  0  0
  -29.1113  -18.1589   20.6540 C   0  0  0  0  0  0  0  0  0  0  0  0
  -30.4277  -21.3073   20.6148 C   0  0  0  0  0  0  0  0  0  0  0  0
  -21.7835  -29.6754   22.2272 C   0  0  0  0  0  0  0  0  0  0  0  0
  -25.1638  -11.4732   19.9091 C   0  0  0  0  0  0  0  0  0  0  0  0
  -25.6716  -17.9413   19.3369 C   0  0  0  0  0  0  0  0  0  0  0  0
  -27.0473  -19.2613   21.5974 C   0  0  0  0  0  0  0  0  0  0  0  0
  -26.4766  -12.2091   20.1649 C   0  0  0  0  0  0  0  0  0  0  0  0
  -23.7946  -31.9620   20.3823 C   0  0  0  0  0  0  0  0  0  0  0  0
  -26.3810  -13.0445   21.4377 C   0  0  0  0  0  0  0  0  0  0  0  0
  -25.0720  -31.1727   20.0905 C   0  0  0  0  0  0  0  0  0  0  0  0
  -23.2300  -31.6319   21.7623 C   0  0  0  0  0  0  0  0  0  0  0  0
  -24.2873  -29.4061   21.7222 C   0  0  0  0  0  0  0  0  0  0  0  0
  -25.2900  -14.1150   21.3144 C   0  0  1  0  0  0  0  0  0  0  0  0
  -26.8825  -17.3115   20.0183 C   0  0  1  0  0  0  0  0  0  0  0  0
  -24.8632  -29.6636   20.3192 C   0  0  2  0  0  0  0  0  0  0  0  0
  -32.5980  -22.5314   20.3166 C   0  0  0  0  0  0  0  0  0  0  0  0
  -22.3457  -21.8121   26.2725 C   0  0  0  0  0  0  0  0  0  0  0  0
  -29.9581  -17.3382   23.4681 C   0  0  0  0  0  0  0  0  0  0  0  0
  -31.5545  -19.2668   23.4749 C   0  0  0  0  0  0  0  0  0  0  0  0
  -31.8225  -17.4341   21.8039 C   0  0  0  0  0  0  0  0  0  0  0  0
  -29.4138  -22.7651   18.2471 C   0  0  0  0  0  0  0  0  0  0  0  0
  -20.4624  -27.6194   22.6592 C   0  0  0  0  0  0  0  0  0  0  0  0
  -23.3080  -21.7738   23.9463 C   0  0  0  0  0  0  0  0  0  1  0  0
  -29.9110  -19.0699   21.5537 C   0  0  1  0  0  0  0  0  0  0  0  0
  -31.3497  -22.0014   19.6285 C   0  0  2  0  0  0  0  0  0  0  0  0
  -22.1237  -22.1929   24.8146 C   0  0  2  0  0  0  0  0  0  0  0  0
  -30.7837  -18.2815   22.5706 C   0  0  0  0  0  0  0  0  0  0  0  0
  -26.9592  -28.6307   21.1080 N   0  0  0  0  0  0  0  0  0  0  0  0
  -20.1102  -25.4761   21.6071 N   0  0  0  0  0  0  0  0  0  0  0  0
  -21.2246  -25.5949   23.7289 N   0  0  0  0  0  0  0  0  0  0  0  0
  -20.8699  -23.4675   22.6775 N   0  0  0  0  0  0  0  0  0  0  0  0
  -26.1383  -28.8785   20.0732 N   0  0  0  0  0  0  0  0  0  0  0  0
  -27.7170  -18.2957   20.7105 N   0  0  0  0  0  0  0  0  0  0  0  0
  -23.0542  -30.1856   21.9141 N   0  0  0  0  0  0  0  0  0  0  0  0
  -25.8739  -28.5269   17.7457 N   0  0  0  0  0  0  0  0  0  0  0  0
  -19.7787  -23.3832   20.6031 N   0  0  0  0  0  0  0  0  0  0  0  0
  -29.7911  -26.4785   18.6705 N   0  0  0  0  0  0  0  0  0  0  0  0
  -21.9428  -23.6283   24.7283 N   0  0  0  0  0  0  0  0  0  0  0  0
  -25.7597  -15.2254   20.5139 N   0  0  0  0  0  0  0  0  0  0  0  0
  -30.6695  -19.9510   20.6723 N   0  0  0  0  0  0  0  0  0  0  0  0
  -21.7029  -28.2934   22.3469 N   0  0  0  0  0  0  0  0  0  0  0  0
  -30.6482  -23.1458   18.9809 N   0  3  0  0  0  0  0  0  0  0  0  0
  -28.3061  -26.9894   16.9994 O   0  0  0  0  0  0  0  0  0  0  0  0
  -26.8557  -16.4030   22.1975 O   0  0  0  0  0  0  0  0  0  0  0  0
  -29.7021  -17.3605   19.9225 O   0  0  0  0  0  0  0  0  0  0  0  0
  -29.5806  -21.9087   21.2714 O   0  0  0  0  0  0  0  0  0  0  0  0
  -20.7930  -30.3976   22.3830 O   0  0  0  0  0  0  0  0  0  0  0  0
  -32.2375  -26.1504   23.6648 O   0  0  0  0  0  0  0  0  0  0  0  0
  -22.9040  -21.6700   22.5817 O   0  0  0  0  0  0  0  0  0  1  0  0
  -31.0726  -23.8240   28.5263 F   0  0  0  0  0  0  0  0  0  0  0  0
  -32.9877  -23.5453   24.2066 F   0  0  0  0  0  0  0  0  0  0  0  0
  1  2  1  0  0  0  0
  1  5  2  0  0  0  0
  2  6  2  0  0  0  0
  3  8  2  0  0  0  0
  3 15  1  0  0  0  0
  4  9  1  0  0  0  0
  4 15  2  0  0  0  0
  5 17  1  0  0  0  0
  6 19  1  0  0  0  0
  7 10  2  0  0  0  0
  7 18  1  0  0  0  0
  8 21  1  0  0  0  0
  9 21  2  0  0  0  0
 10 22  1  0  0  0  0
 11 12  2  0  0  0  0
 11 23  1  0  0  0  0
 12 24  1  0  0  0  0
 13 20  1  0  0  0  0
 13 22  2  0  0  0  0
 14 24  2  0  0  0  0
 14 25  1  0  0  0  0
 15 26  1  0  0  0  0
 16 26  1  0  0  0  0
 16 27  2  0  0  0  0
 16 31  1  0  0  0  0
 17 19  2  0  0  0  0
 17 36  1  0  0  0  0
 18 20  2  0  0  0  0
 18 37  1  0  0  0  0
 19 45  1  0  0  0  0
 20 38  1  0  0  0  0
 21 80  1  0  0  0  0
 22 81  1  0  0  0  0
 23 25  2  0  0  0  0
 23 80  1  0  0  0  0
 24 82  1  0  0  0  0
 25 83  1  0  0  0  0
 26 60  2  0  0  0  0
 27 64  1  0  0  0  0
 27 67  1  0  0  0  0
 28 54  1  0  0  0  0
 28 61  2  0  0  0  0
 28 62  1  0  0  0  0
 29 61  1  0  0  0  0
 29 63  2  0  0  0  0
 29 68  1  0  0  0  0
 30 62  2  0  0  0  0
 30 63  1  0  0  0  0
 30 70  1  0  0  0  0
 31 69  1  0  0  0  0
 31 75  2  0  0  0  0
 32 46  1  0  0  0  0
 32 71  1  0  0  0  0
 32 76  2  0  0  0  0
 33 56  1  0  0  0  0
 33 65  1  0  0  0  0
 33 77  2  0  0  0  0
 34 57  1  0  0  0  0
 34 72  1  0  0  0  0
 34 78  2  0  0  0  0
 35 66  1  0  0  0  0
 35 73  1  0  0  0  0
 35 79  2  0  0  0  0
 36 39  1  0  0  0  0
 37 46  1  0  0  0  0
 38 65  1  0  0  0  0
 39 41  1  0  0  0  0
 40 42  1  0  0  0  0
 40 43  1  0  0  0  0
 41 45  1  0  0  0  0
 42 47  1  0  0  0  0
 43 66  1  0  0  0  0
 44 47  1  0  0  0  0
 44 66  1  0  0  0  0
 45 71  1  0  0  0  0
 46 65  1  0  0  0  0
 47 64  1  0  0  0  0
 48 57  1  0  0  0  0
 49 58  1  0  0  0  0
 50 59  1  0  0  0  0
 51 59  1  0  0  0  0
 52 59  1  0  0  0  0
 53 74  1  0  0  0  0
 54 73  1  0  0  0  0
 55 58  1  0  0  0  0
 55 81  1  0  0  0  0
 56 59  1  0  0  0  0
 56 72  1  0  0  0  0
 57 74  1  0  0  0  0
 58 70  1  0  0  0  0
 60 64  1  0  0  0  0
M  CHG  1  74   1
M  ISO  4  35 100  55 101  73 100  81 101
M  END
> <Batch ID>
0194

> <Smiles>
CNC(C)C(=O)NC(C(=O)N1Cc2cc([101O:1][101CH2:1]C(C)Nc3nc(N)nc(C[100NH:0][100C:0](=O)N4CCCC(n5nc(-c6ccc(Oc7ccc(F)cc7F)cc6)c(C(N)=O)c5N)C4)n3)ccc2CC1C(=O)NC1CCCc2ccccc21)C(C)(C)C

> <Shape>
0.217

> <Color>
0.063

> <Negative vol penalty>
0.000

$$$$

  -OEChem-04052305333D

 81 89  0     1  0  0  0  0  0999 V2000
  -27.9420  -31.1730   27.7767 C   0  0  0  0  0  0  0  0  0  0  0  0
  -28.0801  -30.2963   26.7054 C   0  0  0  0  0  0  0  0  0  0  0  0
  -24.1609   -9.8996   22.2688 C   0  0  0  0  0  0  0  0  0  0  0  0
  -23.9347   -9.4772   19.9008 C   0  0  0  0  0  0  0  0  0  0  0  0
  -26.6710  -31.5533   28.2054 C   0  0  0  0  0  0  0  0  0  0  0  0
  -26.9471  -29.7985   26.0628 C   0  0  0  0  0  0  0  0  0  0  0  0
  -27.3641  -29.9211   21.0173 C   0  0  0  0  0  0  0  0  0  0  0  0
  -22.9204   -9.3030   22.4938 C   0  0  0  0  0  0  0  0  0  0  0  0
  -22.6942   -8.8804   20.1258 C   0  0  0  0  0  0  0  0  0  0  0  0
  -28.1331  -28.9247   20.4176 C   0  0  0  0  0  0  0  0  0  0  0  0
  -21.6664   -6.1706   22.7153 C   0  0  0  0  0  0  0  0  0  0  0  0
  -21.5630   -5.2700   23.7753 C   0  0  0  0  0  0  0  0  0  0  0  0
  -26.1209  -27.7203   19.8523 C   0  0  0  0  0  0  0  0  0  0  0  0
  -19.8733   -6.6638   24.7948 C   0  0  0  0  0  0  0  0  0  0  0  0
  -24.6681   -9.9868   20.9723 C   0  0  0  0  0  0  0  0  0  0  0  0
  -27.2076   -9.9726   20.7314 C   0  0  0  0  0  0  0  0  0  0  0  0
  -25.5221  -31.0675   27.5616 C   0  0  0  0  0  0  0  0  0  0  0  0
  -25.9658  -29.8190   21.0487 C   0  0  0  0  0  0  0  0  0  0  0  0
  -25.6595  -30.1717   26.4841 C   0  0  0  0  0  0  0  0  0  0  0  0
  -25.3363  -28.7180   20.4508 C   0  0  0  0  0  0  0  0  0  0  0  0
  -22.1870   -8.7933   21.4223 C   0  0  0  0  0  0  0  0  0  0  0  0
  -27.5117  -27.8227   19.8375 C   0  0  0  0  0  0  0  0  0  0  0  0
  -20.8733   -7.3180   22.6950 C   0  0  0  0  0  0  0  0  0  0  0  0
  -20.6664   -5.5165   24.8151 C   0  0  0  0  0  0  0  0  0  0  0  0
  -19.9767   -7.5645   23.7347 C   0  0  0  0  0  0  0  0  0  0  0  0
  -25.9492  -10.6036   20.7392 C   0  0  0  0  0  0  0  0  0  0  0  0
  -28.0974  -10.9844   20.4650 C   0  0  0  0  0  0  0  0  0  0  0  0
  -28.2188  -18.1743   21.0511 C   0  0  0  0  0  0  0  0  0  0  0  0
  -28.5438  -20.4880   20.7205 C   0  0  0  0  0  0  0  0  0  0  0  0
  -27.5424   -8.5950   20.9456 C   0  0  0  0  0  0  0  0  0  0  0  0
  -27.7669  -16.8256   21.4144 C   0  0  0  0  0  0  0  0  0  0  0  0
  -23.7825  -29.6171   23.3500 C   0  0  0  0  0  0  0  0  0  0  0  0
  -29.0386  -24.1763   20.2055 C   0  0  0  0  0  0  0  0  0  0  0  0
  -21.7087  -29.8562   20.8672 C   0  0  0  0  0  0  0  0  0  0  0  0
  -21.1218  -29.4359   17.5317 C   0  0  0  0  0  0  0  0  0  0  0  0
  -24.1683  -31.4700   28.0909 C   0  0  0  0  0  0  0  0  0  0  0  0
  -25.1492  -30.9154   21.6759 C   0  0  0  0  0  0  0  0  0  0  0  0
  -23.8373  -28.5711   20.4398 C   0  0  0  0  0  0  0  0  0  0  0  0
  -23.0261  -31.1911   27.1173 C   0  0  0  0  0  0  0  0  0  0  0  0
  -28.4238  -15.2024   18.2363 C   0  0  0  0  0  0  0  0  0  0  0  0
  -23.1507  -29.7861   26.5366 C   0  0  0  0  0  0  0  0  0  0  0  0
  -27.9572  -13.7745   18.5223 C   0  0  0  0  0  0  0  0  0  0  0  0
  -27.5457  -16.2272   18.9479 C   0  0  0  0  0  0  0  0  0  0  0  0
  -26.9741  -14.5918   20.7120 C   0  0  0  0  0  0  0  0  0  0  0  0
  -24.4550  -29.6297   25.7455 C   0  0  1  0  0  0  0  0  0  0  0  0
  -23.7589  -30.4552   22.1031 C   0  0  1  0  0  0  0  0  0  0  0  0
  -27.8447  -13.5180   20.0365 C   0  0  1  0  0  0  0  0  0  0  0  0
  -19.3200  -29.6809   15.8023 C   0  0  0  0  0  0  0  0  0  0  0  0
  -20.3789  -27.3098   21.8956 C   0  0  0  0  0  0  0  0  0  0  0  0
  -19.2503  -27.0844   19.6721 C   0  0  0  0  0  0  0  0  0  0  0  0
  -18.7889  -29.0718   21.1073 C   0  0  0  0  0  0  0  0  0  0  0  0
  -22.6995  -31.4175   16.0008 C   0  0  0  0  0  0  0  0  0  0  0  0
  -29.9706  -25.1794   19.5389 C   0  0  0  0  0  0  0  0  0  0  0  0
  -29.4209  -22.7201   20.0318 C   0  0  0  0  0  0  0  0  0  0  0  0
  -29.5656  -26.6251   19.7828 C   0  0  0  0  0  0  0  0  0  1  0  0
  -21.0259  -28.8741   19.9461 C   0  0  1  0  0  0  0  0  0  0  0  0
  -20.4953  -30.3519   16.4959 C   0  0  2  0  0  0  0  0  0  0  0  0
  -19.8894  -28.0866   20.6570 C   0  0  0  0  0  0  0  0  0  0  0  0
  -26.0283  -11.9148   20.4972 N   0  0  0  0  0  0  0  0  0  0  0  0
  -29.2973  -18.4185   20.3377 N   0  0  0  0  0  0  0  0  0  0  0  0
  -29.4878  -19.7754   20.1437 N   0  0  0  0  0  0  0  0  0  0  0  0
  -27.3471  -12.1160   20.3349 N   0  0  0  0  0  0  0  0  0  0  0  0
  -27.4639  -15.9322   20.3841 N   0  0  0  0  0  0  0  0  0  0  0  0
  -23.0828  -29.6663   21.0712 N   0  0  0  0  0  0  0  0  0  0  0  0
  -29.4406  -11.0078   20.3318 N   0  0  0  0  0  0  0  0  0  0  0  0
  -26.5059   -7.6885   21.2071 N   0  0  0  0  0  0  0  0  0  0  0  0
  -28.4648  -21.8728   20.6988 N   0  0  0  0  0  0  0  0  0  0  0  0
  -24.3353  -30.2533   24.4451 N   0  0  0  0  0  0  0  0  0  0  0  0
  -20.5861  -29.6409   18.7856 N   0  0  0  0  0  0  0  0  0  0  0  0
  -21.4998  -30.7272   15.4610 N   0  3  0  0  0  0  0  0  0  0  0  0
  -28.7270   -8.1832   20.9226 O   0  0  0  0  0  0  0  0  0  0  0  0
  -27.6995  -16.5820   22.6183 O   0  0  0  0  0  0  0  0  0  0  0  0
  -23.3313  -28.4781   23.3211 O   0  0  0  0  0  0  0  0  0  0  0  0
  -28.0433  -24.5248   20.8391 O   0  0  0  0  0  0  0  0  0  0  0  0
  -21.0486  -30.7629   21.3810 O   0  0  0  0  0  0  0  0  0  0  0  0
  -21.9962  -28.6176   17.2554 O   0  0  0  0  0  0  0  0  0  0  0  0
  -20.9766   -8.2108   21.6415 O   0  0  0  0  0  0  0  0  0  0  0  0
  -28.2600  -26.8484   19.2521 O   0  0  0  0  0  0  0  0  0  1  0  0
  -20.5661   -4.6508   25.8322 F   0  0  0  0  0  0  0  0  0  0  0  0
  -19.2113   -8.6644   23.7201 F   0  0  0  0  0  0  0  0  0  0  0  0
  -27.3510  -19.5699   21.5428 S   0  0  0  0  0  0  0  0  0  0  0  0
  1  2  1  0  0  0  0
  1  5  2  0  0  0  0
  2  6  2  0  0  0  0
  3  8  2  0  0  0  0
  3 15  1  0  0  0  0
  4  9  1  0  0  0  0
  4 15  2  0  0  0  0
  5 17  1  0  0  0  0
  6 19  1  0  0  0  0
  7 10  2  0  0  0  0
  7 18  1  0  0  0  0
  8 21  1  0  0  0  0
  9 21  2  0  0  0  0
 10 22  1  0  0  0  0
 11 12  2  0  0  0  0
 11 23  1  0  0  0  0
 12 24  1  0  0  0  0
 13 20  1  0  0  0  0
 13 22  2  0  0  0  0
 14 24  2  0  0  0  0
 14 25  1  0  0  0  0
 15 26  1  0  0  0  0
 16 26  1  0  0  0  0
 16 27  2  0  0  0  0
 16 30  1  0  0  0  0
 17 19  2  0  0  0  0
 17 36  1  0  0  0  0
 18 20  2  0  0  0  0
 18 37  1  0  0  0  0
 19 45  1  0  0  0  0
 20 38  1  0  0  0  0
 21 77  1  0  0  0  0
 22 78  1  0  0  0  0
 23 25  2  0  0  0  0
 23 77  1  0  0  0  0
 24 79  1  0  0  0  0
 25 80  1  0  0  0  0
 26 59  2  0  0  0  0
 27 62  1  0  0  0  0
 27 65  1  0  0  0  0
 28 31  1  0  0  0  0
 28 60  2  0  0  0  0
 28 81  1  0  0  0  0
 29 61  2  0  0  0  0
 29 67  1  0  0  0  0
 29 81  1  0  0  0  0
 30 66  1  0  0  0  0
 30 71  2  0  0  0  0
 31 63  1  0  0  0  0
 31 72  2  0  0  0  0
 32 46  1  0  0  0  0
 32 68  1  0  0  0  0
 32 73  2  0  0  0  0
 33 53  1  0  0  0  0
 33 54  1  0  0  0  0
 33 74  2  0  0  0  0
 34 56  1  0  0  0  0
 34 64  1  0  0  0  0
 34 75  2  0  0  0  0
 35 57  1  0  0  0  0
 35 69  1  0  0  0  0
 35 76  2  0  0  0  0
 36 39  1  0  0  0  0
 37 46  1  0  0  0  0
 38 64  1  0  0  0  0
 39 41  1  0  0  0  0
 40 42  1  0  0  0  0
 40 43  1  0  0  0  0
 41 45  1  0  0  0  0
 42 47  1  0  0  0  0
 43 63  1  0  0  0  0
 44 47  1  0  0  0  0
 44 63  1  0  0  0  0
 45 68  1  0  0  0  0
 46 64  1  0  0  0  0
 47 62  1  0  0  0  0
 48 57  1  0  0  0  0
 49 58  1  0  0  0  0
 50 58  1  0  0  0  0
 51 58  1  0  0  0  0
 52 70  1  0  0  0  0
 53 55  1  0  0  0  0
 54 67  1  0  0  0  0
 55 78  1  0  0  0  0
 56 58  1  0  0  0  0
 56 69  1  0  0  0  0
 57 70  1  0  0  0  0
 59 62  1  0  0  0  0
 60 61  1  0  0  0  0
M  CHG  1  70   1
M  ISO  4  28 100  31 100  55 101  78 101
M  END
> <Batch ID>
0194

> <Smiles>
CNC(C)C(=O)NC(C(=O)N1Cc2cc([101O:1][101CH2:1]CC(=O)CNc3nn[100c:0]([100C:0](=O)N4CCCC(n5nc(-c6ccc(Oc7ccc(F)cc7F)cc6)c(C(N)=O)c5N)C4)s3)ccc2CC1C(=O)NC1CCCc2ccccc21)C(C)(C)C

> <Shape>
0.292

> <Color>
0.106

> <Negative vol penalty>
0.000

$$$$

  -OEChem-04052305333D

 85 93  0     1  0  0  0  0  0999 V2000
  -26.6092  -34.5902   25.0365 C   0  0  0  0  0  0  0  0  0  0  0  0
  -27.0512  -33.3708   24.5336 C   0  0  0  0  0  0  0  0  0  0  0  0
  -23.9066  -14.7288   21.1480 C   0  0  0  0  0  0  0  0  0  0  0  0
  -26.1014  -15.3841   20.3797 C   0  0  0  0  0  0  0  0  0  0  0  0
  -25.2828  -34.7368   25.4405 C   0  0  0  0  0  0  0  0  0  0  0  0
  -26.1673  -32.2968   24.4354 C   0  0  0  0  0  0  0  0  0  0  0  0
  -26.5455  -29.8681   20.0077 C   0  0  0  0  0  0  0  0  0  0  0  0
  -24.2852  -13.3878   21.0858 C   0  0  0  0  0  0  0  0  0  0  0  0
  -26.4801  -14.0431   20.3175 C   0  0  0  0  0  0  0  0  0  0  0  0
  -27.6177  -28.9906   19.8524 C   0  0  0  0  0  0  0  0  0  0  0  0
  -27.9101  -10.7771   19.6118 C   0  0  0  0  0  0  0  0  0  0  0  0
  -28.6036  -10.3511   18.4790 C   0  0  0  0  0  0  0  0  0  0  0  0
  -26.1564  -27.1307   20.3264 C   0  0  0  0  0  0  0  0  0  0  0  0
  -26.7343  -10.9975   17.0916 C   0  0  0  0  0  0  0  0  0  0  0  0
  -24.8147  -15.7270   20.7949 C   0  0  0  0  0  0  0  0  0  0  0  0
  -24.5498  -17.9816   21.9587 C   0  0  0  0  0  0  0  0  0  0  0  0
  -24.3798  -33.6668   25.3382 C   0  0  0  0  0  0  0  0  0  0  0  0
  -25.2709  -29.3836   20.3348 C   0  0  0  0  0  0  0  0  0  0  0  0
  -24.8280  -32.4287   24.8396 C   0  0  0  0  0  0  0  0  0  0  0  0
  -25.0691  -28.0040   20.4828 C   0  0  0  0  0  0  0  0  0  0  0  0
  -27.7469  -21.0235   14.9529 C   0  0  0  0  0  0  0  0  0  0  0  0
  -25.5719  -13.0449   20.6706 C   0  0  0  0  0  0  0  0  0  0  0  0
  -27.4239  -27.6220   20.0146 C   0  0  0  0  0  0  0  0  0  0  0  0
  -26.6287  -11.3132   19.4845 C   0  0  0  0  0  0  0  0  0  0  0  0
  -28.0157  -10.4613   17.2189 C   0  0  0  0  0  0  0  0  0  0  0  0
  -26.0408  -11.4234   18.2244 C   0  0  0  0  0  0  0  0  0  0  0  0
  -24.4240  -17.1124   20.8585 C   0  0  0  0  0  0  0  0  0  0  0  0
  -27.1143  -22.1401   15.4603 C   0  0  0  0  0  0  0  0  0  0  0  0
  -29.0965  -20.9271   15.2240 C   0  0  0  0  0  0  0  0  0  0  0  0
  -24.0382  -19.1758   21.5132 C   0  0  0  0  0  0  0  0  0  0  0  0
  -29.0567  -22.8868   16.3751 C   0  0  0  0  0  0  0  0  0  0  0  0
  -25.0817  -17.7318   23.2665 C   0  0  0  0  0  0  0  0  0  0  0  0
  -23.2818  -29.7769   22.7828 C   0  0  0  0  0  0  0  0  0  0  0  0
  -21.2700  -28.0401   20.9231 C   0  0  0  0  0  0  0  0  0  0  0  0
  -20.8870  -25.7766   18.3979 C   0  0  0  0  0  0  0  0  0  0  0  0
  -23.4487  -21.5784   16.0605 C   0  0  0  0  0  0  0  0  0  0  0  0
  -22.9676  -33.8591   25.8316 C   0  0  0  0  0  0  0  0  0  0  0  0
  -24.1189  -30.3410   20.4726 C   0  0  0  0  0  0  0  0  0  0  0  0
  -23.7160  -27.4314   20.8140 C   0  0  0  0  0  0  0  0  0  0  0  0
  -22.0006  -32.7826   25.3453 C   0  0  0  0  0  0  0  0  0  0  0  0
  -20.8553  -20.9653   18.4216 C   0  0  0  0  0  0  0  0  0  0  0  0
  -22.6116  -31.3963   25.5234 C   0  0  0  0  0  0  0  0  0  0  0  0
  -21.4872  -19.9867   19.4132 C   0  0  0  0  0  0  0  0  0  0  0  0
  -21.3267  -20.7041   16.9928 C   0  0  0  0  0  0  0  0  0  0  0  0
  -23.4229  -19.6987   17.8105 C   0  0  0  0  0  0  0  0  0  0  0  0
  -23.8931  -31.2476   24.6945 C   0  0  1  0  0  0  0  0  0  0  0  0
  -22.9744  -29.7818   21.3121 C   0  0  1  0  0  0  0  0  0  0  0  0
  -23.0210  -19.9581   19.2725 C   0  0  2  0  0  0  0  0  0  0  0  0
  -19.1235  -24.5220   17.1277 C   0  0  0  0  0  0  0  0  0  0  0  0
  -20.9074  -26.1542   23.2941 C   0  0  0  0  0  0  0  0  0  0  0  0
  -19.9420  -24.4676   21.7156 C   0  0  0  0  0  0  0  0  0  0  0  0
  -18.8067  -26.6655   22.0370 C   0  0  0  0  0  0  0  0  0  0  0  0
  -21.6822  -27.0232   15.8342 C   0  0  0  0  0  0  0  0  0  0  0  0
  -25.6543  -22.3577   15.2316 C   0  0  0  0  0  0  0  0  0  0  0  0
  -29.1036  -25.0322   17.6481 C   0  0  0  0  0  0  0  0  0  0  0  0
  -29.4996  -27.1476   18.9552 C   0  0  0  0  0  0  0  0  0  1  0  0
  -20.9789  -26.5694   20.7469 C   0  0  1  0  0  0  0  0  0  0  0  0
  -19.9862  -25.7735   17.1760 C   0  0  2  0  0  0  0  0  0  0  0  0
  -30.1384  -25.8924   18.3709 C   0  0  1  0  0  0  0  0  0  0  0  0
  -20.1848  -25.9748   21.9441 C   0  0  0  0  0  0  0  0  0  0  0  0
  -23.8753  -17.7041   19.7941 N   0  0  0  0  0  0  0  0  0  0  0  0
  -27.7409  -23.0952   16.1784 N   0  0  0  0  0  0  0  0  0  0  0  0
  -29.7859  -21.8438   15.9344 N   0  0  0  0  0  0  0  0  0  0  0  0
  -23.6518  -18.9578   20.2235 N   0  0  0  0  0  0  0  0  0  0  0  0
  -22.6226  -28.4086   20.9449 N   0  0  0  0  0  0  0  0  0  0  0  0
  -22.7901  -20.6912   16.9278 N   0  0  0  0  0  0  0  0  0  0  0  0
  -27.0557  -20.0542   14.2107 N   0  0  0  0  0  0  0  0  0  0  0  0
  -29.8058  -19.8036   14.7311 N   0  0  0  0  0  0  0  0  0  0  0  0
  -23.8856  -20.3806   22.1027 N   0  0  0  0  0  0  0  0  0  0  0  0
  -25.5657  -16.4490   23.5572 N   0  0  0  0  0  0  0  0  0  0  0  0
  -29.7331  -23.8493   17.1052 N   0  0  0  0  0  0  0  0  0  0  0  0
  -23.5709  -31.0248   23.3013 N   0  0  0  0  0  0  0  0  0  0  0  0
  -20.3059  -26.4379   19.4592 N   0  0  0  0  0  0  0  0  0  0  0  0
  -24.8363  -21.5051   16.0651 N   0  0  0  0  0  0  0  0  0  0  0  0
  -20.8026  -25.8299   15.9305 N   0  3  0  0  0  0  0  0  0  0  0  0
  -25.1115  -18.6154   24.1564 O   0  0  0  0  0  0  0  0  0  0  0  0
  -23.2570  -28.7196   23.4018 O   0  0  0  0  0  0  0  0  0  0  0  0
  -20.3317  -28.8337   21.0302 O   0  0  0  0  0  0  0  0  0  0  0  0
  -21.9938  -25.2424   18.4109 O   0  0  0  0  0  0  0  0  0  0  0  0
  -22.8451  -22.3803   15.3398 O   0  0  0  0  0  0  0  0  0  0  0  0
  -30.6945  -25.1433   19.4534 O   0  0  0  0  0  0  0  0  0  0  0  0
  -25.9418  -11.7364   20.6100 O   0  0  0  0  0  0  0  0  0  0  0  0
  -28.4688  -26.7633   19.8641 O   0  0  0  0  0  0  0  0  0  1  0  0
  -28.6824  -10.0536   16.1310 F   0  0  0  0  0  0  0  0  0  0  0  0
  -24.8105  -11.9388   18.0957 F   0  0  0  0  0  0  0  0  0  0  0  0
  1  2  1  0  0  0  0
  1  5  2  0  0  0  0
  2  6  2  0  0  0  0
  3  8  2  0  0  0  0
  3 15  1  0  0  0  0
  4  9  1  0  0  0  0
  4 15  2  0  0  0  0
  5 17  1  0  0  0  0
  6 19  1  0  0  0  0
  7 10  2  0  0  0  0
  7 18  1  0  0  0  0
  8 22  1  0  0  0  0
  9 22  2  0  0  0  0
 10 23  1  0  0  0  0
 11 12  2  0  0  0  0
 11 24  1  0  0  0  0
 12 25  1  0  0  0  0
 13 20  1  0  0  0  0
 13 23  2  0  0  0  0
 14 25  2  0  0  0  0
 14 26  1  0  0  0  0
 15 27  1  0  0  0  0
 16 27  1  0  0  0  0
 16 30  2  0  0  0  0
 16 32  1  0  0  0  0
 17 19  2  0  0  0  0
 17 37  1  0  0  0  0
 18 20  2  0  0  0  0
 18 38  1  0  0  0  0
 19 46  1  0  0  0  0
 20 39  1  0  0  0  0
 21 28  2  0  0  0  0
 21 29  1  0  0  0  0
 21 67  1  0  0  0  0
 22 82  1  0  0  0  0
 23 83  1  0  0  0  0
 24 26  2  0  0  0  0
 24 82  1  0  0  0  0
 25 84  1  0  0  0  0
 26 85  1  0  0  0  0
 27 61  2  0  0  0  0
 28 54  1  0  0  0  0
 28 62  1  0  0  0  0
 29 63  2  0  0  0  0
 29 68  1  0  0  0  0
 30 64  1  0  0  0  0
 30 69  1  0  0  0  0
 31 62  2  0  0  0  0
 31 63  1  0  0  0  0
 31 71  1  0  0  0  0
 32 70  1  0  0  0  0
 32 76  2  0  0  0  0
 33 47  1  0  0  0  0
 33 72  1  0  0  0  0
 33 77  2  0  0  0  0
 34 57  1  0  0  0  0
 34 65  1  0  0  0  0
 34 78  2  0  0  0  0
 35 58  1  0  0  0  0
 35 73  1  0  0  0  0
 35 79  2  0  0  0  0
 36 66  1  0  0  0  0
 36 74  1  0  0  0  0
 36 80  2  0  0  0  0
 37 40  1  0  0  0  0
 38 47  1  0  0  0  0
 39 65  1  0  0  0  0
 40 42  1  0  0  0  0
 41 43  1  0  0  0  0
 41 44  1  0  0  0  0
 42 46  1  0  0  0  0
 43 48  1  0  0  0  0
 44 66  1  0  0  0  0
 45 48  1  0  0  0  0
 45 66  1  0  0  0  0
 46 72  1  0  0  0  0
 47 65  1  0  0  0  0
 48 64  1  0  0  0  0
 49 58  1  0  0  0  0
 50 60  1  0  0  0  0
 51 60  1  0  0  0  0
 52 60  1  0  0  0  0
 53 75  1  0  0  0  0
 54 74  1  0  0  0  0
 55 59  1  0  0  0  0
 55 71  1  0  0  0  0
 56 59  1  0  0  0  0
 56 83  1  0  0  0  0
 57 60  1  0  0  0  0
 57 73  1  0  0  0  0
 58 75  1  0  0  0  0
 59 81  1  0  0  0  0
 61 64  1  0  0  0  0
M  CHG  1  75   1
M  ISO  4  36 100  56 101  74 100  83 101
M  END
> <Batch ID>
0194

> <Smiles>
CNC(C)C(=O)NC(C(=O)N1Cc2cc([101O:1][101CH2:1]C(O)CNc3nc(N)c(N)c(C[100NH:0][100C:0](=O)N4CCCC(n5nc(-c6ccc(Oc7ccc(F)cc7F)cc6)c(C(N)=O)c5N)C4)n3)ccc2CC1C(=O)NC1CCCc2ccccc21)C(C)(C)C

> <Shape>
0.207

> <Color>
0.084

> <Negative vol penalty>
0.000

$$$$

  -OEChem-04052305333D

 85 93  0     1  0  0  0  0  0999 V2000
  -30.1203  -16.1942   14.2097 C   0  0  0  0  0  0  0  0  0  0  0  0
  -29.4965  -16.0818   15.4482 C   0  0  0  0  0  0  0  0  0  0  0  0
  -23.1961   -9.7354   20.0495 C   0  0  0  0  0  0  0  0  0  0  0  0
  -23.7943   -9.9898   22.3764 C   0  0  0  0  0  0  0  0  0  0  0  0
  -31.0372  -17.2198   13.9829 C   0  0  0  0  0  0  0  0  0  0  0  0
  -29.7902  -16.9942   16.4609 C   0  0  0  0  0  0  0  0  0  0  0  0
  -26.7527  -20.3231   22.0294 C   0  0  0  0  0  0  0  0  0  0  0  0
  -22.4815   -8.5784   20.3598 C   0  0  0  0  0  0  0  0  0  0  0  0
  -23.0796   -8.8328   22.6867 C   0  0  0  0  0  0  0  0  0  0  0  0
  -26.9552  -20.5494   23.3901 C   0  0  0  0  0  0  0  0  0  0  0  0
  -23.1591   -5.3304   21.0044 C   0  0  0  0  0  0  0  0  0  0  0  0
  -23.3303   -4.2219   20.1753 C   0  0  0  0  0  0  0  0  0  0  0  0
  -28.4964  -22.3276   22.8588 C   0  0  0  0  0  0  0  0  0  0  0  0
  -20.9713   -4.2473   19.6541 C   0  0  0  0  0  0  0  0  0  0  0  0
  -23.8526  -10.4411   21.0579 C   0  0  0  0  0  0  0  0  0  0  0  0
  -24.1049  -12.9568   20.7188 C   0  0  0  0  0  0  0  0  0  0  0  0
  -31.3351  -18.1510   14.9903 C   0  0  0  0  0  0  0  0  0  0  0  0
  -27.4300  -21.0913   21.0715 C   0  0  0  0  0  0  0  0  0  0  0  0
  -30.7130  -18.0323   16.2478 C   0  0  0  0  0  0  0  0  0  0  0  0
  -28.2988  -22.1106   21.4866 C   0  0  0  0  0  0  0  0  0  0  0  0
  -22.4232   -8.1271   21.6783 C   0  0  0  0  0  0  0  0  0  0  0  0
  -27.8293  -21.5499   23.8050 C   0  0  0  0  0  0  0  0  0  0  0  0
  -21.8940   -5.8973   21.1585 C   0  0  0  0  0  0  0  0  0  0  0  0
  -22.2365   -3.6804   19.5001 C   0  0  0  0  0  0  0  0  0  0  0  0
  -20.8001   -5.3558   20.4833 C   0  0  0  0  0  0  0  0  0  0  0  0
  -24.5915  -11.6360   20.7380 C   0  0  0  0  0  0  0  0  0  0  0  0
  -31.7827  -18.8269   22.6472 C   0  0  0  0  0  0  0  0  0  0  0  0
  -25.1900  -13.7173   20.3576 C   0  0  0  0  0  0  0  0  0  0  0  0
  -31.0053  -18.8957   23.7843 C   0  0  0  0  0  0  0  0  0  0  0  0
  -30.6902  -16.9395   22.4143 C   0  0  0  0  0  0  0  0  0  0  0  0
  -22.7895  -13.4521   21.0024 C   0  0  0  0  0  0  0  0  0  0  0  0
  -32.7373  -19.8271   22.2530 C   0  0  0  0  0  0  0  0  0  0  0  0
  -29.5238  -20.4628   18.7641 C   0  0  0  0  0  0  0  0  0  0  0  0
  -29.0928  -23.5984   18.0537 C   0  0  0  0  0  0  0  0  0  0  0  0
  -28.1855  -26.7117   19.1170 C   0  0  0  0  0  0  0  0  0  0  0  0
  -30.5869  -15.0181   20.7884 C   0  0  0  0  0  0  0  0  0  0  0  0
  -32.3684  -19.2141   14.7136 C   0  0  0  0  0  0  0  0  0  0  0  0
  -27.1802  -20.8524   19.6077 C   0  0  0  0  0  0  0  0  0  0  0  0
  -29.0346  -22.9767   20.4982 C   0  0  0  0  0  0  0  0  0  0  0  0
  -32.3438  -20.3635   15.7178 C   0  0  0  0  0  0  0  0  0  0  0  0
  -29.7327  -12.3470   18.5946 C   0  0  0  0  0  0  0  0  0  0  0  0
  -32.2714  -19.8254   17.1433 C   0  0  0  0  0  0  0  0  0  0  0  0
  -28.2789  -12.0325   18.9551 C   0  0  0  0  0  0  0  0  0  0  0  0
  -30.5528  -12.7273   19.8261 C   0  0  0  0  0  0  0  0  0  0  0  0
  -28.5283  -13.4911   21.0038 C   0  0  0  0  0  0  0  0  0  0  0  0
  -30.9867  -19.0175   17.3634 C   0  0  1  0  0  0  0  0  0  0  0  0
  -28.3143  -21.3531   18.7185 C   0  0  1  0  0  0  0  0  0  0  0  0
  -27.6469  -13.1657   19.7870 C   0  0  2  0  0  0  0  0  0  0  0  0
  -33.5125  -19.6053   20.9777 C   0  0  0  0  0  0  0  0  0  0  0  0
  -27.9721  -29.0813   18.3190 C   0  0  0  0  0  0  0  0  0  0  0  0
  -30.7098  -18.9069   26.9367 C   0  0  0  0  0  0  0  0  0  0  0  0
  -29.1250  -23.6328   26.1795 C   0  0  0  0  0  0  0  0  0  0  0  0
  -32.1230  -23.9211   18.2089 C   0  0  0  0  0  0  0  0  0  0  0  0
  -31.7819  -26.3971   18.3549 C   0  0  0  0  0  0  0  0  0  0  0  0
  -31.0377  -25.1549   16.3237 C   0  0  0  0  0  0  0  0  0  0  0  0
  -25.2762  -26.7543   19.6582 C   0  0  0  0  0  0  0  0  0  0  0  0
  -29.9642  -21.2746   26.4883 C   0  0  0  0  0  0  0  0  0  0  0  0
  -29.7456  -24.8908   18.4807 C   0  0  1  0  0  0  0  0  0  0  0  0
  -27.2593  -27.7521   18.5134 C   0  0  2  0  0  0  0  0  0  0  0  0
  -30.1120  -19.8598   25.9051 C   0  0  1  0  0  0  0  0  0  0  0  0
  -29.3085  -22.2708   25.5221 C   0  0  1  0  0  0  0  0  0  1  0  0
  -31.1598  -25.0735   17.8609 C   0  0  0  0  0  0  0  0  0  0  0  0
  -25.8850  -11.5583   20.4144 N   0  0  0  0  0  0  0  0  0  0  0  0
  -31.6037  -17.7057   21.8606 N   0  0  0  0  0  0  0  0  0  0  0  0
  -26.2204  -12.8399   20.1885 N   0  0  0  0  0  0  0  0  0  0  0  0
  -28.7618  -22.7001   19.0781 N   0  0  0  0  0  0  0  0  0  0  0  0
  -29.8953  -13.8092   20.5622 N   0  0  0  0  0  0  0  0  0  0  0  0
  -25.3538  -15.0443   20.1711 N   0  0  0  0  0  0  0  0  0  0  0  0
  -21.7923  -12.5339   21.3584 N   0  0  0  0  0  0  0  0  0  0  0  0
  -30.9766  -19.8915   24.7441 N   0  0  0  0  0  0  0  0  0  0  0  0
  -30.2006  -15.6957   21.9443 N   0  0  0  0  0  0  0  0  0  0  0  0
  -29.8572  -19.9037   17.5451 N   0  0  0  0  0  0  0  0  0  0  0  0
  -28.8044  -25.9538   18.1454 N   0  0  0  0  0  0  0  0  0  0  0  0
  -26.0828  -27.9750   19.4005 N   0  3  0  0  0  0  0  0  0  0  0  0
  -22.5029  -14.6709   20.9258 O   0  0  0  0  0  0  0  0  0  0  0  0
  -32.9902  -20.8711   22.8773 O   0  0  0  0  0  0  0  0  0  0  0  0
  -30.1120  -20.2965   19.8262 O   0  0  0  0  0  0  0  0  0  0  0  0
  -28.8778  -23.3964   16.8560 O   0  0  0  0  0  0  0  0  0  0  0  0
  -28.3470  -26.5866   20.3289 O   0  0  0  0  0  0  0  0  0  0  0  0
  -31.4384  -15.4360   19.9996 O   0  0  0  0  0  0  0  0  0  0  0  0
  -21.7257   -6.9983   21.9814 O   0  0  0  0  0  0  0  0  0  0  0  0
  -28.0293  -21.7725   25.1325 O   0  0  0  0  0  0  0  0  0  1  0  0
  -22.4013   -2.6168   18.7026 F   0  0  0  0  0  0  0  0  0  0  0  0
  -19.5825   -5.8969   20.6264 F   0  0  0  0  0  0  0  0  0  0  0  0
  -30.0043  -17.5064   23.8817 S   0  0  0  0  0  0  0  0  0  0  0  0
  1  2  1  0  0  0  0
  1  5  2  0  0  0  0
  2  6  2  0  0  0  0
  3  8  2  0  0  0  0
  3 15  1  0  0  0  0
  4  9  1  0  0  0  0
  4 15  2  0  0  0  0
  5 17  1  0  0  0  0
  6 19  1  0  0  0  0
  7 10  2  0  0  0  0
  7 18  1  0  0  0  0
  8 21  1  0  0  0  0
  9 21  2  0  0  0  0
 10 22  1  0  0  0  0
 11 12  2  0  0  0  0
 11 23  1  0  0  0  0
 12 24  1  0  0  0  0
 13 20  1  0  0  0  0
 13 22  2  0  0  0  0
 14 24  2  0  0  0  0
 14 25  1  0  0  0  0
 15 26  1  0  0  0  0
 16 26  1  0  0  0  0
 16 28  2  0  0  0  0
 16 31  1  0  0  0  0
 17 19  2  0  0  0  0
 17 37  1  0  0  0  0
 18 20  2  0  0  0  0
 18 38  1  0  0  0  0
 19 46  1  0  0  0  0
 20 39  1  0  0  0  0
 21 81  1  0  0  0  0
 22 82  1  0  0  0  0
 23 25  2  0  0  0  0
 23 81  1  0  0  0  0
 24 83  1  0  0  0  0
 25 84  1  0  0  0  0
 26 63  2  0  0  0  0
 27 29  2  0  0  0  0
 27 32  1  0  0  0  0
 27 64  1  0  0  0  0
 28 65  1  0  0  0  0
 28 68  1  0  0  0  0
 29 70  1  0  0  0  0
 29 85  1  0  0  0  0
 30 64  2  0  0  0  0
 30 71  1  0  0  0  0
 30 85  1  0  0  0  0
 31 69  1  0  0  0  0
 31 75  2  0  0  0  0
 32 49  1  0  0  0  0
 32 76  2  0  0  0  0
 33 47  1  0  0  0  0
 33 72  1  0  0  0  0
 33 77  2  0  0  0  0
 34 58  1  0  0  0  0
 34 66  1  0  0  0  0
 34 78  2  0  0  0  0
 35 59  1  0  0  0  0
 35 73  1  0  0  0  0
 35 79  2  0  0  0  0
 36 67  1  0  0  0  0
 36 71  1  0  0  0  0
 36 80  2  0  0  0  0
 37 40  1  0  0  0  0
 38 47  1  0  0  0  0
 39 66  1  0  0  0  0
 40 42  1  0  0  0  0
 41 43  1  0  0  0  0
 41 44  1  0  0  0  0
 42 46  1  0  0  0  0
 43 48  1  0  0  0  0
 44 67  1  0  0  0  0
 45 48  1  0  0  0  0
 45 67  1  0  0  0  0
 46 72  1  0  0  0  0
 47 66  1  0  0  0  0
 48 65  1  0  0  0  0
 50 59  1  0  0  0  0
 51 60  1  0  0  0  0
 52 61  1  0  0  0  0
 53 62  1  0  0  0  0
 54 62  1  0  0  0  0
 55 62  1  0  0  0  0
 56 74  1  0  0  0  0
 57 60  1  0  0  0  0
 57 61  1  0  0  0  0
 58 62  1  0  0  0  0
 58 73  1  0  0  0  0
 59 74  1  0  0  0  0
 60 70  1  0  0  0  0
 61 82  1  0  0  0  0
 63 65  1  0  0  0  0
M  CHG  1  74   1
M  ISO  4  36 100  61 101  71 100  82 101
M  END
> <Batch ID>
0194

> <Smiles>
CNC(C)C(=O)NC(C(=O)N1Cc2cc([101O:1][101CH:1](C)CC(C)Nc3sc([100NH:0][100C:0](=O)N4CCCC(n5nc(-c6ccc(Oc7ccc(F)cc7F)cc6)c(C(N)=O)c5N)C4)nc3C(C)=O)ccc2CC1C(=O)NC1CCCc2ccccc21)C(C)(C)C

> <Shape>
0.255

> <Color>
0.208

> <Negative vol penalty>
0.000

$$$$

  -OEChem-04052305333D

 83 91  0     1  0  0  0  0  0999 V2000
  -18.6705  -28.5973   26.1861 C   0  0  0  0  0  0  0  0  0  0  0  0
  -20.0575  -28.4973   26.2247 C   0  0  0  0  0  0  0  0  0  0  0  0
  -24.1101  -12.8908   20.9360 C   0  0  0  0  0  0  0  0  0  0  0  0
  -26.5247  -12.8532   20.8649 C   0  0  0  0  0  0  0  0  0  0  0  0
  -17.9929  -28.4157   24.9811 C   0  0  0  0  0  0  0  0  0  0  0  0
  -20.7678  -28.2145   25.0585 C   0  0  0  0  0  0  0  0  0  0  0  0
  -26.3107  -30.3175   23.5225 C   0  0  0  0  0  0  0  0  0  0  0  0
  -24.0860  -11.4985   20.8556 C   0  0  0  0  0  0  0  0  0  0  0  0
  -26.5007  -11.4609   20.7845 C   0  0  0  0  0  0  0  0  0  0  0  0
  -27.5844  -29.7578   23.6126 C   0  0  0  0  0  0  0  0  0  0  0  0
  -24.5547   -8.8747   22.9362 C   0  0  0  0  0  0  0  0  0  0  0  0
  -23.6972   -8.1904   23.7975 C   0  0  0  0  0  0  0  0  0  0  0  0
  -27.4225  -29.0350   21.3168 C   0  0  0  0  0  0  0  0  0  0  0  0
  -22.5412   -7.2473   21.8971 C   0  0  0  0  0  0  0  0  0  0  0  0
  -29.0343  -22.3769   21.2247 C   0  0  0  0  0  0  0  0  0  0  0  0
  -25.3294  -13.5682   20.9406 C   0  0  0  0  0  0  0  0  0  0  0  0
  -25.4018  -15.7902   22.1916 C   0  0  0  0  0  0  0  0  0  0  0  0
  -18.6960  -28.1401   23.7977 C   0  0  0  0  0  0  0  0  0  0  0  0
  -25.5777  -30.2306   22.3302 C   0  0  0  0  0  0  0  0  0  0  0  0
  -20.0989  -28.0277   23.8369 C   0  0  0  0  0  0  0  0  0  0  0  0
  -26.1407  -29.5968   21.2134 C   0  0  0  0  0  0  0  0  0  0  0  0
  -25.2813  -10.7835   20.7798 C   0  0  0  0  0  0  0  0  0  0  0  0
  -28.1393  -29.1139   22.5105 C   0  0  0  0  0  0  0  0  0  0  0  0
  -24.4055   -8.7454   21.5553 C   0  0  0  0  0  0  0  0  0  0  0  0
  -22.6904   -7.3766   23.2780 C   0  0  0  0  0  0  0  0  0  0  0  0
  -23.3987   -7.9317   21.0358 C   0  0  0  0  0  0  0  0  0  0  0  0
  -25.3549  -15.0065   21.0231 C   0  0  0  0  0  0  0  0  0  0  0  0
  -29.6359  -24.5695   20.9794 C   0  0  0  0  0  0  0  0  0  0  0  0
  -28.4749  -22.3895   19.9660 C   0  0  0  0  0  0  0  0  0  0  0  0
  -29.0772  -24.5819   19.7203 C   0  0  0  0  0  0  0  0  0  0  0  0
  -25.4094  -17.0859   21.7359 C   0  0  0  0  0  0  0  0  0  0  0  0
  -25.4355  -15.3834   23.5661 C   0  0  0  0  0  0  0  0  0  0  0  0
  -30.2914  -25.7588   21.5817 C   0  0  0  0  0  0  0  0  0  0  0  0
  -22.8122  -28.9085   21.4885 C   0  0  0  0  0  0  0  0  0  0  0  0
  -23.3996  -30.4065   18.6719 C   0  0  0  0  0  0  0  0  0  0  0  0
  -25.6887  -31.7550   16.5298 C   0  0  0  0  0  0  0  0  0  0  0  0
  -27.2567  -21.0107   18.2451 C   0  0  0  0  0  0  0  0  0  0  0  0
  -17.9164  -27.9048   22.5283 C   0  0  0  0  0  0  0  0  0  0  0  0
  -24.2158  -30.8629   22.2411 C   0  0  0  0  0  0  0  0  0  0  0  0
  -25.4032  -29.4941   19.9042 C   0  0  0  0  0  0  0  0  0  0  0  0
  -18.7715  -27.9788   21.2658 C   0  0  0  0  0  0  0  0  0  0  0  0
  -24.5841  -18.9535   17.1042 C   0  0  0  0  0  0  0  0  0  0  0  0
  -20.0577  -27.1786   21.4446 C   0  0  0  0  0  0  0  0  0  0  0  0
  -24.5502  -17.8077   18.1182 C   0  0  0  0  0  0  0  0  0  0  0  0
  -26.0124  -19.4085   16.8100 C   0  0  0  0  0  0  0  0  0  0  0  0
  -26.7785  -18.6014   19.0080 C   0  0  0  0  0  0  0  0  0  0  0  0
  -20.9066  -27.7468   22.5883 C   0  0  1  0  0  0  0  0  0  0  0  0
  -23.3510  -30.2659   21.1351 C   0  0  1  0  0  0  0  0  0  0  0  0
  -25.3573  -18.1524   19.3852 C   0  0  2  0  0  0  0  0  0  0  0  0
  -25.8719  -32.8702   14.2892 C   0  0  0  0  0  0  0  0  0  0  0  0
  -23.0156  -27.7082   17.3003 C   0  0  0  0  0  0  0  0  0  0  0  0
  -24.1208  -28.6631   15.2668 C   0  0  0  0  0  0  0  0  0  0  0  0
  -21.9843  -29.6447   16.1000 C   0  0  0  0  0  0  0  0  0  0  0  0
  -26.8117  -34.2212   17.7196 C   0  0  0  0  0  0  0  0  0  0  0  0
  -30.7946  -26.9598   23.6937 C   0  0  0  0  0  0  0  0  0  0  0  0
  -29.7943  -28.0874   23.8754 C   0  0  0  0  0  0  0  0  0  1  0  0
  -24.1187  -30.0406   17.3960 C   0  0  1  0  0  0  0  0  0  0  0  0
  -25.7159  -33.0789   15.7875 C   0  0  2  0  0  0  0  0  0  0  0  0
  -23.3232  -29.0142   16.5409 C   0  0  0  0  0  0  0  0  0  0  0  0
  -29.6248  -23.4667   21.7540 N   0  0  0  0  0  0  0  0  0  0  0  0
  -25.3341  -15.7427   19.9089 N   0  0  0  0  0  0  0  0  0  0  0  0
  -28.4863  -23.4922   19.1912 N   0  0  0  0  0  0  0  0  0  0  0  0
  -25.3679  -17.0027   20.3752 N   0  0  0  0  0  0  0  0  0  0  0  0
  -24.0723  -30.1226   19.8689 N   0  0  0  0  0  0  0  0  0  0  0  0
  -26.7144  -19.7219   18.0565 N   0  0  0  0  0  0  0  0  0  0  0  0
  -29.1211  -25.7697   18.9558 N   0  0  0  0  0  0  0  0  0  0  0  0
  -25.4473  -18.2768   22.3704 N   0  0  0  0  0  0  0  0  0  0  0  0
  -25.4220  -14.0126   23.8576 N   0  0  0  0  0  0  0  0  0  0  0  0
  -27.8724  -21.2020   19.4816 N   0  0  0  0  0  0  0  0  0  0  0  0
  -30.2286  -25.8549   22.9662 N   0  0  0  0  0  0  0  0  0  0  0  0
  -21.6030  -28.9397   22.1565 N   0  0  0  0  0  0  0  0  0  0  0  0
  -24.4006  -31.2976   16.7114 N   0  0  0  0  0  0  0  0  0  0  0  0
  -26.8510  -33.9178   16.2659 N   0  3  0  0  0  0  0  0  0  0  0  0
  -25.4598  -16.2113   24.5082 O   0  0  0  0  0  0  0  0  0  0  0  0
  -30.8240  -26.5867   20.8472 O   0  0  0  0  0  0  0  0  0  0  0  0
  -23.4460  -27.9070   21.1769 O   0  0  0  0  0  0  0  0  0  0  0  0
  -22.2853  -30.9318   18.6088 O   0  0  0  0  0  0  0  0  0  0  0  0
  -26.7083  -31.1820   16.9074 O   0  0  0  0  0  0  0  0  0  0  0  0
  -27.1567  -21.8891   17.3846 O   0  0  0  0  0  0  0  0  0  0  0  0
  -25.2582   -9.4249   20.7016 O   0  0  0  0  0  0  0  0  0  0  0  0
  -29.3821  -28.5661   22.5959 O   0  0  0  0  0  0  0  0  0  1  0  0
  -21.8680   -6.7183   24.1052 F   0  0  0  0  0  0  0  0  0  0  0  0
  -23.2512   -7.8026   19.7102 F   0  0  0  0  0  0  0  0  0  0  0  0
  1  2  1  0  0  0  0
  1  5  2  0  0  0  0
  2  6  2  0  0  0  0
  3  8  2  0  0  0  0
  3 16  1  0  0  0  0
  4  9  1  0  0  0  0
  4 16  2  0  0  0  0
  5 18  1  0  0  0  0
  6 20  1  0  0  0  0
  7 10  2  0  0  0  0
  7 19  1  0  0  0  0
  8 22  1  0  0  0  0
  9 22  2  0  0  0  0
 10 23  1  0  0  0  0
 11 12  2  0  0  0  0
 11 24  1  0  0  0  0
 12 25  1  0  0  0  0
 13 21  1  0  0  0  0
 13 23  2  0  0  0  0
 14 25  2  0  0  0  0
 14 26  1  0  0  0  0
 15 29  1  0  0  0  0
 15 60  2  0  0  0  0
 16 27  1  0  0  0  0
 17 27  1  0  0  0  0
 17 31  2  0  0  0  0
 17 32  1  0  0  0  0
 18 20  2  0  0  0  0
 18 38  1  0  0  0  0
 19 21  2  0  0  0  0
 19 39  1  0  0  0  0
 20 47  1  0  0  0  0
 21 40  1  0  0  0  0
 22 80  1  0  0  0  0
 23 81  1  0  0  0  0
 24 26  2  0  0  0  0
 24 80  1  0  0  0  0
 25 82  1  0  0  0  0
 26 83  1  0  0  0  0
 27 61  2  0  0  0  0
 28 30  2  0  0  0  0
 28 33  1  0  0  0  0
 28 60  1  0  0  0  0
 29 62  2  0  0  0  0
 29 69  1  0  0  0  0
 30 62  1  0  0  0  0
 30 66  1  0  0  0  0
 31 63  1  0  0  0  0
 31 67  1  0  0  0  0
 32 68  1  0  0  0  0
 32 74  2  0  0  0  0
 33 70  1  0  0  0  0
 33 75  2  0  0  0  0
 34 48  1  0  0  0  0
 34 71  1  0  0  0  0
 34 76  2  0  0  0  0
 35 57  1  0  0  0  0
 35 64  1  0  0  0  0
 35 77  2  0  0  0  0
 36 58  1  0  0  0  0
 36 72  1  0  0  0  0
 36 78  2  0  0  0  0
 37 65  1  0  0  0  0
 37 69  1  0  0  0  0
 37 79  2  0  0  0  0
 38 41  1  0  0  0  0
 39 48  1  0  0  0  0
 40 64  1  0  0  0  0
 41 43  1  0  0  0  0
 42 44  1  0  0  0  0
 42 45  1  0  0  0  0
 43 47  1  0  0  0  0
 44 49  1  0  0  0  0
 45 65  1  0  0  0  0
 46 49  1  0  0  0  0
 46 65  1  0  0  0  0
 47 71  1  0  0  0  0
 48 64  1  0  0  0  0
 49 63  1  0  0  0  0
 50 58  1  0  0  0  0
 51 59  1  0  0  0  0
 52 59  1  0  0  0  0
 53 59  1  0  0  0  0
 54 73  1  0  0  0  0
 55 56  1  0  0  0  0
 55 70  1  0  0  0  0
 56 81  1  0  0  0  0
 57 59  1  0  0  0  0
 57 72  1  0  0  0  0
 58 73  1  0  0  0  0
 61 63  1  0  0  0  0
M  CHG  1  73   1
M  ISO  4  37 100  56 101  69 100  81 101
M  END
> <Batch ID>
0194

> <Smiles>
CNC(C)C(=O)NC(C(=O)N1Cc2cc([101O:1][101CH2:1]CNC(=O)c3ncc([100NH:0][100C:0](=O)N4CCCC(n5nc(-c6ccc(Oc7ccc(F)cc7F)cc6)c(C(N)=O)c5N)C4)nc3N)ccc2CC1C(=O)NC1CCCc2ccccc21)C(C)(C)C

> <Shape>
0.245

> <Color>
0.087

> <Negative vol penalty>
0.000

$$$$

  -OEChem-04052305333D

 87 95  0     1  0  0  0  0  0999 V2000
  -27.5726  -32.8589   26.2612 C   0  0  0  0  0  0  0  0  0  0  0  0
  -27.5496  -31.4992   25.9679 C   0  0  0  0  0  0  0  0  0  0  0  0
  -23.8312   -9.5571   21.3422 C   0  0  0  0  0  0  0  0  0  0  0  0
  -24.4815  -10.5660   23.4389 C   0  0  0  0  0  0  0  0  0  0  0  0
  -26.6682  -33.7201   25.6411 C   0  0  0  0  0  0  0  0  0  0  0  0
  -26.6213  -30.9996   25.0551 C   0  0  0  0  0  0  0  0  0  0  0  0
  -28.6818  -27.7324   21.7802 C   0  0  0  0  0  0  0  0  0  0  0  0
  -23.3449   -8.4444   22.0284 C   0  0  0  0  0  0  0  0  0  0  0  0
  -23.9952   -9.4532   24.1252 C   0  0  0  0  0  0  0  0  0  0  0  0
  -28.9187  -26.4368   22.2373 C   0  0  0  0  0  0  0  0  0  0  0  0
  -20.5841   -7.6196   23.7977 C   0  0  0  0  0  0  0  0  0  0  0  0
  -19.3381   -7.1190   23.4205 C   0  0  0  0  0  0  0  0  0  0  0  0
  -26.9022  -25.6889   21.1449 C   0  0  0  0  0  0  0  0  0  0  0  0
  -20.3556   -4.9963   22.8763 C   0  0  0  0  0  0  0  0  0  0  0  0
  -24.3996  -10.6179   22.0475 C   0  0  0  0  0  0  0  0  0  0  0  0
  -24.1921  -12.9340   20.9984 C   0  0  0  0  0  0  0  0  0  0  0  0
  -25.7348  -33.2322   24.7130 C   0  0  0  0  0  0  0  0  0  0  0  0
  -27.5455  -28.0187   21.0099 C   0  0  0  0  0  0  0  0  0  0  0  0
  -25.7027  -31.8548   24.4230 C   0  0  0  0  0  0  0  0  0  0  0  0
  -26.6544  -26.9885   20.6771 C   0  0  0  0  0  0  0  0  0  0  0  0
  -23.4269   -8.3924   23.4198 C   0  0  0  0  0  0  0  0  0  0  0  0
  -28.0274  -25.4154   21.9221 C   0  0  0  0  0  0  0  0  0  0  0  0
  -21.7160   -6.8086   23.7142 C   0  0  0  0  0  0  0  0  0  0  0  0
  -19.2238   -5.8074   22.9598 C   0  0  0  0  0  0  0  0  0  0  0  0
  -21.6017   -5.4970   23.2535 C   0  0  0  0  0  0  0  0  0  0  0  0
  -28.2246  -19.9512   20.1342 C   0  0  0  0  0  0  0  0  0  0  0  0
  -24.9026  -11.7674   21.3392 C   0  0  0  0  0  0  0  0  0  0  0  0
  -29.2786  -19.4849   20.8932 C   0  0  0  0  0  0  0  0  0  0  0  0
  -27.5290  -21.0163   20.6691 C   0  0  0  0  0  0  0  0  0  0  0  0
  -25.1098  -13.7148   20.3391 C   0  0  0  0  0  0  0  0  0  0  0  0
  -28.8794  -21.0451   22.4974 C   0  0  0  0  0  0  0  0  0  0  0  0
  -22.8248  -13.2809   21.2551 C   0  0  0  0  0  0  0  0  0  0  0  0
  -25.0006  -29.8879   21.3749 C   0  0  0  0  0  0  0  0  0  0  0  0
  -30.2631  -15.8662   20.0159 C   0  0  0  0  0  0  0  0  0  0  0  0
  -24.3701  -28.9639   18.3301 C   0  0  0  0  0  0  0  0  0  0  0  0
  -24.7958  -26.6505   15.8574 C   0  0  0  0  0  0  0  0  0  0  0  0
  -24.7460  -34.1944   24.1037 C   0  0  0  0  0  0  0  0  0  0  0  0
  -27.3183  -29.4161   20.5020 C   0  0  0  0  0  0  0  0  0  0  0  0
  -25.4304  -27.2396   19.8360 C   0  0  0  0  0  0  0  0  0  0  0  0
  -24.0414  -33.6421   22.8673 C   0  0  0  0  0  0  0  0  0  0  0  0
  -29.7202  -12.6245   18.5888 C   0  0  0  0  0  0  0  0  0  0  0  0
  -23.5534  -32.2195   23.1217 C   0  0  0  0  0  0  0  0  0  0  0  0
  -28.3748  -12.1959   19.1729 C   0  0  0  0  0  0  0  0  0  0  0  0
  -30.5277  -13.4449   19.5899 C   0  0  0  0  0  0  0  0  0  0  0  0
  -28.4574  -14.2127   20.7062 C   0  0  0  0  0  0  0  0  0  0  0  0
  -24.7271  -31.2787   23.4198 C   0  0  1  0  0  0  0  0  0  0  0  0
  -25.8590  -29.6964   20.1566 C   0  0  1  0  0  0  0  0  0  0  0  0
  -27.5969  -13.4075   19.7164 C   0  0  2  0  0  0  0  0  0  0  0  0
  -24.1266  -26.1506   13.4911 C   0  0  0  0  0  0  0  0  0  0  0  0
  -26.8319  -21.3358   26.5268 C   0  0  0  0  0  0  0  0  0  0  0  0
  -28.7417  -21.7447   28.0904 C   0  0  0  0  0  0  0  0  0  0  0  0
  -21.6058  -28.1059   19.2956 C   0  0  0  0  0  0  0  0  0  0  0  0
  -21.3558  -26.7829   17.1849 C   0  0  0  0  0  0  0  0  0  0  0  0
  -21.6241  -29.2606   17.0773 C   0  0  0  0  0  0  0  0  0  0  0  0
  -27.6046  -26.7148   14.9269 C   0  0  0  0  0  0  0  0  0  0  0  0
  -30.0919  -18.3355   20.4000 C   0  0  0  0  0  0  0  0  0  0  0  0
  -29.3987  -16.9766   20.5581 C   0  0  0  0  0  0  0  0  0  0  0  0
  -28.7993  -22.7990   25.8090 C   0  0  0  0  0  0  0  0  0  0  0  0
  -28.9553  -24.0131   23.6040 C   0  0  0  0  0  0  0  0  0  1  0  0
  -23.6112  -27.8243   17.6941 C   0  0  1  0  0  0  0  0  0  0  0  0
  -25.1661  -26.7983   14.3926 C   0  0  2  0  0  0  0  0  0  0  0  0
  -28.3400  -21.5703   26.6229 C   0  0  0  0  0  0  0  0  0  0  0  0
  -28.5062  -22.7276   24.3018 C   0  0  1  0  0  0  0  0  0  0  0  0
  -22.0712  -27.9887   17.8305 C   0  0  0  0  0  0  0  0  0  0  0  0
  -26.1736  -11.7998   20.9299 N   0  0  0  0  0  0  0  0  0  0  0  0
  -29.6352  -20.0102   22.0837 N   0  0  0  0  0  0  0  0  0  0  0  0
  -27.8301  -21.5899   21.8526 N   0  0  0  0  0  0  0  0  0  0  0  0
  -26.2690  -12.9962   20.3252 N   0  0  0  0  0  0  0  0  0  0  0  0
  -25.2486  -28.6237   19.3685 N   0  0  0  0  0  0  0  0  0  0  0  0
  -29.7463  -14.5732   20.0994 N   0  0  0  0  0  0  0  0  0  0  0  0
  -26.4391  -21.5279   19.9230 N   0  0  0  0  0  0  0  0  0  0  0  0
  -25.0302  -14.9389   19.7756 N   0  0  0  0  0  0  0  0  0  0  0  0
  -22.0209  -12.3633   21.9450 N   0  0  0  0  0  0  0  0  0  0  0  0
  -29.2159  -21.6076   23.7143 N   0  0  0  0  0  0  0  0  0  0  0  0
  -25.4114  -30.9207   22.1958 N   0  0  0  0  0  0  0  0  0  0  0  0
  -24.0833  -27.7381   16.3163 N   0  0  0  0  0  0  0  0  0  0  0  0
  -26.4849  -26.1582   14.1246 N   0  3  0  0  0  0  0  0  0  0  0  0
  -22.3262  -14.3653   20.8692 O   0  0  0  0  0  0  0  0  0  0  0  0
  -24.0361  -29.1539   21.5559 O   0  0  0  0  0  0  0  0  0  0  0  0
  -31.3632  -16.1422   19.5303 O   0  0  0  0  0  0  0  0  0  0  0  0
  -24.1955  -30.1125   17.9158 O   0  0  0  0  0  0  0  0  0  0  0  0
  -25.1044  -25.6668   16.5265 O   0  0  0  0  0  0  0  0  0  0  0  0
  -22.9522   -7.3069   24.0898 O   0  0  0  0  0  0  0  0  0  0  0  0
  -28.2560  -24.1500   22.3676 O   0  0  0  0  0  0  0  0  0  1  0  0
  -18.0269   -5.3263   22.5991 F   0  0  0  0  0  0  0  0  0  0  0  0
  -22.6853   -4.7127   23.1722 F   0  0  0  0  0  0  0  0  0  0  0  0
  -27.9022  -19.4032   18.9569 F   0  0  0  0  0  0  0  0  0  0  0  0
  1  2  1  0  0  0  0
  1  5  2  0  0  0  0
  2  6  2  0  0  0  0
  3  8  2  0  0  0  0
  3 15  1  0  0  0  0
  4  9  1  0  0  0  0
  4 15  2  0  0  0  0
  5 17  1  0  0  0  0
  6 19  1  0  0  0  0
  7 10  2  0  0  0  0
  7 18  1  0  0  0  0
  8 21  1  0  0  0  0
  9 21  2  0  0  0  0
 10 22  1  0  0  0  0
 11 12  2  0  0  0  0
 11 23  1  0  0  0  0
 12 24  1  0  0  0  0
 13 20  1  0  0  0  0
 13 22  2  0  0  0  0
 14 24  2  0  0  0  0
 14 25  1  0  0  0  0
 15 27  1  0  0  0  0
 16 27  1  0  0  0  0
 16 30  2  0  0  0  0
 16 32  1  0  0  0  0
 17 19  2  0  0  0  0
 17 37  1  0  0  0  0
 18 20  2  0  0  0  0
 18 38  1  0  0  0  0
 19 46  1  0  0  0  0
 20 39  1  0  0  0  0
 21 83  1  0  0  0  0
 22 84  1  0  0  0  0
 23 25  2  0  0  0  0
 23 83  1  0  0  0  0
 24 85  1  0  0  0  0
 25 86  1  0  0  0  0
 26 28  2  0  0  0  0
 26 29  1  0  0  0  0
 26 87  1  0  0  0  0
 27 65  2  0  0  0  0
 28 56  1  0  0  0  0
 28 66  1  0  0  0  0
 29 67  2  0  0  0  0
 29 71  1  0  0  0  0
 30 68  1  0  0  0  0
 30 72  1  0  0  0  0
 31 66  2  0  0  0  0
 31 67  1  0  0  0  0
 31 74  1  0  0  0  0
 32 73  1  0  0  0  0
 32 78  2  0  0  0  0
 33 47  1  0  0  0  0
 33 75  1  0  0  0  0
 33 79  2  0  0  0  0
 34 57  1  0  0  0  0
 34 70  1  0  0  0  0
 34 80  2  0  0  0  0
 35 60  1  0  0  0  0
 35 69  1  0  0  0  0
 35 81  2  0  0  0  0
 36 61  1  0  0  0  0
 36 76  1  0  0  0  0
 36 82  2  0  0  0  0
 37 40  1  0  0  0  0
 38 47  1  0  0  0  0
 39 69  1  0  0  0  0
 40 42  1  0  0  0  0
 41 43  1  0  0  0  0
 41 44  1  0  0  0  0
 42 46  1  0  0  0  0
 43 48  1  0  0  0  0
 44 70  1  0  0  0  0
 45 48  1  0  0  0  0
 45 70  1  0  0  0  0
 46 75  1  0  0  0  0
 47 69  1  0  0  0  0
 48 68  1  0  0  0  0
 49 61  1  0  0  0  0
 50 62  1  0  0  0  0
 51 62  1  0  0  0  0
 52 64  1  0  0  0  0
 53 64  1  0  0  0  0
 54 64  1  0  0  0  0
 55 77  1  0  0  0  0
 56 57  1  0  0  0  0
 58 62  1  0  0  0  0
 58 63  1  0  0  0  0
 59 63  1  0  0  0  0
 59 84  1  0  0  0  0
 60 64  1  0  0  0  0
 60 76  1  0  0  0  0
 61 77  1  0  0  0  0
 63 74  1  0  0  0  0
 65 68  1  0  0  0  0
M  CHG  1  77   1
M  ISO  4  34 100  57 100  59 101  84 101
M  END
> <Batch ID>
0194

> <Smiles>
CNC(C)C(=O)NC(C(=O)N1Cc2cc([101O:1][101CH2:1]C(CC(C)C)Nc3nc(N)c(F)c(C[100CH2:0][100C:0](=O)N4CCCC(n5nc(-c6ccc(Oc7ccc(F)cc7F)cc6)c(C(N)=O)c5N)C4)n3)ccc2CC1C(=O)NC1CCCc2ccccc21)C(C)(C)C

> <Shape>
0.312

> <Color>
0.122

> <Negative vol penalty>
0.000

$$$$

  -OEChem-04052305333D

 85 93  0     1  0  0  0  0  0999 V2000
  -22.8880  -33.7387   23.7151 C   0  0  0  0  0  0  0  0  0  0  0  0
  -23.8230  -32.7460   23.4401 C   0  0  0  0  0  0  0  0  0  0  0  0
  -24.6993  -14.9885   21.3054 C   0  0  0  0  0  0  0  0  0  0  0  0
  -27.0547  -14.6717   21.7401 C   0  0  0  0  0  0  0  0  0  0  0  0
  -21.5692  -33.3916   24.0049 C   0  0  0  0  0  0  0  0  0  0  0  0
  -23.4399  -31.4053   23.4557 C   0  0  0  0  0  0  0  0  0  0  0  0
  -25.2578  -28.8189   19.4997 C   0  0  0  0  0  0  0  0  0  0  0  0
  -24.6037  -13.6695   20.8620 C   0  0  0  0  0  0  0  0  0  0  0  0
  -26.9591  -13.3526   21.2967 C   0  0  0  0  0  0  0  0  0  0  0  0
  -26.5955  -28.4298   19.5537 C   0  0  0  0  0  0  0  0  0  0  0  0
  -24.3948  -10.5880   22.2380 C   0  0  0  0  0  0  0  0  0  0  0  0
  -23.3152   -9.8290   22.6895 C   0  0  0  0  0  0  0  0  0  0  0  0
  -25.9173  -26.2127   20.2199 C   0  0  0  0  0  0  0  0  0  0  0  0
  -22.5813   -9.5163   20.4090 C   0  0  0  0  0  0  0  0  0  0  0  0
  -25.9248  -15.4897   21.7444 C   0  0  0  0  0  0  0  0  0  0  0  0
  -25.8453  -17.3228   23.5167 C   0  0  0  0  0  0  0  0  0  0  0  0
  -21.1674  -32.0465   24.0147 C   0  0  0  0  0  0  0  0  0  0  0  0
  -24.2386  -27.9094   19.8164 C   0  0  0  0  0  0  0  0  0  0  0  0
  -22.1147  -31.0398   23.7473 C   0  0  0  0  0  0  0  0  0  0  0  0
  -24.5674  -26.5921   20.1666 C   0  0  0  0  0  0  0  0  0  0  0  0
  -25.7335  -12.8516   20.8577 C   0  0  0  0  0  0  0  0  0  0  0  0
  -26.9256  -27.1273   19.9167 C   0  0  0  0  0  0  0  0  0  0  0  0
  -24.5677  -10.8112   20.8720 C   0  0  0  0  0  0  0  0  0  0  0  0
  -22.4084   -9.2931   21.7750 C   0  0  0  0  0  0  0  0  0  0  0  0
  -23.6610  -10.2754   19.9575 C   0  0  0  0  0  0  0  0  0  0  0  0
  -26.0244  -16.8523   22.2020 C   0  0  0  0  0  0  0  0  0  0  0  0
  -31.8827  -22.7523   21.1836 C   0  0  0  0  0  0  0  0  0  0  0  0
  -26.0452  -18.6786   23.4264 C   0  0  0  0  0  0  0  0  0  0  0  0
  -32.8992  -22.5337   22.0898 C   0  0  0  0  0  0  0  0  0  0  0  0
  -31.5693  -24.5076   22.4606 C   0  0  0  0  0  0  0  0  0  0  0  0
  -25.5267  -16.5989   24.7126 C   0  0  0  0  0  0  0  0  0  0  0  0
  -21.9706  -27.7666   22.0390 C   0  0  0  0  0  0  0  0  0  0  0  0
  -21.0243  -25.1633   20.3508 C   0  0  0  0  0  0  0  0  0  0  0  0
  -21.6498  -22.1494   18.4686 C   0  0  0  0  0  0  0  0  0  0  0  0
  -29.1116  -22.1013   19.5879 C   0  0  0  0  0  0  0  0  0  0  0  0
  -19.7416  -31.7174   24.3799 C   0  0  0  0  0  0  0  0  0  0  0  0
  -22.7993  -28.3373   19.7274 C   0  0  0  0  0  0  0  0  0  0  0  0
  -23.5098  -25.5716   20.4963 C   0  0  0  0  0  0  0  0  0  0  0  0
  -19.3304  -30.2951   24.0082 C   0  0  0  0  0  0  0  0  0  0  0  0
  -25.6426  -22.3267   20.3571 C   0  0  0  0  0  0  0  0  0  0  0  0
  -20.4016  -29.2992   24.4413 C   0  0  0  0  0  0  0  0  0  0  0  0
  -25.3309  -20.9917   21.0357 C   0  0  0  0  0  0  0  0  0  0  0  0
  -26.6611  -22.1631   19.2310 C   0  0  0  0  0  0  0  0  0  0  0  0
  -27.6001  -20.1505   20.2995 C   0  0  0  0  0  0  0  0  0  0  0  0
  -21.7318  -29.5758   23.7303 C   0  0  1  0  0  0  0  0  0  0  0  0
  -21.8658  -27.4728   20.5691 C   0  0  1  0  0  0  0  0  0  0  0  0
  -26.6198  -20.2734   21.4786 C   0  0  2  0  0  0  0  0  0  0  0  0
  -28.7644  -26.4697   24.6332 C   0  0  0  0  0  0  0  0  0  0  0  0
  -20.0609  -20.5880   17.3134 C   0  0  0  0  0  0  0  0  0  0  0  0
  -31.3748  -28.2406   21.4859 C   0  0  0  0  0  0  0  0  0  0  0  0
  -21.1314  -23.5870   22.9611 C   0  0  0  0  0  0  0  0  0  0  0  0
  -21.0890  -21.4800   21.6093 C   0  0  0  0  0  0  0  0  0  0  0  0
  -19.1651  -23.0645   21.5068 C   0  0  0  0  0  0  0  0  0  0  0  0
  -23.0687  -22.4301   15.8866 C   0  0  0  0  0  0  0  0  0  0  0  0
  -31.5461  -21.8980   20.0250 C   0  0  0  0  0  0  0  0  0  0  0  0
  -29.2231  -27.2563   23.4103 C   0  0  0  0  0  0  0  0  0  0  0  0
  -29.1885  -27.7500   20.3003 C   0  0  0  0  0  0  0  0  0  1  0  0
  -21.3457  -23.6888   20.3901 C   0  0  1  0  0  0  0  0  0  0  0  0
  -21.0187  -21.7572   17.1449 C   0  0  2  0  0  0  0  0  0  0  0  0
  -30.3563  -27.1548   21.1050 C   0  0  2  0  0  0  0  0  0  0  0  0
  -29.9049  -26.3638   22.3600 C   0  0  1  0  0  0  0  0  0  0  0  0
  -20.7030  -22.9746   21.6125 C   0  0  0  0  0  0  0  0  0  0  0  0
  -26.3155  -17.8299   21.3397 N   0  0  0  0  0  0  0  0  0  0  0  0
  -31.1188  -23.8835   21.3949 N   0  0  0  0  0  0  0  0  0  0  0  0
  -26.3208  -18.9282   22.1142 N   0  0  0  0  0  0  0  0  0  0  0  0
  -22.1173  -26.0401   20.4011 N   0  0  0  0  0  0  0  0  0  0  0  0
  -27.8602  -21.4765   19.7173 N   0  0  0  0  0  0  0  0  0  0  0  0
  -26.0102  -19.6698   24.3422 N   0  0  0  0  0  0  0  0  0  0  0  0
  -33.7900  -21.5131   22.1165 N   0  0  0  0  0  0  0  0  0  0  0  0
  -25.3549  -15.2106   24.6275 N   0  0  0  0  0  0  0  0  0  0  0  0
  -31.0346  -25.6797   22.9604 N   0  0  0  0  0  0  0  0  0  0  0  0
  -21.6917  -29.0784   22.3718 N   0  0  0  0  0  0  0  0  0  0  0  0
  -20.9367  -23.1473   19.0987 N   0  0  0  0  0  0  0  0  0  0  0  0
  -30.1955  -21.3847   20.0802 N   0  0  0  0  0  0  0  0  0  0  0  0
  -22.0711  -21.3652   16.1652 N   0  3  0  0  0  0  0  0  0  0  0  0
  -25.3821  -17.1686   25.8208 O   0  0  0  0  0  0  0  0  0  0  0  0
  -22.2801  -26.8691   22.8139 O   0  0  0  0  0  0  0  0  0  0  0  0
  -19.8473  -25.5238   20.2709 O   0  0  0  0  0  0  0  0  0  0  0  0
  -22.6711  -21.6207   18.9022 O   0  0  0  0  0  0  0  0  0  0  0  0
  -29.2518  -23.2175   19.0768 O   0  0  0  0  0  0  0  0  0  0  0  0
  -25.6405  -11.5643   20.4253 O   0  0  0  0  0  0  0  0  0  0  0  0
  -28.2305  -26.7450   19.9709 O   0  0  0  0  0  0  0  0  0  1  0  0
  -21.3725   -8.5630   22.2086 F   0  0  0  0  0  0  0  0  0  0  0  0
  -23.8225  -10.4854   18.6439 F   0  0  0  0  0  0  0  0  0  0  0  0
  -32.9094  -23.7902   23.2570 S   0  0  0  0  0  0  0  0  0  0  0  0
  1  2  1  0  0  0  0
  1  5  2  0  0  0  0
  2  6  2  0  0  0  0
  3  8  2  0  0  0  0
  3 15  1  0  0  0  0
  4  9  1  0  0  0  0
  4 15  2  0  0  0  0
  5 17  1  0  0  0  0
  6 19  1  0  0  0  0
  7 10  2  0  0  0  0
  7 18  1  0  0  0  0
  8 21  1  0  0  0  0
  9 21  2  0  0  0  0
 10 22  1  0  0  0  0
 11 12  2  0  0  0  0
 11 23  1  0  0  0  0
 12 24  1  0  0  0  0
 13 20  1  0  0  0  0
 13 22  2  0  0  0  0
 14 24  2  0  0  0  0
 14 25  1  0  0  0  0
 15 26  1  0  0  0  0
 16 26  1  0  0  0  0
 16 28  2  0  0  0  0
 16 31  1  0  0  0  0
 17 19  2  0  0  0  0
 17 36  1  0  0  0  0
 18 20  2  0  0  0  0
 18 37  1  0  0  0  0
 19 45  1  0  0  0  0
 20 38  1  0  0  0  0
 21 81  1  0  0  0  0
 22 82  1  0  0  0  0
 23 25  2  0  0  0  0
 23 81  1  0  0  0  0
 24 83  1  0  0  0  0
 25 84  1  0  0  0  0
 26 63  2  0  0  0  0
 27 29  2  0  0  0  0
 27 55  1  0  0  0  0
 27 64  1  0  0  0  0
 28 65  1  0  0  0  0
 28 68  1  0  0  0  0
 29 69  1  0  0  0  0
 29 85  1  0  0  0  0
 30 64  2  0  0  0  0
 30 71  1  0  0  0  0
 30 85  1  0  0  0  0
 31 70  1  0  0  0  0
 31 76  2  0  0  0  0
 32 46  1  0  0  0  0
 32 72  1  0  0  0  0
 32 77  2  0  0  0  0
 33 58  1  0  0  0  0
 33 66  1  0  0  0  0
 33 78  2  0  0  0  0
 34 59  1  0  0  0  0
 34 73  1  0  0  0  0
 34 79  2  0  0  0  0
 35 67  1  0  0  0  0
 35 74  1  0  0  0  0
 35 80  2  0  0  0  0
 36 39  1  0  0  0  0
 37 46  1  0  0  0  0
 38 66  1  0  0  0  0
 39 41  1  0  0  0  0
 40 42  1  0  0  0  0
 40 43  1  0  0  0  0
 41 45  1  0  0  0  0
 42 47  1  0  0  0  0
 43 67  1  0  0  0  0
 44 47  1  0  0  0  0
 44 67  1  0  0  0  0
 45 72  1  0  0  0  0
 46 66  1  0  0  0  0
 47 65  1  0  0  0  0
 48 56  1  0  0  0  0
 49 59  1  0  0  0  0
 50 60  1  0  0  0  0
 51 62  1  0  0  0  0
 52 62  1  0  0  0  0
 53 62  1  0  0  0  0
 54 75  1  0  0  0  0
 55 74  1  0  0  0  0
 56 61  1  0  0  0  0
 57 60  1  0  0  0  0
 57 82  1  0  0  0  0
 58 62  1  0  0  0  0
 58 73  1  0  0  0  0
 59 75  1  0  0  0  0
 60 61  1  0  0  0  0
 61 71  1  0  0  0  0
 63 65  1  0  0  0  0
M  CHG  1  75   1
M  ISO  4  35 100  57 101  74 100  82 101
M  END
> <Batch ID>
0194

> <Smiles>
CCC(Nc1nc(C[100NH:0][100C:0](=O)N2CCCC(n3nc(-c4ccc(Oc5ccc(F)cc5F)cc4)c(C(N)=O)c3N)C2)c(N)s1)C(C)[101CH2:1][101O:1]c1ccc2c(c1)CN(C(=O)C(NC(=O)C(C)NC)C(C)(C)C)C(C(=O)NC1CCCc3ccccc31)C2

> <Shape>
0.192

> <Color>
0.081

> <Negative vol penalty>
0.000

$$$$

  -OEChem-04052305333D

 82 90  0     1  0  0  0  0  0999 V2000
  -16.5894  -29.5103   22.9916 C   0  0  0  0  0  0  0  0  0  0  0  0
  -17.7155  -29.9320   22.2920 C   0  0  0  0  0  0  0  0  0  0  0  0
  -26.3323  -12.8752   21.6087 C   0  0  0  0  0  0  0  0  0  0  0  0
  -25.7137  -13.8291   19.4770 C   0  0  0  0  0  0  0  0  0  0  0  0
  -16.6981  -28.4895   23.9351 C   0  0  0  0  0  0  0  0  0  0  0  0
  -18.9512  -29.3338   22.5362 C   0  0  0  0  0  0  0  0  0  0  0  0
  -25.0352  -27.5306   19.2120 C   0  0  0  0  0  0  0  0  0  0  0  0
  -25.0912  -12.2434   21.6862 C   0  0  0  0  0  0  0  0  0  0  0  0
  -24.4725  -13.1973   19.5545 C   0  0  0  0  0  0  0  0  0  0  0  0
  -26.4155  -27.6836   19.3343 C   0  0  0  0  0  0  0  0  0  0  0  0
  -22.2235  -10.0882   22.2750 C   0  0  0  0  0  0  0  0  0  0  0  0
  -22.1998   -8.7521   22.6750 C   0  0  0  0  0  0  0  0  0  0  0  0
  -26.4685  -25.8752   20.9300 C   0  0  0  0  0  0  0  0  0  0  0  0
  -23.5828   -8.1615   20.7841 C   0  0  0  0  0  0  0  0  0  0  0  0
  -26.6435  -13.6681   20.5041 C   0  0  0  0  0  0  0  0  0  0  0  0
  -29.1057  -13.8100   19.8521 C   0  0  0  0  0  0  0  0  0  0  0  0
  -17.9339  -27.8719   24.1841 C   0  0  0  0  0  0  0  0  0  0  0  0
  -24.3585  -26.5543   19.9572 C   0  0  0  0  0  0  0  0  0  0  0  0
  -19.0768  -28.3047   23.4848 C   0  0  0  0  0  0  0  0  0  0  0  0
  -25.0799  -25.7102   20.8134 C   0  0  0  0  0  0  0  0  0  0  0  0
  -24.1613  -12.4044   20.6591 C   0  0  0  0  0  0  0  0  0  0  0  0
  -27.1320  -26.8578   20.1955 C   0  0  0  0  0  0  0  0  0  0  0  0
  -22.9269  -10.4609   21.1296 C   0  0  0  0  0  0  0  0  0  0  0  0
  -22.8794   -7.7888   21.9295 C   0  0  0  0  0  0  0  0  0  0  0  0
  -23.6066   -9.4976   20.3841 C   0  0  0  0  0  0  0  0  0  0  0  0
  -27.9253  -14.3214   20.4238 C   0  0  0  0  0  0  0  0  0  0  0  0
  -30.0329  -14.8079   20.0286 C   0  0  0  0  0  0  0  0  0  0  0  0
  -29.0192  -21.6106   18.4029 C   0  0  0  0  0  0  0  0  0  0  0  0
  -29.4573  -23.6437   17.6832 C   0  0  0  0  0  0  0  0  0  0  0  0
  -29.3429  -12.5461   19.2182 C   0  0  0  0  0  0  0  0  0  0  0  0
  -22.0857  -26.6036   22.1788 C   0  0  0  0  0  0  0  0  0  0  0  0
  -22.2240  -23.3809   21.8363 C   0  0  0  0  0  0  0  0  0  0  0  0
  -24.0354  -20.6409   20.9099 C   0  0  0  0  0  0  0  0  0  0  0  0
  -29.5812  -20.7288   20.6948 C   0  0  0  0  0  0  0  0  0  0  0  0
  -18.0111  -26.8050   25.2472 C   0  0  0  0  0  0  0  0  0  0  0  0
  -22.8729  -26.3843   19.7938 C   0  0  0  0  0  0  0  0  0  0  0  0
  -24.4035  -24.6333   21.6203 C   0  0  0  0  0  0  0  0  0  0  0  0
  -19.2851  -25.9668   25.1776 C   0  0  0  0  0  0  0  0  0  0  0  0
  -31.1119  -18.4423   22.9545 C   0  0  0  0  0  0  0  0  0  0  0  0
  -20.5066  -26.8651   25.0108 C   0  0  0  0  0  0  0  0  0  0  0  0
  -30.5806  -17.0790   22.5061 C   0  0  0  0  0  0  0  0  0  0  0  0
  -30.0525  -19.5351   22.8227 C   0  0  0  0  0  0  0  0  0  0  0  0
  -28.8971  -18.2748   21.0491 C   0  0  0  0  0  0  0  0  0  0  0  0
  -20.4299  -27.6635   23.7039 C   0  0  1  0  0  0  0  0  0  0  0  0
  -22.2153  -25.6978   20.9870 C   0  0  1  0  0  0  0  0  0  0  0  0
  -29.9485  -17.1543   21.1024 C   0  0  2  0  0  0  0  0  0  0  0  0
  -23.8950  -18.1388   20.7789 C   0  0  0  0  0  0  0  0  0  0  0  0
  -32.0020  -24.7984   19.1800 C   0  0  0  0  0  0  0  0  0  0  0  0
  -22.6266  -23.2027   24.8556 C   0  0  0  0  0  0  0  0  0  0  0  0
  -23.4155  -20.8475   24.5412 C   0  0  0  0  0  0  0  0  0  0  0  0
  -21.0870  -21.4765   23.9048 C   0  0  0  0  0  0  0  0  0  0  0  0
  -24.4074  -20.6577   17.9739 C   0  0  0  0  0  0  0  0  0  0  0  0
  -30.5889  -26.8837   19.1781 C   0  0  0  0  0  0  0  0  0  0  0  0
  -29.1864  -27.4834   19.1736 C   0  0  0  0  0  0  0  0  0  1  0  0
  -23.0187  -22.2705   22.4800 C   0  0  1  0  0  0  0  0  0  0  0  0
  -23.6846  -19.4495   20.0370 C   0  0  2  0  0  0  0  0  0  0  0  0
  -30.5827  -25.3533   19.1102 C   0  0  1  0  0  0  0  0  0  0  0  0
  -22.5497  -21.9708   23.9318 C   0  0  0  0  0  0  0  0  0  0  0  0
  -28.0852  -15.5487   20.9260 N   0  0  0  0  0  0  0  0  0  0  0  0
  -29.5449  -22.7942   18.7015 N   0  0  0  0  0  0  0  0  0  0  0  0
  -28.4589  -21.2713   17.2296 N   0  0  0  0  0  0  0  0  0  0  0  0
  -28.9133  -23.3807   16.4830 N   0  0  0  0  0  0  0  0  0  0  0  0
  -28.4277  -22.1849   16.3006 N   0  0  0  0  0  0  0  0  0  0  0  0
  -29.3771  -15.8168   20.6706 N   0  0  0  0  0  0  0  0  0  0  0  0
  -22.9486  -24.5106   21.4308 N   0  0  0  0  0  0  0  0  0  0  0  0
  -29.5015  -19.5498   21.4659 N   0  0  0  0  0  0  0  0  0  0  0  0
  -31.3371  -14.9119   19.6959 N   0  0  0  0  0  0  0  0  0  0  0  0
  -28.2802  -11.6376   19.1209 N   0  0  0  0  0  0  0  0  0  0  0  0
  -29.0534  -20.6137   19.4092 N   0  0  0  0  0  0  0  0  0  0  0  0
  -29.9691  -24.9147   17.8741 N   0  0  0  0  0  0  0  0  0  0  0  0
  -20.7814  -26.8250   22.5780 N   0  0  0  0  0  0  0  0  0  0  0  0
  -22.9311  -21.1287   21.5760 N   0  0  0  0  0  0  0  0  0  0  0  0
  -24.5329  -19.4374   18.8118 N   0  3  0  0  0  0  0  0  0  0  0  0
  -30.4683  -12.2252   18.7665 O   0  0  0  0  0  0  0  0  0  0  0  0
  -23.0943  -27.0661   22.6987 O   0  0  0  0  0  0  0  0  0  0  0  0
  -21.0062  -23.2477   21.6919 O   0  0  0  0  0  0  0  0  0  0  0  0
  -25.1757  -21.0913   20.9953 O   0  0  0  0  0  0  0  0  0  0  0  0
  -30.1053  -21.7563   21.1325 O   0  0  0  0  0  0  0  0  0  0  0  0
  -22.9501  -11.7879   20.7343 O   0  0  0  0  0  0  0  0  0  0  0  0
  -28.4794  -27.0055   20.3173 O   0  0  0  0  0  0  0  0  0  1  0  0
  -22.8578   -6.5060   22.3146 F   0  0  0  0  0  0  0  0  0  0  0  0
  -24.2850   -9.8498   19.2835 F   0  0  0  0  0  0  0  0  0  0  0  0
  1  2  1  0  0  0  0
  1  5  2  0  0  0  0
  2  6  2  0  0  0  0
  3  8  2  0  0  0  0
  3 15  1  0  0  0  0
  4  9  1  0  0  0  0
  4 15  2  0  0  0  0
  5 17  1  0  0  0  0
  6 19  1  0  0  0  0
  7 10  2  0  0  0  0
  7 18  1  0  0  0  0
  8 21  1  0  0  0  0
  9 21  2  0  0  0  0
 10 22  1  0  0  0  0
 11 12  2  0  0  0  0
 11 23  1  0  0  0  0
 12 24  1  0  0  0  0
 13 20  1  0  0  0  0
 13 22  2  0  0  0  0
 14 24  2  0  0  0  0
 14 25  1  0  0  0  0
 15 26  1  0  0  0  0
 16 26  1  0  0  0  0
 16 27  2  0  0  0  0
 16 30  1  0  0  0  0
 17 19  2  0  0  0  0
 17 35  1  0  0  0  0
 18 20  2  0  0  0  0
 18 36  1  0  0  0  0
 19 44  1  0  0  0  0
 20 37  1  0  0  0  0
 21 79  1  0  0  0  0
 22 80  1  0  0  0  0
 23 25  2  0  0  0  0
 23 79  1  0  0  0  0
 24 81  1  0  0  0  0
 25 82  1  0  0  0  0
 26 59  2  0  0  0  0
 27 64  1  0  0  0  0
 27 67  1  0  0  0  0
 28 60  1  0  0  0  0
 28 61  2  0  0  0  0
 28 69  1  0  0  0  0
 29 60  2  0  0  0  0
 29 62  1  0  0  0  0
 29 70  1  0  0  0  0
 30 68  1  0  0  0  0
 30 74  2  0  0  0  0
 31 45  1  0  0  0  0
 31 71  1  0  0  0  0
 31 75  2  0  0  0  0
 32 55  1  0  0  0  0
 32 65  1  0  0  0  0
 32 76  2  0  0  0  0
 33 56  1  0  0  0  0
 33 72  1  0  0  0  0
 33 77  2  0  0  0  0
 34 66  1  0  0  0  0
 34 69  1  0  0  0  0
 34 78  2  0  0  0  0
 35 38  1  0  0  0  0
 36 45  1  0  0  0  0
 37 65  1  0  0  0  0
 38 40  1  0  0  0  0
 39 41  1  0  0  0  0
 39 42  1  0  0  0  0
 40 44  1  0  0  0  0
 41 46  1  0  0  0  0
 42 66  1  0  0  0  0
 43 46  1  0  0  0  0
 43 66  1  0  0  0  0
 44 71  1  0  0  0  0
 45 65  1  0  0  0  0
 46 64  1  0  0  0  0
 47 56  1  0  0  0  0
 48 57  1  0  0  0  0
 49 58  1  0  0  0  0
 50 58  1  0  0  0  0
 51 58  1  0  0  0  0
 52 73  1  0  0  0  0
 53 54  1  0  0  0  0
 53 57  1  0  0  0  0
 54 80  1  0  0  0  0
 55 58  1  0  0  0  0
 55 72  1  0  0  0  0
 56 73  1  0  0  0  0
 57 70  1  0  0  0  0
 59 64  1  0  0  0  0
 61 63  1  0  0  0  0
 62 63  2  0  0  0  0
M  CHG  1  73   1
M  ISO  4  34 100  54 101  69 100  80 101
M  END
> <Batch ID>
0194

> <Smiles>
CNC(C)C(=O)NC(C(=O)N1Cc2cc([101O:1][101CH2:1]CC(C)Nc3nnnc([100NH:0][100C:0](=O)N4CCCC(n5nc(-c6ccc(Oc7ccc(F)cc7F)cc6)c(C(N)=O)c5N)C4)n3)ccc2CC1C(=O)NC1CCCc2ccccc21)C(C)(C)C

> <Shape>
0.278

> <Color>
0.087

> <Negative vol penalty>
0.000

$$$$

  -OEChem-04052305333D

 86 94  0     1  0  0  0  0  0999 V2000
  -19.4855  -30.8561   20.7607 C   0  0  0  0  0  0  0  0  0  0  0  0
  -20.6528  -30.2943   21.2678 C   0  0  0  0  0  0  0  0  0  0  0  0
  -24.4171  -14.1007   20.7881 C   0  0  0  0  0  0  0  0  0  0  0  0
  -26.7823  -13.6455   20.5989 C   0  0  0  0  0  0  0  0  0  0  0  0
  -18.2468  -30.4585   21.2621 C   0  0  0  0  0  0  0  0  0  0  0  0
  -20.5821  -29.3352   22.2776 C   0  0  0  0  0  0  0  0  0  0  0  0
  -23.6407  -25.3898   21.4270 C   0  0  0  0  0  0  0  0  0  0  0  0
  -24.1354  -12.7770   20.4505 C   0  0  0  0  0  0  0  0  0  0  0  0
  -26.5005  -12.3218   20.2613 C   0  0  0  0  0  0  0  0  0  0  0  0
  -24.9968  -25.5653   21.6986 C   0  0  0  0  0  0  0  0  0  0  0  0
  -22.8038   -9.4258   19.9911 C   0  0  0  0  0  0  0  0  0  0  0  0
  -21.8419   -8.7546   20.7460 C   0  0  0  0  0  0  0  0  0  0  0  0
  -24.7170  -24.4216   23.8041 C   0  0  0  0  0  0  0  0  0  0  0  0
  -23.1700   -9.0900   22.7362 C   0  0  0  0  0  0  0  0  0  0  0  0
  -31.0120  -22.3166   22.6120 C   0  0  0  0  0  0  0  0  0  0  0  0
  -25.7406  -14.5350   20.8623 C   0  0  0  0  0  0  0  0  0  0  0  0
  -26.2366  -16.4260   22.5011 C   0  0  0  0  0  0  0  0  0  0  0  0
  -18.1604  -29.4870   22.2718 C   0  0  0  0  0  0  0  0  0  0  0  0
  -22.8089  -24.7374   22.3483 C   0  0  0  0  0  0  0  0  0  0  0  0
  -19.3411  -28.9252   22.7939 C   0  0  0  0  0  0  0  0  0  0  0  0
  -23.3512  -24.2368   23.5406 C   0  0  0  0  0  0  0  0  0  0  0  0
  -25.1770  -11.8875   20.1871 C   0  0  0  0  0  0  0  0  0  0  0  0
  -25.5346  -25.0838   22.8886 C   0  0  0  0  0  0  0  0  0  0  0  0
  -23.9488   -9.9289   20.6087 C   0  0  0  0  0  0  0  0  0  0  0  0
  -22.0250   -8.5867   22.1186 C   0  0  0  0  0  0  0  0  0  0  0  0
  -24.1319   -9.7611   21.9812 C   0  0  0  0  0  0  0  0  0  0  0  0
  -26.0323  -15.9024   21.2104 C   0  0  0  0  0  0  0  0  0  0  0  0
  -31.4425  -24.7260   21.5459 C   0  0  0  0  0  0  0  0  0  0  0  0
  -30.4500  -22.6704   21.4052 C   0  0  0  0  0  0  0  0  0  0  0  0
  -32.0037  -24.3723   22.7531 C   0  0  0  0  0  0  0  0  0  0  0  0
  -26.4781  -17.7623   22.2953 C   0  0  0  0  0  0  0  0  0  0  0  0
  -26.2104  -15.7636   23.7724 C   0  0  0  0  0  0  0  0  0  0  0  0
  -20.2537  -25.5705   24.0455 C   0  0  0  0  0  0  0  0  0  0  0  0
  -20.2457  -22.4279   24.8492 C   0  0  0  0  0  0  0  0  0  0  0  0
  -22.0022  -19.5231   25.2017 C   0  0  0  0  0  0  0  0  0  0  0  0
  -28.9785  -21.8886   19.5159 C   0  0  0  0  0  0  0  0  0  0  0  0
  -16.8012  -29.1236   22.8152 C   0  0  0  0  0  0  0  0  0  0  0  0
  -21.3535  -24.5324   22.0284 C   0  0  0  0  0  0  0  0  0  0  0  0
  -22.5049  -23.5114   24.5536 C   0  0  0  0  0  0  0  0  0  0  0  0
  -16.7947  -27.8286   23.6234 C   0  0  0  0  0  0  0  0  0  0  0  0
  -25.9589  -20.6013   18.1368 C   0  0  0  0  0  0  0  0  0  0  0  0
  -17.9599  -27.8077   24.6076 C   0  0  0  0  0  0  0  0  0  0  0  0
  -25.7256  -19.3071   18.9197 C   0  0  0  0  0  0  0  0  0  0  0  0
  -27.4432  -20.8409   17.8666 C   0  0  0  0  0  0  0  0  0  0  0  0
  -28.0722  -19.5030   19.8373 C   0  0  0  0  0  0  0  0  0  0  0  0
  -19.3043  -27.8639   23.8721 C   0  0  1  0  0  0  0  0  0  0  0  0
  -20.4950  -24.3069   23.2692 C   0  0  1  0  0  0  0  0  0  0  0  0
  -26.5970  -19.2519   20.1898 C   0  0  2  0  0  0  0  0  0  0  0  0
  -32.8808  -26.1065   19.9909 C   0  0  0  0  0  0  0  0  0  0  0  0
  -21.7322  -17.1318   25.9131 C   0  0  0  0  0  0  0  0  0  0  0  0
  -28.4954  -27.9710   20.1506 C   0  0  0  0  0  0  0  0  0  0  0  0
  -28.0008  -27.2811   23.7455 C   0  0  0  0  0  0  0  0  0  0  0  0
  -20.2090  -23.3040   27.7717 C   0  0  0  0  0  0  0  0  0  0  0  0
  -20.8920  -20.9799   28.4046 C   0  0  0  0  0  0  0  0  0  0  0  0
  -18.7177  -21.3669   27.2446 C   0  0  0  0  0  0  0  0  0  0  0  0
  -22.7831  -18.5187   22.5296 C   0  0  0  0  0  0  0  0  0  0  0  0
  -28.6373  -25.9687   21.6889 C   0  0  0  0  0  0  0  0  0  0  0  0
  -31.6751  -26.0850   20.9270 C   0  0  1  0  0  0  0  0  0  0  0  0
  -20.8744  -21.6034   25.9465 C   0  0  1  0  0  0  0  0  0  0  0  0
  -21.7068  -18.1057   24.7454 C   0  0  2  0  0  0  0  0  0  0  0  0
  -29.4057  -27.1233   21.0304 C   0  0  1  0  0  0  0  0  0  0  0  0
  -27.4885  -26.4097   22.6053 C   0  0  1  0  0  0  0  0  0  1  0  0
  -20.1891  -21.8289   27.3239 C   0  0  0  0  0  0  0  0  0  0  0  0
  -31.7989  -23.1611   23.3077 N   0  0  0  0  0  0  0  0  0  0  0  0
  -26.1350  -16.8304   20.2553 N   0  0  0  0  0  0  0  0  0  0  0  0
  -30.6552  -23.8815   20.8504 N   0  0  0  0  0  0  0  0  0  0  0  0
  -26.4063  -17.9507   20.9464 N   0  0  0  0  0  0  0  0  0  0  0  0
  -21.0864  -23.3416   24.1979 N   0  0  0  0  0  0  0  0  0  0  0  0
  -28.2053  -20.7783   19.1156 N   0  0  0  0  0  0  0  0  0  0  0  0
  -32.8201  -25.3027   23.4344 N   0  0  0  0  0  0  0  0  0  0  0  0
  -26.7427  -18.7829   23.1384 N   0  0  0  0  0  0  0  0  0  0  0  0
  -25.9472  -14.3873   23.8034 N   0  0  0  0  0  0  0  0  0  0  0  0
  -29.6331  -21.7255   20.7363 N   0  0  0  0  0  0  0  0  0  0  0  0
  -19.6320  -26.5676   23.3183 N   0  0  0  0  0  0  0  0  0  0  0  0
  -20.8464  -20.2199   25.4846 N   0  0  0  0  0  0  0  0  0  0  0  0
  -22.7165  -17.6634   23.7424 N   0  3  0  0  0  0  0  0  0  0  0  0
  -30.4954  -26.5806   20.1717 N   0  3  0  0  0  0  0  0  0  0  0  0
  -26.3980  -16.3772   24.8503 O   0  0  0  0  0  0  0  0  0  0  0  0
  -20.6041  -25.6356   25.2180 O   0  0  0  0  0  0  0  0  0  0  0  0
  -19.0545  -22.2621   24.5751 O   0  0  0  0  0  0  0  0  0  0  0  0
  -23.1441  -19.9666   25.3010 O   0  0  0  0  0  0  0  0  0  0  0  0
  -29.0326  -22.9192   18.8400 O   0  0  0  0  0  0  0  0  0  0  0  0
  -24.9025  -10.5957   19.8579 O   0  0  0  0  0  0  0  0  0  0  0  0
  -26.8579  -25.2543   23.1565 O   0  0  0  0  0  0  0  0  0  1  0  0
  -21.1004   -7.9436   22.8437 F   0  0  0  0  0  0  0  0  0  0  0  0
  -25.2293  -10.2433   22.5803 F   0  0  0  0  0  0  0  0  0  0  0  0
  1  2  1  0  0  0  0
  1  5  2  0  0  0  0
  2  6  2  0  0  0  0
  3  8  2  0  0  0  0
  3 16  1  0  0  0  0
  4  9  1  0  0  0  0
  4 16  2  0  0  0  0
  5 18  1  0  0  0  0
  6 20  1  0  0  0  0
  7 10  2  0  0  0  0
  7 19  1  0  0  0  0
  8 22  1  0  0  0  0
  9 22  2  0  0  0  0
 10 23  1  0  0  0  0
 11 12  2  0  0  0  0
 11 24  1  0  0  0  0
 12 25  1  0  0  0  0
 13 21  1  0  0  0  0
 13 23  2  0  0  0  0
 14 25  2  0  0  0  0
 14 26  1  0  0  0  0
 15 29  1  0  0  0  0
 15 64  2  0  0  0  0
 16 27  1  0  0  0  0
 17 27  1  0  0  0  0
 17 31  2  0  0  0  0
 17 32  1  0  0  0  0
 18 20  2  0  0  0  0
 18 37  1  0  0  0  0
 19 21  2  0  0  0  0
 19 38  1  0  0  0  0
 20 46  1  0  0  0  0
 21 39  1  0  0  0  0
 22 83  1  0  0  0  0
 23 84  1  0  0  0  0
 24 26  2  0  0  0  0
 24 83  1  0  0  0  0
 25 85  1  0  0  0  0
 26 86  1  0  0  0  0
 27 65  2  0  0  0  0
 28 30  2  0  0  0  0
 28 58  1  0  0  0  0
 28 66  1  0  0  0  0
 29 66  2  0  0  0  0
 29 73  1  0  0  0  0
 30 64  1  0  0  0  0
 30 70  1  0  0  0  0
 31 67  1  0  0  0  0
 31 71  1  0  0  0  0
 32 72  1  0  0  0  0
 32 78  2  0  0  0  0
 33 47  1  0  0  0  0
 33 74  1  0  0  0  0
 33 79  2  0  0  0  0
 34 59  1  0  0  0  0
 34 68  1  0  0  0  0
 34 80  2  0  0  0  0
 35 60  1  0  0  0  0
 35 75  1  0  0  0  0
 35 81  2  0  0  0  0
 36 69  1  0  0  0  0
 36 73  1  0  0  0  0
 36 82  2  0  0  0  0
 37 40  1  0  0  0  0
 38 47  1  0  0  0  0
 39 68  1  0  0  0  0
 40 42  1  0  0  0  0
 41 43  1  0  0  0  0
 41 44  1  0  0  0  0
 42 46  1  0  0  0  0
 43 48  1  0  0  0  0
 44 69  1  0  0  0  0
 45 48  1  0  0  0  0
 45 69  1  0  0  0  0
 46 74  1  0  0  0  0
 47 68  1  0  0  0  0
 48 67  1  0  0  0  0
 49 58  1  0  0  0  0
 50 60  1  0  0  0  0
 51 61  1  0  0  0  0
 52 62  1  0  0  0  0
 53 63  1  0  0  0  0
 54 63  1  0  0  0  0
 55 63  1  0  0  0  0
 56 76  1  0  0  0  0
 57 61  1  0  0  0  0
 57 62  1  0  0  0  0
 58 77  1  0  0  0  0
 59 63  1  0  0  0  0
 59 75  1  0  0  0  0
 60 76  1  0  0  0  0
 61 77  1  0  0  0  0
 62 84  1  0  0  0  0
 65 67  1  0  0  0  0
M  CHG  2  76   1  77   1
M  ISO  4  36 100  62 101  73 100  84 101
M  END
> <Batch ID>
0194

> <Smiles>
CNC(C)C(=O)NC(C(=O)N1Cc2cc([101O:1][101CH:1](C)CC(C)NC(C)c3nc([100NH:0][100C:0](=O)N4CCCC(n5nc(-c6ccc(Oc7ccc(F)cc7F)cc6)c(C(N)=O)c5N)C4)cnc3N)ccc2CC1C(=O)NC1CCCc2ccccc21)C(C)(C)C

> <Shape>
0.181

> <Color>
0.056

> <Negative vol penalty>
0.000

$$$$
