
  -OEChem-04052305363D

 83 91  0     1  0  0  0  0  0999 V2000
  -21.5573  -12.6479   19.7077 C   0  0  0  0  0  0  0  0  0  0  0  0
  -21.6051  -13.8626   20.3841 C   0  0  0  0  0  0  0  0  0  0  0  0
  -30.1841  -28.2844   21.5164 C   0  0  0  0  0  0  0  0  0  0  0  0
  -29.0008  -26.2255   21.9611 C   0  0  0  0  0  0  0  0  0  0  0  0
  -22.7185  -11.8923   19.5510 C   0  0  0  0  0  0  0  0  0  0  0  0
  -22.8142  -14.3220   20.9052 C   0  0  0  0  0  0  0  0  0  0  0  0
  -23.6012  -19.2323   19.9490 C   0  0  0  0  0  0  0  0  0  0  0  0
  -31.2525  -27.8384   22.2944 C   0  0  0  0  0  0  0  0  0  0  0  0
  -30.0692  -25.7795   22.7391 C   0  0  0  0  0  0  0  0  0  0  0  0
  -22.9178  -20.1530   20.7421 C   0  0  0  0  0  0  0  0  0  0  0  0
  -31.2629  -26.2922   25.8605 C   0  0  0  0  0  0  0  0  0  0  0  0
  -30.9679  -25.7040   27.0903 C   0  0  0  0  0  0  0  0  0  0  0  0
  -24.9050  -20.4734   22.0717 C   0  0  0  0  0  0  0  0  0  0  0  0
  -32.0364  -23.6606   26.3692 C   0  0  0  0  0  0  0  0  0  0  0  0
  -29.0582  -27.4780   21.3498 C   0  0  0  0  0  0  0  0  0  0  0  0
  -27.7696  -27.7456   19.1645 C   0  0  0  0  0  0  0  0  0  0  0  0
  -23.9443  -12.3473   20.0621 C   0  0  0  0  0  0  0  0  0  0  0  0
  -24.9407  -18.9166   20.2183 C   0  0  0  0  0  0  0  0  0  0  0  0
  -23.9927  -13.5712   20.7564 C   0  0  0  0  0  0  0  0  0  0  0  0
  -25.6039  -19.5503   21.2789 C   0  0  0  0  0  0  0  0  0  0  0  0
  -31.1950  -26.5860   22.9057 C   0  0  0  0  0  0  0  0  0  0  0  0
  -23.5688  -20.7715   21.8055 C   0  0  0  0  0  0  0  0  0  0  0  0
  -31.9446  -25.5647   24.8849 C   0  0  0  0  0  0  0  0  0  0  0  0
  -31.3547  -24.3882   27.3447 C   0  0  0  0  0  0  0  0  0  0  0  0
  -32.3314  -24.2489   25.1394 C   0  0  0  0  0  0  0  0  0  0  0  0
  -27.9540  -27.9383   20.5467 C   0  0  0  0  0  0  0  0  0  0  0  0
  -26.5780  -28.3695   18.8867 C   0  0  0  0  0  0  0  0  0  0  0  0
  -20.6087  -26.1358   22.6653 C   0  0  0  0  0  0  0  0  0  0  0  0
  -20.2768  -24.1459   21.6819 C   0  0  0  0  0  0  0  0  0  0  0  0
  -21.3192  -24.2569   23.6664 C   0  0  0  0  0  0  0  0  0  0  0  0
  -28.6012  -27.0634   18.2164 C   0  0  0  0  0  0  0  0  0  0  0  0
  -26.5015  -16.2698   21.0320 C   0  0  0  0  0  0  0  0  0  0  0  0
  -29.1113  -18.1589   20.6540 C   0  0  0  0  0  0  0  0  0  0  0  0
  -30.4277  -21.3073   20.6148 C   0  0  0  0  0  0  0  0  0  0  0  0
  -21.7835  -29.6754   22.2272 C   0  0  0  0  0  0  0  0  0  0  0  0
  -25.1638  -11.4732   19.9091 C   0  0  0  0  0  0  0  0  0  0  0  0
  -25.6716  -17.9413   19.3369 C   0  0  0  0  0  0  0  0  0  0  0  0
  -27.0473  -19.2613   21.5974 C   0  0  0  0  0  0  0  0  0  0  0  0
  -26.4766  -12.2091   20.1649 C   0  0  0  0  0  0  0  0  0  0  0  0
  -23.7946  -31.9620   20.3823 C   0  0  0  0  0  0  0  0  0  0  0  0
  -26.3810  -13.0445   21.4377 C   0  0  0  0  0  0  0  0  0  0  0  0
  -25.0720  -31.1727   20.0905 C   0  0  0  0  0  0  0  0  0  0  0  0
  -23.2300  -31.6319   21.7623 C   0  0  0  0  0  0  0  0  0  0  0  0
  -24.2873  -29.4061   21.7222 C   0  0  0  0  0  0  0  0  0  0  0  0
  -25.2900  -14.1150   21.3144 C   0  0  1  0  0  0  0  0  0  0  0  0
  -26.8825  -17.3115   20.0183 C   0  0  1  0  0  0  0  0  0  0  0  0
  -24.8632  -29.6636   20.3192 C   0  0  2  0  0  0  0  0  0  0  0  0
  -32.5980  -22.5314   20.3166 C   0  0  0  0  0  0  0  0  0  0  0  0
  -22.3457  -21.8121   26.2725 C   0  0  0  0  0  0  0  0  0  0  0  0
  -29.9581  -17.3382   23.4681 C   0  0  0  0  0  0  0  0  0  0  0  0
  -31.5545  -19.2668   23.4749 C   0  0  0  0  0  0  0  0  0  0  0  0
  -31.8225  -17.4341   21.8039 C   0  0  0  0  0  0  0  0  0  0  0  0
  -29.4138  -22.7651   18.2471 C   0  0  0  0  0  0  0  0  0  0  0  0
  -20.4624  -27.6194   22.6592 C   0  0  0  0  0  0  0  0  0  0  0  0
  -23.3080  -21.7738   23.9463 C   0  0  0  0  0  0  0  0  0  1  0  0
  -29.9110  -19.0699   21.5537 C   0  0  1  0  0  0  0  0  0  0  0  0
  -31.3497  -22.0014   19.6285 C   0  0  2  0  0  0  0  0  0  0  0  0
  -22.1237  -22.1929   24.8146 C   0  0  2  0  0  0  0  0  0  0  0  0
  -30.7837  -18.2815   22.5706 C   0  0  0  0  0  0  0  0  0  0  0  0
  -26.9592  -28.6307   21.1080 N   0  0  0  0  0  0  0  0  0  0  0  0
  -20.1102  -25.4761   21.6071 N   0  0  0  0  0  0  0  0  0  0  0  0
  -21.2246  -25.5949   23.7289 N   0  0  0  0  0  0  0  0  0  0  0  0
  -20.8699  -23.4675   22.6775 N   0  0  0  0  0  0  0  0  0  0  0  0
  -26.1383  -28.8785   20.0732 N   0  0  0  0  0  0  0  0  0  0  0  0
  -27.7170  -18.2957   20.7105 N   0  0  0  0  0  0  0  0  0  0  0  0
  -23.0542  -30.1856   21.9141 N   0  0  0  0  0  0  0  0  0  0  0  0
  -25.8739  -28.5269   17.7457 N   0  0  0  0  0  0  0  0  0  0  0  0
  -19.7787  -23.3832   20.6031 N   0  0  0  0  0  0  0  0  0  0  0  0
  -29.7911  -26.4785   18.6705 N   0  0  0  0  0  0  0  0  0  0  0  0
  -21.9428  -23.6283   24.7283 N   0  0  0  0  0  0  0  0  0  0  0  0
  -25.7597  -15.2254   20.5139 N   0  0  0  0  0  0  0  0  0  0  0  0
  -30.6695  -19.9510   20.6723 N   0  0  0  0  0  0  0  0  0  0  0  0
  -21.7029  -28.2934   22.3469 N   0  0  0  0  0  0  0  0  0  0  0  0
  -30.6482  -23.1458   18.9809 N   0  3  0  0  0  0  0  0  0  0  0  0
  -28.3061  -26.9894   16.9994 O   0  0  0  0  0  0  0  0  0  0  0  0
  -26.8557  -16.4030   22.1975 O   0  0  0  0  0  0  0  0  0  0  0  0
  -29.7021  -17.3605   19.9225 O   0  0  0  0  0  0  0  0  0  0  0  0
  -29.5806  -21.9087   21.2714 O   0  0  0  0  0  0  0  0  0  0  0  0
  -20.7930  -30.3976   22.3830 O   0  0  0  0  0  0  0  0  0  0  0  0
  -32.2375  -26.1504   23.6648 O   0  0  0  0  0  0  0  0  0  0  0  0
  -22.9040  -21.6700   22.5817 O   0  0  0  0  0  0  0  0  0  1  0  0
  -31.0726  -23.8240   28.5263 F   0  0  0  0  0  0  0  0  0  0  0  0
  -32.9877  -23.5453   24.2066 F   0  0  0  0  0  0  0  0  0  0  0  0
  1  2  1  0  0  0  0
  1  5  2  0  0  0  0
  2  6  2  0  0  0  0
  3  8  2  0  0  0  0
  3 15  1  0  0  0  0
  4  9  1  0  0  0  0
  4 15  2  0  0  0  0
  5 17  1  0  0  0  0
  6 19  1  0  0  0  0
  7 10  2  0  0  0  0
  7 18  1  0  0  0  0
  8 21  1  0  0  0  0
  9 21  2  0  0  0  0
 10 22  1  0  0  0  0
 11 12  2  0  0  0  0
 11 23  1  0  0  0  0
 12 24  1  0  0  0  0
 13 20  1  0  0  0  0
 13 22  2  0  0  0  0
 14 24  2  0  0  0  0
 14 25  1  0  0  0  0
 15 26  1  0  0  0  0
 16 26  1  0  0  0  0
 16 27  2  0  0  0  0
 16 31  1  0  0  0  0
 17 19  2  0  0  0  0
 17 36  1  0  0  0  0
 18 20  2  0  0  0  0
 18 37  1  0  0  0  0
 19 45  1  0  0  0  0
 20 38  1  0  0  0  0
 21 80  1  0  0  0  0
 22 81  1  0  0  0  0
 23 25  2  0  0  0  0
 23 80  1  0  0  0  0
 24 82  1  0  0  0  0
 25 83  1  0  0  0  0
 26 60  2  0  0  0  0
 27 64  1  0  0  0  0
 27 67  1  0  0  0  0
 28 54  1  0  0  0  0
 28 61  2  0  0  0  0
 28 62  1  0  0  0  0
 29 61  1  0  0  0  0
 29 63  2  0  0  0  0
 29 68  1  0  0  0  0
 30 62  2  0  0  0  0
 30 63  1  0  0  0  0
 30 70  1  0  0  0  0
 31 69  1  0  0  0  0
 31 75  2  0  0  0  0
 32 46  1  0  0  0  0
 32 71  1  0  0  0  0
 32 76  2  0  0  0  0
 33 56  1  0  0  0  0
 33 65  1  0  0  0  0
 33 77  2  0  0  0  0
 34 57  1  0  0  0  0
 34 72  1  0  0  0  0
 34 78  2  0  0  0  0
 35 66  1  0  0  0  0
 35 73  1  0  0  0  0
 35 79  2  0  0  0  0
 36 39  1  0  0  0  0
 37 46  1  0  0  0  0
 38 65  1  0  0  0  0
 39 41  1  0  0  0  0
 40 42  1  0  0  0  0
 40 43  1  0  0  0  0
 41 45  1  0  0  0  0
 42 47  1  0  0  0  0
 43 66  1  0  0  0  0
 44 47  1  0  0  0  0
 44 66  1  0  0  0  0
 45 71  1  0  0  0  0
 46 65  1  0  0  0  0
 47 64  1  0  0  0  0
 48 57  1  0  0  0  0
 49 58  1  0  0  0  0
 50 59  1  0  0  0  0
 51 59  1  0  0  0  0
 52 59  1  0  0  0  0
 53 74  1  0  0  0  0
 54 73  1  0  0  0  0
 55 58  1  0  0  0  0
 55 81  1  0  0  0  0
 56 59  1  0  0  0  0
 56 72  1  0  0  0  0
 57 74  1  0  0  0  0
 58 70  1  0  0  0  0
 60 64  1  0  0  0  0
M  CHG  1  74   1
M  ISO  4  35 100  55 101  73 100  81 101
M  END
> <Batch ID>
0195

> <Smiles>
CNC(C)C(=O)NC(C(=O)N1Cc2cc([101O:1][101CH2:1]C(C)Nc3nc(N)nc(C[100NH:0][100C:0](=O)N4CCCC(n5nc(-c6ccc(Oc7ccc(F)cc7F)cc6)c(C(N)=O)c5N)C4)n3)ccc2CC1C(=O)NC1CCCc2ccccc21)C(C)(C)C

> <Shape>
0.217

> <Color>
0.063

> <Negative vol penalty>
0.000

$$$$

  -OEChem-04052305363D

 82 90  0     1  0  0  0  0  0999 V2000
  -21.9114  -11.3492   25.4065 C   0  0  0  0  0  0  0  0  0  0  0  0
  -22.8192  -12.2997   25.8624 C   0  0  0  0  0  0  0  0  0  0  0  0
  -23.0748   -9.8643   19.9417 C   0  0  0  0  0  0  0  0  0  0  0  0
  -23.8345   -9.8736   22.2351 C   0  0  0  0  0  0  0  0  0  0  0  0
  -21.7808  -10.1337   26.0769 C   0  0  0  0  0  0  0  0  0  0  0  0
  -23.5963  -12.0356   26.9897 C   0  0  0  0  0  0  0  0  0  0  0  0
  -28.4478  -13.3411   26.3544 C   0  0  0  0  0  0  0  0  0  0  0  0
  -22.3311   -8.7112   20.1926 C   0  0  0  0  0  0  0  0  0  0  0  0
  -23.0907   -8.7205   22.4861 C   0  0  0  0  0  0  0  0  0  0  0  0
  -28.7624  -14.6949   26.4637 C   0  0  0  0  0  0  0  0  0  0  0  0
  -21.1061   -5.9844   23.8251 C   0  0  0  0  0  0  0  0  0  0  0  0
  -20.3497   -5.9418   24.9963 C   0  0  0  0  0  0  0  0  0  0  0  0
  -29.5413  -14.3260   28.7167 C   0  0  0  0  0  0  0  0  0  0  0  0
  -19.1049   -7.8782   24.2627 C   0  0  0  0  0  0  0  0  0  0  0  0
  -29.9077  -17.8425   22.7074 C   0  0  0  0  0  0  0  0  0  0  0  0
  -31.8946  -18.6000   22.1286 C   0  0  0  0  0  0  0  0  0  0  0  0
  -23.8266  -10.4454   20.9629 C   0  0  0  0  0  0  0  0  0  0  0  0
  -24.1680  -12.9705   20.8405 C   0  0  0  0  0  0  0  0  0  0  0  0
  -22.5636   -9.8507   27.2073 C   0  0  0  0  0  0  0  0  0  0  0  0
  -28.6678  -12.4701   27.4312 C   0  0  0  0  0  0  0  0  0  0  0  0
  -23.4751  -10.8156   27.6766 C   0  0  0  0  0  0  0  0  0  0  0  0
  -29.2310  -12.9611   28.6177 C   0  0  0  0  0  0  0  0  0  0  0  0
  -22.3390   -8.1394   21.4648 C   0  0  0  0  0  0  0  0  0  0  0  0
  -29.3065  -15.1881   27.6459 C   0  0  0  0  0  0  0  0  0  0  0  0
  -20.8620   -6.9739   22.8728 C   0  0  0  0  0  0  0  0  0  0  0  0
  -19.3491   -6.8887   25.2151 C   0  0  0  0  0  0  0  0  0  0  0  0
  -19.8613   -7.9208   23.0916 C   0  0  0  0  0  0  0  0  0  0  0  0
  -24.5955  -11.6362   20.7041 C   0  0  0  0  0  0  0  0  0  0  0  0
  -30.5709  -16.9490   21.8997 C   0  0  0  0  0  0  0  0  0  0  0  0
  -25.2601  -13.7198   20.4766 C   0  0  0  0  0  0  0  0  0  0  0  0
  -22.8974  -13.4865   21.2588 C   0  0  0  0  0  0  0  0  0  0  0  0
  -26.8121  -10.6432   29.2539 C   0  0  0  0  0  0  0  0  0  0  0  0
  -29.6511   -9.6325   30.4542 C   0  0  0  0  0  0  0  0  0  0  0  0
  -32.9582  -10.2734   31.0016 C   0  0  0  0  0  0  0  0  0  0  0  0
  -30.7260  -14.7666   20.6509 C   0  0  0  0  0  0  0  0  0  0  0  0
  -22.3534   -8.5419   27.9267 C   0  0  0  0  0  0  0  0  0  0  0  0
  -28.3479  -11.0074   27.2881 C   0  0  0  0  0  0  0  0  0  0  0  0
  -29.5056  -12.0637   29.7958 C   0  0  0  0  0  0  0  0  0  0  0  0
  -23.4820   -8.1894   28.8922 C   0  0  0  0  0  0  0  0  0  0  0  0
  -29.6124  -12.3502   18.2850 C   0  0  0  0  0  0  0  0  0  0  0  0
  -23.8483   -9.3972   29.7489 C   0  0  0  0  0  0  0  0  0  0  0  0
  -28.1727  -12.0588   18.7147 C   0  0  0  0  0  0  0  0  0  0  0  0
  -30.5273  -12.5804   19.4865 C   0  0  0  0  0  0  0  0  0  0  0  0
  -28.6200  -13.3059   20.8668 C   0  0  0  0  0  0  0  0  0  0  0  0
  -24.3536  -10.5562   28.8813 C   0  0  1  0  0  0  0  0  0  0  0  0
  -28.1361  -10.3083   28.6274 C   0  0  1  0  0  0  0  0  0  0  0  0
  -27.6474  -13.1313   19.6890 C   0  0  2  0  0  0  0  0  0  0  0  0
  -35.0127   -9.2745   32.0399 C   0  0  0  0  0  0  0  0  0  0  0  0
  -32.4562  -20.1815   26.1202 C   0  0  0  0  0  0  0  0  0  0  0  0
  -28.5811  -10.3206   33.2276 C   0  0  0  0  0  0  0  0  0  0  0  0
  -30.9313  -10.2151   34.0842 C   0  0  0  0  0  0  0  0  0  0  0  0
  -29.8690   -8.1801   33.1078 C   0  0  0  0  0  0  0  0  0  0  0  0
  -34.4003  -10.2628   28.4172 C   0  0  0  0  0  0  0  0  0  0  0  0
  -30.9482  -18.3203   26.9216 C   0  0  0  0  0  0  0  0  0  0  0  0
  -29.9917  -17.1895   26.5592 C   0  0  0  0  0  0  0  0  0  1  0  0
  -30.5290  -20.1083   23.6099 C   0  0  0  0  0  0  0  0  0  0  0  0
  -30.5540  -10.0748   31.5804 C   0  0  1  0  0  0  0  0  0  0  0  0
  -34.1998   -9.4328   30.7645 C   0  0  2  0  0  0  0  0  0  0  0  0
  -31.4456  -19.1171   25.7140 C   0  0  1  0  0  0  0  0  0  0  0  0
  -29.9770   -9.7152   32.9786 C   0  0  0  0  0  0  0  0  0  0  0  0
  -31.8073  -17.4263   21.5431 N   0  0  0  0  0  0  0  0  0  0  0  0
  -25.8604  -11.5402   20.2861 N   0  0  0  0  0  0  0  0  0  0  0  0
  -30.7684  -18.8949   22.8455 N   0  0  0  0  0  0  0  0  0  0  0  0
  -26.2371  -12.8237   20.1565 N   0  0  0  0  0  0  0  0  0  0  0  0
  -29.1698  -10.6425   29.6091 N   0  0  0  0  0  0  0  0  0  0  0  0
  -29.9680  -13.6120   20.3628 N   0  0  0  0  0  0  0  0  0  0  0  0
  -25.4703  -15.0513   20.4024 N   0  0  0  0  0  0  0  0  0  0  0  0
  -21.8856  -12.5775   21.5968 N   0  0  0  0  0  0  0  0  0  0  0  0
  -30.0784  -15.6924   21.4683 N   0  0  0  0  0  0  0  0  0  0  0  0
  -25.7209  -10.3207   28.4698 N   0  0  0  0  0  0  0  0  0  0  0  0
  -31.8633   -9.4926   31.3065 N   0  0  0  0  0  0  0  0  0  0  0  0
  -35.0657  -10.0679   29.7311 N   0  3  0  0  0  0  0  0  0  0  0  0
  -30.2997  -19.8009   25.0523 N   0  3  0  0  0  0  0  0  0  0  0  0
  -22.6609  -14.7172   21.3149 O   0  0  0  0  0  0  0  0  0  0  0  0
  -26.7826  -11.1550   30.3670 O   0  0  0  0  0  0  0  0  0  0  0  0
  -29.3885   -8.4342   30.3247 O   0  0  0  0  0  0  0  0  0  0  0  0
  -32.9602  -11.5002   30.9277 O   0  0  0  0  0  0  0  0  0  0  0  0
  -31.8551  -14.9351   20.1833 O   0  0  0  0  0  0  0  0  0  0  0  0
  -21.6133   -7.0144   21.7102 O   0  0  0  0  0  0  0  0  0  0  0  0
  -29.6139  -16.5093   27.7554 O   0  0  0  0  0  0  0  0  0  1  0  0
  -18.6217   -6.8467   26.3391 F   0  0  0  0  0  0  0  0  0  0  0  0
  -19.6214   -8.8731   22.1797 F   0  0  0  0  0  0  0  0  0  0  0  0
  1  2  1  0  0  0  0
  1  5  2  0  0  0  0
  2  6  2  0  0  0  0
  3  8  2  0  0  0  0
  3 17  1  0  0  0  0
  4  9  1  0  0  0  0
  4 17  2  0  0  0  0
  5 19  1  0  0  0  0
  6 21  1  0  0  0  0
  7 10  2  0  0  0  0
  7 20  1  0  0  0  0
  8 23  1  0  0  0  0
  9 23  2  0  0  0  0
 10 24  1  0  0  0  0
 11 12  2  0  0  0  0
 11 25  1  0  0  0  0
 12 26  1  0  0  0  0
 13 22  1  0  0  0  0
 13 24  2  0  0  0  0
 14 26  2  0  0  0  0
 14 27  1  0  0  0  0
 15 29  2  0  0  0  0
 15 63  1  0  0  0  0
 16 61  2  0  0  0  0
 16 63  1  0  0  0  0
 17 28  1  0  0  0  0
 18 28  1  0  0  0  0
 18 30  2  0  0  0  0
 18 31  1  0  0  0  0
 19 21  2  0  0  0  0
 19 36  1  0  0  0  0
 20 22  2  0  0  0  0
 20 37  1  0  0  0  0
 21 45  1  0  0  0  0
 22 38  1  0  0  0  0
 23 79  1  0  0  0  0
 24 80  1  0  0  0  0
 25 27  2  0  0  0  0
 25 79  1  0  0  0  0
 26 81  1  0  0  0  0
 27 82  1  0  0  0  0
 28 62  2  0  0  0  0
 29 61  1  0  0  0  0
 29 69  1  0  0  0  0
 30 64  1  0  0  0  0
 30 67  1  0  0  0  0
 31 68  1  0  0  0  0
 31 74  2  0  0  0  0
 32 46  1  0  0  0  0
 32 70  1  0  0  0  0
 32 75  2  0  0  0  0
 33 57  1  0  0  0  0
 33 65  1  0  0  0  0
 33 76  2  0  0  0  0
 34 58  1  0  0  0  0
 34 71  1  0  0  0  0
 34 77  2  0  0  0  0
 35 66  1  0  0  0  0
 35 69  1  0  0  0  0
 35 78  2  0  0  0  0
 36 39  1  0  0  0  0
 37 46  1  0  0  0  0
 38 65  1  0  0  0  0
 39 41  1  0  0  0  0
 40 42  1  0  0  0  0
 40 43  1  0  0  0  0
 41 45  1  0  0  0  0
 42 47  1  0  0  0  0
 43 66  1  0  0  0  0
 44 47  1  0  0  0  0
 44 66  1  0  0  0  0
 45 70  1  0  0  0  0
 46 65  1  0  0  0  0
 47 64  1  0  0  0  0
 48 58  1  0  0  0  0
 49 59  1  0  0  0  0
 50 60  1  0  0  0  0
 51 60  1  0  0  0  0
 52 60  1  0  0  0  0
 53 72  1  0  0  0  0
 54 55  1  0  0  0  0
 54 59  1  0  0  0  0
 55 80  1  0  0  0  0
 56 63  1  0  0  0  0
 56 73  1  0  0  0  0
 57 60  1  0  0  0  0
 57 71  1  0  0  0  0
 58 72  1  0  0  0  0
 59 73  1  0  0  0  0
 62 64  1  0  0  0  0
M  CHG  2  72   1  73   1
M  ISO  4  35 100  55 101  69 100  80 101
M  END
> <Batch ID>
0195

> <Smiles>
CNC(C)C(=O)NC(C(=O)N1Cc2cc([101O:1][101CH2:1]CC(C)NCn3cnc([100NH:0][100C:0](=O)N4CCCC(n5nc(-c6ccc(Oc7ccc(F)cc7F)cc6)c(C(N)=O)c5N)C4)c3)ccc2CC1C(=O)NC1CCCc2ccccc21)C(C)(C)C

> <Shape>
0.165

> <Color>
0.179

> <Negative vol penalty>
0.000

$$$$

  -OEChem-04052305363D

 86 94  0     1  0  0  0  0  0999 V2000
  -28.0991  -32.9735   25.7622 C   0  0  0  0  0  0  0  0  0  0  0  0
  -28.6763  -31.8349   25.2089 C   0  0  0  0  0  0  0  0  0  0  0  0
  -23.0489  -10.1129   22.2566 C   0  0  0  0  0  0  0  0  0  0  0  0
  -23.7942   -9.5619   20.0255 C   0  0  0  0  0  0  0  0  0  0  0  0
  -26.7112  -33.0892   25.8263 C   0  0  0  0  0  0  0  0  0  0  0  0
  -27.8657  -30.8109   24.7204 C   0  0  0  0  0  0  0  0  0  0  0  0
  -28.9901  -27.2090   19.8968 C   0  0  0  0  0  0  0  0  0  0  0  0
  -22.3390   -8.9137   22.3158 C   0  0  0  0  0  0  0  0  0  0  0  0
  -23.0843   -8.3626   20.0846 C   0  0  0  0  0  0  0  0  0  0  0  0
  -29.5042  -25.9174   19.7901 C   0  0  0  0  0  0  0  0  0  0  0  0
  -20.6236   -5.8311   23.1931 C   0  0  0  0  0  0  0  0  0  0  0  0
  -20.7248   -5.0745   24.3605 C   0  0  0  0  0  0  0  0  0  0  0  0
  -27.2598  -25.0385   19.6933 C   0  0  0  0  0  0  0  0  0  0  0  0
  -23.1112   -4.8881   24.0330 C   0  0  0  0  0  0  0  0  0  0  0  0
  -23.7765  -10.4371   21.1115 C   0  0  0  0  0  0  0  0  0  0  0  0
  -25.8439  -11.8947   21.4411 C   0  0  0  0  0  0  0  0  0  0  0  0
  -25.8831  -32.0703   25.3295 C   0  0  0  0  0  0  0  0  0  0  0  0
  -27.6046  -27.4244   19.9134 C   0  0  0  0  0  0  0  0  0  0  0  0
  -26.4653  -30.9125   24.7791 C   0  0  0  0  0  0  0  0  0  0  0  0
  -26.7307  -26.3340   19.7976 C   0  0  0  0  0  0  0  0  0  0  0  0
  -22.3567   -8.0385   21.2298 C   0  0  0  0  0  0  0  0  0  0  0  0
  -28.6391  -24.8317   19.6913 C   0  0  0  0  0  0  0  0  0  0  0  0
  -21.7663   -6.1162   22.4456 C   0  0  0  0  0  0  0  0  0  0  0  0
  -21.9685   -4.6030   24.7805 C   0  0  0  0  0  0  0  0  0  0  0  0
  -23.0101   -5.6447   22.8656 C   0  0  0  0  0  0  0  0  0  0  0  0
  -24.5095  -11.6760   21.0496 C   0  0  0  0  0  0  0  0  0  0  0  0
  -29.4405  -19.5099   16.6925 C   0  0  0  0  0  0  0  0  0  0  0  0
  -26.0632  -13.2260   21.1846 C   0  0  0  0  0  0  0  0  0  0  0  0
  -30.3547  -18.4907   16.8587 C   0  0  0  0  0  0  0  0  0  0  0  0
  -28.0710  -17.9513   17.4031 C   0  0  0  0  0  0  0  0  0  0  0  0
  -26.7998  -10.9764   21.9877 C   0  0  0  0  0  0  0  0  0  0  0  0
  -25.5495  -28.6464   22.0080 C   0  0  0  0  0  0  0  0  0  0  0  0
  -30.3676  -20.9228   19.2973 C   0  0  0  0  0  0  0  0  0  0  0  0
  -23.4436  -28.2758   19.5688 C   0  0  0  0  0  0  0  0  0  0  0  0
  -22.6097  -26.6586   16.6816 C   0  0  0  0  0  0  0  0  0  0  0  0
  -25.6125  -17.6898   17.8869 C   0  0  0  0  0  0  0  0  0  0  0  0
  -24.3883  -32.2195   25.4637 C   0  0  0  0  0  0  0  0  0  0  0  0
  -27.0661  -28.8261   20.0021 C   0  0  0  0  0  0  0  0  0  0  0  0
  -25.2353  -26.5135   19.7903 C   0  0  0  0  0  0  0  0  0  0  0  0
  -23.5984  -31.2546   24.5833 C   0  0  0  0  0  0  0  0  0  0  0  0
  -22.8268  -16.9228   19.9675 C   0  0  0  0  0  0  0  0  0  0  0  0
  -24.1643  -29.8427   24.6973 C   0  0  0  0  0  0  0  0  0  0  0  0
  -23.1260  -15.5074   20.4667 C   0  0  0  0  0  0  0  0  0  0  0  0
  -23.2782  -17.1215   18.5216 C   0  0  0  0  0  0  0  0  0  0  0  0
  -24.9774  -15.3528   18.7534 C   0  0  0  0  0  0  0  0  0  0  0  0
  -25.6194  -29.7911   24.2161 C   0  0  1  0  0  0  0  0  0  0  0  0
  -25.6348  -28.8842   20.5269 C   0  0  1  0  0  0  0  0  0  0  0  0
  -24.5995  -15.1247   20.2260 C   0  0  2  0  0  0  0  0  0  0  0  0
  -31.3467  -19.2264   20.8500 C   0  0  0  0  0  0  0  0  0  0  0  0
  -28.9649  -21.2734   14.9442 C   0  0  0  0  0  0  0  0  0  0  0  0
  -20.8098  -26.5451   14.9366 C   0  0  0  0  0  0  0  0  0  0  0  0
  -21.6714  -26.7157   21.5016 C   0  0  0  0  0  0  0  0  0  0  0  0
  -20.4064  -25.8410   19.5260 C   0  0  0  0  0  0  0  0  0  0  0  0
  -20.4412  -28.2903   19.9976 C   0  0  0  0  0  0  0  0  0  0  0  0
  -24.4810  -27.4593   14.5331 C   0  0  0  0  0  0  0  0  0  0  0  0
  -31.6453  -20.3667   19.8962 C   0  0  0  0  0  0  0  0  0  0  0  0
  -30.4049  -23.4231   18.9472 C   0  0  0  0  0  0  0  0  0  1  0  0
  -29.7412  -20.9092   16.2072 C   0  0  1  0  0  0  0  0  0  0  0  0
  -30.5109  -22.0529   18.2901 C   0  0  2  0  0  0  0  0  0  0  0  0
  -22.5255  -27.1697   19.1077 C   0  0  1  0  0  0  0  0  0  0  0  0
  -22.1330  -27.1786   15.3374 C   0  0  2  0  0  0  0  0  0  0  0  0
  -21.2892  -27.0003   20.0353 C   0  0  0  0  0  0  0  0  0  0  0  0
  -23.9223  -12.7800   20.5802 N   0  0  0  0  0  0  0  0  0  0  0  0
  -28.1305  -19.2023   17.0038 N   0  0  0  0  0  0  0  0  0  0  0  0
  -24.8923  -13.7053   20.6752 N   0  0  0  0  0  0  0  0  0  0  0  0
  -24.7574  -27.9027   19.8857 N   0  0  0  0  0  0  0  0  0  0  0  0
  -24.6848  -16.7429   18.3702 N   0  0  0  0  0  0  0  0  0  0  0  0
  -27.1415  -14.0218   21.3474 N   0  0  0  0  0  0  0  0  0  0  0  0
  -31.6899  -18.5196   16.6289 N   0  0  0  0  0  0  0  0  0  0  0  0
  -26.4092   -9.6452   22.1868 N   0  0  0  0  0  0  0  0  0  0  0  0
  -26.9258  -17.2263   17.8163 N   0  0  0  0  0  0  0  0  0  0  0  0
  -25.6739  -29.7925   22.7699 N   0  0  0  0  0  0  0  0  0  0  0  0
  -22.1939  -27.4669   17.7185 N   0  0  0  0  0  0  0  0  0  0  0  0
  -23.1381  -26.8768   14.2793 N   0  3  0  0  0  0  0  0  0  0  0  0
  -29.4623  -21.9444   17.2348 N   0  3  0  0  0  0  0  0  0  0  0  0
  -27.9606  -11.3298   22.3058 O   0  0  0  0  0  0  0  0  0  0  0  0
  -25.3818  -27.5076   22.4285 O   0  0  0  0  0  0  0  0  0  0  0  0
  -29.2693  -20.4653   19.6165 O   0  0  0  0  0  0  0  0  0  0  0  0
  -23.0129  -29.4297   19.6382 O   0  0  0  0  0  0  0  0  0  0  0  0
  -23.2803  -25.6356   16.8003 O   0  0  0  0  0  0  0  0  0  0  0  0
  -25.2720  -18.8366   17.5855 O   0  0  0  0  0  0  0  0  0  0  0  0
  -21.6643   -6.8681   21.2872 O   0  0  0  0  0  0  0  0  0  0  0  0
  -29.1382  -23.5700   19.5878 O   0  0  0  0  0  0  0  0  0  1  0  0
  -22.0657   -3.8778   25.9025 F   0  0  0  0  0  0  0  0  0  0  0  0
  -24.1115   -5.9164   22.1522 F   0  0  0  0  0  0  0  0  0  0  0  0
  -29.5528  -17.0861   17.4293 S   0  0  0  0  0  0  0  0  0  0  0  0
  1  2  1  0  0  0  0
  1  5  2  0  0  0  0
  2  6  2  0  0  0  0
  3  8  2  0  0  0  0
  3 15  1  0  0  0  0
  4  9  1  0  0  0  0
  4 15  2  0  0  0  0
  5 17  1  0  0  0  0
  6 19  1  0  0  0  0
  7 10  2  0  0  0  0
  7 18  1  0  0  0  0
  8 21  1  0  0  0  0
  9 21  2  0  0  0  0
 10 22  1  0  0  0  0
 11 12  2  0  0  0  0
 11 23  1  0  0  0  0
 12 24  1  0  0  0  0
 13 20  1  0  0  0  0
 13 22  2  0  0  0  0
 14 24  2  0  0  0  0
 14 25  1  0  0  0  0
 15 26  1  0  0  0  0
 16 26  1  0  0  0  0
 16 28  2  0  0  0  0
 16 31  1  0  0  0  0
 17 19  2  0  0  0  0
 17 37  1  0  0  0  0
 18 20  2  0  0  0  0
 18 38  1  0  0  0  0
 19 46  1  0  0  0  0
 20 39  1  0  0  0  0
 21 82  1  0  0  0  0
 22 83  1  0  0  0  0
 23 25  2  0  0  0  0
 23 82  1  0  0  0  0
 24 84  1  0  0  0  0
 25 85  1  0  0  0  0
 26 63  2  0  0  0  0
 27 29  2  0  0  0  0
 27 58  1  0  0  0  0
 27 64  1  0  0  0  0
 28 65  1  0  0  0  0
 28 68  1  0  0  0  0
 29 69  1  0  0  0  0
 29 86  1  0  0  0  0
 30 64  2  0  0  0  0
 30 71  1  0  0  0  0
 30 86  1  0  0  0  0
 31 70  1  0  0  0  0
 31 76  2  0  0  0  0
 32 47  1  0  0  0  0
 32 72  1  0  0  0  0
 32 77  2  0  0  0  0
 33 56  1  0  0  0  0
 33 59  1  0  0  0  0
 33 78  2  0  0  0  0
 34 60  1  0  0  0  0
 34 66  1  0  0  0  0
 34 79  2  0  0  0  0
 35 61  1  0  0  0  0
 35 73  1  0  0  0  0
 35 80  2  0  0  0  0
 36 67  1  0  0  0  0
 36 71  1  0  0  0  0
 36 81  2  0  0  0  0
 37 40  1  0  0  0  0
 38 47  1  0  0  0  0
 39 66  1  0  0  0  0
 40 42  1  0  0  0  0
 41 43  1  0  0  0  0
 41 44  1  0  0  0  0
 42 46  1  0  0  0  0
 43 48  1  0  0  0  0
 44 67  1  0  0  0  0
 45 48  1  0  0  0  0
 45 67  1  0  0  0  0
 46 72  1  0  0  0  0
 47 66  1  0  0  0  0
 48 65  1  0  0  0  0
 49 56  1  0  0  0  0
 50 58  1  0  0  0  0
 51 61  1  0  0  0  0
 52 62  1  0  0  0  0
 53 62  1  0  0  0  0
 54 62  1  0  0  0  0
 55 74  1  0  0  0  0
 57 59  1  0  0  0  0
 57 83  1  0  0  0  0
 58 75  1  0  0  0  0
 59 75  1  0  0  0  0
 60 62  1  0  0  0  0
 60 73  1  0  0  0  0
 61 74  1  0  0  0  0
 63 65  1  0  0  0  0
M  CHG  2  74   1  75   1
M  ISO  4  36 100  57 101  71 100  83 101
M  END
> <Batch ID>
0195

> <Smiles>
CCC(=O)C(NC(C)c1nc([100NH:0][100C:0](=O)N2CCCC(n3nc(-c4ccc(Oc5ccc(F)cc5F)cc4)c(C(N)=O)c3N)C2)sc1N)[101CH2:1][101O:1]c1ccc2c(c1)CN(C(=O)C(NC(=O)C(C)NC)C(C)(C)C)C(C(=O)NC1CCCc3ccccc31)C2

> <Shape>
0.271

> <Color>
0.104

> <Negative vol penalty>
0.000

$$$$

  -OEChem-04052305363D

 82 90  0     1  0  0  0  0  0999 V2000
  -34.1951  -33.3767   15.4676 C   0  0  0  0  0  0  0  0  0  0  0  0
  -34.0423  -32.6740   16.6585 C   0  0  0  0  0  0  0  0  0  0  0  0
  -23.0759   -9.8656   19.9417 C   0  0  0  0  0  0  0  0  0  0  0  0
  -23.8366   -9.8739   22.2348 C   0  0  0  0  0  0  0  0  0  0  0  0
  -33.5837  -32.9140   14.3031 C   0  0  0  0  0  0  0  0  0  0  0  0
  -33.2770  -31.5086   16.6858 C   0  0  0  0  0  0  0  0  0  0  0  0
  -34.2778  -26.5265   20.1038 C   0  0  0  0  0  0  0  0  0  0  0  0
  -22.3331   -8.7119   20.1922 C   0  0  0  0  0  0  0  0  0  0  0  0
  -23.0937   -8.7202   22.4854 C   0  0  0  0  0  0  0  0  0  0  0  0
  -33.7314  -26.0916   21.3105 C   0  0  0  0  0  0  0  0  0  0  0  0
  -19.8664   -7.9199   23.0892 C   0  0  0  0  0  0  0  0  0  0  0  0
  -19.1099   -7.8796   24.2604 C   0  0  0  0  0  0  0  0  0  0  0  0
  -32.1595  -24.7213   20.0979 C   0  0  0  0  0  0  0  0  0  0  0  0
  -20.3532   -5.9435   24.9970 C   0  0  0  0  0  0  0  0  0  0  0  0
  -29.7692  -17.7283   22.7134 C   0  0  0  0  0  0  0  0  0  0  0  0
  -32.1902  -18.5647   21.9607 C   0  0  0  0  0  0  0  0  0  0  0  0
  -23.8277  -10.4466   20.9629 C   0  0  0  0  0  0  0  0  0  0  0  0
  -24.1673  -12.9720   20.8420 C   0  0  0  0  0  0  0  0  0  0  0  0
  -32.8185  -31.7371   14.3141 C   0  0  0  0  0  0  0  0  0  0  0  0
  -33.7612  -26.0697   18.8828 C   0  0  0  0  0  0  0  0  0  0  0  0
  -32.6537  -31.0305   15.5207 C   0  0  0  0  0  0  0  0  0  0  0  0
  -32.7028  -25.1499   18.8771 C   0  0  0  0  0  0  0  0  0  0  0  0
  -22.3420   -8.1392   21.4641 C   0  0  0  0  0  0  0  0  0  0  0  0
  -32.6702  -25.1911   21.3076 C   0  0  0  0  0  0  0  0  0  0  0  0
  -20.8663   -6.9718   22.8719 C   0  0  0  0  0  0  0  0  0  0  0  0
  -19.3533   -6.8915   25.2143 C   0  0  0  0  0  0  0  0  0  0  0  0
  -21.1097   -5.9837   23.8258 C   0  0  0  0  0  0  0  0  0  0  0  0
  -24.5957  -11.6380   20.7045 C   0  0  0  0  0  0  0  0  0  0  0  0
  -30.5681  -16.9540   21.9011 C   0  0  0  0  0  0  0  0  0  0  0  0
  -31.3911  -19.3395   22.7723 C   0  0  0  0  0  0  0  0  0  0  0  0
  -25.2587  -13.7223   20.4781 C   0  0  0  0  0  0  0  0  0  0  0  0
  -22.8965  -13.4869   21.2612 C   0  0  0  0  0  0  0  0  0  0  0  0
  -32.3680  -27.4482   16.3803 C   0  0  0  0  0  0  0  0  0  0  0  0
  -32.5769  -24.4684   15.1157 C   0  0  0  0  0  0  0  0  0  0  0  0
  -32.8250  -21.1064   15.6471 C   0  0  0  0  0  0  0  0  0  0  0  0
  -30.7241  -14.7726   20.6507 C   0  0  0  0  0  0  0  0  0  0  0  0
  -32.1379  -31.3019   13.0405 C   0  0  0  0  0  0  0  0  0  0  0  0
  -34.3792  -26.5278   17.5903 C   0  0  0  0  0  0  0  0  0  0  0  0
  -32.1252  -24.6136   17.5937 C   0  0  0  0  0  0  0  0  0  0  0  0
  -31.6524  -29.8550   13.0732 C   0  0  0  0  0  0  0  0  0  0  0  0
  -29.6109  -12.3571   18.2835 C   0  0  0  0  0  0  0  0  0  0  0  0
  -30.9209  -29.5667   14.3803 C   0  0  0  0  0  0  0  0  0  0  0  0
  -28.1717  -12.0644   18.7137 C   0  0  0  0  0  0  0  0  0  0  0  0
  -30.5262  -12.5871   19.4848 C   0  0  0  0  0  0  0  0  0  0  0  0
  -28.6191  -13.3103   20.8664 C   0  0  0  0  0  0  0  0  0  0  0  0
  -31.8518  -29.7487   15.5852 C   0  0  1  0  0  0  0  0  0  0  0  0
  -33.4380  -26.3934   16.3973 C   0  0  1  0  0  0  0  0  0  0  0  0
  -27.6461  -13.1359   19.6890 C   0  0  2  0  0  0  0  0  0  0  0  0
  -32.9369  -18.9209   14.4189 C   0  0  0  0  0  0  0  0  0  0  0  0
  -31.2153  -20.9755   25.4818 C   0  0  0  0  0  0  0  0  0  0  0  0
  -29.5808  -24.6294   14.5612 C   0  0  0  0  0  0  0  0  0  0  0  0
  -29.5780  -22.1469   14.2370 C   0  0  0  0  0  0  0  0  0  0  0  0
  -30.9280  -23.5991   12.7233 C   0  0  0  0  0  0  0  0  0  0  0  0
  -35.4950  -20.4839   16.7619 C   0  0  0  0  0  0  0  0  0  0  0  0
  -31.6918  -22.8909   23.9168 C   0  0  0  0  0  0  0  0  0  0  0  0
  -31.5712  -23.4545   22.5045 C   0  0  0  0  0  0  0  0  0  1  0  0
  -31.6911  -23.2460   15.1076 C   0  0  1  0  0  0  0  0  0  0  0  0
  -33.7368  -20.0553   15.0403 C   0  0  2  0  0  0  0  0  0  0  0  0
  -31.1293  -21.4715   24.0418 C   0  0  1  0  0  0  0  0  0  0  0  0
  -30.4539  -23.4168   14.1816 C   0  0  0  0  0  0  0  0  0  0  0  0
  -31.7930  -17.3581   21.5105 N   0  0  0  0  0  0  0  0  0  0  0  0
  -30.1663  -18.9351   23.1633 N   0  0  0  0  0  0  0  0  0  0  0  0
  -25.8605  -11.5432   20.2859 N   0  0  0  0  0  0  0  0  0  0  0  0
  -26.2362  -12.8270   20.1570 N   0  0  0  0  0  0  0  0  0  0  0  0
  -32.7595  -25.0964   16.3559 N   0  0  0  0  0  0  0  0  0  0  0  0
  -29.9667  -13.6177   20.3620 N   0  0  0  0  0  0  0  0  0  0  0  0
  -25.4680  -15.0539   20.4046 N   0  0  0  0  0  0  0  0  0  0  0  0
  -21.8855  -12.5769   21.5991 N   0  0  0  0  0  0  0  0  0  0  0  0
  -30.0762  -15.6974   21.4690 N   0  0  0  0  0  0  0  0  0  0  0  0
  -31.8732  -20.5669   23.1903 N   0  0  0  0  0  0  0  0  0  0  0  0
  -32.7311  -28.6073   15.7215 N   0  0  0  0  0  0  0  0  0  0  0  0
  -32.5508  -22.1213   14.7549 N   0  0  0  0  0  0  0  0  0  0  0  0
  -34.6328  -19.4819   16.0840 N   0  3  0  0  0  0  0  0  0  0  0  0
  -22.6593  -14.7173   21.3182 O   0  0  0  0  0  0  0  0  0  0  0  0
  -31.2922  -27.2264   16.9235 O   0  0  0  0  0  0  0  0  0  0  0  0
  -33.0936  -24.8478   14.0619 O   0  0  0  0  0  0  0  0  0  0  0  0
  -32.3957  -21.0326   16.7964 O   0  0  0  0  0  0  0  0  0  0  0  0
  -31.8529  -14.9421   20.1826 O   0  0  0  0  0  0  0  0  0  0  0  0
  -21.6171   -7.0136   21.7090 O   0  0  0  0  0  0  0  0  0  0  0  0
  -32.1346  -24.7654   22.4840 O   0  0  0  0  0  0  0  0  0  1  0  0
  -18.6278   -6.8539   26.3396 F   0  0  0  0  0  0  0  0  0  0  0  0
  -22.0698   -5.0710   23.6231 F   0  0  0  0  0  0  0  0  0  0  0  0
  1  2  1  0  0  0  0
  1  5  2  0  0  0  0
  2  6  2  0  0  0  0
  3  8  2  0  0  0  0
  3 17  1  0  0  0  0
  4  9  1  0  0  0  0
  4 17  2  0  0  0  0
  5 19  1  0  0  0  0
  6 21  1  0  0  0  0
  7 10  2  0  0  0  0
  7 20  1  0  0  0  0
  8 23  1  0  0  0  0
  9 23  2  0  0  0  0
 10 24  1  0  0  0  0
 11 12  2  0  0  0  0
 11 25  1  0  0  0  0
 12 26  1  0  0  0  0
 13 22  1  0  0  0  0
 13 24  2  0  0  0  0
 14 26  2  0  0  0  0
 14 27  1  0  0  0  0
 15 29  2  0  0  0  0
 15 62  1  0  0  0  0
 16 30  1  0  0  0  0
 16 61  2  0  0  0  0
 17 28  1  0  0  0  0
 18 28  1  0  0  0  0
 18 31  2  0  0  0  0
 18 32  1  0  0  0  0
 19 21  2  0  0  0  0
 19 37  1  0  0  0  0
 20 22  2  0  0  0  0
 20 38  1  0  0  0  0
 21 46  1  0  0  0  0
 22 39  1  0  0  0  0
 23 79  1  0  0  0  0
 24 80  1  0  0  0  0
 25 27  2  0  0  0  0
 25 79  1  0  0  0  0
 26 81  1  0  0  0  0
 27 82  1  0  0  0  0
 28 63  2  0  0  0  0
 29 61  1  0  0  0  0
 29 69  1  0  0  0  0
 30 62  2  0  0  0  0
 30 70  1  0  0  0  0
 31 64  1  0  0  0  0
 31 67  1  0  0  0  0
 32 68  1  0  0  0  0
 32 74  2  0  0  0  0
 33 47  1  0  0  0  0
 33 71  1  0  0  0  0
 33 75  2  0  0  0  0
 34 57  1  0  0  0  0
 34 65  1  0  0  0  0
 34 76  2  0  0  0  0
 35 58  1  0  0  0  0
 35 72  1  0  0  0  0
 35 77  2  0  0  0  0
 36 66  1  0  0  0  0
 36 69  1  0  0  0  0
 36 78  2  0  0  0  0
 37 40  1  0  0  0  0
 38 47  1  0  0  0  0
 39 65  1  0  0  0  0
 40 42  1  0  0  0  0
 41 43  1  0  0  0  0
 41 44  1  0  0  0  0
 42 46  1  0  0  0  0
 43 48  1  0  0  0  0
 44 66  1  0  0  0  0
 45 48  1  0  0  0  0
 45 66  1  0  0  0  0
 46 71  1  0  0  0  0
 47 65  1  0  0  0  0
 48 64  1  0  0  0  0
 49 58  1  0  0  0  0
 50 59  1  0  0  0  0
 51 60  1  0  0  0  0
 52 60  1  0  0  0  0
 53 60  1  0  0  0  0
 54 73  1  0  0  0  0
 55 56  1  0  0  0  0
 55 59  1  0  0  0  0
 56 80  1  0  0  0  0
 57 60  1  0  0  0  0
 57 72  1  0  0  0  0
 58 73  1  0  0  0  0
 59 70  1  0  0  0  0
 63 64  1  0  0  0  0
M  CHG  1  73   1
M  ISO  4  36 100  56 101  69 100  80 101
M  END
> <Batch ID>
0195

> <Smiles>
CNC(C)C(=O)NC(C(=O)N1Cc2cc([101O:1][101CH2:1]CC(C)Nc3cnc([100NH:0][100C:0](=O)N4CCCC(n5nc(-c6ccc(Oc7ccc(F)cc7F)cc6)c(C(N)=O)c5N)C4)cn3)ccc2CC1C(=O)NC1CCCc2ccccc21)C(C)(C)C

> <Shape>
0.180

> <Color>
0.188

> <Negative vol penalty>
0.000

$$$$

  -OEChem-04052305363D

 85 93  0     1  0  0  0  0  0999 V2000
  -22.5299  -29.2105   23.1406 C   0  0  0  0  0  0  0  0  0  0  0  0
  -23.0557  -27.9270   23.2486 C   0  0  0  0  0  0  0  0  0  0  0  0
  -27.8906  -23.6272   20.8287 C   0  0  0  0  0  0  0  0  0  0  0  0
  -29.3956  -23.5328   18.9411 C   0  0  0  0  0  0  0  0  0  0  0  0
  -21.1742  -29.3864   22.8664 C   0  0  0  0  0  0  0  0  0  0  0  0
  -22.2258  -26.8187   23.0837 C   0  0  0  0  0  0  0  0  0  0  0  0
  -22.3186  -20.0919   20.6223 C   0  0  0  0  0  0  0  0  0  0  0  0
  -27.3002  -24.7753   20.3007 C   0  0  0  0  0  0  0  0  0  0  0  0
  -28.8052  -24.6810   18.4130 C   0  0  0  0  0  0  0  0  0  0  0  0
  -21.9900  -18.7958   21.0173 C   0  0  0  0  0  0  0  0  0  0  0  0
  -25.0499  -25.5381   17.8950 C   0  0  0  0  0  0  0  0  0  0  0  0
  -23.6570  -25.6101   17.8967 C   0  0  0  0  0  0  0  0  0  0  0  0
  -19.6798  -19.2207   20.4682 C   0  0  0  0  0  0  0  0  0  0  0  0
  -23.7613  -27.5959   19.2689 C   0  0  0  0  0  0  0  0  0  0  0  0
  -25.4130  -15.3432   21.3121 C   0  0  0  0  0  0  0  0  0  0  0  0
  -28.9383  -23.0059   20.1489 C   0  0  0  0  0  0  0  0  0  0  0  0
  -30.1992  -21.6932   21.9363 C   0  0  0  0  0  0  0  0  0  0  0  0
  -20.3292  -28.2797   22.6884 C   0  0  0  0  0  0  0  0  0  0  0  0
  -21.3269  -20.9671   20.1568 C   0  0  0  0  0  0  0  0  0  0  0  0
  -20.8573  -26.9799   22.8082 C   0  0  0  0  0  0  0  0  0  0  0  0
  -19.9988  -20.5265   20.0655 C   0  0  0  0  0  0  0  0  0  0  0  0
  -27.7575  -25.3022   19.0928 C   0  0  0  0  0  0  0  0  0  0  0  0
  -20.6700  -18.3610   20.9430 C   0  0  0  0  0  0  0  0  0  0  0  0
  -25.7986  -26.4949   18.5804 C   0  0  0  0  0  0  0  0  0  0  0  0
  -23.0126  -26.6390   18.5836 C   0  0  0  0  0  0  0  0  0  0  0  0
  -25.1543  -27.5238   19.2673 C   0  0  0  0  0  0  0  0  0  0  0  0
  -29.5489  -21.8202   20.6942 C   0  0  0  0  0  0  0  0  0  0  0  0
  -24.5081  -13.2499   21.4812 C   0  0  0  0  0  0  0  0  0  0  0  0
  -26.4543  -14.8330   20.5685 C   0  0  0  0  0  0  0  0  0  0  0  0
  -25.5490  -12.7397   20.7370 C   0  0  0  0  0  0  0  0  0  0  0  0
  -30.5993  -20.3801   21.9817 C   0  0  0  0  0  0  0  0  0  0  0  0
  -30.4215  -22.6744   22.9578 C   0  0  0  0  0  0  0  0  0  0  0  0
  -20.1664  -23.7625   21.1278 C   0  0  0  0  0  0  0  0  0  0  0  0
  -18.5089  -23.5999   18.3442 C   0  0  0  0  0  0  0  0  0  0  0  0
  -17.1950  -21.6587   15.8637 C   0  0  0  0  0  0  0  0  0  0  0  0
  -28.5857  -15.4057   19.3537 C   0  0  0  0  0  0  0  0  0  0  0  0
  -18.8611  -28.5197   22.4404 C   0  0  0  0  0  0  0  0  0  0  0  0
  -21.7020  -22.3533   19.7093 C   0  0  0  0  0  0  0  0  0  0  0  0
  -18.9001  -21.4205   19.5536 C   0  0  0  0  0  0  0  0  0  0  0  0
  -18.1247  -27.2929   21.9083 C   0  0  0  0  0  0  0  0  0  0  0  0
  -31.8736  -16.7528   19.1263 C   0  0  0  0  0  0  0  0  0  0  0  0
  -18.4946  -26.0549   22.7190 C   0  0  0  0  0  0  0  0  0  0  0  0
  -31.7110  -18.1917   19.6214 C   0  0  0  0  0  0  0  0  0  0  0  0
  -30.6631  -16.2912   18.3168 C   0  0  0  0  0  0  0  0  0  0  0  0
  -29.2046  -17.8990   19.4818 C   0  0  0  0  0  0  0  0  0  0  0  0
  -19.9941  -25.7526   22.6112 C   0  0  1  0  0  0  0  0  0  0  0  0
  -20.5285  -23.3278   19.7359 C   0  0  1  0  0  0  0  0  0  0  0  0
  -30.3707  -18.3864   20.3571 C   0  0  2  0  0  0  0  0  0  0  0  0
  -23.6881  -11.8264   23.4032 C   0  0  0  0  0  0  0  0  0  0  0  0
  -16.0612  -21.1039   13.6949 C   0  0  0  0  0  0  0  0  0  0  0  0
  -20.9866  -12.4440   19.9591 C   0  0  0  0  0  0  0  0  0  0  0  0
  -15.9695  -24.0481   19.9753 C   0  0  0  0  0  0  0  0  0  0  0  0
  -14.6466  -23.2506   18.0050 C   0  0  0  0  0  0  0  0  0  0  0  0
  -16.0548  -25.3006   17.8123 C   0  0  0  0  0  0  0  0  0  0  0  0
  -19.7521  -21.7287   14.3753 C   0  0  0  0  0  0  0  0  0  0  0  0
  -20.6613  -14.7513   20.9343 C   0  0  0  0  0  0  0  0  0  0  0  0
  -21.3477  -16.0925   21.1685 C   0  0  0  0  0  0  0  0  0  1  0  0
  -23.3979  -12.3690   22.0061 C   0  0  1  0  0  0  0  0  0  0  0  0
  -17.1722  -23.0357   17.9272 C   0  0  1  0  0  0  0  0  0  0  0  0
  -17.2550  -21.7794   14.3517 C   0  0  2  0  0  0  0  0  0  0  0  0
  -21.6347  -13.5895   20.7253 C   0  0  1  0  0  0  0  0  0  0  0  0
  -15.9809  -23.8923   18.4415 C   0  0  0  0  0  0  0  0  0  0  0  0
  -24.4212  -14.5608   21.7818 N   0  0  0  0  0  0  0  0  0  0  0  0
  -29.5347  -20.6789   20.0005 N   0  0  0  0  0  0  0  0  0  0  0  0
  -26.5410  -13.5221   20.2676 N   0  0  0  0  0  0  0  0  0  0  0  0
  -30.1810  -19.8222   20.8095 N   0  0  0  0  0  0  0  0  0  0  0  0
  -19.3161  -22.7690   19.1341 N   0  0  0  0  0  0  0  0  0  0  0  0
  -29.4301  -16.5021   19.0785 N   0  0  0  0  0  0  0  0  0  0  0  0
  -25.5830  -11.3559   20.4540 N   0  0  0  0  0  0  0  0  0  0  0  0
  -31.2647  -19.6598   22.9095 N   0  0  0  0  0  0  0  0  0  0  0  0
  -31.5946  -23.4395   22.9053 N   0  0  0  0  0  0  0  0  0  0  0  0
  -27.4595  -15.7217   20.1130 N   0  0  0  0  0  0  0  0  0  0  0  0
  -20.2926  -25.1215   21.3435 N   0  0  0  0  0  0  0  0  0  0  0  0
  -17.2237  -22.8938   16.4762 N   0  0  0  0  0  0  0  0  0  0  0  0
  -18.4991  -21.1456   13.8304 N   0  3  0  0  0  0  0  0  0  0  0  0
  -22.0846  -13.0631   22.0441 N   0  3  0  0  0  0  0  0  0  0  0  0
  -29.6119  -22.8558   23.8986 O   0  0  0  0  0  0  0  0  0  0  0  0
  -19.7983  -22.9270   21.9452 O   0  0  0  0  0  0  0  0  0  0  0  0
  -18.8282  -24.7332   17.9764 O   0  0  0  0  0  0  0  0  0  0  0  0
  -17.1257  -20.5772   16.4435 O   0  0  0  0  0  0  0  0  0  0  0  0
  -28.8565  -14.2653   18.9689 O   0  0  0  0  0  0  0  0  0  0  0  0
  -27.1815  -26.4224   18.5772 O   0  0  0  0  0  0  0  0  0  0  0  0
  -20.3464  -17.0967   21.3285 O   0  0  0  0  0  0  0  0  0  1  0  0
  -21.6750  -26.7089   18.5838 F   0  0  0  0  0  0  0  0  0  0  0  0
  -25.8682  -28.4466   19.9265 F   0  0  0  0  0  0  0  0  0  0  0  0
  1  2  1  0  0  0  0
  1  5  2  0  0  0  0
  2  6  2  0  0  0  0
  3  8  2  0  0  0  0
  3 16  1  0  0  0  0
  4  9  1  0  0  0  0
  4 16  2  0  0  0  0
  5 18  1  0  0  0  0
  6 20  1  0  0  0  0
  7 10  2  0  0  0  0
  7 19  1  0  0  0  0
  8 22  1  0  0  0  0
  9 22  2  0  0  0  0
 10 23  1  0  0  0  0
 11 12  2  0  0  0  0
 11 24  1  0  0  0  0
 12 25  1  0  0  0  0
 13 21  1  0  0  0  0
 13 23  2  0  0  0  0
 14 25  2  0  0  0  0
 14 26  1  0  0  0  0
 15 29  1  0  0  0  0
 15 63  2  0  0  0  0
 16 27  1  0  0  0  0
 17 27  1  0  0  0  0
 17 31  2  0  0  0  0
 17 32  1  0  0  0  0
 18 20  2  0  0  0  0
 18 37  1  0  0  0  0
 19 21  2  0  0  0  0
 19 38  1  0  0  0  0
 20 46  1  0  0  0  0
 21 39  1  0  0  0  0
 22 82  1  0  0  0  0
 23 83  1  0  0  0  0
 24 26  2  0  0  0  0
 24 82  1  0  0  0  0
 25 84  1  0  0  0  0
 26 85  1  0  0  0  0
 27 64  2  0  0  0  0
 28 30  2  0  0  0  0
 28 58  1  0  0  0  0
 28 63  1  0  0  0  0
 29 65  2  0  0  0  0
 29 72  1  0  0  0  0
 30 65  1  0  0  0  0
 30 69  1  0  0  0  0
 31 66  1  0  0  0  0
 31 70  1  0  0  0  0
 32 71  1  0  0  0  0
 32 77  2  0  0  0  0
 33 47  1  0  0  0  0
 33 73  1  0  0  0  0
 33 78  2  0  0  0  0
 34 59  1  0  0  0  0
 34 67  1  0  0  0  0
 34 79  2  0  0  0  0
 35 60  1  0  0  0  0
 35 74  1  0  0  0  0
 35 80  2  0  0  0  0
 36 68  1  0  0  0  0
 36 72  1  0  0  0  0
 36 81  2  0  0  0  0
 37 40  1  0  0  0  0
 38 47  1  0  0  0  0
 39 67  1  0  0  0  0
 40 42  1  0  0  0  0
 41 43  1  0  0  0  0
 41 44  1  0  0  0  0
 42 46  1  0  0  0  0
 43 48  1  0  0  0  0
 44 68  1  0  0  0  0
 45 48  1  0  0  0  0
 45 68  1  0  0  0  0
 46 73  1  0  0  0  0
 47 67  1  0  0  0  0
 48 66  1  0  0  0  0
 49 58  1  0  0  0  0
 50 60  1  0  0  0  0
 51 61  1  0  0  0  0
 52 62  1  0  0  0  0
 53 62  1  0  0  0  0
 54 62  1  0  0  0  0
 55 75  1  0  0  0  0
 56 57  1  0  0  0  0
 56 61  1  0  0  0  0
 57 83  1  0  0  0  0
 58 76  1  0  0  0  0
 59 62  1  0  0  0  0
 59 74  1  0  0  0  0
 60 75  1  0  0  0  0
 61 76  1  0  0  0  0
 64 66  1  0  0  0  0
M  CHG  2  75   1  76   1
M  ISO  4  36 100  57 101  72 100  83 101
M  END
> <Batch ID>
0195

> <Smiles>
CNC(C)C(=O)NC(C(=O)N1Cc2cc([101O:1][101CH2:1]CC(C)NC(C)c3ncc([100NH:0][100C:0](=O)N4CCCC(n5nc(-c6ccc(Oc7ccc(F)cc7F)cc6)c(C(N)=O)c5N)C4)nc3N)ccc2CC1C(=O)NC1CCCc2ccccc21)C(C)(C)C

> <Shape>
0.197

> <Color>
0.065

> <Negative vol penalty>
0.000

$$$$

  -OEChem-04052305363D

 84 92  0     1  0  0  0  0  0999 V2000
  -20.1951  -34.2768   22.3345 C   0  0  0  0  0  0  0  0  0  0  0  0
  -21.4453  -33.7819   21.9772 C   0  0  0  0  0  0  0  0  0  0  0  0
  -23.6876  -16.3604   25.6770 C   0  0  0  0  0  0  0  0  0  0  0  0
  -22.6733  -18.2833   24.6232 C   0  0  0  0  0  0  0  0  0  0  0  0
  -19.3298  -33.4953   23.0989 C   0  0  0  0  0  0  0  0  0  0  0  0
  -21.8313  -32.5056   22.3851 C   0  0  0  0  0  0  0  0  0  0  0  0
  -25.3048  -28.5385   19.2702 C   0  0  0  0  0  0  0  0  0  0  0  0
  -22.9591  -16.6131   26.8394 C   0  0  0  0  0  0  0  0  0  0  0  0
  -21.9447  -18.5361   25.7855 C   0  0  0  0  0  0  0  0  0  0  0  0
  -26.6604  -28.2209   19.3422 C   0  0  0  0  0  0  0  0  0  0  0  0
  -23.1345  -18.7144   29.4810 C   0  0  0  0  0  0  0  0  0  0  0  0
  -23.8119  -18.6420   30.6981 C   0  0  0  0  0  0  0  0  0  0  0  0
  -26.8457  -22.8244   19.1335 C   0  0  0  0  0  0  0  0  0  0  0  0
  -26.1409  -26.3561   20.7817 C   0  0  0  0  0  0  0  0  0  0  0  0
  -22.3153  -16.8909   31.4268 C   0  0  0  0  0  0  0  0  0  0  0  0
  -26.8533  -23.9282   18.3054 C   0  0  0  0  0  0  0  0  0  0  0  0
  -23.5447  -17.1955   24.5689 C   0  0  0  0  0  0  0  0  0  0  0  0
  -23.9089  -16.1334   22.2783 C   0  0  0  0  0  0  0  0  0  0  0  0
  -19.7015  -32.2050   23.5083 C   0  0  0  0  0  0  0  0  0  0  0  0
  -24.3565  -27.7725   19.9634 C   0  0  0  0  0  0  0  0  0  0  0  0
  -20.9706  -31.7066   23.1569 C   0  0  0  0  0  0  0  0  0  0  0  0
  -24.7736  -26.6646   20.7148 C   0  0  0  0  0  0  0  0  0  0  0  0
  -22.0876  -17.7009   26.8936 C   0  0  0  0  0  0  0  0  0  0  0  0
  -27.0789  -27.1313   20.1004 C   0  0  0  0  0  0  0  0  0  0  0  0
  -22.0474  -17.8751   29.2367 C   0  0  0  0  0  0  0  0  0  0  0  0
  -23.4023  -17.7302   31.6710 C   0  0  0  0  0  0  0  0  0  0  0  0
  -21.6379  -16.9633   30.2097 C   0  0  0  0  0  0  0  0  0  0  0  0
  -24.2974  -16.9353   23.3682 C   0  0  0  0  0  0  0  0  0  0  0  0
  -28.0668  -22.2089   19.3192 C   0  0  0  0  0  0  0  0  0  0  0  0
  -24.9637  -16.2105   21.4020 C   0  0  0  0  0  0  0  0  0  0  0  0
  -29.0901  -23.7166   17.9602 C   0  0  0  0  0  0  0  0  0  0  0  0
  -22.7024  -15.3856   22.0762 C   0  0  0  0  0  0  0  0  0  0  0  0
  -22.2620  -28.3571   22.2818 C   0  0  0  0  0  0  0  0  0  0  0  0
  -21.3270  -25.3112   21.6727 C   0  0  0  0  0  0  0  0  0  0  0  0
  -22.1212  -22.2272   20.4461 C   0  0  0  0  0  0  0  0  0  0  0  0
  -29.2227  -20.3014   20.4904 C   0  0  0  0  0  0  0  0  0  0  0  0
  -18.7511  -31.4159   24.3734 C   0  0  0  0  0  0  0  0  0  0  0  0
  -22.8953  -28.1122   19.8539 C   0  0  0  0  0  0  0  0  0  0  0  0
  -23.7934  -25.7982   21.4612 C   0  0  0  0  0  0  0  0  0  0  0  0
  -19.0877  -29.9288   24.4486 C   0  0  0  0  0  0  0  0  0  0  0  0
  -29.7063  -16.8679   21.2990 C   0  0  0  0  0  0  0  0  0  0  0  0
  -20.5787  -29.7311   24.7027 C   0  0  0  0  0  0  0  0  0  0  0  0
  -28.3371  -16.4210   21.8165 C   0  0  0  0  0  0  0  0  0  0  0  0
  -30.0321  -18.2997   21.7204 C   0  0  0  0  0  0  0  0  0  0  0  0
  -27.6370  -18.8479   21.9006 C   0  0  0  0  0  0  0  0  0  0  0  0
  -21.4156  -30.3173   23.5593 C   0  0  1  0  0  0  0  0  0  0  0  0
  -22.0675  -27.5716   21.0157 C   0  0  1  0  0  0  0  0  0  0  0  0
  -27.2365  -17.4346   21.4467 C   0  0  2  0  0  0  0  0  0  0  0  0
  -30.2530  -24.2427   15.7776 C   0  0  0  0  0  0  0  0  0  0  0  0
  -21.1634  -19.9309   20.1188 C   0  0  0  0  0  0  0  0  0  0  0  0
  -32.3477  -25.2112   19.5479 C   0  0  0  0  0  0  0  0  0  0  0  0
  -21.6965  -24.7359   24.6463 C   0  0  0  0  0  0  0  0  0  0  0  0
  -21.6615  -22.2914   24.1065 C   0  0  0  0  0  0  0  0  0  0  0  0
  -19.6598  -23.7011   23.6288 C   0  0  0  0  0  0  0  0  0  0  0  0
  -22.4313  -22.3904   17.5074 C   0  0  0  0  0  0  0  0  0  0  0  0
  -30.7255  -27.1433   19.6730 C   0  0  0  0  0  0  0  0  0  0  0  0
  -29.3057  -27.6514   19.4471 C   0  0  0  0  0  0  0  0  0  1  0  0
  -30.3533  -24.2199   17.3007 C   0  0  1  0  0  0  0  0  0  0  0  0
  -21.7223  -23.9483   22.1877 C   0  0  1  0  0  0  0  0  0  0  0  0
  -21.3842  -21.3006   19.4960 C   0  0  2  0  0  0  0  0  0  0  0  0
  -30.9391  -25.6947   19.2296 C   0  0  1  0  0  0  0  0  0  0  0  0
  -21.2039  -23.6865   23.6300 C   0  0  0  0  0  0  0  0  0  0  0  0
  -27.9614  -24.4035   17.7000 N   0  0  0  0  0  0  0  0  0  0  0  0
  -25.5049  -17.4817   23.2018 N   0  0  0  0  0  0  0  0  0  0  0  0
  -29.2133  -22.6297   18.7457 N   0  0  0  0  0  0  0  0  0  0  0  0
  -25.8842  -17.0221   21.9972 N   0  0  0  0  0  0  0  0  0  0  0  0
  -22.3764  -26.1748   21.3281 N   0  0  0  0  0  0  0  0  0  0  0  0
  -28.9471  -19.2042   21.3336 N   0  0  0  0  0  0  0  0  0  0  0  0
  -25.1844  -15.6626   20.1882 N   0  0  0  0  0  0  0  0  0  0  0  0
  -21.7218  -15.4160   23.0771 N   0  0  0  0  0  0  0  0  0  0  0  0
  -28.1073  -21.0722   20.1642 N   0  0  0  0  0  0  0  0  0  0  0  0
  -21.4015  -29.4299   22.4161 N   0  0  0  0  0  0  0  0  0  0  0  0
  -21.2496  -22.9855   21.1988 N   0  0  0  0  0  0  0  0  0  0  0  0
  -22.1617  -21.1246   18.2369 N   0  3  0  0  0  0  0  0  0  0  0  0
  -30.7360  -25.5808   17.7585 N   0  3  0  0  0  0  0  0  0  0  0  0
  -22.5068  -14.6973   21.0459 O   0  0  0  0  0  0  0  0  0  0  0  0
  -23.1276  -28.0142   23.0786 O   0  0  0  0  0  0  0  0  0  0  0  0
  -20.1310  -25.5965   21.5730 O   0  0  0  0  0  0  0  0  0  0  0  0
  -23.3474  -22.2710   20.5164 O   0  0  0  0  0  0  0  0  0  0  0  0
  -30.3593  -20.5240   20.0655 O   0  0  0  0  0  0  0  0  0  0  0  0
  -21.3764  -17.9477   28.0275 O   0  0  0  0  0  0  0  0  0  0  0  0
  -28.4016  -26.8195   20.1729 O   0  0  0  0  0  0  0  0  0  1  0  0
  -24.0539  -17.6597   32.8392 F   0  0  0  0  0  0  0  0  0  0  0  0
  -20.5950  -16.1536   29.9803 F   0  0  0  0  0  0  0  0  0  0  0  0
  1  2  1  0  0  0  0
  1  5  2  0  0  0  0
  2  6  2  0  0  0  0
  3  8  2  0  0  0  0
  3 17  1  0  0  0  0
  4  9  1  0  0  0  0
  4 17  2  0  0  0  0
  5 19  1  0  0  0  0
  6 21  1  0  0  0  0
  7 10  2  0  0  0  0
  7 20  1  0  0  0  0
  8 23  1  0  0  0  0
  9 23  2  0  0  0  0
 10 24  1  0  0  0  0
 11 12  2  0  0  0  0
 11 25  1  0  0  0  0
 12 26  1  0  0  0  0
 13 16  1  0  0  0  0
 13 29  2  0  0  0  0
 14 22  1  0  0  0  0
 14 24  2  0  0  0  0
 15 26  2  0  0  0  0
 15 27  1  0  0  0  0
 16 63  2  0  0  0  0
 17 28  1  0  0  0  0
 18 28  1  0  0  0  0
 18 30  2  0  0  0  0
 18 32  1  0  0  0  0
 19 21  2  0  0  0  0
 19 37  1  0  0  0  0
 20 22  2  0  0  0  0
 20 38  1  0  0  0  0
 21 46  1  0  0  0  0
 22 39  1  0  0  0  0
 23 81  1  0  0  0  0
 24 82  1  0  0  0  0
 25 27  2  0  0  0  0
 25 81  1  0  0  0  0
 26 83  1  0  0  0  0
 27 84  1  0  0  0  0
 28 64  2  0  0  0  0
 29 65  1  0  0  0  0
 29 71  1  0  0  0  0
 30 66  1  0  0  0  0
 30 69  1  0  0  0  0
 31 58  1  0  0  0  0
 31 63  1  0  0  0  0
 31 65  2  0  0  0  0
 32 70  1  0  0  0  0
 32 76  2  0  0  0  0
 33 47  1  0  0  0  0
 33 72  1  0  0  0  0
 33 77  2  0  0  0  0
 34 59  1  0  0  0  0
 34 67  1  0  0  0  0
 34 78  2  0  0  0  0
 35 60  1  0  0  0  0
 35 73  1  0  0  0  0
 35 79  2  0  0  0  0
 36 68  1  0  0  0  0
 36 71  1  0  0  0  0
 36 80  2  0  0  0  0
 37 40  1  0  0  0  0
 38 47  1  0  0  0  0
 39 67  1  0  0  0  0
 40 42  1  0  0  0  0
 41 43  1  0  0  0  0
 41 44  1  0  0  0  0
 42 46  1  0  0  0  0
 43 48  1  0  0  0  0
 44 68  1  0  0  0  0
 45 48  1  0  0  0  0
 45 68  1  0  0  0  0
 46 72  1  0  0  0  0
 47 67  1  0  0  0  0
 48 66  1  0  0  0  0
 49 58  1  0  0  0  0
 50 60  1  0  0  0  0
 51 61  1  0  0  0  0
 52 62  1  0  0  0  0
 53 62  1  0  0  0  0
 54 62  1  0  0  0  0
 55 74  1  0  0  0  0
 56 57  1  0  0  0  0
 56 61  1  0  0  0  0
 57 82  1  0  0  0  0
 58 75  1  0  0  0  0
 59 62  1  0  0  0  0
 59 73  1  0  0  0  0
 60 74  1  0  0  0  0
 61 75  1  0  0  0  0
 64 66  1  0  0  0  0
M  CHG  2  74   1  75   1
M  ISO  4  36 100  57 101  71 100  82 101
M  END
> <Batch ID>
0195

> <Smiles>
CNC(C)C(=O)NC(C(=O)N1Cc2cc([101O:1][101CH2:1]CC(C)NC(C)c3nccc([100NH:0][100C:0](=O)N4CCCC(n5nc(-c6ccc(Oc7ccc(F)cc7F)cc6)c(C(N)=O)c5N)C4)n3)ccc2CC1C(=O)NC1CCCc2ccccc21)C(C)(C)C

> <Shape>
0.170

> <Color>
0.123

> <Negative vol penalty>
0.000

$$$$

  -OEChem-04052305363D

 83 91  0     1  0  0  0  0  0999 V2000
  -17.1656  -30.3455   21.3829 C   0  0  0  0  0  0  0  0  0  0  0  0
  -18.4025  -30.3455   20.7462 C   0  0  0  0  0  0  0  0  0  0  0  0
  -26.5505  -12.7566   21.8817 C   0  0  0  0  0  0  0  0  0  0  0  0
  -26.0157  -14.1384   19.9734 C   0  0  0  0  0  0  0  0  0  0  0  0
  -17.0822  -30.0442   22.7416 C   0  0  0  0  0  0  0  0  0  0  0  0
  -19.5571  -30.0453   21.4683 C   0  0  0  0  0  0  0  0  0  0  0  0
  -24.5049  -27.0677   19.4289 C   0  0  0  0  0  0  0  0  0  0  0  0
  -25.2801  -12.1838   21.8231 C   0  0  0  0  0  0  0  0  0  0  0  0
  -24.7452  -13.5657   19.9147 C   0  0  0  0  0  0  0  0  0  0  0  0
  -25.7415  -27.5123   18.9632 C   0  0  0  0  0  0  0  0  0  0  0  0
  -23.6932   -9.8251   19.9925 C   0  0  0  0  0  0  0  0  0  0  0  0
  -23.6005   -8.4390   20.1186 C   0  0  0  0  0  0  0  0  0  0  0  0
  -26.6787  -27.1907   21.1626 C   0  0  0  0  0  0  0  0  0  0  0  0
  -22.2122   -8.7100   22.0772 C   0  0  0  0  0  0  0  0  0  0  0  0
  -30.2839  -24.0017   20.2075 C   0  0  0  0  0  0  0  0  0  0  0  0
  -26.9183  -13.7340   20.9569 C   0  0  0  0  0  0  0  0  0  0  0  0
  -29.3959  -13.8792   20.3667 C   0  0  0  0  0  0  0  0  0  0  0  0
  -18.2352  -29.7308   23.4786 C   0  0  0  0  0  0  0  0  0  0  0  0
  -24.3429  -26.6910   20.7699 C   0  0  0  0  0  0  0  0  0  0  0  0
  -19.4892  -29.7410   22.8385 C   0  0  0  0  0  0  0  0  0  0  0  0
  -25.4396  -26.7392   21.6423 C   0  0  0  0  0  0  0  0  0  0  0  0
  -24.3774  -12.5883   20.8396 C   0  0  0  0  0  0  0  0  0  0  0  0
  -26.8279  -27.5766   19.8308 C   0  0  0  0  0  0  0  0  0  0  0  0
  -23.0454  -10.6536   20.9088 C   0  0  0  0  0  0  0  0  0  0  0  0
  -22.8600   -7.8815   21.1609 C   0  0  0  0  0  0  0  0  0  0  0  0
  -22.3049  -10.0960   21.9511 C   0  0  0  0  0  0  0  0  0  0  0  0
  -28.2304  -14.3264   21.0174 C   0  0  0  0  0  0  0  0  0  0  0  0
  -29.7318  -23.9944   18.9456 C   0  0  0  0  0  0  0  0  0  0  0  0
  -29.6996  -21.8071   20.4760 C   0  0  0  0  0  0  0  0  0  0  0  0
  -29.1468  -21.7999   19.2143 C   0  0  0  0  0  0  0  0  0  0  0  0
  -30.3652  -14.7763   20.7435 C   0  0  0  0  0  0  0  0  0  0  0  0
  -29.5853  -12.7535   19.4990 C   0  0  0  0  0  0  0  0  0  0  0  0
  -22.5702  -27.7325   23.1941 C   0  0  0  0  0  0  0  0  0  0  0  0
  -23.7933  -25.1311   24.6971 C   0  0  0  0  0  0  0  0  0  0  0  0
  -26.2973  -22.8228   24.9169 C   0  0  0  0  0  0  0  0  0  0  0  0
  -30.1783  -20.4674   22.5550 C   0  0  0  0  0  0  0  0  0  0  0  0
  -18.1007  -29.4580   24.9558 C   0  0  0  0  0  0  0  0  0  0  0  0
  -23.0091  -26.1882   21.2502 C   0  0  0  0  0  0  0  0  0  0  0  0
  -25.3232  -26.3268   23.0862 C   0  0  0  0  0  0  0  0  0  0  0  0
  -19.3276  -28.7843   25.5650 C   0  0  0  0  0  0  0  0  0  0  0  0
  -31.5595  -17.7104   24.3350 C   0  0  0  0  0  0  0  0  0  0  0  0
  -20.6035  -29.4825   25.1051 C   0  0  0  0  0  0  0  0  0  0  0  0
  -30.9734  -16.4890   23.6232 C   0  0  0  0  0  0  0  0  0  0  0  0
  -30.5548  -18.8587   24.4111 C   0  0  0  0  0  0  0  0  0  0  0  0
  -29.3742  -18.0282   22.4148 C   0  0  0  0  0  0  0  0  0  0  0  0
  -20.7613  -29.3963   23.5822 C   0  0  1  0  0  0  0  0  0  0  0  0
  -22.8300  -26.3177   22.7597 C   0  0  1  0  0  0  0  0  0  0  0  0
  -30.3710  -16.8686   22.2562 C   0  0  2  0  0  0  0  0  0  0  0  0
  -27.0392  -20.8441   26.2703 C   0  0  0  0  0  0  0  0  0  0  0  0
  -31.8951  -26.2784   18.5555 C   0  0  0  0  0  0  0  0  0  0  0  0
  -24.6899  -27.0011   26.9352 C   0  0  0  0  0  0  0  0  0  0  0  0
  -26.2080  -25.1847   27.7501 C   0  0  0  0  0  0  0  0  0  0  0  0
  -23.7401  -24.8226   27.7137 C   0  0  0  0  0  0  0  0  0  0  0  0
  -26.1850  -21.0269   22.5672 C   0  0  0  0  0  0  0  0  0  0  0  0
  -29.8495  -27.5771   17.8671 C   0  0  0  0  0  0  0  0  0  0  0  0
  -28.3423  -27.7661   18.0069 C   0  0  0  0  0  0  0  0  0  1  0  0
  -25.0199  -24.8580   25.5336 C   0  0  1  0  0  0  0  0  0  0  0  0
  -26.2648  -21.3107   25.0475 C   0  0  2  0  0  0  0  0  0  0  0  0
  -30.3785  -26.3892   18.6769 C   0  0  1  0  0  0  0  0  0  0  0  0
  -24.9165  -25.4763   26.9565 C   0  0  0  0  0  0  0  0  0  0  0  0
  -30.2778  -22.9082   20.9954 N   0  0  0  0  0  0  0  0  0  0  0  0
  -28.4383  -15.4223   21.7521 N   0  0  0  0  0  0  0  0  0  0  0  0
  -29.1532  -22.8934   18.4263 N   0  0  0  0  0  0  0  0  0  0  0  0
  -29.7457  -15.6712   21.5653 N   0  0  0  0  0  0  0  0  0  0  0  0
  -23.9968  -25.8483   23.5097 N   0  0  0  0  0  0  0  0  0  0  0  0
  -30.0298  -19.1657   23.0789 N   0  0  0  0  0  0  0  0  0  0  0  0
  -28.5520  -20.6174   18.7181 N   0  0  0  0  0  0  0  0  0  0  0  0
  -31.6786  -14.8789   20.4489 N   0  0  0  0  0  0  0  0  0  0  0  0
  -28.4832  -11.9351   19.2162 N   0  0  0  0  0  0  0  0  0  0  0  0
  -29.6691  -20.6321   21.2673 N   0  0  0  0  0  0  0  0  0  0  0  0
  -29.7800  -25.1594   18.2012 N   0  0  0  0  0  0  0  0  0  0  0  0
  -21.2338  -28.0838   23.1965 N   0  0  0  0  0  0  0  0  0  0  0  0
  -25.2076  -23.4113   25.5229 N   0  0  0  0  0  0  0  0  0  0  0  0
  -26.8636  -20.6736   23.8407 N   0  3  0  0  0  0  0  0  0  0  0  0
  -30.7024  -12.4721   19.0028 O   0  0  0  0  0  0  0  0  0  0  0  0
  -23.5123  -28.4516   23.5055 O   0  0  0  0  0  0  0  0  0  0  0  0
  -22.6961  -24.7169   25.0794 O   0  0  0  0  0  0  0  0  0  0  0  0
  -27.2012  -23.4221   24.3386 O   0  0  0  0  0  0  0  0  0  0  0  0
  -30.7417  -21.3623   23.1903 O   0  0  0  0  0  0  0  0  0  0  0  0
  -23.1377  -12.0295   20.7819 O   0  0  0  0  0  0  0  0  0  0  0  0
  -28.0358  -28.0108   19.3789 O   0  0  0  0  0  0  0  0  0  1  0  0
  -22.7699   -6.5505   21.2809 F   0  0  0  0  0  0  0  0  0  0  0  0
  -21.6793  -10.8869   22.8338 F   0  0  0  0  0  0  0  0  0  0  0  0
  1  2  1  0  0  0  0
  1  5  2  0  0  0  0
  2  6  2  0  0  0  0
  3  8  2  0  0  0  0
  3 16  1  0  0  0  0
  4  9  1  0  0  0  0
  4 16  2  0  0  0  0
  5 18  1  0  0  0  0
  6 20  1  0  0  0  0
  7 10  2  0  0  0  0
  7 19  1  0  0  0  0
  8 22  1  0  0  0  0
  9 22  2  0  0  0  0
 10 23  1  0  0  0  0
 11 12  2  0  0  0  0
 11 24  1  0  0  0  0
 12 25  1  0  0  0  0
 13 21  1  0  0  0  0
 13 23  2  0  0  0  0
 14 25  2  0  0  0  0
 14 26  1  0  0  0  0
 15 28  1  0  0  0  0
 15 61  2  0  0  0  0
 16 27  1  0  0  0  0
 17 27  1  0  0  0  0
 17 31  2  0  0  0  0
 17 32  1  0  0  0  0
 18 20  2  0  0  0  0
 18 37  1  0  0  0  0
 19 21  2  0  0  0  0
 19 38  1  0  0  0  0
 20 46  1  0  0  0  0
 21 39  1  0  0  0  0
 22 80  1  0  0  0  0
 23 81  1  0  0  0  0
 24 26  2  0  0  0  0
 24 80  1  0  0  0  0
 25 82  1  0  0  0  0
 26 83  1  0  0  0  0
 27 62  2  0  0  0  0
 28 63  2  0  0  0  0
 28 71  1  0  0  0  0
 29 30  2  0  0  0  0
 29 61  1  0  0  0  0
 29 70  1  0  0  0  0
 30 63  1  0  0  0  0
 30 67  1  0  0  0  0
 31 64  1  0  0  0  0
 31 68  1  0  0  0  0
 32 69  1  0  0  0  0
 32 75  2  0  0  0  0
 33 47  1  0  0  0  0
 33 72  1  0  0  0  0
 33 76  2  0  0  0  0
 34 57  1  0  0  0  0
 34 65  1  0  0  0  0
 34 77  2  0  0  0  0
 35 58  1  0  0  0  0
 35 73  1  0  0  0  0
 35 78  2  0  0  0  0
 36 66  1  0  0  0  0
 36 70  1  0  0  0  0
 36 79  2  0  0  0  0
 37 40  1  0  0  0  0
 38 47  1  0  0  0  0
 39 65  1  0  0  0  0
 40 42  1  0  0  0  0
 41 43  1  0  0  0  0
 41 44  1  0  0  0  0
 42 46  1  0  0  0  0
 43 48  1  0  0  0  0
 44 66  1  0  0  0  0
 45 48  1  0  0  0  0
 45 66  1  0  0  0  0
 46 72  1  0  0  0  0
 47 65  1  0  0  0  0
 48 64  1  0  0  0  0
 49 58  1  0  0  0  0
 50 59  1  0  0  0  0
 51 60  1  0  0  0  0
 52 60  1  0  0  0  0
 53 60  1  0  0  0  0
 54 74  1  0  0  0  0
 55 56  1  0  0  0  0
 55 59  1  0  0  0  0
 56 81  1  0  0  0  0
 57 60  1  0  0  0  0
 57 73  1  0  0  0  0
 58 74  1  0  0  0  0
 59 71  1  0  0  0  0
 62 64  1  0  0  0  0
M  CHG  1  74   1
M  ISO  4  36 100  56 101  70 100  81 101
M  END
> <Batch ID>
0195

> <Smiles>
CNC(C)C(=O)NC(C(=O)N1Cc2cc([101O:1][101CH2:1]CC(C)Nc3cnc([100NH:0][100C:0](=O)N4CCCC(n5nc(-c6ccc(Oc7ccc(F)cc7F)cc6)c(C(N)=O)c5N)C4)c(N)n3)ccc2CC1C(=O)NC1CCCc2ccccc21)C(C)(C)C

> <Shape>
0.262

> <Color>
0.086

> <Negative vol penalty>
0.000

$$$$

  -OEChem-04052305363D

 83 91  0     1  0  0  0  0  0999 V2000
  -28.4570  -34.5854   14.6578 C   0  0  0  0  0  0  0  0  0  0  0  0
  -28.8909  -33.3517   15.1322 C   0  0  0  0  0  0  0  0  0  0  0  0
  -22.9823  -10.0033   22.5430 C   0  0  0  0  0  0  0  0  0  0  0  0
  -24.0000   -9.6173   20.3861 C   0  0  0  0  0  0  0  0  0  0  0  0
  -27.6778  -35.4084   15.4699 C   0  0  0  0  0  0  0  0  0  0  0  0
  -28.5466  -32.9407   16.4195 C   0  0  0  0  0  0  0  0  0  0  0  0
  -27.3654  -27.2221   18.2656 C   0  0  0  0  0  0  0  0  0  0  0  0
  -22.2926   -8.7959   22.4337 C   0  0  0  0  0  0  0  0  0  0  0  0
  -23.3104   -8.4097   20.2768 C   0  0  0  0  0  0  0  0  0  0  0  0
  -28.1460  -26.2654   18.9131 C   0  0  0  0  0  0  0  0  0  0  0  0
  -22.9545   -5.5042   22.8334 C   0  0  0  0  0  0  0  0  0  0  0  0
  -22.9319   -4.6673   23.9491 C   0  0  0  0  0  0  0  0  0  0  0  0
  -27.2146  -26.9476   21.0312 C   0  0  0  0  0  0  0  0  0  0  0  0
  -20.5203   -4.8029   24.0019 C   0  0  0  0  0  0  0  0  0  0  0  0
  -29.9438  -19.2612   21.9523 C   0  0  0  0  0  0  0  0  0  0  0  0
  -23.8360  -10.4141   21.5191 C   0  0  0  0  0  0  0  0  0  0  0  0
  -25.8218  -11.8656   22.1953 C   0  0  0  0  0  0  0  0  0  0  0  0
  -27.3157  -35.0031   16.7642 C   0  0  0  0  0  0  0  0  0  0  0  0
  -26.5102  -28.0575   18.9985 C   0  0  0  0  0  0  0  0  0  0  0  0
  -27.7630  -33.7596   17.2501 C   0  0  0  0  0  0  0  0  0  0  0  0
  -26.4223  -27.9124   20.3904 C   0  0  0  0  0  0  0  0  0  0  0  0
  -29.5604  -18.4821   20.8797 C   0  0  0  0  0  0  0  0  0  0  0  0
  -22.4567   -7.9990   21.3007 C   0  0  0  0  0  0  0  0  0  0  0  0
  -28.0728  -26.1299   20.2963 C   0  0  0  0  0  0  0  0  0  0  0  0
  -21.7600   -5.9905   22.3020 C   0  0  0  0  0  0  0  0  0  0  0  0
  -21.7148   -4.3167   24.5333 C   0  0  0  0  0  0  0  0  0  0  0  0
  -20.5429   -5.6398   22.8862 C   0  0  0  0  0  0  0  0  0  0  0  0
  -24.5483  -11.6616   21.6312 C   0  0  0  0  0  0  0  0  0  0  0  0
  -28.7856  -19.1148   19.9290 C   0  0  0  0  0  0  0  0  0  0  0  0
  -26.0458  -13.2138   22.0587 C   0  0  0  0  0  0  0  0  0  0  0  0
  -28.8457  -21.0608   21.1022 C   0  0  0  0  0  0  0  0  0  0  0  0
  -26.7218  -10.9210   22.7896 C   0  0  0  0  0  0  0  0  0  0  0  0
  -26.3010  -31.1939   19.4710 C   0  0  0  0  0  0  0  0  0  0  0  0
  -23.5740  -30.3836   21.0298 C   0  0  0  0  0  0  0  0  0  0  0  0
  -21.7900  -28.0011   22.6994 C   0  0  0  0  0  0  0  0  0  0  0  0
  -25.8935  -17.8888   19.0145 C   0  0  0  0  0  0  0  0  0  0  0  0
  -26.5116  -35.9473   17.6223 C   0  0  0  0  0  0  0  0  0  0  0  0
  -25.6550  -29.0665   18.2823 C   0  0  0  0  0  0  0  0  0  0  0  0
  -25.5049  -28.7709   21.2209 C   0  0  0  0  0  0  0  0  0  0  0  0
  -25.8769  -35.2756   18.8373 C   0  0  0  0  0  0  0  0  0  0  0  0
  -22.9125  -16.9530   20.7217 C   0  0  0  0  0  0  0  0  0  0  0  0
  -26.8947  -34.3912   19.5507 C   0  0  0  0  0  0  0  0  0  0  0  0
  -23.1750  -15.5085   21.1512 C   0  0  0  0  0  0  0  0  0  0  0  0
  -23.5230  -17.2552   19.3550 C   0  0  0  0  0  0  0  0  0  0  0  0
  -25.2216  -15.4966   19.6646 C   0  0  0  0  0  0  0  0  0  0  0  0
  -27.3895  -33.2678   18.6317 C   0  0  1  0  0  0  0  0  0  0  0  0
  -25.2012  -30.2115   19.1825 C   0  0  1  0  0  0  0  0  0  0  0  0
  -24.6730  -15.1604   21.0619 C   0  0  2  0  0  0  0  0  0  0  0  0
  -19.6090  -27.6460   23.8888 C   0  0  0  0  0  0  0  0  0  0  0  0
  -24.6345  -31.9364   23.4327 C   0  0  0  0  0  0  0  0  0  0  0  0
  -22.9247  -30.7778   24.8478 C   0  0  0  0  0  0  0  0  0  0  0  0
  -22.1966  -32.2577   22.9763 C   0  0  0  0  0  0  0  0  0  0  0  0
  -31.1680  -16.6276   21.3291 C   0  0  0  0  0  0  0  0  0  0  0  0
  -20.9677  -25.8828   20.8031 C   0  0  0  0  0  0  0  0  0  0  0  0
  -28.3099  -18.3733   18.7227 C   0  0  0  0  0  0  0  0  0  0  0  0
  -28.8602  -23.2359   22.3246 C   0  0  0  0  0  0  0  0  0  0  0  0
  -28.3079  -24.6387   22.1339 C   0  0  0  0  0  0  0  0  0  1  0  0
  -23.2255  -30.0090   22.4500 C   0  0  1  0  0  0  0  0  0  0  0  0
  -20.3492  -27.5424   22.5643 C   0  0  2  0  0  0  0  0  0  0  0  0
  -23.2641  -31.2302   23.4116 C   0  0  0  0  0  0  0  0  0  0  0  0
  -29.6032  -20.5587   22.0960 N   0  0  0  0  0  0  0  0  0  0  0  0
  -24.0015  -12.7898   21.1706 N   0  0  0  0  0  0  0  0  0  0  0  0
  -28.4081  -20.4076   20.0089 N   0  0  0  0  0  0  0  0  0  0  0  0
  -24.9359  -13.7159   21.4453 N   0  0  0  0  0  0  0  0  0  0  0  0
  -24.6935  -29.7472   20.4752 N   0  0  0  0  0  0  0  0  0  0  0  0
  -24.9451  -16.9042   19.3375 N   0  0  0  0  0  0  0  0  0  0  0  0
  -27.0819  -14.0071   22.4048 N   0  0  0  0  0  0  0  0  0  0  0  0
  -26.3347   -9.5752   22.8487 N   0  0  0  0  0  0  0  0  0  0  0  0
  -29.9436  -17.1394   20.7806 N   0  0  0  0  0  0  0  0  0  0  0  0
  -28.4771  -22.3910   21.2168 N   0  0  0  0  0  0  0  0  0  0  0  0
  -26.4014  -32.2141   18.5444 N   0  0  0  0  0  0  0  0  0  0  0  0
  -21.9319  -29.3371   22.3892 N   0  0  0  0  0  0  0  0  0  0  0  0
  -27.2195  -17.4738   19.0273 N   0  0  0  0  0  0  0  0  0  0  0  0
  -20.2975  -26.1251   22.1066 N   0  3  0  0  0  0  0  0  0  0  0  0
  -27.8293  -11.2628   23.2693 O   0  0  0  0  0  0  0  0  0  0  0  0
  -27.0052  -31.0386   20.4618 O   0  0  0  0  0  0  0  0  0  0  0  0
  -22.8745  -31.2051   20.4320 O   0  0  0  0  0  0  0  0  0  0  0  0
  -22.6981  -27.2502   23.0490 O   0  0  0  0  0  0  0  0  0  0  0  0
  -25.5819  -19.0528   18.7407 O   0  0  0  0  0  0  0  0  0  0  0  0
  -21.7840   -6.8206   21.1939 O   0  0  0  0  0  0  0  0  0  0  0  0
  -28.8341  -25.1973   20.9309 O   0  0  0  0  0  0  0  0  0  1  0  0
  -21.6932   -3.5118   25.6038 F   0  0  0  0  0  0  0  0  0  0  0  0
  -19.3920   -6.1029   22.3795 F   0  0  0  0  0  0  0  0  0  0  0  0
  1  2  1  0  0  0  0
  1  5  2  0  0  0  0
  2  6  2  0  0  0  0
  3  8  2  0  0  0  0
  3 16  1  0  0  0  0
  4  9  1  0  0  0  0
  4 16  2  0  0  0  0
  5 18  1  0  0  0  0
  6 20  1  0  0  0  0
  7 10  2  0  0  0  0
  7 19  1  0  0  0  0
  8 23  1  0  0  0  0
  9 23  2  0  0  0  0
 10 24  1  0  0  0  0
 11 12  2  0  0  0  0
 11 25  1  0  0  0  0
 12 26  1  0  0  0  0
 13 21  1  0  0  0  0
 13 24  2  0  0  0  0
 14 26  2  0  0  0  0
 14 27  1  0  0  0  0
 15 22  1  0  0  0  0
 15 61  2  0  0  0  0
 16 28  1  0  0  0  0
 17 28  1  0  0  0  0
 17 30  2  0  0  0  0
 17 32  1  0  0  0  0
 18 20  2  0  0  0  0
 18 37  1  0  0  0  0
 19 21  2  0  0  0  0
 19 38  1  0  0  0  0
 20 46  1  0  0  0  0
 21 39  1  0  0  0  0
 22 29  2  0  0  0  0
 22 69  1  0  0  0  0
 23 80  1  0  0  0  0
 24 81  1  0  0  0  0
 25 27  2  0  0  0  0
 25 80  1  0  0  0  0
 26 82  1  0  0  0  0
 27 83  1  0  0  0  0
 28 62  2  0  0  0  0
 29 55  1  0  0  0  0
 29 63  1  0  0  0  0
 30 64  1  0  0  0  0
 30 67  1  0  0  0  0
 31 61  1  0  0  0  0
 31 63  2  0  0  0  0
 31 70  1  0  0  0  0
 32 68  1  0  0  0  0
 32 75  2  0  0  0  0
 33 47  1  0  0  0  0
 33 71  1  0  0  0  0
 33 76  2  0  0  0  0
 34 58  1  0  0  0  0
 34 65  1  0  0  0  0
 34 77  2  0  0  0  0
 35 59  1  0  0  0  0
 35 72  1  0  0  0  0
 35 78  2  0  0  0  0
 36 66  1  0  0  0  0
 36 73  1  0  0  0  0
 36 79  2  0  0  0  0
 37 40  1  0  0  0  0
 38 47  1  0  0  0  0
 39 65  1  0  0  0  0
 40 42  1  0  0  0  0
 41 43  1  0  0  0  0
 41 44  1  0  0  0  0
 42 46  1  0  0  0  0
 43 48  1  0  0  0  0
 44 66  1  0  0  0  0
 45 48  1  0  0  0  0
 45 66  1  0  0  0  0
 46 71  1  0  0  0  0
 47 65  1  0  0  0  0
 48 64  1  0  0  0  0
 49 59  1  0  0  0  0
 50 60  1  0  0  0  0
 51 60  1  0  0  0  0
 52 60  1  0  0  0  0
 53 69  1  0  0  0  0
 54 74  1  0  0  0  0
 55 73  1  0  0  0  0
 56 57  1  0  0  0  0
 56 70  1  0  0  0  0
 57 81  1  0  0  0  0
 58 60  1  0  0  0  0
 58 72  1  0  0  0  0
 59 74  1  0  0  0  0
 62 64  1  0  0  0  0
M  CHG  1  74   1
M  ISO  4  36 100  57 101  73 100  81 101
M  END
> <Batch ID>
0195

> <Smiles>
CNc1cnc(NC[101CH2:1][101O:1]c2ccc3c(c2)CN(C(=O)C(NC(=O)C(C)NC)C(C)(C)C)C(C(=O)NC2CCCc4ccccc42)C3)nc1C[100NH:0][100C:0](=O)N1CCCC(n2nc(-c3ccc(Oc4ccc(F)cc4F)cc3)c(C(N)=O)c2N)C1

> <Shape>
0.278

> <Color>
0.093

> <Negative vol penalty>
0.000

$$$$

  -OEChem-04052305363D

 87 95  0     1  0  0  0  0  0999 V2000
  -44.4616  -16.6102   27.9255 C   0  0  0  0  0  0  0  0  0  0  0  0
  -43.2620  -16.7310   27.2314 C   0  0  0  0  0  0  0  0  0  0  0  0
  -23.0002   -9.8920   19.9817 C   0  0  0  0  0  0  0  0  0  0  0  0
  -23.7259   -9.9446   22.2856 C   0  0  0  0  0  0  0  0  0  0  0  0
  -45.6571  -16.4494   27.2263 C   0  0  0  0  0  0  0  0  0  0  0  0
  -43.2573  -16.6922   25.8376 C   0  0  0  0  0  0  0  0  0  0  0  0
  -39.5674  -13.7580   23.9882 C   0  0  0  0  0  0  0  0  0  0  0  0
  -22.2344   -8.7573   20.2488 C   0  0  0  0  0  0  0  0  0  0  0  0
  -22.9600   -8.8098   22.5527 C   0  0  0  0  0  0  0  0  0  0  0  0
  -38.2790  -14.2905   23.9705 C   0  0  0  0  0  0  0  0  0  0  0  0
  -23.2060   -5.4708   22.0825 C   0  0  0  0  0  0  0  0  0  0  0  0
  -23.7942   -4.4543   22.8350 C   0  0  0  0  0  0  0  0  0  0  0  0
  -38.5330  -14.8112   21.6288 C   0  0  0  0  0  0  0  0  0  0  0  0
  -22.0706   -4.6972   24.5105 C   0  0  0  0  0  0  0  0  0  0  0  0
  -29.8726  -17.7927   22.6644 C   0  0  0  0  0  0  0  0  0  0  0  0
  -23.7461  -10.4857   21.0001 C   0  0  0  0  0  0  0  0  0  0  0  0
  -24.1300  -13.0014   20.8226 C   0  0  0  0  0  0  0  0  0  0  0  0
  -45.6659  -16.3988   25.8235 C   0  0  0  0  0  0  0  0  0  0  0  0
  -40.3536  -13.7580   22.8271 C   0  0  0  0  0  0  0  0  0  0  0  0
  -44.4542  -16.5318   25.1189 C   0  0  0  0  0  0  0  0  0  0  0  0
  -39.8300  -14.2758   21.6338 C   0  0  0  0  0  0  0  0  0  0  0  0
  -22.2142   -8.2162   21.5343 C   0  0  0  0  0  0  0  0  0  0  0  0
  -37.7627  -14.8198   22.7914 C   0  0  0  0  0  0  0  0  0  0  0  0
  -22.0500   -6.1006   22.5440 C   0  0  0  0  0  0  0  0  0  0  0  0
  -23.2265   -4.0675   24.0490 C   0  0  0  0  0  0  0  0  0  0  0  0
  -21.4823   -5.7138   23.7580 C   0  0  0  0  0  0  0  0  0  0  0  0
  -24.5379  -11.6576   20.7246 C   0  0  0  0  0  0  0  0  0  0  0  0
  -30.5799  -16.9026   21.8837 C   0  0  0  0  0  0  0  0  0  0  0  0
  -25.2393  -13.7244   20.4576 C   0  0  0  0  0  0  0  0  0  0  0  0
  -32.0795  -18.4984   22.0055 C   0  0  0  0  0  0  0  0  0  0  0  0
  -22.8618  -13.5473   21.2092 C   0  0  0  0  0  0  0  0  0  0  0  0
  -43.1262  -15.0713   21.9954 C   0  0  0  0  0  0  0  0  0  0  0  0
  -42.7046  -13.3153   19.3008 C   0  0  0  0  0  0  0  0  0  0  0  0
  -32.9995  -19.6656   19.2590 C   0  0  0  0  0  0  0  0  0  0  0  0
  -40.5486  -11.7240   17.1874 C   0  0  0  0  0  0  0  0  0  0  0  0
  -30.7183  -14.6886   20.6898 C   0  0  0  0  0  0  0  0  0  0  0  0
  -46.9885  -16.2710   25.1100 C   0  0  0  0  0  0  0  0  0  0  0  0
  -41.7315  -13.1556   22.8562 C   0  0  0  0  0  0  0  0  0  0  0  0
  -40.6259  -14.2812   20.3551 C   0  0  0  0  0  0  0  0  0  0  0  0
  -46.8534  -15.8641   23.6449 C   0  0  0  0  0  0  0  0  0  0  0  0
  -29.6009  -12.2337   18.3656 C   0  0  0  0  0  0  0  0  0  0  0  0
  -45.7755  -16.6957   22.9571 C   0  0  0  0  0  0  0  0  0  0  0  0
  -28.1505  -11.9755   18.7802 C   0  0  0  0  0  0  0  0  0  0  0  0
  -30.5015  -12.4783   19.5750 C   0  0  0  0  0  0  0  0  0  0  0  0
  -28.5860  -13.2670   20.9085 C   0  0  0  0  0  0  0  0  0  0  0  0
  -44.4053  -16.4697   23.6076 C   0  0  1  0  0  0  0  0  0  0  0  0
  -42.6342  -13.6746   21.7411 C   0  0  1  0  0  0  0  0  0  0  0  0
  -27.6282  -13.0793   19.7206 C   0  0  2  0  0  0  0  0  0  0  0  0
  -29.7399  -18.5379   17.9114 C   0  0  0  0  0  0  0  0  0  0  0  0
  -40.4951  -10.4107   15.0498 C   0  0  0  0  0  0  0  0  0  0  0  0
  -43.0940  -15.8908   17.7116 C   0  0  0  0  0  0  0  0  0  0  0  0
  -42.1066  -14.7316   15.7242 C   0  0  0  0  0  0  0  0  0  0  0  0
  -44.2224  -13.8829   16.7371 C   0  0  0  0  0  0  0  0  0  0  0  0
  -39.4246   -9.3446   18.5417 C   0  0  0  0  0  0  0  0  0  0  0  0
  -33.8552  -20.4543   23.1772 C   0  0  0  0  0  0  0  0  0  0  0  0
  -33.3147  -20.5004   20.4325 C   0  0  0  0  0  0  0  0  0  0  0  0
  -35.1632  -17.2939   22.4132 C   0  0  0  0  0  0  0  0  0  0  0  0
  -31.2509  -18.6216   17.8836 C   0  0  0  0  0  0  0  0  0  0  0  0
  -36.2560  -16.3996   21.8480 C   0  0  0  0  0  0  0  0  0  1  0  0
  -42.0385  -13.5483   17.9662 C   0  0  1  0  0  0  0  0  0  0  0  0
  -40.5850  -10.3394   16.5662 C   0  0  2  0  0  0  0  0  0  0  0  0
  -42.8508  -14.5152   17.0592 C   0  0  0  0  0  0  0  0  0  0  0  0
  -25.8071  -11.5315   20.3283 N   0  0  0  0  0  0  0  0  0  0  0  0
  -31.8454  -17.3058   21.5045 N   0  0  0  0  0  0  0  0  0  0  0  0
  -26.2064  -12.8054   20.1739 N   0  0  0  0  0  0  0  0  0  0  0  0
  -41.9703  -13.6867   20.4360 N   0  0  0  0  0  0  0  0  0  0  0  0
  -29.9460  -13.5395   20.4178 N   0  0  0  0  0  0  0  0  0  0  0  0
  -25.4721  -15.0501   20.3548 N   0  0  0  0  0  0  0  0  0  0  0  0
  -21.8306  -12.6628   21.5534 N   0  0  0  0  0  0  0  0  0  0  0  0
  -34.0290  -19.2212   18.5469 N   0  0  0  0  0  0  0  0  0  0  0  0
  -30.0736  -15.6439   21.4749 N   0  0  0  0  0  0  0  0  0  0  0  0
  -43.8397  -15.2113   23.1705 N   0  0  0  0  0  0  0  0  0  0  0  0
  -41.8164  -12.2288   17.3849 N   0  0  0  0  0  0  0  0  0  0  0  0
  -34.8734  -18.4077   21.5211 N   0  0  0  0  0  0  0  0  0  0  0  0
  -31.7106  -19.4317   19.0128 N   0  3  0  0  0  0  0  0  0  0  0  0
  -39.4472   -9.5171   17.0663 N   0  3  0  0  0  0  0  0  0  0  0  0
  -22.6445  -14.7825   21.2323 O   0  0  0  0  0  0  0  0  0  0  0  0
  -42.8782  -15.9562   21.1847 O   0  0  0  0  0  0  0  0  0  0  0  0
  -43.8318  -12.8155   19.3350 O   0  0  0  0  0  0  0  0  0  0  0  0
  -39.5001  -12.3017   17.4660 O   0  0  0  0  0  0  0  0  0  0  0  0
  -31.8567  -14.8279   20.2354 O   0  0  0  0  0  0  0  0  0  0  0  0
  -21.4668   -7.1090   21.7954 O   0  0  0  0  0  0  0  0  0  0  0  0
  -36.5057  -15.3408   22.7715 O   0  0  0  0  0  0  0  0  0  1  0  0
  -23.7906   -3.0903   24.7708 F   0  0  0  0  0  0  0  0  0  0  0  0
  -20.3712   -6.3143   24.2059 F   0  0  0  0  0  0  0  0  0  0  0  0
  -30.8215  -19.1939   22.9430 S   0  0  0  0  0  0  0  0  0  0  0  0
  -33.5461  -19.4140   21.7953 S   0  0  2  0  0  0  0  0  0  0  0  0
  1  2  1  0  0  0  0
  1  5  2  0  0  0  0
  2  6  2  0  0  0  0
  3  8  2  0  0  0  0
  3 16  1  0  0  0  0
  4  9  1  0  0  0  0
  4 16  2  0  0  0  0
  5 18  1  0  0  0  0
  6 20  1  0  0  0  0
  7 10  2  0  0  0  0
  7 19  1  0  0  0  0
  8 22  1  0  0  0  0
  9 22  2  0  0  0  0
 10 23  1  0  0  0  0
 11 12  2  0  0  0  0
 11 24  1  0  0  0  0
 12 25  1  0  0  0  0
 13 21  1  0  0  0  0
 13 23  2  0  0  0  0
 14 25  2  0  0  0  0
 14 26  1  0  0  0  0
 15 28  2  0  0  0  0
 15 86  1  0  0  0  0
 16 27  1  0  0  0  0
 17 27  1  0  0  0  0
 17 29  2  0  0  0  0
 17 31  1  0  0  0  0
 18 20  2  0  0  0  0
 18 37  1  0  0  0  0
 19 21  2  0  0  0  0
 19 38  1  0  0  0  0
 20 46  1  0  0  0  0
 21 39  1  0  0  0  0
 22 82  1  0  0  0  0
 23 83  1  0  0  0  0
 24 26  2  0  0  0  0
 24 82  1  0  0  0  0
 25 84  1  0  0  0  0
 26 85  1  0  0  0  0
 27 63  2  0  0  0  0
 28 64  1  0  0  0  0
 28 71  1  0  0  0  0
 29 65  1  0  0  0  0
 29 68  1  0  0  0  0
 30 64  2  0  0  0  0
 30 86  1  0  0  0  0
 30 87  1  0  0  0  0
 31 69  1  0  0  0  0
 31 77  2  0  0  0  0
 32 47  1  0  0  0  0
 32 72  1  0  0  0  0
 32 78  2  0  0  0  0
 33 60  1  0  0  0  0
 33 66  1  0  0  0  0
 33 79  2  0  0  0  0
 34 56  1  0  0  0  0
 34 70  1  0  0  0  0
 34 75  2  0  0  0  0
 35 61  1  0  0  0  0
 35 73  1  0  0  0  0
 35 80  2  0  0  0  0
 36 67  1  0  0  0  0
 36 71  1  0  0  0  0
 36 81  2  0  0  0  0
 37 40  1  0  0  0  0
 38 47  1  0  0  0  0
 39 66  1  0  0  0  0
 40 42  1  0  0  0  0
 41 43  1  0  0  0  0
 41 44  1  0  0  0  0
 42 46  1  0  0  0  0
 43 48  1  0  0  0  0
 44 67  1  0  0  0  0
 45 48  1  0  0  0  0
 45 67  1  0  0  0  0
 46 72  1  0  0  0  0
 47 66  1  0  0  0  0
 48 65  1  0  0  0  0
 49 58  1  0  0  0  0
 50 61  1  0  0  0  0
 51 62  1  0  0  0  0
 52 62  1  0  0  0  0
 53 62  1  0  0  0  0
 54 76  1  0  0  0  0
 55 87  1  0  0  0  0
 56 87  1  0  0  0  0
 57 59  1  0  0  0  0
 57 74  1  0  0  0  0
 58 75  1  0  0  0  0
 59 83  1  0  0  0  0
 60 62  1  0  0  0  0
 60 73  1  0  0  0  0
 61 76  1  0  0  0  0
 63 65  1  0  0  0  0
 74 87  1  0  0  0  0
M  CHG  2  75   1  76   1
M  ISO  4  36 100  59 101  71 100  83 101
M  END
> <Batch ID>
0195

> <Smiles>
CCN=C(N)CS(C)(NC[101CH2:1][101O:1]c1ccc2c(c1)CN(C(=O)C(NC(=O)C(C)NC)C(C)(C)C)C(C(=O)NC1CCCc3ccccc31)C2)c1nc([100NH:0][100C:0](=O)N2CCCC(n3nc(-c4ccc(Oc5ccc(F)cc5F)cc4)c(C(N)=O)c3N)C2)cs1

> <Shape>
0.179

> <Color>
0.190

> <Negative vol penalty>
0.000

$$$$

  -OEChem-04052305363D

 87 95  0     1  0  0  0  0  0999 V2000
  -19.7432  -34.0544   21.3490 C   0  0  0  0  0  0  0  0  0  0  0  0
  -20.9874  -33.5777   20.9488 C   0  0  0  0  0  0  0  0  0  0  0  0
  -24.4715   -9.2024   21.4622 C   0  0  0  0  0  0  0  0  0  0  0  0
  -22.5624  -10.5281   20.8026 C   0  0  0  0  0  0  0  0  0  0  0  0
  -19.0677  -33.4385   22.4018 C   0  0  0  0  0  0  0  0  0  0  0  0
  -21.5573  -32.4854   21.6019 C   0  0  0  0  0  0  0  0  0  0  0  0
  -25.0407  -28.1104   19.1055 C   0  0  0  0  0  0  0  0  0  0  0  0
  -23.6596   -8.0707   21.5376 C   0  0  0  0  0  0  0  0  0  0  0  0
  -21.7505   -9.3964   20.8780 C   0  0  0  0  0  0  0  0  0  0  0  0
  -26.4216  -27.9248   19.0567 C   0  0  0  0  0  0  0  0  0  0  0  0
  -21.4272   -6.7472   23.7031 C   0  0  0  0  0  0  0  0  0  0  0  0
  -21.5725   -5.9193   24.8162 C   0  0  0  0  0  0  0  0  0  0  0  0
  -26.2877  -26.4695   20.9759 C   0  0  0  0  0  0  0  0  0  0  0  0
  -22.1644   -4.0774   23.3691 C   0  0  0  0  0  0  0  0  0  0  0  0
  -27.7214  -19.3733   20.0065 C   0  0  0  0  0  0  0  0  0  0  0  0
  -23.9229  -10.4311   21.0947 C   0  0  0  0  0  0  0  0  0  0  0  0
  -25.4711  -12.0646   19.8937 C   0  0  0  0  0  0  0  0  0  0  0  0
  -19.6253  -32.3321   23.0618 C   0  0  0  0  0  0  0  0  0  0  0  0
  -24.2730  -27.4846   20.0982 C   0  0  0  0  0  0  0  0  0  0  0  0
  -20.8893  -31.8550   22.6654 C   0  0  0  0  0  0  0  0  0  0  0  0
  -24.8969  -26.6468   21.0336 C   0  0  0  0  0  0  0  0  0  0  0  0
  -22.2991   -8.1677   21.2455 C   0  0  0  0  0  0  0  0  0  0  0  0
  -27.0457  -27.1065   19.9937 C   0  0  0  0  0  0  0  0  0  0  0  0
  -21.6505   -6.2401   22.4229 C   0  0  0  0  0  0  0  0  0  0  0  0
  -21.9411   -4.5844   24.6492 C   0  0  0  0  0  0  0  0  0  0  0  0
  -22.0191   -4.9053   22.2559 C   0  0  0  0  0  0  0  0  0  0  0  0
  -24.7610  -11.6006   21.0172 C   0  0  0  0  0  0  0  0  0  0  0  0
  -27.1680  -19.3302   21.2690 C   0  0  0  0  0  0  0  0  0  0  0  0
  -26.1064  -13.2000   20.3338 C   0  0  0  0  0  0  0  0  0  0  0  0
  -27.6384  -21.4708   21.1880 C   0  0  0  0  0  0  0  0  0  0  0  0
  -25.5493  -11.5182   18.5704 C   0  0  0  0  0  0  0  0  0  0  0  0
  -22.4238  -28.4990   22.4763 C   0  0  0  0  0  0  0  0  0  0  0  0
  -31.4333  -24.1649   21.3317 C   0  0  0  0  0  0  0  0  0  0  0  0
  -21.7609  -25.3392   22.7897 C   0  0  0  0  0  0  0  0  0  0  0  0
  -22.7332  -22.1094   22.2700 C   0  0  0  0  0  0  0  0  0  0  0  0
  -26.0946  -18.0149   23.1301 C   0  0  0  0  0  0  0  0  0  0  0  0
  -18.8789  -31.7289   24.2253 C   0  0  0  0  0  0  0  0  0  0  0  0
  -22.7810  -27.6739   20.1210 C   0  0  0  0  0  0  0  0  0  0  0  0
  -24.1153  -25.9360   22.1070 C   0  0  0  0  0  0  0  0  0  0  0  0
  -19.3829  -30.3430   24.6197 C   0  0  0  0  0  0  0  0  0  0  0  0
  -26.6826  -15.0491   25.0104 C   0  0  0  0  0  0  0  0  0  0  0  0
  -20.9063  -30.3305   24.6955 C   0  0  0  0  0  0  0  0  0  0  0  0
  -26.2935  -13.9257   24.0467 C   0  0  0  0  0  0  0  0  0  0  0  0
  -25.7687  -16.2644   24.8635 C   0  0  0  0  0  0  0  0  0  0  0  0
  -25.2515  -15.6597   22.5320 C   0  0  0  0  0  0  0  0  0  0  0  0
  -21.5292  -30.6570   23.3328 C   0  0  1  0  0  0  0  0  0  0  0  0
  -22.1644  -27.3968   21.4886 C   0  0  1  0  0  0  0  0  0  0  0  0
  -26.1840  -14.4391   22.5976 C   0  0  2  0  0  0  0  0  0  0  0  0
  -31.9940  -23.6949   20.0134 C   0  0  0  0  0  0  0  0  0  0  0  0
  -22.0000  -19.7429   22.6693 C   0  0  0  0  0  0  0  0  0  0  0  0
  -28.4817  -22.9114   24.0101 C   0  0  0  0  0  0  0  0  0  0  0  0
  -29.4987  -28.7961   20.9614 C   0  0  0  0  0  0  0  0  0  0  0  0
  -22.5490  -25.5930   25.7264 C   0  0  0  0  0  0  0  0  0  0  0  0
  -22.7166  -23.0970   25.8251 C   0  0  0  0  0  0  0  0  0  0  0  0
  -20.5295  -24.1789   25.3067 C   0  0  0  0  0  0  0  0  0  0  0  0
  -22.6650  -21.5188   19.3708 C   0  0  0  0  0  0  0  0  0  0  0  0
  -27.7625  -22.9147   21.5851 C   0  0  0  0  0  0  0  0  0  0  0  0
  -30.3983  -26.4518   21.2358 C   0  0  0  0  0  0  0  0  0  0  0  0
  -30.1276  -24.9435   21.2843 C   0  0  2  0  0  0  0  0  0  0  0  0
  -22.3625  -24.1924   23.5655 C   0  0  1  0  0  0  0  0  0  0  0  0
  -21.9923  -20.9139   21.6990 C   0  0  2  0  0  0  0  0  0  0  0  0
  -28.9041  -23.1883   22.5732 C   0  0  1  0  0  0  0  0  0  0  0  0
  -29.1414  -27.3213   21.0973 C   0  0  2  0  0  0  0  0  0  1  0  0
  -22.0547  -24.2801   25.0870 C   0  0  0  0  0  0  0  0  0  0  0  0
  -24.9291  -12.3776   22.0904 N   0  0  0  0  0  0  0  0  0  0  0  0
  -27.1199  -20.5320   21.9481 N   0  0  0  0  0  0  0  0  0  0  0  0
  -25.7523  -13.3413   21.6434 N   0  0  0  0  0  0  0  0  0  0  0  0
  -22.6599  -26.1578   22.0915 N   0  0  0  0  0  0  0  0  0  0  0  0
  -25.7172  -16.6973   23.4654 N   0  0  0  0  0  0  0  0  0  0  0  0
  -26.9278  -14.0812   19.7247 N   0  0  0  0  0  0  0  0  0  0  0  0
  -24.8341  -10.3464   18.2880 N   0  0  0  0  0  0  0  0  0  0  0  0
  -26.6672  -18.1465   21.8655 N   0  0  0  0  0  0  0  0  0  0  0  0
  -21.4738  -29.5024   22.4621 N   0  0  0  0  0  0  0  0  0  0  0  0
  -21.8816  -22.9715   22.9280 N   0  0  0  0  0  0  0  0  0  0  0  0
  -22.6260  -20.4723   20.4244 N   0  3  0  0  0  0  0  0  0  0  0  0
  -29.3063  -24.6153   22.4850 N   0  3  0  0  0  0  0  0  0  0  0  0
  -26.2463  -12.0441   17.6698 O   0  0  0  0  0  0  0  0  0  0  0  0
  -23.4120  -28.4426   23.1989 O   0  0  0  0  0  0  0  0  0  0  0  0
  -32.0284  -23.9405   22.3859 O   0  0  0  0  0  0  0  0  0  0  0  0
  -20.5377  -25.4984   22.7968 O   0  0  0  0  0  0  0  0  0  0  0  0
  -23.9467  -22.2614   22.1481 O   0  0  0  0  0  0  0  0  0  0  0  0
  -25.9474  -18.9525   23.9183 O   0  0  0  0  0  0  0  0  0  0  0  0
  -21.5066   -7.0635   21.3188 O   0  0  0  0  0  0  0  0  0  0  0  0
  -28.3935  -26.9241   19.9487 O   0  0  0  0  0  0  0  0  0  1  0  0
  -22.0821   -3.7899   25.7184 F   0  0  0  0  0  0  0  0  0  0  0  0
  -22.2361   -4.4128   21.0286 F   0  0  0  0  0  0  0  0  0  0  0  0
  -28.2029  -20.9789   19.6438 S   0  0  0  0  0  0  0  0  0  0  0  0
  1  2  1  0  0  0  0
  1  5  2  0  0  0  0
  2  6  2  0  0  0  0
  3  8  2  0  0  0  0
  3 16  1  0  0  0  0
  4  9  1  0  0  0  0
  4 16  2  0  0  0  0
  5 18  1  0  0  0  0
  6 20  1  0  0  0  0
  7 10  2  0  0  0  0
  7 19  1  0  0  0  0
  8 22  1  0  0  0  0
  9 22  2  0  0  0  0
 10 23  1  0  0  0  0
 11 12  2  0  0  0  0
 11 24  1  0  0  0  0
 12 25  1  0  0  0  0
 13 21  1  0  0  0  0
 13 23  2  0  0  0  0
 14 25  2  0  0  0  0
 14 26  1  0  0  0  0
 15 28  2  0  0  0  0
 15 87  1  0  0  0  0
 16 27  1  0  0  0  0
 17 27  1  0  0  0  0
 17 29  2  0  0  0  0
 17 31  1  0  0  0  0
 18 20  2  0  0  0  0
 18 37  1  0  0  0  0
 19 21  2  0  0  0  0
 19 38  1  0  0  0  0
 20 46  1  0  0  0  0
 21 39  1  0  0  0  0
 22 83  1  0  0  0  0
 23 84  1  0  0  0  0
 24 26  2  0  0  0  0
 24 83  1  0  0  0  0
 25 85  1  0  0  0  0
 26 86  1  0  0  0  0
 27 65  2  0  0  0  0
 28 66  1  0  0  0  0
 28 72  1  0  0  0  0
 29 67  1  0  0  0  0
 29 70  1  0  0  0  0
 30 57  1  0  0  0  0
 30 66  2  0  0  0  0
 30 87  1  0  0  0  0
 31 71  1  0  0  0  0
 31 77  2  0  0  0  0
 32 47  1  0  0  0  0
 32 73  1  0  0  0  0
 32 78  2  0  0  0  0
 33 49  1  0  0  0  0
 33 59  1  0  0  0  0
 33 79  2  0  0  0  0
 34 60  1  0  0  0  0
 34 68  1  0  0  0  0
 34 80  2  0  0  0  0
 35 61  1  0  0  0  0
 35 74  1  0  0  0  0
 35 81  2  0  0  0  0
 36 69  1  0  0  0  0
 36 72  1  0  0  0  0
 36 82  2  0  0  0  0
 37 40  1  0  0  0  0
 38 47  1  0  0  0  0
 39 68  1  0  0  0  0
 40 42  1  0  0  0  0
 41 43  1  0  0  0  0
 41 44  1  0  0  0  0
 42 46  1  0  0  0  0
 43 48  1  0  0  0  0
 44 69  1  0  0  0  0
 45 48  1  0  0  0  0
 45 69  1  0  0  0  0
 46 73  1  0  0  0  0
 47 68  1  0  0  0  0
 48 67  1  0  0  0  0
 50 61  1  0  0  0  0
 51 62  1  0  0  0  0
 52 63  1  0  0  0  0
 53 64  1  0  0  0  0
 54 64  1  0  0  0  0
 55 64  1  0  0  0  0
 56 75  1  0  0  0  0
 57 62  1  0  0  0  0
 58 59  1  0  0  0  0
 58 63  1  0  0  0  0
 59 76  1  0  0  0  0
 60 64  1  0  0  0  0
 60 74  1  0  0  0  0
 61 75  1  0  0  0  0
 62 76  1  0  0  0  0
 63 84  1  0  0  0  0
 65 67  1  0  0  0  0
M  CHG  2  75   1  76   1
M  ISO  4  36 100  63 101  72 100  84 101
M  END
> <Batch ID>
0195

> <Smiles>
CNC(C)C(=O)NC(C(=O)N1Cc2cc([101O:1][101CH:1](C)CC(NC(C)Cc3nc([100NH:0][100C:0](=O)N4CCCC(n5nc(-c6ccc(Oc7ccc(F)cc7F)cc6)c(C(N)=O)c5N)C4)cs3)C(C)=O)ccc2CC1C(=O)NC1CCCc2ccccc21)C(C)(C)C

> <Shape>
0.222

> <Color>
0.135

> <Negative vol penalty>
0.000

$$$$

  -OEChem-04052305363D

 87 95  0     1  0  0  0  0  0999 V2000
  -26.6663  -23.1234   17.5848 C   0  0  0  0  0  0  0  0  0  0  0  0
  -25.5336  -23.7091   18.1410 C   0  0  0  0  0  0  0  0  0  0  0  0
  -27.7976  -15.5487   21.3483 C   0  0  0  0  0  0  0  0  0  0  0  0
  -25.5607  -15.9536   20.5304 C   0  0  0  0  0  0  0  0  0  0  0  0
  -27.9192  -23.3558   18.1508 C   0  0  0  0  0  0  0  0  0  0  0  0
  -25.6530  -24.5268   19.2642 C   0  0  0  0  0  0  0  0  0  0  0  0
  -22.9301  -28.7783   18.8704 C   0  0  0  0  0  0  0  0  0  0  0  0
  -27.6138  -14.1773   21.1724 C   0  0  0  0  0  0  0  0  0  0  0  0
  -25.3768  -14.5821   20.3543 C   0  0  0  0  0  0  0  0  0  0  0  0
  -21.5581  -28.6790   19.0975 C   0  0  0  0  0  0  0  0  0  0  0  0
  -24.6689  -11.8958   22.2814 C   0  0  0  0  0  0  0  0  0  0  0  0
  -23.4663  -11.3417   22.7199 C   0  0  0  0  0  0  0  0  0  0  0  0
  -21.8729  -29.5267   21.3339 C   0  0  0  0  0  0  0  0  0  0  0  0
  -22.9842  -10.6072   20.4692 C   0  0  0  0  0  0  0  0  0  0  0  0
  -26.7710  -16.4369   21.0274 C   0  0  0  0  0  0  0  0  0  0  0  0
  -27.9354  -18.6662   20.6010 C   0  0  0  0  0  0  0  0  0  0  0  0
  -28.0551  -24.1845   19.2757 C   0  0  0  0  0  0  0  0  0  0  0  0
  -23.7866  -29.2430   19.8788 C   0  0  0  0  0  0  0  0  0  0  0  0
  -26.9087  -24.7694   19.8466 C   0  0  0  0  0  0  0  0  0  0  0  0
  -23.2551  -29.6333   21.1163 C   0  0  0  0  0  0  0  0  0  0  0  0
  -26.4034  -13.6940   20.6753 C   0  0  0  0  0  0  0  0  0  0  0  0
  -21.0297  -29.0505   20.3303 C   0  0  0  0  0  0  0  0  0  0  0  0
  -25.0291  -11.8058   20.9368 C   0  0  0  0  0  0  0  0  0  0  0  0
  -22.6240  -10.6973   21.8138 C   0  0  0  0  0  0  0  0  0  0  0  0
  -24.1868  -11.1614   20.0308 C   0  0  0  0  0  0  0  0  0  0  0  0
  -26.9601  -17.8536   21.2095 C   0  0  0  0  0  0  0  0  0  0  0  0
  -27.6941  -19.9234   21.0989 C   0  0  0  0  0  0  0  0  0  0  0  0
  -21.3619  -23.0563   21.2897 C   0  0  0  0  0  0  0  0  0  0  0  0
  -20.1424  -23.3690   19.4319 C   0  0  0  0  0  0  0  0  0  0  0  0
  -19.8299  -24.6947   21.2156 C   0  0  0  0  0  0  0  0  0  0  0  0
  -28.9671  -18.3160   19.6691 C   0  0  0  0  0  0  0  0  0  0  0  0
  -26.2269  -28.0048   21.4960 C   0  0  0  0  0  0  0  0  0  0  0  0
  -26.4574  -31.0127   22.6883 C   0  0  0  0  0  0  0  0  0  0  0  0
  -24.9221  -33.9819   23.3765 C   0  0  0  0  0  0  0  0  0  0  0  0
  -22.8109  -22.5770   23.2939 C   0  0  0  0  0  0  0  0  0  0  0  0
  -29.4244  -24.3682   19.8808 C   0  0  0  0  0  0  0  0  0  0  0  0
  -25.2609  -29.3694   19.6091 C   0  0  0  0  0  0  0  0  0  0  0  0
  -24.1293  -30.1577   22.2250 C   0  0  0  0  0  0  0  0  0  0  0  0
  -29.5108  -25.5482   20.8453 C   0  0  0  0  0  0  0  0  0  0  0  0
  -25.9309  -22.1492   24.9552 C   0  0  0  0  0  0  0  0  0  0  0  0
  -28.3265  -25.5396   21.8068 C   0  0  0  0  0  0  0  0  0  0  0  0
  -26.6402  -21.0774   24.1243 C   0  0  0  0  0  0  0  0  0  0  0  0
  -24.4284  -21.8904   25.0510 C   0  0  0  0  0  0  0  0  0  0  0  0
  -24.4562  -20.6332   22.9326 C   0  0  0  0  0  0  0  0  0  0  0  0
  -27.0005  -25.6824   21.0500 C   0  0  1  0  0  0  0  0  0  0  0  0
  -26.1032  -29.3701   20.8811 C   0  0  1  0  0  0  0  0  0  0  0  0
  -25.9620  -20.8868   22.7534 C   0  0  2  0  0  0  0  0  0  0  0  0
  -24.6974  -36.3744   24.0998 C   0  0  0  0  0  0  0  0  0  0  0  0
  -18.3357  -22.7583   16.2260 C   0  0  0  0  0  0  0  0  0  0  0  0
  -19.3911  -24.9714   16.8038 C   0  0  0  0  0  0  0  0  0  0  0  0
  -16.8428  -25.7208   21.1902 C   0  0  0  0  0  0  0  0  0  0  0  0
  -26.3537  -29.7806   25.4777 C   0  0  0  0  0  0  0  0  0  0  0  0
  -25.8367  -32.0551   26.3873 C   0  0  0  0  0  0  0  0  0  0  0  0
  -28.0027  -31.6431   25.2206 C   0  0  0  0  0  0  0  0  0  0  0  0
  -25.5061  -34.9814   20.6528 C   0  0  0  0  0  0  0  0  0  0  0  0
  -19.2739  -28.6988   21.8954 C   0  0  0  0  0  0  0  0  0  1  0  0
  -25.8672  -31.7421   23.8709 C   0  0  1  0  0  0  0  0  0  0  0  0
  -25.3372  -35.4169   23.1065 C   0  0  2  0  0  0  0  0  0  0  0  0
  -18.8084  -23.6743   17.3455 C   0  0  0  0  0  0  0  0  0  0  0  0
  -18.1384  -26.5284   21.1752 C   0  0  1  0  0  0  0  0  0  0  0  0
  -17.9753  -27.8945   21.8616 C   0  0  1  0  0  0  0  0  0  0  0  0
  -26.4986  -31.2935   25.2191 C   0  0  0  0  0  0  0  0  0  0  0  0
  -26.1591  -18.5371   22.0312 N   0  0  0  0  0  0  0  0  0  0  0  0
  -21.1020  -22.6503   20.0362 N   0  0  0  0  0  0  0  0  0  0  0  0
  -20.7681  -24.0677   21.9435 N   0  0  0  0  0  0  0  0  0  0  0  0
  -19.4641  -24.4019   19.9573 N   0  0  0  0  0  0  0  0  0  0  0  0
  -26.6307  -19.7924   21.9427 N   0  0  0  0  0  0  0  0  0  0  0  0
  -25.5651  -30.2568   21.9147 N   0  0  0  0  0  0  0  0  0  0  0  0
  -23.8535  -21.7243   23.7143 N   0  0  0  0  0  0  0  0  0  0  0  0
  -28.2901  -21.1170   20.8928 N   0  0  0  0  0  0  0  0  0  0  0  0
  -28.6783  -18.3758   18.2989 N   0  0  0  0  0  0  0  0  0  0  0  0
  -22.3666  -22.3460   21.9924 N   0  0  0  0  0  0  0  0  0  0  0  0
  -19.8107  -23.0004   18.1101 N   0  0  0  0  0  0  0  0  0  0  0  0
  -19.1737  -25.7486   21.8240 N   0  0  0  0  0  0  0  0  0  0  0  0
  -26.7877  -27.0593   20.6586 N   0  0  0  0  0  0  0  0  0  0  0  0
  -26.0133  -33.1656   23.5870 N   0  0  0  0  0  0  0  0  0  0  0  0
  -24.9297  -35.8240   21.7320 N   0  3  0  0  0  0  0  0  0  0  0  0
  -30.1063  -17.9448   20.0407 O   0  0  0  0  0  0  0  0  0  0  0  0
  -25.8435  -27.8229   22.6456 O   0  0  0  0  0  0  0  0  0  0  0  0
  -27.6643  -31.1158   22.4550 O   0  0  0  0  0  0  0  0  0  0  0  0
  -23.7473  -33.6219   23.4022 O   0  0  0  0  0  0  0  0  0  0  0  0
  -22.3651  -23.4657   24.0242 O   0  0  0  0  0  0  0  0  0  0  0  0
  -17.5071  -27.7086   23.1985 O   0  0  0  0  0  0  0  0  0  0  0  0
  -26.2238  -12.3558   20.5032 O   0  0  0  0  0  0  0  0  0  0  0  0
  -19.6909  -28.9540   20.5548 O   0  0  0  0  0  0  0  0  0  1  0  0
  -21.4699  -10.1638   22.2353 F   0  0  0  0  0  0  0  0  0  0  0  0
  -24.5281  -11.0707   18.7381 F   0  0  0  0  0  0  0  0  0  0  0  0
  1  2  1  0  0  0  0
  1  5  2  0  0  0  0
  2  6  2  0  0  0  0
  3  8  2  0  0  0  0
  3 15  1  0  0  0  0
  4  9  1  0  0  0  0
  4 15  2  0  0  0  0
  5 17  1  0  0  0  0
  6 19  1  0  0  0  0
  7 10  2  0  0  0  0
  7 18  1  0  0  0  0
  8 21  1  0  0  0  0
  9 21  2  0  0  0  0
 10 22  1  0  0  0  0
 11 12  2  0  0  0  0
 11 23  1  0  0  0  0
 12 24  1  0  0  0  0
 13 20  1  0  0  0  0
 13 22  2  0  0  0  0
 14 24  2  0  0  0  0
 14 25  1  0  0  0  0
 15 26  1  0  0  0  0
 16 26  1  0  0  0  0
 16 27  2  0  0  0  0
 16 31  1  0  0  0  0
 17 19  2  0  0  0  0
 17 36  1  0  0  0  0
 18 20  2  0  0  0  0
 18 37  1  0  0  0  0
 19 45  1  0  0  0  0
 20 38  1  0  0  0  0
 21 84  1  0  0  0  0
 22 85  1  0  0  0  0
 23 25  2  0  0  0  0
 23 84  1  0  0  0  0
 24 86  1  0  0  0  0
 25 87  1  0  0  0  0
 26 63  2  0  0  0  0
 27 67  1  0  0  0  0
 27 70  1  0  0  0  0
 28 64  2  0  0  0  0
 28 65  1  0  0  0  0
 28 72  1  0  0  0  0
 29 64  1  0  0  0  0
 29 66  2  0  0  0  0
 29 73  1  0  0  0  0
 30 65  2  0  0  0  0
 30 66  1  0  0  0  0
 30 74  1  0  0  0  0
 31 71  1  0  0  0  0
 31 78  2  0  0  0  0
 32 46  1  0  0  0  0
 32 75  1  0  0  0  0
 32 79  2  0  0  0  0
 33 57  1  0  0  0  0
 33 68  1  0  0  0  0
 33 80  2  0  0  0  0
 34 58  1  0  0  0  0
 34 76  1  0  0  0  0
 34 81  2  0  0  0  0
 35 69  1  0  0  0  0
 35 72  1  0  0  0  0
 35 82  2  0  0  0  0
 36 39  1  0  0  0  0
 37 46  1  0  0  0  0
 38 68  1  0  0  0  0
 39 41  1  0  0  0  0
 40 42  1  0  0  0  0
 40 43  1  0  0  0  0
 41 45  1  0  0  0  0
 42 47  1  0  0  0  0
 43 69  1  0  0  0  0
 44 47  1  0  0  0  0
 44 69  1  0  0  0  0
 45 75  1  0  0  0  0
 46 68  1  0  0  0  0
 47 67  1  0  0  0  0
 48 58  1  0  0  0  0
 49 59  1  0  0  0  0
 50 59  1  0  0  0  0
 51 60  1  0  0  0  0
 52 62  1  0  0  0  0
 53 62  1  0  0  0  0
 54 62  1  0  0  0  0
 55 77  1  0  0  0  0
 56 61  1  0  0  0  0
 56 85  1  0  0  0  0
 57 62  1  0  0  0  0
 57 76  1  0  0  0  0
 58 77  1  0  0  0  0
 59 73  1  0  0  0  0
 60 61  1  0  0  0  0
 60 74  1  0  0  0  0
 61 83  1  0  0  0  0
 63 67  1  0  0  0  0
M  CHG  1  77   1
M  ISO  4  35 100  56 101  72 100  85 101
M  END
> <Batch ID>
0195

> <Smiles>
CNC(C)C(=O)NC(C(=O)N1Cc2cc([101O:1][101CH2:1]C(O)C(C)Nc3nc(NC(C)C)nc([100NH:0][100C:0](=O)N4CCCC(n5nc(-c6ccc(Oc7ccc(F)cc7F)cc6)c(C(N)=O)c5N)C4)n3)ccc2CC1C(=O)NC1CCCc2ccccc21)C(C)(C)C

> <Shape>
0.278

> <Color>
0.063

> <Negative vol penalty>
0.000

$$$$

  -OEChem-04052305363D

 87 95  0     1  0  0  0  0  0999 V2000
  -26.5019  -33.1652   25.1225 C   0  0  0  0  0  0  0  0  0  0  0  0
  -27.1461  -31.9406   24.9786 C   0  0  0  0  0  0  0  0  0  0  0  0
  -23.0782   -9.8610   19.9505 C   0  0  0  0  0  0  0  0  0  0  0  0
  -23.8310   -9.8872   22.2461 C   0  0  0  0  0  0  0  0  0  0  0  0
  -25.1161  -33.2096   25.2690 C   0  0  0  0  0  0  0  0  0  0  0  0
  -26.4049  -30.7595   24.9822 C   0  0  0  0  0  0  0  0  0  0  0  0
  -27.8248  -27.5637   21.3194 C   0  0  0  0  0  0  0  0  0  0  0  0
  -22.3347   -8.7092   20.2075 C   0  0  0  0  0  0  0  0  0  0  0  0
  -23.0875   -8.7354   22.5031 C   0  0  0  0  0  0  0  0  0  0  0  0
  -28.9881  -26.8258   21.5339 C   0  0  0  0  0  0  0  0  0  0  0  0
  -19.8583   -7.9393   23.1021 C   0  0  0  0  0  0  0  0  0  0  0  0
  -19.0978   -7.9080   24.2710 C   0  0  0  0  0  0  0  0  0  0  0  0
  -27.6542  -24.9194   22.1708 C   0  0  0  0  0  0  0  0  0  0  0  0
  -20.3388   -5.9778   25.0268 C   0  0  0  0  0  0  0  0  0  0  0  0
  -29.7618  -17.7463   22.6840 C   0  0  0  0  0  0  0  0  0  0  0  0
  -23.8264  -10.4500   20.9698 C   0  0  0  0  0  0  0  0  0  0  0  0
  -24.1662  -12.9744   20.8305 C   0  0  0  0  0  0  0  0  0  0  0  0
  -24.3565  -32.0291   25.2647 C   0  0  0  0  0  0  0  0  0  0  0  0
  -26.5656  -26.9874   21.5399 C   0  0  0  0  0  0  0  0  0  0  0  0
  -25.0078  -30.7881   25.1301 C   0  0  0  0  0  0  0  0  0  0  0  0
  -26.4764  -25.6513   21.9559 C   0  0  0  0  0  0  0  0  0  0  0  0
  -22.3393   -8.1464   21.4837 C   0  0  0  0  0  0  0  0  0  0  0  0
  -28.9030  -25.5044   21.9624 C   0  0  0  0  0  0  0  0  0  0  0  0
  -20.8590   -6.9897   22.8955 C   0  0  0  0  0  0  0  0  0  0  0  0
  -19.3380   -6.9273   25.2334 C   0  0  0  0  0  0  0  0  0  0  0  0
  -21.0992   -6.0090   23.8579 C   0  0  0  0  0  0  0  0  0  0  0  0
  -24.5952  -11.6395   20.7048 C   0  0  0  0  0  0  0  0  0  0  0  0
  -31.3835  -19.3577   22.7349 C   0  0  0  0  0  0  0  0  0  0  0  0
  -30.5629  -16.9653   21.8805 C   0  0  0  0  0  0  0  0  0  0  0  0
  -32.1851  -18.5765   21.9320 C   0  0  0  0  0  0  0  0  0  0  0  0
  -25.2588  -13.7220   20.4645 C   0  0  0  0  0  0  0  0  0  0  0  0
  -22.8940  -13.4924   21.2413 C   0  0  0  0  0  0  0  0  0  0  0  0
  -24.1326  -27.5929   23.4937 C   0  0  0  0  0  0  0  0  0  0  0  0
  -22.6761  -25.2622   21.7707 C   0  0  0  0  0  0  0  0  0  0  0  0
  -22.9864  -22.5065   19.7816 C   0  0  0  0  0  0  0  0  0  0  0  0
  -30.7234  -14.7743   20.6474 C   0  0  0  0  0  0  0  0  0  0  0  0
  -22.8659  -32.1242   25.4736 C   0  0  0  0  0  0  0  0  0  0  0  0
  -25.3197  -27.7885   21.2782 C   0  0  0  0  0  0  0  0  0  0  0  0
  -25.1483  -24.9798   22.1875 C   0  0  0  0  0  0  0  0  0  0  0  0
  -22.1148  -30.8515   25.0911 C   0  0  0  0  0  0  0  0  0  0  0  0
  -29.6185  -12.3405   18.2953 C   0  0  0  0  0  0  0  0  0  0  0  0
  -22.8157  -29.6248   25.6661 C   0  0  0  0  0  0  0  0  0  0  0  0
  -28.1778  -12.0509   18.7228 C   0  0  0  0  0  0  0  0  0  0  0  0
  -30.5297  -12.5798   19.4978 C   0  0  0  0  0  0  0  0  0  0  0  0
  -28.6179  -13.3135   20.8674 C   0  0  0  0  0  0  0  0  0  0  0  0
  -24.2358  -29.4867   25.1042 C   0  0  1  0  0  0  0  0  0  0  0  0
  -24.1011  -27.2602   22.0288 C   0  0  1  0  0  0  0  0  0  0  0  0
  -27.6488  -13.1298   19.6881 C   0  0  2  0  0  0  0  0  0  0  0  0
  -21.6174  -20.7957   18.5583 C   0  0  0  0  0  0  0  0  0  0  0  0
  -32.2720  -21.5706   27.7493 C   0  0  0  0  0  0  0  0  0  0  0  0
  -34.5981  -21.2846   26.8723 C   0  0  0  0  0  0  0  0  0  0  0  0
  -22.0716  -23.8603   24.4126 C   0  0  0  0  0  0  0  0  0  0  0  0
  -21.5821  -21.7762   23.1145 C   0  0  0  0  0  0  0  0  0  0  0  0
  -20.1972  -23.8200   22.7574 C   0  0  0  0  0  0  0  0  0  0  0  0
  -24.1121  -23.3076   17.1643 C   0  0  0  0  0  0  0  0  0  0  0  0
  -31.8280  -20.7045   23.2244 C   0  0  0  0  0  0  0  0  0  0  0  0
  -31.3736  -23.5929   23.7714 C   0  0  0  0  0  0  0  0  0  0  0  0
  -32.8845  -22.4012   25.4123 C   0  0  0  0  0  0  0  0  0  0  0  0
  -29.9821  -23.7634   23.1710 C   0  0  0  0  0  0  0  0  0  1  0  0
  -22.5679  -23.7605   21.8808 C   0  0  1  0  0  0  0  0  0  0  0  0
  -22.3297  -22.1361   18.4640 C   0  0  2  0  0  0  0  0  0  0  0  0
  -33.1136  -21.3271   26.4963 C   0  0  0  0  0  0  0  0  0  0  0  0
  -31.4476  -22.5350   24.8807 C   0  0  2  0  0  0  0  0  0  0  0  0
  -21.6299  -23.3172   23.0389 C   0  0  0  0  0  0  0  0  0  0  0  0
  -30.1576  -18.9565   23.1256 N   0  0  0  0  0  0  0  0  0  0  0  0
  -25.8614  -11.5415   20.2912 N   0  0  0  0  0  0  0  0  0  0  0  0
  -31.7890  -17.3663   21.4901 N   0  0  0  0  0  0  0  0  0  0  0  0
  -26.2374  -12.8244   20.1536 N   0  0  0  0  0  0  0  0  0  0  0  0
  -23.9590  -25.8066   21.9240 N   0  0  0  0  0  0  0  0  0  0  0  0
  -29.9671  -13.6171   20.3652 N   0  0  0  0  0  0  0  0  0  0  0  0
  -33.4615  -19.0524   21.5575 N   0  0  0  0  0  0  0  0  0  0  0  0
  -25.4681  -15.0531   20.3814 N   0  0  0  0  0  0  0  0  0  0  0  0
  -21.8819  -12.5849   21.5828 N   0  0  0  0  0  0  0  0  0  0  0  0
  -30.0726  -15.7053   21.4564 N   0  0  0  0  0  0  0  0  0  0  0  0
  -24.1979  -28.9468   23.7620 N   0  0  0  0  0  0  0  0  0  0  0  0
  -22.1586  -23.2831   20.5644 N   0  0  0  0  0  0  0  0  0  0  0  0
  -23.3510  -22.0505   17.3822 N   0  3  0  0  0  0  0  0  0  0  0  0
  -30.9949  -21.2223   24.3403 N   0  3  0  0  0  0  0  0  0  0  0  0
  -22.6564  -14.7232   21.2880 O   0  0  0  0  0  0  0  0  0  0  0  0
  -24.0985  -26.6882   24.3196 O   0  0  0  0  0  0  0  0  0  0  0  0
  -21.6609  -25.9270   21.5495 O   0  0  0  0  0  0  0  0  0  0  0  0
  -24.1190  -22.1402   20.0875 O   0  0  0  0  0  0  0  0  0  0  0  0
  -31.8537  -14.9404   20.1819 O   0  0  0  0  0  0  0  0  0  0  0  0
  -21.6137   -7.0225   21.7349 O   0  0  0  0  0  0  0  0  0  0  0  0
  -30.0369  -24.7821   22.1731 O   0  0  0  0  0  0  0  0  0  1  0  0
  -18.6087   -6.8984   26.3565 F   0  0  0  0  0  0  0  0  0  0  0  0
  -22.0601   -5.0949   23.6656 F   0  0  0  0  0  0  0  0  0  0  0  0
  1  2  1  0  0  0  0
  1  5  2  0  0  0  0
  2  6  2  0  0  0  0
  3  8  2  0  0  0  0
  3 16  1  0  0  0  0
  4  9  1  0  0  0  0
  4 16  2  0  0  0  0
  5 18  1  0  0  0  0
  6 20  1  0  0  0  0
  7 10  2  0  0  0  0
  7 19  1  0  0  0  0
  8 22  1  0  0  0  0
  9 22  2  0  0  0  0
 10 23  1  0  0  0  0
 11 12  2  0  0  0  0
 11 24  1  0  0  0  0
 12 25  1  0  0  0  0
 13 21  1  0  0  0  0
 13 23  2  0  0  0  0
 14 25  2  0  0  0  0
 14 26  1  0  0  0  0
 15 29  1  0  0  0  0
 15 65  2  0  0  0  0
 16 27  1  0  0  0  0
 17 27  1  0  0  0  0
 17 31  2  0  0  0  0
 17 32  1  0  0  0  0
 18 20  2  0  0  0  0
 18 37  1  0  0  0  0
 19 21  2  0  0  0  0
 19 38  1  0  0  0  0
 20 46  1  0  0  0  0
 21 39  1  0  0  0  0
 22 84  1  0  0  0  0
 23 85  1  0  0  0  0
 24 26  2  0  0  0  0
 24 84  1  0  0  0  0
 25 86  1  0  0  0  0
 26 87  1  0  0  0  0
 27 66  2  0  0  0  0
 28 30  2  0  0  0  0
 28 56  1  0  0  0  0
 28 65  1  0  0  0  0
 29 67  2  0  0  0  0
 29 74  1  0  0  0  0
 30 67  1  0  0  0  0
 30 71  1  0  0  0  0
 31 68  1  0  0  0  0
 31 72  1  0  0  0  0
 32 73  1  0  0  0  0
 32 79  2  0  0  0  0
 33 47  1  0  0  0  0
 33 75  1  0  0  0  0
 33 80  2  0  0  0  0
 34 60  1  0  0  0  0
 34 69  1  0  0  0  0
 34 81  2  0  0  0  0
 35 61  1  0  0  0  0
 35 76  1  0  0  0  0
 35 82  2  0  0  0  0
 36 70  1  0  0  0  0
 36 74  1  0  0  0  0
 36 83  2  0  0  0  0
 37 40  1  0  0  0  0
 38 47  1  0  0  0  0
 39 69  1  0  0  0  0
 40 42  1  0  0  0  0
 41 43  1  0  0  0  0
 41 44  1  0  0  0  0
 42 46  1  0  0  0  0
 43 48  1  0  0  0  0
 44 70  1  0  0  0  0
 45 48  1  0  0  0  0
 45 70  1  0  0  0  0
 46 75  1  0  0  0  0
 47 69  1  0  0  0  0
 48 68  1  0  0  0  0
 49 61  1  0  0  0  0
 50 62  1  0  0  0  0
 51 62  1  0  0  0  0
 52 64  1  0  0  0  0
 53 64  1  0  0  0  0
 54 64  1  0  0  0  0
 55 77  1  0  0  0  0
 56 78  1  0  0  0  0
 57 59  1  0  0  0  0
 57 63  1  0  0  0  0
 58 62  1  0  0  0  0
 58 63  1  0  0  0  0
 59 85  1  0  0  0  0
 60 64  1  0  0  0  0
 60 76  1  0  0  0  0
 61 77  1  0  0  0  0
 63 78  1  0  0  0  0
 66 68  1  0  0  0  0
M  CHG  2  77   1  78   1
M  ISO  4  36 100  59 101  74 100  85 101
M  END
> <Batch ID>
0195

> <Smiles>
CNC(C)C(=O)NC(C(=O)N1Cc2cc([101O:1][101CH2:1]CC(CC(C)C)NCc3ncc([100NH:0][100C:0](=O)N4CCCC(n5nc(-c6ccc(Oc7ccc(F)cc7F)cc6)c(C(N)=O)c5N)C4)nc3N)ccc2CC1C(=O)NC1CCCc2ccccc21)C(C)(C)C

> <Shape>
0.246

> <Color>
0.173

> <Negative vol penalty>
0.000

$$$$

  -OEChem-04052305363D

 82 90  0     1  0  0  0  0  0999 V2000
  -18.0278  -31.3866   20.8273 C   0  0  0  0  0  0  0  0  0  0  0  0
  -19.4017  -31.2857   20.6333 C   0  0  0  0  0  0  0  0  0  0  0  0
  -26.4635  -12.5635   21.7491 C   0  0  0  0  0  0  0  0  0  0  0  0
  -25.8846  -13.4294   19.5691 C   0  0  0  0  0  0  0  0  0  0  0  0
  -17.3597  -30.4262   21.5858 C   0  0  0  0  0  0  0  0  0  0  0  0
  -20.1085  -30.2250   21.1987 C   0  0  0  0  0  0  0  0  0  0  0  0
  -24.9602  -27.3473   18.8141 C   0  0  0  0  0  0  0  0  0  0  0  0
  -25.2387  -11.8990   21.8104 C   0  0  0  0  0  0  0  0  0  0  0  0
  -24.6598  -12.7648   19.6304 C   0  0  0  0  0  0  0  0  0  0  0  0
  -26.3304  -27.4762   19.0373 C   0  0  0  0  0  0  0  0  0  0  0  0
  -22.1125  -10.2660   22.6959 C   0  0  0  0  0  0  0  0  0  0  0  0
  -21.3900  -10.3433   23.8865 C   0  0  0  0  0  0  0  0  0  0  0  0
  -28.9443  -23.0879   16.3655 C   0  0  0  0  0  0  0  0  0  0  0  0
  -26.2415  -25.6433   20.6031 C   0  0  0  0  0  0  0  0  0  0  0  0
  -21.2919  -12.7477   23.6709 C   0  0  0  0  0  0  0  0  0  0  0  0
  -28.4701  -21.8036   16.1925 C   0  0  0  0  0  0  0  0  0  0  0  0
  -26.7865  -13.3288   20.6284 C   0  0  0  0  0  0  0  0  0  0  0  0
  -29.2627  -13.5206   20.0461 C   0  0  0  0  0  0  0  0  0  0  0  0
  -18.0572  -29.3479   22.1527 C   0  0  0  0  0  0  0  0  0  0  0  0
  -24.2172  -26.3710   19.4930 C   0  0  0  0  0  0  0  0  0  0  0  0
  -19.4493  -29.2500   21.9666 C   0  0  0  0  0  0  0  0  0  0  0  0
  -24.8625  -25.5025   20.3848 C   0  0  0  0  0  0  0  0  0  0  0  0
  -24.3368  -11.9996   20.7511 C   0  0  0  0  0  0  0  0  0  0  0  0
  -26.9707  -26.6260   19.9341 C   0  0  0  0  0  0  0  0  0  0  0  0
  -22.4249  -11.4296   21.9928 C   0  0  0  0  0  0  0  0  0  0  0  0
  -20.9796  -11.5841   24.3740 C   0  0  0  0  0  0  0  0  0  0  0  0
  -22.0145  -12.6704   22.4803 C   0  0  0  0  0  0  0  0  0  0  0  0
  -28.0513  -14.0159   20.5647 C   0  0  0  0  0  0  0  0  0  0  0  0
  -29.4507  -23.3738   17.6169 C   0  0  0  0  0  0  0  0  0  0  0  0
  -30.1558  -14.5500   20.2168 C   0  0  0  0  0  0  0  0  0  0  0  0
  -29.0033  -21.2642   18.3354 C   0  0  0  0  0  0  0  0  0  0  0  0
  -29.5545  -12.2441   19.4620 C   0  0  0  0  0  0  0  0  0  0  0  0
  -21.7917  -26.4233   21.5468 C   0  0  0  0  0  0  0  0  0  0  0  0
  -21.9059  -23.2044   21.1629 C   0  0  0  0  0  0  0  0  0  0  0  0
  -23.7378  -20.4498   20.3242 C   0  0  0  0  0  0  0  0  0  0  0  0
  -29.5186  -20.4739   20.6712 C   0  0  0  0  0  0  0  0  0  0  0  0
  -17.2993  -28.3603   23.0042 C   0  0  0  0  0  0  0  0  0  0  0  0
  -22.7448  -26.2274   19.2211 C   0  0  0  0  0  0  0  0  0  0  0  0
  -24.1138  -24.4245   21.1238 C   0  0  0  0  0  0  0  0  0  0  0  0
  -18.0620  -27.0622   23.2564 C   0  0  0  0  0  0  0  0  0  0  0  0
  -31.0421  -18.3074   23.0508 C   0  0  0  0  0  0  0  0  0  0  0  0
  -19.5026  -27.3593   23.6602 C   0  0  0  0  0  0  0  0  0  0  0  0
  -30.5631  -16.9153   22.6324 C   0  0  0  0  0  0  0  0  0  0  0  0
  -29.9572  -19.3642   22.8509 C   0  0  0  0  0  0  0  0  0  0  0  0
  -28.8927  -18.0140   21.0865 C   0  0  0  0  0  0  0  0  0  0  0  0
  -20.2470  -28.1004   22.5430 C   0  0  1  0  0  0  0  0  0  0  0  0
  -21.9930  -25.5337   20.3528 C   0  0  1  0  0  0  0  0  0  0  0  0
  -29.9729  -16.9267   21.2087 C   0  0  2  0  0  0  0  0  0  0  0  0
  -23.5697  -17.9526   20.1430 C   0  0  0  0  0  0  0  0  0  0  0  0
  -22.0880  -22.9742   24.1999 C   0  0  0  0  0  0  0  0  0  0  0  0
  -22.8619  -20.6115   23.9047 C   0  0  0  0  0  0  0  0  0  0  0  0
  -20.5948  -21.2875   23.1136 C   0  0  0  0  0  0  0  0  0  0  0  0
  -24.3199  -20.5050   17.4230 C   0  0  0  0  0  0  0  0  0  0  0  0
  -30.4966  -25.0989   19.0853 C   0  0  0  0  0  0  0  0  0  0  0  0
  -29.1022  -27.2338   19.0720 C   0  0  0  0  0  0  0  0  0  1  0  0
  -22.6356  -22.0717   21.8437 C   0  0  1  0  0  0  0  0  0  0  0  0
  -23.4327  -19.2775   19.4092 C   0  0  2  0  0  0  0  0  0  0  0  0
  -30.4899  -26.6192   19.1775 C   0  0  1  0  0  0  0  0  0  0  0  0
  -22.0591  -21.7577   23.2532 C   0  0  0  0  0  0  0  0  0  0  0  0
  -28.4842  -20.8627   17.1594 N   0  0  0  0  0  0  0  0  0  0  0  0
  -28.1614  -15.2630   21.0303 N   0  0  0  0  0  0  0  0  0  0  0  0
  -29.4957  -22.4827   18.6289 N   0  0  0  0  0  0  0  0  0  0  0  0
  -29.4525  -15.5599   20.8048 N   0  0  0  0  0  0  0  0  0  0  0  0
  -22.6747  -24.3282   20.8286 N   0  0  0  0  0  0  0  0  0  0  0  0
  -29.4482  -19.3189   21.4785 N   0  0  0  0  0  0  0  0  0  0  0  0
  -31.4662  -14.6808   19.9200 N   0  0  0  0  0  0  0  0  0  0  0  0
  -28.5211  -11.3025   19.3633 N   0  0  0  0  0  0  0  0  0  0  0  0
  -29.9374  -24.6535   17.8309 N   0  0  0  0  0  0  0  0  0  0  0  0
  -29.0343  -20.3018   19.3749 N   0  0  0  0  0  0  0  0  0  0  0  0
  -20.6358  -27.1789   21.4970 N   0  0  0  0  0  0  0  0  0  0  0  0
  -22.5960  -20.9453   20.9174 N   0  0  0  0  0  0  0  0  0  0  0  0
  -24.3666  -19.2703   18.2478 N   0  3  0  0  0  0  0  0  0  0  0  0
  -30.7018  -11.9413   19.0552 O   0  0  0  0  0  0  0  0  0  0  0  0
  -22.6228  -26.4232   22.4474 O   0  0  0  0  0  0  0  0  0  0  0  0
  -20.6997  -23.0930   20.9295 O   0  0  0  0  0  0  0  0  0  0  0  0
  -24.8757  -20.8804   20.4983 O   0  0  0  0  0  0  0  0  0  0  0  0
  -30.0001  -21.5298   21.0899 O   0  0  0  0  0  0  0  0  0  0  0  0
  -23.1416  -11.3511   20.8105 O   0  0  0  0  0  0  0  0  0  0  0  0
  -28.3079  -26.7501   20.1543 O   0  0  0  0  0  0  0  0  0  1  0  0
  -20.2844  -11.6580   25.5165 F   0  0  0  0  0  0  0  0  0  0  0  0
  -22.3106  -13.7916   21.8086 F   0  0  0  0  0  0  0  0  0  0  0  0
  -31.0247  -26.9783   20.3808 F   0  0  0  0  0  0  0  0  0  0  0  0
  1  2  1  0  0  0  0
  1  5  2  0  0  0  0
  2  6  2  0  0  0  0
  3  8  2  0  0  0  0
  3 17  1  0  0  0  0
  4  9  1  0  0  0  0
  4 17  2  0  0  0  0
  5 19  1  0  0  0  0
  6 21  1  0  0  0  0
  7 10  2  0  0  0  0
  7 20  1  0  0  0  0
  8 23  1  0  0  0  0
  9 23  2  0  0  0  0
 10 24  1  0  0  0  0
 11 12  2  0  0  0  0
 11 25  1  0  0  0  0
 12 26  1  0  0  0  0
 13 16  2  0  0  0  0
 13 29  1  0  0  0  0
 14 22  1  0  0  0  0
 14 24  2  0  0  0  0
 15 26  2  0  0  0  0
 15 27  1  0  0  0  0
 16 60  1  0  0  0  0
 17 28  1  0  0  0  0
 18 28  1  0  0  0  0
 18 30  2  0  0  0  0
 18 32  1  0  0  0  0
 19 21  2  0  0  0  0
 19 37  1  0  0  0  0
 20 22  2  0  0  0  0
 20 38  1  0  0  0  0
 21 46  1  0  0  0  0
 22 39  1  0  0  0  0
 23 78  1  0  0  0  0
 24 79  1  0  0  0  0
 25 27  2  0  0  0  0
 25 78  1  0  0  0  0
 26 80  1  0  0  0  0
 27 81  1  0  0  0  0
 28 61  2  0  0  0  0
 29 62  2  0  0  0  0
 29 68  1  0  0  0  0
 30 63  1  0  0  0  0
 30 66  1  0  0  0  0
 31 60  2  0  0  0  0
 31 62  1  0  0  0  0
 31 69  1  0  0  0  0
 32 67  1  0  0  0  0
 32 73  2  0  0  0  0
 33 47  1  0  0  0  0
 33 70  1  0  0  0  0
 33 74  2  0  0  0  0
 34 56  1  0  0  0  0
 34 64  1  0  0  0  0
 34 75  2  0  0  0  0
 35 57  1  0  0  0  0
 35 71  1  0  0  0  0
 35 76  2  0  0  0  0
 36 65  1  0  0  0  0
 36 69  1  0  0  0  0
 36 77  2  0  0  0  0
 37 40  1  0  0  0  0
 38 47  1  0  0  0  0
 39 64  1  0  0  0  0
 40 42  1  0  0  0  0
 41 43  1  0  0  0  0
 41 44  1  0  0  0  0
 42 46  1  0  0  0  0
 43 48  1  0  0  0  0
 44 65  1  0  0  0  0
 45 48  1  0  0  0  0
 45 65  1  0  0  0  0
 46 70  1  0  0  0  0
 47 64  1  0  0  0  0
 48 63  1  0  0  0  0
 49 57  1  0  0  0  0
 50 59  1  0  0  0  0
 51 59  1  0  0  0  0
 52 59  1  0  0  0  0
 53 72  1  0  0  0  0
 54 58  1  0  0  0  0
 54 68  1  0  0  0  0
 55 58  1  0  0  0  0
 55 79  1  0  0  0  0
 56 59  1  0  0  0  0
 56 71  1  0  0  0  0
 57 72  1  0  0  0  0
 58 82  1  0  0  0  0
 61 63  1  0  0  0  0
M  CHG  1  72   1
M  ISO  4  36 100  55 101  69 100  79 101
M  END
> <Batch ID>
0195

> <Smiles>
CNC(C)C(=O)NC(C(=O)N1Cc2cc([101O:1][101CH2:1]C(F)CNc3ccnc([100NH:0][100C:0](=O)N4CCCC(n5nc(-c6ccc(Oc7ccc(F)cc7F)cc6)c(C(N)=O)c5N)C4)n3)ccc2CC1C(=O)NC1CCCc2ccccc21)C(C)(C)C

> <Shape>
0.261

> <Color>
0.075

> <Negative vol penalty>
0.000

$$$$

  -OEChem-04052305363D

 83 91  0     1  0  0  0  0  0999 V2000
  -19.0089  -26.5317   25.7935 C   0  0  0  0  0  0  0  0  0  0  0  0
  -20.2992  -26.1771   25.4127 C   0  0  0  0  0  0  0  0  0  0  0  0
  -23.4424   -9.5610   20.1091 C   0  0  0  0  0  0  0  0  0  0  0  0
  -23.8750  -10.0030   22.4446 C   0  0  0  0  0  0  0  0  0  0  0  0
  -18.2565  -27.3874   24.9901 C   0  0  0  0  0  0  0  0  0  0  0  0
  -20.8374  -26.6773   24.2276 C   0  0  0  0  0  0  0  0  0  0  0  0
  -25.6007  -28.3016   24.7906 C   0  0  0  0  0  0  0  0  0  0  0  0
  -22.8031   -8.3699   20.4529 C   0  0  0  0  0  0  0  0  0  0  0  0
  -23.2357   -8.8119   22.7884 C   0  0  0  0  0  0  0  0  0  0  0  0
  -26.6033  -27.3335   24.8288 C   0  0  0  0  0  0  0  0  0  0  0  0
  -20.0633   -7.6971   23.1260 C   0  0  0  0  0  0  0  0  0  0  0  0
  -19.1620   -7.7309   24.1900 C   0  0  0  0  0  0  0  0  0  0  0  0
  -27.1157  -27.7815   22.5145 C   0  0  0  0  0  0  0  0  0  0  0  0
  -20.4968   -6.1008   25.3725 C   0  0  0  0  0  0  0  0  0  0  0  0
  -31.0044  -18.3933   21.4996 C   0  0  0  0  0  0  0  0  0  0  0  0
  -23.9784  -10.3775   21.1049 C   0  0  0  0  0  0  0  0  0  0  0  0
  -24.0527  -12.8806   20.6184 C   0  0  0  0  0  0  0  0  0  0  0  0
  -18.7894  -27.9060   23.7994 C   0  0  0  0  0  0  0  0  0  0  0  0
  -25.3405  -29.0105   23.6090 C   0  0  0  0  0  0  0  0  0  0  0  0
  -20.0909  -27.5397   23.4068 C   0  0  0  0  0  0  0  0  0  0  0  0
  -26.1111  -28.7599   22.4646 C   0  0  0  0  0  0  0  0  0  0  0  0
  -22.6997   -7.9953   21.7926 C   0  0  0  0  0  0  0  0  0  0  0  0
  -27.3590  -27.0713   23.6899 C   0  0  0  0  0  0  0  0  0  0  0  0
  -21.1814   -6.8651   23.1852 C   0  0  0  0  0  0  0  0  0  0  0  0
  -19.3787   -6.9327   25.3132 C   0  0  0  0  0  0  0  0  0  0  0  0
  -21.3981   -6.0670   24.3084 C   0  0  0  0  0  0  0  0  0  0  0  0
  -24.6394  -11.6077   20.7504 C   0  0  0  0  0  0  0  0  0  0  0  0
  -29.7719  -17.7701   21.7721 C   0  0  0  0  0  0  0  0  0  0  0  0
  -30.8362  -19.6880   21.9259 C   0  0  0  0  0  0  0  0  0  0  0  0
  -25.0950  -13.7046   20.2702 C   0  0  0  0  0  0  0  0  0  0  0  0
  -22.6877  -13.2822   20.7948 C   0  0  0  0  0  0  0  0  0  0  0  0
  -22.8387  -29.2954   21.6689 C   0  0  0  0  0  0  0  0  0  0  0  0
  -24.7033  -31.5247   20.2281 C   0  0  0  0  0  0  0  0  0  0  0  0
  -27.8408  -32.7166   19.6098 C   0  0  0  0  0  0  0  0  0  0  0  0
  -30.3364  -15.4681   20.9186 C   0  0  0  0  0  0  0  0  0  0  0  0
  -17.9207  -28.7900   22.9398 C   0  0  0  0  0  0  0  0  0  0  0  0
  -24.2734  -30.0704   23.5916 C   0  0  0  0  0  0  0  0  0  0  0  0
  -25.8849  -29.5076   21.1769 C   0  0  0  0  0  0  0  0  0  0  0  0
  -18.7016  -29.5743   21.8885 C   0  0  0  0  0  0  0  0  0  0  0  0
  -29.8307  -12.6087   18.8583 C   0  0  0  0  0  0  0  0  0  0  0  0
  -19.6878  -28.6624   21.1656 C   0  0  0  0  0  0  0  0  0  0  0  0
  -28.3868  -12.1980   19.1560 C   0  0  0  0  0  0  0  0  0  0  0  0
  -30.5414  -13.1285   20.1066 C   0  0  0  0  0  0  0  0  0  0  0  0
  -28.3948  -13.7928   21.1165 C   0  0  0  0  0  0  0  0  0  0  0  0
  -20.7188  -28.0814   22.1408 C   0  0  1  0  0  0  0  0  0  0  0  0
  -23.7511  -30.3696   22.1898 C   0  0  1  0  0  0  0  0  0  0  0  0
  -27.6179  -13.3234   19.8757 C   0  0  2  0  0  0  0  0  0  0  0  0
  -29.0492  -34.5311   18.3670 C   0  0  0  0  0  0  0  0  0  0  0  0
  -29.0355  -20.1085   25.3941 C   0  0  0  0  0  0  0  0  0  0  0  0
  -24.2525  -30.0270   17.6082 C   0  0  0  0  0  0  0  0  0  0  0  0
  -26.1897  -31.2820   16.6383 C   0  0  0  0  0  0  0  0  0  0  0  0
  -24.1668  -32.5189   17.4134 C   0  0  0  0  0  0  0  0  0  0  0  0
  -28.9768  -33.8295   22.1058 C   0  0  0  0  0  0  0  0  0  0  0  0
  -28.8596  -23.8060   24.0537 C   0  0  0  0  0  0  0  0  0  0  0  0
  -28.6827  -22.5894   24.9643 C   0  0  0  0  0  0  0  0  0  0  0  0
  -28.8777  -20.9671   23.0022 C   0  0  0  0  0  0  0  0  0  0  0  0
  -28.1518  -25.0310   24.6198 C   0  0  0  0  0  0  0  0  0  1  0  0
  -25.7309  -31.5062   19.1223 C   0  0  1  0  0  0  0  0  0  0  0  0
  -28.4195  -34.1178   19.6881 C   0  0  2  0  0  0  0  0  0  0  0  0
  -29.3183  -21.2801   24.4476 C   0  0  2  0  0  0  0  0  0  0  0  0
  -25.0882  -31.3179   17.7191 C   0  0  0  0  0  0  0  0  0  0  0  0
  -25.9525  -11.6173   20.5058 N   0  0  0  0  0  0  0  0  0  0  0  0
  -28.8861  -18.6006   22.3287 N   0  0  0  0  0  0  0  0  0  0  0  0
  -26.1995  -12.9063   20.2166 N   0  0  0  0  0  0  0  0  0  0  0  0
  -29.5628  -19.7588   22.4094 N   0  0  0  0  0  0  0  0  0  0  0  0
  -24.8259  -30.5299   21.2084 N   0  0  0  0  0  0  0  0  0  0  0  0
  -29.7570  -14.1951   20.7328 N   0  0  0  0  0  0  0  0  0  0  0  0
  -31.6608  -20.7555   21.9281 N   0  0  0  0  0  0  0  0  0  0  0  0
  -25.1652  -15.0269   20.0077 N   0  0  0  0  0  0  0  0  0  0  0  0
  -21.7456  -12.3082   21.1529 N   0  0  0  0  0  0  0  0  0  0  0  0
  -29.4847  -16.4108   21.4937 N   0  0  0  0  0  0  0  0  0  0  0  0
  -21.7272  -29.0696   22.4583 N   0  0  0  0  0  0  0  0  0  0  0  0
  -26.5059  -32.7340   19.2647 N   0  0  0  0  0  0  0  0  0  0  0  0
  -29.4639  -34.1883   20.7489 N   0  3  0  0  0  0  0  0  0  0  0  0
  -22.3115  -14.4665   20.6235 O   0  0  0  0  0  0  0  0  0  0  0  0
  -23.1215  -28.7154   20.6271 O   0  0  0  0  0  0  0  0  0  0  0  0
  -23.8284  -32.3943   20.2261 O   0  0  0  0  0  0  0  0  0  0  0  0
  -28.5072  -31.7075   19.8289 O   0  0  0  0  0  0  0  0  0  0  0  0
  -31.4934  -15.7122   20.5668 O   0  0  0  0  0  0  0  0  0  0  0  0
  -22.0757   -6.8333   22.1284 O   0  0  0  0  0  0  0  0  0  0  0  0
  -28.3377  -26.1264   23.7243 O   0  0  0  0  0  0  0  0  0  1  0  0
  -18.5139   -6.9664   26.3355 F   0  0  0  0  0  0  0  0  0  0  0  0
  -22.4710   -5.2666   24.3716 F   0  0  0  0  0  0  0  0  0  0  0  0
  1  2  1  0  0  0  0
  1  5  2  0  0  0  0
  2  6  2  0  0  0  0
  3  8  2  0  0  0  0
  3 16  1  0  0  0  0
  4  9  1  0  0  0  0
  4 16  2  0  0  0  0
  5 18  1  0  0  0  0
  6 20  1  0  0  0  0
  7 10  2  0  0  0  0
  7 19  1  0  0  0  0
  8 22  1  0  0  0  0
  9 22  2  0  0  0  0
 10 23  1  0  0  0  0
 11 12  2  0  0  0  0
 11 24  1  0  0  0  0
 12 25  1  0  0  0  0
 13 21  1  0  0  0  0
 13 23  2  0  0  0  0
 14 25  2  0  0  0  0
 14 26  1  0  0  0  0
 15 28  1  0  0  0  0
 15 29  2  0  0  0  0
 16 27  1  0  0  0  0
 17 27  1  0  0  0  0
 17 30  2  0  0  0  0
 17 31  1  0  0  0  0
 18 20  2  0  0  0  0
 18 36  1  0  0  0  0
 19 21  2  0  0  0  0
 19 37  1  0  0  0  0
 20 45  1  0  0  0  0
 21 38  1  0  0  0  0
 22 80  1  0  0  0  0
 23 81  1  0  0  0  0
 24 26  2  0  0  0  0
 24 80  1  0  0  0  0
 25 82  1  0  0  0  0
 26 83  1  0  0  0  0
 27 62  2  0  0  0  0
 28 63  2  0  0  0  0
 28 71  1  0  0  0  0
 29 65  1  0  0  0  0
 29 68  1  0  0  0  0
 30 64  1  0  0  0  0
 30 69  1  0  0  0  0
 31 70  1  0  0  0  0
 31 75  2  0  0  0  0
 32 46  1  0  0  0  0
 32 72  1  0  0  0  0
 32 76  2  0  0  0  0
 33 58  1  0  0  0  0
 33 66  1  0  0  0  0
 33 77  2  0  0  0  0
 34 59  1  0  0  0  0
 34 73  1  0  0  0  0
 34 78  2  0  0  0  0
 35 67  1  0  0  0  0
 35 71  1  0  0  0  0
 35 79  2  0  0  0  0
 36 39  1  0  0  0  0
 37 46  1  0  0  0  0
 38 66  1  0  0  0  0
 39 41  1  0  0  0  0
 40 42  1  0  0  0  0
 40 43  1  0  0  0  0
 41 45  1  0  0  0  0
 42 47  1  0  0  0  0
 43 67  1  0  0  0  0
 44 47  1  0  0  0  0
 44 67  1  0  0  0  0
 45 72  1  0  0  0  0
 46 66  1  0  0  0  0
 47 64  1  0  0  0  0
 48 59  1  0  0  0  0
 49 60  1  0  0  0  0
 50 61  1  0  0  0  0
 51 61  1  0  0  0  0
 52 61  1  0  0  0  0
 53 74  1  0  0  0  0
 54 55  1  0  0  0  0
 54 57  1  0  0  0  0
 55 60  1  0  0  0  0
 56 60  1  0  0  0  0
 56 65  1  0  0  0  0
 57 81  1  0  0  0  0
 58 61  1  0  0  0  0
 58 73  1  0  0  0  0
 59 74  1  0  0  0  0
 62 64  1  0  0  0  0
 63 65  1  0  0  0  0
M  CHG  1  74   1
M  ISO  4  35 100  57 101  71 100  81 101
M  END
> <Batch ID>
0195

> <Smiles>
CNC(C)C(=O)NC(C(=O)N1Cc2cc([101O:1][101CH2:1]CCC(C)Cn3nc([100NH:0][100C:0](=O)N4CCCC(n5nc(-c6ccc(Oc7ccc(F)cc7F)cc6)c(C(N)=O)c5N)C4)cc3N)ccc2CC1C(=O)NC1CCCc2ccccc21)C(C)(C)C

> <Shape>
0.273

> <Color>
0.177

> <Negative vol penalty>
0.000

$$$$

  -OEChem-04052305363D

 81 89  0     1  0  0  0  0  0999 V2000
  -19.7167  -31.0952   23.6155 C   0  0  0  0  0  0  0  0  0  0  0  0
  -21.0698  -30.7946   23.4971 C   0  0  0  0  0  0  0  0  0  0  0  0
  -25.4914  -15.4334   21.6262 C   0  0  0  0  0  0  0  0  0  0  0  0
  -24.8853  -16.6970   19.6583 C   0  0  0  0  0  0  0  0  0  0  0  0
  -18.7619  -30.1010   23.4057 C   0  0  0  0  0  0  0  0  0  0  0  0
  -21.4691  -29.4993   23.1699 C   0  0  0  0  0  0  0  0  0  0  0  0
  -25.1003  -29.4187   19.6410 C   0  0  0  0  0  0  0  0  0  0  0  0
  -24.2613  -14.7772   21.5838 C   0  0  0  0  0  0  0  0  0  0  0  0
  -23.6552  -16.0408   19.6158 C   0  0  0  0  0  0  0  0  0  0  0  0
  -26.3994  -29.7062   20.0575 C   0  0  0  0  0  0  0  0  0  0  0  0
  -22.8471  -12.2461   19.8441 C   0  0  0  0  0  0  0  0  0  0  0  0
  -22.8433  -10.8634   20.0277 C   0  0  0  0  0  0  0  0  0  0  0  0
  -26.9015  -27.3471   20.0993 C   0  0  0  0  0  0  0  0  0  0  0  0
  -21.4228  -11.1245   21.9645 C   0  0  0  0  0  0  0  0  0  0  0  0
  -30.2152  -23.9185   17.6633 C   0  0  0  0  0  0  0  0  0  0  0  0
  -25.8034  -16.3933   20.6635 C   0  0  0  0  0  0  0  0  0  0  0  0
  -28.2715  -16.6749   20.0831 C   0  0  0  0  0  0  0  0  0  0  0  0
  -19.1494  -28.7952   23.0662 C   0  0  0  0  0  0  0  0  0  0  0  0
  -24.6881  -28.0906   19.4608 C   0  0  0  0  0  0  0  0  0  0  0  0
  -20.5187  -28.4864   22.9566 C   0  0  0  0  0  0  0  0  0  0  0  0
  -25.5974  -27.0456   19.6780 C   0  0  0  0  0  0  0  0  0  0  0  0
  -23.3432  -15.0808   20.5785 C   0  0  0  0  0  0  0  0  0  0  0  0
  -27.2994  -28.6702   20.2895 C   0  0  0  0  0  0  0  0  0  0  0  0
  -22.1388  -13.0680   20.7207 C   0  0  0  0  0  0  0  0  0  0  0  0
  -22.1311  -10.3026   21.0878 C   0  0  0  0  0  0  0  0  0  0  0  0
  -21.4266  -12.5072   21.7809 C   0  0  0  0  0  0  0  0  0  0  0  0
  -27.0737  -17.0720   20.7072 C   0  0  0  0  0  0  0  0  0  0  0  0
  -30.1731  -24.1252   19.0263 C   0  0  0  0  0  0  0  0  0  0  0  0
  -29.1773  -17.6481   20.4280 C   0  0  0  0  0  0  0  0  0  0  0  0
  -31.2160  -25.9652   18.4458 C   0  0  0  0  0  0  0  0  0  0  0  0
  -28.5412  -15.5290   19.2648 C   0  0  0  0  0  0  0  0  0  0  0  0
  -22.4762  -26.2293   20.7824 C   0  0  0  0  0  0  0  0  0  0  0  0
  -23.4110  -24.1457   18.4788 C   0  0  0  0  0  0  0  0  0  0  0  0
  -25.8458  -23.1113   16.3228 C   0  0  0  0  0  0  0  0  0  0  0  0
  -29.5019  -23.3445   21.3255 C   0  0  0  0  0  0  0  0  0  0  0  0
  -18.0827  -27.7427   22.8953 C   0  0  0  0  0  0  0  0  0  0  0  0
  -23.2913  -27.7984   18.9853 C   0  0  0  0  0  0  0  0  0  0  0  0
  -25.2106  -25.6036   19.4794 C   0  0  0  0  0  0  0  0  0  0  0  0
  -18.5761  -26.4852   22.1843 C   0  0  0  0  0  0  0  0  0  0  0  0
  -29.4576  -21.0291   24.0299 C   0  0  0  0  0  0  0  0  0  0  0  0
  -19.9086  -26.0290   22.7698 C   0  0  0  0  0  0  0  0  0  0  0  0
  -28.9557  -19.7330   23.3894 C   0  0  0  0  0  0  0  0  0  0  0  0
  -28.7703  -22.2579   23.4371 C   0  0  0  0  0  0  0  0  0  0  0  0
  -28.3237  -21.0582   21.3323 C   0  0  0  0  0  0  0  0  0  0  0  0
  -20.9904  -27.0989   22.5788 C   0  0  1  0  0  0  0  0  0  0  0  0
  -22.8260  -26.3869   19.3297 C   0  0  1  0  0  0  0  0  0  0  0  0
  -29.0340  -19.7974   21.8514 C   0  0  2  0  0  0  0  0  0  0  0  0
  -26.3317  -21.3578   14.5946 C   0  0  0  0  0  0  0  0  0  0  0  0
  -23.8477  -22.0900   20.6909 C   0  0  0  0  0  0  0  0  0  0  0  0
  -25.1970  -20.7380   19.0723 C   0  0  0  0  0  0  0  0  0  0  0  0
  -22.7847  -21.1814   18.6175 C   0  0  0  0  0  0  0  0  0  0  0  0
  -26.1996  -25.1393   14.1966 C   0  0  0  0  0  0  0  0  0  0  0  0
  -32.0886  -27.8843   19.7804 C   0  0  0  0  0  0  0  0  0  0  0  0
  -29.5904  -28.0324   20.3065 C   0  0  0  0  0  0  0  0  0  1  0  0
  -24.4573  -23.0621   18.3780 C   0  0  1  0  0  0  0  0  0  0  0  0
  -25.8015  -22.7607   14.8465 C   0  0  2  0  0  0  0  0  0  0  0  0
  -30.9118  -28.7819   20.1596 C   0  0  2  0  0  0  0  0  0  0  0  0
  -24.0787  -21.7948   19.1954 C   0  0  0  0  0  0  0  0  0  0  0  0
  -27.2036  -18.2086   21.3965 N   0  0  0  0  0  0  0  0  0  0  0  0
  -30.7468  -25.2981   19.4768 N   0  0  0  0  0  0  0  0  0  0  0  0
  -28.4937  -18.5342   21.2076 N   0  0  0  0  0  0  0  0  0  0  0  0
  -23.8318  -25.3688   19.0198 N   0  0  0  0  0  0  0  0  0  0  0  0
  -28.8889  -22.2537   21.9774 N   0  0  0  0  0  0  0  0  0  0  0  0
  -30.4839  -17.8237   20.1375 N   0  0  0  0  0  0  0  0  0  0  0  0
  -27.4971  -14.6295   19.0097 N   0  0  0  0  0  0  0  0  0  0  0  0
  -29.5872  -23.2141   19.9397 N   0  0  0  0  0  0  0  0  0  0  0  0
  -31.8573  -27.1897   18.5349 N   0  0  0  0  0  0  0  0  0  0  0  0
  -21.4813  -27.0840   21.2175 N   0  0  0  0  0  0  0  0  0  0  0  0
  -24.6555  -22.8173   16.9535 N   0  0  0  0  0  0  0  0  0  0  0  0
  -30.7466  -29.8349   19.1137 N   0  3  0  0  0  0  0  0  0  0  0  0
  -26.6252  -23.7225   14.0607 N   0  3  0  0  0  0  0  0  0  0  0  0
  -29.6787  -15.3005   18.7878 O   0  0  0  0  0  0  0  0  0  0  0  0
  -23.0643  -25.3932   21.4582 O   0  0  0  0  0  0  0  0  0  0  0  0
  -22.2644  -23.9176   18.0852 O   0  0  0  0  0  0  0  0  0  0  0  0
  -26.8385  -23.5940   16.8633 O   0  0  0  0  0  0  0  0  0  0  0  0
  -29.9449  -24.3099   21.9529 O   0  0  0  0  0  0  0  0  0  0  0  0
  -22.1429  -14.4405   20.5366 O   0  0  0  0  0  0  0  0  0  0  0  0
  -28.5678  -28.9480   20.6968 O   0  0  0  0  0  0  0  0  0  1  0  0
  -22.1263   -8.9746   21.2631 F   0  0  0  0  0  0  0  0  0  0  0  0
  -20.7433  -13.2916   22.6256 F   0  0  0  0  0  0  0  0  0  0  0  0
  -31.0011  -25.2408   16.9049 S   0  0  0  0  0  0  0  0  0  0  0  0
  1  2  1  0  0  0  0
  1  5  2  0  0  0  0
  2  6  2  0  0  0  0
  3  8  2  0  0  0  0
  3 16  1  0  0  0  0
  4  9  1  0  0  0  0
  4 16  2  0  0  0  0
  5 18  1  0  0  0  0
  6 20  1  0  0  0  0
  7 10  2  0  0  0  0
  7 19  1  0  0  0  0
  8 22  1  0  0  0  0
  9 22  2  0  0  0  0
 10 23  1  0  0  0  0
 11 12  2  0  0  0  0
 11 24  1  0  0  0  0
 12 25  1  0  0  0  0
 13 21  1  0  0  0  0
 13 23  2  0  0  0  0
 14 25  2  0  0  0  0
 14 26  1  0  0  0  0
 15 28  2  0  0  0  0
 15 81  1  0  0  0  0
 16 27  1  0  0  0  0
 17 27  1  0  0  0  0
 17 29  2  0  0  0  0
 17 31  1  0  0  0  0
 18 20  2  0  0  0  0
 18 36  1  0  0  0  0
 19 21  2  0  0  0  0
 19 37  1  0  0  0  0
 20 45  1  0  0  0  0
 21 38  1  0  0  0  0
 22 77  1  0  0  0  0
 23 78  1  0  0  0  0
 24 26  2  0  0  0  0
 24 77  1  0  0  0  0
 25 79  1  0  0  0  0
 26 80  1  0  0  0  0
 27 59  2  0  0  0  0
 28 60  1  0  0  0  0
 28 66  1  0  0  0  0
 29 61  1  0  0  0  0
 29 64  1  0  0  0  0
 30 60  2  0  0  0  0
 30 67  1  0  0  0  0
 30 81  1  0  0  0  0
 31 65  1  0  0  0  0
 31 72  2  0  0  0  0
 32 46  1  0  0  0  0
 32 68  1  0  0  0  0
 32 73  2  0  0  0  0
 33 55  1  0  0  0  0
 33 62  1  0  0  0  0
 33 74  2  0  0  0  0
 34 56  1  0  0  0  0
 34 69  1  0  0  0  0
 34 75  2  0  0  0  0
 35 63  1  0  0  0  0
 35 66  1  0  0  0  0
 35 76  2  0  0  0  0
 36 39  1  0  0  0  0
 37 46  1  0  0  0  0
 38 62  1  0  0  0  0
 39 41  1  0  0  0  0
 40 42  1  0  0  0  0
 40 43  1  0  0  0  0
 41 45  1  0  0  0  0
 42 47  1  0  0  0  0
 43 63  1  0  0  0  0
 44 47  1  0  0  0  0
 44 63  1  0  0  0  0
 45 68  1  0  0  0  0
 46 62  1  0  0  0  0
 47 61  1  0  0  0  0
 48 56  1  0  0  0  0
 49 58  1  0  0  0  0
 50 58  1  0  0  0  0
 51 58  1  0  0  0  0
 52 71  1  0  0  0  0
 53 57  1  0  0  0  0
 53 67  1  0  0  0  0
 54 57  1  0  0  0  0
 54 78  1  0  0  0  0
 55 58  1  0  0  0  0
 55 69  1  0  0  0  0
 56 71  1  0  0  0  0
 57 70  1  0  0  0  0
 59 61  1  0  0  0  0
M  CHG  2  70   1  71   1
M  ISO  4  35 100  54 101  66 100  78 101
M  END
> <Batch ID>
0195

> <Smiles>
CNC(C)C(=O)NC(C(=O)N1Cc2cc([101O:1][101CH2:1]C(N)CNc3nc([100NH:0][100C:0](=O)N4CCCC(n5nc(-c6ccc(Oc7ccc(F)cc7F)cc6)c(C(N)=O)c5N)C4)cs3)ccc2CC1C(=O)NC1CCCc2ccccc21)C(C)(C)C

> <Shape>
0.261

> <Color>
0.088

> <Negative vol penalty>
0.000

$$$$

  -OEChem-04052305363D

 85 93  0     1  0  0  0  0  0999 V2000
  -31.3778   -5.9267   22.4631 C   0  0  0  0  0  0  0  0  0  0  0  0
  -31.5165   -7.2275   21.9898 C   0  0  0  0  0  0  0  0  0  0  0  0
  -22.4476  -28.9562   20.5860 C   0  0  0  0  0  0  0  0  0  0  0  0
  -23.2362  -26.9295   21.6384 C   0  0  0  0  0  0  0  0  0  0  0  0
  -30.1926   -5.2273   22.2392 C   0  0  0  0  0  0  0  0  0  0  0  0
  -30.4705   -7.8294   21.2913 C   0  0  0  0  0  0  0  0  0  0  0  0
  -28.8871  -13.7442   21.4096 C   0  0  0  0  0  0  0  0  0  0  0  0
  -21.1692  -28.7216   21.0921 C   0  0  0  0  0  0  0  0  0  0  0  0
  -21.9577  -26.6949   22.1446 C   0  0  0  0  0  0  0  0  0  0  0  0
  -29.1580  -14.8051   20.5466 C   0  0  0  0  0  0  0  0  0  0  0  0
  -17.7824  -28.8452   22.4071 C   0  0  0  0  0  0  0  0  0  0  0  0
  -17.1042  -29.9211   22.9799 C   0  0  0  0  0  0  0  0  0  0  0  0
  -27.0388  -14.4473   19.4511 C   0  0  0  0  0  0  0  0  0  0  0  0
  -18.8702  -30.1661   24.6104 C   0  0  0  0  0  0  0  0  0  0  0  0
  -29.6233  -22.0376   20.3156 C   0  0  0  0  0  0  0  0  0  0  0  0
  -23.4812  -28.0601   20.8591 C   0  0  0  0  0  0  0  0  0  0  0  0
  -25.8408  -29.0252   20.9517 C   0  0  0  0  0  0  0  0  0  0  0  0
  -29.1279   -5.8243   21.5459 C   0  0  0  0  0  0  0  0  0  0  0  0
  -27.6928  -13.0186   21.2925 C   0  0  0  0  0  0  0  0  0  0  0  0
  -29.2704   -7.1368   21.0567 C   0  0  0  0  0  0  0  0  0  0  0  0
  -26.7540  -13.3792   20.3154 C   0  0  0  0  0  0  0  0  0  0  0  0
  -29.6686  -22.8260   19.1839 C   0  0  0  0  0  0  0  0  0  0  0  0
  -20.9242  -27.5910   21.8714 C   0  0  0  0  0  0  0  0  0  0  0  0
  -28.2351  -15.1550   19.5653 C   0  0  0  0  0  0  0  0  0  0  0  0
  -19.0044  -28.4297   22.9359 C   0  0  0  0  0  0  0  0  0  0  0  0
  -17.6481  -30.5816   24.0815 C   0  0  0  0  0  0  0  0  0  0  0  0
  -19.5483  -29.0902   24.0375 C   0  0  0  0  0  0  0  0  0  0  0  0
  -24.8019  -28.3016   20.3361 C   0  0  0  0  0  0  0  0  0  0  0  0
  -29.2145  -22.2322   18.0240 C   0  0  0  0  0  0  0  0  0  0  0  0
  -26.8800  -28.9633   20.0558 C   0  0  0  0  0  0  0  0  0  0  0  0
  -28.7561  -20.3013   19.1323 C   0  0  0  0  0  0  0  0  0  0  0  0
  -25.8643  -29.6935   22.2200 C   0  0  0  0  0  0  0  0  0  0  0  0
  -26.9602   -9.9922   20.6537 C   0  0  0  0  0  0  0  0  0  0  0  0
  -23.9474  -10.9868   21.3293 C   0  0  0  0  0  0  0  0  0  0  0  0
  -21.7243  -13.5686   21.5252 C   0  0  0  0  0  0  0  0  0  0  0  0
  -28.3133  -25.0724   15.7363 C   0  0  0  0  0  0  0  0  0  0  0  0
  -27.8838   -5.0119   21.2871 C   0  0  0  0  0  0  0  0  0  0  0  0
  -27.4037  -11.8939   22.2484 C   0  0  0  0  0  0  0  0  0  0  0  0
  -25.4480  -12.6450   20.1614 C   0  0  0  0  0  0  0  0  0  0  0  0
  -26.6833   -5.8545   20.8638 C   0  0  0  0  0  0  0  0  0  0  0  0
  -27.7663  -28.5715   15.3705 C   0  0  0  0  0  0  0  0  0  0  0  0
  -27.0882   -6.8588   19.7894 C   0  0  0  0  0  0  0  0  0  0  0  0
  -27.0383  -28.9644   16.6572 C   0  0  0  0  0  0  0  0  0  0  0  0
  -27.3445  -27.1869   14.8837 C   0  0  0  0  0  0  0  0  0  0  0  0
  -26.7405  -26.5062   17.1740 C   0  0  0  0  0  0  0  0  0  0  0  0
  -28.1490   -7.8327   20.3162 C   0  0  1  0  0  0  0  0  0  0  0  0
  -26.3844  -10.8964   21.7066 C   0  0  1  0  0  0  0  0  0  0  0  0
  -27.1741  -27.8715   17.7344 C   0  0  2  0  0  0  0  0  0  0  0  0
  -19.3256  -14.0657   22.0701 C   0  0  0  0  0  0  0  0  0  0  0  0
  -29.4279  -25.2161   21.2641 C   0  0  0  0  0  0  0  0  0  0  0  0
  -31.5234  -25.9312   20.0628 C   0  0  0  0  0  0  0  0  0  0  0  0
  -23.1007   -9.8511   18.6268 C   0  0  0  0  0  0  0  0  0  0  0  0
  -20.9901  -11.1858   18.8055 C   0  0  0  0  0  0  0  0  0  0  0  0
  -21.4916   -9.4168   20.4913 C   0  0  0  0  0  0  0  0  0  0  0  0
  -22.4810  -15.3467   23.7669 C   0  0  0  0  0  0  0  0  0  0  0  0
  -29.2153  -22.9872   16.7351 C   0  0  0  0  0  0  0  0  0  0  0  0
  -27.8024  -18.3460   17.9103 C   0  0  0  0  0  0  0  0  0  0  0  0
  -27.3779  -16.9208   18.2225 C   0  0  0  0  0  0  0  0  0  1  0  0
  -22.8104  -11.5735   20.5281 C   0  0  1  0  0  0  0  0  0  0  0  0
  -20.7439  -13.9735   22.6112 C   0  0  2  0  0  0  0  0  0  0  0  0
  -30.6207  -24.7639   20.4344 C   0  0  0  0  0  0  0  0  0  0  0  0
  -22.1236  -10.5196   19.6143 C   0  0  0  0  0  0  0  0  0  0  0  0
  -29.1714  -20.7664   20.3259 N   0  0  0  0  0  0  0  0  0  0  0  0
  -25.1494  -27.8158   19.1415 N   0  0  0  0  0  0  0  0  0  0  0  0
  -28.7499  -20.9671   17.9617 N   0  0  0  0  0  0  0  0  0  0  0  0
  -26.4183  -28.2350   18.9991 N   0  0  0  0  0  0  0  0  0  0  0  0
  -25.2141  -11.5487   21.1158 N   0  0  0  0  0  0  0  0  0  0  0  0
  -27.4991  -26.1965   15.9520 N   0  0  0  0  0  0  0  0  0  0  0  0
  -28.1345  -29.4614   20.0766 N   0  0  0  0  0  0  0  0  0  0  0  0
  -24.7107  -29.6585   23.0152 N   0  0  0  0  0  0  0  0  0  0  0  0
  -30.1470  -24.1408   19.2306 N   0  0  0  0  0  0  0  0  0  0  0  0
  -28.2851  -18.9990   19.1056 N   0  0  0  0  0  0  0  0  0  0  0  0
  -27.5373   -8.8411   21.1549 N   0  0  0  0  0  0  0  0  0  0  0  0
  -21.9144  -12.2033   21.4919 N   0  0  0  0  0  0  0  0  0  0  0  0
  -28.4103  -24.1865   16.8024 N   0  0  0  0  0  0  0  0  0  0  0  0
  -21.1177  -15.2999   23.1783 N   0  3  0  0  0  0  0  0  0  0  0  0
  -26.8729  -30.3175   22.6285 O   0  0  0  0  0  0  0  0  0  0  0  0
  -26.8851  -10.3144   19.4738 O   0  0  0  0  0  0  0  0  0  0  0  0
  -23.7189  -10.0686   22.1207 O   0  0  0  0  0  0  0  0  0  0  0  0
  -22.2644  -14.3818   20.7786 O   0  0  0  0  0  0  0  0  0  0  0  0
  -28.9139  -24.8758   14.6744 O   0  0  0  0  0  0  0  0  0  0  0  0
  -19.6769  -27.3619   22.3656 O   0  0  0  0  0  0  0  0  0  0  0  0
  -28.4974  -16.1897   18.7213 O   0  0  0  0  0  0  0  0  0  1  0  0
  -16.9974  -31.6157   24.6306 F   0  0  0  0  0  0  0  0  0  0  0  0
  -20.7226  -28.6964   24.5493 F   0  0  0  0  0  0  0  0  0  0  0  0
  1  2  1  0  0  0  0
  1  5  2  0  0  0  0
  2  6  2  0  0  0  0
  3  8  2  0  0  0  0
  3 16  1  0  0  0  0
  4  9  1  0  0  0  0
  4 16  2  0  0  0  0
  5 18  1  0  0  0  0
  6 20  1  0  0  0  0
  7 10  2  0  0  0  0
  7 19  1  0  0  0  0
  8 23  1  0  0  0  0
  9 23  2  0  0  0  0
 10 24  1  0  0  0  0
 11 12  2  0  0  0  0
 11 25  1  0  0  0  0
 12 26  1  0  0  0  0
 13 21  1  0  0  0  0
 13 24  2  0  0  0  0
 14 26  2  0  0  0  0
 14 27  1  0  0  0  0
 15 22  1  0  0  0  0
 15 63  2  0  0  0  0
 16 28  1  0  0  0  0
 17 28  1  0  0  0  0
 17 30  2  0  0  0  0
 17 32  1  0  0  0  0
 18 20  2  0  0  0  0
 18 37  1  0  0  0  0
 19 21  2  0  0  0  0
 19 38  1  0  0  0  0
 20 46  1  0  0  0  0
 21 39  1  0  0  0  0
 22 29  2  0  0  0  0
 22 71  1  0  0  0  0
 23 82  1  0  0  0  0
 24 83  1  0  0  0  0
 25 27  2  0  0  0  0
 25 82  1  0  0  0  0
 26 84  1  0  0  0  0
 27 85  1  0  0  0  0
 28 64  2  0  0  0  0
 29 56  1  0  0  0  0
 29 65  1  0  0  0  0
 30 66  1  0  0  0  0
 30 69  1  0  0  0  0
 31 63  1  0  0  0  0
 31 65  2  0  0  0  0
 31 72  1  0  0  0  0
 32 70  1  0  0  0  0
 32 77  2  0  0  0  0
 33 47  1  0  0  0  0
 33 73  1  0  0  0  0
 33 78  2  0  0  0  0
 34 59  1  0  0  0  0
 34 67  1  0  0  0  0
 34 79  2  0  0  0  0
 35 60  1  0  0  0  0
 35 74  1  0  0  0  0
 35 80  2  0  0  0  0
 36 68  1  0  0  0  0
 36 75  1  0  0  0  0
 36 81  2  0  0  0  0
 37 40  1  0  0  0  0
 38 47  1  0  0  0  0
 39 67  1  0  0  0  0
 40 42  1  0  0  0  0
 41 43  1  0  0  0  0
 41 44  1  0  0  0  0
 42 46  1  0  0  0  0
 43 48  1  0  0  0  0
 44 68  1  0  0  0  0
 45 48  1  0  0  0  0
 45 68  1  0  0  0  0
 46 73  1  0  0  0  0
 47 67  1  0  0  0  0
 48 66  1  0  0  0  0
 49 60  1  0  0  0  0
 50 61  1  0  0  0  0
 51 61  1  0  0  0  0
 52 62  1  0  0  0  0
 53 62  1  0  0  0  0
 54 62  1  0  0  0  0
 55 76  1  0  0  0  0
 56 75  1  0  0  0  0
 57 58  1  0  0  0  0
 57 72  1  0  0  0  0
 58 83  1  0  0  0  0
 59 62  1  0  0  0  0
 59 74  1  0  0  0  0
 60 76  1  0  0  0  0
 61 71  1  0  0  0  0
 64 66  1  0  0  0  0
M  CHG  1  76   1
M  ISO  4  36 100  58 101  75 100  83 101
M  END
> <Batch ID>
0195

> <Smiles>
CNC(C)C(=O)NC(C(=O)N1Cc2cc([101O:1][101CH2:1]CNc3ncc(NC(C)C)c(C[100NH:0][100C:0](=O)N4CCCC(n5nc(-c6ccc(Oc7ccc(F)cc7F)cc6)c(C(N)=O)c5N)C4)n3)ccc2CC1C(=O)NC1CCCc2ccccc21)C(C)(C)C

> <Shape>
0.271

> <Color>
0.074

> <Negative vol penalty>
0.000

$$$$

  -OEChem-04052305363D

 88 96  0     1  0  0  0  0  0999 V2000
  -31.4578  -34.9023   23.0779 C   0  0  0  0  0  0  0  0  0  0  0  0
  -31.3054  -33.7002   22.3944 C   0  0  0  0  0  0  0  0  0  0  0  0
  -23.1547   -9.7732   21.5331 C   0  0  0  0  0  0  0  0  0  0  0  0
  -23.7746  -10.8515   23.6044 C   0  0  0  0  0  0  0  0  0  0  0  0
  -30.6581  -35.1790   24.1860 C   0  0  0  0  0  0  0  0  0  0  0  0
  -30.3539  -32.7736   22.8192 C   0  0  0  0  0  0  0  0  0  0  0  0
  -27.0304  -29.0290   19.2925 C   0  0  0  0  0  0  0  0  0  0  0  0
  -22.4706   -8.7910   22.2492 C   0  0  0  0  0  0  0  0  0  0  0  0
  -23.0905   -9.8693   24.3205 C   0  0  0  0  0  0  0  0  0  0  0  0
  -27.1788  -27.6857   18.9501 C   0  0  0  0  0  0  0  0  0  0  0  0
  -23.2304   -5.9990   23.9963 C   0  0  0  0  0  0  0  0  0  0  0  0
  -23.4171   -4.6708   23.6137 C   0  0  0  0  0  0  0  0  0  0  0  0
  -25.6580  -27.0729   20.7194 C   0  0  0  0  0  0  0  0  0  0  0  0
  -21.0521   -4.4679   23.1634 C   0  0  0  0  0  0  0  0  0  0  0  0
  -23.8067  -10.8035   22.2107 C   0  0  0  0  0  0  0  0  0  0  0  0
  -23.9970  -13.0366   20.9922 C   0  0  0  0  0  0  0  0  0  0  0  0
  -29.6897  -34.2595   24.6189 C   0  0  0  0  0  0  0  0  0  0  0  0
  -26.2017  -29.4041   20.3597 C   0  0  0  0  0  0  0  0  0  0  0  0
  -29.5414  -33.0377   23.9350 C   0  0  0  0  0  0  0  0  0  0  0  0
  -25.4987  -28.4218   21.0717 C   0  0  0  0  0  0  0  0  0  0  0  0
  -22.4385   -8.8390   23.6429 C   0  0  0  0  0  0  0  0  0  0  0  0
  -26.4948  -26.7072   19.6654 C   0  0  0  0  0  0  0  0  0  0  0  0
  -21.9545   -6.5618   23.9626 C   0  0  0  0  0  0  0  0  0  0  0  0
  -22.3280   -3.9052   23.1972 C   0  0  0  0  0  0  0  0  0  0  0  0
  -20.8654   -5.7962   23.5461 C   0  0  0  0  0  0  0  0  0  0  0  0
  -24.5141  -11.8181   21.4715 C   0  0  0  0  0  0  0  0  0  0  0  0
  -31.1673  -19.4297   19.9008 C   0  0  0  0  0  0  0  0  0  0  0  0
  -25.0600  -13.6367   20.3626 C   0  0  0  0  0  0  0  0  0  0  0  0
  -30.0023  -19.9942   20.3766 C   0  0  0  0  0  0  0  0  0  0  0  0
  -30.0657  -17.5864   20.3466 C   0  0  0  0  0  0  0  0  0  0  0  0
  -22.6741  -13.5776   21.1059 C   0  0  0  0  0  0  0  0  0  0  0  0
  -26.6542  -30.8725   23.1423 C   0  0  0  0  0  0  0  0  0  0  0  0
  -23.4173  -30.7307   23.3000 C   0  0  0  0  0  0  0  0  0  0  0  0
  -20.5327  -29.1995   22.3094 C   0  0  0  0  0  0  0  0  0  0  0  0
  -30.4302  -15.0982   20.1967 C   0  0  0  0  0  0  0  0  0  0  0  0
  -28.8812  -34.5824   25.8504 C   0  0  0  0  0  0  0  0  0  0  0  0
  -26.0314  -30.8595   20.6994 C   0  0  0  0  0  0  0  0  0  0  0  0
  -24.5810  -28.7738   22.2130 C   0  0  0  0  0  0  0  0  0  0  0  0
  -27.6394  -33.7092   26.0101 C   0  0  0  0  0  0  0  0  0  0  0  0
  -29.6116  -11.8058   19.1164 C   0  0  0  0  0  0  0  0  0  0  0  0
  -27.9847  -32.2420   25.7760 C   0  0  0  0  0  0  0  0  0  0  0  0
  -28.1699  -11.6158   19.5934 C   0  0  0  0  0  0  0  0  0  0  0  0
  -30.4374  -12.6146   20.1152 C   0  0  0  0  0  0  0  0  0  0  0  0
  -28.4101  -13.7135   20.9822 C   0  0  0  0  0  0  0  0  0  0  0  0
  -28.5033  -32.0180   24.3504 C   0  0  1  0  0  0  0  0  0  0  0  0
  -25.5621  -31.0875   22.1330 C   0  0  1  0  0  0  0  0  0  0  0  0
  -27.5219  -12.9601   19.9787 C   0  0  2  0  0  0  0  0  0  0  0  0
  -32.5892  -19.8935   17.9061 C   0  0  0  0  0  0  0  0  0  0  0  0
  -18.0459  -29.2827   22.6357 C   0  0  0  0  0  0  0  0  0  0  0  0
  -33.4578  -20.2392   21.7280 C   0  0  0  0  0  0  0  0  0  0  0  0
  -34.9005  -20.6292   19.7334 C   0  0  0  0  0  0  0  0  0  0  0  0
  -28.4408  -21.6882   22.5388 C   0  0  0  0  0  0  0  0  0  0  0  0
  -23.7333  -29.4018   26.0284 C   0  0  0  0  0  0  0  0  0  0  0  0
  -21.3459  -28.6650   25.8684 C   0  0  0  0  0  0  0  0  0  0  0  0
  -21.8993  -31.0972   25.8999 C   0  0  0  0  0  0  0  0  0  0  0  0
  -20.0586  -29.7610   19.4425 C   0  0  0  0  0  0  0  0  0  0  0  0
  -28.2176  -23.2887   20.6036 C   0  0  0  0  0  0  0  0  0  0  0  0
  -27.8883  -25.0011   18.7691 C   0  0  0  0  0  0  0  0  0  1  0  0
  -32.3581  -20.1600   19.4171 C   0  0  2  0  0  0  0  0  0  0  0  0
  -22.4155  -29.7353   23.8334 C   0  0  1  0  0  0  0  0  0  0  0  0
  -19.2195  -29.7611   21.7951 C   0  0  2  0  0  0  0  0  0  0  0  0
  -33.6667  -19.8783   20.2497 C   0  0  0  0  0  0  0  0  0  0  0  0
  -28.4321  -21.8239   21.0186 C   0  0  1  0  0  0  0  0  0  0  0  0
  -28.1520  -23.5311   19.0883 C   0  0  2  0  0  0  0  0  0  0  0  0
  -22.3672  -29.7177   25.3873 C   0  0  0  0  0  0  0  0  0  0  0  0
  -25.8051  -11.6524   21.1720 N   0  0  0  0  0  0  0  0  0  0  0  0
  -31.2056  -18.0492   19.8832 N   0  0  0  0  0  0  0  0  0  0  0  0
  -26.1082  -12.7746   20.4975 N   0  0  0  0  0  0  0  0  0  0  0  0
  -24.4526  -30.2098   22.5108 N   0  0  0  0  0  0  0  0  0  0  0  0
  -29.7640  -13.8765   20.4298 N   0  0  0  0  0  0  0  0  0  0  0  0
  -25.1909  -14.8123   19.7121 N   0  0  0  0  0  0  0  0  0  0  0  0
  -21.7026  -12.8299   21.7851 N   0  0  0  0  0  0  0  0  0  0  0  0
  -29.6950  -21.3371   20.5049 N   0  0  0  0  0  0  0  0  0  0  0  0
  -29.6788  -16.2323   20.5031 N   0  0  0  0  0  0  0  0  0  0  0  0
  -27.4039  -32.0021   23.4093 N   0  0  0  0  0  0  0  0  0  0  0  0
  -21.1418  -30.0585   23.1996 N   0  0  0  0  0  0  0  0  0  0  0  0
  -27.0402  -22.7268   18.5003 N   0  3  0  0  0  0  0  0  0  0  0  0
  -18.9914  -29.3366   20.3849 N   0  3  0  0  0  0  0  0  0  0  0  0
  -22.3586  -14.6837   20.6055 O   0  0  0  0  0  0  0  0  0  0  0  0
  -26.8044  -29.7641   23.6430 O   0  0  0  0  0  0  0  0  0  0  0  0
  -23.2821  -31.9273   23.5676 O   0  0  0  0  0  0  0  0  0  0  0  0
  -20.9722  -28.1064   21.9595 O   0  0  0  0  0  0  0  0  0  0  0  0
  -31.5725  -15.1362   19.7321 O   0  0  0  0  0  0  0  0  0  0  0  0
  -21.7708   -7.8808   24.3420 O   0  0  0  0  0  0  0  0  0  0  0  0
  -26.6385  -25.3952   19.3337 O   0  0  0  0  0  0  0  0  0  1  0  0
  -22.5077   -2.6302   22.8283 F   0  0  0  0  0  0  0  0  0  0  0  0
  -19.6374   -6.3317   23.5105 F   0  0  0  0  0  0  0  0  0  0  0  0
  -28.9026  -18.7555   20.8212 S   0  0  0  0  0  0  0  0  0  0  0  0
  1  2  1  0  0  0  0
  1  5  2  0  0  0  0
  2  6  2  0  0  0  0
  3  8  2  0  0  0  0
  3 15  1  0  0  0  0
  4  9  1  0  0  0  0
  4 15  2  0  0  0  0
  5 17  1  0  0  0  0
  6 19  1  0  0  0  0
  7 10  2  0  0  0  0
  7 18  1  0  0  0  0
  8 21  1  0  0  0  0
  9 21  2  0  0  0  0
 10 22  1  0  0  0  0
 11 12  2  0  0  0  0
 11 23  1  0  0  0  0
 12 24  1  0  0  0  0
 13 20  1  0  0  0  0
 13 22  2  0  0  0  0
 14 24  2  0  0  0  0
 14 25  1  0  0  0  0
 15 26  1  0  0  0  0
 16 26  1  0  0  0  0
 16 28  2  0  0  0  0
 16 31  1  0  0  0  0
 17 19  2  0  0  0  0
 17 36  1  0  0  0  0
 18 20  2  0  0  0  0
 18 37  1  0  0  0  0
 19 45  1  0  0  0  0
 20 38  1  0  0  0  0
 21 84  1  0  0  0  0
 22 85  1  0  0  0  0
 23 25  2  0  0  0  0
 23 84  1  0  0  0  0
 24 86  1  0  0  0  0
 25 87  1  0  0  0  0
 26 66  2  0  0  0  0
 27 29  2  0  0  0  0
 27 59  1  0  0  0  0
 27 67  1  0  0  0  0
 28 68  1  0  0  0  0
 28 71  1  0  0  0  0
 29 73  1  0  0  0  0
 29 88  1  0  0  0  0
 30 67  2  0  0  0  0
 30 74  1  0  0  0  0
 30 88  1  0  0  0  0
 31 72  1  0  0  0  0
 31 79  2  0  0  0  0
 32 46  1  0  0  0  0
 32 75  1  0  0  0  0
 32 80  2  0  0  0  0
 33 60  1  0  0  0  0
 33 69  1  0  0  0  0
 33 81  2  0  0  0  0
 34 61  1  0  0  0  0
 34 76  1  0  0  0  0
 34 82  2  0  0  0  0
 35 70  1  0  0  0  0
 35 74  1  0  0  0  0
 35 83  2  0  0  0  0
 36 39  1  0  0  0  0
 37 46  1  0  0  0  0
 38 69  1  0  0  0  0
 39 41  1  0  0  0  0
 40 42  1  0  0  0  0
 40 43  1  0  0  0  0
 41 45  1  0  0  0  0
 42 47  1  0  0  0  0
 43 70  1  0  0  0  0
 44 47  1  0  0  0  0
 44 70  1  0  0  0  0
 45 75  1  0  0  0  0
 46 69  1  0  0  0  0
 47 68  1  0  0  0  0
 48 59  1  0  0  0  0
 49 61  1  0  0  0  0
 50 62  1  0  0  0  0
 51 62  1  0  0  0  0
 52 63  1  0  0  0  0
 53 65  1  0  0  0  0
 54 65  1  0  0  0  0
 55 65  1  0  0  0  0
 56 78  1  0  0  0  0
 57 63  1  0  0  0  0
 57 64  1  0  0  0  0
 58 64  1  0  0  0  0
 58 85  1  0  0  0  0
 59 62  1  0  0  0  0
 60 65  1  0  0  0  0
 60 76  1  0  0  0  0
 61 78  1  0  0  0  0
 63 73  1  0  0  0  0
 64 77  1  0  0  0  0
 66 68  1  0  0  0  0
M  CHG  2  77   1  78   1
M  ISO  4  35 100  58 101  74 100  85 101
M  END
> <Batch ID>
0195

> <Smiles>
CNC(C)C(=O)NC(C(=O)N1Cc2cc([101O:1][101CH2:1]C(N)CC(C)Nc3sc([100NH:0][100C:0](=O)N4CCCC(n5nc(-c6ccc(Oc7ccc(F)cc7F)cc6)c(C(N)=O)c5N)C4)nc3C(C)C(C)C)ccc2CC1C(=O)NC1CCCc2ccccc21)C(C)(C)C

> <Shape>
0.328

> <Color>
0.192

> <Negative vol penalty>
0.000

$$$$

  -OEChem-04052305363D

 82 90  0     1  0  0  0  0  0999 V2000
  -24.3222  -35.4014   22.7203 C   0  0  0  0  0  0  0  0  0  0  0  0
  -25.1450  -34.2925   22.5508 C   0  0  0  0  0  0  0  0  0  0  0  0
  -24.4986  -12.1987   21.5664 C   0  0  0  0  0  0  0  0  0  0  0  0
  -24.9838  -12.2672   19.2006 C   0  0  0  0  0  0  0  0  0  0  0  0
  -23.0450  -35.2447   23.2570 C   0  0  0  0  0  0  0  0  0  0  0  0
  -24.6914  -33.0263   22.9189 C   0  0  0  0  0  0  0  0  0  0  0  0
  -25.7319  -29.5013   19.4352 C   0  0  0  0  0  0  0  0  0  0  0  0
  -23.7407  -11.0430   21.3775 C   0  0  0  0  0  0  0  0  0  0  0  0
  -24.2260  -11.1115   19.0117 C   0  0  0  0  0  0  0  0  0  0  0  0
  -27.0373  -29.0135   19.3931 C   0  0  0  0  0  0  0  0  0  0  0  0
  -24.3048   -7.7380   20.9399 C   0  0  0  0  0  0  0  0  0  0  0  0
  -24.4906   -6.6870   21.8379 C   0  0  0  0  0  0  0  0  0  0  0  0
  -26.3408  -27.0604   20.6258 C   0  0  0  0  0  0  0  0  0  0  0  0
  -22.1629   -6.8173   22.4720 C   0  0  0  0  0  0  0  0  0  0  0  0
  -25.1201  -12.8108   20.4780 C   0  0  0  0  0  0  0  0  0  0  0  0
  -27.2793  -14.0822   20.9568 C   0  0  0  0  0  0  0  0  0  0  0  0
  -22.5719  -33.9747   23.6229 C   0  0  0  0  0  0  0  0  0  0  0  0
  -24.7217  -28.7763   20.0834 C   0  0  0  0  0  0  0  0  0  0  0  0
  -23.4072  -32.8527   23.4622 C   0  0  0  0  0  0  0  0  0  0  0  0
  -25.0228  -27.5399   20.6725 C   0  0  0  0  0  0  0  0  0  0  0  0
  -23.6044  -10.4994   20.1002 C   0  0  0  0  0  0  0  0  0  0  0  0
  -27.3425  -27.7942   19.9909 C   0  0  0  0  0  0  0  0  0  0  0  0
  -23.0481   -8.3288   20.8080 C   0  0  0  0  0  0  0  0  0  0  0  0
  -23.4196   -6.2266   22.6039 C   0  0  0  0  0  0  0  0  0  0  0  0
  -21.9771   -7.8684   21.5740 C   0  0  0  0  0  0  0  0  0  0  0  0
  -25.9027  -14.0049   20.6724 C   0  0  0  0  0  0  0  0  0  0  0  0
  -30.6092  -20.4483   18.1612 C   0  0  0  0  0  0  0  0  0  0  0  0
  -29.3755  -20.9711   18.4879 C   0  0  0  0  0  0  0  0  0  0  0  0
  -27.5360  -15.4284   21.0476 C   0  0  0  0  0  0  0  0  0  0  0  0
  -30.4527  -22.8520   18.1534 C   0  0  0  0  0  0  0  0  0  0  0  0
  -28.2400  -13.0311   21.1239 C   0  0  0  0  0  0  0  0  0  0  0  0
  -22.8144  -29.3169   22.5681 C   0  0  0  0  0  0  0  0  0  0  0  0
  -21.4722  -26.5095   21.6519 C   0  0  0  0  0  0  0  0  0  0  0  0
  -21.8138  -23.5302   20.0228 C   0  0  0  0  0  0  0  0  0  0  0  0
  -26.9695  -20.6338   19.1541 C   0  0  0  0  0  0  0  0  0  0  0  0
  -21.2016  -33.8613   24.2428 C   0  0  0  0  0  0  0  0  0  0  0  0
  -23.3130  -29.3035   20.0969 C   0  0  0  0  0  0  0  0  0  0  0  0
  -23.9703  -26.7133   21.3633 C   0  0  0  0  0  0  0  0  0  0  0  0
  -20.6566  -32.4355   24.2592 C   0  0  0  0  0  0  0  0  0  0  0  0
  -24.3767  -19.3782   21.2465 C   0  0  0  0  0  0  0  0  0  0  0  0
  -21.7215  -31.4626   24.7553 C   0  0  0  0  0  0  0  0  0  0  0  0
  -24.6558  -17.8747   21.3071 C   0  0  0  0  0  0  0  0  0  0  0  0
  -24.6872  -19.9576   19.8675 C   0  0  0  0  0  0  0  0  0  0  0  0
  -26.3128  -18.1613   19.4204 C   0  0  0  0  0  0  0  0  0  0  0  0
  -22.9417  -31.4596   23.8265 C   0  0  1  0  0  0  0  0  0  0  0  0
  -22.4700  -28.7267   21.2299 C   0  0  1  0  0  0  0  0  0  0  0  0
  -26.0766  -17.5448   20.8089 C   0  0  2  0  0  0  0  0  0  0  0  0
  -31.0577  -19.0436   18.0684 C   0  0  0  0  0  0  0  0  0  0  0  0
  -20.5567  -21.4281   19.4769 C   0  0  0  0  0  0  0  0  0  0  0  0
  -21.8838  -25.5240   24.5101 C   0  0  0  0  0  0  0  0  0  0  0  0
  -21.5135  -23.1896   23.6844 C   0  0  0  0  0  0  0  0  0  0  0  0
  -19.6918  -24.8827   23.4911 C   0  0  0  0  0  0  0  0  0  0  0  0
  -22.0242  -24.0223   17.1121 C   0  0  0  0  0  0  0  0  0  0  0  0
  -29.7345  -25.2372   18.2973 C   0  0  0  0  0  0  0  0  0  0  0  0
  -29.4114  -27.6782   18.8238 C   0  0  0  0  0  0  0  0  0  1  0  0
  -21.7095  -25.0546   21.9773 C   0  0  1  0  0  0  0  0  0  0  0  0
  -20.9263  -22.8278   19.0112 C   0  0  2  0  0  0  0  0  0  0  0  0
  -30.4278  -26.5729   18.5588 C   0  0  1  0  0  0  0  0  0  0  0  0
  -21.2201  -24.6790   23.4045 C   0  0  0  0  0  0  0  0  0  0  0  0
  -25.3253  -15.2064   20.5882 N   0  0  0  0  0  0  0  0  0  0  0  0
  -29.2840  -22.3493   18.4844 N   0  0  0  0  0  0  0  0  0  0  0  0
  -26.3440  -16.0513   20.8212 N   0  0  0  0  0  0  0  0  0  0  0  0
  -22.6092  -27.2744   21.3552 N   0  0  0  0  0  0  0  0  0  0  0  0
  -26.0508  -19.6085   19.4632 N   0  0  0  0  0  0  0  0  0  0  0  0
  -28.6629  -16.1282   21.2983 N   0  0  0  0  0  0  0  0  0  0  0  0
  -27.8072  -11.7040   20.9974 N   0  0  0  0  0  0  0  0  0  0  0  0
  -28.2445  -20.1825   18.8145 N   0  0  0  0  0  0  0  0  0  0  0  0
  -30.7184  -24.2070   18.0507 N   0  0  0  0  0  0  0  0  0  0  0  0
  -22.6662  -30.6892   22.6327 N   0  0  0  0  0  0  0  0  0  0  0  0
  -21.0777  -24.2889   20.9082 N   0  0  0  0  0  0  0  0  0  0  0  0
  -21.6237  -22.7176   17.6987 N   0  3  0  0  0  0  0  0  0  0  0  0
  -29.4431  -13.2614   21.3940 O   0  0  0  0  0  0  0  0  0  0  0  0
  -23.1856  -28.5815   23.4753 O   0  0  0  0  0  0  0  0  0  0  0  0
  -20.3197  -26.9494   21.6538 O   0  0  0  0  0  0  0  0  0  0  0  0
  -23.0374  -23.4143   20.0295 O   0  0  0  0  0  0  0  0  0  0  0  0
  -26.6564  -21.8256   19.2145 O   0  0  0  0  0  0  0  0  0  0  0  0
  -31.2517  -26.4522   19.7203 O   0  0  0  0  0  0  0  0  0  0  0  0
  -22.8651   -9.3717   19.9155 O   0  0  0  0  0  0  0  0  0  0  0  0
  -28.6160  -27.3161   19.9519 O   0  0  0  0  0  0  0  0  0  1  0  0
  -23.5978   -5.2162   23.4651 F   0  0  0  0  0  0  0  0  0  0  0  0
  -20.7672   -8.4312   21.4508 F   0  0  0  0  0  0  0  0  0  0  0  0
  -31.7062  -21.7248   17.8324 S   0  0  0  0  0  0  0  0  0  0  0  0
  1  2  1  0  0  0  0
  1  5  2  0  0  0  0
  2  6  2  0  0  0  0
  3  8  2  0  0  0  0
  3 15  1  0  0  0  0
  4  9  1  0  0  0  0
  4 15  2  0  0  0  0
  5 17  1  0  0  0  0
  6 19  1  0  0  0  0
  7 10  2  0  0  0  0
  7 18  1  0  0  0  0
  8 21  1  0  0  0  0
  9 21  2  0  0  0  0
 10 22  1  0  0  0  0
 11 12  2  0  0  0  0
 11 23  1  0  0  0  0
 12 24  1  0  0  0  0
 13 20  1  0  0  0  0
 13 22  2  0  0  0  0
 14 24  2  0  0  0  0
 14 25  1  0  0  0  0
 15 26  1  0  0  0  0
 16 26  1  0  0  0  0
 16 29  2  0  0  0  0
 16 31  1  0  0  0  0
 17 19  2  0  0  0  0
 17 36  1  0  0  0  0
 18 20  2  0  0  0  0
 18 37  1  0  0  0  0
 19 45  1  0  0  0  0
 20 38  1  0  0  0  0
 21 78  1  0  0  0  0
 22 79  1  0  0  0  0
 23 25  2  0  0  0  0
 23 78  1  0  0  0  0
 24 80  1  0  0  0  0
 25 81  1  0  0  0  0
 26 60  2  0  0  0  0
 27 28  2  0  0  0  0
 27 48  1  0  0  0  0
 27 82  1  0  0  0  0
 28 61  1  0  0  0  0
 28 67  1  0  0  0  0
 29 62  1  0  0  0  0
 29 65  1  0  0  0  0
 30 61  2  0  0  0  0
 30 68  1  0  0  0  0
 30 82  1  0  0  0  0
 31 66  1  0  0  0  0
 31 72  2  0  0  0  0
 32 46  1  0  0  0  0
 32 69  1  0  0  0  0
 32 73  2  0  0  0  0
 33 56  1  0  0  0  0
 33 63  1  0  0  0  0
 33 74  2  0  0  0  0
 34 57  1  0  0  0  0
 34 70  1  0  0  0  0
 34 75  2  0  0  0  0
 35 64  1  0  0  0  0
 35 67  1  0  0  0  0
 35 76  2  0  0  0  0
 36 39  1  0  0  0  0
 37 46  1  0  0  0  0
 38 63  1  0  0  0  0
 39 41  1  0  0  0  0
 40 42  1  0  0  0  0
 40 43  1  0  0  0  0
 41 45  1  0  0  0  0
 42 47  1  0  0  0  0
 43 64  1  0  0  0  0
 44 47  1  0  0  0  0
 44 64  1  0  0  0  0
 45 69  1  0  0  0  0
 46 63  1  0  0  0  0
 47 62  1  0  0  0  0
 49 57  1  0  0  0  0
 50 59  1  0  0  0  0
 51 59  1  0  0  0  0
 52 59  1  0  0  0  0
 53 71  1  0  0  0  0
 54 58  1  0  0  0  0
 54 68  1  0  0  0  0
 55 58  1  0  0  0  0
 55 79  1  0  0  0  0
 56 59  1  0  0  0  0
 56 70  1  0  0  0  0
 57 71  1  0  0  0  0
 58 77  1  0  0  0  0
 60 62  1  0  0  0  0
M  CHG  1  71   1
M  ISO  4  35 100  55 101  67 100  79 101
M  END
> <Batch ID>
0195

> <Smiles>
CNC(C)C(=O)NC(C(=O)N1Cc2cc([101O:1][101CH2:1]C(O)CNc3nc([100NH:0][100C:0](=O)N4CCCC(n5nc(-c6ccc(Oc7ccc(F)cc7F)cc6)c(C(N)=O)c5N)C4)c(C)s3)ccc2CC1C(=O)NC1CCCc2ccccc21)C(C)(C)C

> <Shape>
0.261

> <Color>
0.083

> <Negative vol penalty>
0.000

$$$$

  -OEChem-04052305363D

 83 91  0     1  0  0  0  0  0999 V2000
  -21.5598  -12.6181   19.7153 C   0  0  0  0  0  0  0  0  0  0  0  0
  -21.5991  -13.8367   20.3853 C   0  0  0  0  0  0  0  0  0  0  0  0
  -30.1170  -28.2442   21.4959 C   0  0  0  0  0  0  0  0  0  0  0  0
  -28.9153  -26.1873   21.8989 C   0  0  0  0  0  0  0  0  0  0  0  0
  -22.7260  -11.8692   19.5639 C   0  0  0  0  0  0  0  0  0  0  0  0
  -22.8047  -14.3066   20.9051 C   0  0  0  0  0  0  0  0  0  0  0  0
  -23.5612  -19.2167   19.9234 C   0  0  0  0  0  0  0  0  0  0  0  0
  -31.1821  -27.7722   22.2628 C   0  0  0  0  0  0  0  0  0  0  0  0
  -29.9806  -25.7153   22.6658 C   0  0  0  0  0  0  0  0  0  0  0  0
  -22.8711  -20.1372   20.7109 C   0  0  0  0  0  0  0  0  0  0  0  0
  -31.1829  -26.1514   25.7956 C   0  0  0  0  0  0  0  0  0  0  0  0
  -30.8840  -25.5402   27.0132 C   0  0  0  0  0  0  0  0  0  0  0  0
  -24.8547  -20.4774   22.0408 C   0  0  0  0  0  0  0  0  0  0  0  0
  -31.9329  -23.5027   26.2478 C   0  0  0  0  0  0  0  0  0  0  0  0
  -20.0267  -25.4484   21.5413 C   0  0  0  0  0  0  0  0  0  0  0  0
  -28.9835  -27.4518   21.3140 C   0  0  0  0  0  0  0  0  0  0  0  0
  -27.6947  -27.7770   19.1366 C   0  0  0  0  0  0  0  0  0  0  0  0
  -23.9483  -12.3347   20.0737 C   0  0  0  0  0  0  0  0  0  0  0  0
  -24.9024  -18.9110   20.1958 C   0  0  0  0  0  0  0  0  0  0  0  0
  -23.9881  -13.5626   20.7615 C   0  0  0  0  0  0  0  0  0  0  0  0
  -25.5604  -19.5546   21.2536 C   0  0  0  0  0  0  0  0  0  0  0  0
  -31.1140  -26.5078   22.8477 C   0  0  0  0  0  0  0  0  0  0  0  0
  -23.5170  -20.7656   21.7716 C   0  0  0  0  0  0  0  0  0  0  0  0
  -31.8567  -25.4383   24.8040 C   0  0  0  0  0  0  0  0  0  0  0  0
  -31.2590  -24.2159   27.2394 C   0  0  0  0  0  0  0  0  0  0  0  0
  -32.2317  -24.1140   25.0302 C   0  0  0  0  0  0  0  0  0  0  0  0
  -27.8826  -27.9390   20.5224 C   0  0  0  0  0  0  0  0  0  0  0  0
  -20.1940  -24.0799   21.6018 C   0  0  0  0  0  0  0  0  0  0  0  0
  -20.5251  -26.1587   22.6143 C   0  0  0  0  0  0  0  0  0  0  0  0
  -26.5085  -28.4175   18.8738 C   0  0  0  0  0  0  0  0  0  0  0  0
  -21.2430  -24.2464   23.6115 C   0  0  0  0  0  0  0  0  0  0  0  0
  -28.5187  -27.1074   18.1732 C   0  0  0  0  0  0  0  0  0  0  0  0
  -26.4793  -16.2787   21.0253 C   0  0  0  0  0  0  0  0  0  0  0  0
  -29.0773  -18.1824   20.6398 C   0  0  0  0  0  0  0  0  0  0  0  0
  -30.3736  -21.3389   20.5851 C   0  0  0  0  0  0  0  0  0  0  0  0
  -21.7304  -29.6968   22.2479 C   0  0  0  0  0  0  0  0  0  0  0  0
  -25.1736  -11.4677   19.9267 C   0  0  0  0  0  0  0  0  0  0  0  0
  -25.6405  -17.9357   19.3204 C   0  0  0  0  0  0  0  0  0  0  0  0
  -27.0053  -19.2766   21.5752 C   0  0  0  0  0  0  0  0  0  0  0  0
  -26.4813  -12.2133   20.1799 C   0  0  0  0  0  0  0  0  0  0  0  0
  -23.7600  -32.0032   20.4485 C   0  0  0  0  0  0  0  0  0  0  0  0
  -26.3790  -13.0548   21.4481 C   0  0  0  0  0  0  0  0  0  0  0  0
  -25.0298  -31.2085   20.1384 C   0  0  0  0  0  0  0  0  0  0  0  0
  -23.1942  -31.6494   21.8221 C   0  0  0  0  0  0  0  0  0  0  0  0
  -24.2310  -29.4153   21.7337 C   0  0  0  0  0  0  0  0  0  0  0  0
  -25.2813  -14.1177   21.3179 C   0  0  1  0  0  0  0  0  0  0  0  0
  -26.8547  -17.3173   20.0064 C   0  0  1  0  0  0  0  0  0  0  0  0
  -24.8074  -29.6969   20.3356 C   0  0  2  0  0  0  0  0  0  0  0  0
  -19.6874  -23.2273   20.4873 C   0  0  0  0  0  0  0  0  0  0  0  0
  -32.5363  -22.5753   20.2826 C   0  0  0  0  0  0  0  0  0  0  0  0
  -22.2825  -21.8222   26.2317 C   0  0  0  0  0  0  0  0  0  0  0  0
  -29.9263  -17.3822   23.4592 C   0  0  0  0  0  0  0  0  0  0  0  0
  -31.5104  -19.3211   23.4573 C   0  0  0  0  0  0  0  0  0  0  0  0
  -31.7918  -17.4812   21.7965 C   0  0  0  0  0  0  0  0  0  0  0  0
  -29.3529  -22.7775   18.2086 C   0  0  0  0  0  0  0  0  0  0  0  0
  -20.3910  -27.6444   22.6385 C   0  0  0  0  0  0  0  0  0  0  0  0
  -23.2475  -21.7776   23.9068 C   0  0  0  0  0  0  0  0  0  1  0  0
  -29.8702  -19.1033   21.5355 C   0  0  1  0  0  0  0  0  0  0  0  0
  -31.2921  -22.0337   19.5961 C   0  0  2  0  0  0  0  0  0  0  0  0
  -22.0595  -22.1938   24.7716 C   0  0  2  0  0  0  0  0  0  0  0  0
  -30.7469  -18.3260   22.5575 C   0  0  0  0  0  0  0  0  0  0  0  0
  -26.8949  -28.6285   21.0995 N   0  0  0  0  0  0  0  0  0  0  0  0
  -20.7997  -23.4433   22.6256 N   0  0  0  0  0  0  0  0  0  0  0  0
  -21.1411  -25.5879   23.6702 N   0  0  0  0  0  0  0  0  0  0  0  0
  -26.0750  -28.9055   20.0713 N   0  0  0  0  0  0  0  0  0  0  0  0
  -27.6821  -18.3106   20.6942 N   0  0  0  0  0  0  0  0  0  0  0  0
  -23.0054  -30.2018   21.9437 N   0  0  0  0  0  0  0  0  0  0  0  0
  -25.8044  -28.6053   17.7374 N   0  0  0  0  0  0  0  0  0  0  0  0
  -29.7038  -26.5021   18.6132 N   0  0  0  0  0  0  0  0  0  0  0  0
  -21.8696  -23.6274   24.6774 N   0  0  0  0  0  0  0  0  0  0  0  0
  -25.7448  -15.2268   20.5120 N   0  0  0  0  0  0  0  0  0  0  0  0
  -30.6239  -19.9846   20.6502 N   0  0  0  0  0  0  0  0  0  0  0  0
  -21.6373  -28.3134   22.3386 N   0  0  0  0  0  0  0  0  0  0  0  0
  -30.5840  -23.1700   18.9417 N   0  3  0  0  0  0  0  0  0  0  0  0
  -28.2214  -27.0616   16.9554 O   0  0  0  0  0  0  0  0  0  0  0  0
  -26.8313  -16.4204   22.1905 O   0  0  0  0  0  0  0  0  0  0  0  0
  -29.6740  -17.3839   19.9133 O   0  0  0  0  0  0  0  0  0  0  0  0
  -29.5219  -21.9384   21.2377 O   0  0  0  0  0  0  0  0  0  0  0  0
  -20.7468  -30.4246   22.4203 O   0  0  0  0  0  0  0  0  0  0  0  0
  -32.1533  -26.0468   23.5959 O   0  0  0  0  0  0  0  0  0  0  0  0
  -22.8455  -21.6639   22.5423 O   0  0  0  0  0  0  0  0  0  1  0  0
  -30.9733  -23.6295   28.4093 F   0  0  0  0  0  0  0  0  0  0  0  0
  -32.8803  -23.4242   24.0818 F   0  0  0  0  0  0  0  0  0  0  0  0
  1  2  1  0  0  0  0
  1  5  2  0  0  0  0
  2  6  2  0  0  0  0
  3  8  2  0  0  0  0
  3 16  1  0  0  0  0
  4  9  1  0  0  0  0
  4 16  2  0  0  0  0
  5 18  1  0  0  0  0
  6 20  1  0  0  0  0
  7 10  2  0  0  0  0
  7 19  1  0  0  0  0
  8 22  1  0  0  0  0
  9 22  2  0  0  0  0
 10 23  1  0  0  0  0
 11 12  2  0  0  0  0
 11 24  1  0  0  0  0
 12 25  1  0  0  0  0
 13 21  1  0  0  0  0
 13 23  2  0  0  0  0
 14 25  2  0  0  0  0
 14 26  1  0  0  0  0
 15 28  1  0  0  0  0
 15 29  2  0  0  0  0
 16 27  1  0  0  0  0
 17 27  1  0  0  0  0
 17 30  2  0  0  0  0
 17 32  1  0  0  0  0
 18 20  2  0  0  0  0
 18 37  1  0  0  0  0
 19 21  2  0  0  0  0
 19 38  1  0  0  0  0
 20 46  1  0  0  0  0
 21 39  1  0  0  0  0
 22 80  1  0  0  0  0
 23 81  1  0  0  0  0
 24 26  2  0  0  0  0
 24 80  1  0  0  0  0
 25 82  1  0  0  0  0
 26 83  1  0  0  0  0
 27 62  2  0  0  0  0
 28 49  1  0  0  0  0
 28 63  2  0  0  0  0
 29 56  1  0  0  0  0
 29 64  1  0  0  0  0
 30 65  1  0  0  0  0
 30 68  1  0  0  0  0
 31 63  1  0  0  0  0
 31 64  2  0  0  0  0
 31 70  1  0  0  0  0
 32 69  1  0  0  0  0
 32 75  2  0  0  0  0
 33 47  1  0  0  0  0
 33 71  1  0  0  0  0
 33 76  2  0  0  0  0
 34 58  1  0  0  0  0
 34 66  1  0  0  0  0
 34 77  2  0  0  0  0
 35 59  1  0  0  0  0
 35 72  1  0  0  0  0
 35 78  2  0  0  0  0
 36 67  1  0  0  0  0
 36 73  1  0  0  0  0
 36 79  2  0  0  0  0
 37 40  1  0  0  0  0
 38 47  1  0  0  0  0
 39 66  1  0  0  0  0
 40 42  1  0  0  0  0
 41 43  1  0  0  0  0
 41 44  1  0  0  0  0
 42 46  1  0  0  0  0
 43 48  1  0  0  0  0
 44 67  1  0  0  0  0
 45 48  1  0  0  0  0
 45 67  1  0  0  0  0
 46 71  1  0  0  0  0
 47 66  1  0  0  0  0
 48 65  1  0  0  0  0
 50 59  1  0  0  0  0
 51 60  1  0  0  0  0
 52 61  1  0  0  0  0
 53 61  1  0  0  0  0
 54 61  1  0  0  0  0
 55 74  1  0  0  0  0
 56 73  1  0  0  0  0
 57 60  1  0  0  0  0
 57 81  1  0  0  0  0
 58 61  1  0  0  0  0
 58 72  1  0  0  0  0
 59 74  1  0  0  0  0
 60 70  1  0  0  0  0
 62 65  1  0  0  0  0
M  CHG  1  74   1
M  ISO  4  36 100  57 101  73 100  81 101
M  END
> <Batch ID>
0195

> <Smiles>
CNC(C)C(=O)NC(C(=O)N1Cc2cc([101O:1][101CH2:1]C(C)Nc3nc(C)cc(C[100NH:0][100C:0](=O)N4CCCC(n5nc(-c6ccc(Oc7ccc(F)cc7F)cc6)c(C(N)=O)c5N)C4)n3)ccc2CC1C(=O)NC1CCCc2ccccc21)C(C)(C)C

> <Shape>
0.218

> <Color>
0.067

> <Negative vol penalty>
0.000

$$$$

  -OEChem-04052305363D

 83 91  0     1  0  0  0  0  0999 V2000
  -17.1771  -30.4908   21.2174 C   0  0  0  0  0  0  0  0  0  0  0  0
  -18.3985  -30.4813   20.5513 C   0  0  0  0  0  0  0  0  0  0  0  0
  -26.5820  -12.9024   21.7761 C   0  0  0  0  0  0  0  0  0  0  0  0
  -26.0072  -14.2514   19.8560 C   0  0  0  0  0  0  0  0  0  0  0  0
  -17.1277  -30.2201   22.5842 C   0  0  0  0  0  0  0  0  0  0  0  0
  -19.5713  -30.2020   21.2520 C   0  0  0  0  0  0  0  0  0  0  0  0
  -24.4819  -27.1983   19.1616 C   0  0  0  0  0  0  0  0  0  0  0  0
  -25.3118  -12.3266   21.7519 C   0  0  0  0  0  0  0  0  0  0  0  0
  -24.7369  -13.6756   19.8317 C   0  0  0  0  0  0  0  0  0  0  0  0
  -25.7050  -27.6371   18.6564 C   0  0  0  0  0  0  0  0  0  0  0  0
  -23.6941   -9.9351   19.9922 C   0  0  0  0  0  0  0  0  0  0  0  0
  -23.6067   -8.5512   20.1430 C   0  0  0  0  0  0  0  0  0  0  0  0
  -26.6961  -27.3688   20.8393 C   0  0  0  0  0  0  0  0  0  0  0  0
  -22.2564   -8.8523   22.1237 C   0  0  0  0  0  0  0  0  0  0  0  0
  -30.2734  -24.1115   19.8811 C   0  0  0  0  0  0  0  0  0  0  0  0
  -26.9297  -13.8648   20.8282 C   0  0  0  0  0  0  0  0  0  0  0  0
  -29.3949  -14.0044   20.1871 C   0  0  0  0  0  0  0  0  0  0  0  0
  -18.2993  -29.9278   23.3000 C   0  0  0  0  0  0  0  0  0  0  0  0
  -24.3538  -26.8513   20.5143 C   0  0  0  0  0  0  0  0  0  0  0  0
  -19.5376  -29.9284   22.6299 C   0  0  0  0  0  0  0  0  0  0  0  0
  -25.4709  -26.9235   21.3587 C   0  0  0  0  0  0  0  0  0  0  0  0
  -29.7093  -24.1352   18.6219 C   0  0  0  0  0  0  0  0  0  0  0  0
  -24.3892  -12.7132   20.7797 C   0  0  0  0  0  0  0  0  0  0  0  0
  -26.8116  -27.7252   19.4959 C   0  0  0  0  0  0  0  0  0  0  0  0
  -23.0627  -10.7777   20.9072 C   0  0  0  0  0  0  0  0  0  0  0  0
  -22.8878   -8.0098   21.2087 C   0  0  0  0  0  0  0  0  0  0  0  0
  -22.3438  -10.2363   21.9729 C   0  0  0  0  0  0  0  0  0  0  0  0
  -28.2415  -14.4604   20.8531 C   0  0  0  0  0  0  0  0  0  0  0  0
  -29.1320  -22.9535   18.2041 C   0  0  0  0  0  0  0  0  0  0  0  0
  -30.3697  -14.9092   20.5300 C   0  0  0  0  0  0  0  0  0  0  0  0
  -29.6849  -21.9336   20.1589 C   0  0  0  0  0  0  0  0  0  0  0  0
  -29.5695  -12.8648   19.3348 C   0  0  0  0  0  0  0  0  0  0  0  0
  -22.6351  -27.9404   22.9563 C   0  0  0  0  0  0  0  0  0  0  0  0
  -23.9054  -25.3784   24.4876 C   0  0  0  0  0  0  0  0  0  0  0  0
  -26.4241  -23.0854   24.6990 C   0  0  0  0  0  0  0  0  0  0  0  0
  -30.2068  -20.6294   22.2500 C   0  0  0  0  0  0  0  0  0  0  0  0
  -18.2015  -29.6880   24.7858 C   0  0  0  0  0  0  0  0  0  0  0  0
  -23.0341  -26.3544   21.0377 C   0  0  0  0  0  0  0  0  0  0  0  0
  -25.3909  -26.5434   22.8139 C   0  0  0  0  0  0  0  0  0  0  0  0
  -19.4456  -29.0330   25.3803 C   0  0  0  0  0  0  0  0  0  0  0  0
  -31.6281  -17.9047   24.0482 C   0  0  0  0  0  0  0  0  0  0  0  0
  -20.7070  -29.7255   24.8742 C   0  0  0  0  0  0  0  0  0  0  0  0
  -31.0307  -16.6706   23.3683 C   0  0  0  0  0  0  0  0  0  0  0  0
  -30.6229  -19.0524   24.1249 C   0  0  0  0  0  0  0  0  0  0  0  0
  -29.4050  -18.1869   22.1661 C   0  0  0  0  0  0  0  0  0  0  0  0
  -20.8287  -29.6055   23.3503 C   0  0  1  0  0  0  0  0  0  0  0  0
  -22.8907  -26.5173   22.5478 C   0  0  1  0  0  0  0  0  0  0  0  0
  -30.4009  -17.0264   22.0073 C   0  0  2  0  0  0  0  0  0  0  0  0
  -27.2070  -21.1406   26.0783 C   0  0  0  0  0  0  0  0  0  0  0  0
  -31.8526  -26.4182   18.1287 C   0  0  0  0  0  0  0  0  0  0  0  0
  -24.8470  -27.3020   26.6608 C   0  0  0  0  0  0  0  0  0  0  0  0
  -26.3922  -25.5103   27.4797 C   0  0  0  0  0  0  0  0  0  0  0  0
  -23.9258  -25.1379   27.5108 C   0  0  0  0  0  0  0  0  0  0  0  0
  -26.2635  -21.2365   22.3936 C   0  0  0  0  0  0  0  0  0  0  0  0
  -29.7853  -27.6930   17.4606 C   0  0  0  0  0  0  0  0  0  0  0  0
  -28.2810  -27.8793   17.6323 C   0  0  0  0  0  0  0  0  0  1  0  0
  -25.1529  -25.1291   25.3003 C   0  0  1  0  0  0  0  0  0  0  0  0
  -26.4014  -21.5765   24.8643 C   0  0  2  0  0  0  0  0  0  0  0  0
  -30.3388  -26.5258   18.2840 C   0  0  1  0  0  0  0  0  0  0  0  0
  -25.0808  -25.7789   26.7110 C   0  0  0  0  0  0  0  0  0  0  0  0
  -30.2791  -23.0240   20.6796 N   0  0  0  0  0  0  0  0  0  0  0  0
  -28.4615  -15.5687   21.5652 N   0  0  0  0  0  0  0  0  0  0  0  0
  -29.1018  -21.8292   18.9494 N   0  0  0  0  0  0  0  0  0  0  0  0
  -29.7645  -15.8167   21.3488 N   0  0  0  0  0  0  0  0  0  0  0  0
  -24.0772  -26.0694   23.2798 N   0  0  0  0  0  0  0  0  0  0  0  0
  -30.0712  -19.3364   22.7983 N   0  0  0  0  0  0  0  0  0  0  0  0
  -28.5348  -22.9121   16.9194 N   0  0  0  0  0  0  0  0  0  0  0  0
  -31.6769  -15.0091   20.2079 N   0  0  0  0  0  0  0  0  0  0  0  0
  -28.4638  -12.0399   19.0872 N   0  0  0  0  0  0  0  0  0  0  0  0
  -29.7346  -25.2832   17.8506 N   0  0  0  0  0  0  0  0  0  0  0  0
  -29.6722  -20.7718   20.9700 N   0  0  0  0  0  0  0  0  0  0  0  0
  -21.2976  -28.2866   22.9830 N   0  0  0  0  0  0  0  0  0  0  0  0
  -25.3466  -23.6832   25.3177 N   0  0  0  0  0  0  0  0  0  0  0  0
  -26.9740  -20.9146   23.6580 N   0  3  0  0  0  0  0  0  0  0  0  0
  -30.6773  -12.5770   18.8215 O   0  0  0  0  0  0  0  0  0  0  0  0
  -23.5812  -28.6700   23.2287 O   0  0  0  0  0  0  0  0  0  0  0  0
  -22.8195  -24.9687   24.9054 O   0  0  0  0  0  0  0  0  0  0  0  0
  -27.3112  -23.6750   24.0858 O   0  0  0  0  0  0  0  0  0  0  0  0
  -30.7808  -21.5357   22.8593 O   0  0  0  0  0  0  0  0  0  0  0  0
  -23.1498  -12.1514   20.7556 O   0  0  0  0  0  0  0  0  0  0  0  0
  -28.0065  -28.1537   19.0055 O   0  0  0  0  0  0  0  0  0  1  0  0
  -22.8027   -6.6808   21.3526 F   0  0  0  0  0  0  0  0  0  0  0  0
  -21.7341  -11.0406   22.8544 F   0  0  0  0  0  0  0  0  0  0  0  0
  1  2  1  0  0  0  0
  1  5  2  0  0  0  0
  2  6  2  0  0  0  0
  3  8  2  0  0  0  0
  3 16  1  0  0  0  0
  4  9  1  0  0  0  0
  4 16  2  0  0  0  0
  5 18  1  0  0  0  0
  6 20  1  0  0  0  0
  7 10  2  0  0  0  0
  7 19  1  0  0  0  0
  8 23  1  0  0  0  0
  9 23  2  0  0  0  0
 10 24  1  0  0  0  0
 11 12  2  0  0  0  0
 11 25  1  0  0  0  0
 12 26  1  0  0  0  0
 13 21  1  0  0  0  0
 13 24  2  0  0  0  0
 14 26  2  0  0  0  0
 14 27  1  0  0  0  0
 15 22  1  0  0  0  0
 15 61  2  0  0  0  0
 16 28  1  0  0  0  0
 17 28  1  0  0  0  0
 17 30  2  0  0  0  0
 17 32  1  0  0  0  0
 18 20  2  0  0  0  0
 18 37  1  0  0  0  0
 19 21  2  0  0  0  0
 19 38  1  0  0  0  0
 20 46  1  0  0  0  0
 21 39  1  0  0  0  0
 22 29  2  0  0  0  0
 22 70  1  0  0  0  0
 23 80  1  0  0  0  0
 24 81  1  0  0  0  0
 25 27  2  0  0  0  0
 25 80  1  0  0  0  0
 26 82  1  0  0  0  0
 27 83  1  0  0  0  0
 28 62  2  0  0  0  0
 29 63  1  0  0  0  0
 29 67  1  0  0  0  0
 30 64  1  0  0  0  0
 30 68  1  0  0  0  0
 31 61  1  0  0  0  0
 31 63  2  0  0  0  0
 31 71  1  0  0  0  0
 32 69  1  0  0  0  0
 32 75  2  0  0  0  0
 33 47  1  0  0  0  0
 33 72  1  0  0  0  0
 33 76  2  0  0  0  0
 34 57  1  0  0  0  0
 34 65  1  0  0  0  0
 34 77  2  0  0  0  0
 35 58  1  0  0  0  0
 35 73  1  0  0  0  0
 35 78  2  0  0  0  0
 36 66  1  0  0  0  0
 36 71  1  0  0  0  0
 36 79  2  0  0  0  0
 37 40  1  0  0  0  0
 38 47  1  0  0  0  0
 39 65  1  0  0  0  0
 40 42  1  0  0  0  0
 41 43  1  0  0  0  0
 41 44  1  0  0  0  0
 42 46  1  0  0  0  0
 43 48  1  0  0  0  0
 44 66  1  0  0  0  0
 45 48  1  0  0  0  0
 45 66  1  0  0  0  0
 46 72  1  0  0  0  0
 47 65  1  0  0  0  0
 48 64  1  0  0  0  0
 49 58  1  0  0  0  0
 50 59  1  0  0  0  0
 51 60  1  0  0  0  0
 52 60  1  0  0  0  0
 53 60  1  0  0  0  0
 54 74  1  0  0  0  0
 55 56  1  0  0  0  0
 55 59  1  0  0  0  0
 56 81  1  0  0  0  0
 57 60  1  0  0  0  0
 57 73  1  0  0  0  0
 58 74  1  0  0  0  0
 59 70  1  0  0  0  0
 62 64  1  0  0  0  0
M  CHG  1  74   1
M  ISO  4  36 100  56 101  71 100  81 101
M  END
> <Batch ID>
0195

> <Smiles>
CNC(C)C(=O)NC(C(=O)N1Cc2cc([101O:1][101CH2:1]CC(C)Nc3cnc([100NH:0][100C:0](=O)N4CCCC(n5nc(-c6ccc(Oc7ccc(F)cc7F)cc6)c(C(N)=O)c5N)C4)nc3N)ccc2CC1C(=O)NC1CCCc2ccccc21)C(C)(C)C

> <Shape>
0.261

> <Color>
0.078

> <Negative vol penalty>
0.000

$$$$

  -OEChem-04052305363D

 82 90  0     1  0  0  0  0  0999 V2000
  -33.8517  -29.9067   12.0196 C   0  0  0  0  0  0  0  0  0  0  0  0
  -33.5100  -28.9611   12.9810 C   0  0  0  0  0  0  0  0  0  0  0  0
  -22.9993   -9.8920   19.9853 C   0  0  0  0  0  0  0  0  0  0  0  0
  -23.7284   -9.9443   22.2881 C   0  0  0  0  0  0  0  0  0  0  0  0
  -34.9972  -29.7289   11.2449 C   0  0  0  0  0  0  0  0  0  0  0  0
  -34.3130  -27.8365   13.1676 C   0  0  0  0  0  0  0  0  0  0  0  0
  -35.4439  -24.9560   18.4524 C   0  0  0  0  0  0  0  0  0  0  0  0
  -22.2329   -8.7579   20.2537 C   0  0  0  0  0  0  0  0  0  0  0  0
  -22.9620   -8.8102   22.5565 C   0  0  0  0  0  0  0  0  0  0  0  0
  -34.8988  -23.8111   19.0320 C   0  0  0  0  0  0  0  0  0  0  0  0
  -23.2048   -5.4709   22.0863 C   0  0  0  0  0  0  0  0  0  0  0  0
  -23.7934   -4.4541   22.8381 C   0  0  0  0  0  0  0  0  0  0  0  0
  -36.7165  -22.5008   18.1388 C   0  0  0  0  0  0  0  0  0  0  0  0
  -22.0724   -4.6984   24.5161 C   0  0  0  0  0  0  0  0  0  0  0  0
  -30.7444  -19.0654   22.9123 C   0  0  0  0  0  0  0  0  0  0  0  0
  -23.7470  -10.4853   21.0025 C   0  0  0  0  0  0  0  0  0  0  0  0
  -24.1326  -13.0006   20.8242 C   0  0  0  0  0  0  0  0  0  0  0  0
  -35.8199  -28.6064   11.4287 C   0  0  0  0  0  0  0  0  0  0  0  0
  -36.6255  -24.8799   17.7012 C   0  0  0  0  0  0  0  0  0  0  0  0
  -35.4698  -27.6428   12.3937 C   0  0  0  0  0  0  0  0  0  0  0  0
  -37.2759  -23.6466   17.5528 C   0  0  0  0  0  0  0  0  0  0  0  0
  -22.2143   -8.2170   21.5393 C   0  0  0  0  0  0  0  0  0  0  0  0
  -35.5335  -22.5828   18.8728 C   0  0  0  0  0  0  0  0  0  0  0  0
  -22.0500   -6.1016   22.5495 C   0  0  0  0  0  0  0  0  0  0  0  0
  -23.2272   -4.0678   24.0529 C   0  0  0  0  0  0  0  0  0  0  0  0
  -21.4839   -5.7153   23.7643 C   0  0  0  0  0  0  0  0  0  0  0  0
  -24.5393  -11.6565   20.7258 C   0  0  0  0  0  0  0  0  0  0  0  0
  -31.8499  -18.6616   22.1933 C   0  0  0  0  0  0  0  0  0  0  0  0
  -25.2419  -13.7227   20.4575 C   0  0  0  0  0  0  0  0  0  0  0  0
  -30.5873  -16.8967   21.8757 C   0  0  0  0  0  0  0  0  0  0  0  0
  -22.8654  -13.5476   21.2125 C   0  0  0  0  0  0  0  0  0  0  0  0
  -37.4034  -25.4750   14.6773 C   0  0  0  0  0  0  0  0  0  0  0  0
  -40.4097  -24.8834   15.7423 C   0  0  0  0  0  0  0  0  0  0  0  0
  -42.4215  -23.3747   18.0496 C   0  0  0  0  0  0  0  0  0  0  0  0
  -30.7220  -14.6826   20.6815 C   0  0  0  0  0  0  0  0  0  0  0  0
  -37.0224  -28.4335   10.5349 C   0  0  0  0  0  0  0  0  0  0  0  0
  -37.2150  -26.1286   17.1049 C   0  0  0  0  0  0  0  0  0  0  0  0
  -38.5577  -23.5148   16.7729 C   0  0  0  0  0  0  0  0  0  0  0  0
  -38.0230  -27.4034   11.0525 C   0  0  0  0  0  0  0  0  0  0  0  0
  -29.5992  -12.2287   18.3590 C   0  0  0  0  0  0  0  0  0  0  0  0
  -37.3020  -26.1335   11.4932 C   0  0  0  0  0  0  0  0  0  0  0  0
  -28.1492  -11.9716   18.7757 C   0  0  0  0  0  0  0  0  0  0  0  0
  -30.5018  -12.4726   19.5670 C   0  0  0  0  0  0  0  0  0  0  0  0
  -28.5889  -13.2627   20.9034 C   0  0  0  0  0  0  0  0  0  0  0  0
  -36.3290  -26.4222   12.6428 C   0  0  1  0  0  0  0  0  0  0  0  0
  -38.1459  -25.8474   15.9294 C   0  0  1  0  0  0  0  0  0  0  0  0
  -27.6292  -13.0759   19.7169 C   0  0  2  0  0  0  0  0  0  0  0  0
  -34.1657  -19.1513   23.0819 C   0  0  0  0  0  0  0  0  0  0  0  0
  -44.8382  -23.0390   18.6366 C   0  0  0  0  0  0  0  0  0  0  0  0
  -33.4244  -19.2755   18.2641 C   0  0  0  0  0  0  0  0  0  0  0  0
  -40.6692  -22.8373   13.4937 C   0  0  0  0  0  0  0  0  0  0  0  0
  -42.6587  -21.8883   14.6809 C   0  0  0  0  0  0  0  0  0  0  0  0
  -42.7032  -24.2446   13.8633 C   0  0  0  0  0  0  0  0  0  0  0  0
  -42.0928  -24.7186   20.6658 C   0  0  0  0  0  0  0  0  0  0  0  0
  -33.5849  -21.4220   19.5878 C   0  0  0  0  0  0  0  0  0  1  0  0
  -33.1222  -19.4564   22.0102 C   0  0  1  0  0  0  0  0  0  0  0  0
  -41.2775  -23.6543   15.8661 C   0  0  1  0  0  0  0  0  0  0  0  0
  -43.6001  -23.8954   18.8523 C   0  0  2  0  0  0  0  0  0  0  0  0
  -33.0888  -19.9805   19.5683 C   0  0  2  0  0  0  0  0  0  0  0  0
  -41.8020  -23.1579   14.4891 C   0  0  0  0  0  0  0  0  0  0  0  0
  -25.8079  -11.5295   20.3275 N   0  0  0  0  0  0  0  0  0  0  0  0
  -31.7617  -17.4181   21.5985 N   0  0  0  0  0  0  0  0  0  0  0  0
  -26.2079  -12.8031   20.1724 N   0  0  0  0  0  0  0  0  0  0  0  0
  -39.0912  -24.7633   16.2037 N   0  0  0  0  0  0  0  0  0  0  0  0
  -29.9485  -13.5341   20.4107 N   0  0  0  0  0  0  0  0  0  0  0  0
  -25.4755  -15.0483   20.3541 N   0  0  0  0  0  0  0  0  0  0  0  0
  -21.8340  -12.6639   21.5584 N   0  0  0  0  0  0  0  0  0  0  0  0
  -30.0793  -15.6385   21.4676 N   0  0  0  0  0  0  0  0  0  0  0  0
  -37.0476  -26.5549   13.8919 N   0  0  0  0  0  0  0  0  0  0  0  0
  -42.3289  -23.9913   16.8197 N   0  0  0  0  0  0  0  0  0  0  0  0
  -43.2764  -23.8957   20.3070 N   0  3  0  0  0  0  0  0  0  0  0  0
  -33.7482  -19.2380   20.6814 N   0  3  0  0  0  0  0  0  0  0  0  0
  -22.6490  -14.7829   21.2359 O   0  0  0  0  0  0  0  0  0  0  0  0
  -37.1718  -24.2952   14.4405 O   0  0  0  0  0  0  0  0  0  0  0  0
  -40.8864  -25.9142   15.2607 O   0  0  0  0  0  0  0  0  0  0  0  0
  -41.6615  -22.5052   18.4699 O   0  0  0  0  0  0  0  0  0  0  0  0
  -31.8599  -14.8210   20.2255 O   0  0  0  0  0  0  0  0  0  0  0  0
  -21.4664   -7.1104   21.8016 O   0  0  0  0  0  0  0  0  0  0  0  0
  -35.0033  -21.4636   19.4369 O   0  0  0  0  0  0  0  0  0  1  0  0
  -23.7917   -3.0903   24.7740 F   0  0  0  0  0  0  0  0  0  0  0  0
  -20.3739   -6.3167   24.2138 F   0  0  0  0  0  0  0  0  0  0  0  0
  -29.5388  -17.8474   22.8463 S   0  0  0  0  0  0  0  0  0  0  0  0
  1  2  1  0  0  0  0
  1  5  2  0  0  0  0
  2  6  2  0  0  0  0
  3  8  2  0  0  0  0
  3 16  1  0  0  0  0
  4  9  1  0  0  0  0
  4 16  2  0  0  0  0
  5 18  1  0  0  0  0
  6 20  1  0  0  0  0
  7 10  2  0  0  0  0
  7 19  1  0  0  0  0
  8 22  1  0  0  0  0
  9 22  2  0  0  0  0
 10 23  1  0  0  0  0
 11 12  2  0  0  0  0
 11 24  1  0  0  0  0
 12 25  1  0  0  0  0
 13 21  1  0  0  0  0
 13 23  2  0  0  0  0
 14 25  2  0  0  0  0
 14 26  1  0  0  0  0
 15 28  2  0  0  0  0
 15 82  1  0  0  0  0
 16 27  1  0  0  0  0
 17 27  1  0  0  0  0
 17 29  2  0  0  0  0
 17 31  1  0  0  0  0
 18 20  2  0  0  0  0
 18 36  1  0  0  0  0
 19 21  2  0  0  0  0
 19 37  1  0  0  0  0
 20 45  1  0  0  0  0
 21 38  1  0  0  0  0
 22 78  1  0  0  0  0
 23 79  1  0  0  0  0
 24 26  2  0  0  0  0
 24 78  1  0  0  0  0
 25 80  1  0  0  0  0
 26 81  1  0  0  0  0
 27 61  2  0  0  0  0
 28 56  1  0  0  0  0
 28 62  1  0  0  0  0
 29 63  1  0  0  0  0
 29 66  1  0  0  0  0
 30 62  2  0  0  0  0
 30 68  1  0  0  0  0
 30 82  1  0  0  0  0
 31 67  1  0  0  0  0
 31 73  2  0  0  0  0
 32 46  1  0  0  0  0
 32 69  1  0  0  0  0
 32 74  2  0  0  0  0
 33 57  1  0  0  0  0
 33 64  1  0  0  0  0
 33 75  2  0  0  0  0
 34 58  1  0  0  0  0
 34 70  1  0  0  0  0
 34 76  2  0  0  0  0
 35 65  1  0  0  0  0
 35 68  1  0  0  0  0
 35 77  2  0  0  0  0
 36 39  1  0  0  0  0
 37 46  1  0  0  0  0
 38 64  1  0  0  0  0
 39 41  1  0  0  0  0
 40 42  1  0  0  0  0
 40 43  1  0  0  0  0
 41 45  1  0  0  0  0
 42 47  1  0  0  0  0
 43 65  1  0  0  0  0
 44 47  1  0  0  0  0
 44 65  1  0  0  0  0
 45 69  1  0  0  0  0
 46 64  1  0  0  0  0
 47 63  1  0  0  0  0
 48 56  1  0  0  0  0
 49 58  1  0  0  0  0
 50 59  1  0  0  0  0
 51 60  1  0  0  0  0
 52 60  1  0  0  0  0
 53 60  1  0  0  0  0
 54 71  1  0  0  0  0
 55 59  1  0  0  0  0
 55 79  1  0  0  0  0
 56 72  1  0  0  0  0
 57 60  1  0  0  0  0
 57 70  1  0  0  0  0
 58 71  1  0  0  0  0
 59 72  1  0  0  0  0
 61 63  1  0  0  0  0
M  CHG  2  71   1  72   1
M  ISO  4  35 100  55 101  68 100  79 101
M  END
> <Batch ID>
0195

> <Smiles>
CNC(C)C(=O)NC(C(=O)N1Cc2cc([101O:1][101CH2:1]C(C)NC(C)c3csc([100NH:0][100C:0](=O)N4CCCC(n5nc(-c6ccc(Oc7ccc(F)cc7F)cc6)c(C(N)=O)c5N)C4)n3)ccc2CC1C(=O)NC1CCCc2ccccc21)C(C)(C)C

> <Shape>
0.175

> <Color>
0.194

> <Negative vol penalty>
0.000

$$$$

  -OEChem-04052305363D

 83 91  0     1  0  0  0  0  0999 V2000
  -21.5573  -12.6479   19.7077 C   0  0  0  0  0  0  0  0  0  0  0  0
  -21.6051  -13.8626   20.3841 C   0  0  0  0  0  0  0  0  0  0  0  0
  -30.1841  -28.2844   21.5164 C   0  0  0  0  0  0  0  0  0  0  0  0
  -29.0008  -26.2255   21.9611 C   0  0  0  0  0  0  0  0  0  0  0  0
  -22.7185  -11.8923   19.5510 C   0  0  0  0  0  0  0  0  0  0  0  0
  -22.8142  -14.3220   20.9052 C   0  0  0  0  0  0  0  0  0  0  0  0
  -23.6012  -19.2323   19.9490 C   0  0  0  0  0  0  0  0  0  0  0  0
  -31.2525  -27.8384   22.2944 C   0  0  0  0  0  0  0  0  0  0  0  0
  -30.0692  -25.7795   22.7391 C   0  0  0  0  0  0  0  0  0  0  0  0
  -22.9178  -20.1530   20.7421 C   0  0  0  0  0  0  0  0  0  0  0  0
  -31.2629  -26.2922   25.8605 C   0  0  0  0  0  0  0  0  0  0  0  0
  -30.9679  -25.7040   27.0903 C   0  0  0  0  0  0  0  0  0  0  0  0
  -24.9050  -20.4734   22.0717 C   0  0  0  0  0  0  0  0  0  0  0  0
  -32.0364  -23.6606   26.3692 C   0  0  0  0  0  0  0  0  0  0  0  0
  -29.0582  -27.4780   21.3498 C   0  0  0  0  0  0  0  0  0  0  0  0
  -27.7696  -27.7456   19.1645 C   0  0  0  0  0  0  0  0  0  0  0  0
  -23.9443  -12.3473   20.0621 C   0  0  0  0  0  0  0  0  0  0  0  0
  -24.9407  -18.9166   20.2183 C   0  0  0  0  0  0  0  0  0  0  0  0
  -23.9927  -13.5712   20.7564 C   0  0  0  0  0  0  0  0  0  0  0  0
  -25.6039  -19.5503   21.2789 C   0  0  0  0  0  0  0  0  0  0  0  0
  -31.1950  -26.5860   22.9057 C   0  0  0  0  0  0  0  0  0  0  0  0
  -23.5688  -20.7715   21.8055 C   0  0  0  0  0  0  0  0  0  0  0  0
  -31.9446  -25.5647   24.8849 C   0  0  0  0  0  0  0  0  0  0  0  0
  -31.3547  -24.3882   27.3447 C   0  0  0  0  0  0  0  0  0  0  0  0
  -32.3314  -24.2489   25.1394 C   0  0  0  0  0  0  0  0  0  0  0  0
  -27.9540  -27.9383   20.5467 C   0  0  0  0  0  0  0  0  0  0  0  0
  -26.5780  -28.3695   18.8867 C   0  0  0  0  0  0  0  0  0  0  0  0
  -20.6087  -26.1358   22.6653 C   0  0  0  0  0  0  0  0  0  0  0  0
  -20.2768  -24.1459   21.6819 C   0  0  0  0  0  0  0  0  0  0  0  0
  -21.3192  -24.2569   23.6664 C   0  0  0  0  0  0  0  0  0  0  0  0
  -28.6012  -27.0634   18.2164 C   0  0  0  0  0  0  0  0  0  0  0  0
  -26.5015  -16.2698   21.0320 C   0  0  0  0  0  0  0  0  0  0  0  0
  -29.1113  -18.1589   20.6540 C   0  0  0  0  0  0  0  0  0  0  0  0
  -30.4277  -21.3073   20.6148 C   0  0  0  0  0  0  0  0  0  0  0  0
  -21.7835  -29.6754   22.2272 C   0  0  0  0  0  0  0  0  0  0  0  0
  -25.1638  -11.4732   19.9091 C   0  0  0  0  0  0  0  0  0  0  0  0
  -25.6716  -17.9413   19.3369 C   0  0  0  0  0  0  0  0  0  0  0  0
  -27.0473  -19.2613   21.5974 C   0  0  0  0  0  0  0  0  0  0  0  0
  -26.4766  -12.2091   20.1649 C   0  0  0  0  0  0  0  0  0  0  0  0
  -23.7946  -31.9620   20.3823 C   0  0  0  0  0  0  0  0  0  0  0  0
  -26.3810  -13.0445   21.4377 C   0  0  0  0  0  0  0  0  0  0  0  0
  -25.0720  -31.1727   20.0905 C   0  0  0  0  0  0  0  0  0  0  0  0
  -23.2300  -31.6319   21.7623 C   0  0  0  0  0  0  0  0  0  0  0  0
  -24.2873  -29.4061   21.7222 C   0  0  0  0  0  0  0  0  0  0  0  0
  -25.2900  -14.1150   21.3144 C   0  0  1  0  0  0  0  0  0  0  0  0
  -26.8825  -17.3115   20.0183 C   0  0  1  0  0  0  0  0  0  0  0  0
  -24.8632  -29.6636   20.3192 C   0  0  2  0  0  0  0  0  0  0  0  0
  -32.5980  -22.5314   20.3166 C   0  0  0  0  0  0  0  0  0  0  0  0
  -22.3457  -21.8121   26.2725 C   0  0  0  0  0  0  0  0  0  0  0  0
  -29.9581  -17.3382   23.4681 C   0  0  0  0  0  0  0  0  0  0  0  0
  -31.5545  -19.2668   23.4749 C   0  0  0  0  0  0  0  0  0  0  0  0
  -31.8225  -17.4341   21.8039 C   0  0  0  0  0  0  0  0  0  0  0  0
  -29.4138  -22.7651   18.2471 C   0  0  0  0  0  0  0  0  0  0  0  0
  -20.4624  -27.6194   22.6592 C   0  0  0  0  0  0  0  0  0  0  0  0
  -23.3080  -21.7738   23.9463 C   0  0  0  0  0  0  0  0  0  1  0  0
  -29.9110  -19.0699   21.5537 C   0  0  1  0  0  0  0  0  0  0  0  0
  -31.3497  -22.0014   19.6285 C   0  0  2  0  0  0  0  0  0  0  0  0
  -22.1237  -22.1929   24.8146 C   0  0  2  0  0  0  0  0  0  0  0  0
  -30.7837  -18.2815   22.5706 C   0  0  0  0  0  0  0  0  0  0  0  0
  -26.9592  -28.6307   21.1080 N   0  0  0  0  0  0  0  0  0  0  0  0
  -20.1102  -25.4761   21.6071 N   0  0  0  0  0  0  0  0  0  0  0  0
  -21.2246  -25.5949   23.7289 N   0  0  0  0  0  0  0  0  0  0  0  0
  -20.8699  -23.4675   22.6775 N   0  0  0  0  0  0  0  0  0  0  0  0
  -26.1383  -28.8785   20.0732 N   0  0  0  0  0  0  0  0  0  0  0  0
  -27.7170  -18.2957   20.7105 N   0  0  0  0  0  0  0  0  0  0  0  0
  -23.0542  -30.1856   21.9141 N   0  0  0  0  0  0  0  0  0  0  0  0
  -25.8739  -28.5269   17.7457 N   0  0  0  0  0  0  0  0  0  0  0  0
  -19.7787  -23.3832   20.6031 N   0  0  0  0  0  0  0  0  0  0  0  0
  -29.7911  -26.4785   18.6705 N   0  0  0  0  0  0  0  0  0  0  0  0
  -21.9428  -23.6283   24.7283 N   0  0  0  0  0  0  0  0  0  0  0  0
  -25.7597  -15.2254   20.5139 N   0  0  0  0  0  0  0  0  0  0  0  0
  -30.6695  -19.9510   20.6723 N   0  0  0  0  0  0  0  0  0  0  0  0
  -21.7029  -28.2934   22.3469 N   0  0  0  0  0  0  0  0  0  0  0  0
  -30.6482  -23.1458   18.9809 N   0  3  0  0  0  0  0  0  0  0  0  0
  -28.3061  -26.9894   16.9994 O   0  0  0  0  0  0  0  0  0  0  0  0
  -26.8557  -16.4030   22.1975 O   0  0  0  0  0  0  0  0  0  0  0  0
  -29.7021  -17.3605   19.9225 O   0  0  0  0  0  0  0  0  0  0  0  0
  -29.5806  -21.9087   21.2714 O   0  0  0  0  0  0  0  0  0  0  0  0
  -20.7930  -30.3976   22.3830 O   0  0  0  0  0  0  0  0  0  0  0  0
  -32.2375  -26.1504   23.6648 O   0  0  0  0  0  0  0  0  0  0  0  0
  -22.9040  -21.6700   22.5817 O   0  0  0  0  0  0  0  0  0  1  0  0
  -31.0726  -23.8240   28.5263 F   0  0  0  0  0  0  0  0  0  0  0  0
  -32.9877  -23.5453   24.2066 F   0  0  0  0  0  0  0  0  0  0  0  0
  1  2  1  0  0  0  0
  1  5  2  0  0  0  0
  2  6  2  0  0  0  0
  3  8  2  0  0  0  0
  3 15  1  0  0  0  0
  4  9  1  0  0  0  0
  4 15  2  0  0  0  0
  5 17  1  0  0  0  0
  6 19  1  0  0  0  0
  7 10  2  0  0  0  0
  7 18  1  0  0  0  0
  8 21  1  0  0  0  0
  9 21  2  0  0  0  0
 10 22  1  0  0  0  0
 11 12  2  0  0  0  0
 11 23  1  0  0  0  0
 12 24  1  0  0  0  0
 13 20  1  0  0  0  0
 13 22  2  0  0  0  0
 14 24  2  0  0  0  0
 14 25  1  0  0  0  0
 15 26  1  0  0  0  0
 16 26  1  0  0  0  0
 16 27  2  0  0  0  0
 16 31  1  0  0  0  0
 17 19  2  0  0  0  0
 17 36  1  0  0  0  0
 18 20  2  0  0  0  0
 18 37  1  0  0  0  0
 19 45  1  0  0  0  0
 20 38  1  0  0  0  0
 21 80  1  0  0  0  0
 22 81  1  0  0  0  0
 23 25  2  0  0  0  0
 23 80  1  0  0  0  0
 24 82  1  0  0  0  0
 25 83  1  0  0  0  0
 26 60  2  0  0  0  0
 27 64  1  0  0  0  0
 27 67  1  0  0  0  0
 28 54  1  0  0  0  0
 28 61  2  0  0  0  0
 28 62  1  0  0  0  0
 29 61  1  0  0  0  0
 29 63  2  0  0  0  0
 29 68  1  0  0  0  0
 30 62  2  0  0  0  0
 30 63  1  0  0  0  0
 30 70  1  0  0  0  0
 31 69  1  0  0  0  0
 31 75  2  0  0  0  0
 32 46  1  0  0  0  0
 32 71  1  0  0  0  0
 32 76  2  0  0  0  0
 33 56  1  0  0  0  0
 33 65  1  0  0  0  0
 33 77  2  0  0  0  0
 34 57  1  0  0  0  0
 34 72  1  0  0  0  0
 34 78  2  0  0  0  0
 35 66  1  0  0  0  0
 35 73  1  0  0  0  0
 35 79  2  0  0  0  0
 36 39  1  0  0  0  0
 37 46  1  0  0  0  0
 38 65  1  0  0  0  0
 39 41  1  0  0  0  0
 40 42  1  0  0  0  0
 40 43  1  0  0  0  0
 41 45  1  0  0  0  0
 42 47  1  0  0  0  0
 43 66  1  0  0  0  0
 44 47  1  0  0  0  0
 44 66  1  0  0  0  0
 45 71  1  0  0  0  0
 46 65  1  0  0  0  0
 47 64  1  0  0  0  0
 48 57  1  0  0  0  0
 49 58  1  0  0  0  0
 50 59  1  0  0  0  0
 51 59  1  0  0  0  0
 52 59  1  0  0  0  0
 53 74  1  0  0  0  0
 54 73  1  0  0  0  0
 55 58  1  0  0  0  0
 55 81  1  0  0  0  0
 56 59  1  0  0  0  0
 56 72  1  0  0  0  0
 57 74  1  0  0  0  0
 58 70  1  0  0  0  0
 60 64  1  0  0  0  0
M  CHG  1  74   1
M  ISO  4  35 100  55 101  73 100  81 101
M  END
> <Batch ID>
0195

> <Smiles>
CNC(C)C(=O)NC(C(=O)N1Cc2cc([101O:1][101CH2:1]C(C)Nc3nc(N)nc(C[100NH:0][100C:0](=O)N4CCCC(n5nc(-c6ccc(Oc7ccc(F)cc7F)cc6)c(C(N)=O)c5N)C4)n3)ccc2CC1C(=O)NC1CCCc2ccccc21)C(C)(C)C

> <Shape>
0.217

> <Color>
0.063

> <Negative vol penalty>
0.000

$$$$

  -OEChem-04052305363D

 83 91  0     1  0  0  0  0  0999 V2000
  -20.7344  -21.6100   13.1395 C   0  0  0  0  0  0  0  0  0  0  0  0
  -21.2815  -20.4079   13.5767 C   0  0  0  0  0  0  0  0  0  0  0  0
  -28.1993  -26.2679   18.2243 C   0  0  0  0  0  0  0  0  0  0  0  0
  -27.1341  -25.7561   20.3315 C   0  0  0  0  0  0  0  0  0  0  0  0
  -21.0495  -22.7982   13.7973 C   0  0  0  0  0  0  0  0  0  0  0  0
  -22.1451  -20.3936   14.6714 C   0  0  0  0  0  0  0  0  0  0  0  0
  -22.6567  -15.9926   18.8993 C   0  0  0  0  0  0  0  0  0  0  0  0
  -27.2782  -27.2927   18.0075 C   0  0  0  0  0  0  0  0  0  0  0  0
  -26.2130  -26.7809   20.1148 C   0  0  0  0  0  0  0  0  0  0  0  0
  -23.5558  -14.9379   19.0514 C   0  0  0  0  0  0  0  0  0  0  0  0
  -26.1285  -30.1489   20.3792 C   0  0  0  0  0  0  0  0  0  0  0  0
  -25.8481  -31.0025   21.4461 C   0  0  0  0  0  0  0  0  0  0  0  0
  -24.8729  -16.2857   20.5573 C   0  0  0  0  0  0  0  0  0  0  0  0
  -23.5231  -30.3521   21.3555 C   0  0  0  0  0  0  0  0  0  0  0  0
  -29.2605  -11.7250   19.2785 C   0  0  0  0  0  0  0  0  0  0  0  0
  -28.1272  -25.4996   19.3863 C   0  0  0  0  0  0  0  0  0  0  0  0
  -30.3216  -24.5386   20.2631 C   0  0  0  0  0  0  0  0  0  0  0  0
  -21.9098  -22.7971   14.9067 C   0  0  0  0  0  0  0  0  0  0  0  0
  -22.8652  -17.2076   19.5678 C   0  0  0  0  0  0  0  0  0  0  0  0
  -22.4731  -21.5831   15.3439 C   0  0  0  0  0  0  0  0  0  0  0  0
  -23.9736  -17.3534   20.4141 C   0  0  0  0  0  0  0  0  0  0  0  0
  -26.2850  -27.5492   18.9528 C   0  0  0  0  0  0  0  0  0  0  0  0
  -24.6656  -15.0853   19.8782 C   0  0  0  0  0  0  0  0  0  0  0  0
  -25.1061  -29.3969   19.8004 C   0  0  0  0  0  0  0  0  0  0  0  0
  -24.5455  -31.1042   21.9343 C   0  0  0  0  0  0  0  0  0  0  0  0
  -23.8034  -29.4985   20.2886 C   0  0  0  0  0  0  0  0  0  0  0  0
  -29.0781  -24.4405   19.6104 C   0  0  0  0  0  0  0  0  0  0  0  0
  -29.3093  -14.1137   20.4698 C   0  0  0  0  0  0  0  0  0  0  0  0
  -28.1710  -12.1915   19.9805 C   0  0  0  0  0  0  0  0  0  0  0  0
  -30.3990  -13.6468   19.7684 C   0  0  0  0  0  0  0  0  0  0  0  0
  -30.8360  -23.2659   20.2149 C   0  0  0  0  0  0  0  0  0  0  0  0
  -30.9551  -25.6781   20.8595 C   0  0  0  0  0  0  0  0  0  0  0  0
  -23.3645  -20.2118   18.6572 C   0  0  0  0  0  0  0  0  0  0  0  0
  -23.1374  -20.8030   21.8386 C   0  0  0  0  0  0  0  0  0  0  0  0
  -23.4052  -19.6255   25.0306 C   0  0  0  0  0  0  0  0  0  0  0  0
  -29.0958  -17.8601   20.6154 C   0  0  0  0  0  0  0  0  0  0  0  0
  -22.2583  -24.1128   15.5563 C   0  0  0  0  0  0  0  0  0  0  0  0
  -21.8717  -18.3264   19.4141 C   0  0  0  0  0  0  0  0  0  0  0  0
  -24.2318  -18.6303   21.1698 C   0  0  0  0  0  0  0  0  0  0  0  0
  -22.8861  -23.9618   16.9395 C   0  0  0  0  0  0  0  0  0  0  0  0
  -30.0093  -19.2762   17.4127 C   0  0  0  0  0  0  0  0  0  0  0  0
  -23.9738  -22.8926   16.9183 C   0  0  0  0  0  0  0  0  0  0  0  0
  -29.9825  -20.7738   17.7236 C   0  0  0  0  0  0  0  0  0  0  0  0
  -28.8935  -18.5390   18.1475 C   0  0  0  0  0  0  0  0  0  0  0  0
  -28.8662  -20.2328   19.9374 C   0  0  0  0  0  0  0  0  0  0  0  0
  -23.3943  -21.5234   16.5430 C   0  0  1  0  0  0  0  0  0  0  0  0
  -22.4593  -19.6961   19.7399 C   0  0  1  0  0  0  0  0  0  0  0  0
  -29.9841  -21.0310   19.2421 C   0  0  2  0  0  0  0  0  0  0  0  0
  -23.1958  -20.3538   27.4229 C   0  0  0  0  0  0  0  0  0  0  0  0
  -25.0445  -10.5102   21.0852 C   0  0  0  0  0  0  0  0  0  0  0  0
  -25.8322  -22.2203   21.6405 C   0  0  0  0  0  0  0  0  0  0  0  0
  -26.0116  -22.0783   24.1337 C   0  0  0  0  0  0  0  0  0  0  0  0
  -24.1516  -23.3725   23.0905 C   0  0  0  0  0  0  0  0  0  0  0  0
  -21.2248  -17.6928   25.5493 C   0  0  0  0  0  0  0  0  0  0  0  0
  -29.3182  -15.4453   21.1414 C   0  0  0  0  0  0  0  0  0  0  0  0
  -25.0246  -12.7345   19.9063 C   0  0  0  0  0  0  0  0  0  1  0  0
  -24.1126  -20.8465   22.9902 C   0  0  1  0  0  0  0  0  0  0  0  0
  -22.4800  -19.7427   26.2283 C   0  0  2  0  0  0  0  0  0  0  0  0
  -25.8399  -11.7684   20.7632 C   0  0  2  0  0  0  0  0  0  0  0  0
  -25.0235  -22.1059   22.9481 C   0  0  0  0  0  0  0  0  0  0  0  0
  -30.3941  -12.4443   19.1599 N   0  0  0  0  0  0  0  0  0  0  0  0
  -28.8183  -23.2034   19.1792 N   0  0  0  0  0  0  0  0  0  0  0  0
  -28.1758  -13.3943   20.5887 N   0  0  0  0  0  0  0  0  0  0  0  0
  -29.9057  -22.5124   19.5615 N   0  0  0  0  0  0  0  0  0  0  0  0
  -23.2351  -19.6975   20.9818 N   0  0  0  0  0  0  0  0  0  0  0  0
  -28.9627  -18.8111   19.5902 N   0  0  0  0  0  0  0  0  0  0  0  0
  -31.5591  -14.4488   19.6808 N   0  0  0  0  0  0  0  0  0  0  0  0
  -31.9888  -22.7291   20.6680 N   0  0  0  0  0  0  0  0  0  0  0  0
  -30.2879  -26.9100   20.8206 N   0  0  0  0  0  0  0  0  0  0  0  0
  -27.0462  -11.3907   20.0543 N   0  0  0  0  0  0  0  0  0  0  0  0
  -22.7132  -20.9351   17.6763 N   0  0  0  0  0  0  0  0  0  0  0  0
  -23.3145  -20.7266   24.2056 N   0  0  0  0  0  0  0  0  0  0  0  0
  -29.1735  -16.5356   20.2026 N   0  0  0  0  0  0  0  0  0  0  0  0
  -21.9705  -18.3988   26.6227 N   0  3  0  0  0  0  0  0  0  0  0  0
  -32.0868  -25.6096   21.3962 O   0  0  0  0  0  0  0  0  0  0  0  0
  -24.5653  -19.9725   18.7087 O   0  0  0  0  0  0  0  0  0  0  0  0
  -22.3145  -21.7126   21.7083 O   0  0  0  0  0  0  0  0  0  0  0  0
  -24.1380  -18.6560   24.8472 O   0  0  0  0  0  0  0  0  0  0  0  0
  -29.1470  -18.1688   21.8109 O   0  0  0  0  0  0  0  0  0  0  0  0
  -25.3862  -28.5492   18.7418 O   0  0  0  0  0  0  0  0  0  0  0  0
  -25.5451  -14.0577   20.0278 O   0  0  0  0  0  0  0  0  0  1  0  0
  -24.2767  -31.9228   22.9598 F   0  0  0  0  0  0  0  0  0  0  0  0
  -22.8173  -28.7777   19.7374 F   0  0  0  0  0  0  0  0  0  0  0  0
  1  2  1  0  0  0  0
  1  5  2  0  0  0  0
  2  6  2  0  0  0  0
  3  8  2  0  0  0  0
  3 16  1  0  0  0  0
  4  9  1  0  0  0  0
  4 16  2  0  0  0  0
  5 18  1  0  0  0  0
  6 20  1  0  0  0  0
  7 10  2  0  0  0  0
  7 19  1  0  0  0  0
  8 22  1  0  0  0  0
  9 22  2  0  0  0  0
 10 23  1  0  0  0  0
 11 12  2  0  0  0  0
 11 24  1  0  0  0  0
 12 25  1  0  0  0  0
 13 21  1  0  0  0  0
 13 23  2  0  0  0  0
 14 25  2  0  0  0  0
 14 26  1  0  0  0  0
 15 29  1  0  0  0  0
 15 61  2  0  0  0  0
 16 27  1  0  0  0  0
 17 27  1  0  0  0  0
 17 31  2  0  0  0  0
 17 32  1  0  0  0  0
 18 20  2  0  0  0  0
 18 37  1  0  0  0  0
 19 21  2  0  0  0  0
 19 38  1  0  0  0  0
 20 46  1  0  0  0  0
 21 39  1  0  0  0  0
 22 80  1  0  0  0  0
 23 81  1  0  0  0  0
 24 26  2  0  0  0  0
 24 80  1  0  0  0  0
 25 82  1  0  0  0  0
 26 83  1  0  0  0  0
 27 62  2  0  0  0  0
 28 30  2  0  0  0  0
 28 55  1  0  0  0  0
 28 63  1  0  0  0  0
 29 63  2  0  0  0  0
 29 70  1  0  0  0  0
 30 61  1  0  0  0  0
 30 67  1  0  0  0  0
 31 64  1  0  0  0  0
 31 68  1  0  0  0  0
 32 69  1  0  0  0  0
 32 75  2  0  0  0  0
 33 47  1  0  0  0  0
 33 71  1  0  0  0  0
 33 76  2  0  0  0  0
 34 57  1  0  0  0  0
 34 65  1  0  0  0  0
 34 77  2  0  0  0  0
 35 58  1  0  0  0  0
 35 72  1  0  0  0  0
 35 78  2  0  0  0  0
 36 66  1  0  0  0  0
 36 73  1  0  0  0  0
 36 79  2  0  0  0  0
 37 40  1  0  0  0  0
 38 47  1  0  0  0  0
 39 65  1  0  0  0  0
 40 42  1  0  0  0  0
 41 43  1  0  0  0  0
 41 44  1  0  0  0  0
 42 46  1  0  0  0  0
 43 48  1  0  0  0  0
 44 66  1  0  0  0  0
 45 48  1  0  0  0  0
 45 66  1  0  0  0  0
 46 71  1  0  0  0  0
 47 65  1  0  0  0  0
 48 64  1  0  0  0  0
 49 58  1  0  0  0  0
 50 59  1  0  0  0  0
 51 60  1  0  0  0  0
 52 60  1  0  0  0  0
 53 60  1  0  0  0  0
 54 74  1  0  0  0  0
 55 73  1  0  0  0  0
 56 59  1  0  0  0  0
 56 81  1  0  0  0  0
 57 60  1  0  0  0  0
 57 72  1  0  0  0  0
 58 74  1  0  0  0  0
 59 70  1  0  0  0  0
 62 64  1  0  0  0  0
M  CHG  1  74   1
M  ISO  4  36 100  56 101  73 100  81 101
M  END
> <Batch ID>
0195

> <Smiles>
CNC(C)C(=O)NC(C(=O)N1Cc2cc([101O:1][101CH2:1]C(C)Nc3cnc(N)c(C[100NH:0][100C:0](=O)N4CCCC(n5nc(-c6ccc(Oc7ccc(F)cc7F)cc6)c(C(N)=O)c5N)C4)n3)ccc2CC1C(=O)NC1CCCc2ccccc21)C(C)(C)C

> <Shape>
0.224

> <Color>
0.067

> <Negative vol penalty>
0.000

$$$$

  -OEChem-04052305363D

 83 91  0     1  0  0  0  0  0999 V2000
  -31.6289  -21.6511   23.5542 C   0  0  0  0  0  0  0  0  0  0  0  0
  -30.3433  -22.0934   23.2594 C   0  0  0  0  0  0  0  0  0  0  0  0
  -31.2845  -27.2476   19.4262 C   0  0  0  0  0  0  0  0  0  0  0  0
  -30.9320  -26.6519   21.7410 C   0  0  0  0  0  0  0  0  0  0  0  0
  -32.1434  -20.5274   22.9089 C   0  0  0  0  0  0  0  0  0  0  0  0
  -29.5717  -21.4127   22.3183 C   0  0  0  0  0  0  0  0  0  0  0  0
  -24.8040  -20.6953   23.8674 C   0  0  0  0  0  0  0  0  0  0  0  0
  -32.5874  -27.6449   19.7268 C   0  0  0  0  0  0  0  0  0  0  0  0
  -32.2349  -27.0492   22.0416 C   0  0  0  0  0  0  0  0  0  0  0  0
  -23.9362  -21.7830   23.7816 C   0  0  0  0  0  0  0  0  0  0  0  0
  -35.3558  -25.7913   21.7280 C   0  0  0  0  0  0  0  0  0  0  0  0
  -36.1174  -24.9500   22.5389 C   0  0  0  0  0  0  0  0  0  0  0  0
  -23.0175  -20.8814   21.7414 C   0  0  0  0  0  0  0  0  0  0  0  0
  -36.3491  -26.7244   24.1622 C   0  0  0  0  0  0  0  0  0  0  0  0
  -18.1084  -27.5744   23.2362 C   0  0  0  0  0  0  0  0  0  0  0  0
  -30.4568  -26.7511   20.4333 C   0  0  0  0  0  0  0  0  0  0  0  0
  -28.6820  -25.0597   19.7287 C   0  0  0  0  0  0  0  0  0  0  0  0
  -31.3741  -19.8269   21.9665 C   0  0  0  0  0  0  0  0  0  0  0  0
  -24.7927  -19.6963   22.8834 C   0  0  0  0  0  0  0  0  0  0  0  0
  -30.0768  -20.2793   21.6588 C   0  0  0  0  0  0  0  0  0  0  0  0
  -23.8845  -19.7807   21.8184 C   0  0  0  0  0  0  0  0  0  0  0  0
  -33.0626  -27.5457   21.0345 C   0  0  0  0  0  0  0  0  0  0  0  0
  -23.0447  -21.8777   22.7169 C   0  0  0  0  0  0  0  0  0  0  0  0
  -35.0909  -27.0992   22.1340 C   0  0  0  0  0  0  0  0  0  0  0  0
  -36.6140  -25.4165   23.7560 C   0  0  0  0  0  0  0  0  0  0  0  0
  -35.5875  -27.5657   23.3511 C   0  0  0  0  0  0  0  0  0  0  0  0
  -18.9431  -28.6714   23.3012 C   0  0  0  0  0  0  0  0  0  0  0  0
  -29.1107  -26.3411   20.1235 C   0  0  0  0  0  0  0  0  0  0  0  0
  -20.2250  -28.4750   22.8297 C   0  0  0  0  0  0  0  0  0  0  0  0
  -27.3255  -25.1894   19.5564 C   0  0  0  0  0  0  0  0  0  0  0  0
  -19.7600  -26.3088   22.3210 C   0  0  0  0  0  0  0  0  0  0  0  0
  -29.4419  -23.8594   19.5351 C   0  0  0  0  0  0  0  0  0  0  0  0
  -26.9084  -18.5912   20.7843 C   0  0  0  0  0  0  0  0  0  0  0  0
  -24.5998  -16.3872   20.2056 C   0  0  0  0  0  0  0  0  0  0  0  0
  -21.2896  -15.5633   20.3090 C   0  0  0  0  0  0  0  0  0  0  0  0
  -23.3950  -28.8963   21.9364 C   0  0  0  0  0  0  0  0  0  0  0  0
  -31.9906  -18.6454   21.2601 C   0  0  0  0  0  0  0  0  0  0  0  0
  -25.7168  -18.5157   23.0047 C   0  0  0  0  0  0  0  0  0  0  0  0
  -23.8186  -18.7243   20.7469 C   0  0  0  0  0  0  0  0  0  0  0  0
  -30.9699  -17.7597   20.5502 C   0  0  0  0  0  0  0  0  0  0  0  0
  -23.9898  -28.4204   18.3985 C   0  0  0  0  0  0  0  0  0  0  0  0
  -29.9916  -18.6109   19.7470 C   0  0  0  0  0  0  0  0  0  0  0  0
  -25.3419  -27.7051   18.4109 C   0  0  0  0  0  0  0  0  0  0  0  0
  -23.9162  -29.4825   19.4916 C   0  0  0  0  0  0  0  0  0  0  0  0
  -25.5439  -28.2584   20.8793 C   0  0  0  0  0  0  0  0  0  0  0  0
  -29.1999  -19.5530   20.6619 C   0  0  1  0  0  0  0  0  0  0  0  0
  -25.9741  -17.8189   21.6722 C   0  0  1  0  0  0  0  0  0  0  0  0
  -25.6729  -27.1568   19.8116 C   0  0  2  0  0  0  0  0  0  0  0  0
  -19.7027  -13.7069   19.7322 C   0  0  0  0  0  0  0  0  0  0  0  0
  -21.6229  -25.4279   19.9050 C   0  0  0  0  0  0  0  0  0  0  0  0
  -24.7980  -17.1379   17.2548 C   0  0  0  0  0  0  0  0  0  0  0  0
  -22.6026  -15.9917   16.8876 C   0  0  0  0  0  0  0  0  0  0  0  0
  -24.5694  -14.6866   17.6946 C   0  0  0  0  0  0  0  0  0  0  0  0
  -20.4431  -15.2548   23.1281 C   0  0  0  0  0  0  0  0  0  0  0  0
  -21.2019  -29.6021   22.8581 C   0  0  0  0  0  0  0  0  0  0  0  0
  -21.8092  -23.3551   21.3218 C   0  0  0  0  0  0  0  0  0  1  0  0
  -23.4194  -16.2962   19.2690 C   0  0  1  0  0  0  0  0  0  0  0  0
  -20.5757  -14.3227   20.8145 C   0  0  2  0  0  0  0  0  0  0  0  0
  -21.5184  -24.8543   21.3120 C   0  0  2  0  0  0  0  0  0  0  0  0
  -23.8497  -16.0491   17.7955 C   0  0  0  0  0  0  0  0  0  0  0  0
  -18.4853  -26.3735   22.7503 N   0  0  0  0  0  0  0  0  0  0  0  0
  -28.1079  -27.2203   20.1975 N   0  0  0  0  0  0  0  0  0  0  0  0
  -20.6689  -27.3025   22.3311 N   0  0  0  0  0  0  0  0  0  0  0  0
  -27.0356  -26.4901   19.8468 N   0  0  0  0  0  0  0  0  0  0  0  0
  -24.7467  -17.5927   20.9064 N   0  0  0  0  0  0  0  0  0  0  0  0
  -24.2233  -28.8918   20.8019 N   0  0  0  0  0  0  0  0  0  0  0  0
  -26.3644  -24.3167   19.1862 N   0  0  0  0  0  0  0  0  0  0  0  0
  -30.8253  -23.9015   19.7558 N   0  0  0  0  0  0  0  0  0  0  0  0
  -20.1807  -25.0923   21.8161 N   0  0  0  0  0  0  0  0  0  0  0  0
  -28.1489  -18.8294   21.3447 N   0  0  0  0  0  0  0  0  0  0  0  0
  -22.5427  -15.2664   19.8161 N   0  0  0  0  0  0  0  0  0  0  0  0
  -22.1642  -29.5224   21.7817 N   0  0  0  0  0  0  0  0  0  0  0  0
  -19.7106  -14.6615   21.9798 N   0  3  0  0  0  0  0  0  0  0  0  0
  -28.9123  -22.7855   19.1611 O   0  0  0  0  0  0  0  0  0  0  0  0
  -26.5323  -18.9436   19.6725 O   0  0  0  0  0  0  0  0  0  0  0  0
  -25.3594  -15.4216   20.3169 O   0  0  0  0  0  0  0  0  0  0  0  0
  -20.7846  -16.6833   20.3441 O   0  0  0  0  0  0  0  0  0  0  0  0
  -23.7256  -28.3759   23.0074 O   0  0  0  0  0  0  0  0  0  0  0  0
  -34.3339  -27.9330   21.3281 O   0  0  0  0  0  0  0  0  0  0  0  0
  -22.1970  -22.9387   22.6304 O   0  0  0  0  0  0  0  0  0  1  0  0
  -37.3441  -24.6080   24.5354 F   0  0  0  0  0  0  0  0  0  0  0  0
  -35.3353  -28.8209   23.7471 F   0  0  0  0  0  0  0  0  0  0  0  0
  -18.5272  -29.8437   23.7907 F   0  0  0  0  0  0  0  0  0  0  0  0
  1  2  1  0  0  0  0
  1  5  2  0  0  0  0
  2  6  2  0  0  0  0
  3  8  2  0  0  0  0
  3 16  1  0  0  0  0
  4  9  1  0  0  0  0
  4 16  2  0  0  0  0
  5 18  1  0  0  0  0
  6 20  1  0  0  0  0
  7 10  2  0  0  0  0
  7 19  1  0  0  0  0
  8 22  1  0  0  0  0
  9 22  2  0  0  0  0
 10 23  1  0  0  0  0
 11 12  2  0  0  0  0
 11 24  1  0  0  0  0
 12 25  1  0  0  0  0
 13 21  1  0  0  0  0
 13 23  2  0  0  0  0
 14 25  2  0  0  0  0
 14 26  1  0  0  0  0
 15 27  1  0  0  0  0
 15 61  2  0  0  0  0
 16 28  1  0  0  0  0
 17 28  1  0  0  0  0
 17 30  2  0  0  0  0
 17 32  1  0  0  0  0
 18 20  2  0  0  0  0
 18 37  1  0  0  0  0
 19 21  2  0  0  0  0
 19 38  1  0  0  0  0
 20 46  1  0  0  0  0
 21 39  1  0  0  0  0
 22 79  1  0  0  0  0
 23 80  1  0  0  0  0
 24 26  2  0  0  0  0
 24 79  1  0  0  0  0
 25 81  1  0  0  0  0
 26 82  1  0  0  0  0
 27 29  2  0  0  0  0
 27 83  1  0  0  0  0
 28 62  2  0  0  0  0
 29 55  1  0  0  0  0
 29 63  1  0  0  0  0
 30 64  1  0  0  0  0
 30 67  1  0  0  0  0
 31 61  1  0  0  0  0
 31 63  2  0  0  0  0
 31 69  1  0  0  0  0
 32 68  1  0  0  0  0
 32 74  2  0  0  0  0
 33 47  1  0  0  0  0
 33 70  1  0  0  0  0
 33 75  2  0  0  0  0
 34 57  1  0  0  0  0
 34 65  1  0  0  0  0
 34 76  2  0  0  0  0
 35 58  1  0  0  0  0
 35 71  1  0  0  0  0
 35 77  2  0  0  0  0
 36 66  1  0  0  0  0
 36 72  1  0  0  0  0
 36 78  2  0  0  0  0
 37 40  1  0  0  0  0
 38 47  1  0  0  0  0
 39 65  1  0  0  0  0
 40 42  1  0  0  0  0
 41 43  1  0  0  0  0
 41 44  1  0  0  0  0
 42 46  1  0  0  0  0
 43 48  1  0  0  0  0
 44 66  1  0  0  0  0
 45 48  1  0  0  0  0
 45 66  1  0  0  0  0
 46 70  1  0  0  0  0
 47 65  1  0  0  0  0
 48 64  1  0  0  0  0
 49 58  1  0  0  0  0
 50 59  1  0  0  0  0
 51 60  1  0  0  0  0
 52 60  1  0  0  0  0
 53 60  1  0  0  0  0
 54 73  1  0  0  0  0
 55 72  1  0  0  0  0
 56 59  1  0  0  0  0
 56 80  1  0  0  0  0
 57 60  1  0  0  0  0
 57 71  1  0  0  0  0
 58 73  1  0  0  0  0
 59 69  1  0  0  0  0
 62 64  1  0  0  0  0
M  CHG  1  73   1
M  ISO  4  36 100  56 101  72 100  80 101
M  END
> <Batch ID>
0195

> <Smiles>
CNC(C)C(=O)NC(C(=O)N1Cc2cc([101O:1][101CH2:1]C(C)Nc3ncc(F)c(C[100NH:0][100C:0](=O)N4CCCC(n5nc(-c6ccc(Oc7ccc(F)cc7F)cc6)c(C(N)=O)c5N)C4)n3)ccc2CC1C(=O)NC1CCCc2ccccc21)C(C)(C)C

> <Shape>
0.191

> <Color>
0.089

> <Negative vol penalty>
0.000

$$$$

  -OEChem-04052305363D

 87 95  0     1  0  0  0  0  0999 V2000
  -28.4479  -10.6920   20.5022 C   0  0  0  0  0  0  0  0  0  0  0  0
  -28.8017  -11.9083   19.9269 C   0  0  0  0  0  0  0  0  0  0  0  0
  -19.9389  -29.0607   23.4378 C   0  0  0  0  0  0  0  0  0  0  0  0
  -20.3420  -26.8897   22.4572 C   0  0  0  0  0  0  0  0  0  0  0  0
  -27.1237  -10.4542   20.8680 C   0  0  0  0  0  0  0  0  0  0  0  0
  -27.8312  -12.8870   19.7160 C   0  0  0  0  0  0  0  0  0  0  0  0
  -29.3872  -17.4990   21.1137 C   0  0  0  0  0  0  0  0  0  0  0  0
  -18.6595  -29.0740   22.8823 C   0  0  0  0  0  0  0  0  0  0  0  0
  -19.0626  -26.9030   21.9017 C   0  0  0  0  0  0  0  0  0  0  0  0
  -30.2447  -18.1722   20.2446 C   0  0  0  0  0  0  0  0  0  0  0  0
  -17.2605  -29.6798   19.8657 C   0  0  0  0  0  0  0  0  0  0  0  0
  -16.8373  -30.8540   19.2429 C   0  0  0  0  0  0  0  0  0  0  0  0
  -28.3813  -19.4579   19.4117 C   0  0  0  0  0  0  0  0  0  0  0  0
  -14.9955  -31.0151   20.7982 C   0  0  0  0  0  0  0  0  0  0  0  0
  -27.9067  -24.6942   19.9105 C   0  0  0  0  0  0  0  0  0  0  0  0
  -20.7802  -27.9685   23.2252 C   0  0  0  0  0  0  0  0  0  0  0  0
  -22.4766  -27.4540   25.0596 C   0  0  0  0  0  0  0  0  0  0  0  0
  -26.1382  -11.4342   20.6703 C   0  0  0  0  0  0  0  0  0  0  0  0
  -28.0162  -17.7930   21.1306 C   0  0  0  0  0  0  0  0  0  0  0  0
  -26.4923  -12.6616   20.0782 C   0  0  0  0  0  0  0  0  0  0  0  0
  -27.5090  -18.7888   20.2838 C   0  0  0  0  0  0  0  0  0  0  0  0
  -18.2213  -27.9952   22.1143 C   0  0  0  0  0  0  0  0  0  0  0  0
  -29.7413  -19.1498   19.3914 C   0  0  0  0  0  0  0  0  0  0  0  0
  -16.5511  -29.1732   20.9546 C   0  0  0  0  0  0  0  0  0  0  0  0
  -15.7049  -31.5217   19.7092 C   0  0  0  0  0  0  0  0  0  0  0  0
  -15.4186  -29.8409   21.4209 C   0  0  0  0  0  0  0  0  0  0  0  0
  -22.1021  -27.9544   23.7982 C   0  0  0  0  0  0  0  0  0  0  0  0
  -29.8426  -23.9504   18.9469 C   0  0  0  0  0  0  0  0  0  0  0  0
  -28.4737  -25.9365   20.0910 C   0  0  0  0  0  0  0  0  0  0  0  0
  -30.4095  -25.1929   19.1266 C   0  0  0  0  0  0  0  0  0  0  0  0
  -23.8307  -27.6736   25.1280 C   0  0  0  0  0  0  0  0  0  0  0  0
  -21.6723  -26.8450   26.0784 C   0  0  0  0  0  0  0  0  0  0  0  0
  -30.5559  -22.8193   18.3205 C   0  0  0  0  0  0  0  0  0  0  0  0
  -25.3623  -16.1506   20.5285 C   0  0  0  0  0  0  0  0  0  0  0  0
  -23.9144  -18.8527   21.5891 C   0  0  0  0  0  0  0  0  0  0  0  0
  -24.0898  -22.2213   22.1073 C   0  0  0  0  0  0  0  0  0  0  0  0
  -28.0854  -28.2636   20.9742 C   0  0  0  0  0  0  0  0  0  0  0  0
  -24.7113  -11.1134   21.0384 C   0  0  0  0  0  0  0  0  0  0  0  0
  -27.1090  -17.0766   22.0929 C   0  0  0  0  0  0  0  0  0  0  0  0
  -26.0483  -19.1561   20.2776 C   0  0  0  0  0  0  0  0  0  0  0  0
  -23.8130  -12.3446   21.1251 C   0  0  0  0  0  0  0  0  0  0  0  0
  -27.2327  -30.6245   23.4993 C   0  0  0  0  0  0  0  0  0  0  0  0
  -24.0275  -13.2482   19.9150 C   0  0  0  0  0  0  0  0  0  0  0  0
  -25.8570  -30.1586   23.9816 C   0  0  0  0  0  0  0  0  0  0  0  0
  -27.4039  -30.4245   21.9945 C   0  0  0  0  0  0  0  0  0  0  0  0
  -25.7488  -28.5997   21.9953 C   0  0  0  0  0  0  0  0  0  0  0  0
  -25.4727  -13.7576   19.8561 C   0  0  1  0  0  0  0  0  0  0  0  0
  -25.6458  -17.0958   21.6616 C   0  0  1  0  0  0  0  0  0  0  0  0
  -25.5535  -28.7212   23.5154 C   0  0  2  0  0  0  0  0  0  0  0  0
  -22.7356  -24.1574   22.9529 C   0  0  0  0  0  0  0  0  0  0  0  0
  -34.5833  -22.7532   16.6350 C   0  0  0  0  0  0  0  0  0  0  0  0
  -36.0259  -22.8933   18.6742 C   0  0  0  0  0  0  0  0  0  0  0  0
  -22.3161  -18.8668   18.9900 C   0  0  0  0  0  0  0  0  0  0  0  0
  -21.7167  -21.2531   19.4531 C   0  0  0  0  0  0  0  0  0  0  0  0
  -20.9960  -19.4594   21.0297 C   0  0  0  0  0  0  0  0  0  0  0  0
  -26.0281  -22.7811   24.2726 C   0  0  0  0  0  0  0  0  0  0  0  0
  -33.9433  -21.4892   18.7598 C   0  0  0  0  0  0  0  0  0  0  0  0
  -31.9287  -19.9787   18.9626 C   0  0  0  0  0  0  0  0  0  1  0  0
  -23.4322  -20.1303   20.9456 C   0  0  1  0  0  0  0  0  0  0  0  0
  -23.7406  -23.0744   23.3134 C   0  0  2  0  0  0  0  0  0  0  0  0
  -34.5884  -22.7576   18.1642 C   0  0  0  0  0  0  0  0  0  0  0  0
  -32.4786  -21.2709   18.3669 C   0  0  1  0  0  0  0  0  0  0  0  0
  -22.1425  -19.9194   20.1031 C   0  0  0  0  0  0  0  0  0  0  0  0
  -28.5809  -23.6788   19.3352 N   0  0  0  0  0  0  0  0  0  0  0  0
  -23.1349  -28.4544   23.1146 N   0  0  0  0  0  0  0  0  0  0  0  0
  -29.7354  -26.2081   19.7022 N   0  0  0  0  0  0  0  0  0  0  0  0
  -24.1716  -28.2694   23.9495 N   0  0  0  0  0  0  0  0  0  0  0  0
  -25.2004  -18.4230   21.2321 N   0  0  0  0  0  0  0  0  0  0  0  0
  -27.1039  -29.0389   21.6271 N   0  0  0  0  0  0  0  0  0  0  0  0
  -31.7376  -25.4124   18.6964 N   0  0  0  0  0  0  0  0  0  0  0  0
  -24.7510  -27.4134   26.0807 N   0  0  0  0  0  0  0  0  0  0  0  0
  -20.2983  -26.6961   25.8450 N   0  0  0  0  0  0  0  0  0  0  0  0
  -30.0405  -22.2882   17.2117 N   0  0  0  0  0  0  0  0  0  0  0  0
  -27.6981  -26.9515   20.7040 N   0  0  0  0  0  0  0  0  0  0  0  0
  -25.6689  -14.8320   20.8055 N   0  0  0  0  0  0  0  0  0  0  0  0
  -23.2889  -21.1019   22.0244 N   0  0  0  0  0  0  0  0  0  0  0  0
  -31.6794  -22.3845   18.8975 N   0  3  0  0  0  0  0  0  0  0  0  0
  -24.9640  -23.7303   23.8557 N   0  3  0  0  0  0  0  0  0  0  0  0
  -22.1548  -26.4596   27.1703 O   0  0  0  0  0  0  0  0  0  0  0  0
  -24.8982  -16.5852   19.4809 O   0  0  0  0  0  0  0  0  0  0  0  0
  -23.1801  -18.2617   22.3848 O   0  0  0  0  0  0  0  0  0  0  0  0
  -24.9812  -22.5201   21.3157 O   0  0  0  0  0  0  0  0  0  0  0  0
  -29.1981  -28.7212   20.7011 O   0  0  0  0  0  0  0  0  0  0  0  0
  -16.9729  -28.0078   21.5723 O   0  0  0  0  0  0  0  0  0  0  0  0
  -30.5759  -19.8080   18.5417 O   0  0  0  0  0  0  0  0  0  1  0  0
  -15.2996  -32.6501   19.1120 F   0  0  0  0  0  0  0  0  0  0  0  0
  -14.7337  -29.3597   22.4674 F   0  0  0  0  0  0  0  0  0  0  0  0
  1  2  1  0  0  0  0
  1  5  2  0  0  0  0
  2  6  2  0  0  0  0
  3  8  2  0  0  0  0
  3 16  1  0  0  0  0
  4  9  1  0  0  0  0
  4 16  2  0  0  0  0
  5 18  1  0  0  0  0
  6 20  1  0  0  0  0
  7 10  2  0  0  0  0
  7 19  1  0  0  0  0
  8 22  1  0  0  0  0
  9 22  2  0  0  0  0
 10 23  1  0  0  0  0
 11 12  2  0  0  0  0
 11 24  1  0  0  0  0
 12 25  1  0  0  0  0
 13 21  1  0  0  0  0
 13 23  2  0  0  0  0
 14 25  2  0  0  0  0
 14 26  1  0  0  0  0
 15 29  1  0  0  0  0
 15 64  2  0  0  0  0
 16 27  1  0  0  0  0
 17 27  1  0  0  0  0
 17 31  2  0  0  0  0
 17 32  1  0  0  0  0
 18 20  2  0  0  0  0
 18 38  1  0  0  0  0
 19 21  2  0  0  0  0
 19 39  1  0  0  0  0
 20 47  1  0  0  0  0
 21 40  1  0  0  0  0
 22 84  1  0  0  0  0
 23 85  1  0  0  0  0
 24 26  2  0  0  0  0
 24 84  1  0  0  0  0
 25 86  1  0  0  0  0
 26 87  1  0  0  0  0
 27 65  2  0  0  0  0
 28 30  2  0  0  0  0
 28 33  1  0  0  0  0
 28 64  1  0  0  0  0
 29 66  2  0  0  0  0
 29 74  1  0  0  0  0
 30 66  1  0  0  0  0
 30 70  1  0  0  0  0
 31 67  1  0  0  0  0
 31 71  1  0  0  0  0
 32 72  1  0  0  0  0
 32 79  2  0  0  0  0
 33 73  1  0  0  0  0
 33 77  2  0  0  0  0
 34 48  1  0  0  0  0
 34 75  1  0  0  0  0
 34 80  2  0  0  0  0
 35 59  1  0  0  0  0
 35 68  1  0  0  0  0
 35 81  2  0  0  0  0
 36 60  1  0  0  0  0
 36 76  1  0  0  0  0
 36 82  2  0  0  0  0
 37 69  1  0  0  0  0
 37 74  1  0  0  0  0
 37 83  2  0  0  0  0
 38 41  1  0  0  0  0
 39 48  1  0  0  0  0
 40 68  1  0  0  0  0
 41 43  1  0  0  0  0
 42 44  1  0  0  0  0
 42 45  1  0  0  0  0
 43 47  1  0  0  0  0
 44 49  1  0  0  0  0
 45 69  1  0  0  0  0
 46 49  1  0  0  0  0
 46 69  1  0  0  0  0
 47 75  1  0  0  0  0
 48 68  1  0  0  0  0
 49 67  1  0  0  0  0
 50 60  1  0  0  0  0
 51 61  1  0  0  0  0
 52 61  1  0  0  0  0
 53 63  1  0  0  0  0
 54 63  1  0  0  0  0
 55 63  1  0  0  0  0
 56 78  1  0  0  0  0
 57 61  1  0  0  0  0
 57 62  1  0  0  0  0
 58 62  1  0  0  0  0
 58 85  1  0  0  0  0
 59 63  1  0  0  0  0
 59 76  1  0  0  0  0
 60 78  1  0  0  0  0
 62 77  1  0  0  0  0
 65 67  1  0  0  0  0
M  CHG  2  77   1  78   1
M  ISO  4  37 100  58 101  74 100  85 101
M  END
> <Batch ID>
0195

> <Smiles>
CNC(C)C(=O)NC(C(=O)N1Cc2cc([101O:1][101CH2:1]C(CC(C)C)NC(=N)c3ncc([100NH:0][100C:0](=O)N4CCCC(n5nc(-c6ccc(Oc7ccc(F)cc7F)cc6)c(C(N)=O)c5N)C4)nc3N)ccc2CC1C(=O)NC1CCCc2ccccc21)C(C)(C)C

> <Shape>
0.233

> <Color>
0.073

> <Negative vol penalty>
0.000

$$$$

  -OEChem-04052305363D

 83 91  0     1  0  0  0  0  0999 V2000
  -15.2514  -26.5478   24.2469 C   0  0  0  0  0  0  0  0  0  0  0  0
  -15.7811  -26.0329   23.0680 C   0  0  0  0  0  0  0  0  0  0  0  0
  -26.3316  -14.1580   19.6846 C   0  0  0  0  0  0  0  0  0  0  0  0
  -25.1827  -14.1078   21.8094 C   0  0  0  0  0  0  0  0  0  0  0  0
  -15.7442  -27.7437   24.7673 C   0  0  0  0  0  0  0  0  0  0  0  0
  -16.8032  -26.7143   22.4082 C   0  0  0  0  0  0  0  0  0  0  0  0
  -21.4558  -24.2444   19.2843 C   0  0  0  0  0  0  0  0  0  0  0  0
  -26.2499  -12.7677   19.6076 C   0  0  0  0  0  0  0  0  0  0  0  0
  -25.1010  -12.7174   21.7323 C   0  0  0  0  0  0  0  0  0  0  0  0
  -21.6600  -24.0255   17.9227 C   0  0  0  0  0  0  0  0  0  0  0  0
  -24.2700   -9.1832   21.9233 C   0  0  0  0  0  0  0  0  0  0  0  0
  -23.0510   -8.5857   22.2436 C   0  0  0  0  0  0  0  0  0  0  0  0
  -22.9004  -26.0897   17.7829 C   0  0  0  0  0  0  0  0  0  0  0  0
  -21.9787   -9.8197   20.4647 C   0  0  0  0  0  0  0  0  0  0  0  0
  -27.7772  -24.9398   17.4950 C   0  0  0  0  0  0  0  0  0  0  0  0
  -25.7980  -14.8280   20.7855 C   0  0  0  0  0  0  0  0  0  0  0  0
  -24.9477  -17.1992   20.3828 C   0  0  0  0  0  0  0  0  0  0  0  0
  -16.7795  -28.4351   24.1187 C   0  0  0  0  0  0  0  0  0  0  0  0
  -21.9639  -25.3950   19.9043 C   0  0  0  0  0  0  0  0  0  0  0  0
  -17.3094  -27.9213   22.9197 C   0  0  0  0  0  0  0  0  0  0  0  0
  -22.7035  -26.3196   19.1531 C   0  0  0  0  0  0  0  0  0  0  0  0
  -25.6346  -12.0474   20.6314 C   0  0  0  0  0  0  0  0  0  0  0  0
  -22.3799  -24.9496   17.1711 C   0  0  0  0  0  0  0  0  0  0  0  0
  -24.3434  -10.0990   20.8737 C   0  0  0  0  0  0  0  0  0  0  0  0
  -21.9053   -8.9039   21.5143 C   0  0  0  0  0  0  0  0  0  0  0  0
  -23.1977  -10.4172   20.1444 C   0  0  0  0  0  0  0  0  0  0  0  0
  -25.8826  -16.2642   20.8660 C   0  0  0  0  0  0  0  0  0  0  0  0
  -28.0307  -23.8112   18.2460 C   0  0  0  0  0  0  0  0  0  0  0  0
  -25.4866  -18.4210   20.7040 C   0  0  0  0  0  0  0  0  0  0  0  0
  -26.4624  -23.5382   16.4381 C   0  0  0  0  0  0  0  0  0  0  0  0
  -23.7033  -16.9826   19.7043 C   0  0  0  0  0  0  0  0  0  0  0  0
  -28.9274  -23.6204   19.4149 C   0  0  0  0  0  0  0  0  0  0  0  0
  -20.6821  -27.8831   21.4109 C   0  0  0  0  0  0  0  0  0  0  0  0
  -23.7833  -28.6222   22.0098 C   0  0  0  0  0  0  0  0  0  0  0  0
  -27.0600  -28.3226   21.1042 C   0  0  0  0  0  0  0  0  0  0  0  0
  -29.7613  -21.9318   21.0201 C   0  0  0  0  0  0  0  0  0  0  0  0
  -17.2471  -29.7485   24.6941 C   0  0  0  0  0  0  0  0  0  0  0  0
  -21.7578  -25.6033   21.3796 C   0  0  0  0  0  0  0  0  0  0  0  0
  -23.2873  -27.5608   19.7753 C   0  0  0  0  0  0  0  0  0  0  0  0
  -18.5882  -30.2158   24.1341 C   0  0  0  0  0  0  0  0  0  0  0  0
  -29.4165  -19.6149   23.6678 C   0  0  0  0  0  0  0  0  0  0  0  0
  -18.6083  -30.0813   22.6148 C   0  0  0  0  0  0  0  0  0  0  0  0
  -28.3831  -18.6155   23.1409 C   0  0  0  0  0  0  0  0  0  0  0  0
  -30.3621  -20.0880   22.5646 C   0  0  0  0  0  0  0  0  0  0  0  0
  -28.6749  -19.6115   20.8372 C   0  0  0  0  0  0  0  0  0  0  0  0
  -18.4358  -28.6186   22.1881 C   0  0  1  0  0  0  0  0  0  0  0  0
  -21.8807  -27.0647   21.7997 C   0  0  1  0  0  0  0  0  0  0  0  0
  -27.6552  -19.1586   21.8947 C   0  0  1  0  0  0  0  0  0  0  0  0
  -29.5522  -28.5676   21.2659 C   0  0  0  0  0  0  0  0  0  0  0  0
  -23.2253  -31.3775   20.8237 C   0  0  0  0  0  0  0  0  0  0  0  0
  -25.6982  -31.7192   20.6328 C   0  0  0  0  0  0  0  0  0  0  0  0
  -24.6552  -31.3950   22.8755 C   0  0  0  0  0  0  0  0  0  0  0  0
  -27.3215  -25.8194   22.6613 C   0  0  0  0  0  0  0  0  0  0  0  0
  -24.9484  -23.8245   14.4756 C   0  0  0  0  0  0  0  0  0  0  0  0
  -22.6492  -23.3827   15.4025 C   0  0  0  0  0  0  0  0  0  1  0  0
  -24.8468  -29.4259   21.3014 C   0  0  1  0  0  0  0  0  0  0  0  0
  -28.3020  -27.9909   21.9116 C   0  0  2  0  0  0  0  0  0  0  0  0
  -23.5444  -23.3060   14.1705 C   0  0  1  0  0  0  0  0  0  0  0  0
  -24.5939  -30.9571   21.3959 C   0  0  0  0  0  0  0  0  0  0  0  0
  -26.8784  -24.7851   16.4576 N   0  0  0  0  0  0  0  0  0  0  0  0
  -26.9357  -16.8424   21.4496 N   0  0  0  0  0  0  0  0  0  0  0  0
  -26.6658  -18.1540   21.3351 N   0  0  0  0  0  0  0  0  0  0  0  0
  -23.0533  -27.7228   21.2198 N   0  0  0  0  0  0  0  0  0  0  0  0
  -29.5955  -20.5959   21.4255 N   0  0  0  0  0  0  0  0  0  0  0  0
  -25.0621  -19.6870   20.5052 N   0  0  0  0  0  0  0  0  0  0  0  0
  -23.2994  -15.6641   19.4539 N   0  0  0  0  0  0  0  0  0  0  0  0
  -25.5527  -23.0337   15.5243 N   0  0  0  0  0  0  0  0  0  0  0  0
  -28.9532  -22.3324   19.9503 N   0  0  0  0  0  0  0  0  0  0  0  0
  -19.6762  -27.8928   22.3583 N   0  0  0  0  0  0  0  0  0  0  0  0
  -26.1238  -28.9956   21.8604 N   0  0  0  0  0  0  0  0  0  0  0  0
  -28.4687  -26.5141   22.0224 N   0  3  0  0  0  0  0  0  0  0  0  0
  -22.9791  -17.9306   19.3166 O   0  0  0  0  0  0  0  0  0  0  0  0
  -29.6054  -24.5653   19.8091 O   0  0  0  0  0  0  0  0  0  0  0  0
  -20.6713  -28.4641   20.3320 O   0  0  0  0  0  0  0  0  0  0  0  0
  -23.6115  -28.7811   23.2210 O   0  0  0  0  0  0  0  0  0  0  0  0
  -26.9346  -28.0186   19.9199 O   0  0  0  0  0  0  0  0  0  0  0  0
  -30.5339  -22.7116   21.5860 O   0  0  0  0  0  0  0  0  0  0  0  0
  -22.9562  -24.1204   13.1541 O   0  0  0  0  0  0  0  0  0  0  0  0
  -25.5545  -10.6907   20.5565 O   0  0  0  0  0  0  0  0  0  0  0  0
  -22.5801  -24.7386   15.8417 O   0  0  0  0  0  0  0  0  0  1  0  0
  -20.7351   -8.3289   21.8210 F   0  0  0  0  0  0  0  0  0  0  0  0
  -23.2623  -11.2954   19.1342 F   0  0  0  0  0  0  0  0  0  0  0  0
  -27.1106  -22.4975   17.6388 S   0  0  0  0  0  0  0  0  0  0  0  0
  1  2  1  0  0  0  0
  1  5  2  0  0  0  0
  2  6  2  0  0  0  0
  3  8  2  0  0  0  0
  3 16  1  0  0  0  0
  4  9  1  0  0  0  0
  4 16  2  0  0  0  0
  5 18  1  0  0  0  0
  6 20  1  0  0  0  0
  7 10  2  0  0  0  0
  7 19  1  0  0  0  0
  8 22  1  0  0  0  0
  9 22  2  0  0  0  0
 10 23  1  0  0  0  0
 11 12  2  0  0  0  0
 11 24  1  0  0  0  0
 12 25  1  0  0  0  0
 13 21  1  0  0  0  0
 13 23  2  0  0  0  0
 14 25  2  0  0  0  0
 14 26  1  0  0  0  0
 15 28  2  0  0  0  0
 15 60  1  0  0  0  0
 16 27  1  0  0  0  0
 17 27  1  0  0  0  0
 17 29  2  0  0  0  0
 17 31  1  0  0  0  0
 18 20  2  0  0  0  0
 18 37  1  0  0  0  0
 19 21  2  0  0  0  0
 19 38  1  0  0  0  0
 20 46  1  0  0  0  0
 21 39  1  0  0  0  0
 22 79  1  0  0  0  0
 23 80  1  0  0  0  0
 24 26  2  0  0  0  0
 24 79  1  0  0  0  0
 25 81  1  0  0  0  0
 26 82  1  0  0  0  0
 27 61  2  0  0  0  0
 28 32  1  0  0  0  0
 28 83  1  0  0  0  0
 29 62  1  0  0  0  0
 29 65  1  0  0  0  0
 30 60  2  0  0  0  0
 30 67  1  0  0  0  0
 30 83  1  0  0  0  0
 31 66  1  0  0  0  0
 31 72  2  0  0  0  0
 32 68  1  0  0  0  0
 32 73  2  0  0  0  0
 33 47  1  0  0  0  0
 33 69  1  0  0  0  0
 33 74  2  0  0  0  0
 34 56  1  0  0  0  0
 34 63  1  0  0  0  0
 34 75  2  0  0  0  0
 35 57  1  0  0  0  0
 35 70  1  0  0  0  0
 35 76  2  0  0  0  0
 36 64  1  0  0  0  0
 36 68  1  0  0  0  0
 36 77  2  0  0  0  0
 37 40  1  0  0  0  0
 38 47  1  0  0  0  0
 39 63  1  0  0  0  0
 40 42  1  0  0  0  0
 41 43  1  0  0  0  0
 41 44  1  0  0  0  0
 42 46  1  0  0  0  0
 43 48  1  0  0  0  0
 44 64  1  0  0  0  0
 45 48  1  0  0  0  0
 45 64  1  0  0  0  0
 46 69  1  0  0  0  0
 47 63  1  0  0  0  0
 48 62  1  0  0  0  0
 49 57  1  0  0  0  0
 50 59  1  0  0  0  0
 51 59  1  0  0  0  0
 52 59  1  0  0  0  0
 53 71  1  0  0  0  0
 54 58  1  0  0  0  0
 54 67  1  0  0  0  0
 55 58  1  0  0  0  0
 55 80  1  0  0  0  0
 56 59  1  0  0  0  0
 56 70  1  0  0  0  0
 57 71  1  0  0  0  0
 58 78  1  0  0  0  0
 61 62  1  0  0  0  0
M  CHG  1  71   1
M  ISO  4  36 100  55 101  68 100  80 101
M  END
> <Batch ID>
0195

> <Smiles>
CNC(C)C(=O)NC(C(=O)N1Cc2cc([101O:1][101CH2:1]C(O)CNc3ncc(C(=O)[100NH:0][100C:0](=O)N4CCCC(n5nc(-c6ccc(Oc7ccc(F)cc7F)cc6)c(C(N)=O)c5N)C4)s3)ccc2CC1C(=O)NC1CCCc2ccccc21)C(C)(C)C

> <Shape>
0.243

> <Color>
0.068

> <Negative vol penalty>
0.000

$$$$

  -OEChem-04052305363D

 88 96  0     1  0  0  0  0  0999 V2000
  -27.2118  -34.5976   24.8547 C   0  0  0  0  0  0  0  0  0  0  0  0
  -27.5575  -33.3781   24.2813 C   0  0  0  0  0  0  0  0  0  0  0  0
  -27.4185  -11.2901   20.5789 C   0  0  0  0  0  0  0  0  0  0  0  0
  -26.6719  -13.0882   19.1484 C   0  0  0  0  0  0  0  0  0  0  0  0
  -25.9643  -34.7546   25.4573 C   0  0  0  0  0  0  0  0  0  0  0  0
  -26.6563  -32.3145   24.3111 C   0  0  0  0  0  0  0  0  0  0  0  0
  -26.3266  -29.9223   19.8599 C   0  0  0  0  0  0  0  0  0  0  0  0
  -26.2855  -10.5503   20.2404 C   0  0  0  0  0  0  0  0  0  0  0  0
  -25.5389  -12.3483   18.8097 C   0  0  0  0  0  0  0  0  0  0  0  0
  -27.3521  -29.0349   19.5365 C   0  0  0  0  0  0  0  0  0  0  0  0
  -23.0159  -10.4716   21.0936 C   0  0  0  0  0  0  0  0  0  0  0  0
  -22.3273   -9.8335   22.1252 C   0  0  0  0  0  0  0  0  0  0  0  0
  -25.9580  -27.1864   20.2140 C   0  0  0  0  0  0  0  0  0  0  0  0
  -22.7192   -7.6978   21.0659 C   0  0  0  0  0  0  0  0  0  0  0  0
  -27.6117  -12.5591   20.0330 C   0  0  0  0  0  0  0  0  0  0  0  0
  -30.0273  -13.3199   19.7272 C   0  0  0  0  0  0  0  0  0  0  0  0
  -25.0436  -33.6953   25.4859 C   0  0  0  0  0  0  0  0  0  0  0  0
  -25.1110  -29.4484   20.3739 C   0  0  0  0  0  0  0  0  0  0  0  0
  -25.3958  -32.4570   24.9158 C   0  0  0  0  0  0  0  0  0  0  0  0
  -24.9177  -28.0697   20.5407 C   0  0  0  0  0  0  0  0  0  0  0  0
  -25.3457  -11.0794   19.3558 C   0  0  0  0  0  0  0  0  0  0  0  0
  -27.1690  -27.6669   19.7162 C   0  0  0  0  0  0  0  0  0  0  0  0
  -23.5561   -9.7228   20.0480 C   0  0  0  0  0  0  0  0  0  0  0  0
  -22.1790   -8.4467   22.1114 C   0  0  0  0  0  0  0  0  0  0  0  0
  -23.4078   -8.3359   20.0342 C   0  0  0  0  0  0  0  0  0  0  0  0
  -28.7815  -13.3240   20.3828 C   0  0  0  0  0  0  0  0  0  0  0  0
  -30.7941  -14.2077   20.4414 C   0  0  0  0  0  0  0  0  0  0  0  0
  -28.6849  -22.8946   22.1396 C   0  0  0  0  0  0  0  0  0  0  0  0
  -28.7801  -20.7256   22.2878 C   0  0  0  0  0  0  0  0  0  0  0  0
  -30.4532  -12.5798   18.5754 C   0  0  0  0  0  0  0  0  0  0  0  0
  -23.5229  -29.8406   23.0993 C   0  0  0  0  0  0  0  0  0  0  0  0
  -21.2308  -28.1423   21.5553 C   0  0  0  0  0  0  0  0  0  0  0  0
  -20.4406  -25.9060   19.1014 C   0  0  0  0  0  0  0  0  0  0  0  0
  -29.4594  -18.9027   23.8884 C   0  0  0  0  0  0  0  0  0  0  0  0
  -23.7255  -33.8980   26.1903 C   0  0  0  0  0  0  0  0  0  0  0  0
  -24.0050  -30.4167   20.6927 C   0  0  0  0  0  0  0  0  0  0  0  0
  -23.6242  -27.5086   21.0701 C   0  0  0  0  0  0  0  0  0  0  0  0
  -22.6830  -32.8364   25.8492 C   0  0  0  0  0  0  0  0  0  0  0  0
  -31.3068  -16.0138   24.8470 C   0  0  0  0  0  0  0  0  0  0  0  0
  -23.2974  -31.4421   25.9218 C   0  0  0  0  0  0  0  0  0  0  0  0
  -30.9870  -14.9979   23.7481 C   0  0  0  0  0  0  0  0  0  0  0  0
  -30.0964  -16.8818   25.1866 C   0  0  0  0  0  0  0  0  0  0  0  0
  -29.1489  -16.5323   22.9395 C   0  0  0  0  0  0  0  0  0  0  0  0
  -24.4358  -31.2873   24.9062 C   0  0  1  0  0  0  0  0  0  0  0  0
  -22.9951  -29.8621   21.6927 C   0  0  1  0  0  0  0  0  0  0  0  0
  -30.3559  -15.6785   22.5177 C   0  0  2  0  0  0  0  0  0  0  0  0
  -26.8116  -27.4045   24.8293 C   0  0  0  0  0  0  0  0  0  0  0  0
  -31.7085  -26.6209   16.9232 C   0  0  0  0  0  0  0  0  0  0  0  0
  -18.4894  -24.6819   18.1057 C   0  0  0  0  0  0  0  0  0  0  0  0
  -29.6156  -26.8572   23.8015 C   0  0  0  0  0  0  0  0  0  0  0  0
  -31.8469  -27.6085   19.7899 C   0  0  0  0  0  0  0  0  0  0  0  0
  -21.2112  -26.2389   23.9399 C   0  0  0  0  0  0  0  0  0  0  0  0
  -19.9966  -24.5770   22.5147 C   0  0  0  0  0  0  0  0  0  0  0  0
  -18.9498  -26.7839   23.0215 C   0  0  0  0  0  0  0  0  0  0  0  0
  -20.8508  -27.1673   16.4557 C   0  0  0  0  0  0  0  0  0  0  0  0
  -27.1397  -26.2659   23.8726 C   0  0  0  0  0  0  0  0  0  0  0  0
  -30.6750  -26.2519   17.9796 C   0  0  0  0  0  0  0  0  0  0  0  0
  -29.6830  -25.6872   20.9283 C   0  0  0  0  0  0  0  0  0  0  0  0
  -20.8987  -26.6764   21.4147 C   0  0  1  0  0  0  0  0  0  0  0  0
  -19.3642  -25.9236   18.0311 C   0  0  2  0  0  0  0  0  0  0  0  0
  -28.3636  -26.5463   22.9705 C   0  0  2  0  0  0  0  0  0  0  0  0
  -30.5185  -27.3200   19.0832 C   0  0  1  0  0  0  0  0  0  0  0  0
  -28.5759  -25.3810   21.9624 C   0  0  2  0  0  0  0  0  0  0  0  0
  -29.4063  -26.9595   20.1029 C   0  0  1  0  0  0  0  0  0  1  0  0
  -20.2892  -26.0794   22.7145 C   0  0  0  0  0  0  0  0  0  0  0  0
  -28.7543  -14.1489   21.4330 N   0  0  0  0  0  0  0  0  0  0  0  0
  -29.0324  -21.8306   22.9546 N   0  0  0  0  0  0  0  0  0  0  0  0
  -28.1917  -22.6866   20.9188 N   0  0  0  0  0  0  0  0  0  0  0  0
  -29.9924  -14.6713   21.4427 N   0  0  0  0  0  0  0  0  0  0  0  0
  -22.5752  -28.4961   21.3733 N   0  0  0  0  0  0  0  0  0  0  0  0
  -29.5542  -17.4975   23.9734 N   0  0  0  0  0  0  0  0  0  0  0  0
  -32.0693  -14.6292   20.3045 N   0  0  0  0  0  0  0  0  0  0  0  0
  -29.5386  -11.7120   17.9632 N   0  0  0  0  0  0  0  0  0  0  0  0
  -28.8817  -24.1543   22.6730 N   0  0  0  0  0  0  0  0  0  0  0  0
  -28.9595  -19.3745   22.6751 N   0  0  0  0  0  0  0  0  0  0  0  0
  -23.9024  -31.0806   23.5768 N   0  0  0  0  0  0  0  0  0  0  0  0
  -20.0359  -26.5638   20.2437 N   0  0  0  0  0  0  0  0  0  0  0  0
  -19.9819  -25.9826   16.6762 N   0  3  0  0  0  0  0  0  0  0  0  0
  -31.6155  -12.6726   18.1130 O   0  0  0  0  0  0  0  0  0  0  0  0
  -23.5801  -28.7780   23.7070 O   0  0  0  0  0  0  0  0  0  0  0  0
  -20.3293  -28.9448   21.8099 O   0  0  0  0  0  0  0  0  0  0  0  0
  -21.5300  -25.3600   18.9416 O   0  0  0  0  0  0  0  0  0  0  0  0
  -29.8223  -19.6347   24.8127 O   0  0  0  0  0  0  0  0  0  0  0  0
  -24.2402  -10.3576   19.0250 O   0  0  0  0  0  0  0  0  0  0  0  0
  -28.1733  -26.7944   19.4004 O   0  0  0  0  0  0  0  0  0  1  0  0
  -21.5190   -7.8339   23.1030 F   0  0  0  0  0  0  0  0  0  0  0  0
  -23.9256   -7.6111   19.0331 F   0  0  0  0  0  0  0  0  0  0  0  0
  -28.1402  -21.0252   20.7240 S   0  0  0  0  0  0  0  0  0  0  0  0
  1  2  1  0  0  0  0
  1  5  2  0  0  0  0
  2  6  2  0  0  0  0
  3  8  2  0  0  0  0
  3 15  1  0  0  0  0
  4  9  1  0  0  0  0
  4 15  2  0  0  0  0
  5 17  1  0  0  0  0
  6 19  1  0  0  0  0
  7 10  2  0  0  0  0
  7 18  1  0  0  0  0
  8 21  1  0  0  0  0
  9 21  2  0  0  0  0
 10 22  1  0  0  0  0
 11 12  2  0  0  0  0
 11 23  1  0  0  0  0
 12 24  1  0  0  0  0
 13 20  1  0  0  0  0
 13 22  2  0  0  0  0
 14 24  2  0  0  0  0
 14 25  1  0  0  0  0
 15 26  1  0  0  0  0
 16 26  1  0  0  0  0
 16 27  2  0  0  0  0
 16 30  1  0  0  0  0
 17 19  2  0  0  0  0
 17 35  1  0  0  0  0
 18 20  2  0  0  0  0
 18 36  1  0  0  0  0
 19 44  1  0  0  0  0
 20 37  1  0  0  0  0
 21 84  1  0  0  0  0
 22 85  1  0  0  0  0
 23 25  2  0  0  0  0
 23 84  1  0  0  0  0
 24 86  1  0  0  0  0
 25 87  1  0  0  0  0
 26 66  2  0  0  0  0
 27 69  1  0  0  0  0
 27 72  1  0  0  0  0
 28 67  1  0  0  0  0
 28 68  2  0  0  0  0
 28 74  1  0  0  0  0
 29 67  2  0  0  0  0
 29 75  1  0  0  0  0
 29 88  1  0  0  0  0
 30 73  1  0  0  0  0
 30 79  2  0  0  0  0
 31 45  1  0  0  0  0
 31 76  1  0  0  0  0
 31 80  2  0  0  0  0
 32 59  1  0  0  0  0
 32 70  1  0  0  0  0
 32 81  2  0  0  0  0
 33 60  1  0  0  0  0
 33 77  1  0  0  0  0
 33 82  2  0  0  0  0
 34 71  1  0  0  0  0
 34 75  1  0  0  0  0
 34 83  2  0  0  0  0
 35 38  1  0  0  0  0
 36 45  1  0  0  0  0
 37 70  1  0  0  0  0
 38 40  1  0  0  0  0
 39 41  1  0  0  0  0
 39 42  1  0  0  0  0
 40 44  1  0  0  0  0
 41 46  1  0  0  0  0
 42 71  1  0  0  0  0
 43 46  1  0  0  0  0
 43 71  1  0  0  0  0
 44 76  1  0  0  0  0
 45 70  1  0  0  0  0
 46 69  1  0  0  0  0
 47 56  1  0  0  0  0
 48 57  1  0  0  0  0
 49 60  1  0  0  0  0
 50 61  1  0  0  0  0
 51 62  1  0  0  0  0
 52 65  1  0  0  0  0
 53 65  1  0  0  0  0
 54 65  1  0  0  0  0
 55 78  1  0  0  0  0
 56 61  1  0  0  0  0
 57 62  1  0  0  0  0
 58 63  1  0  0  0  0
 58 64  1  0  0  0  0
 59 65  1  0  0  0  0
 59 77  1  0  0  0  0
 60 78  1  0  0  0  0
 61 63  1  0  0  0  0
 62 64  1  0  0  0  0
 63 74  1  0  0  0  0
 64 85  1  0  0  0  0
 66 69  1  0  0  0  0
 68 88  1  0  0  0  0
M  CHG  1  78   1
M  ISO  4  34 100  64 101  75 100  85 101
M  END
> <Batch ID>
0195

> <Smiles>
CCC(C)C(C[101CH:1](C(C)CC)[101O:1]c1ccc2c(c1)CN(C(=O)C(NC(=O)C(C)NC)C(C)(C)C)C(C(=O)NC1CCCc3ccccc31)C2)Nc1nsc([100NH:0][100C:0](=O)N2CCCC(n3nc(-c4ccc(Oc5ccc(F)cc5F)cc4)c(C(N)=O)c3N)C2)n1

> <Shape>
0.313

> <Color>
0.077

> <Negative vol penalty>
0.000

$$$$

  -OEChem-04052305363D

 83 91  0     1  0  0  0  0  0999 V2000
  -19.6546  -23.9261   21.7996 C   0  0  0  0  0  0  0  0  0  0  0  0
  -20.8561  -24.3315   21.2273 C   0  0  0  0  0  0  0  0  0  0  0  0
  -24.6230  -14.9658   21.4985 C   0  0  0  0  0  0  0  0  0  0  0  0
  -27.0347  -14.8635   21.3984 C   0  0  0  0  0  0  0  0  0  0  0  0
  -18.7567  -24.8781   22.2806 C   0  0  0  0  0  0  0  0  0  0  0  0
  -21.1599  -25.6892   21.1346 C   0  0  0  0  0  0  0  0  0  0  0  0
  -25.9260  -26.7117   22.5070 C   0  0  0  0  0  0  0  0  0  0  0  0
  -24.5512  -13.6177   21.1478 C   0  0  0  0  0  0  0  0  0  0  0  0
  -26.9630  -13.5153   21.0477 C   0  0  0  0  0  0  0  0  0  0  0  0
  -26.9294  -26.4313   21.5805 C   0  0  0  0  0  0  0  0  0  0  0  0
  -24.9362  -10.6236   22.6711 C   0  0  0  0  0  0  0  0  0  0  0  0
  -24.0584   -9.8126   23.3902 C   0  0  0  0  0  0  0  0  0  0  0  0
  -26.9996  -28.7615   20.9604 C   0  0  0  0  0  0  0  0  0  0  0  0
  -22.8654   -9.2979   21.3533 C   0  0  0  0  0  0  0  0  0  0  0  0
  -31.4879  -21.4078   18.9760 C   0  0  0  0  0  0  0  0  0  0  0  0
  -32.9058  -22.9977   18.1447 C   0  0  0  0  0  0  0  0  0  0  0  0
  -25.8647  -15.5887   21.6237 C   0  0  0  0  0  0  0  0  0  0  0  0
  -26.0164  -17.5196   23.2840 C   0  0  0  0  0  0  0  0  0  0  0  0
  -19.0539  -26.2479   22.2025 C   0  0  0  0  0  0  0  0  0  0  0  0
  -25.4434  -28.0194   22.6596 C   0  0  0  0  0  0  0  0  0  0  0  0
  -20.2645  -26.6605   21.6138 C   0  0  0  0  0  0  0  0  0  0  0  0
  -25.9918  -29.0563   21.8913 C   0  0  0  0  0  0  0  0  0  0  0  0
  -25.7212  -12.8924   20.9224 C   0  0  0  0  0  0  0  0  0  0  0  0
  -27.4643  -27.4558   20.8050 C   0  0  0  0  0  0  0  0  0  0  0  0
  -24.7787  -10.7719   21.2931 C   0  0  0  0  0  0  0  0  0  0  0  0
  -23.0229   -9.1497   22.7313 C   0  0  0  0  0  0  0  0  0  0  0  0
  -23.7432  -10.1090   20.6342 C   0  0  0  0  0  0  0  0  0  0  0  0
  -25.9395  -16.9815   21.9854 C   0  0  0  0  0  0  0  0  0  0  0  0
  -30.4071  -22.1673   18.5853 C   0  0  0  0  0  0  0  0  0  0  0  0
  -31.8251  -23.7570   17.7533 C   0  0  0  0  0  0  0  0  0  0  0  0
  -26.0669  -18.8784   23.0901 C   0  0  0  0  0  0  0  0  0  0  0  0
  -26.0403  -16.8509   24.5521 C   0  0  0  0  0  0  0  0  0  0  0  0
  -22.6227  -29.4301   22.2627 C   0  0  0  0  0  0  0  0  0  0  0  0
  -24.1625  -31.9899   23.5272 C   0  0  0  0  0  0  0  0  0  0  0  0
  -27.1174  -33.5916   24.1188 C   0  0  0  0  0  0  0  0  0  0  0  0
  -27.8913  -22.2870   18.5340 C   0  0  0  0  0  0  0  0  0  0  0  0
  -18.0310  -27.2418   22.6931 C   0  0  0  0  0  0  0  0  0  0  0  0
  -24.3794  -28.3099   23.6823 C   0  0  0  0  0  0  0  0  0  0  0  0
  -25.5226  -30.4806   22.0313 C   0  0  0  0  0  0  0  0  0  0  0  0
  -18.5948  -28.6457   22.8968 C   0  0  0  0  0  0  0  0  0  0  0  0
  -24.6585  -22.2788   20.0261 C   0  0  0  0  0  0  0  0  0  0  0  0
  -19.4406  -29.0606   21.6971 C   0  0  0  0  0  0  0  0  0  0  0  0
  -24.6294  -20.9713   20.8210 C   0  0  0  0  0  0  0  0  0  0  0  0
  -25.4178  -22.1252   18.7094 C   0  0  0  0  0  0  0  0  0  0  0  0
  -26.7426  -20.2630   19.6294 C   0  0  0  0  0  0  0  0  0  0  0  0
  -20.6409  -28.1231   21.5177 C   0  0  1  0  0  0  0  0  0  0  0  0
  -23.6032  -29.5903   23.3899 C   0  0  1  0  0  0  0  0  0  0  0  0
  -26.0444  -20.3852   20.9937 C   0  0  2  0  0  0  0  0  0  0  0  0
  -28.0539  -35.6840   25.1397 C   0  0  0  0  0  0  0  0  0  0  0  0
  -31.5867  -26.7629   15.5842 C   0  0  0  0  0  0  0  0  0  0  0  0
  -23.2521  -33.5836   21.0898 C   0  0  0  0  0  0  0  0  0  0  0  0
  -24.9617  -35.3176   21.6719 C   0  0  0  0  0  0  0  0  0  0  0  0
  -23.1030  -34.8190   23.2592 C   0  0  0  0  0  0  0  0  0  0  0  0
  -28.6828  -32.0588   26.1086 C   0  0  0  0  0  0  0  0  0  0  0  0
  -29.0533  -27.2175   17.5594 C   0  0  0  0  0  0  0  0  0  0  0  0
  -30.4608  -26.6721   17.8382 C   0  0  0  0  0  0  0  0  0  0  0  0
  -28.5004  -28.0114   18.7377 C   0  0  0  0  0  0  0  0  0  1  0  0
  -24.9679  -33.1371   22.9667 C   0  0  1  0  0  0  0  0  0  0  0  0
  -27.6844  -34.2277   25.3751 C   0  0  2  0  0  0  0  0  0  0  0  0
  -31.0152  -25.8513   16.6654 C   0  0  2  0  0  0  0  0  0  0  0  0
  -24.0789  -34.1873   22.2426 C   0  0  0  0  0  0  0  0  0  0  0  0
  -32.7566  -21.8094   18.7627 N   0  0  0  0  0  0  0  0  0  0  0  0
  -25.9405  -17.9217   21.0367 N   0  0  0  0  0  0  0  0  0  0  0  0
  -30.5564  -23.3555   17.9669 N   0  0  0  0  0  0  0  0  0  0  0  0
  -26.0186  -19.0643   21.7398 N   0  0  0  0  0  0  0  0  0  0  0  0
  -24.4760  -30.7129   23.0404 N   0  0  0  0  0  0  0  0  0  0  0  0
  -26.7508  -21.5689   18.9516 N   0  0  0  0  0  0  0  0  0  0  0  0
  -26.1473  -19.9203   23.9447 N   0  0  0  0  0  0  0  0  0  0  0  0
  -25.9809  -15.4508   24.5703 N   0  0  0  0  0  0  0  0  0  0  0  0
  -29.1045  -21.6750   18.8473 N   0  0  0  0  0  0  0  0  0  0  0  0
  -32.0648  -24.9656   17.1245 N   0  0  0  0  0  0  0  0  0  0  0  0
  -21.6792  -28.4428   22.4738 N   0  0  0  0  0  0  0  0  0  0  0  0
  -25.7416  -33.6752   24.0803 N   0  0  0  0  0  0  0  0  0  0  0  0
  -28.9061  -33.4987   25.8188 N   0  3  0  0  0  0  0  0  0  0  0  0
  -26.0956  -17.4773   25.6375 O   0  0  0  0  0  0  0  0  0  0  0  0
  -22.7145  -30.1499   21.2752 O   0  0  0  0  0  0  0  0  0  0  0  0
  -23.2923  -32.2174   24.3714 O   0  0  0  0  0  0  0  0  0  0  0  0
  -27.8245  -33.0756   23.2560 O   0  0  0  0  0  0  0  0  0  0  0  0
  -27.7991  -23.3784   17.9663 O   0  0  0  0  0  0  0  0  0  0  0  0
  -25.6515  -11.5768   20.5804 O   0  0  0  0  0  0  0  0  0  0  0  0
  -28.4434  -27.1848   19.8995 O   0  0  0  0  0  0  0  0  0  1  0  0
  -22.1809   -8.3697   23.4218 F   0  0  0  0  0  0  0  0  0  0  0  0
  -23.5875  -10.2466   19.3103 F   0  0  0  0  0  0  0  0  0  0  0  0
  1  2  1  0  0  0  0
  1  5  2  0  0  0  0
  2  6  2  0  0  0  0
  3  8  2  0  0  0  0
  3 17  1  0  0  0  0
  4  9  1  0  0  0  0
  4 17  2  0  0  0  0
  5 19  1  0  0  0  0
  6 21  1  0  0  0  0
  7 10  2  0  0  0  0
  7 20  1  0  0  0  0
  8 23  1  0  0  0  0
  9 23  2  0  0  0  0
 10 24  1  0  0  0  0
 11 12  2  0  0  0  0
 11 25  1  0  0  0  0
 12 26  1  0  0  0  0
 13 22  1  0  0  0  0
 13 24  2  0  0  0  0
 14 26  2  0  0  0  0
 14 27  1  0  0  0  0
 15 29  2  0  0  0  0
 15 62  1  0  0  0  0
 16 30  1  0  0  0  0
 16 62  2  0  0  0  0
 17 28  1  0  0  0  0
 18 28  1  0  0  0  0
 18 31  2  0  0  0  0
 18 32  1  0  0  0  0
 19 21  2  0  0  0  0
 19 37  1  0  0  0  0
 20 22  2  0  0  0  0
 20 38  1  0  0  0  0
 21 46  1  0  0  0  0
 22 39  1  0  0  0  0
 23 80  1  0  0  0  0
 24 81  1  0  0  0  0
 25 27  2  0  0  0  0
 25 80  1  0  0  0  0
 26 82  1  0  0  0  0
 27 83  1  0  0  0  0
 28 63  2  0  0  0  0
 29 64  1  0  0  0  0
 29 70  1  0  0  0  0
 30 64  2  0  0  0  0
 30 71  1  0  0  0  0
 31 65  1  0  0  0  0
 31 68  1  0  0  0  0
 32 69  1  0  0  0  0
 32 75  2  0  0  0  0
 33 47  1  0  0  0  0
 33 72  1  0  0  0  0
 33 76  2  0  0  0  0
 34 58  1  0  0  0  0
 34 66  1  0  0  0  0
 34 77  2  0  0  0  0
 35 59  1  0  0  0  0
 35 73  1  0  0  0  0
 35 78  2  0  0  0  0
 36 67  1  0  0  0  0
 36 70  1  0  0  0  0
 36 79  2  0  0  0  0
 37 40  1  0  0  0  0
 38 47  1  0  0  0  0
 39 66  1  0  0  0  0
 40 42  1  0  0  0  0
 41 43  1  0  0  0  0
 41 44  1  0  0  0  0
 42 46  1  0  0  0  0
 43 48  1  0  0  0  0
 44 67  1  0  0  0  0
 45 48  1  0  0  0  0
 45 67  1  0  0  0  0
 46 72  1  0  0  0  0
 47 66  1  0  0  0  0
 48 65  1  0  0  0  0
 49 59  1  0  0  0  0
 50 60  1  0  0  0  0
 51 61  1  0  0  0  0
 52 61  1  0  0  0  0
 53 61  1  0  0  0  0
 54 74  1  0  0  0  0
 55 56  1  0  0  0  0
 55 57  1  0  0  0  0
 56 60  1  0  0  0  0
 57 81  1  0  0  0  0
 58 61  1  0  0  0  0
 58 73  1  0  0  0  0
 59 74  1  0  0  0  0
 60 71  1  0  0  0  0
 63 65  1  0  0  0  0
M  CHG  1  74   1
M  ISO  4  36 100  57 101  70 100  81 101
M  END
> <Batch ID>
0195

> <Smiles>
CNC(C)C(=O)NC(C(=O)N1Cc2cc([101O:1][101CH2:1]CCC(C)Nc3cncc([100NH:0][100C:0](=O)N4CCCC(n5nc(-c6ccc(Oc7ccc(F)cc7F)cc6)c(C(N)=O)c5N)C4)n3)ccc2CC1C(=O)NC1CCCc2ccccc21)C(C)(C)C

> <Shape>
0.251

> <Color>
0.095

> <Negative vol penalty>
0.000

$$$$

  -OEChem-04052305363D

 84 92  0     1  0  0  0  0  0999 V2000
  -24.7651   -7.0630   23.9934 C   0  0  0  0  0  0  0  0  0  0  0  0
  -25.6766   -8.0862   23.7532 C   0  0  0  0  0  0  0  0  0  0  0  0
  -20.8810  -26.3672   23.1934 C   0  0  0  0  0  0  0  0  0  0  0  0
  -19.7523  -27.1476   21.2049 C   0  0  0  0  0  0  0  0  0  0  0  0
  -23.5948   -6.9825   23.2399 C   0  0  0  0  0  0  0  0  0  0  0  0
  -25.4188   -9.0289   22.7585 C   0  0  0  0  0  0  0  0  0  0  0  0
  -26.9123  -14.9676   22.8385 C   0  0  0  0  0  0  0  0  0  0  0  0
  -19.7389  -26.6363   23.9474 C   0  0  0  0  0  0  0  0  0  0  0  0
  -18.6100  -27.4167   21.9590 C   0  0  0  0  0  0  0  0  0  0  0  0
  -27.9712  -15.6762   22.2725 C   0  0  0  0  0  0  0  0  0  0  0  0
  -17.5261  -29.8296   24.0646 C   0  0  0  0  0  0  0  0  0  0  0  0
  -16.8795  -31.0467   23.8497 C   0  0  0  0  0  0  0  0  0  0  0  0
  -26.5780  -16.2388   20.3853 C   0  0  0  0  0  0  0  0  0  0  0  0
  -30.7943  -21.6992   20.3595 C   0  0  0  0  0  0  0  0  0  0  0  0
  -14.8715  -29.8665   23.2077 C   0  0  0  0  0  0  0  0  0  0  0  0
  -28.4723  -21.9986   19.9406 C   0  0  0  0  0  0  0  0  0  0  0  0
  -20.8878  -26.6229   21.8221 C   0  0  0  0  0  0  0  0  0  0  0  0
  -22.3900  -25.1423   20.3872 C   0  0  0  0  0  0  0  0  0  0  0  0
  -23.3179   -7.9302   22.2420 C   0  0  0  0  0  0  0  0  0  0  0  0
  -25.6796  -14.8800   22.1759 C   0  0  0  0  0  0  0  0  0  0  0  0
  -24.2443   -8.9601   21.9900 C   0  0  0  0  0  0  0  0  0  0  0  0
  -25.5043  -15.5307   20.9462 C   0  0  0  0  0  0  0  0  0  0  0  0
  -30.9743  -23.0642   20.1650 C   0  0  0  0  0  0  0  0  0  0  0  0
  -29.5226  -21.1484   20.2469 C   0  0  0  0  0  0  0  0  0  0  0  0
  -18.6033  -27.1610   23.3302 C   0  0  0  0  0  0  0  0  0  0  0  0
  -27.8051  -16.3095   21.0443 C   0  0  0  0  0  0  0  0  0  0  0  0
  -16.8454  -28.6309   23.8511 C   0  0  0  0  0  0  0  0  0  0  0  0
  -15.5522  -31.0652   23.4213 C   0  0  0  0  0  0  0  0  0  0  0  0
  -15.5181  -28.6494   23.4226 C   0  0  0  0  0  0  0  0  0  0  0  0
  -22.0676  -26.3457   21.0428 C   0  0  0  0  0  0  0  0  0  0  0  0
  -29.8591  -23.8286   19.8622 C   0  0  0  0  0  0  0  0  0  0  0  0
  -23.6039  -25.3891   19.7940 C   0  0  0  0  0  0  0  0  0  0  0  0
  -21.6576  -23.9115   20.3204 C   0  0  0  0  0  0  0  0  0  0  0  0
  -29.9679  -25.2934   19.6397 C   0  0  0  0  0  0  0  0  0  0  0  0
  -23.9358  -12.5030   20.9873 C   0  0  0  0  0  0  0  0  0  0  0  0
  -21.7661  -14.8626   20.4900 C   0  0  0  0  0  0  0  0  0  0  0  0
  -21.1566  -18.1900   20.0388 C   0  0  0  0  0  0  0  0  0  0  0  0
  -28.7524  -27.4338   19.8942 C   0  0  0  0  0  0  0  0  0  0  0  0
  -22.0622   -7.7745   21.4213 C   0  0  0  0  0  0  0  0  0  0  0  0
  -24.5390  -14.1342   22.8125 C   0  0  0  0  0  0  0  0  0  0  0  0
  -24.1946  -15.4840   20.2040 C   0  0  0  0  0  0  0  0  0  0  0  0
  -21.6858   -9.0305   20.6396 C   0  0  0  0  0  0  0  0  0  0  0  0
  -26.1540  -29.7222   19.1810 C   0  0  0  0  0  0  0  0  0  0  0  0
  -22.9081   -9.6036   19.9294 C   0  0  0  0  0  0  0  0  0  0  0  0
  -24.8826  -28.9481   19.5397 C   0  0  0  0  0  0  0  0  0  0  0  0
  -27.2943  -29.4219   20.1529 C   0  0  0  0  0  0  0  0  0  0  0  0
  -26.3229  -27.2281   20.7021 C   0  0  0  0  0  0  0  0  0  0  0  0
  -23.9884  -10.0160   20.9366 C   0  0  1  0  0  0  0  0  0  0  0  0
  -23.4863  -13.6800   21.8060 C   0  0  1  0  0  0  0  0  0  0  0  0
  -25.1667  -27.4424   19.7120 C   0  0  1  0  0  0  0  0  0  0  0  0
  -32.3350  -23.6596   20.2848 C   0  0  0  0  0  0  0  0  0  0  0  0
  -19.2877  -19.8111   19.6188 C   0  0  0  0  0  0  0  0  0  0  0  0
  -31.1322  -18.5219   19.4758 C   0  0  0  0  0  0  0  0  0  0  0  0
  -21.6516  -13.9715   17.5741 C   0  0  0  0  0  0  0  0  0  0  0  0
  -20.5503  -16.1515   17.0237 C   0  0  0  0  0  0  0  0  0  0  0  0
  -19.4343  -14.5492   18.5762 C   0  0  0  0  0  0  0  0  0  0  0  0
  -21.6879  -19.6361   22.5657 C   0  0  0  0  0  0  0  0  0  0  0  0
  -29.7713  -17.6035   21.3844 C   0  0  0  0  0  0  0  0  0  1  0  0
  -21.4709  -15.8236   19.3638 C   0  0  1  0  0  0  0  0  0  0  0  0
  -20.1410  -19.1231   20.6730 C   0  0  2  0  0  0  0  0  0  0  0  0
  -30.3718  -18.8573   20.7521 C   0  0  2  0  0  0  0  0  0  0  0  0
  -20.8022  -15.1234   18.1473 C   0  0  0  0  0  0  0  0  0  0  0  0
  -28.6083  -23.3293   19.7446 N   0  0  0  0  0  0  0  0  0  0  0  0
  -23.0014  -27.2870   20.8815 N   0  0  0  0  0  0  0  0  0  0  0  0
  -23.9226  -26.6751   20.1179 N   0  0  0  0  0  0  0  0  0  0  0  0
  -23.1114  -14.7369   20.8644 N   0  0  0  0  0  0  0  0  0  0  0  0
  -27.5061  -27.9768   20.2524 N   0  0  0  0  0  0  0  0  0  0  0  0
  -24.4192  -24.6294   19.0321 N   0  0  0  0  0  0  0  0  0  0  0  0
  -20.4276  -23.8290   20.9872 N   0  0  0  0  0  0  0  0  0  0  0  0
  -29.3132  -19.7944   20.4335 N   0  0  0  0  0  0  0  0  0  0  0  0
  -28.8407  -26.0401   19.9833 N   0  0  0  0  0  0  0  0  0  0  0  0
  -23.6459  -11.2779   21.5568 N   0  0  0  0  0  0  0  0  0  0  0  0
  -20.6766  -16.9009   19.9441 N   0  0  0  0  0  0  0  0  0  0  0  0
  -20.8314  -20.1714   21.4763 N   0  3  0  0  0  0  0  0  0  0  0  0
  -22.0892  -22.9092   19.7019 O   0  0  0  0  0  0  0  0  0  0  0  0
  -31.0234  -25.7573   19.2170 O   0  0  0  0  0  0  0  0  0  0  0  0
  -24.5023  -12.6924   19.9173 O   0  0  0  0  0  0  0  0  0  0  0  0
  -20.8365  -14.2515   21.0229 O   0  0  0  0  0  0  0  0  0  0  0  0
  -22.2636  -18.5678   19.6614 O   0  0  0  0  0  0  0  0  0  0  0  0
  -29.6934  -28.1259   19.4932 O   0  0  0  0  0  0  0  0  0  0  0  0
  -17.4885  -27.4234   24.0656 O   0  0  0  0  0  0  0  0  0  0  0  0
  -28.8372  -17.0013   20.4893 O   0  0  0  0  0  0  0  0  0  1  0  0
  -14.9310  -32.2340   23.2164 F   0  0  0  0  0  0  0  0  0  0  0  0
  -14.8586  -27.5011   23.2169 F   0  0  0  0  0  0  0  0  0  0  0  0
  1  2  1  0  0  0  0
  1  5  2  0  0  0  0
  2  6  2  0  0  0  0
  3  8  2  0  0  0  0
  3 17  1  0  0  0  0
  4  9  1  0  0  0  0
  4 17  2  0  0  0  0
  5 19  1  0  0  0  0
  6 21  1  0  0  0  0
  7 10  2  0  0  0  0
  7 20  1  0  0  0  0
  8 25  1  0  0  0  0
  9 25  2  0  0  0  0
 10 26  1  0  0  0  0
 11 12  2  0  0  0  0
 11 27  1  0  0  0  0
 12 28  1  0  0  0  0
 13 22  1  0  0  0  0
 13 26  2  0  0  0  0
 14 23  1  0  0  0  0
 14 24  2  0  0  0  0
 15 28  2  0  0  0  0
 15 29  1  0  0  0  0
 16 24  1  0  0  0  0
 16 63  2  0  0  0  0
 17 30  1  0  0  0  0
 18 30  1  0  0  0  0
 18 32  2  0  0  0  0
 18 33  1  0  0  0  0
 19 21  2  0  0  0  0
 19 39  1  0  0  0  0
 20 22  2  0  0  0  0
 20 40  1  0  0  0  0
 21 48  1  0  0  0  0
 22 41  1  0  0  0  0
 23 31  2  0  0  0  0
 23 51  1  0  0  0  0
 24 70  1  0  0  0  0
 25 81  1  0  0  0  0
 26 82  1  0  0  0  0
 27 29  2  0  0  0  0
 27 81  1  0  0  0  0
 28 83  1  0  0  0  0
 29 84  1  0  0  0  0
 30 64  2  0  0  0  0
 31 34  1  0  0  0  0
 31 63  1  0  0  0  0
 32 65  1  0  0  0  0
 32 68  1  0  0  0  0
 33 69  1  0  0  0  0
 33 75  2  0  0  0  0
 34 71  1  0  0  0  0
 34 76  2  0  0  0  0
 35 49  1  0  0  0  0
 35 72  1  0  0  0  0
 35 77  2  0  0  0  0
 36 59  1  0  0  0  0
 36 66  1  0  0  0  0
 36 78  2  0  0  0  0
 37 60  1  0  0  0  0
 37 73  1  0  0  0  0
 37 79  2  0  0  0  0
 38 67  1  0  0  0  0
 38 71  1  0  0  0  0
 38 80  2  0  0  0  0
 39 42  1  0  0  0  0
 40 49  1  0  0  0  0
 41 66  1  0  0  0  0
 42 44  1  0  0  0  0
 43 45  1  0  0  0  0
 43 46  1  0  0  0  0
 44 48  1  0  0  0  0
 45 50  1  0  0  0  0
 46 67  1  0  0  0  0
 47 50  1  0  0  0  0
 47 67  1  0  0  0  0
 48 72  1  0  0  0  0
 49 66  1  0  0  0  0
 50 65  1  0  0  0  0
 52 60  1  0  0  0  0
 53 61  1  0  0  0  0
 54 62  1  0  0  0  0
 55 62  1  0  0  0  0
 56 62  1  0  0  0  0
 57 74  1  0  0  0  0
 58 61  1  0  0  0  0
 58 82  1  0  0  0  0
 59 62  1  0  0  0  0
 59 73  1  0  0  0  0
 60 74  1  0  0  0  0
 61 70  1  0  0  0  0
 64 65  1  0  0  0  0
M  CHG  1  74   1
M  ISO  4  38 100  58 101  71 100  82 101
M  END
> <Batch ID>
0195

> <Smiles>
CNC(C)C(=O)NC(C(=O)N1Cc2cc([101O:1][101CH2:1]C(C)Nc3cnc(C(=O)[100NH:0][100C:0](=O)N4CCCC(n5nc(-c6ccc(Oc7ccc(F)cc7F)cc6)c(C(N)=O)c5N)C4)c(C)c3)ccc2CC1C(=O)NC1CCCc2ccccc21)C(C)(C)C

> <Shape>
0.271

> <Color>
0.067

> <Negative vol penalty>
0.000

$$$$

  -OEChem-04052305363D

 85 93  0     1  0  0  0  0  0999 V2000
  -29.2055  -31.6182   27.7292 C   0  0  0  0  0  0  0  0  0  0  0  0
  -28.6202  -30.7040   26.8591 C   0  0  0  0  0  0  0  0  0  0  0  0
  -24.6885   -9.6036   21.8168 C   0  0  0  0  0  0  0  0  0  0  0  0
  -24.2747  -11.1051   23.6638 C   0  0  0  0  0  0  0  0  0  0  0  0
  -28.5568  -32.8182   28.0174 C   0  0  0  0  0  0  0  0  0  0  0  0
  -27.3853  -30.9888   26.2776 C   0  0  0  0  0  0  0  0  0  0  0  0
  -27.2725  -29.9107   21.3309 C   0  0  0  0  0  0  0  0  0  0  0  0
  -24.3519   -8.5174   22.6245 C   0  0  0  0  0  0  0  0  0  0  0  0
  -23.9380  -10.0189   24.4714 C   0  0  0  0  0  0  0  0  0  0  0  0
  -27.1232  -28.5712   20.9744 C   0  0  0  0  0  0  0  0  0  0  0  0
  -23.2532   -5.3803   24.0965 C   0  0  0  0  0  0  0  0  0  0  0  0
  -22.4134   -4.4063   23.5564 C   0  0  0  0  0  0  0  0  0  0  0  0
  -24.7751  -28.9469   20.5689 C   0  0  0  0  0  0  0  0  0  0  0  0
  -20.6921   -6.0704   23.2320 C   0  0  0  0  0  0  0  0  0  0  0  0
  -26.3004  -20.0079   19.9531 C   0  0  0  0  0  0  0  0  0  0  0  0
  -24.6501  -10.8975   22.3365 C   0  0  0  0  0  0  0  0  0  0  0  0
  -24.1321  -12.7782   20.6926 C   0  0  0  0  0  0  0  0  0  0  0  0
  -27.3179  -33.1222   27.4316 C   0  0  0  0  0  0  0  0  0  0  0  0
  -26.1700  -30.7774   21.3195 C   0  0  0  0  0  0  0  0  0  0  0  0
  -26.7188  -32.1934   26.5593 C   0  0  0  0  0  0  0  0  0  0  0  0
  -24.9135  -30.2976   20.9232 C   0  0  0  0  0  0  0  0  0  0  0  0
  -23.9765   -8.7250   23.9517 C   0  0  0  0  0  0  0  0  0  0  0  0
  -25.8739  -28.0884   20.5961 C   0  0  0  0  0  0  0  0  0  0  0  0
  -22.8124   -6.6993   24.2044 C   0  0  0  0  0  0  0  0  0  0  0  0
  -21.1328   -4.7514   23.1242 C   0  0  0  0  0  0  0  0  0  0  0  0
  -21.5319   -7.0444   23.7721 C   0  0  0  0  0  0  0  0  0  0  0  0
  -24.9983  -12.0200   21.5029 C   0  0  0  0  0  0  0  0  0  0  0  0
  -27.0685  -22.0348   19.2245 C   0  0  0  0  0  0  0  0  0  0  0  0
  -27.5887  -19.5202   19.9550 C   0  0  0  0  0  0  0  0  0  0  0  0
  -28.3570  -21.5475   19.2271 C   0  0  0  0  0  0  0  0  0  0  0  0
  -24.9440  -13.7203   20.1097 C   0  0  0  0  0  0  0  0  0  0  0  0
  -26.5273  -23.5618   17.3240 C   0  0  0  0  0  0  0  0  0  0  0  0
  -22.7198  -12.6431   20.4854 C   0  0  0  0  0  0  0  0  0  0  0  0
  -24.6453  -32.4962   23.5159 C   0  0  0  0  0  0  0  0  0  0  0  0
  -23.0166  -33.6187   20.9450 C   0  0  0  0  0  0  0  0  0  0  0  0
  -21.9696  -33.1205   17.7353 C   0  0  0  0  0  0  0  0  0  0  0  0
  -29.0205  -17.5003   20.4198 C   0  0  0  0  0  0  0  0  0  0  0  0
  -26.6325  -34.4112   27.8103 C   0  0  0  0  0  0  0  0  0  0  0  0
  -26.3530  -32.2259   21.6811 C   0  0  0  0  0  0  0  0  0  0  0  0
  -23.7025  -31.1917   20.8748 C   0  0  0  0  0  0  0  0  0  0  0  0
  -25.5027  -34.8021   26.8610 C   0  0  0  0  0  0  0  0  0  0  0  0
  -29.9901  -14.1012   19.9921 C   0  0  0  0  0  0  0  0  0  0  0  0
  -24.6062  -33.6015   26.5752 C   0  0  0  0  0  0  0  0  0  0  0  0
  -28.7066  -13.3191   20.2804 C   0  0  0  0  0  0  0  0  0  0  0  0
  -30.1235  -15.3252   20.8964 C   0  0  0  0  0  0  0  0  0  0  0  0
  -27.6799  -15.4434   21.1861 C   0  0  0  0  0  0  0  0  0  0  0  0
  -25.3918  -32.4772   25.8894 C   0  0  1  0  0  0  0  0  0  0  0  0
  -25.0586  -32.8981   22.1284 C   0  0  1  0  0  0  0  0  0  0  0  0
  -27.4692  -14.2378   20.2556 C   0  0  2  0  0  0  0  0  0  0  0  0
  -20.6219  -34.1979   15.9132 C   0  0  0  0  0  0  0  0  0  0  0  0
  -24.6538  -24.4939   21.7571 C   0  0  0  0  0  0  0  0  0  0  0  0
  -20.4449  -32.8489   22.3954 C   0  0  0  0  0  0  0  0  0  0  0  0
  -19.2359  -33.0494   20.2122 C   0  0  0  0  0  0  0  0  0  0  0  0
  -20.3535  -35.0464   21.2050 C   0  0  0  0  0  0  0  0  0  0  0  0
  -24.3009  -33.2279   15.9152 C   0  0  0  0  0  0  0  0  0  0  0  0
  -26.5996  -25.8402   20.8702 C   0  0  0  0  0  0  0  0  0  1  0  0
  -26.7555  -23.4536   18.8146 C   0  0  1  0  0  0  0  0  0  0  0  0
  -21.7672  -33.2035   20.2064 C   0  0  1  0  0  0  0  0  0  0  0  0
  -22.0082  -34.0189   16.5122 C   0  0  2  0  0  0  0  0  0  0  0  0
  -25.9392  -24.4682   20.9460 C   0  0  2  0  0  0  0  0  0  0  0  0
  -20.4726  -33.5195   21.0074 C   0  0  0  0  0  0  0  0  0  0  0  0
  -26.0171  -21.2739   19.5878 N   0  0  0  0  0  0  0  0  0  0  0  0
  -26.2636  -12.4436   21.4426 N   0  0  0  0  0  0  0  0  0  0  0  0
  -28.6401  -20.2814   19.5920 N   0  0  0  0  0  0  0  0  0  0  0  0
  -26.1983  -13.4783   20.5874 N   0  0  0  0  0  0  0  0  0  0  0  0
  -23.9311  -32.5986   21.2434 N   0  0  0  0  0  0  0  0  0  0  0  0
  -28.9164  -16.1508   20.8181 N   0  0  0  0  0  0  0  0  0  0  0  0
  -29.4174  -22.3956   18.8367 N   0  0  0  0  0  0  0  0  0  0  0  0
  -24.7002  -14.7237   19.2402 N   0  0  0  0  0  0  0  0  0  0  0  0
  -22.0399  -11.6216   21.1626 N   0  0  0  0  0  0  0  0  0  0  0  0
  -27.8030  -18.1766   20.3505 N   0  0  0  0  0  0  0  0  0  0  0  0
  -25.5864  -32.7790   24.4874 N   0  0  0  0  0  0  0  0  0  0  0  0
  -21.8329  -33.8474   18.8989 N   0  0  0  0  0  0  0  0  0  0  0  0
  -22.8992  -33.4363   15.4694 N   0  3  0  0  0  0  0  0  0  0  0  0
  -25.6063  -24.0260   19.5608 N   0  3  0  0  0  0  0  0  0  0  0  0
  -25.4833  -23.9466   16.8065 O   0  0  0  0  0  0  0  0  0  0  0  0
  -22.0826  -13.3953   19.7098 O   0  0  0  0  0  0  0  0  0  0  0  0
  -23.5528  -31.9699   23.6923 O   0  0  0  0  0  0  0  0  0  0  0  0
  -23.1786  -34.8055   21.2398 O   0  0  0  0  0  0  0  0  0  0  0  0
  -22.0489  -31.8960   17.6650 O   0  0  0  0  0  0  0  0  0  0  0  0
  -30.1066  -18.0104   20.1330 O   0  0  0  0  0  0  0  0  0  0  0  0
  -23.6477   -7.6653   24.7401 O   0  0  0  0  0  0  0  0  0  0  0  0
  -25.7254  -26.7812   20.2483 O   0  0  0  0  0  0  0  0  0  1  0  0
  -20.3270   -3.8162   22.6041 F   0  0  0  0  0  0  0  0  0  0  0  0
  -21.1034   -8.3101   23.8722 F   0  0  0  0  0  0  0  0  0  0  0  0
  1  2  1  0  0  0  0
  1  5  2  0  0  0  0
  2  6  2  0  0  0  0
  3  8  2  0  0  0  0
  3 16  1  0  0  0  0
  4  9  1  0  0  0  0
  4 16  2  0  0  0  0
  5 18  1  0  0  0  0
  6 20  1  0  0  0  0
  7 10  2  0  0  0  0
  7 19  1  0  0  0  0
  8 22  1  0  0  0  0
  9 22  2  0  0  0  0
 10 23  1  0  0  0  0
 11 12  2  0  0  0  0
 11 24  1  0  0  0  0
 12 25  1  0  0  0  0
 13 21  1  0  0  0  0
 13 23  2  0  0  0  0
 14 25  2  0  0  0  0
 14 26  1  0  0  0  0
 15 29  1  0  0  0  0
 15 62  2  0  0  0  0
 16 27  1  0  0  0  0
 17 27  1  0  0  0  0
 17 31  2  0  0  0  0
 17 33  1  0  0  0  0
 18 20  2  0  0  0  0
 18 38  1  0  0  0  0
 19 21  2  0  0  0  0
 19 39  1  0  0  0  0
 20 47  1  0  0  0  0
 21 40  1  0  0  0  0
 22 82  1  0  0  0  0
 23 83  1  0  0  0  0
 24 26  2  0  0  0  0
 24 82  1  0  0  0  0
 25 84  1  0  0  0  0
 26 85  1  0  0  0  0
 27 63  2  0  0  0  0
 28 30  2  0  0  0  0
 28 57  1  0  0  0  0
 28 62  1  0  0  0  0
 29 64  2  0  0  0  0
 29 71  1  0  0  0  0
 30 64  1  0  0  0  0
 30 68  1  0  0  0  0
 31 65  1  0  0  0  0
 31 69  1  0  0  0  0
 32 57  1  0  0  0  0
 32 76  2  0  0  0  0
 33 70  1  0  0  0  0
 33 77  2  0  0  0  0
 34 48  1  0  0  0  0
 34 72  1  0  0  0  0
 34 78  2  0  0  0  0
 35 58  1  0  0  0  0
 35 66  1  0  0  0  0
 35 79  2  0  0  0  0
 36 59  1  0  0  0  0
 36 73  1  0  0  0  0
 36 80  2  0  0  0  0
 37 67  1  0  0  0  0
 37 71  1  0  0  0  0
 37 81  2  0  0  0  0
 38 41  1  0  0  0  0
 39 48  1  0  0  0  0
 40 66  1  0  0  0  0
 41 43  1  0  0  0  0
 42 44  1  0  0  0  0
 42 45  1  0  0  0  0
 43 47  1  0  0  0  0
 44 49  1  0  0  0  0
 45 67  1  0  0  0  0
 46 49  1  0  0  0  0
 46 67  1  0  0  0  0
 47 72  1  0  0  0  0
 48 66  1  0  0  0  0
 49 65  1  0  0  0  0
 50 59  1  0  0  0  0
 51 60  1  0  0  0  0
 52 61  1  0  0  0  0
 53 61  1  0  0  0  0
 54 61  1  0  0  0  0
 55 74  1  0  0  0  0
 56 60  1  0  0  0  0
 56 83  1  0  0  0  0
 57 75  1  0  0  0  0
 58 61  1  0  0  0  0
 58 73  1  0  0  0  0
 59 74  1  0  0  0  0
 60 75  1  0  0  0  0
 63 65  1  0  0  0  0
M  CHG  2  74   1  75   1
M  ISO  4  37 100  56 101  71 100  83 101
M  END
> <Batch ID>
0195

> <Smiles>
CNC(C)C(=O)NC(C(=O)N1Cc2cc([101O:1][101CH2:1]C(C)NC(C=O)c3ncc([100NH:0][100C:0](=O)N4CCCC(n5nc(-c6ccc(Oc7ccc(F)cc7F)cc6)c(C(N)=O)c5N)C4)nc3N)ccc2CC1C(=O)NC1CCCc2ccccc21)C(C)(C)C

> <Shape>
0.261

> <Color>
0.104

> <Negative vol penalty>
0.000

$$$$

  -OEChem-04052305363D

 83 91  0     1  0  0  0  0  0999 V2000
  -23.8866  -35.9572   14.9328 C   0  0  0  0  0  0  0  0  0  0  0  0
  -24.4642  -34.7015   15.0911 C   0  0  0  0  0  0  0  0  0  0  0  0
  -23.2133  -10.2135   21.5934 C   0  0  0  0  0  0  0  0  0  0  0  0
  -24.6403   -8.3657   20.9715 C   0  0  0  0  0  0  0  0  0  0  0  0
  -23.9246  -36.8776   15.9794 C   0  0  0  0  0  0  0  0  0  0  0  0
  -25.0812  -34.3659   16.2957 C   0  0  0  0  0  0  0  0  0  0  0  0
  -25.2073  -28.8512   18.9563 C   0  0  0  0  0  0  0  0  0  0  0  0
  -22.1600   -9.3260   21.8135 C   0  0  0  0  0  0  0  0  0  0  0  0
  -23.5869   -7.4782   21.1916 C   0  0  0  0  0  0  0  0  0  0  0  0
  -26.1689  -27.8420   18.9778 C   0  0  0  0  0  0  0  0  0  0  0  0
  -22.0816   -6.0084   23.8363 C   0  0  0  0  0  0  0  0  0  0  0  0
  -22.3579   -4.8406   24.5473 C   0  0  0  0  0  0  0  0  0  0  0  0
  -26.9895  -28.6771   21.0869 C   0  0  0  0  0  0  0  0  0  0  0  0
  -21.6557   -3.5195   22.6503 C   0  0  0  0  0  0  0  0  0  0  0  0
  -27.8867  -20.3217   18.7476 C   0  0  0  0  0  0  0  0  0  0  0  0
  -29.2642  -18.4641   20.0814 C   0  0  0  0  0  0  0  0  0  0  0  0
  -24.4535   -9.7333   21.1724 C   0  0  0  0  0  0  0  0  0  0  0  0
  -26.5033  -11.0772   21.8796 C   0  0  0  0  0  0  0  0  0  0  0  0
  -24.5339  -36.5496   17.2008 C   0  0  0  0  0  0  0  0  0  0  0  0
  -25.1365  -29.7892   19.9963 C   0  0  0  0  0  0  0  0  0  0  0  0
  -25.1286  -35.2833   17.3591 C   0  0  0  0  0  0  0  0  0  0  0  0
  -26.0244  -29.6958   21.0775 C   0  0  0  0  0  0  0  0  0  0  0  0
  -22.3468   -7.9584   21.6126 C   0  0  0  0  0  0  0  0  0  0  0  0
  -27.0621  -27.7565   20.0418 C   0  0  0  0  0  0  0  0  0  0  0  0
  -21.5923   -5.9318   22.5323 C   0  0  0  0  0  0  0  0  0  0  0  0
  -22.1450   -3.5962   23.9543 C   0  0  0  0  0  0  0  0  0  0  0  0
  -21.3793   -4.6873   21.9393 C   0  0  0  0  0  0  0  0  0  0  0  0
  -25.5418  -10.6497   20.9444 C   0  0  0  0  0  0  0  0  0  0  0  0
  -28.6999  -20.6630   19.8058 C   0  0  0  0  0  0  0  0  0  0  0  0
  -28.4505  -18.1227   19.0237 C   0  0  0  0  0  0  0  0  0  0  0  0
  -27.3100  -11.9364   21.1743 C   0  0  0  0  0  0  0  0  0  0  0  0
  -26.6538  -10.7286   23.2622 C   0  0  0  0  0  0  0  0  0  0  0  0
  -25.4707  -32.9437   20.1985 C   0  0  0  0  0  0  0  0  0  0  0  0
  -24.5316  -32.4554   23.2648 C   0  0  0  0  0  0  0  0  0  0  0  0
  -24.2704  -30.3132   25.9086 C   0  0  0  0  0  0  0  0  0  0  0  0
  -27.5397  -16.3159   17.5741 C   0  0  0  0  0  0  0  0  0  0  0  0
  -24.5918  -37.5946   18.2868 C   0  0  0  0  0  0  0  0  0  0  0  0
  -24.0762  -30.8557   19.9713 C   0  0  0  0  0  0  0  0  0  0  0  0
  -25.9770  -30.6658   22.2286 C   0  0  0  0  0  0  0  0  0  0  0  0
  -24.9357  -37.0262   19.6612 C   0  0  0  0  0  0  0  0  0  0  0  0
  -27.6081  -12.8834   16.2238 C   0  0  0  0  0  0  0  0  0  0  0  0
  -26.1180  -36.0675   19.5618 C   0  0  0  0  0  0  0  0  0  0  0  0
  -27.0915  -12.0471   17.3933 C   0  0  0  0  0  0  0  0  0  0  0  0
  -27.0282  -14.2947   16.2363 C   0  0  0  0  0  0  0  0  0  0  0  0
  -26.7265  -14.1842   18.6913 C   0  0  0  0  0  0  0  0  0  0  0  0
  -25.7853  -34.8731   18.6593 C   0  0  1  0  0  0  0  0  0  0  0  0
  -24.4267  -32.0669   20.8301 C   0  0  1  0  0  0  0  0  0  0  0  0
  -27.3260  -12.7704   18.7308 C   0  0  1  0  0  0  0  0  0  0  0  0
  -23.4948  -30.2124   28.2931 C   0  0  0  0  0  0  0  0  0  0  0  0
  -27.0330  -33.9678   24.1399 C   0  0  0  0  0  0  0  0  0  0  0  0
  -26.7126  -33.0278   26.4382 C   0  0  0  0  0  0  0  0  0  0  0  0
  -24.9723  -34.5150   25.4470 C   0  0  0  0  0  0  0  0  0  0  0  0
  -29.3044  -15.7814   19.2384 C   0  0  0  0  0  0  0  0  0  0  0  0
  -22.2614  -28.2303   25.2887 C   0  0  0  0  0  0  0  0  0  0  0  0
  -28.0707  -23.0566   19.4891 C   0  0  0  0  0  0  0  0  0  0  0  0
  -27.6697  -25.5417   19.4245 C   0  0  0  0  0  0  0  0  0  1  0  0
  -25.2389  -32.1605   24.5655 C   0  0  1  0  0  0  0  0  0  0  0  0
  -23.1122  -29.9958   26.8372 C   0  0  2  0  0  0  0  0  0  0  0  0
  -28.4140  -24.4057   20.1178 C   0  0  1  0  0  0  0  0  0  0  0  0
  -25.9916  -33.4005   25.1251 C   0  0  0  0  0  0  0  0  0  0  0  0
  -29.4035  -19.7404   20.4915 N   0  0  0  0  0  0  0  0  0  0  0  0
  -27.7471  -19.0453   18.3378 N   0  0  0  0  0  0  0  0  0  0  0  0
  -25.7197  -11.1927   19.7371 N   0  0  0  0  0  0  0  0  0  0  0  0
  -26.8022  -11.9703   19.9090 N   0  0  0  0  0  0  0  0  0  0  0  0
  -24.9265  -31.6946   22.1552 N   0  0  0  0  0  0  0  0  0  0  0  0
  -27.2244  -14.9429   17.5336 N   0  0  0  0  0  0  0  0  0  0  0  0
  -28.3970  -12.6588   21.5194 N   0  0  0  0  0  0  0  0  0  0  0  0
  -25.7379   -9.8316   23.8287 N   0  0  0  0  0  0  0  0  0  0  0  0
  -28.7869  -21.9976   20.1642 N   0  0  0  0  0  0  0  0  0  0  0  0
  -24.9570  -33.9203   19.3668 N   0  0  0  0  0  0  0  0  0  0  0  0
  -24.2275  -31.6186   25.4664 N   0  0  0  0  0  0  0  0  0  0  0  0
  -28.3557  -16.7316   18.6484 N   0  0  0  0  0  0  0  0  0  0  0  0
  -22.6872  -28.5773   26.6690 N   0  3  0  0  0  0  0  0  0  0  0  0
  -27.5634  -11.2114   23.9785 O   0  0  0  0  0  0  0  0  0  0  0  0
  -26.6545  -32.7496   20.4485 O   0  0  0  0  0  0  0  0  0  0  0  0
  -23.6559  -33.3236   23.2360 O   0  0  0  0  0  0  0  0  0  0  0  0
  -25.1295  -29.4871   25.6087 O   0  0  0  0  0  0  0  0  0  0  0  0
  -27.1477  -17.1013   16.7028 O   0  0  0  0  0  0  0  0  0  0  0  0
  -28.0138  -24.3972   21.4897 O   0  0  0  0  0  0  0  0  0  0  0  0
  -21.3192   -7.0920   21.8274 O   0  0  0  0  0  0  0  0  0  0  0  0
  -28.0021  -26.7728   20.0650 O   0  0  0  0  0  0  0  0  0  1  0  0
  -22.4118   -2.4748   24.6366 F   0  0  0  0  0  0  0  0  0  0  0  0
  -20.9105   -4.6074   20.6864 F   0  0  0  0  0  0  0  0  0  0  0  0
  1  2  1  0  0  0  0
  1  5  2  0  0  0  0
  2  6  2  0  0  0  0
  3  8  2  0  0  0  0
  3 17  1  0  0  0  0
  4  9  1  0  0  0  0
  4 17  2  0  0  0  0
  5 19  1  0  0  0  0
  6 21  1  0  0  0  0
  7 10  2  0  0  0  0
  7 20  1  0  0  0  0
  8 23  1  0  0  0  0
  9 23  2  0  0  0  0
 10 24  1  0  0  0  0
 11 12  2  0  0  0  0
 11 25  1  0  0  0  0
 12 26  1  0  0  0  0
 13 22  1  0  0  0  0
 13 24  2  0  0  0  0
 14 26  2  0  0  0  0
 14 27  1  0  0  0  0
 15 29  1  0  0  0  0
 15 62  2  0  0  0  0
 16 30  2  0  0  0  0
 16 61  1  0  0  0  0
 17 28  1  0  0  0  0
 18 28  1  0  0  0  0
 18 31  2  0  0  0  0
 18 32  1  0  0  0  0
 19 21  2  0  0  0  0
 19 37  1  0  0  0  0
 20 22  2  0  0  0  0
 20 38  1  0  0  0  0
 21 46  1  0  0  0  0
 22 39  1  0  0  0  0
 23 80  1  0  0  0  0
 24 81  1  0  0  0  0
 25 27  2  0  0  0  0
 25 80  1  0  0  0  0
 26 82  1  0  0  0  0
 27 83  1  0  0  0  0
 28 63  2  0  0  0  0
 29 61  2  0  0  0  0
 29 69  1  0  0  0  0
 30 62  1  0  0  0  0
 30 72  1  0  0  0  0
 31 64  1  0  0  0  0
 31 67  1  0  0  0  0
 32 68  1  0  0  0  0
 32 74  2  0  0  0  0
 33 47  1  0  0  0  0
 33 70  1  0  0  0  0
 33 75  2  0  0  0  0
 34 57  1  0  0  0  0
 34 65  1  0  0  0  0
 34 76  2  0  0  0  0
 35 58  1  0  0  0  0
 35 71  1  0  0  0  0
 35 77  2  0  0  0  0
 36 66  1  0  0  0  0
 36 72  1  0  0  0  0
 36 78  2  0  0  0  0
 37 40  1  0  0  0  0
 38 47  1  0  0  0  0
 39 65  1  0  0  0  0
 40 42  1  0  0  0  0
 41 43  1  0  0  0  0
 41 44  1  0  0  0  0
 42 46  1  0  0  0  0
 43 48  1  0  0  0  0
 44 66  1  0  0  0  0
 45 48  1  0  0  0  0
 45 66  1  0  0  0  0
 46 70  1  0  0  0  0
 47 65  1  0  0  0  0
 48 64  1  0  0  0  0
 49 58  1  0  0  0  0
 50 60  1  0  0  0  0
 51 60  1  0  0  0  0
 52 60  1  0  0  0  0
 53 72  1  0  0  0  0
 54 73  1  0  0  0  0
 55 59  1  0  0  0  0
 55 69  1  0  0  0  0
 56 59  1  0  0  0  0
 56 81  1  0  0  0  0
 57 60  1  0  0  0  0
 57 71  1  0  0  0  0
 58 73  1  0  0  0  0
 59 79  1  0  0  0  0
 63 64  1  0  0  0  0
M  CHG  1  73   1
M  ISO  4  36 100  56 101  72 100  81 101
M  END
> <Batch ID>
0195

> <Smiles>
CNC(C)C(=O)NC(C(=O)N1Cc2cc([101O:1][101CH2:1]C(O)CNc3cnc([100N:0](C)[100C:0](=O)N4CCCC(n5nc(-c6ccc(Oc7ccc(F)cc7F)cc6)c(C(N)=O)c5N)C4)cn3)ccc2CC1C(=O)NC1CCCc2ccccc21)C(C)(C)C

> <Shape>
0.274

> <Color>
0.104

> <Negative vol penalty>
0.000

$$$$

  -OEChem-04052305363D

 82 90  0     1  0  0  0  0  0999 V2000
  -22.0629  -12.2043   18.8071 C   0  0  0  0  0  0  0  0  0  0  0  0
  -21.8937  -13.5253   19.2093 C   0  0  0  0  0  0  0  0  0  0  0  0
  -29.5148  -26.9552   20.5391 C   0  0  0  0  0  0  0  0  0  0  0  0
  -29.3139  -28.0933   18.4174 C   0  0  0  0  0  0  0  0  0  0  0  0
  -23.2350  -11.5226   19.1317 C   0  0  0  0  0  0  0  0  0  0  0  0
  -22.8962  -14.1650   19.9375 C   0  0  0  0  0  0  0  0  0  0  0  0
  -23.8289  -18.8503   18.2574 C   0  0  0  0  0  0  0  0  0  0  0  0
  -30.9018  -26.9290   20.3937 C   0  0  0  0  0  0  0  0  0  0  0  0
  -30.7009  -28.0670   18.2720 C   0  0  0  0  0  0  0  0  0  0  0  0
  -22.9311  -19.8503   18.6286 C   0  0  0  0  0  0  0  0  0  0  0  0
  -33.3602  -29.7874   19.4505 C   0  0  0  0  0  0  0  0  0  0  0  0
  -33.9879  -30.9579   19.0245 C   0  0  0  0  0  0  0  0  0  0  0  0
  -24.4526  -20.5659   20.3583 C   0  0  0  0  0  0  0  0  0  0  0  0
  -34.8404  -29.7952   17.0858 C   0  0  0  0  0  0  0  0  0  0  0  0
  -19.2381  -26.2947   22.7831 C   0  0  0  0  0  0  0  0  0  0  0  0
  -20.4915  -26.1882   20.4283 C   0  0  0  0  0  0  0  0  0  0  0  0
  -28.7208  -27.5373   19.5509 C   0  0  0  0  0  0  0  0  0  0  0  0
  -26.4256  -26.4588   19.8272 C   0  0  0  0  0  0  0  0  0  0  0  0
  -24.2564  -12.1573   19.8559 C   0  0  0  0  0  0  0  0  0  0  0  0
  -25.0425  -18.6934   18.9421 C   0  0  0  0  0  0  0  0  0  0  0  0
  -24.0825  -13.4907   20.2733 C   0  0  0  0  0  0  0  0  0  0  0  0
  -25.3652  -19.5648   19.9922 C   0  0  0  0  0  0  0  0  0  0  0  0
  -31.4949  -27.4849   19.2602 C   0  0  0  0  0  0  0  0  0  0  0  0
  -23.2416  -20.7065   19.6810 C   0  0  0  0  0  0  0  0  0  0  0  0
  -33.4727  -28.6207   18.6942 C   0  0  0  0  0  0  0  0  0  0  0  0
  -34.7280  -30.9618   17.8422 C   0  0  0  0  0  0  0  0  0  0  0  0
  -34.2128  -28.6247   17.5119 C   0  0  0  0  0  0  0  0  0  0  0  0
  -27.2880  -27.5642   19.7003 C   0  0  0  0  0  0  0  0  0  0  0  0
  -19.5302  -27.4432   22.0808 C   0  0  0  0  0  0  0  0  0  0  0  0
  -20.2001  -25.0398   21.1309 C   0  0  0  0  0  0  0  0  0  0  0  0
  -25.1733  -27.0115   19.9404 C   0  0  0  0  0  0  0  0  0  0  0  0
  -26.7294  -25.0577   19.8417 C   0  0  0  0  0  0  0  0  0  0  0  0
  -26.3582  -16.3743   20.6725 C   0  0  0  0  0  0  0  0  0  0  0  0
  -28.9315  -18.3490   20.6494 C   0  0  0  0  0  0  0  0  0  0  0  0
  -30.1449  -21.5232   20.3344 C   0  0  0  0  0  0  0  0  0  0  0  0
  -21.7128  -30.8244   22.0928 C   0  0  0  0  0  0  0  0  0  0  0  0
  -25.4856  -11.3648   20.2241 C   0  0  0  0  0  0  0  0  0  0  0  0
  -26.0120  -17.6268   18.5121 C   0  0  0  0  0  0  0  0  0  0  0  0
  -26.6641  -19.4512   20.7463 C   0  0  0  0  0  0  0  0  0  0  0  0
  -26.6575  -12.2327   20.6753 C   0  0  0  0  0  0  0  0  0  0  0  0
  -23.5940  -31.7625   19.2192 C   0  0  0  0  0  0  0  0  0  0  0  0
  -26.1887  -13.2844   21.6758 C   0  0  0  0  0  0  0  0  0  0  0  0
  -24.6548  -30.6666   19.1026 C   0  0  0  0  0  0  0  0  0  0  0  0
  -23.2926  -32.1034   20.6769 C   0  0  0  0  0  0  0  0  0  0  0  0
  -23.9886  -29.8537   21.4035 C   0  0  0  0  0  0  0  0  0  0  0  0
  -25.1575  -14.2267   21.0432 C   0  0  1  0  0  0  0  0  0  0  0  0
  -26.9914  -17.2307   19.6127 C   0  0  1  0  0  0  0  0  0  0  0  0
  -24.2858  -29.4362   19.9531 C   0  0  2  0  0  0  0  0  0  0  0  0
  -32.2869  -22.8289   20.4008 C   0  0  0  0  0  0  0  0  0  0  0  0
  -28.9601  -18.1426   23.6935 C   0  0  0  0  0  0  0  0  0  0  0  0
  -30.4520  -20.1525   23.7462 C   0  0  0  0  0  0  0  0  0  0  0  0
  -31.2180  -18.0620   22.6212 C   0  0  0  0  0  0  0  0  0  0  0  0
  -29.8173  -22.4252   17.5347 C   0  0  0  0  0  0  0  0  0  0  0  0
  -19.1506  -28.7771   22.6224 C   0  0  0  0  0  0  0  0  0  0  0  0
  -20.2331  -29.4163   23.5023 C   0  0  0  0  0  0  0  0  0  0  0  0
  -21.2540  -23.6884   19.3175 C   0  0  0  0  0  0  0  0  0  0  0  0
  -21.5338  -22.2244   19.0215 C   0  0  0  0  0  0  0  0  0  1  0  0
  -29.4255  -19.4717   21.5295 C   0  0  1  0  0  0  0  0  0  0  0  0
  -31.2955  -22.0854   19.5192 C   0  0  2  0  0  0  0  0  0  0  0  0
  -29.9885  -18.9584   22.8849 C   0  0  0  0  0  0  0  0  0  0  0  0
  -20.1618  -27.4106   20.8906 N   0  0  0  0  0  0  0  0  0  0  0  0
  -19.5681  -25.0724   22.3209 N   0  0  0  0  0  0  0  0  0  0  0  0
  -26.6385  -28.7310   19.7298 N   0  0  0  0  0  0  0  0  0  0  0  0
  -25.3546  -28.3618   19.8765 N   0  0  0  0  0  0  0  0  0  0  0  0
  -27.5762  -18.3884   20.2924 N   0  0  0  0  0  0  0  0  0  0  0  0
  -22.9482  -30.8938   21.4279 N   0  0  0  0  0  0  0  0  0  0  0  0
  -23.9458  -26.4693   20.0873 N   0  0  0  0  0  0  0  0  0  0  0  0
  -26.7425  -24.3643   18.6237 N   0  0  0  0  0  0  0  0  0  0  0  0
  -20.5739  -23.8229   20.5853 N   0  0  0  0  0  0  0  0  0  0  0  0
  -25.8139  -15.1976   20.1941 N   0  0  0  0  0  0  0  0  0  0  0  0
  -30.3861  -20.2245   20.7302 N   0  0  0  0  0  0  0  0  0  0  0  0
  -21.4628  -29.6402   22.7754 N   0  0  0  0  0  0  0  0  0  0  0  0
  -30.7851  -23.0301   18.4858 N   0  3  0  0  0  0  0  0  0  0  0  0
  -26.9656  -24.4354   20.9049 O   0  0  0  0  0  0  0  0  0  0  0  0
  -26.3643  -16.7522   21.8382 O   0  0  0  0  0  0  0  0  0  0  0  0
  -29.7207  -17.4734   20.2861 O   0  0  0  0  0  0  0  0  0  0  0  0
  -29.1350  -22.1724   20.5971 O   0  0  0  0  0  0  0  0  0  0  0  0
  -20.8911  -31.7471   22.0746 O   0  0  0  0  0  0  0  0  0  0  0  0
  -32.8483  -27.4597   19.1181 O   0  0  0  0  0  0  0  0  0  0  0  0
  -22.3668  -21.6830   20.0458 O   0  0  0  0  0  0  0  0  0  1  0  0
  -35.3294  -32.0864   17.4324 F   0  0  0  0  0  0  0  0  0  0  0  0
  -34.3234  -27.5072   16.7805 F   0  0  0  0  0  0  0  0  0  0  0  0
  1  2  1  0  0  0  0
  1  5  2  0  0  0  0
  2  6  2  0  0  0  0
  3  8  2  0  0  0  0
  3 17  1  0  0  0  0
  4  9  1  0  0  0  0
  4 17  2  0  0  0  0
  5 19  1  0  0  0  0
  6 21  1  0  0  0  0
  7 10  2  0  0  0  0
  7 20  1  0  0  0  0
  8 23  1  0  0  0  0
  9 23  2  0  0  0  0
 10 24  1  0  0  0  0
 11 12  2  0  0  0  0
 11 25  1  0  0  0  0
 12 26  1  0  0  0  0
 13 22  1  0  0  0  0
 13 24  2  0  0  0  0
 14 26  2  0  0  0  0
 14 27  1  0  0  0  0
 15 29  2  0  0  0  0
 15 62  1  0  0  0  0
 16 30  1  0  0  0  0
 16 61  2  0  0  0  0
 17 28  1  0  0  0  0
 18 28  1  0  0  0  0
 18 31  2  0  0  0  0
 18 32  1  0  0  0  0
 19 21  2  0  0  0  0
 19 37  1  0  0  0  0
 20 22  2  0  0  0  0
 20 38  1  0  0  0  0
 21 46  1  0  0  0  0
 22 39  1  0  0  0  0
 23 79  1  0  0  0  0
 24 80  1  0  0  0  0
 25 27  2  0  0  0  0
 25 79  1  0  0  0  0
 26 81  1  0  0  0  0
 27 82  1  0  0  0  0
 28 63  2  0  0  0  0
 29 54  1  0  0  0  0
 29 61  1  0  0  0  0
 30 62  2  0  0  0  0
 30 69  1  0  0  0  0
 31 64  1  0  0  0  0
 31 67  1  0  0  0  0
 32 68  1  0  0  0  0
 32 74  2  0  0  0  0
 33 47  1  0  0  0  0
 33 70  1  0  0  0  0
 33 75  2  0  0  0  0
 34 58  1  0  0  0  0
 34 65  1  0  0  0  0
 34 76  2  0  0  0  0
 35 59  1  0  0  0  0
 35 71  1  0  0  0  0
 35 77  2  0  0  0  0
 36 66  1  0  0  0  0
 36 72  1  0  0  0  0
 36 78  2  0  0  0  0
 37 40  1  0  0  0  0
 38 47  1  0  0  0  0
 39 65  1  0  0  0  0
 40 42  1  0  0  0  0
 41 43  1  0  0  0  0
 41 44  1  0  0  0  0
 42 46  1  0  0  0  0
 43 48  1  0  0  0  0
 44 66  1  0  0  0  0
 45 48  1  0  0  0  0
 45 66  1  0  0  0  0
 46 70  1  0  0  0  0
 47 65  1  0  0  0  0
 48 64  1  0  0  0  0
 49 59  1  0  0  0  0
 50 60  1  0  0  0  0
 51 60  1  0  0  0  0
 52 60  1  0  0  0  0
 53 73  1  0  0  0  0
 54 55  1  0  0  0  0
 55 72  1  0  0  0  0
 56 57  1  0  0  0  0
 56 69  1  0  0  0  0
 57 80  1  0  0  0  0
 58 60  1  0  0  0  0
 58 71  1  0  0  0  0
 59 73  1  0  0  0  0
 63 64  1  0  0  0  0
M  CHG  1  73   1
M  ISO  4  36 100  57 101  72 100  80 101
M  END
> <Batch ID>
0195

> <Smiles>
CNC(C)C(=O)NC(C(=O)N1Cc2cc([101O:1][101CH2:1]CNc3cnc(CC[100NH:0][100C:0](=O)N4CCCC(n5nc(-c6ccc(Oc7ccc(F)cc7F)cc6)c(C(N)=O)c5N)C4)cn3)ccc2CC1C(=O)NC1CCCc2ccccc21)C(C)(C)C

> <Shape>
0.237

> <Color>
0.076

> <Negative vol penalty>
0.000

$$$$

  -OEChem-04052305363D

 81 89  0     1  0  0  0  0  0999 V2000
  -17.6566  -16.2152   20.5593 C   0  0  0  0  0  0  0  0  0  0  0  0
  -18.9243  -16.7065   20.8538 C   0  0  0  0  0  0  0  0  0  0  0  0
  -23.0724   -9.8702   19.9430 C   0  0  0  0  0  0  0  0  0  0  0  0
  -23.8351   -9.8781   22.2355 C   0  0  0  0  0  0  0  0  0  0  0  0
  -16.7810  -15.8844   21.5927 C   0  0  0  0  0  0  0  0  0  0  0  0
  -19.3169  -16.8683   22.1820 C   0  0  0  0  0  0  0  0  0  0  0  0
  -24.9387  -16.0831   24.4810 C   0  0  0  0  0  0  0  0  0  0  0  0
  -22.3290   -8.7170   20.1943 C   0  0  0  0  0  0  0  0  0  0  0  0
  -23.0916   -8.7249   22.4868 C   0  0  0  0  0  0  0  0  0  0  0  0
  -25.9590  -16.9811   24.7913 C   0  0  0  0  0  0  0  0  0  0  0  0
  -19.3826   -7.9206   21.6495 C   0  0  0  0  0  0  0  0  0  0  0  0
  -18.0752   -7.8740   21.1659 C   0  0  0  0  0  0  0  0  0  0  0  0
  -25.2220  -17.0157   27.0880 C   0  0  0  0  0  0  0  0  0  0  0  0
  -18.6335   -5.9305   19.8436 C   0  0  0  0  0  0  0  0  0  0  0  0
  -29.5004  -18.4782   23.4661 C   0  0  0  0  0  0  0  0  0  0  0  0
  -23.8255  -10.4507   20.9636 C   0  0  0  0  0  0  0  0  0  0  0  0
  -24.1668  -12.9759   20.8423 C   0  0  0  0  0  0  0  0  0  0  0  0
  -17.1666  -16.0331   22.9343 C   0  0  0  0  0  0  0  0  0  0  0  0
  -24.0441  -15.6524   25.4713 C   0  0  0  0  0  0  0  0  0  0  0  0
  -18.4452  -16.5404   23.2343 C   0  0  0  0  0  0  0  0  0  0  0  0
  -24.1927  -16.1103   26.7883 C   0  0  0  0  0  0  0  0  0  0  0  0
  -22.3386   -8.1444   21.4662 C   0  0  0  0  0  0  0  0  0  0  0  0
  -26.0990  -17.4498   26.0943 C   0  0  0  0  0  0  0  0  0  0  0  0
  -20.3156   -6.9722   21.2302 C   0  0  0  0  0  0  0  0  0  0  0  0
  -17.7006   -6.8789   20.2630 C   0  0  0  0  0  0  0  0  0  0  0  0
  -19.9410   -5.9771   20.3272 C   0  0  0  0  0  0  0  0  0  0  0  0
  -24.5941  -11.6416   20.7045 C   0  0  0  0  0  0  0  0  0  0  0  0
  -30.3363  -17.4160   23.1922 C   0  0  0  0  0  0  0  0  0  0  0  0
  -25.2584  -13.7254   20.4774 C   0  0  0  0  0  0  0  0  0  0  0  0
  -29.8861  -17.8233   25.5233 C   0  0  0  0  0  0  0  0  0  0  0  0
  -22.8968  -13.4917   21.2626 C   0  0  0  0  0  0  0  0  0  0  0  0
  -20.9048  -15.8843   25.9126 C   0  0  0  0  0  0  0  0  0  0  0  0
  -21.5095  -13.9412   28.4387 C   0  0  0  0  0  0  0  0  0  0  0  0
  -23.7567  -12.7865   30.7329 C   0  0  0  0  0  0  0  0  0  0  0  0
  -30.7423  -14.7452   20.6587 C   0  0  0  0  0  0  0  0  0  0  0  0
  -16.1685  -15.7067   24.0169 C   0  0  0  0  0  0  0  0  0  0  0  0
  -22.9652  -14.6628   25.1261 C   0  0  0  0  0  0  0  0  0  0  0  0
  -23.2709  -15.6628   27.8922 C   0  0  0  0  0  0  0  0  0  0  0  0
  -16.7975  -15.5543   25.3994 C   0  0  0  0  0  0  0  0  0  0  0  0
  -29.6021  -12.3597   18.2741 C   0  0  0  0  0  0  0  0  0  0  0  0
  -17.7649  -16.7011   25.6751 C   0  0  0  0  0  0  0  0  0  0  0  0
  -28.1652  -12.0660   18.7089 C   0  0  0  0  0  0  0  0  0  0  0  0
  -30.5206  -12.5811   19.4738 C   0  0  0  0  0  0  0  0  0  0  0  0
  -28.6205  -13.3124   20.8625 C   0  0  0  0  0  0  0  0  0  0  0  0
  -18.9167  -16.7066   24.6627 C   0  0  1  0  0  0  0  0  0  0  0  0
  -21.7950  -14.6891   26.1045 C   0  0  1  0  0  0  0  0  0  0  0  0
  -27.6449  -13.1373   19.6861 C   0  0  2  0  0  0  0  0  0  0  0  0
  -23.9478  -11.2319   32.6935 C   0  0  0  0  0  0  0  0  0  0  0  0
  -29.6659  -18.6813   29.1341 C   0  0  0  0  0  0  0  0  0  0  0  0
  -20.0639  -15.9780   30.1914 C   0  0  0  0  0  0  0  0  0  0  0  0
  -21.0950  -14.8833   32.1930 C   0  0  0  0  0  0  0  0  0  0  0  0
  -19.5478  -13.5898   30.7248 C   0  0  0  0  0  0  0  0  0  0  0  0
  -25.7886  -11.1250   29.3655 C   0  0  0  0  0  0  0  0  0  0  0  0
  -30.8093  -16.8963   21.8947 C   0  0  0  0  0  0  0  0  0  0  0  0
  -27.6185  -18.2777   27.7258 C   0  0  0  0  0  0  0  0  0  1  0  0
  -21.8665  -14.1542   29.8899 C   0  0  1  0  0  0  0  0  0  0  0  0
  -24.0991  -11.3792   31.1875 C   0  0  2  0  0  0  0  0  0  0  0  0
  -29.0896  -18.6875   27.7243 C   0  0  2  0  0  0  0  0  0  0  0  0
  -20.6596  -14.6614   30.7288 C   0  0  0  0  0  0  0  0  0  0  0  0
  -29.2408  -18.7130   24.8022 N   0  0  0  0  0  0  0  0  0  0  0  0
  -25.8585  -11.5458   20.2847 N   0  0  0  0  0  0  0  0  0  0  0  0
  -26.2350  -12.8294   20.1555 N   0  0  0  0  0  0  0  0  0  0  0  0
  -22.2279  -14.6993   27.5033 N   0  0  0  0  0  0  0  0  0  0  0  0
  -29.9710  -13.6099   20.3601 N   0  0  0  0  0  0  0  0  0  0  0  0
  -25.4686  -15.0568   20.4036 N   0  0  0  0  0  0  0  0  0  0  0  0
  -21.8854  -12.5825   21.6014 N   0  0  0  0  0  0  0  0  0  0  0  0
  -29.8493  -17.7651   26.9043 N   0  0  0  0  0  0  0  0  0  0  0  0
  -19.8885  -15.6877   24.9972 N   0  0  0  0  0  0  0  0  0  0  0  0
  -22.4337  -12.8950   30.3599 N   0  0  0  0  0  0  0  0  0  0  0  0
  -30.1440  -15.6743   21.5011 N   0  0  0  0  0  0  0  0  0  0  0  0
  -25.5043  -11.0440   30.8214 N   0  3  0  0  0  0  0  0  0  0  0  0
  -22.6604  -14.7223   21.3197 O   0  0  0  0  0  0  0  0  0  0  0  0
  -21.1229  -16.9085   26.5491 O   0  0  0  0  0  0  0  0  0  0  0  0
  -20.6307  -13.1267   28.1453 O   0  0  0  0  0  0  0  0  0  0  0  0
  -24.5796  -13.6992   30.7143 O   0  0  0  0  0  0  0  0  0  0  0  0
  -31.8776  -14.9207   20.2036 O   0  0  0  0  0  0  0  0  0  0  0  0
  -21.6131   -7.0193   21.7118 O   0  0  0  0  0  0  0  0  0  0  0  0
  -27.0937  -18.3269   26.3997 O   0  0  0  0  0  0  0  0  0  1  0  0
  -16.4446   -6.8334   19.7998 F   0  0  0  0  0  0  0  0  0  0  0  0
  -20.8326   -5.0626   19.9217 F   0  0  0  0  0  0  0  0  0  0  0  0
  -30.8246  -16.6750   24.6598 S   0  0  0  0  0  0  0  0  0  0  0  0
  1  2  1  0  0  0  0
  1  5  2  0  0  0  0
  2  6  2  0  0  0  0
  3  8  2  0  0  0  0
  3 16  1  0  0  0  0
  4  9  1  0  0  0  0
  4 16  2  0  0  0  0
  5 18  1  0  0  0  0
  6 20  1  0  0  0  0
  7 10  2  0  0  0  0
  7 19  1  0  0  0  0
  8 22  1  0  0  0  0
  9 22  2  0  0  0  0
 10 23  1  0  0  0  0
 11 12  2  0  0  0  0
 11 24  1  0  0  0  0
 12 25  1  0  0  0  0
 13 21  1  0  0  0  0
 13 23  2  0  0  0  0
 14 25  2  0  0  0  0
 14 26  1  0  0  0  0
 15 28  2  0  0  0  0
 15 60  1  0  0  0  0
 16 27  1  0  0  0  0
 17 27  1  0  0  0  0
 17 29  2  0  0  0  0
 17 31  1  0  0  0  0
 18 20  2  0  0  0  0
 18 36  1  0  0  0  0
 19 21  2  0  0  0  0
 19 37  1  0  0  0  0
 20 45  1  0  0  0  0
 21 38  1  0  0  0  0
 22 77  1  0  0  0  0
 23 78  1  0  0  0  0
 24 26  2  0  0  0  0
 24 77  1  0  0  0  0
 25 79  1  0  0  0  0
 26 80  1  0  0  0  0
 27 61  2  0  0  0  0
 28 54  1  0  0  0  0
 28 81  1  0  0  0  0
 29 62  1  0  0  0  0
 29 65  1  0  0  0  0
 30 60  2  0  0  0  0
 30 67  1  0  0  0  0
 30 81  1  0  0  0  0
 31 66  1  0  0  0  0
 31 72  2  0  0  0  0
 32 46  1  0  0  0  0
 32 68  1  0  0  0  0
 32 73  2  0  0  0  0
 33 56  1  0  0  0  0
 33 63  1  0  0  0  0
 33 74  2  0  0  0  0
 34 57  1  0  0  0  0
 34 69  1  0  0  0  0
 34 75  2  0  0  0  0
 35 64  1  0  0  0  0
 35 70  1  0  0  0  0
 35 76  2  0  0  0  0
 36 39  1  0  0  0  0
 37 46  1  0  0  0  0
 38 63  1  0  0  0  0
 39 41  1  0  0  0  0
 40 42  1  0  0  0  0
 40 43  1  0  0  0  0
 41 45  1  0  0  0  0
 42 47  1  0  0  0  0
 43 64  1  0  0  0  0
 44 47  1  0  0  0  0
 44 64  1  0  0  0  0
 45 68  1  0  0  0  0
 46 63  1  0  0  0  0
 47 62  1  0  0  0  0
 48 57  1  0  0  0  0
 49 58  1  0  0  0  0
 50 59  1  0  0  0  0
 51 59  1  0  0  0  0
 52 59  1  0  0  0  0
 53 71  1  0  0  0  0
 54 70  1  0  0  0  0
 55 58  1  0  0  0  0
 55 78  1  0  0  0  0
 56 59  1  0  0  0  0
 56 69  1  0  0  0  0
 57 71  1  0  0  0  0
 58 67  1  0  0  0  0
 61 62  1  0  0  0  0
M  CHG  1  71   1
M  ISO  4  35 100  55 101  70 100  78 101
M  END
> <Batch ID>
0195

> <Smiles>
CNC(C)C(=O)NC(C(=O)N1Cc2cc([101O:1][101CH2:1]C(C)Nc3ncc(C[100NH:0][100C:0](=O)N4CCCC(n5nc(-c6ccc(Oc7ccc(F)cc7F)cc6)c(C(N)=O)c5N)C4)s3)ccc2CC1C(=O)NC1CCCc2ccccc21)C(C)(C)C

> <Shape>
0.146

> <Color>
0.191

> <Negative vol penalty>
0.000

$$$$

  -OEChem-04052305363D

 83 91  0     1  0  0  0  0  0999 V2000
  -21.5604  -12.6190   19.7152 C   0  0  0  0  0  0  0  0  0  0  0  0
  -21.5995  -13.8376   20.3851 C   0  0  0  0  0  0  0  0  0  0  0  0
  -30.1146  -28.2474   21.4936 C   0  0  0  0  0  0  0  0  0  0  0  0
  -28.9136  -26.1901   21.8965 C   0  0  0  0  0  0  0  0  0  0  0  0
  -22.7267  -11.8702   19.5640 C   0  0  0  0  0  0  0  0  0  0  0  0
  -22.8049  -14.3076   20.9053 C   0  0  0  0  0  0  0  0  0  0  0  0
  -23.5613  -19.2178   19.9238 C   0  0  0  0  0  0  0  0  0  0  0  0
  -31.1802  -27.7755   22.2601 C   0  0  0  0  0  0  0  0  0  0  0  0
  -29.9792  -25.7182   22.6630 C   0  0  0  0  0  0  0  0  0  0  0  0
  -22.8709  -20.1382   20.7112 C   0  0  0  0  0  0  0  0  0  0  0  0
  -31.1823  -26.1538   25.7925 C   0  0  0  0  0  0  0  0  0  0  0  0
  -30.8839  -25.5423   27.0101 C   0  0  0  0  0  0  0  0  0  0  0  0
  -24.8542  -20.4786   22.0416 C   0  0  0  0  0  0  0  0  0  0  0  0
  -31.9330  -23.5052   26.2440 C   0  0  0  0  0  0  0  0  0  0  0  0
  -20.0250  -25.4490   21.5414 C   0  0  0  0  0  0  0  0  0  0  0  0
  -28.9813  -27.4547   21.3119 C   0  0  0  0  0  0  0  0  0  0  0  0
  -27.6918  -27.7802   19.1350 C   0  0  0  0  0  0  0  0  0  0  0  0
  -23.9488  -12.3358   20.0742 C   0  0  0  0  0  0  0  0  0  0  0  0
  -24.9024  -18.9122   20.1966 C   0  0  0  0  0  0  0  0  0  0  0  0
  -23.9884  -13.5637   20.7620 C   0  0  0  0  0  0  0  0  0  0  0  0
  -25.5601  -19.5558   21.2546 C   0  0  0  0  0  0  0  0  0  0  0  0
  -31.1125  -26.5109   22.8448 C   0  0  0  0  0  0  0  0  0  0  0  0
  -23.5165  -20.7666   21.7720 C   0  0  0  0  0  0  0  0  0  0  0  0
  -31.8559  -25.4411   24.8006 C   0  0  0  0  0  0  0  0  0  0  0  0
  -31.2593  -24.2180   27.2358 C   0  0  0  0  0  0  0  0  0  0  0  0
  -32.2313  -24.1168   25.0263 C   0  0  0  0  0  0  0  0  0  0  0  0
  -27.8800  -27.9419   20.5207 C   0  0  0  0  0  0  0  0  0  0  0  0
  -20.5236  -26.1595   22.6143 C   0  0  0  0  0  0  0  0  0  0  0  0
  -20.1928  -24.0807   21.6017 C   0  0  0  0  0  0  0  0  0  0  0  0
  -26.5054  -28.4205   18.8726 C   0  0  0  0  0  0  0  0  0  0  0  0
  -21.2419  -24.2472   23.6114 C   0  0  0  0  0  0  0  0  0  0  0  0
  -28.5157  -27.1109   18.1711 C   0  0  0  0  0  0  0  0  0  0  0  0
  -26.4794  -16.2800   21.0264 C   0  0  0  0  0  0  0  0  0  0  0  0
  -29.0773  -18.1839   20.6416 C   0  0  0  0  0  0  0  0  0  0  0  0
  -30.3734  -21.3405   20.5872 C   0  0  0  0  0  0  0  0  0  0  0  0
  -21.7280  -29.6979   22.2484 C   0  0  0  0  0  0  0  0  0  0  0  0
  -25.1742  -11.4689   19.9274 C   0  0  0  0  0  0  0  0  0  0  0  0
  -25.6408  -17.9370   19.3213 C   0  0  0  0  0  0  0  0  0  0  0  0
  -27.0050  -19.2779   21.5765 C   0  0  0  0  0  0  0  0  0  0  0  0
  -26.4819  -12.2146   20.1810 C   0  0  0  0  0  0  0  0  0  0  0  0
  -23.7566  -32.0052   20.4490 C   0  0  0  0  0  0  0  0  0  0  0  0
  -26.3792  -13.0561   21.4491 C   0  0  0  0  0  0  0  0  0  0  0  0
  -25.0264  -31.2109   20.1383 C   0  0  0  0  0  0  0  0  0  0  0  0
  -23.1912  -31.6509   21.8226 C   0  0  0  0  0  0  0  0  0  0  0  0
  -24.2285  -29.4171   21.7334 C   0  0  0  0  0  0  0  0  0  0  0  0
  -25.2815  -14.1189   21.3187 C   0  0  1  0  0  0  0  0  0  0  0  0
  -26.8549  -17.3186   20.0077 C   0  0  1  0  0  0  0  0  0  0  0  0
  -24.8045  -29.6992   20.3352 C   0  0  2  0  0  0  0  0  0  0  0  0
  -32.5360  -22.5771   20.2853 C   0  0  0  0  0  0  0  0  0  0  0  0
  -22.2808  -21.8231   26.2318 C   0  0  0  0  0  0  0  0  0  0  0  0
  -29.9257  -17.3837   23.4611 C   0  0  0  0  0  0  0  0  0  0  0  0
  -31.5096  -19.3227   23.4597 C   0  0  0  0  0  0  0  0  0  0  0  0
  -31.7916  -17.4829   21.7989 C   0  0  0  0  0  0  0  0  0  0  0  0
  -29.3531  -22.7790   18.2106 C   0  0  0  0  0  0  0  0  0  0  0  0
  -20.3892  -27.6451   22.6389 C   0  0  0  0  0  0  0  0  0  0  0  0
  -23.2464  -21.7786   23.9072 C   0  0  0  0  0  0  0  0  0  1  0  0
  -29.8699  -19.1049   21.5374 C   0  0  1  0  0  0  0  0  0  0  0  0
  -31.2920  -22.0353   19.5984 C   0  0  2  0  0  0  0  0  0  0  0  0
  -22.0582  -22.1947   24.7717 C   0  0  2  0  0  0  0  0  0  0  0  0
  -30.7464  -18.3275   22.5597 C   0  0  0  0  0  0  0  0  0  0  0  0
  -26.8924  -28.6311   21.0983 N   0  0  0  0  0  0  0  0  0  0  0  0
  -21.1400  -25.5887   23.6700 N   0  0  0  0  0  0  0  0  0  0  0  0
  -20.7989  -23.4441   22.6253 N   0  0  0  0  0  0  0  0  0  0  0  0
  -26.0721  -28.9081   20.0704 N   0  0  0  0  0  0  0  0  0  0  0  0
  -27.6821  -18.3120   20.6956 N   0  0  0  0  0  0  0  0  0  0  0  0
  -23.0028  -30.2033   21.9440 N   0  0  0  0  0  0  0  0  0  0  0  0
  -19.6950  -23.3142   20.5196 N   0  0  0  0  0  0  0  0  0  0  0  0
  -25.8009  -28.6084   17.7365 N   0  0  0  0  0  0  0  0  0  0  0  0
  -29.7011  -26.5059   18.6106 N   0  0  0  0  0  0  0  0  0  0  0  0
  -21.8682  -23.6283   24.6775 N   0  0  0  0  0  0  0  0  0  0  0  0
  -25.7450  -15.2280   20.5129 N   0  0  0  0  0  0  0  0  0  0  0  0
  -30.6238  -19.9861   20.6523 N   0  0  0  0  0  0  0  0  0  0  0  0
  -21.6352  -28.3145   22.3388 N   0  0  0  0  0  0  0  0  0  0  0  0
  -30.5840  -23.1716   18.9439 N   0  3  0  0  0  0  0  0  0  0  0  0
  -28.2181  -27.0654   16.9534 O   0  0  0  0  0  0  0  0  0  0  0  0
  -26.8311  -16.4217   22.1917 O   0  0  0  0  0  0  0  0  0  0  0  0
  -29.6743  -17.3854   19.9152 O   0  0  0  0  0  0  0  0  0  0  0  0
  -29.5215  -21.9399   21.2396 O   0  0  0  0  0  0  0  0  0  0  0  0
  -20.7443  -30.4255   22.4212 O   0  0  0  0  0  0  0  0  0  0  0  0
  -32.1521  -26.0499   23.5926 O   0  0  0  0  0  0  0  0  0  0  0  0
  -22.8448  -21.6649   22.5426 O   0  0  0  0  0  0  0  0  0  1  0  0
  -30.9740  -23.6313   28.4057 F   0  0  0  0  0  0  0  0  0  0  0  0
  -32.8798  -23.4274   24.0777 F   0  0  0  0  0  0  0  0  0  0  0  0
  1  2  1  0  0  0  0
  1  5  2  0  0  0  0
  2  6  2  0  0  0  0
  3  8  2  0  0  0  0
  3 16  1  0  0  0  0
  4  9  1  0  0  0  0
  4 16  2  0  0  0  0
  5 18  1  0  0  0  0
  6 20  1  0  0  0  0
  7 10  2  0  0  0  0
  7 19  1  0  0  0  0
  8 22  1  0  0  0  0
  9 22  2  0  0  0  0
 10 23  1  0  0  0  0
 11 12  2  0  0  0  0
 11 24  1  0  0  0  0
 12 25  1  0  0  0  0
 13 21  1  0  0  0  0
 13 23  2  0  0  0  0
 14 25  2  0  0  0  0
 14 26  1  0  0  0  0
 15 28  2  0  0  0  0
 15 29  1  0  0  0  0
 16 27  1  0  0  0  0
 17 27  1  0  0  0  0
 17 30  2  0  0  0  0
 17 32  1  0  0  0  0
 18 20  2  0  0  0  0
 18 37  1  0  0  0  0
 19 21  2  0  0  0  0
 19 38  1  0  0  0  0
 20 46  1  0  0  0  0
 21 39  1  0  0  0  0
 22 80  1  0  0  0  0
 23 81  1  0  0  0  0
 24 26  2  0  0  0  0
 24 80  1  0  0  0  0
 25 82  1  0  0  0  0
 26 83  1  0  0  0  0
 27 61  2  0  0  0  0
 28 55  1  0  0  0  0
 28 62  1  0  0  0  0
 29 63  2  0  0  0  0
 29 67  1  0  0  0  0
 30 64  1  0  0  0  0
 30 68  1  0  0  0  0
 31 62  2  0  0  0  0
 31 63  1  0  0  0  0
 31 70  1  0  0  0  0
 32 69  1  0  0  0  0
 32 75  2  0  0  0  0
 33 47  1  0  0  0  0
 33 71  1  0  0  0  0
 33 76  2  0  0  0  0
 34 57  1  0  0  0  0
 34 65  1  0  0  0  0
 34 77  2  0  0  0  0
 35 58  1  0  0  0  0
 35 72  1  0  0  0  0
 35 78  2  0  0  0  0
 36 66  1  0  0  0  0
 36 73  1  0  0  0  0
 36 79  2  0  0  0  0
 37 40  1  0  0  0  0
 38 47  1  0  0  0  0
 39 65  1  0  0  0  0
 40 42  1  0  0  0  0
 41 43  1  0  0  0  0
 41 44  1  0  0  0  0
 42 46  1  0  0  0  0
 43 48  1  0  0  0  0
 44 66  1  0  0  0  0
 45 48  1  0  0  0  0
 45 66  1  0  0  0  0
 46 71  1  0  0  0  0
 47 65  1  0  0  0  0
 48 64  1  0  0  0  0
 49 58  1  0  0  0  0
 50 59  1  0  0  0  0
 51 60  1  0  0  0  0
 52 60  1  0  0  0  0
 53 60  1  0  0  0  0
 54 74  1  0  0  0  0
 55 73  1  0  0  0  0
 56 59  1  0  0  0  0
 56 81  1  0  0  0  0
 57 60  1  0  0  0  0
 57 72  1  0  0  0  0
 58 74  1  0  0  0  0
 59 70  1  0  0  0  0
 61 64  1  0  0  0  0
M  CHG  1  74   1
M  ISO  4  36 100  56 101  73 100  81 101
M  END
> <Batch ID>
0195

> <Smiles>
CNC(C)C(=O)NC(C(=O)N1Cc2cc([101O:1][101CH2:1]C(C)Nc3nc(N)cc(C[100NH:0][100C:0](=O)N4CCCC(n5nc(-c6ccc(Oc7ccc(F)cc7F)cc6)c(C(N)=O)c5N)C4)n3)ccc2CC1C(=O)NC1CCCc2ccccc21)C(C)(C)C

> <Shape>
0.218

> <Color>
0.065

> <Negative vol penalty>
0.000

$$$$

  -OEChem-04052305363D

 83 91  0     1  0  0  0  0  0999 V2000
  -16.6025  -29.5705   22.9814 C   0  0  0  0  0  0  0  0  0  0  0  0
  -17.7461  -30.0025   22.3174 C   0  0  0  0  0  0  0  0  0  0  0  0
  -26.3255  -12.8904   21.5990 C   0  0  0  0  0  0  0  0  0  0  0  0
  -25.7087  -13.8207   19.4563 C   0  0  0  0  0  0  0  0  0  0  0  0
  -16.6801  -28.5100   23.8832 C   0  0  0  0  0  0  0  0  0  0  0  0
  -18.9683  -29.3748   22.5556 C   0  0  0  0  0  0  0  0  0  0  0  0
  -25.0763  -27.6123   19.2536 C   0  0  0  0  0  0  0  0  0  0  0  0
  -25.0869  -12.2539   21.6791 C   0  0  0  0  0  0  0  0  0  0  0  0
  -24.4702  -13.1841   19.5364 C   0  0  0  0  0  0  0  0  0  0  0  0
  -26.4567  -27.7377   19.4035 C   0  0  0  0  0  0  0  0  0  0  0  0
  -22.2273  -10.0916   22.2808 C   0  0  0  0  0  0  0  0  0  0  0  0
  -22.2083   -8.7594   22.6937 C   0  0  0  0  0  0  0  0  0  0  0  0
  -26.4559  -25.8644   20.9232 C   0  0  0  0  0  0  0  0  0  0  0  0
  -23.5995   -8.1566   20.8126 C   0  0  0  0  0  0  0  0  0  0  0  0
  -28.4045  -22.2080   16.2012 C   0  0  0  0  0  0  0  0  0  0  0  0
  -26.6363  -13.6739   20.4876 C   0  0  0  0  0  0  0  0  0  0  0  0
  -29.0997  -13.8206   19.8412 C   0  0  0  0  0  0  0  0  0  0  0  0
  -17.9021  -27.8627   24.1254 C   0  0  0  0  0  0  0  0  0  0  0  0
  -24.3726  -26.6171   19.9471 C   0  0  0  0  0  0  0  0  0  0  0  0
  -19.0626  -28.3055   23.4625 C   0  0  0  0  0  0  0  0  0  0  0  0
  -25.0670  -25.7267   20.7784 C   0  0  0  0  0  0  0  0  0  0  0  0
  -28.9144  -23.4763   16.3900 C   0  0  0  0  0  0  0  0  0  0  0  0
  -24.1593  -12.4007   20.6478 C   0  0  0  0  0  0  0  0  0  0  0  0
  -27.1463  -26.8656   20.2406 C   0  0  0  0  0  0  0  0  0  0  0  0
  -22.9323  -10.4563   21.1338 C   0  0  0  0  0  0  0  0  0  0  0  0
  -22.8945   -7.7919   21.9596 C   0  0  0  0  0  0  0  0  0  0  0  0
  -23.6184   -9.4888   20.3997 C   0  0  0  0  0  0  0  0  0  0  0  0
  -27.9153  -14.3322   20.4045 C   0  0  0  0  0  0  0  0  0  0  0  0
  -29.4615  -23.7208   17.6331 C   0  0  0  0  0  0  0  0  0  0  0  0
  -30.0219  -14.8243   20.0106 C   0  0  0  0  0  0  0  0  0  0  0  0
  -28.9825  -21.6062   18.3156 C   0  0  0  0  0  0  0  0  0  0  0  0
  -29.3444  -12.5516   19.2203 C   0  0  0  0  0  0  0  0  0  0  0  0
  -22.0653  -26.6113   22.1335 C   0  0  0  0  0  0  0  0  0  0  0  0
  -22.1591  -23.4037   21.6594 C   0  0  0  0  0  0  0  0  0  0  0  0
  -23.9424  -20.6754   20.6480 C   0  0  0  0  0  0  0  0  0  0  0  0
  -29.5418  -20.7493   20.6177 C   0  0  0  0  0  0  0  0  0  0  0  0
  -17.9456  -26.7517   25.1444 C   0  0  0  0  0  0  0  0  0  0  0  0
  -22.8874  -26.4780   19.7539 C   0  0  0  0  0  0  0  0  0  0  0  0
  -24.3610  -24.6285   21.5294 C   0  0  0  0  0  0  0  0  0  0  0  0
  -19.2073  -25.8966   25.0597 C   0  0  0  0  0  0  0  0  0  0  0  0
  -31.0762  -18.4919   22.9039 C   0  0  0  0  0  0  0  0  0  0  0  0
  -20.4452  -26.7811   24.9492 C   0  0  0  0  0  0  0  0  0  0  0  0
  -30.5523  -17.1218   22.4673 C   0  0  0  0  0  0  0  0  0  0  0  0
  -30.0123  -19.5786   22.7584 C   0  0  0  0  0  0  0  0  0  0  0  0
  -28.8677  -18.2958   20.9939 C   0  0  0  0  0  0  0  0  0  0  0  0
  -20.4019  -27.6340   23.6755 C   0  0  1  0  0  0  0  0  0  0  0  0
  -22.2001  -25.7536   20.9072 C   0  0  1  0  0  0  0  0  0  0  0  0
  -29.9240  -17.1807   21.0612 C   0  0  2  0  0  0  0  0  0  0  0  0
  -23.7653  -18.1834   20.4111 C   0  0  0  0  0  0  0  0  0  0  0  0
  -31.9994  -24.7714   19.2156 C   0  0  0  0  0  0  0  0  0  0  0  0
  -22.5103  -23.0944   24.6746 C   0  0  0  0  0  0  0  0  0  0  0  0
  -23.2674  -20.7417   24.2748 C   0  0  0  0  0  0  0  0  0  0  0  0
  -20.9595  -21.4341   23.6292 C   0  0  0  0  0  0  0  0  0  0  0  0
  -24.3619  -20.8075   17.7213 C   0  0  0  0  0  0  0  0  0  0  0  0
  -30.6191  -26.8776   19.2785 C   0  0  0  0  0  0  0  0  0  0  0  0
  -29.2263  -27.4995   19.2774 C   0  0  0  0  0  0  0  0  0  1  0  0
  -22.9260  -22.2549   22.2687 C   0  0  1  0  0  0  0  0  0  0  0  0
  -23.5872  -19.5269   19.7211 C   0  0  2  0  0  0  0  0  0  0  0  0
  -30.5903  -25.3516   19.1470 C   0  0  1  0  0  0  0  0  0  0  0  0
  -22.4291  -21.9031   23.6993 C   0  0  0  0  0  0  0  0  0  0  0  0
  -28.4220  -21.2447   17.1458 N   0  0  0  0  0  0  0  0  0  0  0  0
  -28.0683  -15.5650   20.8951 N   0  0  0  0  0  0  0  0  0  0  0  0
  -29.5123  -22.8055   18.6230 N   0  0  0  0  0  0  0  0  0  0  0  0
  -29.3597  -15.8365   20.6408 N   0  0  0  0  0  0  0  0  0  0  0  0
  -22.9077  -24.5373   21.3125 N   0  0  0  0  0  0  0  0  0  0  0  0
  -29.4652  -19.5776   21.4000 N   0  0  0  0  0  0  0  0  0  0  0  0
  -28.8671  -24.4334   15.3679 N   0  0  0  0  0  0  0  0  0  0  0  0
  -31.3266  -14.9309   19.6806 N   0  0  0  0  0  0  0  0  0  0  0  0
  -28.2861  -11.6374   19.1289 N   0  0  0  0  0  0  0  0  0  0  0  0
  -29.9899  -24.9744   17.8845 N   0  0  0  0  0  0  0  0  0  0  0  0
  -29.0183  -20.6193   19.3317 N   0  0  0  0  0  0  0  0  0  0  0  0
  -20.7584  -26.8371   22.5213 N   0  0  0  0  0  0  0  0  0  0  0  0
  -22.8352  -21.1531   21.3168 N   0  0  0  0  0  0  0  0  0  0  0  0
  -24.4549  -19.5517   18.5096 N   0  3  0  0  0  0  0  0  0  0  0  0
  -30.4725  -12.2314   18.7750 O   0  0  0  0  0  0  0  0  0  0  0  0
  -23.0726  -27.0356   22.6877 O   0  0  0  0  0  0  0  0  0  0  0  0
  -20.9418  -23.2963   21.4908 O   0  0  0  0  0  0  0  0  0  0  0  0
  -25.0881  -21.1033   20.7697 O   0  0  0  0  0  0  0  0  0  0  0  0
  -30.0600  -21.7834   21.0468 O   0  0  0  0  0  0  0  0  0  0  0  0
  -22.9507  -11.7794   20.7256 O   0  0  0  0  0  0  0  0  0  0  0  0
  -28.4936  -26.9862   20.3892 O   0  0  0  0  0  0  0  0  0  1  0  0
  -22.8775   -6.5129   22.3571 F   0  0  0  0  0  0  0  0  0  0  0  0
  -24.2984   -9.8334   19.2976 F   0  0  0  0  0  0  0  0  0  0  0  0
  1  2  1  0  0  0  0
  1  5  2  0  0  0  0
  2  6  2  0  0  0  0
  3  8  2  0  0  0  0
  3 16  1  0  0  0  0
  4  9  1  0  0  0  0
  4 16  2  0  0  0  0
  5 18  1  0  0  0  0
  6 20  1  0  0  0  0
  7 10  2  0  0  0  0
  7 19  1  0  0  0  0
  8 23  1  0  0  0  0
  9 23  2  0  0  0  0
 10 24  1  0  0  0  0
 11 12  2  0  0  0  0
 11 25  1  0  0  0  0
 12 26  1  0  0  0  0
 13 21  1  0  0  0  0
 13 24  2  0  0  0  0
 14 26  2  0  0  0  0
 14 27  1  0  0  0  0
 15 22  1  0  0  0  0
 15 61  2  0  0  0  0
 16 28  1  0  0  0  0
 17 28  1  0  0  0  0
 17 30  2  0  0  0  0
 17 32  1  0  0  0  0
 18 20  2  0  0  0  0
 18 37  1  0  0  0  0
 19 21  2  0  0  0  0
 19 38  1  0  0  0  0
 20 46  1  0  0  0  0
 21 39  1  0  0  0  0
 22 29  2  0  0  0  0
 22 67  1  0  0  0  0
 23 80  1  0  0  0  0
 24 81  1  0  0  0  0
 25 27  2  0  0  0  0
 25 80  1  0  0  0  0
 26 82  1  0  0  0  0
 27 83  1  0  0  0  0
 28 62  2  0  0  0  0
 29 63  1  0  0  0  0
 29 70  1  0  0  0  0
 30 64  1  0  0  0  0
 30 68  1  0  0  0  0
 31 61  1  0  0  0  0
 31 63  2  0  0  0  0
 31 71  1  0  0  0  0
 32 69  1  0  0  0  0
 32 75  2  0  0  0  0
 33 47  1  0  0  0  0
 33 72  1  0  0  0  0
 33 76  2  0  0  0  0
 34 57  1  0  0  0  0
 34 65  1  0  0  0  0
 34 77  2  0  0  0  0
 35 58  1  0  0  0  0
 35 73  1  0  0  0  0
 35 78  2  0  0  0  0
 36 66  1  0  0  0  0
 36 71  1  0  0  0  0
 36 79  2  0  0  0  0
 37 40  1  0  0  0  0
 38 47  1  0  0  0  0
 39 65  1  0  0  0  0
 40 42  1  0  0  0  0
 41 43  1  0  0  0  0
 41 44  1  0  0  0  0
 42 46  1  0  0  0  0
 43 48  1  0  0  0  0
 44 66  1  0  0  0  0
 45 48  1  0  0  0  0
 45 66  1  0  0  0  0
 46 72  1  0  0  0  0
 47 65  1  0  0  0  0
 48 64  1  0  0  0  0
 49 58  1  0  0  0  0
 50 59  1  0  0  0  0
 51 60  1  0  0  0  0
 52 60  1  0  0  0  0
 53 60  1  0  0  0  0
 54 74  1  0  0  0  0
 55 56  1  0  0  0  0
 55 59  1  0  0  0  0
 56 81  1  0  0  0  0
 57 60  1  0  0  0  0
 57 73  1  0  0  0  0
 58 74  1  0  0  0  0
 59 70  1  0  0  0  0
 62 64  1  0  0  0  0
M  CHG  1  74   1
M  ISO  4  36 100  56 101  71 100  81 101
M  END
> <Batch ID>
0195

> <Smiles>
CNC(C)C(=O)NC(C(=O)N1Cc2cc([101O:1][101CH2:1]CC(C)Nc3nc([100NH:0][100C:0](=O)N4CCCC(n5nc(-c6ccc(Oc7ccc(F)cc7F)cc6)c(C(N)=O)c5N)C4)ncc3N)ccc2CC1C(=O)NC1CCCc2ccccc21)C(C)(C)C

> <Shape>
0.279

> <Color>
0.088

> <Negative vol penalty>
0.000

$$$$

  -OEChem-04052305363D

 87 95  0     1  0  0  0  0  0999 V2000
  -18.0534  -32.7340   21.4291 C   0  0  0  0  0  0  0  0  0  0  0  0
  -19.3687  -32.7083   20.9766 C   0  0  0  0  0  0  0  0  0  0  0  0
  -26.1207  -12.6342   20.5145 C   0  0  0  0  0  0  0  0  0  0  0  0
  -24.4020  -14.2589   21.0079 C   0  0  0  0  0  0  0  0  0  0  0  0
  -17.6795  -31.9585   22.5258 C   0  0  0  0  0  0  0  0  0  0  0  0
  -20.3112  -31.9080   21.6213 C   0  0  0  0  0  0  0  0  0  0  0  0
  -25.0051  -28.9409   19.0388 C   0  0  0  0  0  0  0  0  0  0  0  0
  -25.3504  -11.6375   21.1134 C   0  0  0  0  0  0  0  0  0  0  0  0
  -23.6317  -13.2622   21.6067 C   0  0  0  0  0  0  0  0  0  0  0  0
  -26.3602  -29.2479   18.9248 C   0  0  0  0  0  0  0  0  0  0  0  0
  -23.6782   -8.5950   22.1916 C   0  0  0  0  0  0  0  0  0  0  0  0
  -23.5630   -7.3756   21.5243 C   0  0  0  0  0  0  0  0  0  0  0  0
  -26.8220  -27.9065   20.8758 C   0  0  0  0  0  0  0  0  0  0  0  0
  -22.5675   -8.5041   19.6341 C   0  0  0  0  0  0  0  0  0  0  0  0
  -28.0699  -22.7016   17.4869 C   0  0  0  0  0  0  0  0  0  0  0  0
  -25.6466  -13.9450   20.4618 C   0  0  0  0  0  0  0  0  0  0  0  0
  -26.4241  -15.3670   18.4918 C   0  0  0  0  0  0  0  0  0  0  0  0
  -18.6156  -31.1408   23.1783 C   0  0  0  0  0  0  0  0  0  0  0  0
  -24.5460  -28.1218   20.0803 C   0  0  0  0  0  0  0  0  0  0  0  0
  -19.9497  -31.1218   22.7286 C   0  0  0  0  0  0  0  0  0  0  0  0
  -25.4609  -27.5885   20.9993 C   0  0  0  0  0  0  0  0  0  0  0  0
  -24.1059  -11.9514   21.6595 C   0  0  0  0  0  0  0  0  0  0  0  0
  -27.2686  -28.7330   19.8451 C   0  0  0  0  0  0  0  0  0  0  0  0
  -23.2380   -9.7690   21.5802 C   0  0  0  0  0  0  0  0  0  0  0  0
  -23.0077   -7.3302   20.2455 C   0  0  0  0  0  0  0  0  0  0  0  0
  -22.6827   -9.7236   20.3015 C   0  0  0  0  0  0  0  0  0  0  0  0
  -26.4421  -14.9752   19.8438 C   0  0  0  0  0  0  0  0  0  0  0  0
  -28.9561  -22.5458   18.5298 C   0  0  0  0  0  0  0  0  0  0  0  0
  -29.0223  -24.7175   16.9786 C   0  0  0  0  0  0  0  0  0  0  0  0
  -29.9081  -24.5622   18.0221 C   0  0  0  0  0  0  0  0  0  0  0  0
  -27.3537  -16.3751   18.4141 C   0  0  0  0  0  0  0  0  0  0  0  0
  -25.6375  -14.8646   17.4035 C   0  0  0  0  0  0  0  0  0  0  0  0
  -22.5550  -28.5094   22.5276 C   0  0  0  0  0  0  0  0  0  0  0  0
  -23.0555  -25.3303   22.9340 C   0  0  0  0  0  0  0  0  0  0  0  0
  -25.0774  -22.6278   22.4285 C   0  0  0  0  0  0  0  0  0  0  0  0
  -29.6710  -21.0283   20.4093 C   0  0  0  0  0  0  0  0  0  0  0  0
  -18.1753  -30.3564   24.3889 C   0  0  0  0  0  0  0  0  0  0  0  0
  -23.0846  -27.7783   20.1737 C   0  0  0  0  0  0  0  0  0  0  0  0
  -25.0218  -26.6877   22.1237 C   0  0  0  0  0  0  0  0  0  0  0  0
  -19.1486  -29.2489   24.7841 C   0  0  0  0  0  0  0  0  0  0  0  0
  -30.8046  -17.9397   21.7704 C   0  0  0  0  0  0  0  0  0  0  0  0
  -20.5814  -29.7723   24.7842 C   0  0  0  0  0  0  0  0  0  0  0  0
  -29.7692  -16.9253   21.2793 C   0  0  0  0  0  0  0  0  0  0  0  0
  -30.1644  -19.2846   22.1097 C   0  0  0  0  0  0  0  0  0  0  0  0
  -28.3060  -18.8529   20.5510 C   0  0  0  0  0  0  0  0  0  0  0  0
  -20.9953  -30.2475   23.3862 C   0  0  1  0  0  0  0  0  0  0  0  0
  -22.6594  -27.3518   21.5754 C   0  0  1  0  0  0  0  0  0  0  0  0
  -28.9130  -17.5029   20.1353 C   0  0  2  0  0  0  0  0  0  0  0  0
  -25.2373  -20.1700   22.9090 C   0  0  0  0  0  0  0  0  0  0  0  0
  -28.8271  -27.1276   14.1373 C   0  0  0  0  0  0  0  0  0  0  0  0
  -26.8604  -26.5905   15.6169 C   0  0  0  0  0  0  0  0  0  0  0  0
  -23.8212  -25.9473   25.8225 C   0  0  0  0  0  0  0  0  0  0  0  0
  -24.8574  -23.6723   25.9604 C   0  0  0  0  0  0  0  0  0  0  0  0
  -22.4109  -23.9026   25.5310 C   0  0  0  0  0  0  0  0  0  0  0  0
  -25.1049  -21.9484   19.5481 C   0  0  0  0  0  0  0  0  0  0  0  0
  -30.8086  -28.1811   19.4096 C   0  0  0  0  0  0  0  0  0  0  0  0
  -31.5289  -25.7000   19.5399 C   0  0  0  0  0  0  0  0  0  0  0  0
  -29.5190  -28.0542   20.2069 C   0  0  0  0  0  0  0  0  0  1  0  0
  -24.0516  -24.4943   23.7007 C   0  0  1  0  0  0  0  0  0  0  0  0
  -24.7807  -21.2293   21.9180 C   0  0  2  0  0  0  0  0  0  0  0  0
  -28.1997  -26.1093   15.0782 C   0  0  0  0  0  0  0  0  0  0  0  0
  -31.8838  -27.1639   19.8060 C   0  0  1  0  0  0  0  0  0  0  0  0
  -23.7936  -24.5226   25.2337 C   0  0  0  0  0  0  0  0  0  0  0  0
  -28.0871  -23.7902   16.6925 N   0  0  0  0  0  0  0  0  0  0  0  0
  -27.3141  -15.6771   20.5725 N   0  0  0  0  0  0  0  0  0  0  0  0
  -29.8911  -23.4733   18.8162 N   0  0  0  0  0  0  0  0  0  0  0  0
  -27.8527  -16.5200   19.6751 N   0  0  0  0  0  0  0  0  0  0  0  0
  -23.5817  -26.3863   22.1765 N   0  0  0  0  0  0  0  0  0  0  0  0
  -29.3726  -19.7720   20.9781 N   0  0  0  0  0  0  0  0  0  0  0  0
  -27.7847  -17.1429   17.3907 N   0  0  0  0  0  0  0  0  0  0  0  0
  -24.7305  -13.8268   17.6579 N   0  0  0  0  0  0  0  0  0  0  0  0
  -28.8729  -21.3716   19.3186 N   0  0  0  0  0  0  0  0  0  0  0  0
  -30.8498  -25.5461   18.2737 N   0  0  0  0  0  0  0  0  0  0  0  0
  -29.0842  -25.8795   16.1760 N   0  0  0  0  0  0  0  0  0  0  0  0
  -21.3136  -29.1162   22.5416 N   0  0  0  0  0  0  0  0  0  0  0  0
  -24.0045  -23.1605   23.1114 N   0  0  0  0  0  0  0  0  0  0  0  0
  -25.4776  -20.9922   20.6222 N   0  3  0  0  0  0  0  0  0  0  0  0
  -25.7477  -15.3112   16.2365 O   0  0  0  0  0  0  0  0  0  0  0  0
  -23.5282  -28.8274   23.2010 O   0  0  0  0  0  0  0  0  0  0  0  0
  -21.8555  -25.0521   22.9990 O   0  0  0  0  0  0  0  0  0  0  0  0
  -26.1546  -23.1899   22.2434 O   0  0  0  0  0  0  0  0  0  0  0  0
  -30.5863  -21.7346   20.8398 O   0  0  0  0  0  0  0  0  0  0  0  0
  -33.0910  -27.4661   19.1039 O   0  0  0  0  0  0  0  0  0  0  0  0
  -23.3538  -10.9790   22.2437 O   0  0  0  0  0  0  0  0  0  0  0  0
  -28.5918  -29.0317   19.7365 O   0  0  0  0  0  0  0  0  0  1  0  0
  -22.8985   -6.1593   19.6042 F   0  0  0  0  0  0  0  0  0  0  0  0
  -22.2592  -10.8482   19.7085 F   0  0  0  0  0  0  0  0  0  0  0  0
  1  2  1  0  0  0  0
  1  5  2  0  0  0  0
  2  6  2  0  0  0  0
  3  8  2  0  0  0  0
  3 16  1  0  0  0  0
  4  9  1  0  0  0  0
  4 16  2  0  0  0  0
  5 18  1  0  0  0  0
  6 20  1  0  0  0  0
  7 10  2  0  0  0  0
  7 19  1  0  0  0  0
  8 22  1  0  0  0  0
  9 22  2  0  0  0  0
 10 23  1  0  0  0  0
 11 12  2  0  0  0  0
 11 24  1  0  0  0  0
 12 25  1  0  0  0  0
 13 21  1  0  0  0  0
 13 23  2  0  0  0  0
 14 25  2  0  0  0  0
 14 26  1  0  0  0  0
 15 28  1  0  0  0  0
 15 64  2  0  0  0  0
 16 27  1  0  0  0  0
 17 27  1  0  0  0  0
 17 31  2  0  0  0  0
 17 32  1  0  0  0  0
 18 20  2  0  0  0  0
 18 37  1  0  0  0  0
 19 21  2  0  0  0  0
 19 38  1  0  0  0  0
 20 46  1  0  0  0  0
 21 39  1  0  0  0  0
 22 84  1  0  0  0  0
 23 85  1  0  0  0  0
 24 26  2  0  0  0  0
 24 84  1  0  0  0  0
 25 86  1  0  0  0  0
 26 87  1  0  0  0  0
 27 65  2  0  0  0  0
 28 66  2  0  0  0  0
 28 72  1  0  0  0  0
 29 30  2  0  0  0  0
 29 64  1  0  0  0  0
 29 74  1  0  0  0  0
 30 66  1  0  0  0  0
 30 73  1  0  0  0  0
 31 67  1  0  0  0  0
 31 70  1  0  0  0  0
 32 71  1  0  0  0  0
 32 78  2  0  0  0  0
 33 47  1  0  0  0  0
 33 75  1  0  0  0  0
 33 79  2  0  0  0  0
 34 59  1  0  0  0  0
 34 68  1  0  0  0  0
 34 80  2  0  0  0  0
 35 60  1  0  0  0  0
 35 76  1  0  0  0  0
 35 81  2  0  0  0  0
 36 69  1  0  0  0  0
 36 72  1  0  0  0  0
 36 82  2  0  0  0  0
 37 40  1  0  0  0  0
 38 47  1  0  0  0  0
 39 68  1  0  0  0  0
 40 42  1  0  0  0  0
 41 43  1  0  0  0  0
 41 44  1  0  0  0  0
 42 46  1  0  0  0  0
 43 48  1  0  0  0  0
 44 69  1  0  0  0  0
 45 48  1  0  0  0  0
 45 69  1  0  0  0  0
 46 75  1  0  0  0  0
 47 68  1  0  0  0  0
 48 67  1  0  0  0  0
 49 60  1  0  0  0  0
 50 61  1  0  0  0  0
 51 61  1  0  0  0  0
 52 63  1  0  0  0  0
 53 63  1  0  0  0  0
 54 63  1  0  0  0  0
 55 77  1  0  0  0  0
 56 58  1  0  0  0  0
 56 62  1  0  0  0  0
 57 62  1  0  0  0  0
 57 73  1  0  0  0  0
 58 85  1  0  0  0  0
 59 63  1  0  0  0  0
 59 76  1  0  0  0  0
 60 77  1  0  0  0  0
 61 74  1  0  0  0  0
 62 83  1  0  0  0  0
 65 67  1  0  0  0  0
M  CHG  1  77   1
M  ISO  4  36 100  58 101  72 100  85 101
M  END
> <Batch ID>
0195

> <Smiles>
CNC(C)C(=O)NC(C(=O)N1Cc2cc([101O:1][101CH2:1]CC(O)CNc3nc([100NH:0][100C:0](=O)N4CCCC(n5nc(-c6ccc(Oc7ccc(F)cc7F)cc6)c(C(N)=O)c5N)C4)cnc3NC(C)C)ccc2CC1C(=O)NC1CCCc2ccccc21)C(C)(C)C

> <Shape>
0.248

> <Color>
0.080

> <Negative vol penalty>
0.000

$$$$

  -OEChem-04052305363D

 84 92  0     1  0  0  0  0  0999 V2000
  -24.7308   -6.5652   23.7881 C   0  0  0  0  0  0  0  0  0  0  0  0
  -25.8352   -7.3647   23.5115 C   0  0  0  0  0  0  0  0  0  0  0  0
  -23.5606  -29.0623   24.1939 C   0  0  0  0  0  0  0  0  0  0  0  0
  -24.7512  -29.6427   22.1734 C   0  0  0  0  0  0  0  0  0  0  0  0
  -23.5428   -6.7510   23.0823 C   0  0  0  0  0  0  0  0  0  0  0  0
  -25.7526   -8.3499   22.5281 C   0  0  0  0  0  0  0  0  0  0  0  0
  -28.5200  -13.8131   22.5486 C   0  0  0  0  0  0  0  0  0  0  0  0
  -23.2857  -30.4111   24.4194 C   0  0  0  0  0  0  0  0  0  0  0  0
  -24.4763  -30.9915   22.3989 C   0  0  0  0  0  0  0  0  0  0  0  0
  -29.6859  -14.2762   21.9405 C   0  0  0  0  0  0  0  0  0  0  0  0
  -24.3971  -34.6177   22.6313 C   0  0  0  0  0  0  0  0  0  0  0  0
  -25.4393  -35.5290   22.4614 C   0  0  0  0  0  0  0  0  0  0  0  0
  -28.3780  -15.1487   20.1109 C   0  0  0  0  0  0  0  0  0  0  0  0
  -26.7085  -34.3974   24.1777 C   0  0  0  0  0  0  0  0  0  0  0  0
  -27.8996  -20.9632   18.7263 C   0  0  0  0  0  0  0  0  0  0  0  0
  -24.2934  -28.6781   23.0710 C   0  0  0  0  0  0  0  0  0  0  0  0
  -23.7952  -26.3671   22.1125 C   0  0  0  0  0  0  0  0  0  0  0  0
  -23.4427   -7.7454   22.0965 C   0  0  0  0  0  0  0  0  0  0  0  0
  -27.2732  -14.0050   21.9361 C   0  0  0  0  0  0  0  0  0  0  0  0
  -24.5626   -8.5483   21.8076 C   0  0  0  0  0  0  0  0  0  0  0  0
  -27.1974  -14.6893   20.7146 C   0  0  0  0  0  0  0  0  0  0  0  0
  -23.7435  -31.3757   23.5219 C   0  0  0  0  0  0  0  0  0  0  0  0
  -29.6154  -14.9416   20.7201 C   0  0  0  0  0  0  0  0  0  0  0  0
  -24.5105  -33.5963   23.5745 C   0  0  0  0  0  0  0  0  0  0  0  0
  -26.5950  -35.4189   23.2345 C   0  0  0  0  0  0  0  0  0  0  0  0
  -25.6663  -33.4862   24.3476 C   0  0  0  0  0  0  0  0  0  0  0  0
  -24.5782  -27.2850   22.8378 C   0  0  0  0  0  0  0  0  0  0  0  0
  -28.7072  -21.0135   19.8411 C   0  0  0  0  0  0  0  0  0  0  0  0
  -28.9143  -19.0188   18.0790 C   0  0  0  0  0  0  0  0  0  0  0  0
  -29.7225  -19.0694   19.1934 C   0  0  0  0  0  0  0  0  0  0  0  0
  -24.4944  -25.1871   22.1846 C   0  0  0  0  0  0  0  0  0  0  0  0
  -22.5474  -26.5635   21.4341 C   0  0  0  0  0  0  0  0  0  0  0  0
  -25.0032  -12.0811   20.8184 C   0  0  0  0  0  0  0  0  0  0  0  0
  -23.3890  -14.8648   20.4093 C   0  0  0  0  0  0  0  0  0  0  0  0
  -23.5104  -18.2487   19.9833 C   0  0  0  0  0  0  0  0  0  0  0  0
  -29.2647  -22.3279   21.9167 C   0  0  0  0  0  0  0  0  0  0  0  0
  -22.1522   -7.8774   21.3271 C   0  0  0  0  0  0  0  0  0  0  0  0
  -26.0222  -13.5229   22.6181 C   0  0  0  0  0  0  0  0  0  0  0  0
  -25.8815  -14.9388   20.0257 C   0  0  0  0  0  0  0  0  0  0  0  0
  -22.0315   -9.1924   20.5612 C   0  0  0  0  0  0  0  0  0  0  0  0
  -28.4819  -23.8891   25.0195 C   0  0  0  0  0  0  0  0  0  0  0  0
  -23.3212   -9.4886   19.8025 C   0  0  0  0  0  0  0  0  0  0  0  0
  -27.3321  -24.8363   24.6688 C   0  0  0  0  0  0  0  0  0  0  0  0
  -29.5140  -23.8096   23.8959 C   0  0  0  0  0  0  0  0  0  0  0  0
  -27.8173  -24.4320   22.2217 C   0  0  0  0  0  0  0  0  0  0  0  0
  -24.5045   -9.6440   20.7654 C   0  0  1  0  0  0  0  0  0  0  0  0
  -24.8566  -13.3207   21.6548 C   0  0  1  0  0  0  0  0  0  0  0  0
  -26.7195  -24.4950   23.2963 C   0  0  2  0  0  0  0  0  0  0  0  0
  -34.1021  -17.5080   18.3334 C   0  0  0  0  0  0  0  0  0  0  0  0
  -22.0296  -20.2452   19.6392 C   0  0  0  0  0  0  0  0  0  0  0  0
  -22.9665  -14.0470   17.5002 C   0  0  0  0  0  0  0  0  0  0  0  0
  -22.3519  -16.4209   16.9949 C   0  0  0  0  0  0  0  0  0  0  0  0
  -20.9722  -15.0898   18.5909 C   0  0  0  0  0  0  0  0  0  0  0  0
  -24.4461  -19.5195   22.4870 C   0  0  0  0  0  0  0  0  0  0  0  0
  -33.2138  -16.4671   18.9997 C   0  0  0  0  0  0  0  0  0  0  0  0
  -31.8067  -18.2200   20.2705 C   0  0  0  0  0  0  0  0  0  0  0  0
  -31.8301  -15.7678   20.9808 C   0  0  0  0  0  0  0  0  0  1  0  0
  -23.2688  -15.8773   19.2960 C   0  0  1  0  0  0  0  0  0  0  0  0
  -22.7511  -19.3767   20.6580 C   0  0  2  0  0  0  0  0  0  0  0  0
  -32.6308  -16.9211   20.3530 C   0  0  1  0  0  0  0  0  0  0  0  0
  -22.4150  -15.3525   18.1073 C   0  0  0  0  0  0  0  0  0  0  0  0
  -27.9887  -19.9649   17.8252 N   0  0  0  0  0  0  0  0  0  0  0  0
  -25.6897  -26.7354   23.3343 N   0  0  0  0  0  0  0  0  0  0  0  0
  -29.6332  -20.0676   20.0946 N   0  0  0  0  0  0  0  0  0  0  0  0
  -25.6101  -25.4593   22.9204 N   0  0  0  0  0  0  0  0  0  0  0  0
  -24.6872  -14.4427   20.7292 N   0  0  0  0  0  0  0  0  0  0  0  0
  -28.8617  -23.4783   22.6272 N   0  0  0  0  0  0  0  0  0  0  0  0
  -29.0494  -17.9486   17.1654 N   0  0  0  0  0  0  0  0  0  0  0  0
  -24.2575  -23.9536   21.6898 N   0  0  0  0  0  0  0  0  0  0  0  0
  -21.9668  -27.8389   21.4592 N   0  0  0  0  0  0  0  0  0  0  0  0
  -28.5511  -22.0968   20.7412 N   0  0  0  0  0  0  0  0  0  0  0  0
  -30.6591  -18.0709   19.4069 N   0  0  0  0  0  0  0  0  0  0  0  0
  -24.4730  -10.9447   21.3990 N   0  0  0  0  0  0  0  0  0  0  0  0
  -22.7548  -17.0978   19.9079 N   0  0  0  0  0  0  0  0  0  0  0  0
  -23.6865  -20.2400   21.4330 N   0  3  0  0  0  0  0  0  0  0  0  0
  -21.9564  -25.6316   20.8377 O   0  0  0  0  0  0  0  0  0  0  0  0
  -25.5551  -12.1507   19.7265 O   0  0  0  0  0  0  0  0  0  0  0  0
  -22.3692  -14.4686   20.9790 O   0  0  0  0  0  0  0  0  0  0  0  0
  -24.6578  -18.3768   19.5617 O   0  0  0  0  0  0  0  0  0  0  0  0
  -30.1573  -21.5862   22.3353 O   0  0  0  0  0  0  0  0  0  0  0  0
  -23.4752  -32.6919   23.7415 O   0  0  0  0  0  0  0  0  0  0  0  0
  -30.7519  -15.3941   20.1240 O   0  0  0  0  0  0  0  0  0  1  0  0
  -27.5964  -36.2932   23.0702 F   0  0  0  0  0  0  0  0  0  0  0  0
  -25.7815  -32.5063   25.2545 F   0  0  0  0  0  0  0  0  0  0  0  0
  1  2  1  0  0  0  0
  1  5  2  0  0  0  0
  2  6  2  0  0  0  0
  3  8  2  0  0  0  0
  3 16  1  0  0  0  0
  4  9  1  0  0  0  0
  4 16  2  0  0  0  0
  5 18  1  0  0  0  0
  6 20  1  0  0  0  0
  7 10  2  0  0  0  0
  7 19  1  0  0  0  0
  8 22  1  0  0  0  0
  9 22  2  0  0  0  0
 10 23  1  0  0  0  0
 11 12  2  0  0  0  0
 11 24  1  0  0  0  0
 12 25  1  0  0  0  0
 13 21  1  0  0  0  0
 13 23  2  0  0  0  0
 14 25  2  0  0  0  0
 14 26  1  0  0  0  0
 15 28  1  0  0  0  0
 15 62  2  0  0  0  0
 16 27  1  0  0  0  0
 17 27  1  0  0  0  0
 17 31  2  0  0  0  0
 17 32  1  0  0  0  0
 18 20  2  0  0  0  0
 18 37  1  0  0  0  0
 19 21  2  0  0  0  0
 19 38  1  0  0  0  0
 20 46  1  0  0  0  0
 21 39  1  0  0  0  0
 22 81  1  0  0  0  0
 23 82  1  0  0  0  0
 24 26  2  0  0  0  0
 24 81  1  0  0  0  0
 25 83  1  0  0  0  0
 26 84  1  0  0  0  0
 27 63  2  0  0  0  0
 28 64  2  0  0  0  0
 28 71  1  0  0  0  0
 29 30  2  0  0  0  0
 29 62  1  0  0  0  0
 29 68  1  0  0  0  0
 30 64  1  0  0  0  0
 30 72  1  0  0  0  0
 31 65  1  0  0  0  0
 31 69  1  0  0  0  0
 32 70  1  0  0  0  0
 32 76  2  0  0  0  0
 33 47  1  0  0  0  0
 33 73  1  0  0  0  0
 33 77  2  0  0  0  0
 34 58  1  0  0  0  0
 34 66  1  0  0  0  0
 34 78  2  0  0  0  0
 35 59  1  0  0  0  0
 35 74  1  0  0  0  0
 35 79  2  0  0  0  0
 36 67  1  0  0  0  0
 36 71  1  0  0  0  0
 36 80  2  0  0  0  0
 37 40  1  0  0  0  0
 38 47  1  0  0  0  0
 39 66  1  0  0  0  0
 40 42  1  0  0  0  0
 41 43  1  0  0  0  0
 41 44  1  0  0  0  0
 42 46  1  0  0  0  0
 43 48  1  0  0  0  0
 44 67  1  0  0  0  0
 45 48  1  0  0  0  0
 45 67  1  0  0  0  0
 46 73  1  0  0  0  0
 47 66  1  0  0  0  0
 48 65  1  0  0  0  0
 49 55  1  0  0  0  0
 50 59  1  0  0  0  0
 51 61  1  0  0  0  0
 52 61  1  0  0  0  0
 53 61  1  0  0  0  0
 54 75  1  0  0  0  0
 55 60  1  0  0  0  0
 56 60  1  0  0  0  0
 56 72  1  0  0  0  0
 57 60  1  0  0  0  0
 57 82  1  0  0  0  0
 58 61  1  0  0  0  0
 58 74  1  0  0  0  0
 59 75  1  0  0  0  0
 63 65  1  0  0  0  0
M  CHG  1  75   1
M  ISO  4  36 100  57 101  71 100  82 101
M  END
> <Batch ID>
0195

> <Smiles>
CCC(CNc1nc([100NH:0][100C:0](=O)N2CCCC(n3nc(-c4ccc(Oc5ccc(F)cc5F)cc4)c(C(N)=O)c3N)C2)cnc1N)[101CH2:1][101O:1]c1ccc2c(c1)CN(C(=O)C(NC(=O)C(C)NC)C(C)(C)C)C(C(=O)NC1CCCc3ccccc31)C2

> <Shape>
0.226

> <Color>
0.068

> <Negative vol penalty>
0.000

$$$$

  -OEChem-04052305363D

 88 96  0     1  0  0  0  0  0999 V2000
  -23.2645  -17.3767   22.4424 C   0  0  0  0  0  0  0  0  0  0  0  0
  -24.1179  -18.4358   22.7307 C   0  0  0  0  0  0  0  0  0  0  0  0
  -25.6586  -13.1936   21.9134 C   0  0  0  0  0  0  0  0  0  0  0  0
  -26.1790  -13.4556   19.5687 C   0  0  0  0  0  0  0  0  0  0  0  0
  -22.1689  -17.5774   21.6055 C   0  0  0  0  0  0  0  0  0  0  0  0
  -23.8692  -19.6986   22.1918 C   0  0  0  0  0  0  0  0  0  0  0  0
  -27.0958  -24.8562   22.5321 C   0  0  0  0  0  0  0  0  0  0  0  0
  -24.5641  -12.3952   21.5813 C   0  0  0  0  0  0  0  0  0  0  0  0
  -25.0845  -12.6571   19.2366 C   0  0  0  0  0  0  0  0  0  0  0  0
  -28.0898  -25.4987   21.7952 C   0  0  0  0  0  0  0  0  0  0  0  0
  -24.0097   -9.1955   20.6390 C   0  0  0  0  0  0  0  0  0  0  0  0
  -23.8219   -8.0189   21.3641 C   0  0  0  0  0  0  0  0  0  0  0  0
  -26.4063  -26.8365   20.7020 C   0  0  0  0  0  0  0  0  0  0  0  0
  -21.6582   -8.8117   22.0902 C   0  0  0  0  0  0  0  0  0  0  0  0
  -28.4147  -21.7324   15.5777 C   0  0  0  0  0  0  0  0  0  0  0  0
  -26.4660  -13.7239   20.9071 C   0  0  0  0  0  0  0  0  0  0  0  0
  -28.9159  -14.1244   21.4947 C   0  0  0  0  0  0  0  0  0  0  0  0
  -21.9145  -18.8406   21.0464 C   0  0  0  0  0  0  0  0  0  0  0  0
  -25.7464  -25.1920   22.3512 C   0  0  0  0  0  0  0  0  0  0  0  0
  -22.7550  -19.9268   21.3641 C   0  0  0  0  0  0  0  0  0  0  0  0
  -25.3973  -26.1986   21.4396 C   0  0  0  0  0  0  0  0  0  0  0  0
  -29.1906  -22.8732   15.6089 C   0  0  0  0  0  0  0  0  0  0  0  0
  -24.2771  -12.1269   20.2429 C   0  0  0  0  0  0  0  0  0  0  0  0
  -27.7449  -26.4870   20.8780 C   0  0  0  0  0  0  0  0  0  0  0  0
  -23.0218  -10.1803   20.6395 C   0  0  0  0  0  0  0  0  0  0  0  0
  -22.6461   -7.8270   22.0897 C   0  0  0  0  0  0  0  0  0  0  0  0
  -21.8461   -9.9884   21.3651 C   0  0  0  0  0  0  0  0  0  0  0  0
  -27.5963  -14.5492   21.2495 C   0  0  0  0  0  0  0  0  0  0  0  0
  -29.6551  -23.2454   16.8539 C   0  0  0  0  0  0  0  0  0  0  0  0
  -29.6022  -15.2805   21.7754 C   0  0  0  0  0  0  0  0  0  0  0  0
  -28.6221  -21.4692   17.8260 C   0  0  0  0  0  0  0  0  0  0  0  0
  -29.4715  -12.8029   21.4708 C   0  0  0  0  0  0  0  0  0  0  0  0
  -23.1573  -23.6283   21.3737 C   0  0  0  0  0  0  0  0  0  0  0  0
  -21.6560  -26.3785   22.2135 C   0  0  0  0  0  0  0  0  0  0  0  0
  -21.8589  -29.7427   22.7501 C   0  0  0  0  0  0  0  0  0  0  0  0
  -28.7322  -21.0050   20.2996 C   0  0  0  0  0  0  0  0  0  0  0  0
  -20.7099  -19.0037   20.1533 C   0  0  0  0  0  0  0  0  0  0  0  0
  -24.6883  -24.5083   23.1731 C   0  0  0  0  0  0  0  0  0  0  0  0
  -23.9648  -26.6102   21.2229 C   0  0  0  0  0  0  0  0  0  0  0  0
  -20.7807  -20.2535   19.2820 C   0  0  0  0  0  0  0  0  0  0  0  0
  -28.9662  -19.6663   23.5906 C   0  0  0  0  0  0  0  0  0  0  0  0
  -21.1321  -21.4629   20.1354 C   0  0  0  0  0  0  0  0  0  0  0  0
  -28.7676  -18.1627   23.3853 C   0  0  0  0  0  0  0  0  0  0  0  0
  -28.0925  -20.4881   22.6446 C   0  0  0  0  0  0  0  0  0  0  0  0
  -28.0227  -18.6393   21.0178 C   0  0  0  0  0  0  0  0  0  0  0  0
  -22.5217  -21.3019   20.7648 C   0  0  1  0  0  0  0  0  0  0  0  0
  -23.3037  -24.5699   22.5355 C   0  0  1  0  0  0  0  0  0  0  0  0
  -28.9299  -17.7700   21.9037 C   0  0  2  0  0  0  0  0  0  0  0  0
  -20.4575  -31.7233   23.3909 C   0  0  0  0  0  0  0  0  0  0  0  0
  -33.4728  -23.1125   19.8831 C   0  0  0  0  0  0  0  0  0  0  0  0
  -35.0244  -22.8767   17.9338 C   0  0  0  0  0  0  0  0  0  0  0  0
  -20.4497  -26.4286   19.4113 C   0  0  0  0  0  0  0  0  0  0  0  0
  -19.8638  -28.8343   19.7822 C   0  0  0  0  0  0  0  0  0  0  0  0
  -18.8686  -27.0712   21.2394 C   0  0  0  0  0  0  0  0  0  0  0  0
  -23.4816  -30.2537   25.1718 C   0  0  0  0  0  0  0  0  0  0  0  0
  -30.4983  -26.8506   18.5438 C   0  0  0  0  0  0  0  0  0  0  0  0
  -32.6927  -23.7202   17.5302 C   0  0  0  0  0  0  0  0  0  0  0  0
  -29.8901  -26.3672   19.8583 C   0  0  0  0  0  0  0  0  0  1  0  0
  -21.3111  -27.6670   21.5067 C   0  0  1  0  0  0  0  0  0  0  0  0
  -21.3662  -30.6119   23.8929 C   0  0  2  0  0  0  0  0  0  0  0  0
  -33.8698  -23.6914   18.5247 C   0  0  0  0  0  0  0  0  0  0  0  0
  -31.4686  -24.5541   17.9603 C   0  0  1  0  0  0  0  0  0  0  0  0
  -31.7548  -26.0574   18.1592 C   0  0  1  0  0  0  0  0  0  0  0  0
  -20.1502  -27.4914   20.4873 C   0  0  0  0  0  0  0  0  0  0  0  0
  -28.1095  -21.0033   16.6712 N   0  0  0  0  0  0  0  0  0  0  0  0
  -27.4507  -15.8719   21.3645 N   0  0  0  0  0  0  0  0  0  0  0  0
  -29.3891  -22.5642   17.9877 N   0  0  0  0  0  0  0  0  0  0  0  0
  -28.6876  -16.2882   21.6851 N   0  0  0  0  0  0  0  0  0  0  0  0
  -22.9661  -25.9080   22.0457 N   0  0  0  0  0  0  0  0  0  0  0  0
  -28.3025  -20.0636   21.2587 N   0  0  0  0  0  0  0  0  0  0  0  0
  -29.4730  -23.5868   14.4368 N   0  0  0  0  0  0  0  0  0  0  0  0
  -30.8928  -15.5232   22.0883 N   0  0  0  0  0  0  0  0  0  0  0  0
  -28.6260  -11.7280   21.1638 N   0  0  0  0  0  0  0  0  0  0  0  0
  -30.4374  -24.3784   16.9510 N   0  0  0  0  0  0  0  0  0  0  0  0
  -28.3219  -20.7282   18.9959 N   0  0  0  0  0  0  0  0  0  0  0  0
  -22.7303  -22.3622   21.7261 N   0  0  0  0  0  0  0  0  0  0  0  0
  -21.0441  -28.6479   22.5531 N   0  0  0  0  0  0  0  0  0  0  0  0
  -22.5185  -31.2328   24.6055 N   0  3  0  0  0  0  0  0  0  0  0  0
  -30.6783  -12.5799   21.7306 O   0  0  0  0  0  0  0  0  0  0  0  0
  -23.4114  -24.0218   20.2413 O   0  0  0  0  0  0  0  0  0  0  0  0
  -20.7969  -25.8141   22.8954 O   0  0  0  0  0  0  0  0  0  0  0  0
  -22.8638  -30.0102   22.0950 O   0  0  0  0  0  0  0  0  0  0  0  0
  -29.4367  -21.9698   20.6076 O   0  0  0  0  0  0  0  0  0  0  0  0
  -32.3094  -26.6257   16.9745 O   0  0  0  0  0  0  0  0  0  0  0  0
  -23.2094  -11.3476   19.9185 O   0  0  0  0  0  0  0  0  0  0  0  0
  -28.7199  -27.1196   20.1520 O   0  0  0  0  0  0  0  0  0  1  0  0
  -22.4653   -6.6963   22.7847 F   0  0  0  0  0  0  0  0  0  0  0  0
  -20.8929  -10.9304   21.3684 F   0  0  0  0  0  0  0  0  0  0  0  0
  1  2  1  0  0  0  0
  1  5  2  0  0  0  0
  2  6  2  0  0  0  0
  3  8  2  0  0  0  0
  3 16  1  0  0  0  0
  4  9  1  0  0  0  0
  4 16  2  0  0  0  0
  5 18  1  0  0  0  0
  6 20  1  0  0  0  0
  7 10  2  0  0  0  0
  7 19  1  0  0  0  0
  8 23  1  0  0  0  0
  9 23  2  0  0  0  0
 10 24  1  0  0  0  0
 11 12  2  0  0  0  0
 11 25  1  0  0  0  0
 12 26  1  0  0  0  0
 13 21  1  0  0  0  0
 13 24  2  0  0  0  0
 14 26  2  0  0  0  0
 14 27  1  0  0  0  0
 15 22  1  0  0  0  0
 15 65  2  0  0  0  0
 16 28  1  0  0  0  0
 17 28  1  0  0  0  0
 17 30  2  0  0  0  0
 17 32  1  0  0  0  0
 18 20  2  0  0  0  0
 18 37  1  0  0  0  0
 19 21  2  0  0  0  0
 19 38  1  0  0  0  0
 20 46  1  0  0  0  0
 21 39  1  0  0  0  0
 22 29  2  0  0  0  0
 22 71  1  0  0  0  0
 23 85  1  0  0  0  0
 24 86  1  0  0  0  0
 25 27  2  0  0  0  0
 25 85  1  0  0  0  0
 26 87  1  0  0  0  0
 27 88  1  0  0  0  0
 28 66  2  0  0  0  0
 29 67  1  0  0  0  0
 29 74  1  0  0  0  0
 30 68  1  0  0  0  0
 30 72  1  0  0  0  0
 31 65  1  0  0  0  0
 31 67  2  0  0  0  0
 31 75  1  0  0  0  0
 32 73  1  0  0  0  0
 32 79  2  0  0  0  0
 33 47  1  0  0  0  0
 33 76  1  0  0  0  0
 33 80  2  0  0  0  0
 34 59  1  0  0  0  0
 34 69  1  0  0  0  0
 34 81  2  0  0  0  0
 35 60  1  0  0  0  0
 35 77  1  0  0  0  0
 35 82  2  0  0  0  0
 36 70  1  0  0  0  0
 36 75  1  0  0  0  0
 36 83  2  0  0  0  0
 37 40  1  0  0  0  0
 38 47  1  0  0  0  0
 39 69  1  0  0  0  0
 40 42  1  0  0  0  0
 41 43  1  0  0  0  0
 41 44  1  0  0  0  0
 42 46  1  0  0  0  0
 43 48  1  0  0  0  0
 44 70  1  0  0  0  0
 45 48  1  0  0  0  0
 45 70  1  0  0  0  0
 46 76  1  0  0  0  0
 47 69  1  0  0  0  0
 48 68  1  0  0  0  0
 49 60  1  0  0  0  0
 50 61  1  0  0  0  0
 51 61  1  0  0  0  0
 52 64  1  0  0  0  0
 53 64  1  0  0  0  0
 54 64  1  0  0  0  0
 55 78  1  0  0  0  0
 56 58  1  0  0  0  0
 56 63  1  0  0  0  0
 57 61  1  0  0  0  0
 57 62  1  0  0  0  0
 58 86  1  0  0  0  0
 59 64  1  0  0  0  0
 59 77  1  0  0  0  0
 60 78  1  0  0  0  0
 62 63  1  0  0  0  0
 62 74  1  0  0  0  0
 63 84  1  0  0  0  0
 66 68  1  0  0  0  0
M  CHG  1  78   1
M  ISO  4  36 100  58 101  75 100  86 101
M  END
> <Batch ID>
0195

> <Smiles>
CNC(C)C(=O)NC(C(=O)N1Cc2cc([101O:1][101CH2:1]CC(O)C(CC(C)C)Nc3nc([100NH:0][100C:0](=O)N4CCCC(n5nc(-c6ccc(Oc7ccc(F)cc7F)cc6)c(C(N)=O)c5N)C4)ncc3N)ccc2CC1C(=O)NC1CCCc2ccccc21)C(C)(C)C

> <Shape>
0.236

> <Color>
0.059

> <Negative vol penalty>
0.000

$$$$

  -OEChem-04052305363D

 84 92  0     1  0  0  0  0  0999 V2000
  -33.6098  -30.4185   17.1145 C   0  0  0  0  0  0  0  0  0  0  0  0
  -32.7138  -29.4832   16.6067 C   0  0  0  0  0  0  0  0  0  0  0  0
  -28.2785  -17.8077   21.3101 C   0  0  0  0  0  0  0  0  0  0  0  0
  -26.0009  -18.0400   20.5382 C   0  0  0  0  0  0  0  0  0  0  0  0
  -33.6682  -30.6523   18.4877 C   0  0  0  0  0  0  0  0  0  0  0  0
  -31.8763  -28.7803   17.4722 C   0  0  0  0  0  0  0  0  0  0  0  0
  -25.3322  -25.8830   17.7816 C   0  0  0  0  0  0  0  0  0  0  0  0
  -28.1658  -16.4200   21.2249 C   0  0  0  0  0  0  0  0  0  0  0  0
  -25.8883  -16.6523   20.4530 C   0  0  0  0  0  0  0  0  0  0  0  0
  -24.7006  -24.6796   18.0929 C   0  0  0  0  0  0  0  0  0  0  0  0
  -28.2682  -14.0563   18.8093 C   0  0  0  0  0  0  0  0  0  0  0  0
  -29.3209  -13.3554   18.2210 C   0  0  0  0  0  0  0  0  0  0  0  0
  -24.8337  -25.2236   20.4393 C   0  0  0  0  0  0  0  0  0  0  0  0
  -29.6502  -12.1261   20.2747 C   0  0  0  0  0  0  0  0  0  0  0  0
  -27.1959  -18.6177   20.9668 C   0  0  0  0  0  0  0  0  0  0  0  0
  -27.7431  -20.9331   20.0464 C   0  0  0  0  0  0  0  0  0  0  0  0
  -32.8243  -29.9589   19.3695 C   0  0  0  0  0  0  0  0  0  0  0  0
  -25.7297  -26.7622   18.7992 C   0  0  0  0  0  0  0  0  0  0  0  0
  -31.9244  -29.0041   18.8587 C   0  0  0  0  0  0  0  0  0  0  0  0
  -25.4678  -26.4387   20.1382 C   0  0  0  0  0  0  0  0  0  0  0  0
  -26.9708  -15.8423   20.7963 C   0  0  0  0  0  0  0  0  0  0  0  0
  -24.4539  -24.3484   19.4220 C   0  0  0  0  0  0  0  0  0  0  0  0
  -27.9065  -13.7921   20.1304 C   0  0  0  0  0  0  0  0  0  0  0  0
  -30.0119  -12.3903   18.9537 C   0  0  0  0  0  0  0  0  0  0  0  0
  -28.5975  -12.8270   20.8630 C   0  0  0  0  0  0  0  0  0  0  0  0
  -27.3115  -20.0512   21.0552 C   0  0  0  0  0  0  0  0  0  0  0  0
  -27.6731  -22.1769   20.6246 C   0  0  0  0  0  0  0  0  0  0  0  0
  -21.0695  -23.7060   24.7428 C   0  0  0  0  0  0  0  0  0  0  0  0
  -20.8461  -24.8996   22.2741 C   0  0  0  0  0  0  0  0  0  0  0  0
  -28.1692  -20.6529   18.7063 C   0  0  0  0  0  0  0  0  0  0  0  0
  -21.1021  -22.5258   21.7558 C   0  0  0  0  0  0  0  0  0  0  0  0
  -28.5133  -27.9330   19.7913 C   0  0  0  0  0  0  0  0  0  0  0  0
  -26.6268  -29.7129   21.7397 C   0  0  0  0  0  0  0  0  0  0  0  0
  -23.6387  -30.0624   23.3508 C   0  0  0  0  0  0  0  0  0  0  0  0
  -24.4120  -24.4033   25.1257 C   0  0  0  0  0  0  0  0  0  0  0  0
  -32.9568  -30.2114   20.8505 C   0  0  0  0  0  0  0  0  0  0  0  0
  -26.3858  -28.0686   18.4455 C   0  0  0  0  0  0  0  0  0  0  0  0
  -25.8565  -27.3574   21.2666 C   0  0  0  0  0  0  0  0  0  0  0  0
  -31.7730  -29.6955   21.6647 C   0  0  0  0  0  0  0  0  0  0  0  0
  -27.9633  -24.3513   24.8765 C   0  0  0  0  0  0  0  0  0  0  0  0
  -31.4075  -28.2780   21.2359 C   0  0  0  0  0  0  0  0  0  0  0  0
  -28.2379  -23.3230   23.7779 C   0  0  0  0  0  0  0  0  0  0  0  0
  -26.7689  -23.9502   25.7392 C   0  0  0  0  0  0  0  0  0  0  0  0
  -25.8063  -22.6350   23.8906 C   0  0  0  0  0  0  0  0  0  0  0  0
  -30.9823  -28.2395   19.7631 C   0  0  1  0  0  0  0  0  0  0  0  0
  -22.0689  -24.7530   24.3864 C   0  0  2  0  0  0  0  0  0  0  0  0
  -20.3248  -23.5310   22.5068 C   0  0  1  0  0  0  0  0  0  0  0  0
  -27.2097  -28.6524   19.5890 C   0  0  1  0  0  0  0  0  0  0  0  0
  -26.9674  -23.0239   22.9596 C   0  0  2  0  0  0  0  0  0  0  0  0
  -22.4043  -31.6033   24.8997 C   0  0  0  0  0  0  0  0  0  0  0  0
  -20.8401  -21.2492   18.5280 C   0  0  0  0  0  0  0  0  0  0  0  0
  -28.2984  -28.6949   24.0805 C   0  0  0  0  0  0  0  0  0  0  0  0
  -26.4854  -29.4718   25.6225 C   0  0  0  0  0  0  0  0  0  0  0  0
  -27.7029  -31.1209   24.2009 C   0  0  0  0  0  0  0  0  0  0  0  0
  -21.5010  -30.5390   21.3603 C   0  0  0  0  0  0  0  0  0  0  0  0
  -22.9164  -22.6548   18.7711 C   0  0  0  0  0  0  0  0  0  1  0  0
  -26.0526  -29.5366   23.1246 C   0  0  1  0  0  0  0  0  0  0  0  0
  -22.6790  -31.2344   23.4502 C   0  0  2  0  0  0  0  0  0  0  0  0
  -21.8610  -21.8283   19.4934 C   0  0  1  0  0  0  0  0  0  0  0  0
  -27.1291  -29.6876   24.2362 C   0  0  0  0  0  0  0  0  0  0  0  0
  -26.9911  -20.6813   22.1885 N   0  0  0  0  0  0  0  0  0  0  0  0
  -20.2652  -23.1351   23.9176 N   0  0  0  0  0  0  0  0  0  0  0  0
  -27.2217  -21.9724   21.8953 N   0  0  0  0  0  0  0  0  0  0  0  0
  -26.5010  -28.6203   20.8700 N   0  0  0  0  0  0  0  0  0  0  0  0
  -25.5966  -23.6821   24.9027 N   0  0  0  0  0  0  0  0  0  0  0  0
  -21.6659  -25.4362   23.1676 N   0  3  0  0  0  0  0  0  0  0  0  0
  -27.9543  -23.4147   20.1650 N   0  0  0  0  0  0  0  0  0  0  0  0
  -20.4621  -25.5113   21.1615 N   0  0  0  0  0  0  0  0  0  0  0  0
  -28.1806  -19.3198   18.2738 N   0  0  0  0  0  0  0  0  0  0  0  0
  -21.6712  -21.5597   22.4678 N   0  0  0  0  0  0  0  0  0  0  0  0
  -29.6286  -28.7294   19.6148 N   0  0  0  0  0  0  0  0  0  0  0  0
  -24.9467  -30.4821   23.2314 N   0  0  0  0  0  0  0  0  0  0  0  0
  -23.3508  -24.0919   24.2845 N   0  0  0  0  0  0  0  0  0  0  0  0
  -21.1483  -22.7006   20.4381 N   0  3  0  0  0  0  0  0  0  0  0  0
  -21.3823  -30.8989   22.7968 N   0  3  0  0  0  0  0  0  0  0  0  0
  -28.5447  -21.5563   17.9213 O   0  0  0  0  0  0  0  0  0  0  0  0
  -28.5076  -26.7439   20.0872 O   0  0  0  0  0  0  0  0  0  0  0  0
  -27.1608  -30.7832   21.4382 O   0  0  0  0  0  0  0  0  0  0  0  0
  -23.2657  -28.8917   23.3801 O   0  0  0  0  0  0  0  0  0  0  0  0
  -24.3095  -25.2649   26.0055 O   0  0  0  0  0  0  0  0  0  0  0  0
  -26.8606  -14.4883   20.7128 O   0  0  0  0  0  0  0  0  0  0  0  0
  -23.8383  -23.1742   19.7286 O   0  0  0  0  0  0  0  0  0  1  0  0
  -31.0218  -11.7162   18.3881 F   0  0  0  0  0  0  0  0  0  0  0  0
  -28.2538  -12.5680   22.1321 F   0  0  0  0  0  0  0  0  0  0  0  0
  1  2  1  0  0  0  0
  1  5  2  0  0  0  0
  2  6  2  0  0  0  0
  3  8  2  0  0  0  0
  3 15  1  0  0  0  0
  4  9  1  0  0  0  0
  4 15  2  0  0  0  0
  5 17  1  0  0  0  0
  6 19  1  0  0  0  0
  7 10  2  0  0  0  0
  7 18  1  0  0  0  0
  8 21  1  0  0  0  0
  9 21  2  0  0  0  0
 10 22  1  0  0  0  0
 11 12  2  0  0  0  0
 11 23  1  0  0  0  0
 12 24  1  0  0  0  0
 13 20  1  0  0  0  0
 13 22  2  0  0  0  0
 14 24  2  0  0  0  0
 14 25  1  0  0  0  0
 15 26  1  0  0  0  0
 16 26  1  0  0  0  0
 16 27  2  0  0  0  0
 16 30  1  0  0  0  0
 17 19  2  0  0  0  0
 17 36  1  0  0  0  0
 18 20  2  0  0  0  0
 18 37  1  0  0  0  0
 19 45  1  0  0  0  0
 20 38  1  0  0  0  0
 21 81  1  0  0  0  0
 22 82  1  0  0  0  0
 23 25  2  0  0  0  0
 23 81  1  0  0  0  0
 24 83  1  0  0  0  0
 25 84  1  0  0  0  0
 26 61  2  0  0  0  0
 27 63  1  0  0  0  0
 27 67  1  0  0  0  0
 28 46  1  0  0  0  0
 28 62  2  0  0  0  0
 29 47  1  0  0  0  0
 29 66  2  0  0  0  0
 29 68  1  0  0  0  0
 30 69  1  0  0  0  0
 30 76  2  0  0  0  0
 31 47  1  0  0  0  0
 31 70  1  0  0  0  0
 31 74  2  0  0  0  0
 32 48  1  0  0  0  0
 32 71  1  0  0  0  0
 32 77  2  0  0  0  0
 33 57  1  0  0  0  0
 33 64  1  0  0  0  0
 33 78  2  0  0  0  0
 34 58  1  0  0  0  0
 34 72  1  0  0  0  0
 34 79  2  0  0  0  0
 35 65  1  0  0  0  0
 35 73  1  0  0  0  0
 35 80  2  0  0  0  0
 36 39  1  0  0  0  0
 37 48  1  0  0  0  0
 38 64  1  0  0  0  0
 39 41  1  0  0  0  0
 40 42  1  0  0  0  0
 40 43  1  0  0  0  0
 41 45  1  0  0  0  0
 42 49  1  0  0  0  0
 43 65  1  0  0  0  0
 44 49  1  0  0  0  0
 44 65  1  0  0  0  0
 45 71  1  0  0  0  0
 46 66  1  0  0  0  0
 46 73  1  0  0  0  0
 47 62  1  0  0  0  0
 48 64  1  0  0  0  0
 49 63  1  0  0  0  0
 50 58  1  0  0  0  0
 51 59  1  0  0  0  0
 52 60  1  0  0  0  0
 53 60  1  0  0  0  0
 54 60  1  0  0  0  0
 55 75  1  0  0  0  0
 56 59  1  0  0  0  0
 56 82  1  0  0  0  0
 57 60  1  0  0  0  0
 57 72  1  0  0  0  0
 58 75  1  0  0  0  0
 59 74  1  0  0  0  0
 61 63  1  0  0  0  0
M  CHG  3  66   1  74   1  75   1
M  ISO  4  35 100  56 101  73 100  82 101
M  END
> <Batch ID>
0195

> <Smiles>
CNC(C)C(=O)NC(C(=O)N1Cc2cc([101O:1][101CH2:1]C(C)NC(N)c3ncc([100NH:0][100C:0](=O)N4CCCC(n5nc(-c6ccc(Oc7ccc(F)cc7F)cc6)c(C(N)=O)c5N)C4)nc3N)ccc2CC1C(=O)NC1CCCc2ccccc21)C(C)(C)C

> <Shape>
0.196

> <Color>
0.065

> <Negative vol penalty>
0.000

$$$$

  -OEChem-04052305363D

 83 91  0     1  0  0  0  0  0999 V2000
  -19.7424  -34.1373   23.3604 C   0  0  0  0  0  0  0  0  0  0  0  0
  -21.0428  -33.8425   22.9638 C   0  0  0  0  0  0  0  0  0  0  0  0
  -27.1394  -12.9708   21.0400 C   0  0  0  0  0  0  0  0  0  0  0  0
  -27.0702  -13.2975   18.6472 C   0  0  0  0  0  0  0  0  0  0  0  0
  -18.9418  -33.1409   23.9172 C   0  0  0  0  0  0  0  0  0  0  0  0
  -21.5439  -32.5513   23.1248 C   0  0  0  0  0  0  0  0  0  0  0  0
  -25.4600  -29.6343   19.4286 C   0  0  0  0  0  0  0  0  0  0  0  0
  -26.4045  -11.7935   20.9005 C   0  0  0  0  0  0  0  0  0  0  0  0
  -26.3354  -12.1201   18.5077 C   0  0  0  0  0  0  0  0  0  0  0  0
  -26.8384  -29.4352   19.4921 C   0  0  0  0  0  0  0  0  0  0  0  0
  -23.1759  -10.9148   20.4230 C   0  0  0  0  0  0  0  0  0  0  0  0
  -22.1171  -10.7041   21.3062 C   0  0  0  0  0  0  0  0  0  0  0  0
  -26.4740  -27.2780   20.5083 C   0  0  0  0  0  0  0  0  0  0  0  0
  -23.1762   -8.6802   22.0931 C   0  0  0  0  0  0  0  0  0  0  0  0
  -31.9375  -21.7310   17.2892 C   0  0  0  0  0  0  0  0  0  0  0  0
  -32.7726  -23.9649   16.9778 C   0  0  0  0  0  0  0  0  0  0  0  0
  -27.4722  -13.7228   19.9133 C   0  0  0  0  0  0  0  0  0  0  0  0
  -29.6318  -15.0752   20.0347 C   0  0  0  0  0  0  0  0  0  0  0  0
  -19.4300  -31.8344   24.0763 C   0  0  0  0  0  0  0  0  0  0  0  0
  -24.5769  -28.6597   19.9154 C   0  0  0  0  0  0  0  0  0  0  0  0
  -20.7496  -31.5367   23.6855 C   0  0  0  0  0  0  0  0  0  0  0  0
  -25.0847  -27.4660   20.4476 C   0  0  0  0  0  0  0  0  0  0  0  0
  -26.0026  -11.3681   19.6344 C   0  0  0  0  0  0  0  0  0  0  0  0
  -27.3457  -28.2582   20.0346 C   0  0  0  0  0  0  0  0  0  0  0  0
  -24.2349  -10.0082   20.3747 C   0  0  0  0  0  0  0  0  0  0  0  0
  -22.1173   -9.5869   22.1413 C   0  0  0  0  0  0  0  0  0  0  0  0
  -24.2351   -8.8909   21.2098 C   0  0  0  0  0  0  0  0  0  0  0  0
  -32.9190  -22.5922   16.8115 C   0  0  0  0  0  0  0  0  0  0  0  0
  -28.2308  -14.9394   20.0568 C   0  0  0  0  0  0  0  0  0  0  0  0
  -30.8374  -22.2882   17.9210 C   0  0  0  0  0  0  0  0  0  0  0  0
  -31.6350  -24.4221   17.6234 C   0  0  0  0  0  0  0  0  0  0  0  0
  -29.8492  -16.4199   20.2111 C   0  0  0  0  0  0  0  0  0  0  0  0
  -30.6460  -14.0754   19.8693 C   0  0  0  0  0  0  0  0  0  0  0  0
  -22.3844  -28.5673   22.2149 C   0  0  0  0  0  0  0  0  0  0  0  0
  -21.7683  -25.6346   20.9729 C   0  0  0  0  0  0  0  0  0  0  0  0
  -22.8901  -22.9493   19.1904 C   0  0  0  0  0  0  0  0  0  0  0  0
  -28.6615  -21.7377   19.0651 C   0  0  0  0  0  0  0  0  0  0  0  0
  -18.5433  -30.8022   24.7267 C   0  0  0  0  0  0  0  0  0  0  0  0
  -23.0921  -28.8782   19.8152 C   0  0  0  0  0  0  0  0  0  0  0  0
  -24.1787  -26.3799   20.9651 C   0  0  0  0  0  0  0  0  0  0  0  0
  -19.0234  -29.3682   24.5179 C   0  0  0  0  0  0  0  0  0  0  0  0
  -26.6651  -20.1259   21.5335 C   0  0  0  0  0  0  0  0  0  0  0  0
  -20.5207  -29.2617   24.7891 C   0  0  0  0  0  0  0  0  0  0  0  0
  -27.0097  -18.6440   21.3676 C   0  0  0  0  0  0  0  0  0  0  0  0
  -26.6302  -20.8538   20.1909 C   0  0  0  0  0  0  0  0  0  0  0  0
  -28.1808  -19.2147   19.2019 C   0  0  0  0  0  0  0  0  0  0  0  0
  -21.3206  -30.1418   23.8211 C   0  0  1  0  0  0  0  0  0  0  0  0
  -22.2963  -28.0397   20.8108 C   0  0  1  0  0  0  0  0  0  0  0  0
  -28.2915  -18.4535   20.5331 C   0  0  2  0  0  0  0  0  0  0  0  0
  -22.1712  -20.6883   18.3727 C   0  0  0  0  0  0  0  0  0  0  0  0
  -22.1273  -24.5062   23.7850 C   0  0  0  0  0  0  0  0  0  0  0  0
  -22.3458  -22.2289   22.7679 C   0  0  0  0  0  0  0  0  0  0  0  0
  -20.2256  -23.5152   22.4981 C   0  0  0  0  0  0  0  0  0  0  0  0
  -23.2473  -23.7316   16.3586 C   0  0  0  0  0  0  0  0  0  0  0  0
  -30.3753  -26.4174   18.4341 C   0  0  0  0  0  0  0  0  0  0  0  0
  -29.4862  -28.6806   19.0881 C   0  0  0  0  0  0  0  0  0  1  0  0
  -22.2849  -24.2382   21.2219 C   0  0  1  0  0  0  0  0  0  0  0  0
  -22.2693  -22.1701   18.0450 C   0  0  2  0  0  0  0  0  0  0  0  0
  -30.7371  -27.8396   18.8578 C   0  0  1  0  0  0  0  0  0  0  0  0
  -21.7633  -23.6432   22.5603 C   0  0  0  0  0  0  0  0  0  0  0  0
  -27.6025  -16.1048   20.2336 N   0  0  0  0  0  0  0  0  0  0  0  0
  -30.6602  -23.6163   18.1010 N   0  0  0  0  0  0  0  0  0  0  0  0
  -28.6134  -16.9856   20.3242 N   0  0  0  0  0  0  0  0  0  0  0  0
  -22.7347  -26.6432   20.8511 N   0  0  0  0  0  0  0  0  0  0  0  0
  -27.8786  -20.6317   19.4581 N   0  0  0  0  0  0  0  0  0  0  0  0
  -30.9751  -17.1617   20.2791 N   0  0  0  0  0  0  0  0  0  0  0  0
  -30.2485  -12.7422   19.6995 N   0  0  0  0  0  0  0  0  0  0  0  0
  -29.8425  -21.4022   18.4036 N   0  0  0  0  0  0  0  0  0  0  0  0
  -31.5039  -25.7912   17.7826 N   0  0  0  0  0  0  0  0  0  0  0  0
  -21.4194  -29.5066   22.5245 N   0  0  0  0  0  0  0  0  0  0  0  0
  -21.9315  -23.4558   20.0423 N   0  0  0  0  0  0  0  0  0  0  0  0
  -23.0879  -22.3250   16.8094 N   0  3  0  0  0  0  0  0  0  0  0  0
  -31.8690  -14.3536   19.8884 O   0  0  0  0  0  0  0  0  0  0  0  0
  -23.2619  -28.1517   22.9626 O   0  0  0  0  0  0  0  0  0  0  0  0
  -20.5526  -25.8225   20.8825 O   0  0  0  0  0  0  0  0  0  0  0  0
  -24.1042  -23.0910   19.3188 O   0  0  0  0  0  0  0  0  0  0  0  0
  -28.3237  -22.8960   19.3221 O   0  0  0  0  0  0  0  0  0  0  0  0
  -31.4608  -27.7905   20.0891 O   0  0  0  0  0  0  0  0  0  0  0  0
  -25.2857  -10.2192   19.4979 O   0  0  0  0  0  0  0  0  0  0  0  0
  -28.6908  -28.0616   20.0983 O   0  0  0  0  0  0  0  0  0  1  0  0
  -21.1012   -9.3855   22.9905 F   0  0  0  0  0  0  0  0  0  0  0  0
  -25.2502   -8.0171   21.1689 F   0  0  0  0  0  0  0  0  0  0  0  0
  -34.0008  -22.1014   16.1928 F   0  0  0  0  0  0  0  0  0  0  0  0
  1  2  1  0  0  0  0
  1  5  2  0  0  0  0
  2  6  2  0  0  0  0
  3  8  2  0  0  0  0
  3 17  1  0  0  0  0
  4  9  1  0  0  0  0
  4 17  2  0  0  0  0
  5 19  1  0  0  0  0
  6 21  1  0  0  0  0
  7 10  2  0  0  0  0
  7 20  1  0  0  0  0
  8 23  1  0  0  0  0
  9 23  2  0  0  0  0
 10 24  1  0  0  0  0
 11 12  2  0  0  0  0
 11 25  1  0  0  0  0
 12 26  1  0  0  0  0
 13 22  1  0  0  0  0
 13 24  2  0  0  0  0
 14 26  2  0  0  0  0
 14 27  1  0  0  0  0
 15 28  1  0  0  0  0
 15 30  2  0  0  0  0
 16 28  2  0  0  0  0
 16 31  1  0  0  0  0
 17 29  1  0  0  0  0
 18 29  1  0  0  0  0
 18 32  2  0  0  0  0
 18 33  1  0  0  0  0
 19 21  2  0  0  0  0
 19 38  1  0  0  0  0
 20 22  2  0  0  0  0
 20 39  1  0  0  0  0
 21 47  1  0  0  0  0
 22 40  1  0  0  0  0
 23 79  1  0  0  0  0
 24 80  1  0  0  0  0
 25 27  2  0  0  0  0
 25 79  1  0  0  0  0
 26 81  1  0  0  0  0
 27 82  1  0  0  0  0
 28 83  1  0  0  0  0
 29 61  2  0  0  0  0
 30 62  1  0  0  0  0
 30 68  1  0  0  0  0
 31 62  2  0  0  0  0
 31 69  1  0  0  0  0
 32 63  1  0  0  0  0
 32 66  1  0  0  0  0
 33 67  1  0  0  0  0
 33 73  2  0  0  0  0
 34 48  1  0  0  0  0
 34 70  1  0  0  0  0
 34 74  2  0  0  0  0
 35 57  1  0  0  0  0
 35 64  1  0  0  0  0
 35 75  2  0  0  0  0
 36 58  1  0  0  0  0
 36 71  1  0  0  0  0
 36 76  2  0  0  0  0
 37 65  1  0  0  0  0
 37 68  1  0  0  0  0
 37 77  2  0  0  0  0
 38 41  1  0  0  0  0
 39 48  1  0  0  0  0
 40 64  1  0  0  0  0
 41 43  1  0  0  0  0
 42 44  1  0  0  0  0
 42 45  1  0  0  0  0
 43 47  1  0  0  0  0
 44 49  1  0  0  0  0
 45 65  1  0  0  0  0
 46 49  1  0  0  0  0
 46 65  1  0  0  0  0
 47 70  1  0  0  0  0
 48 64  1  0  0  0  0
 49 63  1  0  0  0  0
 50 58  1  0  0  0  0
 51 60  1  0  0  0  0
 52 60  1  0  0  0  0
 53 60  1  0  0  0  0
 54 72  1  0  0  0  0
 55 59  1  0  0  0  0
 55 69  1  0  0  0  0
 56 59  1  0  0  0  0
 56 80  1  0  0  0  0
 57 60  1  0  0  0  0
 57 71  1  0  0  0  0
 58 72  1  0  0  0  0
 59 78  1  0  0  0  0
 61 63  1  0  0  0  0
M  CHG  1  72   1
M  ISO  4  37 100  56 101  68 100  80 101
M  END
> <Batch ID>
0195

> <Smiles>
CNC(C)C(=O)NC(C(=O)N1Cc2cc([101O:1][101CH2:1]C(O)CNc3cc(F)cc([100NH:0][100C:0](=O)N4CCCC(n5nc(-c6ccc(Oc7ccc(F)cc7F)cc6)c(C(N)=O)c5N)C4)n3)ccc2CC1C(=O)NC1CCCc2ccccc21)C(C)(C)C

> <Shape>
0.249

> <Color>
0.100

> <Negative vol penalty>
0.000

$$$$

  -OEChem-04052305363D

 85 93  0     1  0  0  0  0  0999 V2000
  -28.9048  -19.3761   15.6436 C   0  0  0  0  0  0  0  0  0  0  0  0
  -28.3095  -20.6310   15.7223 C   0  0  0  0  0  0  0  0  0  0  0  0
  -24.1820  -14.6119   22.7279 C   0  0  0  0  0  0  0  0  0  0  0  0
  -24.9894  -15.9086   20.8560 C   0  0  0  0  0  0  0  0  0  0  0  0
  -29.0676  -18.6094   16.7966 C   0  0  0  0  0  0  0  0  0  0  0  0
  -27.8756  -21.1195   16.9542 C   0  0  0  0  0  0  0  0  0  0  0  0
  -27.9474  -26.9470   18.8360 C   0  0  0  0  0  0  0  0  0  0  0  0
  -24.8294  -13.4833   22.2253 C   0  0  0  0  0  0  0  0  0  0  0  0
  -25.6369  -14.7800   20.3534 C   0  0  0  0  0  0  0  0  0  0  0  0
  -26.9615  -27.9320   18.8758 C   0  0  0  0  0  0  0  0  0  0  0  0
  -27.8012  -12.3274   18.7664 C   0  0  0  0  0  0  0  0  0  0  0  0
  -29.1099  -12.4796   18.3086 C   0  0  0  0  0  0  0  0  0  0  0  0
  -26.5147  -27.3832   21.1819 C   0  0  0  0  0  0  0  0  0  0  0  0
  -29.7934  -13.2140   20.5064 C   0  0  0  0  0  0  0  0  0  0  0  0
  -21.2314  -24.8842   22.4205 C   0  0  0  0  0  0  0  0  0  0  0  0
  -24.2620  -15.8246   22.0432 C   0  0  0  0  0  0  0  0  0  0  0  0
  -24.1185  -17.9474   23.4507 C   0  0  0  0  0  0  0  0  0  0  0  0
  -28.6442  -19.0928   18.0447 C   0  0  0  0  0  0  0  0  0  0  0  0
  -28.2172  -26.1640   19.9676 C   0  0  0  0  0  0  0  0  0  0  0  0
  -28.0316  -20.3580   18.1249 C   0  0  0  0  0  0  0  0  0  0  0  0
  -27.5062  -26.3906   21.1547 C   0  0  0  0  0  0  0  0  0  0  0  0
  -25.5569  -13.5673   21.0381 C   0  0  0  0  0  0  0  0  0  0  0  0
  -26.2430  -28.1483   20.0480 C   0  0  0  0  0  0  0  0  0  0  0  0
  -27.4885  -12.6186   20.0943 C   0  0  0  0  0  0  0  0  0  0  0  0
  -30.1061  -12.9229   19.1786 C   0  0  0  0  0  0  0  0  0  0  0  0
  -28.4847  -13.0618   20.9643 C   0  0  0  0  0  0  0  0  0  0  0  0
  -23.5930  -16.9907   22.5616 C   0  0  0  0  0  0  0  0  0  0  0  0
  -20.1172  -26.8747   22.5815 C   0  0  0  0  0  0  0  0  0  0  0  0
  -20.0453  -24.2430   22.1387 C   0  0  0  0  0  0  0  0  0  0  0  0
  -18.9311  -26.2337   22.2990 C   0  0  0  0  0  0  0  0  0  0  0  0
  -23.0959  -18.8464   23.6314 C   0  0  0  0  0  0  0  0  0  0  0  0
  -25.4150  -18.0171   24.0589 C   0  0  0  0  0  0  0  0  0  0  0  0
  -28.0447  -23.0626   20.6424 C   0  0  0  0  0  0  0  0  0  0  0  0
  -29.4314  -23.9888   23.4247 C   0  0  0  0  0  0  0  0  0  0  0  0
  -30.0172  -26.4816   25.6807 C   0  0  0  0  0  0  0  0  0  0  0  0
  -18.9857  -22.0175   21.6182 C   0  0  0  0  0  0  0  0  0  0  0  0
  -28.7984  -18.2079   19.2562 C   0  0  0  0  0  0  0  0  0  0  0  0
  -29.3022  -25.1235   19.9163 C   0  0  0  0  0  0  0  0  0  0  0  0
  -27.7716  -25.5908   22.4030 C   0  0  0  0  0  0  0  0  0  0  0  0
  -28.6513  -18.9553   20.5791 C   0  0  0  0  0  0  0  0  0  0  0  0
  -18.2217  -18.6050   22.2877 C   0  0  0  0  0  0  0  0  0  0  0  0
  -27.4308  -19.8696   20.5428 C   0  0  0  0  0  0  0  0  0  0  0  0
  -19.5942  -17.9595   22.4918 C   0  0  0  0  0  0  0  0  0  0  0  0
  -18.2559  -19.6789   21.2018 C   0  0  0  0  0  0  0  0  0  0  0  0
  -20.6589  -20.0643   21.5844 C   0  0  0  0  0  0  0  0  0  0  0  0
  -27.5704  -20.9328   19.4466 C   0  0  1  0  0  0  0  0  0  0  0  0
  -29.1388  -24.0372   20.9749 C   0  0  1  0  0  0  0  0  0  0  0  0
  -20.6891  -19.0215   22.7136 C   0  0  2  0  0  0  0  0  0  0  0  0
  -20.0236  -28.7153   24.3125 C   0  0  0  0  0  0  0  0  0  0  0  0
  -31.1514  -26.9265   27.8745 C   0  0  0  0  0  0  0  0  0  0  0  0
  -22.9249  -31.0716   20.7495 C   0  0  0  0  0  0  0  0  0  0  0  0
  -27.1598  -22.5679   24.8845 C   0  0  0  0  0  0  0  0  0  0  0  0
  -27.7979  -23.8234   26.9545 C   0  0  0  0  0  0  0  0  0  0  0  0
  -29.4197  -22.2445   25.9058 C   0  0  0  0  0  0  0  0  0  0  0  0
  -31.8200  -28.4940   24.4727 C   0  0  0  0  0  0  0  0  0  0  0  0
  -21.6371  -28.8817   20.8757 C   0  0  0  0  0  0  0  0  0  0  0  0
  -24.1816  -28.8894   20.9737 C   0  0  0  0  0  0  0  0  0  1  0  0
  -20.1772  -28.3634   22.8349 C   0  0  1  0  0  0  0  0  0  0  0  0
  -28.9249  -24.4487   24.7704 C   0  0  1  0  0  0  0  0  0  0  0  0
  -31.2927  -26.9457   26.3604 C   0  0  2  0  0  0  0  0  0  0  0  0
  -22.9262  -29.5747   20.4196 C   0  0  2  0  0  0  0  0  0  0  0  0
  -28.3190  -23.2850   25.6049 C   0  0  0  0  0  0  0  0  0  0  0  0
  -21.2887  -26.2116   22.6470 N   0  0  0  0  0  0  0  0  0  0  0  0
  -22.3343  -17.2571   22.2025 N   0  0  0  0  0  0  0  0  0  0  0  0
  -18.8738  -24.9063   22.0729 N   0  0  0  0  0  0  0  0  0  0  0  0
  -22.0604  -18.3912   22.8695 N   0  0  0  0  0  0  0  0  0  0  0  0
  -28.8379  -24.5808   22.3009 N   0  0  0  0  0  0  0  0  0  0  0  0
  -19.3141  -20.6523   21.4806 N   0  0  0  0  0  0  0  0  0  0  0  0
  -17.7359  -26.9849   22.2432 N   0  0  0  0  0  0  0  0  0  0  0  0
  -22.9906  -19.9740   24.3662 N   0  0  0  0  0  0  0  0  0  0  0  0
  -26.3459  -17.0115   23.7647 N   0  0  0  0  0  0  0  0  0  0  0  0
  -20.0690  -22.8441   21.9147 N   0  0  0  0  0  0  0  0  0  0  0  0
  -28.4605  -21.9893   19.8777 N   0  0  0  0  0  0  0  0  0  0  0  0
  -30.0424  -25.1285   25.4166 N   0  0  0  0  0  0  0  0  0  0  0  0
  -31.6294  -28.3345   25.9374 N   0  3  0  0  0  0  0  0  0  0  0  0
  -21.4394  -28.9799   22.3414 N   0  3  0  0  0  0  0  0  0  0  0  0
  -25.7329  -18.9348   24.8528 O   0  0  0  0  0  0  0  0  0  0  0  0
  -26.9077  -23.2683   21.0506 O   0  0  0  0  0  0  0  0  0  0  0  0
  -30.3258  -23.1408   23.3727 O   0  0  0  0  0  0  0  0  0  0  0  0
  -29.0896  -27.2426   25.4142 O   0  0  0  0  0  0  0  0  0  0  0  0
  -17.8245  -22.4198   21.5099 O   0  0  0  0  0  0  0  0  0  0  0  0
  -26.1889  -12.4662   20.5475 O   0  0  0  0  0  0  0  0  0  0  0  0
  -25.2798  -29.1087   20.0893 O   0  0  0  0  0  0  0  0  0  1  0  0
  -31.3631  -13.0675   18.7392 F   0  0  0  0  0  0  0  0  0  0  0  0
  -28.1906  -13.3420   22.2413 F   0  0  0  0  0  0  0  0  0  0  0  0
  1  2  1  0  0  0  0
  1  5  2  0  0  0  0
  2  6  2  0  0  0  0
  3  8  2  0  0  0  0
  3 16  1  0  0  0  0
  4  9  1  0  0  0  0
  4 16  2  0  0  0  0
  5 18  1  0  0  0  0
  6 20  1  0  0  0  0
  7 10  2  0  0  0  0
  7 19  1  0  0  0  0
  8 22  1  0  0  0  0
  9 22  2  0  0  0  0
 10 23  1  0  0  0  0
 11 12  2  0  0  0  0
 11 24  1  0  0  0  0
 12 25  1  0  0  0  0
 13 21  1  0  0  0  0
 13 23  2  0  0  0  0
 14 25  2  0  0  0  0
 14 26  1  0  0  0  0
 15 29  1  0  0  0  0
 15 63  2  0  0  0  0
 16 27  1  0  0  0  0
 17 27  1  0  0  0  0
 17 31  2  0  0  0  0
 17 32  1  0  0  0  0
 18 20  2  0  0  0  0
 18 37  1  0  0  0  0
 19 21  2  0  0  0  0
 19 38  1  0  0  0  0
 20 46  1  0  0  0  0
 21 39  1  0  0  0  0
 22 82  1  0  0  0  0
 23 83  1  0  0  0  0
 24 26  2  0  0  0  0
 24 82  1  0  0  0  0
 25 84  1  0  0  0  0
 26 85  1  0  0  0  0
 27 64  2  0  0  0  0
 28 30  2  0  0  0  0
 28 58  1  0  0  0  0
 28 63  1  0  0  0  0
 29 65  2  0  0  0  0
 29 72  1  0  0  0  0
 30 65  1  0  0  0  0
 30 69  1  0  0  0  0
 31 66  1  0  0  0  0
 31 70  1  0  0  0  0
 32 71  1  0  0  0  0
 32 77  2  0  0  0  0
 33 47  1  0  0  0  0
 33 73  1  0  0  0  0
 33 78  2  0  0  0  0
 34 59  1  0  0  0  0
 34 67  1  0  0  0  0
 34 79  2  0  0  0  0
 35 60  1  0  0  0  0
 35 74  1  0  0  0  0
 35 80  2  0  0  0  0
 36 68  1  0  0  0  0
 36 72  1  0  0  0  0
 36 81  2  0  0  0  0
 37 40  1  0  0  0  0
 38 47  1  0  0  0  0
 39 67  1  0  0  0  0
 40 42  1  0  0  0  0
 41 43  1  0  0  0  0
 41 44  1  0  0  0  0
 42 46  1  0  0  0  0
 43 48  1  0  0  0  0
 44 68  1  0  0  0  0
 45 48  1  0  0  0  0
 45 68  1  0  0  0  0
 46 73  1  0  0  0  0
 47 67  1  0  0  0  0
 48 66  1  0  0  0  0
 49 58  1  0  0  0  0
 50 60  1  0  0  0  0
 51 61  1  0  0  0  0
 52 62  1  0  0  0  0
 53 62  1  0  0  0  0
 54 62  1  0  0  0  0
 55 75  1  0  0  0  0
 56 61  1  0  0  0  0
 56 76  1  0  0  0  0
 57 61  1  0  0  0  0
 57 83  1  0  0  0  0
 58 76  1  0  0  0  0
 59 62  1  0  0  0  0
 59 74  1  0  0  0  0
 60 75  1  0  0  0  0
 64 66  1  0  0  0  0
M  CHG  2  75   1  76   1
M  ISO  4  36 100  57 101  72 100  83 101
M  END
> <Batch ID>
0195

> <Smiles>
CNC(C)C(=O)NC(C(=O)N1Cc2cc([101O:1][101CH2:1]C(C)CNC(C)c3ncc([100NH:0][100C:0](=O)N4CCCC(n5nc(-c6ccc(Oc7ccc(F)cc7F)cc6)c(C(N)=O)c5N)C4)nc3N)ccc2CC1C(=O)NC1CCCc2ccccc21)C(C)(C)C

> <Shape>
0.218

> <Color>
0.041

> <Negative vol penalty>
0.000

$$$$

  -OEChem-04052305363D

 82 90  0     1  0  0  0  0  0999 V2000
  -16.9222  -29.8166   22.6142 C   0  0  0  0  0  0  0  0  0  0  0  0
  -18.1137  -29.8662   21.8978 C   0  0  0  0  0  0  0  0  0  0  0  0
  -26.6491  -12.4982   21.7968 C   0  0  0  0  0  0  0  0  0  0  0  0
  -25.9754  -13.9487   19.9859 C   0  0  0  0  0  0  0  0  0  0  0  0
  -16.9370  -29.4792   23.9669 C   0  0  0  0  0  0  0  0  0  0  0  0
  -19.3209  -29.5793   22.5340 C   0  0  0  0  0  0  0  0  0  0  0  0
  -24.1961  -26.7889   20.0942 C   0  0  0  0  0  0  0  0  0  0  0  0
  -25.3872  -11.9038   21.7902 C   0  0  0  0  0  0  0  0  0  0  0  0
  -24.7136  -13.3542   19.9792 C   0  0  0  0  0  0  0  0  0  0  0  0
  -25.3873  -27.2784   19.5602 C   0  0  0  0  0  0  0  0  0  0  0  0
  -23.7315   -9.5939   19.9583 C   0  0  0  0  0  0  0  0  0  0  0  0
  -23.6702   -8.2023   20.0296 C   0  0  0  0  0  0  0  0  0  0  0  0
  -26.4765  -26.9271   21.6838 C   0  0  0  0  0  0  0  0  0  0  0  0
  -22.3997   -8.3633   22.0782 C   0  0  0  0  0  0  0  0  0  0  0  0
  -30.0835  -23.8463   20.4043 C   0  0  0  0  0  0  0  0  0  0  0  0
  -26.9432  -13.5207   20.8947 C   0  0  0  0  0  0  0  0  0  0  0  0
  -29.3772  -13.7389   20.1629 C   0  0  0  0  0  0  0  0  0  0  0  0
  -18.1440  -29.1787   24.6177 C   0  0  0  0  0  0  0  0  0  0  0  0
  -24.1332  -26.3744   21.4323 C   0  0  0  0  0  0  0  0  0  0  0  0
  -19.3521  -29.2389   23.8970 C   0  0  0  0  0  0  0  0  0  0  0  0
  -25.2840  -26.4304   22.2316 C   0  0  0  0  0  0  0  0  0  0  0  0
  -24.4195  -12.3318   20.8813 C   0  0  0  0  0  0  0  0  0  0  0  0
  -26.5270  -27.3503   20.3558 C   0  0  0  0  0  0  0  0  0  0  0  0
  -23.1270  -10.3703   20.9470 C   0  0  0  0  0  0  0  0  0  0  0  0
  -23.0042   -7.5869   21.0895 C   0  0  0  0  0  0  0  0  0  0  0  0
  -22.4611   -9.7549   22.0069 C   0  0  0  0  0  0  0  0  0  0  0  0
  -28.2463  -14.1355   20.9015 C   0  0  0  0  0  0  0  0  0  0  0  0
  -29.4555  -23.8714   19.1855 C   0  0  0  0  0  0  0  0  0  0  0  0
  -30.3525  -14.6380   20.5191 C   0  0  0  0  0  0  0  0  0  0  0  0
  -29.5532  -21.6596   20.5967 C   0  0  0  0  0  0  0  0  0  0  0  0
  -29.5322  -12.6548   19.2375 C   0  0  0  0  0  0  0  0  0  0  0  0
  -22.4998  -27.3063   23.9950 C   0  0  0  0  0  0  0  0  0  0  0  0
  -23.8857  -24.7020   25.3438 C   0  0  0  0  0  0  0  0  0  0  0  0
  -26.4565  -22.4575   25.3363 C   0  0  0  0  0  0  0  0  0  0  0  0
  -30.1805  -20.2429   22.5831 C   0  0  0  0  0  0  0  0  0  0  0  0
  -18.1150  -28.8654   26.0927 C   0  0  0  0  0  0  0  0  0  0  0  0
  -22.8475  -25.8238   21.9857 C   0  0  0  0  0  0  0  0  0  0  0  0
  -25.2743  -25.9788   23.6684 C   0  0  0  0  0  0  0  0  0  0  0  0
  -19.3964  -28.2100   26.6015 C   0  0  0  0  0  0  0  0  0  0  0  0
  -31.7143  -17.4408   24.1556 C   0  0  0  0  0  0  0  0  0  0  0  0
  -20.6208  -28.9538   26.0776 C   0  0  0  0  0  0  0  0  0  0  0  0
  -31.1065  -16.2392   23.4283 C   0  0  0  0  0  0  0  0  0  0  0  0
  -30.6969  -18.5650   24.3419 C   0  0  0  0  0  0  0  0  0  0  0  0
  -29.4107  -17.7967   22.3863 C   0  0  0  0  0  0  0  0  0  0  0  0
  -20.6791  -28.9102   24.5458 C   0  0  1  0  0  0  0  0  0  0  0  0
  -22.7660  -25.9104   23.5066 C   0  0  1  0  0  0  0  0  0  0  0  0
  -30.4154  -16.6644   22.1178 C   0  0  2  0  0  0  0  0  0  0  0  0
  -27.3367  -20.4662   26.5843 C   0  0  0  0  0  0  0  0  0  0  0  0
  -31.5296  -26.2222   18.7155 C   0  0  0  0  0  0  0  0  0  0  0  0
  -24.8814  -26.5387   27.5675 C   0  0  0  0  0  0  0  0  0  0  0  0
  -26.4959  -24.7441   28.2317 C   0  0  0  0  0  0  0  0  0  0  0  0
  -24.0410  -24.3164   28.3480 C   0  0  0  0  0  0  0  0  0  0  0  0
  -26.2338  -20.7189   22.9517 C   0  0  0  0  0  0  0  0  0  0  0  0
  -29.4104  -27.4819   18.1983 C   0  0  0  0  0  0  0  0  0  0  0  0
  -27.9115  -27.6265   18.4420 C   0  0  0  0  0  0  0  0  0  1  0  0
  -25.1717  -24.4413   26.0902 C   0  0  1  0  0  0  0  0  0  0  0  0
  -26.4711  -20.9423   25.4281 C   0  0  2  0  0  0  0  0  0  0  0  0
  -30.0221  -26.2888   18.9393 C   0  0  1  0  0  0  0  0  0  0  0  0
  -25.1475  -25.0205   27.5329 C   0  0  0  0  0  0  0  0  0  0  0  0
  -30.1477  -22.7296   21.1452 N   0  0  0  0  0  0  0  0  0  0  0  0
  -28.4801  -15.2033   21.6690 N   0  0  0  0  0  0  0  0  0  0  0  0
  -28.8758  -22.7650   18.6858 N   0  0  0  0  0  0  0  0  0  0  0  0
  -28.9225  -21.6252   19.4064 N   0  0  0  0  0  0  0  0  0  0  0  0
  -29.7693  -15.4852   21.4148 N   0  0  0  0  0  0  0  0  0  0  0  0
  -23.9916  -25.4541   24.1653 N   0  0  0  0  0  0  0  0  0  0  0  0
  -30.0863  -18.9177   23.0583 N   0  0  0  0  0  0  0  0  0  0  0  0
  -31.6435  -14.7785   20.1505 N   0  0  0  0  0  0  0  0  0  0  0  0
  -28.4289  -11.8277   18.9865 N   0  0  0  0  0  0  0  0  0  0  0  0
  -29.4247  -25.0556   18.4712 N   0  0  0  0  0  0  0  0  0  0  0  0
  -29.5909  -20.4519   21.3368 N   0  0  0  0  0  0  0  0  0  0  0  0
  -21.1580  -27.6211   24.0948 N   0  0  0  0  0  0  0  0  0  0  0  0
  -25.3949  -23.0009   26.0283 N   0  0  0  0  0  0  0  0  0  0  0  0
  -27.0043  -20.3521   24.1678 N   0  3  0  0  0  0  0  0  0  0  0  0
  -30.6216  -12.4163   18.6631 O   0  0  0  0  0  0  0  0  0  0  0  0
  -23.4420  -28.0426   24.2629 O   0  0  0  0  0  0  0  0  0  0  0  0
  -22.8272  -24.2487   25.7862 O   0  0  0  0  0  0  0  0  0  0  0  0
  -27.3044  -23.0954   24.7161 O   0  0  0  0  0  0  0  0  0  0  0  0
  -30.7666  -21.1210   23.2215 O   0  0  0  0  0  0  0  0  0  0  0  0
  -23.1882  -11.7518   20.8744 O   0  0  0  0  0  0  0  0  0  0  0  0
  -27.6909  -27.8283   19.8373 O   0  0  0  0  0  0  0  0  0  1  0  0
  -22.9440   -6.2505   21.1570 F   0  0  0  0  0  0  0  0  0  0  0  0
  -21.8774  -10.4955   22.9591 F   0  0  0  0  0  0  0  0  0  0  0  0
  1  2  1  0  0  0  0
  1  5  2  0  0  0  0
  2  6  2  0  0  0  0
  3  8  2  0  0  0  0
  3 16  1  0  0  0  0
  4  9  1  0  0  0  0
  4 16  2  0  0  0  0
  5 18  1  0  0  0  0
  6 20  1  0  0  0  0
  7 10  2  0  0  0  0
  7 19  1  0  0  0  0
  8 22  1  0  0  0  0
  9 22  2  0  0  0  0
 10 23  1  0  0  0  0
 11 12  2  0  0  0  0
 11 24  1  0  0  0  0
 12 25  1  0  0  0  0
 13 21  1  0  0  0  0
 13 23  2  0  0  0  0
 14 25  2  0  0  0  0
 14 26  1  0  0  0  0
 15 28  1  0  0  0  0
 15 60  2  0  0  0  0
 16 27  1  0  0  0  0
 17 27  1  0  0  0  0
 17 29  2  0  0  0  0
 17 31  1  0  0  0  0
 18 20  2  0  0  0  0
 18 36  1  0  0  0  0
 19 21  2  0  0  0  0
 19 37  1  0  0  0  0
 20 45  1  0  0  0  0
 21 38  1  0  0  0  0
 22 79  1  0  0  0  0
 23 80  1  0  0  0  0
 24 26  2  0  0  0  0
 24 79  1  0  0  0  0
 25 81  1  0  0  0  0
 26 82  1  0  0  0  0
 27 61  2  0  0  0  0
 28 62  2  0  0  0  0
 28 69  1  0  0  0  0
 29 64  1  0  0  0  0
 29 67  1  0  0  0  0
 30 60  1  0  0  0  0
 30 63  2  0  0  0  0
 30 70  1  0  0  0  0
 31 68  1  0  0  0  0
 31 74  2  0  0  0  0
 32 46  1  0  0  0  0
 32 71  1  0  0  0  0
 32 75  2  0  0  0  0
 33 56  1  0  0  0  0
 33 65  1  0  0  0  0
 33 76  2  0  0  0  0
 34 57  1  0  0  0  0
 34 72  1  0  0  0  0
 34 77  2  0  0  0  0
 35 66  1  0  0  0  0
 35 70  1  0  0  0  0
 35 78  2  0  0  0  0
 36 39  1  0  0  0  0
 37 46  1  0  0  0  0
 38 65  1  0  0  0  0
 39 41  1  0  0  0  0
 40 42  1  0  0  0  0
 40 43  1  0  0  0  0
 41 45  1  0  0  0  0
 42 47  1  0  0  0  0
 43 66  1  0  0  0  0
 44 47  1  0  0  0  0
 44 66  1  0  0  0  0
 45 71  1  0  0  0  0
 46 65  1  0  0  0  0
 47 64  1  0  0  0  0
 48 57  1  0  0  0  0
 49 58  1  0  0  0  0
 50 59  1  0  0  0  0
 51 59  1  0  0  0  0
 52 59  1  0  0  0  0
 53 73  1  0  0  0  0
 54 55  1  0  0  0  0
 54 58  1  0  0  0  0
 55 80  1  0  0  0  0
 56 59  1  0  0  0  0
 56 72  1  0  0  0  0
 57 73  1  0  0  0  0
 58 69  1  0  0  0  0
 61 64  1  0  0  0  0
 62 63  1  0  0  0  0
M  CHG  1  73   1
M  ISO  4  35 100  55 101  70 100  80 101
M  END
> <Batch ID>
0195

> <Smiles>
CNC(C)C(=O)NC(C(=O)N1Cc2cc([101O:1][101CH2:1]CC(C)Nc3cnc([100NH:0][100C:0](=O)N4CCCC(n5nc(-c6ccc(Oc7ccc(F)cc7F)cc6)c(C(N)=O)c5N)C4)nn3)ccc2CC1C(=O)NC1CCCc2ccccc21)C(C)(C)C

> <Shape>
0.251

> <Color>
0.095

> <Negative vol penalty>
0.000

$$$$

  -OEChem-04052305363D

 84 92  0     1  0  0  0  0  0999 V2000
  -17.6893  -30.1524   23.0057 C   0  0  0  0  0  0  0  0  0  0  0  0
  -19.0572  -30.1779   22.7536 C   0  0  0  0  0  0  0  0  0  0  0  0
  -26.3170  -12.9113   21.8250 C   0  0  0  0  0  0  0  0  0  0  0  0
  -25.7008  -13.7964   19.6630 C   0  0  0  0  0  0  0  0  0  0  0  0
  -17.0645  -28.9501   23.3344 C   0  0  0  0  0  0  0  0  0  0  0  0
  -19.8013  -29.0012   22.8312 C   0  0  0  0  0  0  0  0  0  0  0  0
  -24.6169  -27.4563   19.3772 C   0  0  0  0  0  0  0  0  0  0  0  0
  -25.0873  -12.2582   21.9081 C   0  0  0  0  0  0  0  0  0  0  0  0
  -24.4711  -13.1432   19.7461 C   0  0  0  0  0  0  0  0  0  0  0  0
  -25.9915  -27.5262   19.5993 C   0  0  0  0  0  0  0  0  0  0  0  0
  -21.4985  -13.6151   21.2863 C   0  0  0  0  0  0  0  0  0  0  0  0
  -20.3574  -14.3344   20.9314 C   0  0  0  0  0  0  0  0  0  0  0  0
  -25.9885  -25.2196   20.3056 C   0  0  0  0  0  0  0  0  0  0  0  0
  -19.8823  -12.7235   19.1945 C   0  0  0  0  0  0  0  0  0  0  0  0
  -26.6237  -13.6805   20.7025 C   0  0  0  0  0  0  0  0  0  0  0  0
  -29.0889  -13.8523   20.0692 C   0  0  0  0  0  0  0  0  0  0  0  0
  -17.7996  -27.7564   23.4066 C   0  0  0  0  0  0  0  0  0  0  0  0
  -23.9147  -26.2688   19.6284 C   0  0  0  0  0  0  0  0  0  0  0  0
  -19.1860  -27.7820   23.1625 C   0  0  0  0  0  0  0  0  0  0  0  0
  -24.6054  -25.1365   20.0834 C   0  0  0  0  0  0  0  0  0  0  0  0
  -24.1644  -12.3741   20.8687 C   0  0  0  0  0  0  0  0  0  0  0  0
  -26.6770  -26.4086   20.0663 C   0  0  0  0  0  0  0  0  0  0  0  0
  -21.8317  -12.4501   20.5952 C   0  0  0  0  0  0  0  0  0  0  0  0
  -19.5492  -13.8886   19.8855 C   0  0  0  0  0  0  0  0  0  0  0  0
  -21.0235  -12.0043   19.5494 C   0  0  0  0  0  0  0  0  0  0  0  0
  -27.8936  -14.3559   20.6163 C   0  0  0  0  0  0  0  0  0  0  0  0
  -29.9953  -14.8720   20.2274 C   0  0  0  0  0  0  0  0  0  0  0  0
  -29.3026  -23.6832   17.6735 C   0  0  0  0  0  0  0  0  0  0  0  0
  -28.3174  -22.1923   16.3159 C   0  0  0  0  0  0  0  0  0  0  0  0
  -28.8687  -21.6086   18.4117 C   0  0  0  0  0  0  0  0  0  0  0  0
  -29.8381  -25.0336   17.9097 C   0  0  0  0  0  0  0  0  0  0  0  0
  -30.3888  -25.4529   19.0597 C   0  0  0  0  0  0  0  0  0  0  0  0
  -29.3560  -12.5768   19.4714 C   0  0  0  0  0  0  0  0  0  0  0  0
  -21.5610  -25.4271   21.5920 C   0  0  0  0  0  0  0  0  0  0  0  0
  -21.7176  -22.6321   19.9530 C   0  0  0  0  0  0  0  0  0  0  0  0
  -23.5668  -20.4950   18.0400 C   0  0  0  0  0  0  0  0  0  0  0  0
  -29.4254  -20.7988   20.7313 C   0  0  0  0  0  0  0  0  0  0  0  0
  -17.0888  -26.4894   23.8119 C   0  0  0  0  0  0  0  0  0  0  0  0
  -22.4365  -26.2018   19.3583 C   0  0  0  0  0  0  0  0  0  0  0  0
  -23.9014  -23.8318   20.3493 C   0  0  0  0  0  0  0  0  0  0  0  0
  -17.8821  -25.2215   23.5063 C   0  0  0  0  0  0  0  0  0  0  0  0
  -30.9774  -18.6027   23.0649 C   0  0  0  0  0  0  0  0  0  0  0  0
  -19.3305  -25.3758   23.9593 C   0  0  0  0  0  0  0  0  0  0  0  0
  -30.4763  -17.2180   22.6482 C   0  0  0  0  0  0  0  0  0  0  0  0
  -29.8989  -19.6711   22.8944 C   0  0  0  0  0  0  0  0  0  0  0  0
  -28.7845  -18.3423   21.1447 C   0  0  0  0  0  0  0  0  0  0  0  0
  -20.0229  -26.5222   23.2124 C   0  0  1  0  0  0  0  0  0  0  0  0
  -21.7364  -25.0928   20.1376 C   0  0  1  0  0  0  0  0  0  0  0  0
  -29.8563  -17.2441   21.2374 C   0  0  2  0  0  0  0  0  0  0  0  0
  -23.4358  -18.2727   16.8818 C   0  0  0  0  0  0  0  0  0  0  0  0
  -30.7222  -29.0347   20.5551 C   0  0  0  0  0  0  0  0  0  0  0  0
  -22.0084  -21.2171   22.6406 C   0  0  0  0  0  0  0  0  0  0  0  0
  -22.8125  -19.1915   21.4083 C   0  0  0  0  0  0  0  0  0  0  0  0
  -20.5080  -20.0591   21.0089 C   0  0  0  0  0  0  0  0  0  0  0  0
  -24.0474  -21.7181   15.3882 C   0  0  0  0  0  0  0  0  0  0  0  0
  -30.9177  -26.8461   19.2653 C   0  0  0  0  0  0  0  0  0  0  0  0
  -28.6605  -27.7197   20.0140 C   0  0  0  0  0  0  0  0  0  1  0  0
  -22.4899  -21.3442   20.1072 C   0  0  1  0  0  0  0  0  0  0  0  0
  -23.2507  -19.7756   16.7412 C   0  0  2  0  0  0  0  0  0  0  0  0
  -30.1536  -27.6266   20.3568 C   0  0  2  0  0  0  0  0  0  0  0  0
  -21.9679  -20.4780   21.2882 C   0  0  0  0  0  0  0  0  0  0  0  0
  -28.0255  -15.5989   21.0870 N   0  0  0  0  0  0  0  0  0  0  0  0
  -28.7876  -23.4419   16.4569 N   0  0  0  0  0  0  0  0  0  0  0  0
  -29.3771  -22.8180   18.6978 N   0  0  0  0  0  0  0  0  0  0  0  0
  -28.3239  -21.2241   17.2462 N   0  0  0  0  0  0  0  0  0  0  0  0
  -29.3144  -15.8849   20.8362 N   0  0  0  0  0  0  0  0  0  0  0  0
  -22.4548  -23.8184   20.0760 N   0  0  0  0  0  0  0  0  0  0  0  0
  -29.3607  -19.6393   21.5328 N   0  0  0  0  0  0  0  0  0  0  0  0
  -31.3004  -14.9921   19.9038 N   0  0  0  0  0  0  0  0  0  0  0  0
  -27.7614  -21.8619   15.0608 N   0  0  0  0  0  0  0  0  0  0  0  0
  -28.3116  -11.6458   19.3887 N   0  0  0  0  0  0  0  0  0  0  0  0
  -28.9122  -20.6395   19.4445 N   0  0  0  0  0  0  0  0  0  0  0  0
  -20.3912  -26.1054   21.8763 N   0  0  0  0  0  0  0  0  0  0  0  0
  -22.4378  -20.6792   18.8097 N   0  0  0  0  0  0  0  0  0  0  0  0
  -24.1439  -20.2590   15.6506 N   0  3  0  0  0  0  0  0  0  0  0  0
  -30.4915  -12.2656   19.0386 O   0  0  0  0  0  0  0  0  0  0  0  0
  -22.4226  -25.0929   22.3968 O   0  0  0  0  0  0  0  0  0  0  0  0
  -20.5062  -22.5873   19.7246 O   0  0  0  0  0  0  0  0  0  0  0  0
  -24.7025  -20.8541   18.3432 O   0  0  0  0  0  0  0  0  0  0  0  0
  -29.9257  -21.8473   21.1461 O   0  0  0  0  0  0  0  0  0  0  0  0
  -22.9645  -11.7367   20.9493 O   0  0  0  0  0  0  0  0  0  0  0  0
  -28.0186  -26.4742   20.2846 O   0  0  0  0  0  0  0  0  0  1  0  0
  -18.4526  -14.5786   19.5458 F   0  0  0  0  0  0  0  0  0  0  0  0
  -21.3377  -10.8851   18.8826 F   0  0  0  0  0  0  0  0  0  0  0  0
  1  2  1  0  0  0  0
  1  5  2  0  0  0  0
  2  6  2  0  0  0  0
  3  8  2  0  0  0  0
  3 15  1  0  0  0  0
  4  9  1  0  0  0  0
  4 15  2  0  0  0  0
  5 17  1  0  0  0  0
  6 19  1  0  0  0  0
  7 10  2  0  0  0  0
  7 18  1  0  0  0  0
  8 21  1  0  0  0  0
  9 21  2  0  0  0  0
 10 22  1  0  0  0  0
 11 12  2  0  0  0  0
 11 23  1  0  0  0  0
 12 24  1  0  0  0  0
 13 20  1  0  0  0  0
 13 22  2  0  0  0  0
 14 24  2  0  0  0  0
 14 25  1  0  0  0  0
 15 26  1  0  0  0  0
 16 26  1  0  0  0  0
 16 27  2  0  0  0  0
 16 33  1  0  0  0  0
 17 19  2  0  0  0  0
 17 38  1  0  0  0  0
 18 20  2  0  0  0  0
 18 39  1  0  0  0  0
 19 47  1  0  0  0  0
 20 40  1  0  0  0  0
 21 81  1  0  0  0  0
 22 82  1  0  0  0  0
 23 25  2  0  0  0  0
 23 81  1  0  0  0  0
 24 83  1  0  0  0  0
 25 84  1  0  0  0  0
 26 62  2  0  0  0  0
 27 66  1  0  0  0  0
 27 69  1  0  0  0  0
 28 31  1  0  0  0  0
 28 63  1  0  0  0  0
 28 64  2  0  0  0  0
 29 63  2  0  0  0  0
 29 65  1  0  0  0  0
 29 70  1  0  0  0  0
 30 64  1  0  0  0  0
 30 65  2  0  0  0  0
 30 72  1  0  0  0  0
 31 32  2  0  0  0  0
 32 56  1  0  0  0  0
 33 71  1  0  0  0  0
 33 76  2  0  0  0  0
 34 48  1  0  0  0  0
 34 73  1  0  0  0  0
 34 77  2  0  0  0  0
 35 58  1  0  0  0  0
 35 67  1  0  0  0  0
 35 78  2  0  0  0  0
 36 59  1  0  0  0  0
 36 74  1  0  0  0  0
 36 79  2  0  0  0  0
 37 68  1  0  0  0  0
 37 72  1  0  0  0  0
 37 80  2  0  0  0  0
 38 41  1  0  0  0  0
 39 48  1  0  0  0  0
 40 67  1  0  0  0  0
 41 43  1  0  0  0  0
 42 44  1  0  0  0  0
 42 45  1  0  0  0  0
 43 47  1  0  0  0  0
 44 49  1  0  0  0  0
 45 68  1  0  0  0  0
 46 49  1  0  0  0  0
 46 68  1  0  0  0  0
 47 73  1  0  0  0  0
 48 67  1  0  0  0  0
 49 66  1  0  0  0  0
 50 59  1  0  0  0  0
 51 60  1  0  0  0  0
 52 61  1  0  0  0  0
 53 61  1  0  0  0  0
 54 61  1  0  0  0  0
 55 75  1  0  0  0  0
 56 60  1  0  0  0  0
 57 60  1  0  0  0  0
 57 82  1  0  0  0  0
 58 61  1  0  0  0  0
 58 74  1  0  0  0  0
 59 75  1  0  0  0  0
 62 66  1  0  0  0  0
M  CHG  1  75   1
M  ISO  4  37 100  57 101  72 100  82 101
M  END
> <Batch ID>
0195

> <Smiles>
CNC(C)C(=O)NC(C(=O)N1Cc2cc([101O:1][101CH2:1]C(C)CC=Cc3nc(N)nc([100NH:0][100C:0](=O)N4CCCC(n5nc(-c6ccc(Oc7ccc(F)cc7F)cc6)c(C(N)=O)c5N)C4)n3)ccc2CC1C(=O)NC1CCCc2ccccc21)C(C)(C)C

> <Shape>
0.260

> <Color>
0.067

> <Negative vol penalty>
0.000

$$$$

  -OEChem-04052305363D

 84 92  0     1  0  0  0  0  0999 V2000
  -20.8851  -27.0975   14.7517 C   0  0  0  0  0  0  0  0  0  0  0  0
  -22.1729  -27.0038   15.2697 C   0  0  0  0  0  0  0  0  0  0  0  0
  -23.7028   -9.8593   21.2503 C   0  0  0  0  0  0  0  0  0  0  0  0
  -24.4324  -10.7708   23.3654 C   0  0  0  0  0  0  0  0  0  0  0  0
  -20.1605  -28.2797   14.8979 C   0  0  0  0  0  0  0  0  0  0  0  0
  -22.7372  -28.0926   15.9333 C   0  0  0  0  0  0  0  0  0  0  0  0
  -25.0733  -26.7553   20.2227 C   0  0  0  0  0  0  0  0  0  0  0  0
  -23.1956   -8.7387   21.9081 C   0  0  0  0  0  0  0  0  0  0  0  0
  -23.9252   -9.6503   24.0233 C   0  0  0  0  0  0  0  0  0  0  0  0
  -26.3379  -26.1801   20.1064 C   0  0  0  0  0  0  0  0  0  0  0  0
  -24.4000   -5.8740   23.2374 C   0  0  0  0  0  0  0  0  0  0  0  0
  -24.6716   -4.6217   22.6862 C   0  0  0  0  0  0  0  0  0  0  0  0
  -27.3468  -28.3019   20.6534 C   0  0  0  0  0  0  0  0  0  0  0  0
  -22.3026   -4.2160   22.4408 C   0  0  0  0  0  0  0  0  0  0  0  0
  -24.3212  -10.8753   21.9790 C   0  0  0  0  0  0  0  0  0  0  0  0
  -24.1666  -13.2330   21.0172 C   0  0  0  0  0  0  0  0  0  0  0  0
  -20.7125  -29.3802   15.5722 C   0  0  0  0  0  0  0  0  0  0  0  0
  -24.9359  -28.1131   20.5452 C   0  0  0  0  0  0  0  0  0  0  0  0
  -22.0197  -29.2910   16.0876 C   0  0  0  0  0  0  0  0  0  0  0  0
  -26.0793  -28.8914   20.7758 C   0  0  0  0  0  0  0  0  0  0  0  0
  -30.1200  -21.0957   20.2796 C   0  0  0  0  0  0  0  0  0  0  0  0
  -23.3068   -8.6342   23.2946 C   0  0  0  0  0  0  0  0  0  0  0  0
  -27.4750  -26.9541   20.3188 C   0  0  0  0  0  0  0  0  0  0  0  0
  -23.0797   -6.2972   23.3903 C   0  0  0  0  0  0  0  0  0  0  0  0
  -23.6229   -3.7928   22.2879 C   0  0  0  0  0  0  0  0  0  0  0  0
  -22.0310   -5.4683   22.9920 C   0  0  0  0  0  0  0  0  0  0  0  0
  -24.8459  -12.0328   21.2999 C   0  0  0  0  0  0  0  0  0  0  0  0
  -31.0075  -20.1869   19.7404 C   0  0  0  0  0  0  0  0  0  0  0  0
  -28.9854  -20.5557   20.8501 C   0  0  0  0  0  0  0  0  0  0  0  0
  -25.0946  -14.0072   20.3645 C   0  0  0  0  0  0  0  0  0  0  0  0
  -29.6689  -18.4493   20.3371 C   0  0  0  0  0  0  0  0  0  0  0  0
  -22.8175  -13.6141   21.3178 C   0  0  0  0  0  0  0  0  0  0  0  0
  -23.6960  -30.6507   19.0867 C   0  0  0  0  0  0  0  0  0  0  0  0
  -24.3458  -32.1058   21.9120 C   0  0  0  0  0  0  0  0  0  0  0  0
  -26.1954  -32.1709   24.7794 C   0  0  0  0  0  0  0  0  0  0  0  0
  -30.2522  -16.0447   19.8640 C   0  0  0  0  0  0  0  0  0  0  0  0
  -19.9087  -30.6531   15.6641 C   0  0  0  0  0  0  0  0  0  0  0  0
  -23.5642  -28.7122   20.6932 C   0  0  0  0  0  0  0  0  0  0  0  0
  -25.9855  -30.3488   21.1442 C   0  0  0  0  0  0  0  0  0  0  0  0
  -20.4375  -31.6334   16.7079 C   0  0  0  0  0  0  0  0  0  0  0  0
  -29.6430  -12.8175   18.4888 C   0  0  0  0  0  0  0  0  0  0  0  0
  -21.9508  -31.7799   16.5844 C   0  0  0  0  0  0  0  0  0  0  0  0
  -28.2848  -12.4244   19.0743 C   0  0  0  0  0  0  0  0  0  0  0  0
  -30.4887  -13.5991   19.4927 C   0  0  0  0  0  0  0  0  0  0  0  0
  -28.4686  -14.3758   20.6697 C   0  0  0  0  0  0  0  0  0  0  0  0
  -22.6569  -30.4420   16.8355 C   0  0  1  0  0  0  0  0  0  0  0  0
  -23.5524  -30.2280   20.5214 C   0  0  1  0  0  0  0  0  0  0  0  0
  -27.5554  -13.6429   19.6734 C   0  0  2  0  0  0  0  0  0  0  0  0
  -26.5259  -33.5026   26.8805 C   0  0  0  0  0  0  0  0  0  0  0  0
  -31.8368  -23.0801   22.0581 C   0  0  0  0  0  0  0  0  0  0  0  0
  -25.8721  -34.2208   20.3286 C   0  0  0  0  0  0  0  0  0  0  0  0
  -26.9460  -34.9488   22.4699 C   0  0  0  0  0  0  0  0  0  0  0  0
  -24.4728  -35.1228   22.1948 C   0  0  0  0  0  0  0  0  0  0  0  0
  -25.4343  -29.8788   26.4899 C   0  0  0  0  0  0  0  0  0  0  0  0
  -30.2209  -24.7499   21.0855 C   0  0  0  0  0  0  0  0  0  0  0  0
  -28.8277  -25.0084   20.5206 C   0  0  0  0  0  0  0  0  0  1  0  0
  -25.5303  -32.8449   22.4864 C   0  0  1  0  0  0  0  0  0  0  0  0
  -25.7935  -32.3373   26.2338 C   0  0  2  0  0  0  0  0  0  0  0  0
  -30.4560  -23.2784   21.4408 C   0  0  1  0  0  0  0  0  0  0  0  0
  -25.7075  -34.2573   21.8611 C   0  0  0  0  0  0  0  0  0  0  0  0
  -26.1079  -12.0392   20.8625 N   0  0  0  0  0  0  0  0  0  0  0  0
  -30.8129  -18.8519   19.7518 N   0  0  0  0  0  0  0  0  0  0  0  0
  -28.7267  -19.2324   20.8964 N   0  0  0  0  0  0  0  0  0  0  0  0
  -26.2290  -13.2528   20.2982 N   0  0  0  0  0  0  0  0  0  0  0  0
  -24.6222  -30.8900   21.2706 N   0  0  0  0  0  0  0  0  0  0  0  0
  -29.7345  -14.7409   20.0147 N   0  0  0  0  0  0  0  0  0  0  0  0
  -32.1939  -20.6762   19.1388 N   0  0  0  0  0  0  0  0  0  0  0  0
  -28.0310  -21.4343   21.4207 N   0  0  0  0  0  0  0  0  0  0  0  0
  -25.0427  -15.2527   19.8464 N   0  0  0  0  0  0  0  0  0  0  0  0
  -21.9995  -12.6985   21.9937 N   0  0  0  0  0  0  0  0  0  0  0  0
  -30.3533  -22.4589   20.2513 N   0  0  0  0  0  0  0  0  0  0  0  0
  -29.4323  -17.0527   20.3703 N   0  0  0  0  0  0  0  0  0  0  0  0
  -22.7103  -30.1571   18.2534 N   0  0  0  0  0  0  0  0  0  0  0  0
  -25.3450  -32.8510   23.9335 N   0  0  0  0  0  0  0  0  0  0  0  0
  -26.1073  -31.0999   27.0027 N   0  3  0  0  0  0  0  0  0  0  0  0
  -22.3463  -14.7271   20.9821 O   0  0  0  0  0  0  0  0  0  0  0  0
  -24.6309  -31.3725   18.7601 O   0  0  0  0  0  0  0  0  0  0  0  0
  -23.2162  -32.5859   22.0344 O   0  0  0  0  0  0  0  0  0  0  0  0
  -27.1688  -31.5074   24.4290 O   0  0  0  0  0  0  0  0  0  0  0  0
  -31.3299  -16.2540   19.3013 O   0  0  0  0  0  0  0  0  0  0  0  0
  -22.8118   -7.5411   23.9369 O   0  0  0  0  0  0  0  0  0  0  0  0
  -28.7106  -26.3952   20.2052 O   0  0  0  0  0  0  0  0  0  1  0  0
  -23.8839   -2.5909   21.7573 F   0  0  0  0  0  0  0  0  0  0  0  0
  -20.7606   -5.8699   23.1353 F   0  0  0  0  0  0  0  0  0  0  0  0
  1  2  1  0  0  0  0
  1  5  2  0  0  0  0
  2  6  2  0  0  0  0
  3  8  2  0  0  0  0
  3 15  1  0  0  0  0
  4  9  1  0  0  0  0
  4 15  2  0  0  0  0
  5 17  1  0  0  0  0
  6 19  1  0  0  0  0
  7 10  2  0  0  0  0
  7 18  1  0  0  0  0
  8 22  1  0  0  0  0
  9 22  2  0  0  0  0
 10 23  1  0  0  0  0
 11 12  2  0  0  0  0
 11 24  1  0  0  0  0
 12 25  1  0  0  0  0
 13 20  1  0  0  0  0
 13 23  2  0  0  0  0
 14 25  2  0  0  0  0
 14 26  1  0  0  0  0
 15 27  1  0  0  0  0
 16 27  1  0  0  0  0
 16 30  2  0  0  0  0
 16 32  1  0  0  0  0
 17 19  2  0  0  0  0
 17 37  1  0  0  0  0
 18 20  2  0  0  0  0
 18 38  1  0  0  0  0
 19 46  1  0  0  0  0
 20 39  1  0  0  0  0
 21 28  1  0  0  0  0
 21 29  2  0  0  0  0
 21 71  1  0  0  0  0
 22 81  1  0  0  0  0
 23 82  1  0  0  0  0
 24 26  2  0  0  0  0
 24 81  1  0  0  0  0
 25 83  1  0  0  0  0
 26 84  1  0  0  0  0
 27 61  2  0  0  0  0
 28 62  2  0  0  0  0
 28 67  1  0  0  0  0
 29 63  1  0  0  0  0
 29 68  1  0  0  0  0
 30 64  1  0  0  0  0
 30 69  1  0  0  0  0
 31 62  1  0  0  0  0
 31 63  2  0  0  0  0
 31 72  1  0  0  0  0
 32 70  1  0  0  0  0
 32 76  2  0  0  0  0
 33 47  1  0  0  0  0
 33 73  1  0  0  0  0
 33 77  2  0  0  0  0
 34 57  1  0  0  0  0
 34 65  1  0  0  0  0
 34 78  2  0  0  0  0
 35 58  1  0  0  0  0
 35 74  1  0  0  0  0
 35 79  2  0  0  0  0
 36 66  1  0  0  0  0
 36 72  1  0  0  0  0
 36 80  2  0  0  0  0
 37 40  1  0  0  0  0
 38 47  1  0  0  0  0
 39 65  1  0  0  0  0
 40 42  1  0  0  0  0
 41 43  1  0  0  0  0
 41 44  1  0  0  0  0
 42 46  1  0  0  0  0
 43 48  1  0  0  0  0
 44 66  1  0  0  0  0
 45 48  1  0  0  0  0
 45 66  1  0  0  0  0
 46 73  1  0  0  0  0
 47 65  1  0  0  0  0
 48 64  1  0  0  0  0
 49 58  1  0  0  0  0
 50 59  1  0  0  0  0
 51 60  1  0  0  0  0
 52 60  1  0  0  0  0
 53 60  1  0  0  0  0
 54 75  1  0  0  0  0
 55 56  1  0  0  0  0
 55 59  1  0  0  0  0
 56 82  1  0  0  0  0
 57 60  1  0  0  0  0
 57 74  1  0  0  0  0
 58 75  1  0  0  0  0
 59 71  1  0  0  0  0
 61 64  1  0  0  0  0
M  CHG  1  75   1
M  ISO  4  36 100  56 101  72 100  82 101
M  END
> <Batch ID>
0195

> <Smiles>
CNC(C)C(=O)NC(C(=O)N1Cc2cc([101O:1][101CH2:1]CC(C)Nc3c(N)nc([100NH:0][100C:0](=O)N4CCCC(n5nc(-c6ccc(Oc7ccc(F)cc7F)cc6)c(C(N)=O)c5N)C4)nc3N)ccc2CC1C(=O)NC1CCCc2ccccc21)C(C)(C)C

> <Shape>
0.330

> <Color>
0.153

> <Negative vol penalty>
0.000

$$$$

  -OEChem-04052305363D

 84 92  0     1  0  0  0  0  0999 V2000
  -27.6685  -32.3924   27.9645 C   0  0  0  0  0  0  0  0  0  0  0  0
  -27.8874  -31.5261   26.8982 C   0  0  0  0  0  0  0  0  0  0  0  0
  -24.4707   -9.4111   21.3453 C   0  0  0  0  0  0  0  0  0  0  0  0
  -24.9499  -10.4090   23.4928 C   0  0  0  0  0  0  0  0  0  0  0  0
  -26.3783  -32.8419   28.2424 C   0  0  0  0  0  0  0  0  0  0  0  0
  -26.8160  -31.1078   26.1098 C   0  0  0  0  0  0  0  0  0  0  0  0
  -27.8622  -31.2850   21.1581 C   0  0  0  0  0  0  0  0  0  0  0  0
  -24.1873   -8.1978   21.9723 C   0  0  0  0  0  0  0  0  0  0  0  0
  -24.6664   -9.1957   24.1198 C   0  0  0  0  0  0  0  0  0  0  0  0
  -28.6407  -30.2537   20.6345 C   0  0  0  0  0  0  0  0  0  0  0  0
  -21.6201   -6.8210   23.6889 C   0  0  0  0  0  0  0  0  0  0  0  0
  -20.4766   -6.1331   23.2829 C   0  0  0  0  0  0  0  0  0  0  0  0
  -26.6478  -29.1819   19.7983 C   0  0  0  0  0  0  0  0  0  0  0  0
  -27.4868  -19.6870   21.2915 C   0  0  0  0  0  0  0  0  0  0  0  0
  -21.8412   -4.2479   22.6341 C   0  0  0  0  0  0  0  0  0  0  0  0
  -29.6034  -21.1148   20.2605 C   0  0  0  0  0  0  0  0  0  0  0  0
  -24.8521  -10.5167   22.1055 C   0  0  0  0  0  0  0  0  0  0  0  0
  -24.2428  -12.8127   21.1755 C   0  0  0  0  0  0  0  0  0  0  0  0
  -25.2919  -32.4365   27.4511 C   0  0  0  0  0  0  0  0  0  0  0  0
  -26.4673  -31.2669   21.0150 C   0  0  0  0  0  0  0  0  0  0  0  0
  -25.5099  -31.5512   26.3782 C   0  0  0  0  0  0  0  0  0  0  0  0
  -25.8541  -30.2155   20.3188 C   0  0  0  0  0  0  0  0  0  0  0  0
  -27.4540  -21.0781   21.3097 C   0  0  0  0  0  0  0  0  0  0  0  0
  -28.5215  -21.8039   20.7898 C   0  0  0  0  0  0  0  0  0  0  0  0
  -24.2851   -8.0901   23.3595 C   0  0  0  0  0  0  0  0  0  0  0  0
  -28.0333  -29.2005   19.9570 C   0  0  0  0  0  0  0  0  0  0  0  0
  -22.8741   -6.2224   23.5675 C   0  0  0  0  0  0  0  0  0  0  0  0
  -20.5872   -4.8465   22.7555 C   0  0  0  0  0  0  0  0  0  0  0  0
  -22.9847   -4.9358   23.0401 C   0  0  0  0  0  0  0  0  0  0  0  0
  -25.1456  -11.7702   21.4583 C   0  0  0  0  0  0  0  0  0  0  0  0
  -25.0086  -13.7723   20.5597 C   0  0  0  0  0  0  0  0  0  0  0  0
  -28.5949  -19.0515   20.7493 C   0  0  0  0  0  0  0  0  0  0  0  0
  -22.8378  -12.9055   21.4454 C   0  0  0  0  0  0  0  0  0  0  0  0
  -24.0073  -31.1607   23.0252 C   0  0  0  0  0  0  0  0  0  0  0  0
  -29.2890  -25.4632   20.4253 C   0  0  0  0  0  0  0  0  0  0  0  0
  -22.2749  -31.5637   20.3125 C   0  0  0  0  0  0  0  0  0  0  0  0
  -22.0831  -31.2325   16.9213 C   0  0  0  0  0  0  0  0  0  0  0  0
  -29.6532  -16.8254   20.2289 C   0  0  0  0  0  0  0  0  0  0  0  0
  -23.9085  -32.9115   27.8192 C   0  0  0  0  0  0  0  0  0  0  0  0
  -25.6440  -32.4005   21.5623 C   0  0  0  0  0  0  0  0  0  0  0  0
  -24.3622  -30.1595   20.1203 C   0  0  0  0  0  0  0  0  0  0  0  0
  -22.8818  -32.7175   26.7063 C   0  0  0  0  0  0  0  0  0  0  0  0
  -29.7464  -13.5702   18.7894 C   0  0  0  0  0  0  0  0  0  0  0  0
  -22.9958  -31.3169   26.1130 C   0  0  0  0  0  0  0  0  0  0  0  0
  -28.4835  -12.8975   19.3322 C   0  0  0  0  0  0  0  0  0  0  0  0
  -30.3915  -14.4869   19.8274 C   0  0  0  0  0  0  0  0  0  0  0  0
  -28.2287  -14.8129   20.9611 C   0  0  0  0  0  0  0  0  0  0  0  0
  -24.3769  -31.0946   25.4848 C   0  0  1  0  0  0  0  0  0  0  0  0
  -24.1871  -32.0183   21.8046 C   0  0  1  0  0  0  0  0  0  0  0  0
  -27.5074  -13.9299   19.9297 C   0  0  2  0  0  0  0  0  0  0  0  0
  -20.5270  -31.6131   14.9897 C   0  0  0  0  0  0  0  0  0  0  0  0
  -20.6827  -29.0862   21.1102 C   0  0  0  0  0  0  0  0  0  0  0  0
  -19.8275  -28.9645   18.7603 C   0  0  0  0  0  0  0  0  0  0  0  0
  -19.3074  -30.9532   20.1736 C   0  0  0  0  0  0  0  0  0  0  0  0
  -23.9506  -33.1393   15.6423 C   0  0  0  0  0  0  0  0  0  0  0  0
  -30.3531  -26.4188   19.9017 C   0  0  0  0  0  0  0  0  0  0  0  0
  -29.6051  -23.9895   20.2661 C   0  0  0  0  0  0  0  0  0  0  0  0
  -30.0054  -27.8822   20.1274 C   0  0  0  0  0  0  0  0  0  1  0  0
  -21.6560  -30.6394   19.2919 C   0  0  1  0  0  0  0  0  0  0  0  0
  -21.6441  -32.2010   15.8378 C   0  0  2  0  0  0  0  0  0  0  0  0
  -20.3964  -29.9106   19.8393 C   0  0  0  0  0  0  0  0  0  0  0  0
  -26.3896  -12.0417   21.0551 N   0  0  0  0  0  0  0  0  0  0  0  0
  -26.2741  -13.2658   20.5126 N   0  0  0  0  0  0  0  0  0  0  0  0
  -29.6091  -19.7748   20.2555 N   0  3  0  0  0  0  0  0  0  0  0  0
  -23.5998  -31.2881   20.6794 N   0  0  0  0  0  0  0  0  0  0  0  0
  -29.4086  -15.4408   20.3459 N   0  0  0  0  0  0  0  0  0  0  0  0
  -26.3299  -21.7331   21.8598 N   0  0  0  0  0  0  0  0  0  0  0  0
  -24.7162  -14.9915   20.0592 N   0  0  0  0  0  0  0  0  0  0  0  0
  -22.2079  -11.8293   22.0852 N   0  0  0  0  0  0  0  0  0  0  0  0
  -28.5261  -23.1910   20.7907 N   0  0  0  0  0  0  0  0  0  0  0  0
  -28.6336  -17.6352   20.7280 N   0  0  0  0  0  0  0  0  0  0  0  0
  -24.4558  -31.7449   24.1943 N   0  0  0  0  0  0  0  0  0  0  0  0
  -21.4087  -31.4496   18.1042 N   0  0  0  0  0  0  0  0  0  0  0  0
  -22.7893  -32.5313   14.9432 N   0  3  0  0  0  0  0  0  0  0  0  0
  -22.1576  -13.9060   21.1139 O   0  0  0  0  0  0  0  0  0  0  0  0
  -23.4980  -30.0516   22.9146 O   0  0  0  0  0  0  0  0  0  0  0  0
  -28.2447  -25.8611   20.9396 O   0  0  0  0  0  0  0  0  0  0  0  0
  -21.6098  -32.5003   20.7621 O   0  0  0  0  0  0  0  0  0  0  0  0
  -22.9362  -30.3675   16.7356 O   0  0  0  0  0  0  0  0  0  0  0  0
  -30.6785  -17.2608   19.6985 O   0  0  0  0  0  0  0  0  0  0  0  0
  -24.0083   -6.9064   23.9717 O   0  0  0  0  0  0  0  0  0  0  0  0
  -28.7908  -28.1923   19.4456 O   0  0  0  0  0  0  0  0  0  1  0  0
  -19.4889   -4.1854   22.3671 F   0  0  0  0  0  0  0  0  0  0  0  0
  -24.1866   -4.3551   22.9221 F   0  0  0  0  0  0  0  0  0  0  0  0
  1  2  1  0  0  0  0
  1  5  2  0  0  0  0
  2  6  2  0  0  0  0
  3  8  2  0  0  0  0
  3 17  1  0  0  0  0
  4  9  1  0  0  0  0
  4 17  2  0  0  0  0
  5 19  1  0  0  0  0
  6 21  1  0  0  0  0
  7 10  2  0  0  0  0
  7 20  1  0  0  0  0
  8 25  1  0  0  0  0
  9 25  2  0  0  0  0
 10 26  1  0  0  0  0
 11 12  2  0  0  0  0
 11 27  1  0  0  0  0
 12 28  1  0  0  0  0
 13 22  1  0  0  0  0
 13 26  2  0  0  0  0
 14 23  1  0  0  0  0
 14 32  2  0  0  0  0
 15 28  2  0  0  0  0
 15 29  1  0  0  0  0
 16 24  1  0  0  0  0
 16 64  2  0  0  0  0
 17 30  1  0  0  0  0
 18 30  1  0  0  0  0
 18 31  2  0  0  0  0
 18 33  1  0  0  0  0
 19 21  2  0  0  0  0
 19 39  1  0  0  0  0
 20 22  2  0  0  0  0
 20 40  1  0  0  0  0
 21 48  1  0  0  0  0
 22 41  1  0  0  0  0
 23 24  2  0  0  0  0
 23 67  1  0  0  0  0
 24 70  1  0  0  0  0
 25 81  1  0  0  0  0
 26 82  1  0  0  0  0
 27 29  2  0  0  0  0
 27 81  1  0  0  0  0
 28 83  1  0  0  0  0
 29 84  1  0  0  0  0
 30 62  2  0  0  0  0
 31 63  1  0  0  0  0
 31 68  1  0  0  0  0
 32 64  1  0  0  0  0
 32 71  1  0  0  0  0
 33 69  1  0  0  0  0
 33 75  2  0  0  0  0
 34 49  1  0  0  0  0
 34 72  1  0  0  0  0
 34 76  2  0  0  0  0
 35 56  1  0  0  0  0
 35 57  1  0  0  0  0
 35 77  2  0  0  0  0
 36 59  1  0  0  0  0
 36 65  1  0  0  0  0
 36 78  2  0  0  0  0
 37 60  1  0  0  0  0
 37 73  1  0  0  0  0
 37 79  2  0  0  0  0
 38 66  1  0  0  0  0
 38 71  1  0  0  0  0
 38 80  2  0  0  0  0
 39 42  1  0  0  0  0
 40 49  1  0  0  0  0
 41 65  1  0  0  0  0
 42 44  1  0  0  0  0
 43 45  1  0  0  0  0
 43 46  1  0  0  0  0
 44 48  1  0  0  0  0
 45 50  1  0  0  0  0
 46 66  1  0  0  0  0
 47 50  1  0  0  0  0
 47 66  1  0  0  0  0
 48 72  1  0  0  0  0
 49 65  1  0  0  0  0
 50 63  1  0  0  0  0
 51 60  1  0  0  0  0
 52 61  1  0  0  0  0
 53 61  1  0  0  0  0
 54 61  1  0  0  0  0
 55 74  1  0  0  0  0
 56 58  1  0  0  0  0
 57 70  1  0  0  0  0
 58 82  1  0  0  0  0
 59 61  1  0  0  0  0
 59 73  1  0  0  0  0
 60 74  1  0  0  0  0
 62 63  1  0  0  0  0
M  CHG  2  64   1  74   1
M  ISO  4  38 100  58 101  71 100  82 101
M  END
> <Batch ID>
0195

> <Smiles>
CNC(C)C(=O)NC(C(=O)N1Cc2cc([101O:1][101CH2:1]CC(=O)CNc3cnc([100NH:0][100C:0](=O)N4CCCC(n5nc(-c6ccc(Oc7ccc(F)cc7F)cc6)c(C(N)=O)c5N)C4)cc3N)ccc2CC1C(=O)NC1CCCc2ccccc21)C(C)(C)C

> <Shape>
0.319

> <Color>
0.106

> <Negative vol penalty>
0.000

$$$$

  -OEChem-04052305363D

 83 91  0     1  0  0  0  0  0999 V2000
  -28.4262  -32.9190   25.6477 C   0  0  0  0  0  0  0  0  0  0  0  0
  -28.6379  -31.5915   25.2893 C   0  0  0  0  0  0  0  0  0  0  0  0
  -23.1497   -9.7790   20.4491 C   0  0  0  0  0  0  0  0  0  0  0  0
  -23.8106  -10.2573   22.7232 C   0  0  0  0  0  0  0  0  0  0  0  0
  -27.1402  -33.4556   25.6018 C   0  0  0  0  0  0  0  0  0  0  0  0
  -27.5635  -30.7995   24.8858 C   0  0  0  0  0  0  0  0  0  0  0  0
  -28.6185  -28.0446   20.7697 C   0  0  0  0  0  0  0  0  0  0  0  0
  -22.4246   -8.6729   20.8924 C   0  0  0  0  0  0  0  0  0  0  0  0
  -23.0854   -9.1512   23.1666 C   0  0  0  0  0  0  0  0  0  0  0  0
  -29.3873  -26.8960   20.9522 C   0  0  0  0  0  0  0  0  0  0  0  0
  -19.8553   -8.3811   23.7938 C   0  0  0  0  0  0  0  0  0  0  0  0
  -19.0503   -8.5453   24.9210 C   0  0  0  0  0  0  0  0  0  0  0  0
  -27.3850  -25.5524   20.8849 C   0  0  0  0  0  0  0  0  0  0  0  0
  -20.3067   -6.8299   26.0681 C   0  0  0  0  0  0  0  0  0  0  0  0
  -23.8427  -10.5711   21.3645 C   0  0  0  0  0  0  0  0  0  0  0  0
  -24.1267  -13.0343   20.7649 C   0  0  0  0  0  0  0  0  0  0  0  0
  -26.0509  -32.6725   25.1883 C   0  0  0  0  0  0  0  0  0  0  0  0
  -27.2238  -27.9567   20.6542 C   0  0  0  0  0  0  0  0  0  0  0  0
  -26.2615  -31.3258   24.8357 C   0  0  0  0  0  0  0  0  0  0  0  0
  -26.6010  -26.7011   20.6985 C   0  0  0  0  0  0  0  0  0  0  0  0
  -22.3925   -8.3591   22.2511 C   0  0  0  0  0  0  0  0  0  0  0  0
  -28.7703  -25.6499   21.0127 C   0  0  0  0  0  0  0  0  0  0  0  0
  -20.8860   -7.4413   23.8037 C   0  0  0  0  0  0  0  0  0  0  0  0
  -19.2760   -7.7697   26.0582 C   0  0  0  0  0  0  0  0  0  0  0  0
  -21.1117   -6.6657   24.9409 C   0  0  0  0  0  0  0  0  0  0  0  0
  -24.5923  -11.7135   20.9071 C   0  0  0  0  0  0  0  0  0  0  0  0
  -25.2144  -13.7340   20.3025 C   0  0  0  0  0  0  0  0  0  0  0  0
  -30.4954  -19.6226   21.8805 C   0  0  0  0  0  0  0  0  0  0  0  0
  -30.3789  -17.3480   21.2645 C   0  0  0  0  0  0  0  0  0  0  0  0
  -22.8271  -13.5801   21.0273 C   0  0  0  0  0  0  0  0  0  0  0  0
  -24.7599  -29.0621   22.3309 C   0  0  0  0  0  0  0  0  0  0  0  0
  -23.0356  -27.8183   19.8810 C   0  0  0  0  0  0  0  0  0  0  0  0
  -22.8454  -25.5709   17.3198 C   0  0  0  0  0  0  0  0  0  0  0  0
  -30.6406  -14.9713   20.4713 C   0  0  0  0  0  0  0  0  0  0  0  0
  -24.6719  -33.2831   25.2001 C   0  0  0  0  0  0  0  0  0  0  0  0
  -26.4112  -29.2026   20.4310 C   0  0  0  0  0  0  0  0  0  0  0  0
  -25.1088  -26.5508   20.5595 C   0  0  0  0  0  0  0  0  0  0  0  0
  -23.6448  -32.4835   24.4027 C   0  0  0  0  0  0  0  0  0  0  0  0
  -29.6884  -12.1076   18.5821 C   0  0  0  0  0  0  0  0  0  0  0  0
  -23.7456  -30.9992   24.7394 C   0  0  0  0  0  0  0  0  0  0  0  0
  -28.2394  -11.8584   19.0068 C   0  0  0  0  0  0  0  0  0  0  0  0
  -30.5455  -12.5957   19.7487 C   0  0  0  0  0  0  0  0  0  0  0  0
  -28.5640  -13.5126   20.8897 C   0  0  0  0  0  0  0  0  0  0  0  0
  -25.1253  -30.4418   24.3689 C   0  0  1  0  0  0  0  0  0  0  0  0
  -24.9501  -29.0444   20.8405 C   0  0  1  0  0  0  0  0  0  0  0  0
  -27.6469  -13.0817   19.7335 C   0  0  2  0  0  0  0  0  0  0  0  0
  -30.5258  -23.2577   17.9224 C   0  0  0  0  0  0  0  0  0  0  0  0
  -30.6982  -21.2098   23.8382 C   0  0  0  0  0  0  0  0  0  0  0  0
  -21.2959  -24.7636   15.5184 C   0  0  0  0  0  0  0  0  0  0  0  0
  -21.4173  -26.2844   21.9638 C   0  0  0  0  0  0  0  0  0  0  0  0
  -20.5644  -24.8200   20.1209 C   0  0  0  0  0  0  0  0  0  0  0  0
  -20.0623  -27.2634   20.1037 C   0  0  0  0  0  0  0  0  0  0  0  0
  -24.7338  -26.3585   15.1814 C   0  0  0  0  0  0  0  0  0  0  0  0
  -31.1465  -22.9891   19.2868 C   0  0  0  0  0  0  0  0  0  0  0  0
  -29.0219  -23.3181   20.6188 C   0  0  0  0  0  0  0  0  0  1  0  0
  -30.2407  -21.0210   22.3941 C   0  0  1  0  0  0  0  0  0  0  0  0
  -22.4089  -26.4766   19.5877 C   0  0  1  0  0  0  0  0  0  0  0  0
  -22.4177  -25.7278   15.8717 C   0  0  2  0  0  0  0  0  0  0  0  0
  -30.1725  -22.3685   20.2921 C   0  0  2  0  0  0  0  0  0  0  0  0
  -21.1412  -26.2138   20.4486 C   0  0  0  0  0  0  0  0  0  0  0  0
  -25.8759  -11.5793   20.5629 N   0  0  0  0  0  0  0  0  0  0  0  0
  -31.6025  -19.2187   21.2947 N   0  0  0  0  0  0  0  0  0  0  0  0
  -31.5337  -17.8847   20.9325 N   0  0  0  0  0  0  0  0  0  0  0  0
  -26.2260  -12.8250   20.1996 N   0  0  0  0  0  0  0  0  0  0  0  0
  -24.3571  -27.7990   20.3491 N   0  0  0  0  0  0  0  0  0  0  0  0
  -29.9242  -13.7588   20.3859 N   0  0  0  0  0  0  0  0  0  0  0  0
  -25.3947  -15.0319   19.9779 N   0  0  0  0  0  0  0  0  0  0  0  0
  -21.8245  -12.7215   21.4985 N   0  0  0  0  0  0  0  0  0  0  0  0
  -29.9362  -16.0164   21.0682 N   0  0  0  0  0  0  0  0  0  0  0  0
  -25.2126  -30.2158   22.9421 N   0  0  0  0  0  0  0  0  0  0  0  0
  -22.1715  -26.4427   18.1487 N   0  0  0  0  0  0  0  0  0  0  0  0
  -23.5674  -25.4653   14.9606 N   0  3  0  0  0  0  0  0  0  0  0  0
  -30.8934  -22.0641   21.5634 N   0  3  0  0  0  0  0  0  0  0  0  0
  -22.5582  -14.7900   20.8337 O   0  0  0  0  0  0  0  0  0  0  0  0
  -24.2396  -28.1009   22.8850 O   0  0  0  0  0  0  0  0  0  0  0  0
  -22.3793  -28.8460   19.6945 O   0  0  0  0  0  0  0  0  0  0  0  0
  -23.6899  -24.7539   17.6801 O   0  0  0  0  0  0  0  0  0  0  0  0
  -31.7841  -15.0825   20.0218 O   0  0  0  0  0  0  0  0  0  0  0  0
  -21.6848   -7.2800   22.6841 O   0  0  0  0  0  0  0  0  0  0  0  0
  -29.5183  -24.5272   21.1914 O   0  0  0  0  0  0  0  0  0  1  0  0
  -18.5038   -7.9286   27.1411 F   0  0  0  0  0  0  0  0  0  0  0  0
  -22.1011   -5.7621   24.9568 F   0  0  0  0  0  0  0  0  0  0  0  0
  -29.2856  -18.4175   22.0406 S   0  0  0  0  0  0  0  0  0  0  0  0
  1  2  1  0  0  0  0
  1  5  2  0  0  0  0
  2  6  2  0  0  0  0
  3  8  2  0  0  0  0
  3 15  1  0  0  0  0
  4  9  1  0  0  0  0
  4 15  2  0  0  0  0
  5 17  1  0  0  0  0
  6 19  1  0  0  0  0
  7 10  2  0  0  0  0
  7 18  1  0  0  0  0
  8 21  1  0  0  0  0
  9 21  2  0  0  0  0
 10 22  1  0  0  0  0
 11 12  2  0  0  0  0
 11 23  1  0  0  0  0
 12 24  1  0  0  0  0
 13 20  1  0  0  0  0
 13 22  2  0  0  0  0
 14 24  2  0  0  0  0
 14 25  1  0  0  0  0
 15 26  1  0  0  0  0
 16 26  1  0  0  0  0
 16 27  2  0  0  0  0
 16 30  1  0  0  0  0
 17 19  2  0  0  0  0
 17 35  1  0  0  0  0
 18 20  2  0  0  0  0
 18 36  1  0  0  0  0
 19 44  1  0  0  0  0
 20 37  1  0  0  0  0
 21 79  1  0  0  0  0
 22 80  1  0  0  0  0
 23 25  2  0  0  0  0
 23 79  1  0  0  0  0
 24 81  1  0  0  0  0
 25 82  1  0  0  0  0
 26 61  2  0  0  0  0
 27 64  1  0  0  0  0
 27 67  1  0  0  0  0
 28 56  1  0  0  0  0
 28 62  2  0  0  0  0
 28 83  1  0  0  0  0
 29 63  2  0  0  0  0
 29 69  1  0  0  0  0
 29 83  1  0  0  0  0
 30 68  1  0  0  0  0
 30 74  2  0  0  0  0
 31 45  1  0  0  0  0
 31 70  1  0  0  0  0
 31 75  2  0  0  0  0
 32 57  1  0  0  0  0
 32 65  1  0  0  0  0
 32 76  2  0  0  0  0
 33 58  1  0  0  0  0
 33 71  1  0  0  0  0
 33 77  2  0  0  0  0
 34 66  1  0  0  0  0
 34 69  1  0  0  0  0
 34 78  2  0  0  0  0
 35 38  1  0  0  0  0
 36 45  1  0  0  0  0
 37 65  1  0  0  0  0
 38 40  1  0  0  0  0
 39 41  1  0  0  0  0
 39 42  1  0  0  0  0
 40 44  1  0  0  0  0
 41 46  1  0  0  0  0
 42 66  1  0  0  0  0
 43 46  1  0  0  0  0
 43 66  1  0  0  0  0
 44 70  1  0  0  0  0
 45 65  1  0  0  0  0
 46 64  1  0  0  0  0
 47 54  1  0  0  0  0
 48 56  1  0  0  0  0
 49 58  1  0  0  0  0
 50 60  1  0  0  0  0
 51 60  1  0  0  0  0
 52 60  1  0  0  0  0
 53 72  1  0  0  0  0
 54 59  1  0  0  0  0
 55 59  1  0  0  0  0
 55 80  1  0  0  0  0
 56 73  1  0  0  0  0
 57 60  1  0  0  0  0
 57 71  1  0  0  0  0
 58 72  1  0  0  0  0
 59 73  1  0  0  0  0
 61 64  1  0  0  0  0
 62 63  1  0  0  0  0
M  CHG  2  72   1  73   1
M  ISO  4  34 100  55 101  69 100  80 101
M  END
> <Batch ID>
0195

> <Smiles>
CCC(NC(C)c1nnc([100NH:0][100C:0](=O)N2CCCC(n3nc(-c4ccc(Oc5ccc(F)cc5F)cc4)c(C(N)=O)c3N)C2)s1)[101CH2:1][101O:1]c1ccc2c(c1)CN(C(=O)C(NC(=O)C(C)NC)C(C)(C)C)C(C(=O)NC1CCCc3ccccc31)C2

> <Shape>
0.348

> <Color>
0.176

> <Negative vol penalty>
0.000

$$$$

  -OEChem-04052305363D

 90 98  0     1  0  0  0  0  0999 V2000
  -27.0413  -27.4089   14.7775 C   0  0  0  0  0  0  0  0  0  0  0  0
  -27.4934  -26.6388   15.8443 C   0  0  0  0  0  0  0  0  0  0  0  0
  -23.1809   -9.7092   19.9860 C   0  0  0  0  0  0  0  0  0  0  0  0
  -23.8584   -9.8882   22.2982 C   0  0  0  0  0  0  0  0  0  0  0  0
  -26.5881  -28.7085   15.0001 C   0  0  0  0  0  0  0  0  0  0  0  0
  -27.4936  -27.1684   17.1343 C   0  0  0  0  0  0  0  0  0  0  0  0
  -25.6901  -23.9148   20.5703 C   0  0  0  0  0  0  0  0  0  0  0  0
  -22.4776   -8.5417   20.2825 C   0  0  0  0  0  0  0  0  0  0  0  0
  -23.1550   -8.7208   22.5947 C   0  0  0  0  0  0  0  0  0  0  0  0
  -26.5449  -22.8986   20.9951 C   0  0  0  0  0  0  0  0  0  0  0  0
  -19.9438   -7.8198   23.1396 C   0  0  0  0  0  0  0  0  0  0  0  0
  -19.1483   -7.8176   24.2854 C   0  0  0  0  0  0  0  0  0  0  0  0
  -27.0408  -24.1587   22.9915 C   0  0  0  0  0  0  0  0  0  0  0  0
  -20.4429   -5.9846   25.1806 C   0  0  0  0  0  0  0  0  0  0  0  0
  -32.3198  -18.1970   22.6989 C   0  0  0  0  0  0  0  0  0  0  0  0
  -30.6511  -18.2846   21.2697 C   0  0  0  0  0  0  0  0  0  0  0  0
  -23.8714  -10.3824   20.9939 C   0  0  0  0  0  0  0  0  0  0  0  0
  -24.1113  -12.9083   20.7289 C   0  0  0  0  0  0  0  0  0  0  0  0
  -26.5737  -29.2509   16.2948 C   0  0  0  0  0  0  0  0  0  0  0  0
  -25.5124  -25.0674   21.3490 C   0  0  0  0  0  0  0  0  0  0  0  0
  -27.0410  -28.4770   17.3742 C   0  0  0  0  0  0  0  0  0  0  0  0
  -26.1812  -25.1869   22.5756 C   0  0  0  0  0  0  0  0  0  0  0  0
  -31.6572  -19.0545   21.8003 C   0  0  0  0  0  0  0  0  0  0  0  0
  -22.4646   -8.0475   21.5868 C   0  0  0  0  0  0  0  0  0  0  0  0
  -27.2226  -23.0217   22.2045 C   0  0  0  0  0  0  0  0  0  0  0  0
  -20.9888   -6.9044   23.0143 C   0  0  0  0  0  0  0  0  0  0  0  0
  -19.3979   -6.9000   25.3059 C   0  0  0  0  0  0  0  0  0  0  0  0
  -21.2384   -5.9869   24.0348 C   0  0  0  0  0  0  0  0  0  0  0  0
  -24.5986  -11.5882   20.6881 C   0  0  0  0  0  0  0  0  0  0  0  0
  -25.1833  -13.6817   20.3558 C   0  0  0  0  0  0  0  0  0  0  0  0
  -22.8064  -13.3922   21.0733 C   0  0  0  0  0  0  0  0  0  0  0  0
  -26.0662  -28.1685   20.9249 C   0  0  0  0  0  0  0  0  0  0  0  0
  -34.8648  -20.7250   20.2665 C   0  0  0  0  0  0  0  0  0  0  0  0
  -30.6297  -14.8906   20.7613 C   0  0  0  0  0  0  0  0  0  0  0  0
  -24.5555  -28.4314   23.7834 C   0  0  0  0  0  0  0  0  0  0  0  0
  -23.6474  -26.9613   26.7263 C   0  0  0  0  0  0  0  0  0  0  0  0
  -26.1190  -30.6770   16.4794 C   0  0  0  0  0  0  0  0  0  0  0  0
  -24.5662  -26.1426   20.8895 C   0  0  0  0  0  0  0  0  0  0  0  0
  -26.0092  -26.3951   23.4583 C   0  0  0  0  0  0  0  0  0  0  0  0
  -25.8008  -31.0320   17.9296 C   0  0  0  0  0  0  0  0  0  0  0  0
  -29.6507  -12.3986   18.3799 C   0  0  0  0  0  0  0  0  0  0  0  0
  -26.9058  -30.5342   18.8559 C   0  0  0  0  0  0  0  0  0  0  0  0
  -28.2200  -12.0524   18.7902 C   0  0  0  0  0  0  0  0  0  0  0  0
  -30.5190  -12.7136   19.5939 C   0  0  0  0  0  0  0  0  0  0  0  0
  -28.5384  -13.4474   20.8825 C   0  0  0  0  0  0  0  0  0  0  0  0
  -27.0335  -29.0074   18.7915 C   0  0  1  0  0  0  0  0  0  0  0  0
  -24.8566  -27.5024   21.5171 C   0  0  1  0  0  0  0  0  0  0  0  0
  -27.6197  -13.1523   19.6836 C   0  0  2  0  0  0  0  0  0  0  0  0
  -37.1675  -20.7429   21.3116 C   0  0  0  0  0  0  0  0  0  0  0  0
  -22.4513  -27.4389   28.8801 C   0  0  0  0  0  0  0  0  0  0  0  0
  -33.1821  -17.2910   18.1619 C   0  0  0  0  0  0  0  0  0  0  0  0
  -33.0669  -18.6656   16.0737 C   0  0  0  0  0  0  0  0  0  0  0  0
  -26.9766  -29.9999   24.7773 C   0  0  0  0  0  0  0  0  0  0  0  0
  -26.1724  -29.6230   27.1181 C   0  0  0  0  0  0  0  0  0  0  0  0
  -24.7678  -30.9147   25.5114 C   0  0  0  0  0  0  0  0  0  0  0  0
  -21.6157  -24.8758   26.1952 C   0  0  0  0  0  0  0  0  0  0  0  0
  -36.0327  -19.8914   20.7707 C   0  0  0  0  0  0  0  0  0  0  0  0
  -29.9277  -15.9114   21.6210 C   0  0  0  0  0  0  0  0  0  0  0  0
  -30.3350  -21.4623   23.1991 C   0  0  0  0  0  0  0  0  0  0  0  0
  -30.8101  -21.4727   21.7390 C   0  0  0  0  0  0  0  0  0  0  0  0
  -33.7772  -19.7722   18.2152 C   0  0  0  0  0  0  0  0  0  0  0  0
  -29.1689  -22.4167   23.4300 C   0  0  0  0  0  0  0  0  0  1  0  0
  -31.9773  -20.5002   21.4894 C   0  0  2  0  0  0  0  0  0  0  0  0
  -33.6663  -19.9503   19.7334 C   0  0  2  0  0  0  0  0  0  0  0  0
  -24.9912  -28.4123   25.2286 C   0  0  1  0  0  0  0  0  0  0  0  0
  -22.3192  -26.9117   27.4598 C   0  0  2  0  0  0  0  0  0  0  0  0
  -32.8836  -18.6790   17.5944 C   0  0  0  0  0  0  0  0  0  0  0  0
  -25.7320  -29.7154   25.6415 C   0  0  0  0  0  0  0  0  0  0  0  0
  -31.7801  -16.9759   22.7396 N   0  0  0  0  0  0  0  0  0  0  0  0
  -25.8804  -11.5229   20.3182 N   0  0  0  0  0  0  0  0  0  0  0  0
  -30.7676  -17.0606   21.8599 N   0  0  0  0  0  0  0  0  0  0  0  0
  -26.2075  -12.8116   20.1230 N   0  0  0  0  0  0  0  0  0  0  0  0
  -25.0781  -27.4221   22.9624 N   0  0  0  0  0  0  0  0  0  0  0  0
  -29.9036  -13.7468   20.4288 N   0  0  0  0  0  0  0  0  0  0  0  0
  -25.3403  -15.0142   20.2074 N   0  0  0  0  0  0  0  0  0  0  0  0
  -21.8221  -12.4615   21.4330 N   0  0  0  0  0  0  0  0  0  0  0  0
  -25.9816  -28.3793   19.5619 N   0  0  0  0  0  0  0  0  0  0  0  0
  -23.7932  -28.1320   26.0125 N   0  0  0  0  0  0  0  0  0  0  0  0
  -21.8146  -25.5109   27.5234 N   0  3  0  0  0  0  0  0  0  0  0  0
  -32.4188  -20.6770   20.0672 N   0  3  0  0  0  0  0  0  0  0  0  0
  -22.5170  -14.6125   21.0466 O   0  0  0  0  0  0  0  0  0  0  0  0
  -27.0061  -28.4704   21.6511 O   0  0  0  0  0  0  0  0  0  0  0  0
  -34.8895  -21.9558   20.2714 O   0  0  0  0  0  0  0  0  0  0  0  0
  -31.7879  -15.1065   20.3948 O   0  0  0  0  0  0  0  0  0  0  0  0
  -23.7744  -29.3052   23.3987 O   0  0  0  0  0  0  0  0  0  0  0  0
  -24.4745  -26.0541   26.7841 O   0  0  0  0  0  0  0  0  0  0  0  0
  -21.7782   -6.9084   21.8765 O   0  0  0  0  0  0  0  0  0  0  0  0
  -28.0581  -22.0317   22.6212 O   0  0  0  0  0  0  0  0  0  1  0  0
  -18.6348   -6.8990   26.4068 F   0  0  0  0  0  0  0  0  0  0  0  0
  -22.2416   -5.1058   23.9206 F   0  0  0  0  0  0  0  0  0  0  0  0
  1  2  1  0  0  0  0
  1  5  2  0  0  0  0
  2  6  2  0  0  0  0
  3  8  2  0  0  0  0
  3 17  1  0  0  0  0
  4  9  1  0  0  0  0
  4 17  2  0  0  0  0
  5 19  1  0  0  0  0
  6 21  1  0  0  0  0
  7 10  2  0  0  0  0
  7 20  1  0  0  0  0
  8 24  1  0  0  0  0
  9 24  2  0  0  0  0
 10 25  1  0  0  0  0
 11 12  2  0  0  0  0
 11 26  1  0  0  0  0
 12 27  1  0  0  0  0
 13 22  1  0  0  0  0
 13 25  2  0  0  0  0
 14 27  2  0  0  0  0
 14 28  1  0  0  0  0
 15 23  1  0  0  0  0
 15 69  2  0  0  0  0
 16 23  2  0  0  0  0
 16 71  1  0  0  0  0
 17 29  1  0  0  0  0
 18 29  1  0  0  0  0
 18 30  2  0  0  0  0
 18 31  1  0  0  0  0
 19 21  2  0  0  0  0
 19 37  1  0  0  0  0
 20 22  2  0  0  0  0
 20 38  1  0  0  0  0
 21 46  1  0  0  0  0
 22 39  1  0  0  0  0
 23 63  1  0  0  0  0
 24 87  1  0  0  0  0
 25 88  1  0  0  0  0
 26 28  2  0  0  0  0
 26 87  1  0  0  0  0
 27 89  1  0  0  0  0
 28 90  1  0  0  0  0
 29 70  2  0  0  0  0
 30 72  1  0  0  0  0
 30 75  1  0  0  0  0
 31 76  1  0  0  0  0
 31 81  2  0  0  0  0
 32 47  1  0  0  0  0
 32 77  1  0  0  0  0
 32 82  2  0  0  0  0
 33 57  1  0  0  0  0
 33 64  1  0  0  0  0
 33 83  2  0  0  0  0
 34 58  1  0  0  0  0
 34 74  1  0  0  0  0
 34 84  2  0  0  0  0
 35 65  1  0  0  0  0
 35 73  1  0  0  0  0
 35 85  2  0  0  0  0
 36 66  1  0  0  0  0
 36 78  1  0  0  0  0
 36 86  2  0  0  0  0
 37 40  1  0  0  0  0
 38 47  1  0  0  0  0
 39 73  1  0  0  0  0
 40 42  1  0  0  0  0
 41 43  1  0  0  0  0
 41 44  1  0  0  0  0
 42 46  1  0  0  0  0
 43 48  1  0  0  0  0
 44 74  1  0  0  0  0
 45 48  1  0  0  0  0
 45 74  1  0  0  0  0
 46 77  1  0  0  0  0
 47 73  1  0  0  0  0
 48 72  1  0  0  0  0
 49 57  1  0  0  0  0
 50 66  1  0  0  0  0
 51 67  1  0  0  0  0
 52 67  1  0  0  0  0
 53 68  1  0  0  0  0
 54 68  1  0  0  0  0
 55 68  1  0  0  0  0
 56 79  1  0  0  0  0
 58 71  1  0  0  0  0
 59 60  1  0  0  0  0
 59 62  1  0  0  0  0
 60 63  1  0  0  0  0
 61 64  1  0  0  0  0
 61 67  1  0  0  0  0
 62 88  1  0  0  0  0
 63 80  1  0  0  0  0
 64 80  1  0  0  0  0
 65 68  1  0  0  0  0
 65 78  1  0  0  0  0
 66 79  1  0  0  0  0
 69 71  1  0  0  0  0
 70 72  1  0  0  0  0
M  CHG  2  79   1  80   1
M  ISO  4  34 100  58 100  62 101  88 101
M  END
> <Batch ID>
0195

> <Smiles>
CCC(=O)C(CC(C)C)NC(CC[101CH2:1][101O:1]c1ccc2c(c1)CN(C(=O)C(NC(=O)C(C)NC)C(C)(C)C)C(C(=O)NC1CCCc3ccccc31)C2)c1cnn([100CH2:0][100C:0](=O)N2CCCC(n3nc(-c4ccc(Oc5ccc(F)cc5F)cc4)c(C(N)=O)c3N)C2)c1

> <Shape>
0.225

> <Color>
0.191

> <Negative vol penalty>
0.000

$$$$

  -OEChem-04052305363D

 90 98  0     1  0  0  0  0  0999 V2000
  -18.2976  -25.2921   22.8439 C   0  0  0  0  0  0  0  0  0  0  0  0
  -19.4639  -25.2427   22.0870 C   0  0  0  0  0  0  0  0  0  0  0  0
  -25.0027  -23.6115   28.2466 C   0  0  0  0  0  0  0  0  0  0  0  0
  -27.2881  -22.8581   28.4614 C   0  0  0  0  0  0  0  0  0  0  0  0
  -17.7328  -26.5238   23.1722 C   0  0  0  0  0  0  0  0  0  0  0  0
  -20.0654  -26.4250   21.6571 C   0  0  0  0  0  0  0  0  0  0  0  0
  -26.0641  -27.4868   21.0293 C   0  0  0  0  0  0  0  0  0  0  0  0
  -24.6937  -23.0243   29.4735 C   0  0  0  0  0  0  0  0  0  0  0  0
  -26.9792  -22.2710   29.6885 C   0  0  0  0  0  0  0  0  0  0  0  0
  -26.9098  -27.4638   19.9211 C   0  0  0  0  0  0  0  0  0  0  0  0
  -23.2180  -21.4136   32.3806 C   0  0  0  0  0  0  0  0  0  0  0  0
  -22.0413  -20.6697   32.4674 C   0  0  0  0  0  0  0  0  0  0  0  0
  -26.6470  -29.8495   19.6788 C   0  0  0  0  0  0  0  0  0  0  0  0
  -22.8545  -19.1827   30.7454 C   0  0  0  0  0  0  0  0  0  0  0  0
  -31.6009  -26.0491   20.1942 C   0  0  0  0  0  0  0  0  0  0  0  0
  -26.2999  -23.5283   27.7405 C   0  0  0  0  0  0  0  0  0  0  0  0
  -27.0737  -25.4476   26.2488 C   0  0  0  0  0  0  0  0  0  0  0  0
  -18.3330  -27.7221   22.7543 C   0  0  0  0  0  0  0  0  0  0  0  0
  -25.4939  -28.6917   21.4647 C   0  0  0  0  0  0  0  0  0  0  0  0
  -19.5073  -27.6738   21.9790 C   0  0  0  0  0  0  0  0  0  0  0  0
  -25.7965  -29.8855   20.7943 C   0  0  0  0  0  0  0  0  0  0  0  0
  -25.6820  -22.3541   30.1945 C   0  0  0  0  0  0  0  0  0  0  0  0
  -27.1991  -28.6448   19.2439 C   0  0  0  0  0  0  0  0  0  0  0  0
  -24.2130  -21.0422   31.4762 C   0  0  0  0  0  0  0  0  0  0  0  0
  -21.8596  -19.5542   31.6498 C   0  0  0  0  0  0  0  0  0  0  0  0
  -24.0312  -19.9267   30.6587 C   0  0  0  0  0  0  0  0  0  0  0  0
  -26.6195  -24.1341   26.4728 C   0  0  0  0  0  0  0  0  0  0  0  0
  -31.7321  -25.5372   17.5773 C   0  0  0  0  0  0  0  0  0  0  0  0
  -30.7900  -25.0984   19.6144 C   0  0  0  0  0  0  0  0  0  0  0  0
  -32.5425  -26.4884   18.1571 C   0  0  0  0  0  0  0  0  0  0  0  0
  -27.2296  -25.5294   24.8866 C   0  0  0  0  0  0  0  0  0  0  0  0
  -27.3317  -26.4997   27.1880 C   0  0  0  0  0  0  0  0  0  0  0  0
  -22.5263  -29.7926   21.7562 C   0  0  0  0  0  0  0  0  0  0  0  0
  -24.0148  -32.3150   23.1504 C   0  0  0  0  0  0  0  0  0  0  0  0
  -26.8618  -34.1625   23.5090 C   0  0  0  0  0  0  0  0  0  0  0  0
  -28.9792  -23.4015   20.0478 C   0  0  0  0  0  0  0  0  0  0  0  0
  -17.6596  -29.0282   23.0937 C   0  0  0  0  0  0  0  0  0  0  0  0
  -24.6049  -28.7036   22.6779 C   0  0  0  0  0  0  0  0  0  0  0  0
  -25.2261  -31.2083   21.2338 C   0  0  0  0  0  0  0  0  0  0  0  0
  -18.5651  -30.2444   22.9167 C   0  0  0  0  0  0  0  0  0  0  0  0
  -25.7755  -22.3697   21.2092 C   0  0  0  0  0  0  0  0  0  0  0  0
  -19.3003  -30.1729   21.5821 C   0  0  0  0  0  0  0  0  0  0  0  0
  -25.7468  -22.8448   22.6637 C   0  0  0  0  0  0  0  0  0  0  0  0
  -27.1635  -21.8806   20.7996 C   0  0  0  0  0  0  0  0  0  0  0  0
  -28.2268  -23.3048   22.5055 C   0  0  0  0  0  0  0  0  0  0  0  0
  -20.2030  -28.9351   21.5151 C   0  0  1  0  0  0  0  0  0  0  0  0
  -23.6710  -29.9091   22.7225 C   0  0  1  0  0  0  0  0  0  0  0  0
  -26.8651  -23.8676   22.9446 C   0  0  2  0  0  0  0  0  0  0  0  0
  -27.7607  -36.1872   24.6879 C   0  0  0  0  0  0  0  0  0  0  0  0
  -32.0578  -28.5116   13.7838 C   0  0  0  0  0  0  0  0  0  0  0  0
  -32.8873  -27.0474   11.9325 C   0  0  0  0  0  0  0  0  0  0  0  0
  -22.5400  -34.1156   21.1774 C   0  0  0  0  0  0  0  0  0  0  0  0
  -24.1528  -35.9437   21.7476 C   0  0  0  0  0  0  0  0  0  0  0  0
  -22.6603  -35.0044   23.5119 C   0  0  0  0  0  0  0  0  0  0  0  0
  -28.8932  -32.5644   24.9507 C   0  0  0  0  0  0  0  0  0  0  0  0
  -28.2753  -27.7672   15.9042 C   0  0  0  0  0  0  0  0  0  0  0  0
  -31.2853  -26.1210   13.7023 C   0  0  0  0  0  0  0  0  0  0  0  0
  -29.3492  -25.5162   15.2584 C   0  0  0  0  0  0  0  0  0  0  0  0
  -28.0409  -27.4364   17.3766 C   0  0  0  0  0  0  0  0  0  1  0  0
  -31.7928  -25.2325   16.0922 C   0  0  2  0  0  0  0  0  0  0  0  0
  -24.5955  -33.6189   22.6588 C   0  0  1  0  0  0  0  0  0  0  0  0
  -27.5790  -34.6784   24.7435 C   0  0  2  0  0  0  0  0  0  0  0  0
  -32.4571  -27.0827   13.3988 C   0  0  0  0  0  0  0  0  0  0  0  0
  -30.8106  -26.0427   15.1815 C   0  0  1  0  0  0  0  0  0  0  0  0
  -28.2692  -26.5626   14.9452 C   0  0  1  0  0  0  0  0  0  0  0  0
  -23.4965  -34.6456   22.2642 C   0  0  0  0  0  0  0  0  0  0  0  0
  -32.4917  -26.7612   19.4759 N   0  0  0  0  0  0  0  0  0  0  0  0
  -26.4947  -23.4320   25.3434 N   0  0  0  0  0  0  0  0  0  0  0  0
  -30.8411  -24.8254   18.2956 N   0  0  0  0  0  0  0  0  0  0  0  0
  -26.8728  -24.3076   24.3966 N   0  0  0  0  0  0  0  0  0  0  0  0
  -24.3573  -31.1672   22.4216 N   0  0  0  0  0  0  0  0  0  0  0  0
  -28.1708  -22.9029   21.0912 N   0  0  0  0  0  0  0  0  0  0  0  0
  -33.4567  -27.2019   17.3499 N   0  0  0  0  0  0  0  0  0  0  0  0
  -27.6356  -26.5265   24.0722 N   0  0  0  0  0  0  0  0  0  0  0  0
  -27.1193  -26.2464   28.5501 N   0  0  0  0  0  0  0  0  0  0  0  0
  -29.8782  -24.3933   20.4386 N   0  0  0  0  0  0  0  0  0  0  0  0
  -21.4162  -29.1527   22.2736 N   0  0  0  0  0  0  0  0  0  0  0  0
  -25.4993  -34.0837   23.7055 N   0  0  0  0  0  0  0  0  0  0  0  0
  -31.6395  -23.7658   15.7933 N   0  3  0  0  0  0  0  0  0  0  0  0
  -28.9237  -34.0471   24.8629 N   0  3  0  0  0  0  0  0  0  0  0  0
  -27.7228  -27.6361   26.8286 O   0  0  0  0  0  0  0  0  0  0  0  0
  -22.6411  -30.2506   20.6254 O   0  0  0  0  0  0  0  0  0  0  0  0
  -23.2901  -32.3139   24.1486 O   0  0  0  0  0  0  0  0  0  0  0  0
  -27.4508  -33.8632   22.4727 O   0  0  0  0  0  0  0  0  0  0  0  0
  -28.8623  -22.9991   18.8875 O   0  0  0  0  0  0  0  0  0  0  0  0
  -26.9927  -25.9270   14.9791 O   0  0  0  0  0  0  0  0  0  0  0  0
  -25.3810  -21.7813   31.3919 O   0  0  0  0  0  0  0  0  0  0  0  0
  -28.0301  -28.6250   18.1532 O   0  0  0  0  0  0  0  0  0  1  0  0
  -20.7302  -18.8390   31.7343 F   0  0  0  0  0  0  0  0  0  0  0  0
  -24.9840  -19.5643   29.7888 F   0  0  0  0  0  0  0  0  0  0  0  0
  1  2  1  0  0  0  0
  1  5  2  0  0  0  0
  2  6  2  0  0  0  0
  3  8  2  0  0  0  0
  3 16  1  0  0  0  0
  4  9  1  0  0  0  0
  4 16  2  0  0  0  0
  5 18  1  0  0  0  0
  6 20  1  0  0  0  0
  7 10  2  0  0  0  0
  7 19  1  0  0  0  0
  8 22  1  0  0  0  0
  9 22  2  0  0  0  0
 10 23  1  0  0  0  0
 11 12  2  0  0  0  0
 11 24  1  0  0  0  0
 12 25  1  0  0  0  0
 13 21  1  0  0  0  0
 13 23  2  0  0  0  0
 14 25  2  0  0  0  0
 14 26  1  0  0  0  0
 15 29  1  0  0  0  0
 15 67  2  0  0  0  0
 16 27  1  0  0  0  0
 17 27  1  0  0  0  0
 17 31  2  0  0  0  0
 17 32  1  0  0  0  0
 18 20  2  0  0  0  0
 18 37  1  0  0  0  0
 19 21  2  0  0  0  0
 19 38  1  0  0  0  0
 20 46  1  0  0  0  0
 21 39  1  0  0  0  0
 22 87  1  0  0  0  0
 23 88  1  0  0  0  0
 24 26  2  0  0  0  0
 24 87  1  0  0  0  0
 25 89  1  0  0  0  0
 26 90  1  0  0  0  0
 27 68  2  0  0  0  0
 28 30  2  0  0  0  0
 28 60  1  0  0  0  0
 28 69  1  0  0  0  0
 29 69  2  0  0  0  0
 29 76  1  0  0  0  0
 30 67  1  0  0  0  0
 30 73  1  0  0  0  0
 31 70  1  0  0  0  0
 31 74  1  0  0  0  0
 32 75  1  0  0  0  0
 32 81  2  0  0  0  0
 33 47  1  0  0  0  0
 33 77  1  0  0  0  0
 33 82  2  0  0  0  0
 34 61  1  0  0  0  0
 34 71  1  0  0  0  0
 34 83  2  0  0  0  0
 35 62  1  0  0  0  0
 35 78  1  0  0  0  0
 35 84  2  0  0  0  0
 36 72  1  0  0  0  0
 36 76  1  0  0  0  0
 36 85  2  0  0  0  0
 37 40  1  0  0  0  0
 38 47  1  0  0  0  0
 39 71  1  0  0  0  0
 40 42  1  0  0  0  0
 41 43  1  0  0  0  0
 41 44  1  0  0  0  0
 42 46  1  0  0  0  0
 43 48  1  0  0  0  0
 44 72  1  0  0  0  0
 45 48  1  0  0  0  0
 45 72  1  0  0  0  0
 46 77  1  0  0  0  0
 47 71  1  0  0  0  0
 48 70  1  0  0  0  0
 49 62  1  0  0  0  0
 50 63  1  0  0  0  0
 51 63  1  0  0  0  0
 52 66  1  0  0  0  0
 53 66  1  0  0  0  0
 54 66  1  0  0  0  0
 55 80  1  0  0  0  0
 56 59  1  0  0  0  0
 56 65  1  0  0  0  0
 57 63  1  0  0  0  0
 57 64  1  0  0  0  0
 58 64  1  0  0  0  0
 58 65  1  0  0  0  0
 59 88  1  0  0  0  0
 60 64  1  0  0  0  0
 60 79  1  0  0  0  0
 61 66  1  0  0  0  0
 61 78  1  0  0  0  0
 62 80  1  0  0  0  0
 65 86  1  0  0  0  0
 68 70  1  0  0  0  0
M  CHG  2  79   1  80   1
M  ISO  4  36 100  59 101  76 100  88 101
M  END
> <Batch ID>
0195

> <Smiles>
CNC(C)C(=O)NC(C(=O)N1Cc2cc([101O:1][101CH2:1]CC(O)CC(CC(C)C)C(N)c3nc([100NH:0][100C:0](=O)N4CCCC(n5nc(-c6ccc(Oc7ccc(F)cc7F)cc6)c(C(N)=O)c5N)C4)cnc3N)ccc2CC1C(=O)NC1CCCc2ccccc21)C(C)(C)C

> <Shape>
0.193

> <Color>
0.092

> <Negative vol penalty>
0.000

$$$$

  -OEChem-04052305363D

 85 93  0     1  0  0  0  0  0999 V2000
  -27.9934  -24.1416   17.1002 C   0  0  0  0  0  0  0  0  0  0  0  0
  -26.8336  -24.3626   17.8360 C   0  0  0  0  0  0  0  0  0  0  0  0
  -25.3918  -14.7215   19.9115 C   0  0  0  0  0  0  0  0  0  0  0  0
  -23.0876  -14.3747   20.5497 C   0  0  0  0  0  0  0  0  0  0  0  0
  -29.1991  -24.7051   17.5156 C   0  0  0  0  0  0  0  0  0  0  0  0
  -26.8790  -25.1465   18.9884 C   0  0  0  0  0  0  0  0  0  0  0  0
  -23.0517  -28.4530   19.2410 C   0  0  0  0  0  0  0  0  0  0  0  0
  -25.7276  -13.4785   20.4478 C   0  0  0  0  0  0  0  0  0  0  0  0
  -23.4233  -13.1315   21.0860 C   0  0  0  0  0  0  0  0  0  0  0  0
  -21.8087  -27.9593   19.6346 C   0  0  0  0  0  0  0  0  0  0  0  0
  -24.0434  -10.0126   19.9423 C   0  0  0  0  0  0  0  0  0  0  0  0
  -23.2085   -8.9347   19.6480 C   0  0  0  0  0  0  0  0  0  0  0  0
  -22.1901  -28.7945   21.8653 C   0  0  0  0  0  0  0  0  0  0  0  0
  -22.7705   -8.6305   22.0044 C   0  0  0  0  0  0  0  0  0  0  0  0
  -16.8629  -22.3895   23.7017 C   0  0  0  0  0  0  0  0  0  0  0  0
  -24.0719  -15.1697   19.9625 C   0  0  0  0  0  0  0  0  0  0  0  0
  -23.3175  -16.7292   18.0900 C   0  0  0  0  0  0  0  0  0  0  0  0
  -29.2575  -25.5043   18.6683 C   0  0  0  0  0  0  0  0  0  0  0  0
  -23.8793  -29.1127   20.1609 C   0  0  0  0  0  0  0  0  0  0  0  0
  -28.0869  -25.7201   19.4203 C   0  0  0  0  0  0  0  0  0  0  0  0
  -23.4420  -29.2979   21.4802 C   0  0  0  0  0  0  0  0  0  0  0  0
  -24.7433  -12.6834   21.0350 C   0  0  0  0  0  0  0  0  0  0  0  0
  -21.3789  -28.1274   20.9476 C   0  0  0  0  0  0  0  0  0  0  0  0
  -24.2419  -10.3994   21.2677 C   0  0  0  0  0  0  0  0  0  0  0  0
  -22.5720   -8.2436   20.6790 C   0  0  0  0  0  0  0  0  0  0  0  0
  -23.6054   -9.7084   22.2988 C   0  0  0  0  0  0  0  0  0  0  0  0
  -23.7246  -16.4539   19.4092 C   0  0  0  0  0  0  0  0  0  0  0  0
  -17.1259  -21.1162   23.2394 C   0  0  0  0  0  0  0  0  0  0  0  0
  -17.9318  -23.2622   23.6883 C   0  0  0  0  0  0  0  0  0  0  0  0
  -23.1073  -18.0864   18.0716 C   0  0  0  0  0  0  0  0  0  0  0  0
  -19.2958  -21.6577   22.8325 C   0  0  0  0  0  0  0  0  0  0  0  0
  -23.1448  -15.8378   16.9803 C   0  0  0  0  0  0  0  0  0  0  0  0
  -26.7726  -28.5754   21.3627 C   0  0  0  0  0  0  0  0  0  0  0  0
  -26.3228  -31.4869   22.7203 C   0  0  0  0  0  0  0  0  0  0  0  0
  -24.1351  -33.8721   23.8028 C   0  0  0  0  0  0  0  0  0  0  0  0
  -21.7279  -22.0612   22.3147 C   0  0  0  0  0  0  0  0  0  0  0  0
  -30.5929  -26.0532   19.1041 C   0  0  0  0  0  0  0  0  0  0  0  0
  -25.2059  -29.6629   19.7138 C   0  0  0  0  0  0  0  0  0  0  0  0
  -24.2841  -30.0168   22.5013 C   0  0  0  0  0  0  0  0  0  0  0  0
  -30.4834  -27.1795   20.1288 C   0  0  0  0  0  0  0  0  0  0  0  0
  -24.5727  -22.1316   20.1748 C   0  0  0  0  0  0  0  0  0  0  0  0
  -29.4981  -26.8044   21.2311 C   0  0  0  0  0  0  0  0  0  0  0  0
  -24.6374  -20.7103   19.6108 C   0  0  0  0  0  0  0  0  0  0  0  0
  -24.1160  -22.1431   21.6325 C   0  0  0  0  0  0  0  0  0  0  0  0
  -22.9247  -20.0078   21.3313 C   0  0  0  0  0  0  0  0  0  0  0  0
  -28.0910  -26.5850   20.6622 C   0  0  1  0  0  0  0  0  0  0  0  0
  -26.1868  -29.8662   20.8644 C   0  0  1  0  0  0  0  0  0  0  0  0
  -23.3175  -19.9501   19.8460 C   0  0  2  0  0  0  0  0  0  0  0  0
  -18.1169  -26.0989   26.5975 C   0  0  0  0  0  0  0  0  0  0  0  0
  -24.0644  -36.1269   24.9020 C   0  0  0  0  0  0  0  0  0  0  0  0
  -26.9652  -30.1940   25.4083 C   0  0  0  0  0  0  0  0  0  0  0  0
  -25.9697  -32.1979   26.5314 C   0  0  0  0  0  0  0  0  0  0  0  0
  -27.9755  -32.4567   25.0711 C   0  0  0  0  0  0  0  0  0  0  0  0
  -22.7845  -35.0953   21.4707 C   0  0  0  0  0  0  0  0  0  0  0  0
  -18.3503  -26.6583   25.1990 C   0  0  0  0  0  0  0  0  0  0  0  0
  -20.0324  -27.2424   22.6968 C   0  0  0  0  0  0  0  0  0  1  0  0
  -25.7274  -31.9818   24.0163 C   0  0  1  0  0  0  0  0  0  0  0  0
  -24.0909  -35.3733   23.5814 C   0  0  2  0  0  0  0  0  0  0  0  0
  -18.7387  -25.5697   24.1881 C   0  0  2  0  0  0  0  0  0  0  0  0
  -18.9788  -26.1384   22.7775 C   0  0  1  0  0  0  0  0  0  0  0  0
  -26.6442  -31.6923   25.2383 C   0  0  0  0  0  0  0  0  0  0  0  0
  -23.7710  -17.5483   20.1735 N   0  0  0  0  0  0  0  0  0  0  0  0
  -18.3352  -20.7147   22.7958 N   0  0  0  0  0  0  0  0  0  0  0  0
  -19.1666  -22.9286   23.2590 N   0  0  0  0  0  0  0  0  0  0  0  0
  -23.3904  -18.5245   19.3318 N   0  0  0  0  0  0  0  0  0  0  0  0
  -25.5759  -30.5311   22.0172 N   0  0  0  0  0  0  0  0  0  0  0  0
  -22.8577  -21.4080   21.7782 N   0  0  0  0  0  0  0  0  0  0  0  0
  -16.0548  -20.1895   23.2349 N   0  0  0  0  0  0  0  0  0  0  0  0
  -22.7097  -18.9359   17.1007 N   0  0  0  0  0  0  0  0  0  0  0  0
  -23.4041  -14.4739   17.1723 N   0  0  0  0  0  0  0  0  0  0  0  0
  -17.7091  -24.5473   24.1431 N   0  0  0  0  0  0  0  0  0  0  0  0
  -20.5800  -21.2718   22.3747 N   0  0  0  0  0  0  0  0  0  0  0  0
  -27.4494  -27.8548   20.3972 N   0  0  0  0  0  0  0  0  0  0  0  0
  -25.4289  -33.3955   23.8149 N   0  0  0  0  0  0  0  0  0  0  0  0
  -22.8761  -35.7464   22.8028 N   0  3  0  0  0  0  0  0  0  0  0  0
  -22.7875  -16.2413   15.8476 O   0  0  0  0  0  0  0  0  0  0  0  0
  -26.6229  -28.2574   22.5367 O   0  0  0  0  0  0  0  0  0  0  0  0
  -27.4071  -31.9373   22.3420 O   0  0  0  0  0  0  0  0  0  0  0  0
  -23.1233  -33.1910   23.9539 O   0  0  0  0  0  0  0  0  0  0  0  0
  -21.7681  -23.2426   22.6678 O   0  0  0  0  0  0  0  0  0  0  0  0
  -17.7344  -26.6545   22.2923 O   0  0  0  0  0  0  0  0  0  0  0  0
  -25.0705  -11.4703   21.5583 O   0  0  0  0  0  0  0  0  0  0  0  0
  -20.1664  -27.6460   21.3346 O   0  0  0  0  0  0  0  0  0  1  0  0
  -21.7691   -7.2095   20.3961 F   0  0  0  0  0  0  0  0  0  0  0  0
  -23.7913  -10.0762   23.5739 F   0  0  0  0  0  0  0  0  0  0  0  0
  1  2  1  0  0  0  0
  1  5  2  0  0  0  0
  2  6  2  0  0  0  0
  3  8  2  0  0  0  0
  3 16  1  0  0  0  0
  4  9  1  0  0  0  0
  4 16  2  0  0  0  0
  5 18  1  0  0  0  0
  6 20  1  0  0  0  0
  7 10  2  0  0  0  0
  7 19  1  0  0  0  0
  8 22  1  0  0  0  0
  9 22  2  0  0  0  0
 10 23  1  0  0  0  0
 11 12  2  0  0  0  0
 11 24  1  0  0  0  0
 12 25  1  0  0  0  0
 13 21  1  0  0  0  0
 13 23  2  0  0  0  0
 14 25  2  0  0  0  0
 14 26  1  0  0  0  0
 15 28  2  0  0  0  0
 15 29  1  0  0  0  0
 16 27  1  0  0  0  0
 17 27  1  0  0  0  0
 17 30  2  0  0  0  0
 17 32  1  0  0  0  0
 18 20  2  0  0  0  0
 18 37  1  0  0  0  0
 19 21  2  0  0  0  0
 19 38  1  0  0  0  0
 20 46  1  0  0  0  0
 21 39  1  0  0  0  0
 22 82  1  0  0  0  0
 23 83  1  0  0  0  0
 24 26  2  0  0  0  0
 24 82  1  0  0  0  0
 25 84  1  0  0  0  0
 26 85  1  0  0  0  0
 27 62  2  0  0  0  0
 28 63  1  0  0  0  0
 28 68  1  0  0  0  0
 29 64  2  0  0  0  0
 29 71  1  0  0  0  0
 30 65  1  0  0  0  0
 30 69  1  0  0  0  0
 31 63  2  0  0  0  0
 31 64  1  0  0  0  0
 31 72  1  0  0  0  0
 32 70  1  0  0  0  0
 32 76  2  0  0  0  0
 33 47  1  0  0  0  0
 33 73  1  0  0  0  0
 33 77  2  0  0  0  0
 34 57  1  0  0  0  0
 34 66  1  0  0  0  0
 34 78  2  0  0  0  0
 35 58  1  0  0  0  0
 35 74  1  0  0  0  0
 35 79  2  0  0  0  0
 36 67  1  0  0  0  0
 36 72  1  0  0  0  0
 36 80  2  0  0  0  0
 37 40  1  0  0  0  0
 38 47  1  0  0  0  0
 39 66  1  0  0  0  0
 40 42  1  0  0  0  0
 41 43  1  0  0  0  0
 41 44  1  0  0  0  0
 42 46  1  0  0  0  0
 43 48  1  0  0  0  0
 44 67  1  0  0  0  0
 45 48  1  0  0  0  0
 45 67  1  0  0  0  0
 46 73  1  0  0  0  0
 47 66  1  0  0  0  0
 48 65  1  0  0  0  0
 49 55  1  0  0  0  0
 50 58  1  0  0  0  0
 51 61  1  0  0  0  0
 52 61  1  0  0  0  0
 53 61  1  0  0  0  0
 54 75  1  0  0  0  0
 55 59  1  0  0  0  0
 56 60  1  0  0  0  0
 56 83  1  0  0  0  0
 57 61  1  0  0  0  0
 57 74  1  0  0  0  0
 58 75  1  0  0  0  0
 59 60  1  0  0  0  0
 59 71  1  0  0  0  0
 60 81  1  0  0  0  0
 62 65  1  0  0  0  0
M  CHG  1  75   1
M  ISO  4  36 100  56 101  72 100  83 101
M  END
> <Batch ID>
0195

> <Smiles>
CCC(Nc1cc(N)nc([100NH:0][100C:0](=O)N2CCCC(n3nc(-c4ccc(Oc5ccc(F)cc5F)cc4)c(C(N)=O)c3N)C2)n1)C(O)[101CH2:1][101O:1]c1ccc2c(c1)CN(C(=O)C(NC(=O)C(C)NC)C(C)(C)C)C(C(=O)NC1CCCc3ccccc31)C2

> <Shape>
0.268

> <Color>
0.066

> <Negative vol penalty>
0.000

$$$$

  -OEChem-04052305363D

 85 93  0     1  0  0  0  0  0999 V2000
  -32.2884  -26.4253   19.3928 C   0  0  0  0  0  0  0  0  0  0  0  0
  -31.0306  -26.2073   18.8399 C   0  0  0  0  0  0  0  0  0  0  0  0
  -27.4774  -15.6990   19.4683 C   0  0  0  0  0  0  0  0  0  0  0  0
  -25.1622  -16.1032   20.0283 C   0  0  0  0  0  0  0  0  0  0  0  0
  -32.4032  -26.8396   20.7191 C   0  0  0  0  0  0  0  0  0  0  0  0
  -29.8868  -26.4025   19.6133 C   0  0  0  0  0  0  0  0  0  0  0  0
  -23.0697  -28.5324   19.0598 C   0  0  0  0  0  0  0  0  0  0  0  0
  -27.3195  -14.3507   19.7886 C   0  0  0  0  0  0  0  0  0  0  0  0
  -25.0043  -14.7548   20.3485 C   0  0  0  0  0  0  0  0  0  0  0  0
  -21.7804  -28.1129   19.3848 C   0  0  0  0  0  0  0  0  0  0  0  0
  -25.7390  -12.7061   22.9357 C   0  0  0  0  0  0  0  0  0  0  0  0
  -25.0594  -12.3950   24.1134 C   0  0  0  0  0  0  0  0  0  0  0  0
  -22.0976  -28.9062   21.6408 C   0  0  0  0  0  0  0  0  0  0  0  0
  -23.4063  -11.1791   22.8383 C   0  0  0  0  0  0  0  0  0  0  0  0
  -26.3987  -16.5753   19.5882 C   0  0  0  0  0  0  0  0  0  0  0  0
  -26.3630  -18.5732   18.0024 C   0  0  0  0  0  0  0  0  0  0  0  0
  -31.2600  -27.0493   21.5063 C   0  0  0  0  0  0  0  0  0  0  0  0
  -23.8879  -29.1331   20.0273 C   0  0  0  0  0  0  0  0  0  0  0  0
  -29.9865  -26.8187   20.9517 C   0  0  0  0  0  0  0  0  0  0  0  0
  -23.3959  -29.3347   21.3248 C   0  0  0  0  0  0  0  0  0  0  0  0
  -26.0830  -13.8785   20.2286 C   0  0  0  0  0  0  0  0  0  0  0  0
  -21.2952  -28.2971   20.6762 C   0  0  0  0  0  0  0  0  0  0  0  0
  -25.2522  -12.2538   21.7093 C   0  0  0  0  0  0  0  0  0  0  0  0
  -23.8931  -11.6315   24.0647 C   0  0  0  0  0  0  0  0  0  0  0  0
  -24.0858  -11.4903   21.6606 C   0  0  0  0  0  0  0  0  0  0  0  0
  -26.5614  -17.9684   19.2580 C   0  0  0  0  0  0  0  0  0  0  0  0
  -26.6448  -19.9010   18.2125 C   0  0  0  0  0  0  0  0  0  0  0  0
  -21.8234  -24.0499   23.8036 C   0  0  0  0  0  0  0  0  0  0  0  0
  -23.2434  -25.6049   24.5797 C   0  0  0  0  0  0  0  0  0  0  0  0
  -24.0327  -23.8083   23.4906 C   0  0  0  0  0  0  0  0  0  0  0  0
  -25.9601  -17.9873   16.7574 C   0  0  0  0  0  0  0  0  0  0  0  0
  -26.6779  -28.4102   21.3678 C   0  0  0  0  0  0  0  0  0  0  0  0
  -19.1803  -25.4618   22.4399 C   0  0  0  0  0  0  0  0  0  0  0  0
  -26.3375  -31.3334   22.7320 C   0  0  0  0  0  0  0  0  0  0  0  0
  -24.2467  -33.8400   23.7282 C   0  0  0  0  0  0  0  0  0  0  0  0
  -26.4795  -23.3917   23.0595 C   0  0  0  0  0  0  0  0  0  0  0  0
  -31.4359  -27.4518   22.9491 C   0  0  0  0  0  0  0  0  0  0  0  0
  -25.2666  -29.6042   19.6537 C   0  0  0  0  0  0  0  0  0  0  0  0
  -24.2270  -29.9929   22.3947 C   0  0  0  0  0  0  0  0  0  0  0  0
  -30.1618  -27.9973   23.5890 C   0  0  0  0  0  0  0  0  0  0  0  0
  -29.2993  -22.7743   20.9751 C   0  0  0  0  0  0  0  0  0  0  0  0
  -28.9735  -27.0982   23.2629 C   0  0  0  0  0  0  0  0  0  0  0  0
  -28.8967  -21.5304   20.1796 C   0  0  0  0  0  0  0  0  0  0  0  0
  -28.7827  -22.7205   22.4118 C   0  0  0  0  0  0  0  0  0  0  0  0
  -26.9391  -21.2268   21.7490 C   0  0  0  0  0  0  0  0  0  0  0  0
  -28.7215  -27.0436   21.7512 C   0  0  1  0  0  0  0  0  0  0  0  0
  -26.1981  -29.7382   20.8544 C   0  0  1  0  0  0  0  0  0  0  0  0
  -27.3816  -21.2652   20.2771 C   0  0  2  0  0  0  0  0  0  0  0  0
  -20.3792  -22.0052   23.6595 C   0  0  0  0  0  0  0  0  0  0  0  0
  -24.2574  -36.0865   24.8465 C   0  0  0  0  0  0  0  0  0  0  0  0
  -26.7620  -29.9831   25.4351 C   0  0  0  0  0  0  0  0  0  0  0  0
  -25.8343  -32.0357   26.5278 C   0  0  0  0  0  0  0  0  0  0  0  0
  -27.9241  -32.1820   25.1735 C   0  0  0  0  0  0  0  0  0  0  0  0
  -23.0939  -35.1614   21.3441 C   0  0  0  0  0  0  0  0  0  0  0  0
  -18.5389  -26.0134   21.1737 C   0  0  0  0  0  0  0  0  0  0  0  0
  -19.7431  -24.0494   22.3272 C   0  0  0  0  0  0  0  0  0  0  0  0
  -19.5196  -26.7639   20.2860 C   0  0  0  0  0  0  0  0  0  1  0  0
  -20.4033  -23.5376   23.6210 C   0  0  2  0  0  0  0  0  0  0  0  0
  -25.7080  -31.8540   24.0016 C   0  0  1  0  0  0  0  0  0  0  0  0
  -24.3053  -35.3427   23.5209 C   0  0  2  0  0  0  0  0  0  0  0  0
  -26.5419  -31.4995   25.2651 C   0  0  0  0  0  0  0  0  0  0  0  0
  -26.9400  -18.8403   20.1964 N   0  0  0  0  0  0  0  0  0  0  0  0
  -21.9647  -25.2143   24.4577 N   0  0  0  0  0  0  0  0  0  0  0  0
  -22.8084  -23.2933   23.2932 N   0  0  0  0  0  0  0  0  0  0  0  0
  -24.3265  -24.9557   24.1231 N   0  0  0  0  0  0  0  0  0  0  0  0
  -26.9819  -20.0066   19.5299 N   0  0  0  0  0  0  0  0  0  0  0  0
  -25.5707  -30.4305   21.9819 N   0  0  0  0  0  0  0  0  0  0  0  0
  -27.3398  -22.4704   22.4255 N   0  0  0  0  0  0  0  0  0  0  0  0
  -26.6346  -20.9768   17.3971 N   0  0  0  0  0  0  0  0  0  0  0  0
  -23.4741  -26.8211   25.2587 N   0  0  0  0  0  0  0  0  0  0  0  0
  -25.7106  -16.6087   16.7176 N   0  0  0  0  0  0  0  0  0  0  0  0
  -25.1260  -23.0655   22.9801 N   0  0  0  0  0  0  0  0  0  0  0  0
  -28.0485  -28.2454   21.3073 N   0  0  0  0  0  0  0  0  0  0  0  0
  -25.5068  -33.2849   23.8005 N   0  0  0  0  0  0  0  0  0  0  0  0
  -23.1569  -35.7956   22.6861 N   0  3  0  0  0  0  0  0  0  0  0  0
  -25.8412  -18.6633   15.7075 O   0  0  0  0  0  0  0  0  0  0  0  0
  -25.8649  -27.5958   21.7891 O   0  0  0  0  0  0  0  0  0  0  0  0
  -19.2086  -26.0977   23.4922 O   0  0  0  0  0  0  0  0  0  0  0  0
  -27.4651  -31.7193   22.4138 O   0  0  0  0  0  0  0  0  0  0  0  0
  -23.1889  -33.2211   23.8208 O   0  0  0  0  0  0  0  0  0  0  0  0
  -26.9094  -24.4102   23.6071 O   0  0  0  0  0  0  0  0  0  0  0  0
  -25.9285  -12.5628   20.5410 O   0  0  0  0  0  0  0  0  0  0  0  0
  -20.0374  -27.8880   20.9963 O   0  0  0  0  0  0  0  0  0  1  0  0
  -23.2414  -11.3315   25.1959 F   0  0  0  0  0  0  0  0  0  0  0  0
  -23.6140  -11.0520   20.4854 F   0  0  0  0  0  0  0  0  0  0  0  0
  1  2  1  0  0  0  0
  1  5  2  0  0  0  0
  2  6  2  0  0  0  0
  3  8  2  0  0  0  0
  3 15  1  0  0  0  0
  4  9  1  0  0  0  0
  4 15  2  0  0  0  0
  5 17  1  0  0  0  0
  6 19  1  0  0  0  0
  7 10  2  0  0  0  0
  7 18  1  0  0  0  0
  8 21  1  0  0  0  0
  9 21  2  0  0  0  0
 10 22  1  0  0  0  0
 11 12  2  0  0  0  0
 11 23  1  0  0  0  0
 12 24  1  0  0  0  0
 13 20  1  0  0  0  0
 13 22  2  0  0  0  0
 14 24  2  0  0  0  0
 14 25  1  0  0  0  0
 15 26  1  0  0  0  0
 16 26  1  0  0  0  0
 16 27  2  0  0  0  0
 16 31  1  0  0  0  0
 17 19  2  0  0  0  0
 17 37  1  0  0  0  0
 18 20  2  0  0  0  0
 18 38  1  0  0  0  0
 19 46  1  0  0  0  0
 20 39  1  0  0  0  0
 21 82  1  0  0  0  0
 22 83  1  0  0  0  0
 23 25  2  0  0  0  0
 23 82  1  0  0  0  0
 24 84  1  0  0  0  0
 25 85  1  0  0  0  0
 26 62  2  0  0  0  0
 27 66  1  0  0  0  0
 27 69  1  0  0  0  0
 28 58  1  0  0  0  0
 28 63  1  0  0  0  0
 28 64  2  0  0  0  0
 29 63  2  0  0  0  0
 29 65  1  0  0  0  0
 29 70  1  0  0  0  0
 30 64  1  0  0  0  0
 30 65  2  0  0  0  0
 30 72  1  0  0  0  0
 31 71  1  0  0  0  0
 31 76  2  0  0  0  0
 32 47  1  0  0  0  0
 32 73  1  0  0  0  0
 32 77  2  0  0  0  0
 33 55  1  0  0  0  0
 33 56  1  0  0  0  0
 33 78  2  0  0  0  0
 34 59  1  0  0  0  0
 34 67  1  0  0  0  0
 34 79  2  0  0  0  0
 35 60  1  0  0  0  0
 35 74  1  0  0  0  0
 35 80  2  0  0  0  0
 36 68  1  0  0  0  0
 36 72  1  0  0  0  0
 36 81  2  0  0  0  0
 37 40  1  0  0  0  0
 38 47  1  0  0  0  0
 39 67  1  0  0  0  0
 40 42  1  0  0  0  0
 41 43  1  0  0  0  0
 41 44  1  0  0  0  0
 42 46  1  0  0  0  0
 43 48  1  0  0  0  0
 44 68  1  0  0  0  0
 45 48  1  0  0  0  0
 45 68  1  0  0  0  0
 46 73  1  0  0  0  0
 47 67  1  0  0  0  0
 48 66  1  0  0  0  0
 49 58  1  0  0  0  0
 50 60  1  0  0  0  0
 51 61  1  0  0  0  0
 52 61  1  0  0  0  0
 53 61  1  0  0  0  0
 54 75  1  0  0  0  0
 55 57  1  0  0  0  0
 56 58  1  0  0  0  0
 57 83  1  0  0  0  0
 59 61  1  0  0  0  0
 59 74  1  0  0  0  0
 60 75  1  0  0  0  0
 62 66  1  0  0  0  0
M  CHG  1  75   1
M  ISO  4  36 100  57 101  72 100  83 101
M  END
> <Batch ID>
0195

> <Smiles>
CNC(C)C(=O)NC(C(=O)N1Cc2cc([101O:1][101CH2:1]CC(=O)CC(C)c3nc(N)nc([100NH:0][100C:0](=O)N4CCCC(n5nc(-c6ccc(Oc7ccc(F)cc7F)cc6)c(C(N)=O)c5N)C4)n3)ccc2CC1C(=O)NC1CCCc2ccccc21)C(C)(C)C

> <Shape>
0.266

> <Color>
0.053

> <Negative vol penalty>
0.000

$$$$

  -OEChem-04052305363D

 85 93  0     1  0  0  0  0  0999 V2000
  -32.4523  -25.5220   23.6784 C   0  0  0  0  0  0  0  0  0  0  0  0
  -31.8047  -25.6623   22.4551 C   0  0  0  0  0  0  0  0  0  0  0  0
  -26.2711  -12.9479   21.6261 C   0  0  0  0  0  0  0  0  0  0  0  0
  -25.7803  -13.7781   19.4109 C   0  0  0  0  0  0  0  0  0  0  0  0
  -31.7138  -25.2521   24.8298 C   0  0  0  0  0  0  0  0  0  0  0  0
  -30.4183  -25.5316   22.3824 C   0  0  0  0  0  0  0  0  0  0  0  0
  -28.2724  -29.1430   19.5544 C   0  0  0  0  0  0  0  0  0  0  0  0
  -25.0570  -12.2614   21.6378 C   0  0  0  0  0  0  0  0  0  0  0  0
  -24.5662  -13.0914   19.4226 C   0  0  0  0  0  0  0  0  0  0  0  0
  -28.3513  -28.9987   18.1700 C   0  0  0  0  0  0  0  0  0  0  0  0
  -22.2505   -9.9987   22.1056 C   0  0  0  0  0  0  0  0  0  0  0  0
  -22.2547   -8.6816   22.5647 C   0  0  0  0  0  0  0  0  0  0  0  0
  -26.0944  -28.1476   18.1360 C   0  0  0  0  0  0  0  0  0  0  0  0
  -28.3553  -22.1989   15.9599 C   0  0  0  0  0  0  0  0  0  0  0  0
  -23.8071   -8.0767   20.8150 C   0  0  0  0  0  0  0  0  0  0  0  0
  -29.2544  -23.7841   17.4882 C   0  0  0  0  0  0  0  0  0  0  0  0
  -26.6328  -13.7063   20.5126 C   0  0  0  0  0  0  0  0  0  0  0  0
  -29.1299  -13.9378   20.0451 C   0  0  0  0  0  0  0  0  0  0  0  0
  -30.3167  -25.1277   24.7728 C   0  0  0  0  0  0  0  0  0  0  0  0
  -27.1057  -28.7799   20.2425 C   0  0  0  0  0  0  0  0  0  0  0  0
  -29.6606  -25.2585   23.5339 C   0  0  0  0  0  0  0  0  0  0  0  0
  -26.0023  -28.2907   19.5289 C   0  0  0  0  0  0  0  0  0  0  0  0
  -28.3504  -21.2592   16.9847 C   0  0  0  0  0  0  0  0  0  0  0  0
  -28.8144  -23.4877   16.2082 C   0  0  0  0  0  0  0  0  0  0  0  0
  -24.2046  -12.3331   20.5361 C   0  0  0  0  0  0  0  0  0  0  0  0
  -27.2633  -28.4982   17.4609 C   0  0  0  0  0  0  0  0  0  0  0  0
  -23.0245  -10.3548   21.0012 C   0  0  0  0  0  0  0  0  0  0  0  0
  -23.0330   -7.7206   21.9194 C   0  0  0  0  0  0  0  0  0  0  0  0
  -23.8028   -9.3939   20.3559 C   0  0  0  0  0  0  0  0  0  0  0  0
  -27.8866  -14.4162   20.5001 C   0  0  0  0  0  0  0  0  0  0  0  0
  -28.8113  -21.6553   18.2299 C   0  0  0  0  0  0  0  0  0  0  0  0
  -29.9951  -14.9856   20.2452 C   0  0  0  0  0  0  0  0  0  0  0  0
  -29.4721  -12.6604   19.4911 C   0  0  0  0  0  0  0  0  0  0  0  0
  -26.3990  -26.6453   22.4892 C   0  0  0  0  0  0  0  0  0  0  0  0
  -23.5049  -28.1087   22.4200 C   0  0  0  0  0  0  0  0  0  0  0  0
  -21.2438  -29.9766   20.6749 C   0  0  0  0  0  0  0  0  0  0  0  0
  -29.2299  -20.9013   20.5969 C   0  0  0  0  0  0  0  0  0  0  0  0
  -29.5660  -24.7888   26.0362 C   0  0  0  0  0  0  0  0  0  0  0  0
  -27.0270  -28.9668   21.7329 C   0  0  0  0  0  0  0  0  0  0  0  0
  -24.7196  -27.9055   20.2181 C   0  0  0  0  0  0  0  0  0  0  0  0
  -28.0630  -25.0366   25.9367 C   0  0  0  0  0  0  0  0  0  0  0  0
  -30.6781  -18.7906   23.0717 C   0  0  0  0  0  0  0  0  0  0  0  0
  -27.5132  -24.4669   24.6328 C   0  0  0  0  0  0  0  0  0  0  0  0
  -30.2449  -17.3852   22.6483 C   0  0  0  0  0  0  0  0  0  0  0  0
  -29.5850  -19.8247   22.8082 C   0  0  0  0  0  0  0  0  0  0  0  0
  -28.6298  -18.4349   21.0122 C   0  0  0  0  0  0  0  0  0  0  0  0
  -28.1557  -25.1484   23.4187 C   0  0  1  0  0  0  0  0  0  0  0  0
  -25.9723  -28.0826   22.3911 C   0  0  1  0  0  0  0  0  0  0  0  0
  -29.7224  -17.3695   21.1983 C   0  0  2  0  0  0  0  0  0  0  0  0
  -27.8573  -19.8783   16.7148 C   0  0  0  0  0  0  0  0  0  0  0  0
  -18.9528  -30.9822   20.8674 C   0  0  0  0  0  0  0  0  0  0  0  0
  -30.8219  -25.7978   15.4143 C   0  0  0  0  0  0  0  0  0  0  0  0
  -22.2627  -25.3555   21.9877 C   0  0  0  0  0  0  0  0  0  0  0  0
  -20.1600  -26.4970   21.2503 C   0  0  0  0  0  0  0  0  0  0  0  0
  -21.0086  -26.8287   23.5725 C   0  0  0  0  0  0  0  0  0  0  0  0
  -22.2940  -32.7226   20.3350 C   0  0  0  0  0  0  0  0  0  0  0  0
  -28.7586  -26.7116   14.2946 C   0  0  0  0  0  0  0  0  0  0  0  0
  -26.5678  -27.3069   15.5236 C   0  0  0  0  0  0  0  0  0  1  0  0
  -22.2267  -27.9137   21.6409 C   0  0  1  0  0  0  0  0  0  0  0  0
  -20.4443  -31.2084   21.0594 C   0  0  2  0  0  0  0  0  0  0  0  0
  -29.2959  -25.8006   15.4056 C   0  0  1  0  0  0  0  0  0  0  0  0
  -27.2261  -26.8201   14.2348 C   0  0  1  0  0  0  0  0  0  0  0  0
  -21.4392  -26.6541   22.0998 C   0  0  0  0  0  0  0  0  0  0  0  0
  -29.2647  -22.8979   18.5091 N   0  0  0  0  0  0  0  0  0  0  0  0
  -27.9518  -15.6703   20.9551 N   0  0  0  0  0  0  0  0  0  0  0  0
  -29.2466  -15.9887   20.7871 N   0  0  0  0  0  0  0  0  0  0  0  0
  -24.6940  -28.1007   21.6771 N   0  0  0  0  0  0  0  0  0  0  0  0
  -29.1423  -19.7543   21.4139 N   0  0  0  0  0  0  0  0  0  0  0  0
  -31.3155  -15.1374   20.0087 N   0  0  0  0  0  0  0  0  0  0  0  0
  -28.4617  -11.6986   19.3553 N   0  0  0  0  0  0  0  0  0  0  0  0
  -28.8319  -24.4437   15.2081 N   0  0  0  0  0  0  0  0  0  0  0  0
  -28.8105  -20.7055   19.2814 N   0  0  0  0  0  0  0  0  0  0  0  0
  -27.5675  -26.4526   23.2011 N   0  0  0  0  0  0  0  0  0  0  0  0
  -21.4806  -29.1616   21.7616 N   0  0  0  0  0  0  0  0  0  0  0  0
  -20.8543  -32.3732   20.2250 N   0  3  0  0  0  0  0  0  0  0  0  0
  -30.6427  -12.3745   19.1424 O   0  0  0  0  0  0  0  0  0  0  0  0
  -25.7177  -25.7753   21.9595 O   0  0  0  0  0  0  0  0  0  0  0  0
  -23.4499  -28.2696   23.6418 O   0  0  0  0  0  0  0  0  0  0  0  0
  -21.6175  -29.7572   19.5247 O   0  0  0  0  0  0  0  0  0  0  0  0
  -29.6718  -21.9707   21.0248 O   0  0  0  0  0  0  0  0  0  0  0  0
  -26.8827  -27.7445   13.1987 O   0  0  0  0  0  0  0  0  0  0  0  0
  -23.0199  -11.6631   20.5471 O   0  0  0  0  0  0  0  0  0  0  0  0
  -27.3380  -28.3557   16.1096 O   0  0  0  0  0  0  0  0  0  1  0  0
  -23.0381   -6.4561   22.3613 F   0  0  0  0  0  0  0  0  0  0  0  0
  -24.5494   -9.7303   19.2951 F   0  0  0  0  0  0  0  0  0  0  0  0
  1  2  1  0  0  0  0
  1  5  2  0  0  0  0
  2  6  2  0  0  0  0
  3  8  2  0  0  0  0
  3 17  1  0  0  0  0
  4  9  1  0  0  0  0
  4 17  2  0  0  0  0
  5 19  1  0  0  0  0
  6 21  1  0  0  0  0
  7 10  2  0  0  0  0
  7 20  1  0  0  0  0
  8 25  1  0  0  0  0
  9 25  2  0  0  0  0
 10 26  1  0  0  0  0
 11 12  2  0  0  0  0
 11 27  1  0  0  0  0
 12 28  1  0  0  0  0
 13 22  1  0  0  0  0
 13 26  2  0  0  0  0
 14 23  1  0  0  0  0
 14 24  2  0  0  0  0
 15 28  2  0  0  0  0
 15 29  1  0  0  0  0
 16 24  1  0  0  0  0
 16 64  2  0  0  0  0
 17 30  1  0  0  0  0
 18 30  1  0  0  0  0
 18 32  2  0  0  0  0
 18 33  1  0  0  0  0
 19 21  2  0  0  0  0
 19 38  1  0  0  0  0
 20 22  2  0  0  0  0
 20 39  1  0  0  0  0
 21 47  1  0  0  0  0
 22 40  1  0  0  0  0
 23 31  2  0  0  0  0
 23 50  1  0  0  0  0
 24 71  1  0  0  0  0
 25 82  1  0  0  0  0
 26 83  1  0  0  0  0
 27 29  2  0  0  0  0
 27 82  1  0  0  0  0
 28 84  1  0  0  0  0
 29 85  1  0  0  0  0
 30 65  2  0  0  0  0
 31 64  1  0  0  0  0
 31 72  1  0  0  0  0
 32 66  1  0  0  0  0
 32 69  1  0  0  0  0
 33 70  1  0  0  0  0
 33 76  2  0  0  0  0
 34 48  1  0  0  0  0
 34 73  1  0  0  0  0
 34 77  2  0  0  0  0
 35 59  1  0  0  0  0
 35 67  1  0  0  0  0
 35 78  2  0  0  0  0
 36 60  1  0  0  0  0
 36 74  1  0  0  0  0
 36 79  2  0  0  0  0
 37 68  1  0  0  0  0
 37 72  1  0  0  0  0
 37 80  2  0  0  0  0
 38 41  1  0  0  0  0
 39 48  1  0  0  0  0
 40 67  1  0  0  0  0
 41 43  1  0  0  0  0
 42 44  1  0  0  0  0
 42 45  1  0  0  0  0
 43 47  1  0  0  0  0
 44 49  1  0  0  0  0
 45 68  1  0  0  0  0
 46 49  1  0  0  0  0
 46 68  1  0  0  0  0
 47 73  1  0  0  0  0
 48 67  1  0  0  0  0
 49 66  1  0  0  0  0
 51 60  1  0  0  0  0
 52 61  1  0  0  0  0
 53 63  1  0  0  0  0
 54 63  1  0  0  0  0
 55 63  1  0  0  0  0
 56 75  1  0  0  0  0
 57 61  1  0  0  0  0
 57 62  1  0  0  0  0
 58 62  1  0  0  0  0
 58 83  1  0  0  0  0
 59 63  1  0  0  0  0
 59 74  1  0  0  0  0
 60 75  1  0  0  0  0
 61 71  1  0  0  0  0
 62 81  1  0  0  0  0
 65 66  1  0  0  0  0
M  CHG  1  75   1
M  ISO  4  37 100  58 101  72 100  83 101
M  END
> <Batch ID>
0195

> <Smiles>
CNC(C)C(=O)NC(C(=O)N1Cc2cc([101O:1][101CH2:1]C(O)CC(C)Nc3cnc([100NH:0][100C:0](=O)N4CCCC(n5nc(-c6ccc(Oc7ccc(F)cc7F)cc6)c(C(N)=O)c5N)C4)c(C)c3)ccc2CC1C(=O)NC1CCCc2ccccc21)C(C)(C)C

> <Shape>
0.236

> <Color>
0.095

> <Negative vol penalty>
0.000

$$$$

  -OEChem-04052305363D

 84 92  0     1  0  0  0  0  0999 V2000
  -28.4775  -11.4957   19.2012 C   0  0  0  0  0  0  0  0  0  0  0  0
  -27.4366  -12.3114   19.6334 C   0  0  0  0  0  0  0  0  0  0  0  0
  -22.0769  -28.5732   23.6557 C   0  0  0  0  0  0  0  0  0  0  0  0
  -21.7113  -29.7078   21.5543 C   0  0  0  0  0  0  0  0  0  0  0  0
  -29.7984  -11.9179   19.3455 C   0  0  0  0  0  0  0  0  0  0  0  0
  -27.7161  -13.5493   20.2110 C   0  0  0  0  0  0  0  0  0  0  0  0
  -24.7271  -17.2363   18.4455 C   0  0  0  0  0  0  0  0  0  0  0  0
  -22.7127  -29.7085   24.1581 C   0  0  0  0  0  0  0  0  0  0  0  0
  -22.3471  -30.8432   22.0566 C   0  0  0  0  0  0  0  0  0  0  0  0
  -23.4296  -17.3013   18.9515 C   0  0  0  0  0  0  0  0  0  0  0  0
  -25.7461  -31.1788   23.9108 C   0  0  0  0  0  0  0  0  0  0  0  0
  -26.9402  -30.9967   24.6083 C   0  0  0  0  0  0  0  0  0  0  0  0
  -24.1068  -19.0711   20.4442 C   0  0  0  0  0  0  0  0  0  0  0  0
  -25.9481  -32.0014   26.5688 C   0  0  0  0  0  0  0  0  0  0  0  0
  -17.1731  -23.0837   18.0144 C   0  0  0  0  0  0  0  0  0  0  0  0
  -21.5762  -28.5728   22.3538 C   0  0  0  0  0  0  0  0  0  0  0  0
  -19.5482  -27.0916   21.9059 C   0  0  0  0  0  0  0  0  0  0  0  0
  -30.0939  -13.1659   19.9164 C   0  0  0  0  0  0  0  0  0  0  0  0
  -25.7285  -18.0822   18.9436 C   0  0  0  0  0  0  0  0  0  0  0  0
  -29.0423  -13.9881   20.3643 C   0  0  0  0  0  0  0  0  0  0  0  0
  -25.4156  -19.0167   19.9410 C   0  0  0  0  0  0  0  0  0  0  0  0
  -22.8478  -30.8435   23.3586 C   0  0  0  0  0  0  0  0  0  0  0  0
  -23.1200  -18.2168   19.9531 C   0  0  0  0  0  0  0  0  0  0  0  0
  -24.6530  -31.7723   24.5422 C   0  0  0  0  0  0  0  0  0  0  0  0
  -27.0412  -31.4080   25.9374 C   0  0  0  0  0  0  0  0  0  0  0  0
  -24.7540  -32.1835   25.8712 C   0  0  0  0  0  0  0  0  0  0  0  0
  -20.9198  -27.4002   21.8341 C   0  0  0  0  0  0  0  0  0  0  0  0
  -18.3105  -22.4629   17.5422 C   0  0  0  0  0  0  0  0  0  0  0  0
  -19.4352  -25.8794   21.2701 C   0  0  0  0  0  0  0  0  0  0  0  0
  -17.4841  -20.7971   18.7050 C   0  0  0  0  0  0  0  0  0  0  0  0
  -18.4723  -27.8344   22.4945 C   0  0  0  0  0  0  0  0  0  0  0  0
  -28.4950  -17.6414   20.4456 C   0  0  0  0  0  0  0  0  0  0  0  0
  -20.7147  -22.5622   16.9516 C   0  0  0  0  0  0  0  0  0  0  0  0
  -28.7701  -20.8503   20.0590 C   0  0  0  0  0  0  0  0  0  0  0  0
  -27.2217  -23.8555   19.5918 C   0  0  0  0  0  0  0  0  0  0  0  0
  -31.5391  -13.5588   20.0945 C   0  0  0  0  0  0  0  0  0  0  0  0
  -27.1168  -18.0181   18.3684 C   0  0  0  0  0  0  0  0  0  0  0  0
  -26.4497  -19.9610   20.4954 C   0  0  0  0  0  0  0  0  0  0  0  0
  -31.7358  -15.0464   20.3749 C   0  0  0  0  0  0  0  0  0  0  0  0
  -22.9700  -22.6145   19.7357 C   0  0  0  0  0  0  0  0  0  0  0  0
  -30.7542  -15.5231   21.4408 C   0  0  0  0  0  0  0  0  0  0  0  0
  -22.5445  -23.8557   20.5191 C   0  0  0  0  0  0  0  0  0  0  0  0
  -22.8138  -22.8223   18.2325 C   0  0  0  0  0  0  0  0  0  0  0  0
  -21.0123  -24.4783   18.5982 C   0  0  0  0  0  0  0  0  0  0  0  0
  -29.3043  -15.3485   20.9732 C   0  0  1  0  0  0  0  0  0  0  0  0
  -28.1802  -18.5741   19.3104 C   0  0  1  0  0  0  0  0  0  0  0  0
  -21.1254  -24.3000   20.1226 C   0  0  2  0  0  0  0  0  0  0  0  0
  -16.4094  -16.8794   18.5005 C   0  0  0  0  0  0  0  0  0  0  0  0
  -19.0410  -22.8957   15.1608 C   0  0  0  0  0  0  0  0  0  0  0  0
  -26.9983  -26.3187   19.1673 C   0  0  0  0  0  0  0  0  0  0  0  0
  -29.2599  -21.0444   23.0644 C   0  0  0  0  0  0  0  0  0  0  0  0
  -28.7915  -23.4991   22.9118 C   0  0  0  0  0  0  0  0  0  0  0  0
  -30.7219  -22.5201   21.6717 C   0  0  0  0  0  0  0  0  0  0  0  0
  -27.2286  -23.4683   16.6577 C   0  0  0  0  0  0  0  0  0  0  0  0
  -17.6314  -17.1207   19.3789 C   0  0  0  0  0  0  0  0  0  0  0  0
  -20.7907  -17.9387   19.5621 C   0  0  0  0  0  0  0  0  0  1  0  0
  -19.3266  -23.0765   16.6642 C   0  0  1  0  0  0  0  0  0  0  0  0
  -28.3699  -22.0624   20.8650 C   0  0  1  0  0  0  0  0  0  0  0  0
  -27.4957  -24.9896   18.6206 C   0  0  2  0  0  0  0  0  0  0  0  0
  -18.3023  -18.4721   19.0936 C   0  0  2  0  0  0  0  0  0  0  0  0
  -19.5395  -18.7109   19.9788 C   0  0  1  0  0  0  0  0  0  0  0  0
  -29.2665  -22.2625   22.1194 C   0  0  0  0  0  0  0  0  0  0  0  0
  -21.6275  -26.4597   21.2026 N   0  0  0  0  0  0  0  0  0  0  0  0
  -18.4908  -21.1518   17.9376 N   0  0  0  0  0  0  0  0  0  0  0  0
  -20.6970  -25.5483   20.8719 N   0  0  0  0  0  0  0  0  0  0  0  0
  -27.7942  -19.8554   19.9050 N   0  0  0  0  0  0  0  0  0  0  0  0
  -21.4588  -23.2654   17.8992 N   0  0  0  0  0  0  0  0  0  0  0  0
  -18.3807  -25.0750   21.0184 N   0  0  0  0  0  0  0  0  0  0  0  0
  -18.7638  -29.0609   23.1069 N   0  0  0  0  0  0  0  0  0  0  0  0
  -17.3447  -19.5476   19.2774 N   0  0  0  0  0  0  0  0  0  0  0  0
  -28.9432  -16.3975   20.0439 N   0  0  0  0  0  0  0  0  0  0  0  0
  -28.3781  -23.1895   19.9387 N   0  0  0  0  0  0  0  0  0  0  0  0
  -26.8161  -24.7328   17.3194 N   0  3  0  0  0  0  0  0  0  0  0  0
  -17.2902  -27.4148   22.4924 O   0  0  0  0  0  0  0  0  0  0  0  0
  -28.3439  -18.0226   21.6004 O   0  0  0  0  0  0  0  0  0  0  0  0
  -21.1226  -21.5635   16.3530 O   0  0  0  0  0  0  0  0  0  0  0  0
  -29.9043  -20.7918   19.5776 O   0  0  0  0  0  0  0  0  0  0  0  0
  -26.0950  -23.5895   20.0045 O   0  0  0  0  0  0  0  0  0  0  0  0
  -19.1990  -18.3448   21.3206 O   0  0  0  0  0  0  0  0  0  0  0  0
  -23.4680  -31.9516   23.8485 O   0  0  0  0  0  0  0  0  0  0  0  0
  -21.8545  -18.2818   20.4492 O   0  0  0  0  0  0  0  0  0  1  0  0
  -28.1874  -31.2316   26.6076 F   0  0  0  0  0  0  0  0  0  0  0  0
  -23.7069  -32.7531   26.4835 F   0  0  0  0  0  0  0  0  0  0  0  0
  -16.2848  -21.9903   18.9925 S   0  0  0  0  0  0  0  0  0  0  0  0
  1  2  1  0  0  0  0
  1  5  2  0  0  0  0
  2  6  2  0  0  0  0
  3  8  2  0  0  0  0
  3 16  1  0  0  0  0
  4  9  1  0  0  0  0
  4 16  2  0  0  0  0
  5 18  1  0  0  0  0
  6 20  1  0  0  0  0
  7 10  2  0  0  0  0
  7 19  1  0  0  0  0
  8 22  1  0  0  0  0
  9 22  2  0  0  0  0
 10 23  1  0  0  0  0
 11 12  2  0  0  0  0
 11 24  1  0  0  0  0
 12 25  1  0  0  0  0
 13 21  1  0  0  0  0
 13 23  2  0  0  0  0
 14 25  2  0  0  0  0
 14 26  1  0  0  0  0
 15 28  2  0  0  0  0
 15 84  1  0  0  0  0
 16 27  1  0  0  0  0
 17 27  1  0  0  0  0
 17 29  2  0  0  0  0
 17 31  1  0  0  0  0
 18 20  2  0  0  0  0
 18 36  1  0  0  0  0
 19 21  2  0  0  0  0
 19 37  1  0  0  0  0
 20 45  1  0  0  0  0
 21 38  1  0  0  0  0
 22 80  1  0  0  0  0
 23 81  1  0  0  0  0
 24 26  2  0  0  0  0
 24 80  1  0  0  0  0
 25 82  1  0  0  0  0
 26 83  1  0  0  0  0
 27 63  2  0  0  0  0
 28 57  1  0  0  0  0
 28 64  1  0  0  0  0
 29 65  1  0  0  0  0
 29 68  1  0  0  0  0
 30 64  2  0  0  0  0
 30 70  1  0  0  0  0
 30 84  1  0  0  0  0
 31 69  1  0  0  0  0
 31 74  2  0  0  0  0
 32 46  1  0  0  0  0
 32 71  1  0  0  0  0
 32 75  2  0  0  0  0
 33 57  1  0  0  0  0
 33 67  1  0  0  0  0
 33 76  2  0  0  0  0
 34 58  1  0  0  0  0
 34 66  1  0  0  0  0
 34 77  2  0  0  0  0
 35 59  1  0  0  0  0
 35 72  1  0  0  0  0
 35 78  2  0  0  0  0
 36 39  1  0  0  0  0
 37 46  1  0  0  0  0
 38 66  1  0  0  0  0
 39 41  1  0  0  0  0
 40 42  1  0  0  0  0
 40 43  1  0  0  0  0
 41 45  1  0  0  0  0
 42 47  1  0  0  0  0
 43 67  1  0  0  0  0
 44 47  1  0  0  0  0
 44 67  1  0  0  0  0
 45 71  1  0  0  0  0
 46 66  1  0  0  0  0
 47 65  1  0  0  0  0
 48 55  1  0  0  0  0
 49 57  1  0  0  0  0
 50 59  1  0  0  0  0
 51 62  1  0  0  0  0
 52 62  1  0  0  0  0
 53 62  1  0  0  0  0
 54 73  1  0  0  0  0
 55 60  1  0  0  0  0
 56 61  1  0  0  0  0
 56 81  1  0  0  0  0
 58 62  1  0  0  0  0
 58 72  1  0  0  0  0
 59 73  1  0  0  0  0
 60 61  1  0  0  0  0
 60 70  1  0  0  0  0
 61 79  1  0  0  0  0
 63 65  1  0  0  0  0
M  CHG  1  73   1
M  ISO  4  33 100  56 101  57 100  81 101
M  END
> <Batch ID>
0195

> <Smiles>
CCC(Nc1nc([100CH:0](C)[100C:0](=O)N2CCCC(n3nc(-c4ccc(Oc5ccc(F)cc5F)cc4)c(C(N)=O)c3N)C2)cs1)C(O)[101CH2:1][101O:1]c1ccc2c(c1)CN(C(=O)C(NC(=O)C(C)NC)C(C)(C)C)C(C(=O)NC1CCCc3ccccc31)C2

> <Shape>
0.241

> <Color>
0.043

> <Negative vol penalty>
0.000

$$$$

  -OEChem-04052305363D

 84 92  0     1  0  0  0  0  0999 V2000
  -21.2448  -34.2302   24.7513 C   0  0  0  0  0  0  0  0  0  0  0  0
  -22.4472  -33.6585   24.3478 C   0  0  0  0  0  0  0  0  0  0  0  0
  -25.5706  -13.1502   21.9145 C   0  0  0  0  0  0  0  0  0  0  0  0
  -25.8391  -13.6517   19.5665 C   0  0  0  0  0  0  0  0  0  0  0  0
  -20.1121  -33.4322   24.9060 C   0  0  0  0  0  0  0  0  0  0  0  0
  -22.5178  -32.2881   24.1000 C   0  0  0  0  0  0  0  0  0  0  0  0
  -25.9316  -29.4855   19.8577 C   0  0  0  0  0  0  0  0  0  0  0  0
  -24.5566  -12.2438   21.6050 C   0  0  0  0  0  0  0  0  0  0  0  0
  -24.8251  -12.7453   19.2569 C   0  0  0  0  0  0  0  0  0  0  0  0
  -27.1646  -28.8381   19.9235 C   0  0  0  0  0  0  0  0  0  0  0  0
  -24.3147   -9.0787   20.4403 C   0  0  0  0  0  0  0  0  0  0  0  0
  -24.3394   -7.8368   21.0748 C   0  0  0  0  0  0  0  0  0  0  0  0
  -26.0334  -26.7197   20.1513 C   0  0  0  0  0  0  0  0  0  0  0  0
  -22.1701   -8.2864   22.0390 C   0  0  0  0  0  0  0  0  0  0  0  0
  -28.7415  -22.5934   17.8370 C   0  0  0  0  0  0  0  0  0  0  0  0
  -26.6063  -23.0647   18.1119 C   0  0  0  0  0  0  0  0  0  0  0  0
  -26.2119  -13.8542   20.8953 C   0  0  0  0  0  0  0  0  0  0  0  0
  -28.6375  -14.5234   21.3147 C   0  0  0  0  0  0  0  0  0  0  0  0
  -20.1665  -32.0529   24.6506 C   0  0  0  0  0  0  0  0  0  0  0  0
  -24.7382  -28.7547   19.9492 C   0  0  0  0  0  0  0  0  0  0  0  0
  -21.3851  -31.4707   24.2527 C   0  0  0  0  0  0  0  0  0  0  0  0
  -24.7865  -27.3599   20.0838 C   0  0  0  0  0  0  0  0  0  0  0  0
  -24.1838  -12.0414   20.2762 C   0  0  0  0  0  0  0  0  0  0  0  0
  -27.2157  -27.4553   20.0732 C   0  0  0  0  0  0  0  0  0  0  0  0
  -23.2178   -9.9245   20.6051 C   0  0  0  0  0  0  0  0  0  0  0  0
  -23.2671   -7.4407   21.8741 C   0  0  0  0  0  0  0  0  0  0  0  0
  -22.1455   -9.5284   21.4044 C   0  0  0  0  0  0  0  0  0  0  0  0
  -27.2591  -14.7910   21.2144 C   0  0  0  0  0  0  0  0  0  0  0  0
  -28.3869  -23.7350   17.1576 C   0  0  0  0  0  0  0  0  0  0  0  0
  -29.1998  -15.7345   21.6368 C   0  0  0  0  0  0  0  0  0  0  0  0
  -29.3464  -13.2905   21.1328 C   0  0  0  0  0  0  0  0  0  0  0  0
  -22.2871  -28.7067   21.9724 C   0  0  0  0  0  0  0  0  0  0  0  0
  -27.3550  -21.3819   20.7342 C   0  0  0  0  0  0  0  0  0  0  0  0
  -21.0402  -26.6427   19.8027 C   0  0  0  0  0  0  0  0  0  0  0  0
  -21.5891  -24.3935   17.2954 C   0  0  0  0  0  0  0  0  0  0  0  0
  -18.9276  -31.2232   24.8773 C   0  0  0  0  0  0  0  0  0  0  0  0
  -23.4162  -29.4651   19.8497 C   0  0  0  0  0  0  0  0  0  0  0  0
  -23.5341  -26.5273   20.1664 C   0  0  0  0  0  0  0  0  0  0  0  0
  -18.9937  -29.8410   24.2327 C   0  0  0  0  0  0  0  0  0  0  0  0
  -28.2271  -19.8518   23.8548 C   0  0  0  0  0  0  0  0  0  0  0  0
  -20.3339  -29.1765   24.5311 C   0  0  0  0  0  0  0  0  0  0  0  0
  -28.1751  -18.3557   23.5479 C   0  0  0  0  0  0  0  0  0  0  0  0
  -27.1612  -20.6184   23.0781 C   0  0  0  0  0  0  0  0  0  0  0  0
  -27.1616  -18.9073   21.2910 C   0  0  0  0  0  0  0  0  0  0  0  0
  -21.4955  -29.9920   23.9504 C   0  0  1  0  0  0  0  0  0  0  0  0
  -22.2664  -28.6774   20.4703 C   0  0  1  0  0  0  0  0  0  0  0  0
  -28.2421  -18.0997   22.0319 C   0  0  2  0  0  0  0  0  0  0  0  0
  -32.2531  -26.5544   16.3555 C   0  0  0  0  0  0  0  0  0  0  0  0
  -28.7603  -24.7442   14.8696 C   0  0  0  0  0  0  0  0  0  0  0  0
  -20.3760  -22.8405   15.7418 C   0  0  0  0  0  0  0  0  0  0  0  0
  -20.6153  -24.6802   22.1001 C   0  0  0  0  0  0  0  0  0  0  0  0
  -20.3129  -22.8656   20.4019 C   0  0  0  0  0  0  0  0  0  0  0  0
  -18.7294  -24.7921   20.4615 C   0  0  0  0  0  0  0  0  0  0  0  0
  -22.5917  -25.8174   14.9025 C   0  0  0  0  0  0  0  0  0  0  0  0
  -27.4390  -21.0072   19.2759 C   0  0  0  0  0  0  0  0  0  0  0  0
  -31.7548  -25.7206   17.5286 C   0  0  0  0  0  0  0  0  0  0  0  0
  -29.8823  -25.1814   19.1395 C   0  0  0  0  0  0  0  0  0  0  0  0
  -28.4742  -25.4835   19.6441 C   0  0  0  0  0  0  0  0  0  1  0  0
  -29.2615  -24.6268   16.3068 C   0  0  1  0  0  0  0  0  0  0  0  0
  -21.0812  -25.1468   19.6039 C   0  0  1  0  0  0  0  0  0  0  0  0
  -20.9521  -24.2357   15.9265 C   0  0  2  0  0  0  0  0  0  0  0  0
  -30.3469  -26.1023   18.0049 C   0  0  2  0  0  0  0  0  0  0  0  0
  -20.2085  -24.3868   20.6423 C   0  0  0  0  0  0  0  0  0  0  0  0
  -27.0566  -24.0231   17.3330 N   0  0  0  0  0  0  0  0  0  0  0  0
  -26.9636  -16.0714   21.4536 N   0  0  0  0  0  0  0  0  0  0  0  0
  -27.5906  -22.1757   18.4438 N   0  0  0  0  0  0  0  0  0  0  0  0
  -28.1643  -16.6192   21.7075 N   0  0  0  0  0  0  0  0  0  0  0  0
  -22.2658  -27.2687   20.0706 N   0  0  0  0  0  0  0  0  0  0  0  0
  -27.2438  -20.3311   21.6450 N   0  0  0  0  0  0  0  0  0  0  0  0
  -30.4741  -16.1182   21.8637 N   0  0  0  0  0  0  0  0  0  0  0  0
  -28.6145  -12.1412   20.8044 N   0  0  0  0  0  0  0  0  0  0  0  0
  -21.6031  -29.7733   22.5238 N   0  0  0  0  0  0  0  0  0  0  0  0
  -20.7009  -24.9090   18.2156 N   0  0  0  0  0  0  0  0  0  0  0  0
  -21.9607  -24.4733   14.8554 N   0  3  0  0  0  0  0  0  0  0  0  0
  -29.3947  -25.9978   16.8626 N   0  3  0  0  0  0  0  0  0  0  0  0
  -30.5900  -13.2069   21.2739 O   0  0  0  0  0  0  0  0  0  0  0  0
  -22.8785  -27.8259   22.5858 O   0  0  0  0  0  0  0  0  0  0  0  0
  -27.3902  -22.5734   21.0526 O   0  0  0  0  0  0  0  0  0  0  0  0
  -19.9616  -27.2349   19.7163 O   0  0  0  0  0  0  0  0  0  0  0  0
  -22.7565  -24.0865   17.5263 O   0  0  0  0  0  0  0  0  0  0  0  0
  -23.1945  -11.1568   19.9738 O   0  0  0  0  0  0  0  0  0  0  0  0
  -28.4179  -26.8210   20.1384 O   0  0  0  0  0  0  0  0  0  1  0  0
  -23.2902   -6.2474   22.4822 F   0  0  0  0  0  0  0  0  0  0  0  0
  -21.0885  -10.3361   21.5656 F   0  0  0  0  0  0  0  0  0  0  0  0
  1  2  1  0  0  0  0
  1  5  2  0  0  0  0
  2  6  2  0  0  0  0
  3  8  2  0  0  0  0
  3 17  1  0  0  0  0
  4  9  1  0  0  0  0
  4 17  2  0  0  0  0
  5 19  1  0  0  0  0
  6 21  1  0  0  0  0
  7 10  2  0  0  0  0
  7 20  1  0  0  0  0
  8 23  1  0  0  0  0
  9 23  2  0  0  0  0
 10 24  1  0  0  0  0
 11 12  2  0  0  0  0
 11 25  1  0  0  0  0
 12 26  1  0  0  0  0
 13 22  1  0  0  0  0
 13 24  2  0  0  0  0
 14 26  2  0  0  0  0
 14 27  1  0  0  0  0
 15 29  2  0  0  0  0
 15 66  1  0  0  0  0
 16 64  2  0  0  0  0
 16 66  1  0  0  0  0
 17 28  1  0  0  0  0
 18 28  1  0  0  0  0
 18 30  2  0  0  0  0
 18 31  1  0  0  0  0
 19 21  2  0  0  0  0
 19 36  1  0  0  0  0
 20 22  2  0  0  0  0
 20 37  1  0  0  0  0
 21 45  1  0  0  0  0
 22 38  1  0  0  0  0
 23 81  1  0  0  0  0
 24 82  1  0  0  0  0
 25 27  2  0  0  0  0
 25 81  1  0  0  0  0
 26 83  1  0  0  0  0
 27 84  1  0  0  0  0
 28 65  2  0  0  0  0
 29 59  1  0  0  0  0
 29 64  1  0  0  0  0
 30 67  1  0  0  0  0
 30 70  1  0  0  0  0
 31 71  1  0  0  0  0
 31 76  2  0  0  0  0
 32 46  1  0  0  0  0
 32 72  1  0  0  0  0
 32 77  2  0  0  0  0
 33 55  1  0  0  0  0
 33 69  1  0  0  0  0
 33 78  2  0  0  0  0
 34 60  1  0  0  0  0
 34 68  1  0  0  0  0
 34 79  2  0  0  0  0
 35 61  1  0  0  0  0
 35 73  1  0  0  0  0
 35 80  2  0  0  0  0
 36 39  1  0  0  0  0
 37 46  1  0  0  0  0
 38 68  1  0  0  0  0
 39 41  1  0  0  0  0
 40 42  1  0  0  0  0
 40 43  1  0  0  0  0
 41 45  1  0  0  0  0
 42 47  1  0  0  0  0
 43 69  1  0  0  0  0
 44 47  1  0  0  0  0
 44 69  1  0  0  0  0
 45 72  1  0  0  0  0
 46 68  1  0  0  0  0
 47 67  1  0  0  0  0
 48 56  1  0  0  0  0
 49 59  1  0  0  0  0
 50 61  1  0  0  0  0
 51 63  1  0  0  0  0
 52 63  1  0  0  0  0
 53 63  1  0  0  0  0
 54 74  1  0  0  0  0
 55 66  1  0  0  0  0
 56 62  1  0  0  0  0
 57 58  1  0  0  0  0
 57 62  1  0  0  0  0
 58 82  1  0  0  0  0
 59 75  1  0  0  0  0
 60 63  1  0  0  0  0
 60 73  1  0  0  0  0
 61 74  1  0  0  0  0
 62 75  1  0  0  0  0
 65 67  1  0  0  0  0
M  CHG  2  74   1  75   1
M  ISO  4  33 100  55 100  58 101  82 101
M  END
> <Batch ID>
0195

> <Smiles>
CCC(C[101CH2:1][101O:1]c1ccc2c(c1)CN(C(=O)C(NC(=O)C(C)NC)C(C)(C)C)C(C(=O)NC1CCCc3ccccc31)C2)NC(C)c1cn([100CH2:0][100C:0](=O)N2CCCC(n3nc(-c4ccc(Oc5ccc(F)cc5F)cc4)c(C(N)=O)c3N)C2)cn1

> <Shape>
0.242

> <Color>
0.085

> <Negative vol penalty>
0.000

$$$$

  -OEChem-04052305363D

 81 89  0     1  0  0  0  0  0999 V2000
  -20.6233  -19.1452   17.3228 C   0  0  0  0  0  0  0  0  0  0  0  0
  -21.8203  -19.5019   17.9355 C   0  0  0  0  0  0  0  0  0  0  0  0
  -20.9365  -24.1485   20.9018 C   0  0  0  0  0  0  0  0  0  0  0  0
  -22.4152  -23.2145   22.5685 C   0  0  0  0  0  0  0  0  0  0  0  0
  -20.1571  -17.8345   17.4164 C   0  0  0  0  0  0  0  0  0  0  0  0
  -22.5513  -18.5482   18.6432 C   0  0  0  0  0  0  0  0  0  0  0  0
  -27.5038  -18.7312   17.6021 C   0  0  0  0  0  0  0  0  0  0  0  0
  -20.3635  -22.8919   20.7059 C   0  0  0  0  0  0  0  0  0  0  0  0
  -21.8422  -21.9579   22.3727 C   0  0  0  0  0  0  0  0  0  0  0  0
  -28.2457  -19.7419   18.2120 C   0  0  0  0  0  0  0  0  0  0  0  0
  -19.0319  -20.3305   23.3079 C   0  0  0  0  0  0  0  0  0  0  0  0
  -18.7098  -19.5832   24.4407 C   0  0  0  0  0  0  0  0  0  0  0  0
  -29.0274  -18.1646   19.8613 C   0  0  0  0  0  0  0  0  0  0  0  0
  -20.1997  -17.8285   23.7068 C   0  0  0  0  0  0  0  0  0  0  0  0
  -32.2253  -26.0141   21.1345 C   0  0  0  0  0  0  0  0  0  0  0  0
  -21.9624  -24.3097   21.8330 C   0  0  0  0  0  0  0  0  0  0  0  0
  -22.1465  -26.5950   22.9516 C   0  0  0  0  0  0  0  0  0  0  0  0
  -20.8875  -16.8621   18.1174 C   0  0  0  0  0  0  0  0  0  0  0  0
  -27.5095  -17.4299   18.1246 C   0  0  0  0  0  0  0  0  0  0  0  0
  -22.0937  -17.2237   18.7473 C   0  0  0  0  0  0  0  0  0  0  0  0
  -28.2867  -17.1386   19.2548 C   0  0  0  0  0  0  0  0  0  0  0  0
  -20.8163  -21.7966   21.4414 C   0  0  0  0  0  0  0  0  0  0  0  0
  -29.0054  -19.4593   19.3434 C   0  0  0  0  0  0  0  0  0  0  0  0
  -19.9379  -19.8269   22.3745 C   0  0  0  0  0  0  0  0  0  0  0  0
  -19.2937  -18.3322   24.6402 C   0  0  0  0  0  0  0  0  0  0  0  0
  -20.5218  -18.5759   22.5739 C   0  0  0  0  0  0  0  0  0  0  0  0
  -22.5551  -25.6074   22.0354 C   0  0  0  0  0  0  0  0  0  0  0  0
  -31.0139  -25.9011   21.7841 C   0  0  0  0  0  0  0  0  0  0  0  0
  -23.0256  -27.6316   22.7538 C   0  0  0  0  0  0  0  0  0  0  0  0
  -31.3889  -23.7723   21.4129 C   0  0  0  0  0  0  0  0  0  0  0  0
  -21.0688  -26.5770   23.8970 C   0  0  0  0  0  0  0  0  0  0  0  0
  -25.3029  -15.4900   19.3376 C   0  0  0  0  0  0  0  0  0  0  0  0
  -27.7439  -13.3537   19.3442 C   0  0  0  0  0  0  0  0  0  0  0  0
  -31.1115  -12.8026   19.3873 C   0  0  0  0  0  0  0  0  0  0  0  0
  -28.6145  -27.8873   20.6206 C   0  0  0  0  0  0  0  0  0  0  0  0
  -20.3196  -15.4695   18.2311 C   0  0  0  0  0  0  0  0  0  0  0  0
  -26.7250  -16.3448   17.4394 C   0  0  0  0  0  0  0  0  0  0  0  0
  -28.3429  -15.7532   19.8430 C   0  0  0  0  0  0  0  0  0  0  0  0
  -21.3419  -14.4298   18.6832 C   0  0  0  0  0  0  0  0  0  0  0  0
  -25.7664  -29.6240   19.3760 C   0  0  0  0  0  0  0  0  0  0  0  0
  -22.1404  -14.9492   19.8746 C   0  0  0  0  0  0  0  0  0  0  0  0
  -24.5836  -28.8806   19.9991 C   0  0  0  0  0  0  0  0  0  0  0  0
  -26.9026  -28.6713   19.0108 C   0  0  0  0  0  0  0  0  0  0  0  0
  -26.1838  -27.0659   20.7370 C   0  0  0  0  0  0  0  0  0  0  0  0
  -22.9275  -16.2117   19.5030 C   0  0  1  0  0  0  0  0  0  0  0  0
  -26.3979  -15.1723   18.3590 C   0  0  1  0  0  0  0  0  0  0  0  0
  -25.0356  -27.9918   21.1734 C   0  0  2  0  0  0  0  0  0  0  0  0
  -32.8042  -10.9504   19.4260 C   0  0  0  0  0  0  0  0  0  0  0  0
  -30.2516  -21.6444   23.4774 C   0  0  0  0  0  0  0  0  0  0  0  0
  -27.1604  -12.8855   22.3023 C   0  0  0  0  0  0  0  0  0  0  0  0
  -29.4070  -11.7987   22.5019 C   0  0  0  0  0  0  0  0  0  0  0  0
  -27.6759  -10.8136   21.0000 C   0  0  0  0  0  0  0  0  0  0  0  0
  -32.2787  -13.6587   16.8059 C   0  0  0  0  0  0  0  0  0  0  0  0
  -30.2109  -27.0218   22.3122 C   0  0  0  0  0  0  0  0  0  0  0  0
  -29.9335  -20.3372   21.3493 C   0  0  0  0  0  0  0  0  0  1  0  0
  -28.8215  -12.9647   20.3273 C   0  0  1  0  0  0  0  0  0  0  0  0
  -31.9944  -11.8942   18.5507 C   0  0  2  0  0  0  0  0  0  0  0  0
  -30.0718  -21.7270   21.9673 C   0  0  2  0  0  0  0  0  0  0  0  0
  -28.2638  -12.1423   21.5232 C   0  0  0  0  0  0  0  0  0  0  0  0
  -23.6114  -25.9829   21.3094 N   0  0  0  0  0  0  0  0  0  0  0  0
  -30.5325  -24.6164   21.9443 N   0  0  0  0  0  0  0  0  0  0  0  0
  -23.8741  -27.2181   21.7692 N   0  0  0  0  0  0  0  0  0  0  0  0
  -27.5535  -14.7278   19.1409 N   0  0  0  0  0  0  0  0  0  0  0  0
  -27.2851  -27.8586   20.1681 N   0  0  0  0  0  0  0  0  0  0  0  0
  -23.1479  -28.8474   23.3276 N   0  0  0  0  0  0  0  0  0  0  0  0
  -20.2628  -25.4327   23.9697 N   0  0  0  0  0  0  0  0  0  0  0  0
  -31.2208  -22.4000   21.3954 N   0  0  0  0  0  0  0  0  0  0  0  0
  -24.1114  -15.8648   18.7464 N   0  0  0  0  0  0  0  0  0  0  0  0
  -29.8489  -12.2746   19.5549 N   0  0  0  0  0  0  0  0  0  0  0  0
  -28.8907  -27.0929   21.7267 N   0  0  0  0  0  0  0  0  0  0  0  0
  -32.9404  -12.7030   17.7310 N   0  3  0  0  0  0  0  0  0  0  0  0
  -20.8175  -27.5534   24.6434 O   0  0  0  0  0  0  0  0  0  0  0  0
  -25.5222  -15.4002   20.5399 O   0  0  0  0  0  0  0  0  0  0  0  0
  -27.0997  -12.4707   18.7723 O   0  0  0  0  0  0  0  0  0  0  0  0
  -31.5040  -13.8718   19.8493 O   0  0  0  0  0  0  0  0  0  0  0  0
  -29.4892  -28.5744   20.0823 O   0  0  0  0  0  0  0  0  0  0  0  0
  -20.2573  -20.5704   21.2507 O   0  0  0  0  0  0  0  0  0  0  0  0
  -29.7299  -20.4441   19.9410 O   0  0  0  0  0  0  0  0  0  1  0  0
  -18.9854  -17.6153   25.7289 F   0  0  0  0  0  0  0  0  0  0  0  0
  -21.3938  -18.0873   21.6813 F   0  0  0  0  0  0  0  0  0  0  0  0
  -32.7949  -24.4547   20.7040 S   0  0  0  0  0  0  0  0  0  0  0  0
  1  2  1  0  0  0  0
  1  5  2  0  0  0  0
  2  6  2  0  0  0  0
  3  8  2  0  0  0  0
  3 16  1  0  0  0  0
  4  9  1  0  0  0  0
  4 16  2  0  0  0  0
  5 18  1  0  0  0  0
  6 20  1  0  0  0  0
  7 10  2  0  0  0  0
  7 19  1  0  0  0  0
  8 22  1  0  0  0  0
  9 22  2  0  0  0  0
 10 23  1  0  0  0  0
 11 12  2  0  0  0  0
 11 24  1  0  0  0  0
 12 25  1  0  0  0  0
 13 21  1  0  0  0  0
 13 23  2  0  0  0  0
 14 25  2  0  0  0  0
 14 26  1  0  0  0  0
 15 28  2  0  0  0  0
 15 81  1  0  0  0  0
 16 27  1  0  0  0  0
 17 27  1  0  0  0  0
 17 29  2  0  0  0  0
 17 31  1  0  0  0  0
 18 20  2  0  0  0  0
 18 36  1  0  0  0  0
 19 21  2  0  0  0  0
 19 37  1  0  0  0  0
 20 45  1  0  0  0  0
 21 38  1  0  0  0  0
 22 77  1  0  0  0  0
 23 78  1  0  0  0  0
 24 26  2  0  0  0  0
 24 77  1  0  0  0  0
 25 79  1  0  0  0  0
 26 80  1  0  0  0  0
 27 60  2  0  0  0  0
 28 54  1  0  0  0  0
 28 61  1  0  0  0  0
 29 62  1  0  0  0  0
 29 65  1  0  0  0  0
 30 61  2  0  0  0  0
 30 67  1  0  0  0  0
 30 81  1  0  0  0  0
 31 66  1  0  0  0  0
 31 72  2  0  0  0  0
 32 46  1  0  0  0  0
 32 68  1  0  0  0  0
 32 73  2  0  0  0  0
 33 56  1  0  0  0  0
 33 63  1  0  0  0  0
 33 74  2  0  0  0  0
 34 57  1  0  0  0  0
 34 69  1  0  0  0  0
 34 75  2  0  0  0  0
 35 64  1  0  0  0  0
 35 70  1  0  0  0  0
 35 76  2  0  0  0  0
 36 39  1  0  0  0  0
 37 46  1  0  0  0  0
 38 63  1  0  0  0  0
 39 41  1  0  0  0  0
 40 42  1  0  0  0  0
 40 43  1  0  0  0  0
 41 45  1  0  0  0  0
 42 47  1  0  0  0  0
 43 64  1  0  0  0  0
 44 47  1  0  0  0  0
 44 64  1  0  0  0  0
 45 68  1  0  0  0  0
 46 63  1  0  0  0  0
 47 62  1  0  0  0  0
 48 57  1  0  0  0  0
 49 58  1  0  0  0  0
 50 59  1  0  0  0  0
 51 59  1  0  0  0  0
 52 59  1  0  0  0  0
 53 71  1  0  0  0  0
 54 70  1  0  0  0  0
 55 58  1  0  0  0  0
 55 78  1  0  0  0  0
 56 59  1  0  0  0  0
 56 69  1  0  0  0  0
 57 71  1  0  0  0  0
 58 67  1  0  0  0  0
 60 62  1  0  0  0  0
M  CHG  1  71   1
M  ISO  4  35 100  55 101  70 100  78 101
M  END
> <Batch ID>
0195

> <Smiles>
CNC(C)C(=O)NC(C(=O)N1Cc2cc([101O:1][101CH2:1]C(C)Nc3nc(C[100NH:0][100C:0](=O)N4CCCC(n5nc(-c6ccc(Oc7ccc(F)cc7F)cc6)c(C(N)=O)c5N)C4)cs3)ccc2CC1C(=O)NC1CCCc2ccccc21)C(C)(C)C

> <Shape>
0.171

> <Color>
0.081

> <Negative vol penalty>
0.000

$$$$

  -OEChem-04052305363D

 83 91  0     1  0  0  0  0  0999 V2000
  -21.9123  -11.3020   20.0659 C   0  0  0  0  0  0  0  0  0  0  0  0
  -21.6458  -12.5874   20.5266 C   0  0  0  0  0  0  0  0  0  0  0  0
  -29.9329  -28.8941   21.7383 C   0  0  0  0  0  0  0  0  0  0  0  0
  -28.6437  -26.8735   22.0422 C   0  0  0  0  0  0  0  0  0  0  0  0
  -23.2288  -10.8493   19.9890 C   0  0  0  0  0  0  0  0  0  0  0  0
  -22.6956  -13.4205   20.9117 C   0  0  0  0  0  0  0  0  0  0  0  0
  -22.1996  -18.1286   19.1137 C   0  0  0  0  0  0  0  0  0  0  0  0
  -30.9605  -28.3548   22.5122 C   0  0  0  0  0  0  0  0  0  0  0  0
  -29.6713  -26.3342   22.8160 C   0  0  0  0  0  0  0  0  0  0  0  0
  -21.3014  -18.9693   19.7697 C   0  0  0  0  0  0  0  0  0  0  0  0
  -32.1064  -24.2835   24.5719 C   0  0  0  0  0  0  0  0  0  0  0  0
  -32.4807  -22.9627   24.3247 C   0  0  0  0  0  0  0  0  0  0  0  0
  -23.1373  -20.0065   20.9414 C   0  0  0  0  0  0  0  0  0  0  0  0
  -33.0497  -23.5495   22.0512 C   0  0  0  0  0  0  0  0  0  0  0  0
  -20.4002  -27.1046   22.4585 C   0  0  0  0  0  0  0  0  0  0  0  0
  -28.7744  -28.1534   21.5034 C   0  0  0  0  0  0  0  0  0  0  0  0
  -27.5516  -28.6028   19.3101 C   0  0  0  0  0  0  0  0  0  0  0  0
  -24.2959  -11.6806   20.3642 C   0  0  0  0  0  0  0  0  0  0  0  0
  -23.5747  -18.2132   19.3752 C   0  0  0  0  0  0  0  0  0  0  0  0
  -24.0275  -12.9780   20.8410 C   0  0  0  0  0  0  0  0  0  0  0  0
  -24.0511  -19.1674   20.2855 C   0  0  0  0  0  0  0  0  0  0  0  0
  -30.8297  -27.0749   23.0510 C   0  0  0  0  0  0  0  0  0  0  0  0
  -21.7699  -19.9064   20.6858 C   0  0  0  0  0  0  0  0  0  0  0  0
  -32.2036  -25.2373   23.5587 C   0  0  0  0  0  0  0  0  0  0  0  0
  -32.9524  -22.5957   23.0644 C   0  0  0  0  0  0  0  0  0  0  0  0
  -32.6753  -24.8703   22.2984 C   0  0  0  0  0  0  0  0  0  0  0  0
  -27.7123  -28.7101   20.7046 C   0  0  0  0  0  0  0  0  0  0  0  0
  -20.2862  -28.4793   22.4971 C   0  0  0  0  0  0  0  0  0  0  0  0
  -19.2247  -26.4029   22.6320 C   0  0  0  0  0  0  0  0  0  0  0  0
  -26.3975  -29.2980   19.0431 C   0  0  0  0  0  0  0  0  0  0  0  0
  -18.0447  -28.3340   22.8456 C   0  0  0  0  0  0  0  0  0  0  0  0
  -28.3720  -27.9344   18.3428 C   0  0  0  0  0  0  0  0  0  0  0  0
  -25.7602  -16.2289   20.5540 C   0  0  0  0  0  0  0  0  0  0  0  0
  -27.7992  -18.6217   19.7546 C   0  0  0  0  0  0  0  0  0  0  0  0
  -28.2648  -21.9448   19.1328 C   0  0  0  0  0  0  0  0  0  0  0  0
  -21.5836  -30.6316   22.3223 C   0  0  0  0  0  0  0  0  0  0  0  0
  -25.6991  -11.1305   20.3083 C   0  0  0  0  0  0  0  0  0  0  0  0
  -24.5330  -17.3173   18.6395 C   0  0  0  0  0  0  0  0  0  0  0  0
  -25.5197  -19.3123   20.5866 C   0  0  0  0  0  0  0  0  0  0  0  0
  -26.7788  -12.2071   20.3814 C   0  0  0  0  0  0  0  0  0  0  0  0
  -23.7511  -32.9350   20.6871 C   0  0  0  0  0  0  0  0  0  0  0  0
  -26.4697  -13.1981   21.4991 C   0  0  0  0  0  0  0  0  0  0  0  0
  -24.9958  -32.1016   20.3737 C   0  0  0  0  0  0  0  0  0  0  0  0
  -23.1350  -32.5509   22.0312 C   0  0  0  0  0  0  0  0  0  0  0  0
  -24.0944  -30.2866   21.8837 C   0  0  0  0  0  0  0  0  0  0  0  0
  -25.1410  -13.9200   21.2445 C   0  0  1  0  0  0  0  0  0  0  0  0
  -25.8635  -17.1416   19.3650 C   0  0  1  0  0  0  0  0  0  0  0  0
  -24.7127  -30.5927   20.5098 C   0  0  2  0  0  0  0  0  0  0  0  0
  -16.7370  -29.0166   23.0626 C   0  0  0  0  0  0  0  0  0  0  0  0
  -30.0493  -23.6073   18.5421 C   0  0  0  0  0  0  0  0  0  0  0  0
  -28.8224  -18.5408   22.6281 C   0  0  0  0  0  0  0  0  0  0  0  0
  -29.8711  -20.7815   22.2441 C   0  0  0  0  0  0  0  0  0  0  0  0
  -30.6033  -18.8159   20.8940 C   0  0  0  0  0  0  0  0  0  0  0  0
  -26.9159  -22.6671   16.5994 C   0  0  0  0  0  0  0  0  0  0  0  0
  -20.5256  -24.2871   22.3942 C   0  0  0  0  0  0  0  0  0  0  0  0
  -21.3733  -22.0187   21.7041 C   0  0  0  0  0  0  0  0  0  1  0  0
  -28.3369  -19.8466   20.4543 C   0  0  1  0  0  0  0  0  0  0  0  0
  -28.9800  -22.6682   18.0060 C   0  0  2  0  0  0  0  0  0  0  0  0
  -20.2452  -22.7857   22.3854 C   0  0  1  0  0  0  0  0  0  0  0  0
  -29.3805  -19.4924   21.5511 C   0  0  0  0  0  0  0  0  0  0  0  0
  -26.7384  -29.4179   21.2829 N   0  0  0  0  0  0  0  0  0  0  0  0
  -19.1199  -29.1296   22.6894 N   0  0  0  0  0  0  0  0  0  0  0  0
  -18.0248  -26.9875   22.8287 N   0  0  0  0  0  0  0  0  0  0  0  0
  -25.9546  -29.7617   20.2468 N   0  0  0  0  0  0  0  0  0  0  0  0
  -26.4164  -18.4092   19.8465 N   0  0  0  0  0  0  0  0  0  0  0  0
  -22.8906  -31.1079   22.0861 N   0  0  0  0  0  0  0  0  0  0  0  0
  -25.7285  -29.5518   17.8983 N   0  0  0  0  0  0  0  0  0  0  0  0
  -29.5221  -27.2685   18.7880 N   0  0  0  0  0  0  0  0  0  0  0  0
  -21.4672  -29.2420   22.3202 N   0  0  0  0  0  0  0  0  0  0  0  0
  -19.2966  -25.0206   22.5988 N   0  0  0  0  0  0  0  0  0  0  0  0
  -25.3120  -14.9576   20.2501 N   0  0  0  0  0  0  0  0  0  0  0  0
  -28.8460  -20.7248   19.4065 N   0  0  0  0  0  0  0  0  0  0  0  0
  -28.0099  -23.4684   17.2061 N   0  3  0  0  0  0  0  0  0  0  0  0
  -28.1024  -27.9418   17.1177 O   0  0  0  0  0  0  0  0  0  0  0  0
  -26.0660  -16.6466   21.6647 O   0  0  0  0  0  0  0  0  0  0  0  0
  -28.5765  -17.8846   19.1430 O   0  0  0  0  0  0  0  0  0  0  0  0
  -27.2904  -22.4167   19.7147 O   0  0  0  0  0  0  0  0  0  0  0  0
  -20.6325  -31.4001   22.4854 O   0  0  0  0  0  0  0  0  0  0  0  0
  -20.1545  -22.3194   23.7332 O   0  0  0  0  0  0  0  0  0  0  0  0
  -31.8324  -26.5482   23.8059 O   0  0  0  0  0  0  0  0  0  0  0  0
  -20.8954  -20.7278   21.3279 O   0  0  0  0  0  0  0  0  0  1  0  0
  -33.3132  -21.3277   22.8276 F   0  0  0  0  0  0  0  0  0  0  0  0
  -32.7721  -25.7824   21.3214 F   0  0  0  0  0  0  0  0  0  0  0  0
  1  2  1  0  0  0  0
  1  5  2  0  0  0  0
  2  6  2  0  0  0  0
  3  8  2  0  0  0  0
  3 16  1  0  0  0  0
  4  9  1  0  0  0  0
  4 16  2  0  0  0  0
  5 18  1  0  0  0  0
  6 20  1  0  0  0  0
  7 10  2  0  0  0  0
  7 19  1  0  0  0  0
  8 22  1  0  0  0  0
  9 22  2  0  0  0  0
 10 23  1  0  0  0  0
 11 12  2  0  0  0  0
 11 24  1  0  0  0  0
 12 25  1  0  0  0  0
 13 21  1  0  0  0  0
 13 23  2  0  0  0  0
 14 25  2  0  0  0  0
 14 26  1  0  0  0  0
 15 28  2  0  0  0  0
 15 29  1  0  0  0  0
 16 27  1  0  0  0  0
 17 27  1  0  0  0  0
 17 30  2  0  0  0  0
 17 32  1  0  0  0  0
 18 20  2  0  0  0  0
 18 37  1  0  0  0  0
 19 21  2  0  0  0  0
 19 38  1  0  0  0  0
 20 46  1  0  0  0  0
 21 39  1  0  0  0  0
 22 80  1  0  0  0  0
 23 81  1  0  0  0  0
 24 26  2  0  0  0  0
 24 80  1  0  0  0  0
 25 82  1  0  0  0  0
 26 83  1  0  0  0  0
 27 61  2  0  0  0  0
 28 62  1  0  0  0  0
 28 69  1  0  0  0  0
 29 63  2  0  0  0  0
 29 70  1  0  0  0  0
 30 64  1  0  0  0  0
 30 67  1  0  0  0  0
 31 49  1  0  0  0  0
 31 62  2  0  0  0  0
 31 63  1  0  0  0  0
 32 68  1  0  0  0  0
 32 74  2  0  0  0  0
 33 47  1  0  0  0  0
 33 71  1  0  0  0  0
 33 75  2  0  0  0  0
 34 57  1  0  0  0  0
 34 65  1  0  0  0  0
 34 76  2  0  0  0  0
 35 58  1  0  0  0  0
 35 72  1  0  0  0  0
 35 77  2  0  0  0  0
 36 66  1  0  0  0  0
 36 69  1  0  0  0  0
 36 78  2  0  0  0  0
 37 40  1  0  0  0  0
 38 47  1  0  0  0  0
 39 65  1  0  0  0  0
 40 42  1  0  0  0  0
 41 43  1  0  0  0  0
 41 44  1  0  0  0  0
 42 46  1  0  0  0  0
 43 48  1  0  0  0  0
 44 66  1  0  0  0  0
 45 48  1  0  0  0  0
 45 66  1  0  0  0  0
 46 71  1  0  0  0  0
 47 65  1  0  0  0  0
 48 64  1  0  0  0  0
 50 58  1  0  0  0  0
 51 60  1  0  0  0  0
 52 60  1  0  0  0  0
 53 60  1  0  0  0  0
 54 73  1  0  0  0  0
 55 59  1  0  0  0  0
 55 70  1  0  0  0  0
 56 59  1  0  0  0  0
 56 81  1  0  0  0  0
 57 60  1  0  0  0  0
 57 72  1  0  0  0  0
 58 73  1  0  0  0  0
 59 79  1  0  0  0  0
 61 64  1  0  0  0  0
M  CHG  1  73   1
M  ISO  4  36 100  56 101  69 100  81 101
M  END
> <Batch ID>
0195

> <Smiles>
CNC(C)C(=O)NC(C(=O)N1Cc2cc([101O:1][101CH2:1]C(O)CNc3cc([100NH:0][100C:0](=O)N4CCCC(n5nc(-c6ccc(Oc7ccc(F)cc7F)cc6)c(C(N)=O)c5N)C4)nc(C)n3)ccc2CC1C(=O)NC1CCCc2ccccc21)C(C)(C)C

> <Shape>
0.240

> <Color>
0.076

> <Negative vol penalty>
0.000

$$$$

  -OEChem-04052305363D

 84 92  0     1  0  0  0  0  0999 V2000
  -18.8703  -32.6376   25.7721 C   0  0  0  0  0  0  0  0  0  0  0  0
  -20.0242  -31.8758   25.6185 C   0  0  0  0  0  0  0  0  0  0  0  0
  -25.6266  -16.4698   20.9724 C   0  0  0  0  0  0  0  0  0  0  0  0
  -25.6434  -16.5789   18.5589 C   0  0  0  0  0  0  0  0  0  0  0  0
  -17.6977  -32.2646   25.1165 C   0  0  0  0  0  0  0  0  0  0  0  0
  -20.0059  -30.7398   24.8101 C   0  0  0  0  0  0  0  0  0  0  0  0
  -24.0509  -30.4480   21.7774 C   0  0  0  0  0  0  0  0  0  0  0  0
  -24.8296  -15.3265   20.9152 C   0  0  0  0  0  0  0  0  0  0  0  0
  -24.8464  -15.4355   18.5017 C   0  0  0  0  0  0  0  0  0  0  0  0
  -25.2455  -30.0127   22.3494 C   0  0  0  0  0  0  0  0  0  0  0  0
  -25.2494  -12.0246   20.3203 C   0  0  0  0  0  0  0  0  0  0  0  0
  -25.5909  -10.9543   21.1470 C   0  0  0  0  0  0  0  0  0  0  0  0
  -24.8690  -27.8087   21.4441 C   0  0  0  0  0  0  0  0  0  0  0  0
  -23.4331  -11.0980   22.2243 C   0  0  0  0  0  0  0  0  0  0  0  0
  -32.1425  -25.6489   17.8939 C   0  0  0  0  0  0  0  0  0  0  0  0
  -26.0334  -17.0960   19.7942 C   0  0  0  0  0  0  0  0  0  0  0  0
  -28.2628  -18.3339   19.8649 C   0  0  0  0  0  0  0  0  0  0  0  0
  -17.6676  -31.1288   24.2920 C   0  0  0  0  0  0  0  0  0  0  0  0
  -23.2496  -29.5625   21.0423 C   0  0  0  0  0  0  0  0  0  0  0  0
  -18.8314  -30.3504   24.1440 C   0  0  0  0  0  0  0  0  0  0  0  0
  -23.6660  -28.2358   20.8616 C   0  0  0  0  0  0  0  0  0  0  0  0
  -24.4395  -14.8094   19.6798 C   0  0  0  0  0  0  0  0  0  0  0  0
  -25.6533  -28.6922   22.1853 C   0  0  0  0  0  0  0  0  0  0  0  0
  -23.9998  -12.6316   20.4456 C   0  0  0  0  0  0  0  0  0  0  0  0
  -24.6828  -10.4910   22.0990 C   0  0  0  0  0  0  0  0  0  0  0  0
  -23.0917  -12.1683   21.3976 C   0  0  0  0  0  0  0  0  0  0  0  0
  -26.8563  -18.2774   19.8527 C   0  0  0  0  0  0  0  0  0  0  0  0
  -30.7991  -25.8823   18.1062 C   0  0  0  0  0  0  0  0  0  0  0  0
  -32.9899  -26.0912   18.8891 C   0  0  0  0  0  0  0  0  0  0  0  0
  -28.5520  -19.6752   19.9267 C   0  0  0  0  0  0  0  0  0  0  0  0
  -31.2365  -26.8828   20.0998 C   0  0  0  0  0  0  0  0  0  0  0  0
  -29.2222  -17.2692   19.8239 C   0  0  0  0  0  0  0  0  0  0  0  0
  -20.2965  -28.4274   21.3496 C   0  0  0  0  0  0  0  0  0  0  0  0
  -20.9180  -27.1128   18.4500 C   0  0  0  0  0  0  0  0  0  0  0  0
  -23.2420  -26.0175   16.2036 C   0  0  0  0  0  0  0  0  0  0  0  0
  -27.6749  -24.9252   18.2494 C   0  0  0  0  0  0  0  0  0  0  0  0
  -16.3641  -30.7385   23.6414 C   0  0  0  0  0  0  0  0  0  0  0  0
  -21.9770  -30.0545   20.4091 C   0  0  0  0  0  0  0  0  0  0  0  0
  -22.8519  -27.2508   20.0644 C   0  0  0  0  0  0  0  0  0  0  0  0
  -16.5277  -29.7324   22.5051 C   0  0  0  0  0  0  0  0  0  0  0  0
  -25.5539  -23.6523   20.8101 C   0  0  0  0  0  0  0  0  0  0  0  0
  -17.4562  -28.5978   22.9262 C   0  0  0  0  0  0  0  0  0  0  0  0
  -25.8150  -22.1452   20.7859 C   0  0  0  0  0  0  0  0  0  0  0  0
  -25.5903  -24.2540   19.4070 C   0  0  0  0  0  0  0  0  0  0  0  0
  -27.0764  -22.4545   18.6151 C   0  0  0  0  0  0  0  0  0  0  0  0
  -18.8578  -29.1254   23.2559 C   0  0  1  0  0  0  0  0  0  0  0  0
  -20.9847  -28.9340   20.1137 C   0  0  1  0  0  0  0  0  0  0  0  0
  -27.1051  -21.8121   20.0125 C   0  0  2  0  0  0  0  0  0  0  0  0
  -23.4453  -24.9588   13.9375 C   0  0  0  0  0  0  0  0  0  0  0  0
  -20.1186  -24.4190   19.6394 C   0  0  0  0  0  0  0  0  0  0  0  0
  -21.2257  -23.3075   17.6882 C   0  0  0  0  0  0  0  0  0  0  0  0
  -19.2803  -24.8246   17.3184 C   0  0  0  0  0  0  0  0  0  0  0  0
  -24.7337  -28.3356   15.1264 C   0  0  0  0  0  0  0  0  0  0  0  0
  -29.8054  -25.4398   17.0852 C   0  0  0  0  0  0  0  0  0  0  0  0
  -29.3701  -27.7792   21.4923 C   0  0  0  0  0  0  0  0  0  0  0  0
  -27.8599  -29.2290   22.8915 C   0  0  0  0  0  0  0  0  0  1  0  0
  -21.5145  -25.8109   17.9721 C   0  0  1  0  0  0  0  0  0  0  0  0
  -23.3982  -26.2655   14.7141 C   0  0  2  0  0  0  0  0  0  0  0  0
  -29.2072  -28.5186   22.8189 C   0  0  1  0  0  0  0  0  0  0  0  0
  -20.5494  -24.6083   18.1712 C   0  0  0  0  0  0  0  0  0  0  0  0
  -26.2912  -19.4866   19.9029 N   0  0  0  0  0  0  0  0  0  0  0  0
  -30.3094  -26.4987   19.2018 N   0  0  0  0  0  0  0  0  0  0  0  0
  -32.5696  -26.7144   20.0095 N   0  0  0  0  0  0  0  0  0  0  0  0
  -27.3480  -20.3156   19.9473 N   0  0  0  0  0  0  0  0  0  0  0  0
  -21.6124  -27.7781   19.4703 N   0  0  0  0  0  0  0  0  0  0  0  0
  -26.8399  -23.9023   18.7283 N   0  0  0  0  0  0  0  0  0  0  0  0
  -34.3776  -25.8710   18.7098 N   0  0  0  0  0  0  0  0  0  0  0  0
  -29.7162  -20.3575   19.9649 N   0  0  0  0  0  0  0  0  0  0  0  0
  -28.7538  -15.9498   19.7617 N   0  0  0  0  0  0  0  0  0  0  0  0
  -30.7693  -27.5189   21.2375 N   0  0  0  0  0  0  0  0  0  0  0  0
  -19.5945  -29.3969   22.0401 N   0  0  0  0  0  0  0  0  0  0  0  0
  -21.9176  -26.0306   16.5873 N   0  0  0  0  0  0  0  0  0  0  0  0
  -28.8427  -24.5053   17.6243 N   0  0  0  0  0  0  0  0  0  0  0  0
  -24.6554  -27.0186   14.4434 N   0  3  0  0  0  0  0  0  0  0  0  0
  -30.4582  -17.4809   19.8584 O   0  0  0  0  0  0  0  0  0  0  0  0
  -20.3939  -27.2442   21.6534 O   0  0  0  0  0  0  0  0  0  0  0  0
  -19.8782  -27.5277   17.9320 O   0  0  0  0  0  0  0  0  0  0  0  0
  -24.1987  -25.8272   16.9511 O   0  0  0  0  0  0  0  0  0  0  0  0
  -27.4026  -26.1240   18.3745 O   0  0  0  0  0  0  0  0  0  0  0  0
  -29.2588  -27.5737   23.8898 O   0  0  0  0  0  0  0  0  0  0  0  0
  -23.6620  -13.6936   19.6236 O   0  0  0  0  0  0  0  0  0  0  0  0
  -26.8186  -28.2646   22.7431 O   0  0  0  0  0  0  0  0  0  1  0  0
  -25.0102   -9.4622   22.8918 F   0  0  0  0  0  0  0  0  0  0  0  0
  -21.8893  -12.7467   21.5219 F   0  0  0  0  0  0  0  0  0  0  0  0
  1  2  1  0  0  0  0
  1  5  2  0  0  0  0
  2  6  2  0  0  0  0
  3  8  2  0  0  0  0
  3 16  1  0  0  0  0
  4  9  1  0  0  0  0
  4 16  2  0  0  0  0
  5 18  1  0  0  0  0
  6 20  1  0  0  0  0
  7 10  2  0  0  0  0
  7 19  1  0  0  0  0
  8 22  1  0  0  0  0
  9 22  2  0  0  0  0
 10 23  1  0  0  0  0
 11 12  2  0  0  0  0
 11 24  1  0  0  0  0
 12 25  1  0  0  0  0
 13 21  1  0  0  0  0
 13 23  2  0  0  0  0
 14 25  2  0  0  0  0
 14 26  1  0  0  0  0
 15 28  2  0  0  0  0
 15 29  1  0  0  0  0
 16 27  1  0  0  0  0
 17 27  1  0  0  0  0
 17 30  2  0  0  0  0
 17 32  1  0  0  0  0
 18 20  2  0  0  0  0
 18 37  1  0  0  0  0
 19 21  2  0  0  0  0
 19 38  1  0  0  0  0
 20 46  1  0  0  0  0
 21 39  1  0  0  0  0
 22 81  1  0  0  0  0
 23 82  1  0  0  0  0
 24 26  2  0  0  0  0
 24 81  1  0  0  0  0
 25 83  1  0  0  0  0
 26 84  1  0  0  0  0
 27 61  2  0  0  0  0
 28 54  1  0  0  0  0
 28 62  1  0  0  0  0
 29 63  2  0  0  0  0
 29 67  1  0  0  0  0
 30 64  1  0  0  0  0
 30 68  1  0  0  0  0
 31 62  2  0  0  0  0
 31 63  1  0  0  0  0
 31 70  1  0  0  0  0
 32 69  1  0  0  0  0
 32 75  2  0  0  0  0
 33 47  1  0  0  0  0
 33 71  1  0  0  0  0
 33 76  2  0  0  0  0
 34 57  1  0  0  0  0
 34 65  1  0  0  0  0
 34 77  2  0  0  0  0
 35 58  1  0  0  0  0
 35 72  1  0  0  0  0
 35 78  2  0  0  0  0
 36 66  1  0  0  0  0
 36 73  1  0  0  0  0
 36 79  2  0  0  0  0
 37 40  1  0  0  0  0
 38 47  1  0  0  0  0
 39 65  1  0  0  0  0
 40 42  1  0  0  0  0
 41 43  1  0  0  0  0
 41 44  1  0  0  0  0
 42 46  1  0  0  0  0
 43 48  1  0  0  0  0
 44 66  1  0  0  0  0
 45 48  1  0  0  0  0
 45 66  1  0  0  0  0
 46 71  1  0  0  0  0
 47 65  1  0  0  0  0
 48 64  1  0  0  0  0
 49 58  1  0  0  0  0
 50 60  1  0  0  0  0
 51 60  1  0  0  0  0
 52 60  1  0  0  0  0
 53 74  1  0  0  0  0
 54 73  1  0  0  0  0
 55 59  1  0  0  0  0
 55 70  1  0  0  0  0
 56 59  1  0  0  0  0
 56 82  1  0  0  0  0
 57 60  1  0  0  0  0
 57 72  1  0  0  0  0
 58 74  1  0  0  0  0
 59 80  1  0  0  0  0
 61 64  1  0  0  0  0
M  CHG  1  74   1
M  ISO  4  36 100  56 101  73 100  82 101
M  END
> <Batch ID>
0195

> <Smiles>
CNC(C)C(=O)NC(C(=O)N1Cc2cc([101O:1][101CH2:1]C(O)CNc3nc(N)cc(C[100NH:0][100C:0](=O)N4CCCC(n5nc(-c6ccc(Oc7ccc(F)cc7F)cc6)c(C(N)=O)c5N)C4)n3)ccc2CC1C(=O)NC1CCCc2ccccc21)C(C)(C)C

> <Shape>
0.238

> <Color>
0.054

> <Negative vol penalty>
0.000

$$$$

  -OEChem-04052305363D

 83 91  0     1  0  0  0  0  0999 V2000
  -17.9955  -32.5465   20.6804 C   0  0  0  0  0  0  0  0  0  0  0  0
  -19.3357  -32.4715   20.3149 C   0  0  0  0  0  0  0  0  0  0  0  0
  -23.1078  -12.9692   20.3780 C   0  0  0  0  0  0  0  0  0  0  0  0
  -22.2031  -14.7828   21.6931 C   0  0  0  0  0  0  0  0  0  0  0  0
  -17.5552  -31.9172   21.8440 C   0  0  0  0  0  0  0  0  0  0  0  0
  -20.2367  -31.7680   21.1135 C   0  0  0  0  0  0  0  0  0  0  0  0
  -25.0755  -28.5238   19.2249 C   0  0  0  0  0  0  0  0  0  0  0  0
  -22.3272  -12.0611   21.0932 C   0  0  0  0  0  0  0  0  0  0  0  0
  -21.4224  -13.8747   22.4083 C   0  0  0  0  0  0  0  0  0  0  0  0
  -26.4354  -28.8229   19.1536 C   0  0  0  0  0  0  0  0  0  0  0  0
  -22.4231  -10.5226   24.1012 C   0  0  0  0  0  0  0  0  0  0  0  0
  -23.0341   -9.3474   24.5385 C   0  0  0  0  0  0  0  0  0  0  0  0
  -26.7771  -27.7490   21.2865 C   0  0  0  0  0  0  0  0  0  0  0  0
  -21.4540   -8.0477   23.2535 C   0  0  0  0  0  0  0  0  0  0  0  0
  -26.8414  -22.8584   18.1170 C   0  0  0  0  0  0  0  0  0  0  0  0
  -23.0458  -14.3301   20.6780 C   0  0  0  0  0  0  0  0  0  0  0  0
  -23.4990  -15.9488   18.7591 C   0  0  0  0  0  0  0  0  0  0  0  0
  -18.4494  -31.1975   22.6522 C   0  0  0  0  0  0  0  0  0  0  0  0
  -24.5535  -27.8435   20.3344 C   0  0  0  0  0  0  0  0  0  0  0  0
  -19.8082  -31.1296   22.2898 C   0  0  0  0  0  0  0  0  0  0  0  0
  -25.4107  -27.4402   21.3682 C   0  0  0  0  0  0  0  0  0  0  0  0
  -21.4845  -12.5138   22.1084 C   0  0  0  0  0  0  0  0  0  0  0  0
  -27.2859  -28.4380   20.1859 C   0  0  0  0  0  0  0  0  0  0  0  0
  -21.3275  -10.4604   23.2401 C   0  0  0  0  0  0  0  0  0  0  0  0
  -22.5496   -8.1100   24.1146 C   0  0  0  0  0  0  0  0  0  0  0  0
  -20.8430   -9.2229   22.8162 C   0  0  0  0  0  0  0  0  0  0  0  0
  -23.8524  -15.2686   19.9399 C   0  0  0  0  0  0  0  0  0  0  0  0
  -27.8681  -22.1824   18.7425 C   0  0  0  0  0  0  0  0  0  0  0  0
  -24.5996  -16.7148   18.4616 C   0  0  0  0  0  0  0  0  0  0  0  0
  -28.9754  -23.9757   18.1359 C   0  0  0  0  0  0  0  0  0  0  0  0
  -22.2844  -15.8934   17.9992 C   0  0  0  0  0  0  0  0  0  0  0  0
  -22.4185  -28.5313   22.5866 C   0  0  0  0  0  0  0  0  0  0  0  0
  -22.8906  -25.4353   23.4317 C   0  0  0  0  0  0  0  0  0  0  0  0
  -24.9368  -22.7042   23.4038 C   0  0  0  0  0  0  0  0  0  0  0  0
  -28.6954  -20.1602   19.9965 C   0  0  0  0  0  0  0  0  0  0  0  0
  -17.9359  -30.5736   23.9257 C   0  0  0  0  0  0  0  0  0  0  0  0
  -23.0888  -27.5049   20.3836 C   0  0  0  0  0  0  0  0  0  0  0  0
  -24.9035  -26.6899   22.5716 C   0  0  0  0  0  0  0  0  0  0  0  0
  -18.8826  -29.5335   24.5192 C   0  0  0  0  0  0  0  0  0  0  0  0
  -29.2687  -16.6713   20.4159 C   0  0  0  0  0  0  0  0  0  0  0  0
  -20.3132  -30.0624   24.5374 C   0  0  0  0  0  0  0  0  0  0  0  0
  -27.8816  -16.0513   20.2323 C   0  0  0  0  0  0  0  0  0  0  0  0
  -29.1985  -18.0133   21.1423 C   0  0  0  0  0  0  0  0  0  0  0  0
  -26.8865  -18.3703   20.3701 C   0  0  0  0  0  0  0  0  0  0  0  0
  -20.8113  -30.3552   23.1169 C   0  0  1  0  0  0  0  0  0  0  0  0
  -22.5792  -27.2608   21.8007 C   0  0  1  0  0  0  0  0  0  0  0  0
  -26.8999  -17.0481   19.5856 C   0  0  2  0  0  0  0  0  0  0  0  0
  -25.6517  -20.3264   23.7680 C   0  0  0  0  0  0  0  0  0  0  0  0
  -30.9312  -28.3443   20.5938 C   0  0  0  0  0  0  0  0  0  0  0  0
  -23.4807  -26.4269   26.2563 C   0  0  0  0  0  0  0  0  0  0  0  0
  -24.5046  -24.1963   26.7505 C   0  0  0  0  0  0  0  0  0  0  0  0
  -22.0888  -24.3520   26.1487 C   0  0  0  0  0  0  0  0  0  0  0  0
  -23.8683  -21.8585   20.7767 C   0  0  0  0  0  0  0  0  0  0  0  0
  -29.3460  -26.4461   20.1424 C   0  0  0  0  0  0  0  0  0  0  0  0
  -23.8377  -24.7127   24.3590 C   0  0  1  0  0  0  0  0  0  0  0  0
  -24.6703  -21.2493   23.0623 C   0  0  2  0  0  0  0  0  0  0  0  0
  -29.5096  -27.8274   20.7674 C   0  0  2  0  0  0  0  0  0  1  0  0
  -23.4875  -24.9378   25.8570 C   0  0  0  0  0  0  0  0  0  0  0  0
  -25.0814  -15.5753   20.3635 N   0  0  0  0  0  0  0  0  0  0  0  0
  -29.0926  -22.8214   18.7539 N   0  0  0  0  0  0  0  0  0  0  0  0
  -25.5100  -16.4565   19.4438 N   0  0  0  0  0  0  0  0  0  0  0  0
  -23.4626  -26.3878   22.5765 N   0  0  0  0  0  0  0  0  0  0  0  0
  -28.2525  -18.9074   20.4710 N   0  0  0  0  0  0  0  0  0  0  0  0
  -24.8678  -17.5772   17.4583 N   0  0  0  0  0  0  0  0  0  0  0  0
  -21.2544  -15.0545   18.4461 N   0  0  0  0  0  0  0  0  0  0  0  0
  -27.7155  -20.9098   19.3466 N   0  0  0  0  0  0  0  0  0  0  0  0
  -21.1791  -29.1262   22.4470 N   0  0  0  0  0  0  0  0  0  0  0  0
  -23.8251  -23.3135   23.9461 N   0  0  0  0  0  0  0  0  0  0  0  0
  -29.6642  -26.5172   18.6966 N   0  0  0  0  0  0  0  0  0  0  0  0
  -24.7932  -21.0311   21.5933 N   0  3  0  0  0  0  0  0  0  0  0  0
  -22.1237  -16.5553   16.9459 O   0  0  0  0  0  0  0  0  0  0  0  0
  -23.3494  -28.9408   23.2703 O   0  0  0  0  0  0  0  0  0  0  0  0
  -21.6886  -25.1596   23.4601 O   0  0  0  0  0  0  0  0  0  0  0  0
  -26.0238  -23.2450   23.2124 O   0  0  0  0  0  0  0  0  0  0  0  0
  -29.8651  -20.5286   20.1311 O   0  0  0  0  0  0  0  0  0  0  0  0
  -31.4495  -24.6651   18.5981 O   0  0  0  0  0  0  0  0  0  0  0  0
  -30.3381  -25.4275   16.4750 O   0  0  0  0  0  0  0  0  0  0  0  0
  -20.7224  -11.6280   22.8063 O   0  0  0  0  0  0  0  0  0  0  0  0
  -28.6135  -28.7292   20.1192 O   0  0  0  0  0  0  0  0  0  1  0  0
  -23.1375   -6.9816   24.5333 F   0  0  0  0  0  0  0  0  0  0  0  0
  -19.7915   -9.1568   21.9881 F   0  0  0  0  0  0  0  0  0  0  0  0
  -27.4209  -24.3569   17.5169 S   0  0  0  0  0  0  0  0  0  0  0  0
  -30.2756  -25.1492   17.8970 S   0  0  0  0  0  0  0  0  0  0  0  0
  1  2  1  0  0  0  0
  1  5  2  0  0  0  0
  2  6  2  0  0  0  0
  3  8  2  0  0  0  0
  3 16  1  0  0  0  0
  4  9  1  0  0  0  0
  4 16  2  0  0  0  0
  5 18  1  0  0  0  0
  6 20  1  0  0  0  0
  7 10  2  0  0  0  0
  7 19  1  0  0  0  0
  8 22  1  0  0  0  0
  9 22  2  0  0  0  0
 10 23  1  0  0  0  0
 11 12  2  0  0  0  0
 11 24  1  0  0  0  0
 12 25  1  0  0  0  0
 13 21  1  0  0  0  0
 13 23  2  0  0  0  0
 14 25  2  0  0  0  0
 14 26  1  0  0  0  0
 15 28  2  0  0  0  0
 15 82  1  0  0  0  0
 16 27  1  0  0  0  0
 17 27  1  0  0  0  0
 17 29  2  0  0  0  0
 17 31  1  0  0  0  0
 18 20  2  0  0  0  0
 18 36  1  0  0  0  0
 19 21  2  0  0  0  0
 19 37  1  0  0  0  0
 20 45  1  0  0  0  0
 21 38  1  0  0  0  0
 22 78  1  0  0  0  0
 23 79  1  0  0  0  0
 24 26  2  0  0  0  0
 24 78  1  0  0  0  0
 25 80  1  0  0  0  0
 26 81  1  0  0  0  0
 27 59  2  0  0  0  0
 28 60  1  0  0  0  0
 28 66  1  0  0  0  0
 29 61  1  0  0  0  0
 29 64  1  0  0  0  0
 30 60  2  0  0  0  0
 30 82  1  0  0  0  0
 30 83  1  0  0  0  0
 31 65  1  0  0  0  0
 31 71  2  0  0  0  0
 32 46  1  0  0  0  0
 32 67  1  0  0  0  0
 32 72  2  0  0  0  0
 33 55  1  0  0  0  0
 33 62  1  0  0  0  0
 33 73  2  0  0  0  0
 34 56  1  0  0  0  0
 34 68  1  0  0  0  0
 34 74  2  0  0  0  0
 35 63  1  0  0  0  0
 35 66  1  0  0  0  0
 35 75  2  0  0  0  0
 36 39  1  0  0  0  0
 37 46  1  0  0  0  0
 38 62  1  0  0  0  0
 39 41  1  0  0  0  0
 40 42  1  0  0  0  0
 40 43  1  0  0  0  0
 41 45  1  0  0  0  0
 42 47  1  0  0  0  0
 43 63  1  0  0  0  0
 44 47  1  0  0  0  0
 44 63  1  0  0  0  0
 45 67  1  0  0  0  0
 46 62  1  0  0  0  0
 47 61  1  0  0  0  0
 48 56  1  0  0  0  0
 49 57  1  0  0  0  0
 50 58  1  0  0  0  0
 51 58  1  0  0  0  0
 52 58  1  0  0  0  0
 53 70  1  0  0  0  0
 54 57  1  0  0  0  0
 54 69  1  0  0  0  0
 55 58  1  0  0  0  0
 55 68  1  0  0  0  0
 56 70  1  0  0  0  0
 57 79  1  0  0  0  0
 59 61  1  0  0  0  0
 69 83  1  0  0  0  0
 76 83  2  0  0  0  0
 77 83  2  0  0  0  0
M  CHG  1  70   1
M  ISO  4  35 100  57 101  66 100  79 101
M  END
> <Batch ID>
0195

> <Smiles>
CNC(C)C(=O)NC(C(=O)N1Cc2cc([101O:1][101CH:1](C)CNS(=O)(=O)c3nc([100NH:0][100C:0](=O)N4CCCC(n5nc(-c6ccc(Oc7ccc(F)cc7F)cc6)c(C(N)=O)c5N)C4)cs3)ccc2CC1C(=O)NC1CCCc2ccccc21)C(C)(C)C

> <Shape>
0.204

> <Color>
0.106

> <Negative vol penalty>
0.000

$$$$

  -OEChem-04052305363D

 82 90  0     1  0  0  0  0  0999 V2000
  -17.3310  -30.3862   24.1483 C   0  0  0  0  0  0  0  0  0  0  0  0
  -18.7017  -30.1633   24.2315 C   0  0  0  0  0  0  0  0  0  0  0  0
  -24.6241  -14.4693   19.9680 C   0  0  0  0  0  0  0  0  0  0  0  0
  -26.5091  -14.5434   21.4773 C   0  0  0  0  0  0  0  0  0  0  0  0
  -16.5335  -29.5392   23.3800 C   0  0  0  0  0  0  0  0  0  0  0  0
  -19.2755  -29.0923   23.5473 C   0  0  0  0  0  0  0  0  0  0  0  0
  -23.5393  -30.3852   21.1402 C   0  0  0  0  0  0  0  0  0  0  0  0
  -24.6438  -13.0752   20.0118 C   0  0  0  0  0  0  0  0  0  0  0  0
  -26.5289  -13.1493   21.5211 C   0  0  0  0  0  0  0  0  0  0  0  0
  -24.6950  -30.5026   21.9111 C   0  0  0  0  0  0  0  0  0  0  0  0
  -23.6265  -10.6346   22.1193 C   0  0  0  0  0  0  0  0  0  0  0  0
  -22.4084   -9.9738   22.2775 C   0  0  0  0  0  0  0  0  0  0  0  0
  -25.3913  -28.3083   21.1905 C   0  0  0  0  0  0  0  0  0  0  0  0
  -22.7494   -8.8408   20.1710 C   0  0  0  0  0  0  0  0  0  0  0  0
  -25.5568  -15.2033   20.7007 C   0  0  0  0  0  0  0  0  0  0  0  0
  -24.8240  -17.5110   21.5040 C   0  0  0  0  0  0  0  0  0  0  0  0
  -17.0992  -28.4630   22.6782 C   0  0  0  0  0  0  0  0  0  0  0  0
  -23.2951  -29.2220   20.3961 C   0  0  0  0  0  0  0  0  0  0  0  0
  -18.4846  -28.2292   22.7699 C   0  0  0  0  0  0  0  0  0  0  0  0
  -24.2329  -28.1796   20.4091 C   0  0  0  0  0  0  0  0  0  0  0  0
  -25.5962  -12.4153   20.7884 C   0  0  0  0  0  0  0  0  0  0  0  0
  -25.6199  -29.4629   21.9386 C   0  0  0  0  0  0  0  0  0  0  0  0
  -24.4061  -10.3987   20.9868 C   0  0  0  0  0  0  0  0  0  0  0  0
  -21.9699   -9.0769   21.3034 C   0  0  0  0  0  0  0  0  0  0  0  0
  -23.9675   -9.5018   20.0127 C   0  0  0  0  0  0  0  0  0  0  0  0
  -25.5373  -16.6434   20.6554 C   0  0  0  0  0  0  0  0  0  0  0  0
  -25.1380  -18.7691   21.0513 C   0  0  0  0  0  0  0  0  0  0  0  0
  -28.6740  -25.7927   22.8461 C   0  0  0  0  0  0  0  0  0  0  0  0
  -28.6736  -24.0725   21.2312 C   0  0  0  0  0  0  0  0  0  0  0  0
  -23.9552  -17.2069   22.6033 C   0  0  0  0  0  0  0  0  0  0  0  0
  -21.0402  -26.9818   20.4107 C   0  0  0  0  0  0  0  0  0  0  0  0
  -22.6091  -25.9362   17.7711 C   0  0  0  0  0  0  0  0  0  0  0  0
  -25.5149  -25.8164   15.9853 C   0  0  0  0  0  0  0  0  0  0  0  0
  -28.8464  -22.5156   19.2582 C   0  0  0  0  0  0  0  0  0  0  0  0
  -16.1899  -27.5464   21.8986 C   0  0  0  0  0  0  0  0  0  0  0  0
  -22.0565  -29.1218   19.5486 C   0  0  0  0  0  0  0  0  0  0  0  0
  -24.0276  -26.9182   19.6120 C   0  0  0  0  0  0  0  0  0  0  0  0
  -16.9300  -26.6569   20.9029 C   0  0  0  0  0  0  0  0  0  0  0  0
  -27.5286  -20.2545   16.8441 C   0  0  0  0  0  0  0  0  0  0  0  0
  -18.1519  -26.0224   21.5595 C   0  0  0  0  0  0  0  0  0  0  0  0
  -26.8344  -19.1848   17.6903 C   0  0  0  0  0  0  0  0  0  0  0  0
  -28.8119  -20.7554   17.5045 C   0  0  0  0  0  0  0  0  0  0  0  0
  -27.9635  -20.1476   19.7361 C   0  0  0  0  0  0  0  0  0  0  0  0
  -19.1477  -27.0928   22.0223 C   0  0  1  0  0  0  0  0  0  0  0  0
  -21.6617  -27.6819   19.2354 C   0  0  1  0  0  0  0  0  0  0  0  0
  -26.6320  -19.6589   19.1428 C   0  0  2  0  0  0  0  0  0  0  0  0
  -26.4993  -24.8543   13.8870 C   0  0  0  0  0  0  0  0  0  0  0  0
  -29.7908  -29.0020   25.7621 C   0  0  0  0  0  0  0  0  0  0  0  0
  -22.7734  -23.1977   19.1066 C   0  0  0  0  0  0  0  0  0  0  0  0
  -24.5407  -22.5718   17.4474 C   0  0  0  0  0  0  0  0  0  0  0  0
  -22.2408  -23.1368   16.6639 C   0  0  0  0  0  0  0  0  0  0  0  0
  -26.1064  -28.5026   14.8929 C   0  0  0  0  0  0  0  0  0  0  0  0
  -28.5330  -26.6373   24.0781 C   0  0  0  0  0  0  0  0  0  0  0  0
  -28.0216  -30.3535   24.5689 C   0  0  0  0  0  0  0  0  0  0  0  0
  -26.6662  -30.3724   23.8709 C   0  0  0  0  0  0  0  0  0  1  0  0
  -23.7485  -24.9800   17.5133 C   0  0  1  0  0  0  0  0  0  0  0  0
  -25.8033  -26.0525   14.5137 C   0  0  2  0  0  0  0  0  0  0  0  0
  -28.4717  -28.9569   25.0023 C   0  0  1  0  0  0  0  0  0  0  0  0
  -23.3291  -23.4944   17.6995 C   0  0  0  0  0  0  0  0  0  0  0  0
  -26.2506  -17.2952   19.7333 N   0  0  0  0  0  0  0  0  0  0  0  0
  -29.1590  -26.2050   21.6942 N   0  0  0  0  0  0  0  0  0  0  0  0
  -29.1578  -25.1962   20.7467 N   0  0  0  0  0  0  0  0  0  0  0  0
  -25.9871  -18.5857   19.9998 N   0  0  0  0  0  0  0  0  0  0  0  0
  -22.7980  -26.8653   18.8040 N   0  0  0  0  0  0  0  0  0  0  0  0
  -28.5424  -21.1918   18.8763 N   0  0  0  0  0  0  0  0  0  0  0  0
  -24.7680  -20.0033   21.4541 N   0  0  0  0  0  0  0  0  0  0  0  0
  -23.7421  -15.8617   22.9342 N   0  0  0  0  0  0  0  0  0  0  0  0
  -28.5164  -22.8254   20.5772 N   0  0  0  0  0  0  0  0  0  0  0  0
  -19.9040  -27.5997   20.8973 N   0  0  0  0  0  0  0  0  0  0  0  0
  -24.2532  -25.2960   16.1814 N   0  0  0  0  0  0  0  0  0  0  0  0
  -26.6781  -27.2468   14.3424 N   0  3  0  0  0  0  0  0  0  0  0  0
  -28.6613  -28.0921   23.8045 N   0  3  0  0  0  0  0  0  0  0  0  0
  -23.3718  -18.1009   23.2619 O   0  0  0  0  0  0  0  0  0  0  0  0
  -21.5526  -25.9560   20.8431 O   0  0  0  0  0  0  0  0  0  0  0  0
  -21.5920  -25.8661   17.0767 O   0  0  0  0  0  0  0  0  0  0  0  0
  -26.3290  -26.0650   16.8719 O   0  0  0  0  0  0  0  0  0  0  0  0
  -29.3365  -23.3236   18.4651 O   0  0  0  0  0  0  0  0  0  0  0  0
  -25.6155  -11.0550   20.8315 O   0  0  0  0  0  0  0  0  0  0  0  0
  -26.7485  -29.5747   22.6906 O   0  0  0  0  0  0  0  0  0  1  0  0
  -20.8008   -8.4411   21.4563 F   0  0  0  0  0  0  0  0  0  0  0  0
  -24.7126   -9.2701   18.9233 F   0  0  0  0  0  0  0  0  0  0  0  0
  -28.1809  -24.1502   22.8721 S   0  0  0  0  0  0  0  0  0  0  0  0
  1  2  1  0  0  0  0
  1  5  2  0  0  0  0
  2  6  2  0  0  0  0
  3  8  2  0  0  0  0
  3 15  1  0  0  0  0
  4  9  1  0  0  0  0
  4 15  2  0  0  0  0
  5 17  1  0  0  0  0
  6 19  1  0  0  0  0
  7 10  2  0  0  0  0
  7 18  1  0  0  0  0
  8 21  1  0  0  0  0
  9 21  2  0  0  0  0
 10 22  1  0  0  0  0
 11 12  2  0  0  0  0
 11 23  1  0  0  0  0
 12 24  1  0  0  0  0
 13 20  1  0  0  0  0
 13 22  2  0  0  0  0
 14 24  2  0  0  0  0
 14 25  1  0  0  0  0
 15 26  1  0  0  0  0
 16 26  1  0  0  0  0
 16 27  2  0  0  0  0
 16 30  1  0  0  0  0
 17 19  2  0  0  0  0
 17 35  1  0  0  0  0
 18 20  2  0  0  0  0
 18 36  1  0  0  0  0
 19 44  1  0  0  0  0
 20 37  1  0  0  0  0
 21 78  1  0  0  0  0
 22 79  1  0  0  0  0
 23 25  2  0  0  0  0
 23 78  1  0  0  0  0
 24 80  1  0  0  0  0
 25 81  1  0  0  0  0
 26 60  2  0  0  0  0
 27 63  1  0  0  0  0
 27 66  1  0  0  0  0
 28 53  1  0  0  0  0
 28 61  2  0  0  0  0
 28 82  1  0  0  0  0
 29 62  2  0  0  0  0
 29 68  1  0  0  0  0
 29 82  1  0  0  0  0
 30 67  1  0  0  0  0
 30 73  2  0  0  0  0
 31 45  1  0  0  0  0
 31 69  1  0  0  0  0
 31 74  2  0  0  0  0
 32 56  1  0  0  0  0
 32 64  1  0  0  0  0
 32 75  2  0  0  0  0
 33 57  1  0  0  0  0
 33 70  1  0  0  0  0
 33 76  2  0  0  0  0
 34 65  1  0  0  0  0
 34 68  1  0  0  0  0
 34 77  2  0  0  0  0
 35 38  1  0  0  0  0
 36 45  1  0  0  0  0
 37 64  1  0  0  0  0
 38 40  1  0  0  0  0
 39 41  1  0  0  0  0
 39 42  1  0  0  0  0
 40 44  1  0  0  0  0
 41 46  1  0  0  0  0
 42 65  1  0  0  0  0
 43 46  1  0  0  0  0
 43 65  1  0  0  0  0
 44 69  1  0  0  0  0
 45 64  1  0  0  0  0
 46 63  1  0  0  0  0
 47 57  1  0  0  0  0
 48 58  1  0  0  0  0
 49 59  1  0  0  0  0
 50 59  1  0  0  0  0
 51 59  1  0  0  0  0
 52 71  1  0  0  0  0
 53 72  1  0  0  0  0
 54 55  1  0  0  0  0
 54 58  1  0  0  0  0
 55 79  1  0  0  0  0
 56 59  1  0  0  0  0
 56 70  1  0  0  0  0
 57 71  1  0  0  0  0
 58 72  1  0  0  0  0
 60 63  1  0  0  0  0
 61 62  1  0  0  0  0
M  CHG  2  71   1  72   1
M  ISO  4  34 100  55 101  68 100  79 101
M  END
> <Batch ID>
0195

> <Smiles>
CNC(C)C(=O)NC(C(=O)N1Cc2cc([101O:1][101CH2:1]CC(C)NCc3nnc([100NH:0][100C:0](=O)N4CCCC(n5nc(-c6ccc(Oc7ccc(F)cc7F)cc6)c(C(N)=O)c5N)C4)s3)ccc2CC1C(=O)NC1CCCc2ccccc21)C(C)(C)C

> <Shape>
0.234

> <Color>
0.071

> <Negative vol penalty>
0.000

$$$$

  -OEChem-04052305363D

 84 92  0     1  0  0  0  0  0999 V2000
  -18.1897  -32.5348   21.7950 C   0  0  0  0  0  0  0  0  0  0  0  0
  -19.5191  -32.5330   21.3849 C   0  0  0  0  0  0  0  0  0  0  0  0
  -26.4270  -13.0614   21.6665 C   0  0  0  0  0  0  0  0  0  0  0  0
  -25.9732  -14.0842   19.5252 C   0  0  0  0  0  0  0  0  0  0  0  0
  -17.7582  -31.6271   22.7613 C   0  0  0  0  0  0  0  0  0  0  0  0
  -20.4181  -31.6241   21.9418 C   0  0  0  0  0  0  0  0  0  0  0  0
  -25.1250  -28.9039   19.1219 C   0  0  0  0  0  0  0  0  0  0  0  0
  -25.1579  -12.4826   21.6590 C   0  0  0  0  0  0  0  0  0  0  0  0
  -24.7041  -13.5053   19.5177 C   0  0  0  0  0  0  0  0  0  0  0  0
  -26.4905  -29.1837   19.0943 C   0  0  0  0  0  0  0  0  0  0  0  0
  -23.6373   -9.8328   20.2101 C   0  0  0  0  0  0  0  0  0  0  0  0
  -23.5351   -8.4902   20.5741 C   0  0  0  0  0  0  0  0  0  0  0  0
  -26.8499  -27.5734   20.8541 C   0  0  0  0  0  0  0  0  0  0  0  0
  -22.0708   -9.0961   22.3977 C   0  0  0  0  0  0  0  0  0  0  0  0
  -29.2273  -22.4281   16.6962 C   0  0  0  0  0  0  0  0  0  0  0  0
  -26.8346  -13.8623   20.5996 C   0  0  0  0  0  0  0  0  0  0  0  0
  -29.3341  -13.9107   20.0920 C   0  0  0  0  0  0  0  0  0  0  0  0
  -18.6502  -30.7001   23.3233 C   0  0  0  0  0  0  0  0  0  0  0  0
  -24.6093  -27.9631   20.0249 C   0  0  0  0  0  0  0  0  0  0  0  0
  -19.9984  -30.7040   22.9175 C   0  0  0  0  0  0  0  0  0  0  0  0
  -25.4777  -27.2816   20.8894 C   0  0  0  0  0  0  0  0  0  0  0  0
  -24.2965  -12.7045   20.5846 C   0  0  0  0  0  0  0  0  0  0  0  0
  -27.3528  -28.5205   19.9625 C   0  0  0  0  0  0  0  0  0  0  0  0
  -22.9563  -10.8071   20.9399 C   0  0  0  0  0  0  0  0  0  0  0  0
  -22.7518   -8.1218   21.6679 C   0  0  0  0  0  0  0  0  0  0  0  0
  -22.1730  -10.4388   22.0337 C   0  0  0  0  0  0  0  0  0  0  0  0
  -29.7833  -23.6645   16.9539 C   0  0  0  0  0  0  0  0  0  0  0  0
  -28.1451  -14.4610   20.6071 C   0  0  0  0  0  0  0  0  0  0  0  0
  -30.2714  -23.8449   18.2320 C   0  0  0  0  0  0  0  0  0  0  0  0
  -30.2907  -14.8637   20.3435 C   0  0  0  0  0  0  0  0  0  0  0  0
  -29.6597  -21.7354   18.8176 C   0  0  0  0  0  0  0  0  0  0  0  0
  -29.5541  -12.6508   19.4441 C   0  0  0  0  0  0  0  0  0  0  0  0
  -22.5435  -28.0685   22.4384 C   0  0  0  0  0  0  0  0  0  0  0  0
  -22.9504  -24.8503   22.4158 C   0  0  0  0  0  0  0  0  0  0  0  0
  -24.9211  -22.1849   21.6045 C   0  0  0  0  0  0  0  0  0  0  0  0
  -30.0507  -20.7839   21.1172 C   0  0  0  0  0  0  0  0  0  0  0  0
  -18.1481  -29.7698   24.3989 C   0  0  0  0  0  0  0  0  0  0  0  0
  -23.1374  -27.6532   20.0237 C   0  0  0  0  0  0  0  0  0  0  0  0
  -24.9770  -26.2480   21.8638 C   0  0  0  0  0  0  0  0  0  0  0  0
  -19.0791  -28.5902   24.6673 C   0  0  0  0  0  0  0  0  0  0  0  0
  -31.3508  -18.3881   23.4077 C   0  0  0  0  0  0  0  0  0  0  0  0
  -20.5236  -29.0662   24.7850 C   0  0  0  0  0  0  0  0  0  0  0  0
  -30.7894  -17.0583   22.8990 C   0  0  0  0  0  0  0  0  0  0  0  0
  -30.3477  -19.5281   23.2408 C   0  0  0  0  0  0  0  0  0  0  0  0
  -29.2447  -18.3551   21.3762 C   0  0  0  0  0  0  0  0  0  0  0  0
  -20.9981  -29.7169   23.4801 C   0  0  1  0  0  0  0  0  0  0  0  0
  -22.6527  -27.0505   21.3387 C   0  0  1  0  0  0  0  0  0  0  0  0
  -30.2432  -17.1894   21.4638 C   0  0  2  0  0  0  0  0  0  0  0  0
  -25.0030  -19.6807   21.7444 C   0  0  0  0  0  0  0  0  0  0  0  0
  -23.6288  -25.0409   25.3845 C   0  0  0  0  0  0  0  0  0  0  0  0
  -24.6028  -22.7391   25.2384 C   0  0  0  0  0  0  0  0  0  0  0  0
  -22.1794  -23.0982   24.7683 C   0  0  0  0  0  0  0  0  0  0  0  0
  -25.0333  -21.9081   18.6600 C   0  0  0  0  0  0  0  0  0  0  0  0
  -30.8912  -27.9298   19.5664 C   0  0  0  0  0  0  0  0  0  0  0  0
  -31.3886  -25.4047   19.8272 C   0  0  0  0  0  0  0  0  0  0  0  0
  -29.5715  -27.7323   20.2974 C   0  0  0  0  0  0  0  0  0  1  0  0
  -23.8978  -23.8878   23.0902 C   0  0  1  0  0  0  0  0  0  0  0  0
  -24.6080  -20.8793   20.8960 C   0  0  2  0  0  0  0  0  0  0  0  0
  -31.9262  -26.8364   19.8515 C   0  0  1  0  0  0  0  0  0  0  0  0
  -23.5867  -23.7123   24.6034 C   0  0  0  0  0  0  0  0  0  0  0  0
  -29.1487  -21.4367   17.6080 N   0  0  0  0  0  0  0  0  0  0  0  0
  -28.3273  -15.6698   21.1453 N   0  0  0  0  0  0  0  0  0  0  0  0
  -30.2257  -22.8985   19.1924 N   0  0  0  0  0  0  0  0  0  0  0  0
  -29.6419  -15.8869   20.9699 N   0  0  0  0  0  0  0  0  0  0  0  0
  -23.5289  -25.9846   21.8289 N   0  0  0  0  0  0  0  0  0  0  0  0
  -29.8771  -19.5941   21.8555 N   0  0  0  0  0  0  0  0  0  0  0  0
  -31.6151  -14.9178   20.0879 N   0  0  0  0  0  0  0  0  0  0  0  0
  -28.4615  -11.7912   19.2660 N   0  0  0  0  0  0  0  0  0  0  0  0
  -30.8375  -25.0726   18.5334 N   0  0  0  0  0  0  0  0  0  0  0  0
  -29.5938  -20.7178   19.8013 N   0  0  0  0  0  0  0  0  0  0  0  0
  -21.3179  -28.7039   22.4973 N   0  0  0  0  0  0  0  0  0  0  0  0
  -23.8384  -22.6498   22.3205 N   0  0  0  0  0  0  0  0  0  0  0  0
  -25.3440  -20.8025   19.6024 N   0  3  0  0  0  0  0  0  0  0  0  0
  -30.6892  -12.2906   19.0499 O   0  0  0  0  0  0  0  0  0  0  0  0
  -23.4999  -28.2620   23.1797 O   0  0  0  0  0  0  0  0  0  0  0  0
  -21.7423  -24.6013   22.4038 O   0  0  0  0  0  0  0  0  0  0  0  0
  -26.0178  -22.7351   21.5331 O   0  0  0  0  0  0  0  0  0  0  0  0
  -30.5914  -21.7787   21.6071 O   0  0  0  0  0  0  0  0  0  0  0  0
  -32.9816  -26.9341   18.8934 O   0  0  0  0  0  0  0  0  0  0  0  0
  -23.0582  -12.1396   20.5768 O   0  0  0  0  0  0  0  0  0  0  0  0
  -28.6860  -28.7921   19.9381 O   0  0  0  0  0  0  0  0  0  1  0  0
  -22.6525   -6.8323   22.0164 F   0  0  0  0  0  0  0  0  0  0  0  0
  -21.5155  -11.3702   22.7380 F   0  0  0  0  0  0  0  0  0  0  0  0
  -29.8383  -24.6168   16.0168 F   0  0  0  0  0  0  0  0  0  0  0  0
  1  2  1  0  0  0  0
  1  5  2  0  0  0  0
  2  6  2  0  0  0  0
  3  8  2  0  0  0  0
  3 16  1  0  0  0  0
  4  9  1  0  0  0  0
  4 16  2  0  0  0  0
  5 18  1  0  0  0  0
  6 20  1  0  0  0  0
  7 10  2  0  0  0  0
  7 19  1  0  0  0  0
  8 22  1  0  0  0  0
  9 22  2  0  0  0  0
 10 23  1  0  0  0  0
 11 12  2  0  0  0  0
 11 24  1  0  0  0  0
 12 25  1  0  0  0  0
 13 21  1  0  0  0  0
 13 23  2  0  0  0  0
 14 25  2  0  0  0  0
 14 26  1  0  0  0  0
 15 27  1  0  0  0  0
 15 61  2  0  0  0  0
 16 28  1  0  0  0  0
 17 28  1  0  0  0  0
 17 30  2  0  0  0  0
 17 32  1  0  0  0  0
 18 20  2  0  0  0  0
 18 37  1  0  0  0  0
 19 21  2  0  0  0  0
 19 38  1  0  0  0  0
 20 46  1  0  0  0  0
 21 39  1  0  0  0  0
 22 80  1  0  0  0  0
 23 81  1  0  0  0  0
 24 26  2  0  0  0  0
 24 80  1  0  0  0  0
 25 82  1  0  0  0  0
 26 83  1  0  0  0  0
 27 29  2  0  0  0  0
 27 84  1  0  0  0  0
 28 62  2  0  0  0  0
 29 63  1  0  0  0  0
 29 69  1  0  0  0  0
 30 64  1  0  0  0  0
 30 67  1  0  0  0  0
 31 61  1  0  0  0  0
 31 63  2  0  0  0  0
 31 70  1  0  0  0  0
 32 68  1  0  0  0  0
 32 74  2  0  0  0  0
 33 47  1  0  0  0  0
 33 71  1  0  0  0  0
 33 75  2  0  0  0  0
 34 57  1  0  0  0  0
 34 65  1  0  0  0  0
 34 76  2  0  0  0  0
 35 58  1  0  0  0  0
 35 72  1  0  0  0  0
 35 77  2  0  0  0  0
 36 66  1  0  0  0  0
 36 70  1  0  0  0  0
 36 78  2  0  0  0  0
 37 40  1  0  0  0  0
 38 47  1  0  0  0  0
 39 65  1  0  0  0  0
 40 42  1  0  0  0  0
 41 43  1  0  0  0  0
 41 44  1  0  0  0  0
 42 46  1  0  0  0  0
 43 48  1  0  0  0  0
 44 66  1  0  0  0  0
 45 48  1  0  0  0  0
 45 66  1  0  0  0  0
 46 71  1  0  0  0  0
 47 65  1  0  0  0  0
 48 64  1  0  0  0  0
 49 58  1  0  0  0  0
 50 60  1  0  0  0  0
 51 60  1  0  0  0  0
 52 60  1  0  0  0  0
 53 73  1  0  0  0  0
 54 56  1  0  0  0  0
 54 59  1  0  0  0  0
 55 59  1  0  0  0  0
 55 69  1  0  0  0  0
 56 81  1  0  0  0  0
 57 60  1  0  0  0  0
 57 72  1  0  0  0  0
 58 73  1  0  0  0  0
 59 79  1  0  0  0  0
 62 64  1  0  0  0  0
M  CHG  1  73   1
M  ISO  4  36 100  56 101  70 100  81 101
M  END
> <Batch ID>
0195

> <Smiles>
CNC(C)C(=O)NC(C(=O)N1Cc2cc([101O:1][101CH2:1]CC(O)CNc3nc([100NH:0][100C:0](=O)N4CCCC(n5nc(-c6ccc(Oc7ccc(F)cc7F)cc6)c(C(N)=O)c5N)C4)ncc3F)ccc2CC1C(=O)NC1CCCc2ccccc21)C(C)(C)C

> <Shape>
0.283

> <Color>
0.092

> <Negative vol penalty>
0.000

$$$$

  -OEChem-04052305363D

 86 94  0     1  0  0  0  0  0999 V2000
  -23.5138  -23.3667   12.3588 C   0  0  0  0  0  0  0  0  0  0  0  0
  -23.2488  -24.3275   13.3294 C   0  0  0  0  0  0  0  0  0  0  0  0
  -23.2657  -14.1391   19.6182 C   0  0  0  0  0  0  0  0  0  0  0  0
  -24.6507  -14.8325   21.4724 C   0  0  0  0  0  0  0  0  0  0  0  0
  -24.0903  -22.1505   12.7226 C   0  0  0  0  0  0  0  0  0  0  0  0
  -23.5591  -24.0721   14.6647 C   0  0  0  0  0  0  0  0  0  0  0  0
  -25.4991  -28.1183   18.8324 C   0  0  0  0  0  0  0  0  0  0  0  0
  -24.2412  -13.2192   19.2336 C   0  0  0  0  0  0  0  0  0  0  0  0
  -25.6262  -13.9126   21.0879 C   0  0  0  0  0  0  0  0  0  0  0  0
  -24.8359  -28.8200   19.8382 C   0  0  0  0  0  0  0  0  0  0  0  0
  -28.0692  -13.6986   18.7605 C   0  0  0  0  0  0  0  0  0  0  0  0
  -29.3958  -14.1291   18.7449 C   0  0  0  0  0  0  0  0  0  0  0  0
  -25.4891  -27.1351   21.4361 C   0  0  0  0  0  0  0  0  0  0  0  0
  -29.9654  -12.4326   20.3680 C   0  0  0  0  0  0  0  0  0  0  0  0
  -19.6690  -28.3832   21.2986 C   0  0  0  0  0  0  0  0  0  0  0  0
  -23.4705  -14.9458   20.7376 C   0  0  0  0  0  0  0  0  0  0  0  0
  -21.3898  -15.6783   22.0190 C   0  0  0  0  0  0  0  0  0  0  0  0
  -24.4167  -21.8838   14.0617 C   0  0  0  0  0  0  0  0  0  0  0  0
  -26.1541  -26.9121   19.1193 C   0  0  0  0  0  0  0  0  0  0  0  0
  -24.1392  -22.8506   15.0469 C   0  0  0  0  0  0  0  0  0  0  0  0
  -26.1620  -26.4213   20.4327 C   0  0  0  0  0  0  0  0  0  0  0  0
  -25.4214  -13.1059   19.9684 C   0  0  0  0  0  0  0  0  0  0  0  0
  -24.8284  -28.3270   21.1397 C   0  0  0  0  0  0  0  0  0  0  0  0
  -27.6906  -12.6350   19.5799 C   0  0  0  0  0  0  0  0  0  0  0  0
  -30.3439  -13.4961   19.5487 C   0  0  0  0  0  0  0  0  0  0  0  0
  -28.6388  -12.0021   20.3836 C   0  0  0  0  0  0  0  0  0  0  0  0
  -22.4635  -15.8966   21.1351 C   0  0  0  0  0  0  0  0  0  0  0  0
  -19.8067  -25.9490   22.3863 C   0  0  0  0  0  0  0  0  0  0  0  0
  -20.5743  -28.1014   22.2978 C   0  0  0  0  0  0  0  0  0  0  0  0
  -18.9009  -26.2311   21.3876 C   0  0  0  0  0  0  0  0  0  0  0  0
  -20.7304  -16.8823   22.0623 C   0  0  0  0  0  0  0  0  0  0  0  0
  -21.0215  -14.4930   22.7368 C   0  0  0  0  0  0  0  0  0  0  0  0
  -25.8253  -23.8985   18.1633 C   0  0  0  0  0  0  0  0  0  0  0  0
  -28.5252  -23.4603   19.9072 C   0  0  0  0  0  0  0  0  0  0  0  0
  -30.5394  -24.5289   22.4464 C   0  0  0  0  0  0  0  0  0  0  0  0
  -20.8070  -22.3329   22.5445 C   0  0  0  0  0  0  0  0  0  0  0  0
  -24.9950  -20.5360   14.4134 C   0  0  0  0  0  0  0  0  0  0  0  0
  -26.8876  -26.1809   18.0285 C   0  0  0  0  0  0  0  0  0  0  0  0
  -26.8675  -25.1414   20.7968 C   0  0  0  0  0  0  0  0  0  0  0  0
  -25.6381  -20.4915   15.7971 C   0  0  0  0  0  0  0  0  0  0  0  0
  -21.2384  -21.0217   19.1990 C   0  0  0  0  0  0  0  0  0  0  0  0
  -24.7250  -21.1422   16.8313 C   0  0  0  0  0  0  0  0  0  0  0  0
  -21.5084  -19.5433   19.4842 C   0  0  0  0  0  0  0  0  0  0  0  0
  -21.8864  -21.9153   20.2525 C   0  0  0  0  0  0  0  0  0  0  0  0
  -21.7585  -20.1253   21.9416 C   0  0  0  0  0  0  0  0  0  0  0  0
  -24.4842  -22.6205   16.5023 C   0  0  1  0  0  0  0  0  0  0  0  0
  -27.0858  -24.6989   18.3313 C   0  0  1  0  0  0  0  0  0  0  0  0
  -21.1105  -19.1686   20.9242 C   0  0  2  0  0  0  0  0  0  0  0  0
  -32.6562  -23.9443   23.6609 C   0  0  0  0  0  0  0  0  0  0  0  0
  -15.8563  -26.1336   20.4928 C   0  0  0  0  0  0  0  0  0  0  0  0
  -16.6882  -24.0751   19.3027 C   0  0  0  0  0  0  0  0  0  0  0  0
  -22.7625  -30.3087   24.3380 C   0  0  0  0  0  0  0  0  0  0  0  0
  -27.0578  -21.2317   21.3871 C   0  0  0  0  0  0  0  0  0  0  0  0
  -28.8223  -21.3420   23.1598 C   0  0  0  0  0  0  0  0  0  0  0  0
  -29.4399  -20.7181   20.8249 C   0  0  0  0  0  0  0  0  0  0  0  0
  -31.8255  -27.0792   21.6713 C   0  0  0  0  0  0  0  0  0  0  0  0
  -19.8981  -24.5953   23.0056 C   0  0  0  0  0  0  0  0  0  0  0  0
  -23.6360  -28.2423   23.1957 C   0  0  0  0  0  0  0  0  0  1  0  0
  -28.8242  -23.1142   21.3459 C   0  0  1  0  0  0  0  0  0  0  0  0
  -32.0409  -24.7401   22.5203 C   0  0  2  0  0  0  0  0  0  0  0  0
  -17.0653  -25.4209   19.9043 C   0  0  0  0  0  0  0  0  0  0  0  0
  -22.4056  -28.9415   23.7696 C   0  0  2  0  0  0  0  0  0  0  0  0
  -28.5210  -21.6247   21.6725 C   0  0  0  0  0  0  0  0  0  0  0  0
  -18.8160  -27.4531   20.8256 N   0  0  0  0  0  0  0  0  0  0  0  0
  -22.4884  -17.1415   20.6516 N   0  0  0  0  0  0  0  0  0  0  0  0
  -20.6595  -26.8792   22.8596 N   0  0  0  0  0  0  0  0  0  0  0  0
  -21.4221  -17.7161   21.2337 N   0  0  0  0  0  0  0  0  0  0  0  0
  -27.5651  -24.4596   19.6941 N   0  0  0  0  0  0  0  0  0  0  0  0
  -21.4519  -21.5181   21.5992 N   0  0  0  0  0  0  0  0  0  0  0  0
  -19.6322  -17.2986   22.7279 N   0  0  0  0  0  0  0  0  0  0  0  0
  -21.8083  -13.3441   22.5778 N   0  0  0  0  0  0  0  0  0  0  0  0
  -21.4142  -29.1127   22.7265 N   0  0  0  0  0  0  0  0  0  0  0  0
  -18.0328  -25.2122   20.9348 N   0  0  0  0  0  0  0  0  0  0  0  0
  -25.6315  -23.4163   16.8829 N   0  0  0  0  0  0  0  0  0  0  0  0
  -30.2093  -23.5075   21.5809 N   0  0  0  0  0  0  0  0  0  0  0  0
  -20.5594  -23.6403   22.1443 N   0  0  0  0  0  0  0  0  0  0  0  0
  -32.3513  -26.1822   22.7323 N   0  3  0  0  0  0  0  0  0  0  0  0
  -20.0148  -14.4492   23.4839 O   0  0  0  0  0  0  0  0  0  0  0  0
  -25.0843  -23.7296   19.1246 O   0  0  0  0  0  0  0  0  0  0  0  0
  -29.1266  -22.8708   19.0059 O   0  0  0  0  0  0  0  0  0  0  0  0
  -29.7397  -25.2002   23.0947 O   0  0  0  0  0  0  0  0  0  0  0  0
  -20.4715  -21.9239   23.6613 O   0  0  0  0  0  0  0  0  0  0  0  0
  -26.3733  -12.2082   19.5936 O   0  0  0  0  0  0  0  0  0  0  0  0
  -24.1812  -29.0096   22.1231 O   0  0  0  0  0  0  0  0  0  1  0  0
  -31.6182  -13.9087   19.5325 F   0  0  0  0  0  0  0  0  0  0  0  0
  -28.2813  -10.9790   21.1720 F   0  0  0  0  0  0  0  0  0  0  0  0
  1  2  1  0  0  0  0
  1  5  2  0  0  0  0
  2  6  2  0  0  0  0
  3  8  2  0  0  0  0
  3 16  1  0  0  0  0
  4  9  1  0  0  0  0
  4 16  2  0  0  0  0
  5 18  1  0  0  0  0
  6 20  1  0  0  0  0
  7 10  2  0  0  0  0
  7 19  1  0  0  0  0
  8 22  1  0  0  0  0
  9 22  2  0  0  0  0
 10 23  1  0  0  0  0
 11 12  2  0  0  0  0
 11 24  1  0  0  0  0
 12 25  1  0  0  0  0
 13 21  1  0  0  0  0
 13 23  2  0  0  0  0
 14 25  2  0  0  0  0
 14 26  1  0  0  0  0
 15 29  1  0  0  0  0
 15 64  2  0  0  0  0
 16 27  1  0  0  0  0
 17 27  1  0  0  0  0
 17 31  2  0  0  0  0
 17 32  1  0  0  0  0
 18 20  2  0  0  0  0
 18 37  1  0  0  0  0
 19 21  2  0  0  0  0
 19 38  1  0  0  0  0
 20 46  1  0  0  0  0
 21 39  1  0  0  0  0
 22 83  1  0  0  0  0
 23 84  1  0  0  0  0
 24 26  2  0  0  0  0
 24 83  1  0  0  0  0
 25 85  1  0  0  0  0
 26 86  1  0  0  0  0
 27 65  2  0  0  0  0
 28 30  2  0  0  0  0
 28 57  1  0  0  0  0
 28 66  1  0  0  0  0
 29 66  2  0  0  0  0
 29 72  1  0  0  0  0
 30 64  1  0  0  0  0
 30 73  1  0  0  0  0
 31 67  1  0  0  0  0
 31 70  1  0  0  0  0
 32 71  1  0  0  0  0
 32 78  2  0  0  0  0
 33 47  1  0  0  0  0
 33 74  1  0  0  0  0
 33 79  2  0  0  0  0
 34 59  1  0  0  0  0
 34 68  1  0  0  0  0
 34 80  2  0  0  0  0
 35 60  1  0  0  0  0
 35 75  1  0  0  0  0
 35 81  2  0  0  0  0
 36 69  1  0  0  0  0
 36 76  1  0  0  0  0
 36 82  2  0  0  0  0
 37 40  1  0  0  0  0
 38 47  1  0  0  0  0
 39 68  1  0  0  0  0
 40 42  1  0  0  0  0
 41 43  1  0  0  0  0
 41 44  1  0  0  0  0
 42 46  1  0  0  0  0
 43 48  1  0  0  0  0
 44 69  1  0  0  0  0
 45 48  1  0  0  0  0
 45 69  1  0  0  0  0
 46 74  1  0  0  0  0
 47 68  1  0  0  0  0
 48 67  1  0  0  0  0
 49 60  1  0  0  0  0
 50 61  1  0  0  0  0
 51 61  1  0  0  0  0
 52 62  1  0  0  0  0
 53 63  1  0  0  0  0
 54 63  1  0  0  0  0
 55 63  1  0  0  0  0
 56 77  1  0  0  0  0
 57 76  1  0  0  0  0
 58 62  1  0  0  0  0
 58 84  1  0  0  0  0
 59 63  1  0  0  0  0
 59 75  1  0  0  0  0
 60 77  1  0  0  0  0
 61 73  1  0  0  0  0
 62 72  1  0  0  0  0
 65 67  1  0  0  0  0
M  CHG  1  77   1
M  ISO  4  36 100  58 101  76 100  84 101
M  END
> <Batch ID>
0195

> <Smiles>
CNC(C)C(=O)NC(C(=O)N1Cc2cc([101O:1][101CH2:1]C(C)Nc3cnc(NC(C)C)c(C[100NH:0][100C:0](=O)N4CCCC(n5nc(-c6ccc(Oc7ccc(F)cc7F)cc6)c(C(N)=O)c5N)C4)n3)ccc2CC1C(=O)NC1CCCc2ccccc21)C(C)(C)C

> <Shape>
0.191

> <Color>
0.083

> <Negative vol penalty>
0.000

$$$$

  -OEChem-04052305363D

 88 96  0     1  0  0  0  0  0999 V2000
  -29.2739  -30.3712   10.9324 C   0  0  0  0  0  0  0  0  0  0  0  0
  -29.7533  -29.4324   11.8404 C   0  0  0  0  0  0  0  0  0  0  0  0
  -23.1246   -9.8489   19.9478 C   0  0  0  0  0  0  0  0  0  0  0  0
  -23.8798   -9.8965   22.2422 C   0  0  0  0  0  0  0  0  0  0  0  0
  -28.0087  -30.9291   11.1110 C   0  0  0  0  0  0  0  0  0  0  0  0
  -28.9682  -29.0519   12.9281 C   0  0  0  0  0  0  0  0  0  0  0  0
  -28.6932  -23.5046   15.5085 C   0  0  0  0  0  0  0  0  0  0  0  0
  -22.4104   -8.6792   20.2072 C   0  0  0  0  0  0  0  0  0  0  0  0
  -23.1655   -8.7268   22.5016 C   0  0  0  0  0  0  0  0  0  0  0  0
  -29.3027  -22.9655   16.6406 C   0  0  0  0  0  0  0  0  0  0  0  0
  -19.9580   -7.8512   23.1063 C   0  0  0  0  0  0  0  0  0  0  0  0
  -19.2002   -7.8024   24.2763 C   0  0  0  0  0  0  0  0  0  0  0  0
  -27.3287  -23.4650   17.9339 C   0  0  0  0  0  0  0  0  0  0  0  0
  -20.4900   -5.9046   25.0325 C   0  0  0  0  0  0  0  0  0  0  0  0
  -29.5973  -17.8875   22.6635 C   0  0  0  0  0  0  0  0  0  0  0  0
  -23.8594  -10.4575   20.9653 C   0  0  0  0  0  0  0  0  0  0  0  0
  -24.1359  -12.9895   20.8226 C   0  0  0  0  0  0  0  0  0  0  0  0
  -27.2038  -30.5481   12.1961 C   0  0  0  0  0  0  0  0  0  0  0  0
  -27.3988  -24.0388   15.5833 C   0  0  0  0  0  0  0  0  0  0  0  0
  -27.6916  -29.6063   13.1221 C   0  0  0  0  0  0  0  0  0  0  0  0
  -26.7040  -24.0080   16.8008 C   0  0  0  0  0  0  0  0  0  0  0  0
  -22.4308   -8.1182   21.4841 C   0  0  0  0  0  0  0  0  0  0  0  0
  -28.6216  -22.9482   17.8542 C   0  0  0  0  0  0  0  0  0  0  0  0
  -20.9818   -6.9266   22.8993 C   0  0  0  0  0  0  0  0  0  0  0  0
  -19.4662   -6.8291   25.2394 C   0  0  0  0  0  0  0  0  0  0  0  0
  -21.2478   -5.9534   23.8624 C   0  0  0  0  0  0  0  0  0  0  0  0
  -24.5978  -11.6655   20.6979 C   0  0  0  0  0  0  0  0  0  0  0  0
  -30.4326  -17.1398   21.8589 C   0  0  0  0  0  0  0  0  0  0  0  0
  -30.0841  -19.1204   23.0471 C   0  0  0  0  0  0  0  0  0  0  0  0
  -25.2090  -13.7637   20.4543 C   0  0  0  0  0  0  0  0  0  0  0  0
  -32.0122  -18.7740   21.8942 C   0  0  0  0  0  0  0  0  0  0  0  0
  -22.8517  -13.4760   21.2348 C   0  0  0  0  0  0  0  0  0  0  0  0
  -26.1281  -26.9141   15.1122 C   0  0  0  0  0  0  0  0  0  0  0  0
  -23.3359  -25.3232   15.5539 C   0  0  0  0  0  0  0  0  0  0  0  0
  -21.7148  -22.6298   16.8822 C   0  0  0  0  0  0  0  0  0  0  0  0
  -30.6459  -14.9521   20.6281 C   0  0  0  0  0  0  0  0  0  0  0  0
  -25.8622  -31.2138   12.3738 C   0  0  0  0  0  0  0  0  0  0  0  0
  -26.7451  -24.5925   14.3469 C   0  0  0  0  0  0  0  0  0  0  0  0
  -25.3048  -24.5505   16.9293 C   0  0  0  0  0  0  0  0  0  0  0  0
  -24.9414  -30.4791   13.3446 C   0  0  0  0  0  0  0  0  0  0  0  0
  -29.5988  -12.4886   18.2803 C   0  0  0  0  0  0  0  0  0  0  0  0
  -25.6974  -30.0997   14.6140 C   0  0  0  0  0  0  0  0  0  0  0  0
  -28.1663  -12.1638   18.7103 C   0  0  0  0  0  0  0  0  0  0  0  0
  -30.5054  -12.7521   19.4813 C   0  0  0  0  0  0  0  0  0  0  0  0
  -28.5778  -13.4395   20.8528 C   0  0  0  0  0  0  0  0  0  0  0  0
  -26.8596  -29.1495   14.3008 C   0  0  1  0  0  0  0  0  0  0  0  0
  -25.6202  -25.5758   14.6552 C   0  0  1  0  0  0  0  0  0  0  0  0
  -27.6120  -13.2303   19.6750 C   0  0  2  0  0  0  0  0  0  0  0  0
  -33.3541  -19.2654   21.4687 C   0  0  0  0  0  0  0  0  0  0  0  0
  -19.4275  -21.6232   17.1109 C   0  0  0  0  0  0  0  0  0  0  0  0
  -28.6753  -21.9948   27.6635 C   0  0  0  0  0  0  0  0  0  0  0  0
  -30.8646  -21.7382   26.4804 C   0  0  0  0  0  0  0  0  0  0  0  0
  -22.6471  -27.3817   17.6982 C   0  0  0  0  0  0  0  0  0  0  0  0
  -20.8690  -25.8242   18.5234 C   0  0  0  0  0  0  0  0  0  0  0  0
  -20.7400  -26.7478   16.2097 C   0  0  0  0  0  0  0  0  0  0  0  0
  -22.5186  -20.1835   15.4231 C   0  0  0  0  0  0  0  0  0  0  0  0
  -28.6863  -21.8841   25.1523 C   0  0  0  0  0  0  0  0  0  0  0  0
  -28.4878  -21.8598   22.6323 C   0  0  0  0  0  0  0  0  0  0  0  0
  -28.4576  -22.4384   20.1713 C   0  0  0  0  0  0  0  0  0  1  0  0
  -22.4737  -24.9878   16.7469 C   0  0  1  0  0  0  0  0  0  0  0  0
  -20.7038  -21.6675   16.2852 C   0  0  2  0  0  0  0  0  0  0  0  0
  -29.3757  -21.3912   26.4427 C   0  0  0  0  0  0  0  0  0  0  0  0
  -29.2946  -21.3498   23.8423 C   0  0  2  0  0  0  0  0  0  0  0  0
  -29.2831  -21.8587   21.3182 C   0  0  1  0  0  0  0  0  0  0  0  0
  -21.7095  -26.2268   17.2929 C   0  0  0  0  0  0  0  0  0  0  0  0
  -25.8655  -11.5987   20.2825 N   0  0  0  0  0  0  0  0  0  0  0  0
  -31.6511  -17.5538   21.4537 N   0  0  0  0  0  0  0  0  0  0  0  0
  -31.2916  -19.5970   22.6797 N   0  0  0  0  0  0  0  0  0  0  0  0
  -26.2093  -12.8904   20.1430 N   0  0  0  0  0  0  0  0  0  0  0  0
  -24.7108  -25.0869   15.6936 N   0  0  0  0  0  0  0  0  0  0  0  0
  -29.9183  -13.7760   20.3483 N   0  0  0  0  0  0  0  0  0  0  0  0
  -25.3850  -15.0994   20.3693 N   0  0  0  0  0  0  0  0  0  0  0  0
  -21.8631  -12.5441   21.5788 N   0  0  0  0  0  0  0  0  0  0  0  0
  -29.9733  -15.8675   21.4369 N   0  0  0  0  0  0  0  0  0  0  0  0
  -29.2761  -19.9010   23.8535 N   0  0  0  0  0  0  0  0  0  0  0  0
  -26.3690  -27.8054   14.0841 N   0  0  0  0  0  0  0  0  0  0  0  0
  -21.6096  -23.8888   16.3299 N   0  0  0  0  0  0  0  0  0  0  0  0
  -21.2720  -20.2912   16.2242 N   0  3  0  0  0  0  0  0  0  0  0  0
  -22.5836  -14.7006   21.2804 O   0  0  0  0  0  0  0  0  0  0  0  0
  -26.2880  -27.1230   16.3090 O   0  0  0  0  0  0  0  0  0  0  0  0
  -22.8079  -25.7714   14.5331 O   0  0  0  0  0  0  0  0  0  0  0  0
  -22.5152  -22.2987   17.7542 O   0  0  0  0  0  0  0  0  0  0  0  0
  -31.7711  -15.1457   20.1608 O   0  0  0  0  0  0  0  0  0  0  0  0
  -30.4673  -22.6413   21.4709 O   0  0  0  0  0  0  0  0  0  0  0  0
  -21.7338   -6.9769   21.7376 O   0  0  0  0  0  0  0  0  0  0  0  0
  -29.2182  -22.4198   18.9679 O   0  0  0  0  0  0  0  0  0  1  0  0
  -18.7394   -6.7833   26.3636 F   0  0  0  0  0  0  0  0  0  0  0  0
  -22.2308   -5.0632   23.6698 F   0  0  0  0  0  0  0  0  0  0  0  0
  1  2  1  0  0  0  0
  1  5  2  0  0  0  0
  2  6  2  0  0  0  0
  3  8  2  0  0  0  0
  3 16  1  0  0  0  0
  4  9  1  0  0  0  0
  4 16  2  0  0  0  0
  5 18  1  0  0  0  0
  6 20  1  0  0  0  0
  7 10  2  0  0  0  0
  7 19  1  0  0  0  0
  8 22  1  0  0  0  0
  9 22  2  0  0  0  0
 10 23  1  0  0  0  0
 11 12  2  0  0  0  0
 11 24  1  0  0  0  0
 12 25  1  0  0  0  0
 13 21  1  0  0  0  0
 13 23  2  0  0  0  0
 14 25  2  0  0  0  0
 14 26  1  0  0  0  0
 15 28  2  0  0  0  0
 15 29  1  0  0  0  0
 16 27  1  0  0  0  0
 17 27  1  0  0  0  0
 17 30  2  0  0  0  0
 17 32  1  0  0  0  0
 18 20  2  0  0  0  0
 18 37  1  0  0  0  0
 19 21  2  0  0  0  0
 19 38  1  0  0  0  0
 20 46  1  0  0  0  0
 21 39  1  0  0  0  0
 22 85  1  0  0  0  0
 23 86  1  0  0  0  0
 24 26  2  0  0  0  0
 24 85  1  0  0  0  0
 25 87  1  0  0  0  0
 26 88  1  0  0  0  0
 27 66  2  0  0  0  0
 28 67  1  0  0  0  0
 28 74  1  0  0  0  0
 29 68  2  0  0  0  0
 29 75  1  0  0  0  0
 30 69  1  0  0  0  0
 30 72  1  0  0  0  0
 31 49  1  0  0  0  0
 31 67  2  0  0  0  0
 31 68  1  0  0  0  0
 32 73  1  0  0  0  0
 32 79  2  0  0  0  0
 33 47  1  0  0  0  0
 33 76  1  0  0  0  0
 33 80  2  0  0  0  0
 34 60  1  0  0  0  0
 34 70  1  0  0  0  0
 34 81  2  0  0  0  0
 35 61  1  0  0  0  0
 35 77  1  0  0  0  0
 35 82  2  0  0  0  0
 36 71  1  0  0  0  0
 36 74  1  0  0  0  0
 36 83  2  0  0  0  0
 37 40  1  0  0  0  0
 38 47  1  0  0  0  0
 39 70  1  0  0  0  0
 40 42  1  0  0  0  0
 41 43  1  0  0  0  0
 41 44  1  0  0  0  0
 42 46  1  0  0  0  0
 43 48  1  0  0  0  0
 44 71  1  0  0  0  0
 45 48  1  0  0  0  0
 45 71  1  0  0  0  0
 46 76  1  0  0  0  0
 47 70  1  0  0  0  0
 48 69  1  0  0  0  0
 50 61  1  0  0  0  0
 51 62  1  0  0  0  0
 52 62  1  0  0  0  0
 53 65  1  0  0  0  0
 54 65  1  0  0  0  0
 55 65  1  0  0  0  0
 56 78  1  0  0  0  0
 57 62  1  0  0  0  0
 57 63  1  0  0  0  0
 58 63  1  0  0  0  0
 58 64  1  0  0  0  0
 59 64  1  0  0  0  0
 59 86  1  0  0  0  0
 60 65  1  0  0  0  0
 60 77  1  0  0  0  0
 61 78  1  0  0  0  0
 63 75  1  0  0  0  0
 64 84  1  0  0  0  0
 66 69  1  0  0  0  0
M  CHG  1  78   1
M  ISO  4  36 100  59 101  74 100  86 101
M  END
> <Batch ID>
0195

> <Smiles>
CNC(C)C(=O)NC(C(=O)N1Cc2cc([101O:1][101CH2:1]C(O)CC(CC(C)C)Nc3cc([100NH:0][100C:0](=O)N4CCCC(n5nc(-c6ccc(Oc7ccc(F)cc7F)cc6)c(C(N)=O)c5N)C4)nc(C)n3)ccc2CC1C(=O)NC1CCCc2ccccc21)C(C)(C)C

> <Shape>
0.203

> <Color>
0.190

> <Negative vol penalty>
0.000

$$$$

  -OEChem-04052305363D

 87 95  0     1  0  0  0  0  0999 V2000
  -31.6941  -29.5105   18.2834 C   0  0  0  0  0  0  0  0  0  0  0  0
  -30.8805  -29.1991   19.3681 C   0  0  0  0  0  0  0  0  0  0  0  0
  -23.0762   -9.8637   19.9428 C   0  0  0  0  0  0  0  0  0  0  0  0
  -23.8356   -9.8753   22.2363 C   0  0  0  0  0  0  0  0  0  0  0  0
  -32.7050  -28.6317   17.8967 C   0  0  0  0  0  0  0  0  0  0  0  0
  -31.0769  -28.0080   20.0661 C   0  0  0  0  0  0  0  0  0  0  0  0
  -30.5778  -25.2546   26.6605 C   0  0  0  0  0  0  0  0  0  0  0  0
  -22.3335   -8.7102   20.1946 C   0  0  0  0  0  0  0  0  0  0  0  0
  -23.0929   -8.7218   22.4881 C   0  0  0  0  0  0  0  0  0  0  0  0
  -30.0082  -24.1771   27.3375 C   0  0  0  0  0  0  0  0  0  0  0  0
  -19.8654   -7.9216   23.0913 C   0  0  0  0  0  0  0  0  0  0  0  0
  -19.1083   -7.8829   24.2621 C   0  0  0  0  0  0  0  0  0  0  0  0
  -31.8368  -22.7726   26.6285 C   0  0  0  0  0  0  0  0  0  0  0  0
  -20.3515   -5.9480   25.0021 C   0  0  0  0  0  0  0  0  0  0  0  0
  -31.4972  -19.3387   22.7130 C   0  0  0  0  0  0  0  0  0  0  0  0
  -23.8274  -10.4462   20.9637 C   0  0  0  0  0  0  0  0  0  0  0  0
  -24.1666  -12.9715   20.8395 C   0  0  0  0  0  0  0  0  0  0  0  0
  -32.9201  -27.4338   18.5963 C   0  0  0  0  0  0  0  0  0  0  0  0
  -31.7776  -25.0961   25.9521 C   0  0  0  0  0  0  0  0  0  0  0  0
  -32.0908  -27.1117   19.6876 C   0  0  0  0  0  0  0  0  0  0  0  0
  -32.4209  -23.8502   25.9454 C   0  0  0  0  0  0  0  0  0  0  0  0
  -22.3418   -8.1392   21.4672 C   0  0  0  0  0  0  0  0  0  0  0  0
  -30.6362  -22.9352   27.3192 C   0  0  0  0  0  0  0  0  0  0  0  0
  -20.8656   -6.9735   22.8758 C   0  0  0  0  0  0  0  0  0  0  0  0
  -19.3513   -6.8961   25.2175 C   0  0  0  0  0  0  0  0  0  0  0  0
  -21.1087   -5.9867   23.8312 C   0  0  0  0  0  0  0  0  0  0  0  0
  -24.5952  -11.6375   20.7041 C   0  0  0  0  0  0  0  0  0  0  0  0
  -32.2334  -18.5011   21.9001 C   0  0  0  0  0  0  0  0  0  0  0  0
  -30.2512  -18.8720   23.0789 C   0  0  0  0  0  0  0  0  0  0  0  0
  -25.2580  -13.7215   20.4752 C   0  0  0  0  0  0  0  0  0  0  0  0
  -30.5660  -16.9562   21.8967 C   0  0  0  0  0  0  0  0  0  0  0  0
  -22.8955  -13.4867   21.2573 C   0  0  0  0  0  0  0  0  0  0  0  0
  -32.6378  -25.3794   22.9052 C   0  0  0  0  0  0  0  0  0  0  0  0
  -35.6106  -24.8797   24.1030 C   0  0  0  0  0  0  0  0  0  0  0  0
  -37.5496  -23.5986   26.6023 C   0  0  0  0  0  0  0  0  0  0  0  0
  -30.7231  -14.7731   20.6493 C   0  0  0  0  0  0  0  0  0  0  0  0
  -33.9948  -26.4931   18.1119 C   0  0  0  0  0  0  0  0  0  0  0  0
  -32.3930  -26.2749   25.2492 C   0  0  0  0  0  0  0  0  0  0  0  0
  -33.7210  -23.6329   25.2167 C   0  0  0  0  0  0  0  0  0  0  0  0
  -34.3791  -25.4283   19.1360 C   0  0  0  0  0  0  0  0  0  0  0  0
  -29.6117  -12.3542   18.2849 C   0  0  0  0  0  0  0  0  0  0  0  0
  -33.1306  -24.7963   19.7431 C   0  0  0  0  0  0  0  0  0  0  0  0
  -28.1723  -12.0618   18.7146 C   0  0  0  0  0  0  0  0  0  0  0  0
  -30.5263  -12.5859   19.4863 C   0  0  0  0  0  0  0  0  0  0  0  0
  -28.6183  -13.3107   20.8660 C   0  0  0  0  0  0  0  0  0  0  0  0
  -32.2886  -25.8410   20.4853 C   0  0  1  0  0  0  0  0  0  0  0  0
  -33.3512  -25.8714   24.1327 C   0  0  1  0  0  0  0  0  0  0  0  0
  -27.6459  -13.1345   19.6882 C   0  0  2  0  0  0  0  0  0  0  0  0
  -33.5934  -18.9197   21.4519 C   0  0  0  0  0  0  0  0  0  0  0  0
  -27.0848  -21.0465   22.8120 C   0  0  0  0  0  0  0  0  0  0  0  0
  -39.9474  -23.3090   27.2835 C   0  0  0  0  0  0  0  0  0  0  0  0
  -35.9098  -22.6163   22.0788 C   0  0  0  0  0  0  0  0  0  0  0  0
  -37.8600  -21.7795   23.4073 C   0  0  0  0  0  0  0  0  0  0  0  0
  -37.9458  -24.0414   22.3587 C   0  0  0  0  0  0  0  0  0  0  0  0
  -37.1656  -25.2008   29.0609 C   0  0  0  0  0  0  0  0  0  0  0  0
  -27.1373  -19.5836   23.2349 C   0  0  0  0  0  0  0  0  0  0  0  0
  -27.8042  -20.1490   25.6051 C   0  0  0  0  0  0  0  0  0  0  0  0
  -28.4666  -19.6017   26.8742 C   0  0  0  0  0  0  0  0  0  0  0  0
  -28.6599  -21.8639   28.0955 C   0  0  0  0  0  0  0  0  0  1  0  0
  -36.4643  -23.6641   24.3724 C   0  0  1  0  0  0  0  0  0  0  0  0
  -38.7117  -24.1903   27.3794 C   0  0  2  0  0  0  0  0  0  0  0  0
  -28.1554  -19.3242   24.3552 C   0  0  2  0  0  0  0  0  0  0  0  0
  -28.1481  -20.4248   28.1286 C   0  0  2  0  0  0  0  0  0  0  0  0
  -37.0195  -23.0286   23.0665 C   0  0  0  0  0  0  0  0  0  0  0  0
  -25.8603  -11.5422   20.2863 N   0  0  0  0  0  0  0  0  0  0  0  0
  -31.7970  -17.2985   21.4714 N   0  0  0  0  0  0  0  0  0  0  0  0
  -29.7520  -17.6813   22.6874 N   0  0  0  0  0  0  0  0  0  0  0  0
  -26.2359  -12.8260   20.1559 N   0  0  0  0  0  0  0  0  0  0  0  0
  -34.2797  -24.8146   24.5392 N   0  0  0  0  0  0  0  0  0  0  0  0
  -29.9661  -13.6177   20.3619 N   0  0  0  0  0  0  0  0  0  0  0  0
  -25.4670  -15.0531   20.4000 N   0  0  0  0  0  0  0  0  0  0  0  0
  -21.8844  -12.5770   21.5959 N   0  0  0  0  0  0  0  0  0  0  0  0
  -29.4819  -19.6821   23.8934 N   0  0  0  0  0  0  0  0  0  0  0  0
  -30.0746  -15.6989   21.4660 N   0  0  0  0  0  0  0  0  0  0  0  0
  -32.8741  -26.1385   21.7750 N   0  0  0  0  0  0  0  0  0  0  0  0
  -37.4938  -24.0890   25.3148 N   0  0  0  0  0  0  0  0  0  0  0  0
  -38.3509  -24.3388   28.8177 N   0  3  0  0  0  0  0  0  0  0  0  0
  -22.6579  -14.7172   21.3125 O   0  0  0  0  0  0  0  0  0  0  0  0
  -31.9268  -24.3840   22.9778 O   0  0  0  0  0  0  0  0  0  0  0  0
  -36.1084  -25.8540   23.5332 O   0  0  0  0  0  0  0  0  0  0  0  0
  -36.7715  -22.7804   27.0876 O   0  0  0  0  0  0  0  0  0  0  0  0
  -31.8521  -14.9422   20.1817 O   0  0  0  0  0  0  0  0  0  0  0  0
  -28.7426  -19.7505   29.2402 O   0  0  0  0  0  0  0  0  0  0  0  0
  -21.6170   -7.0138   21.7133 O   0  0  0  0  0  0  0  0  0  0  0  0
  -30.0820  -21.8817   27.9786 O   0  0  0  0  0  0  0  0  0  1  0  0
  -18.6252   -6.8599   26.3425 F   0  0  0  0  0  0  0  0  0  0  0  0
  -22.0690   -5.0739   23.6303 F   0  0  0  0  0  0  0  0  0  0  0  0
  1  2  1  0  0  0  0
  1  5  2  0  0  0  0
  2  6  2  0  0  0  0
  3  8  2  0  0  0  0
  3 16  1  0  0  0  0
  4  9  1  0  0  0  0
  4 16  2  0  0  0  0
  5 18  1  0  0  0  0
  6 20  1  0  0  0  0
  7 10  2  0  0  0  0
  7 19  1  0  0  0  0
  8 22  1  0  0  0  0
  9 22  2  0  0  0  0
 10 23  1  0  0  0  0
 11 12  2  0  0  0  0
 11 24  1  0  0  0  0
 12 25  1  0  0  0  0
 13 21  1  0  0  0  0
 13 23  2  0  0  0  0
 14 25  2  0  0  0  0
 14 26  1  0  0  0  0
 15 28  2  0  0  0  0
 15 29  1  0  0  0  0
 16 27  1  0  0  0  0
 17 27  1  0  0  0  0
 17 30  2  0  0  0  0
 17 32  1  0  0  0  0
 18 20  2  0  0  0  0
 18 37  1  0  0  0  0
 19 21  2  0  0  0  0
 19 38  1  0  0  0  0
 20 46  1  0  0  0  0
 21 39  1  0  0  0  0
 22 84  1  0  0  0  0
 23 85  1  0  0  0  0
 24 26  2  0  0  0  0
 24 84  1  0  0  0  0
 25 86  1  0  0  0  0
 26 87  1  0  0  0  0
 27 65  2  0  0  0  0
 28 49  1  0  0  0  0
 28 66  1  0  0  0  0
 29 67  2  0  0  0  0
 29 73  1  0  0  0  0
 30 68  1  0  0  0  0
 30 71  1  0  0  0  0
 31 66  2  0  0  0  0
 31 67  1  0  0  0  0
 31 74  1  0  0  0  0
 32 72  1  0  0  0  0
 32 78  2  0  0  0  0
 33 47  1  0  0  0  0
 33 75  1  0  0  0  0
 33 79  2  0  0  0  0
 34 60  1  0  0  0  0
 34 69  1  0  0  0  0
 34 80  2  0  0  0  0
 35 61  1  0  0  0  0
 35 76  1  0  0  0  0
 35 81  2  0  0  0  0
 36 70  1  0  0  0  0
 36 74  1  0  0  0  0
 36 82  2  0  0  0  0
 37 40  1  0  0  0  0
 38 47  1  0  0  0  0
 39 69  1  0  0  0  0
 40 42  1  0  0  0  0
 41 43  1  0  0  0  0
 41 44  1  0  0  0  0
 42 46  1  0  0  0  0
 43 48  1  0  0  0  0
 44 70  1  0  0  0  0
 45 48  1  0  0  0  0
 45 70  1  0  0  0  0
 46 75  1  0  0  0  0
 47 69  1  0  0  0  0
 48 68  1  0  0  0  0
 50 56  1  0  0  0  0
 51 61  1  0  0  0  0
 52 64  1  0  0  0  0
 53 64  1  0  0  0  0
 54 64  1  0  0  0  0
 55 77  1  0  0  0  0
 56 62  1  0  0  0  0
 57 58  1  0  0  0  0
 57 62  1  0  0  0  0
 58 63  1  0  0  0  0
 59 63  1  0  0  0  0
 59 85  1  0  0  0  0
 60 64  1  0  0  0  0
 60 76  1  0  0  0  0
 61 77  1  0  0  0  0
 62 73  1  0  0  0  0
 63 83  1  0  0  0  0
 65 68  1  0  0  0  0
M  CHG  1  77   1
M  ISO  4  36 100  59 101  74 100  85 101
M  END
> <Batch ID>
0195

> <Smiles>
CCC(CCC(O)[101CH2:1][101O:1]c1ccc2c(c1)CN(C(=O)C(NC(=O)C(C)NC)C(C)(C)C)C(C(=O)NC1CCCc3ccccc31)C2)Nc1cc(C)nc([100NH:0][100C:0](=O)N2CCCC(n3nc(-c4ccc(Oc5ccc(F)cc5F)cc4)c(C(N)=O)c3N)C2)n1

> <Shape>
0.184

> <Color>
0.177

> <Negative vol penalty>
0.000

$$$$

  -OEChem-04052305363D

 84 92  0     1  0  0  0  0  0999 V2000
  -32.2193  -11.9137   13.6878 C   0  0  0  0  0  0  0  0  0  0  0  0
  -31.3591  -11.6568   14.7506 C   0  0  0  0  0  0  0  0  0  0  0  0
  -26.1805  -25.7921   17.4637 C   0  0  0  0  0  0  0  0  0  0  0  0
  -26.3774  -25.5119   19.8553 C   0  0  0  0  0  0  0  0  0  0  0  0
  -33.3065  -12.7687   13.8634 C   0  0  0  0  0  0  0  0  0  0  0  0
  -31.5864  -12.2539   15.9900 C   0  0  0  0  0  0  0  0  0  0  0  0
  -27.3539  -14.1169   18.0541 C   0  0  0  0  0  0  0  0  0  0  0  0
  -26.1894  -27.1775   17.6252 C   0  0  0  0  0  0  0  0  0  0  0  0
  -26.3863  -26.8973   20.0168 C   0  0  0  0  0  0  0  0  0  0  0  0
  -26.4870  -13.2079   18.6590 C   0  0  0  0  0  0  0  0  0  0  0  0
  -26.0987  -30.3579   21.0901 C   0  0  0  0  0  0  0  0  0  0  0  0
  -25.3052  -30.8977   22.1022 C   0  0  0  0  0  0  0  0  0  0  0  0
  -27.3680  -13.8157   20.8209 C   0  0  0  0  0  0  0  0  0  0  0  0
  -23.3380  -29.9574   21.0614 C   0  0  0  0  0  0  0  0  0  0  0  0
  -22.4145  -14.7441   22.7137 C   0  0  0  0  0  0  0  0  0  0  0  0
  -26.2745  -24.9592   18.5787 C   0  0  0  0  0  0  0  0  0  0  0  0
  -27.3774  -22.6867   18.2226 C   0  0  0  0  0  0  0  0  0  0  0  0
  -33.5416  -13.3842   15.1029 C   0  0  0  0  0  0  0  0  0  0  0  0
  -28.2435  -14.8755   18.8284 C   0  0  0  0  0  0  0  0  0  0  0  0
  -32.6785  -13.1169   16.1827 C   0  0  0  0  0  0  0  0  0  0  0  0
  -28.2433  -14.7355   20.2236 C   0  0  0  0  0  0  0  0  0  0  0  0
  -26.2923  -27.7301   18.9018 C   0  0  0  0  0  0  0  0  0  0  0  0
  -26.4959  -13.0551   20.0424 C   0  0  0  0  0  0  0  0  0  0  0  0
  -25.5120  -29.6179   20.0635 C   0  0  0  0  0  0  0  0  0  0  0  0
  -23.9249  -30.6975   22.0879 C   0  0  0  0  0  0  0  0  0  0  0  0
  -24.1316  -29.4177   20.0492 C   0  0  0  0  0  0  0  0  0  0  0  0
  -26.2648  -23.5280   18.4125 C   0  0  0  0  0  0  0  0  0  0  0  0
  -21.1267  -16.0606   21.3580 C   0  0  0  0  0  0  0  0  0  0  0  0
  -22.4804  -13.7888   21.7235 C   0  0  0  0  0  0  0  0  0  0  0  0
  -21.1932  -15.1057   20.3674 C   0  0  0  0  0  0  0  0  0  0  0  0
  -26.8413  -21.4264   18.1199 C   0  0  0  0  0  0  0  0  0  0  0  0
  -28.7710  -23.0152   18.1459 C   0  0  0  0  0  0  0  0  0  0  0  0
  -31.4070  -15.1248   19.0119 C   0  0  0  0  0  0  0  0  0  0  0  0
  -30.7076  -17.5368   21.0652 C   0  0  0  0  0  0  0  0  0  0  0  0
  -28.4766  -18.9418   23.2320 C   0  0  0  0  0  0  0  0  0  0  0  0
  -21.8388  -19.0969   20.2185 C   0  0  0  0  0  0  0  0  0  0  0  0
  -34.7570  -14.2638   15.2578 C   0  0  0  0  0  0  0  0  0  0  0  0
  -29.1535  -15.8711   18.1628 C   0  0  0  0  0  0  0  0  0  0  0  0
  -29.1648  -15.5409   21.1015 C   0  0  0  0  0  0  0  0  0  0  0  0
  -34.7128  -15.1506   16.4995 C   0  0  0  0  0  0  0  0  0  0  0  0
  -22.8610  -19.1503   16.7472 C   0  0  0  0  0  0  0  0  0  0  0  0
  -34.2872  -14.3400   17.7196 C   0  0  0  0  0  0  0  0  0  0  0  0
  -23.9645  -20.2095   16.7714 C   0  0  0  0  0  0  0  0  0  0  0  0
  -21.7189  -19.5204   17.6889 C   0  0  0  0  0  0  0  0  0  0  0  0
  -23.2398  -20.8240   19.1245 C   0  0  0  0  0  0  0  0  0  0  0  0
  -32.8776  -13.7652   17.5356 C   0  0  1  0  0  0  0  0  0  0  0  0
  -30.3769  -16.2187   19.0053 C   0  0  1  0  0  0  0  0  0  0  0  0
  -24.4341  -20.4968   18.2098 C   0  0  2  0  0  0  0  0  0  0  0  0
  -28.2025  -20.8910   24.7885 C   0  0  0  0  0  0  0  0  0  0  0  0
  -23.7081  -10.2797   21.7597 C   0  0  0  0  0  0  0  0  0  0  0  0
  -32.5260  -16.1670   23.0967 C   0  0  0  0  0  0  0  0  0  0  0  0
  -31.4866  -17.5852   24.8790 C   0  0  0  0  0  0  0  0  0  0  0  0
  -32.7463  -18.6567   23.0114 C   0  0  0  0  0  0  0  0  0  0  0  0
  -20.9967  -14.8034   17.8985 C   0  0  0  0  0  0  0  0  0  0  0  0
  -26.1542  -19.9749   21.7159 C   0  0  0  0  0  0  0  0  0  0  0  0
  -20.3747  -17.3351   21.1721 C   0  0  0  0  0  0  0  0  0  0  0  0
  -24.4045  -11.9243   19.9853 C   0  0  0  0  0  0  0  0  0  1  0  0
  -30.4769  -17.6408   22.5534 C   0  0  1  0  0  0  0  0  0  0  0  0
  -27.9761  -20.3675   23.3788 C   0  0  2  0  0  0  0  0  0  0  0  0
  -23.3384  -11.5556   21.0147 C   0  0  2  0  0  0  0  0  0  0  0  0
  -31.7928  -17.4957   23.3687 C   0  0  0  0  0  0  0  0  0  0  0  0
  -21.7364  -15.8971   22.5488 N   0  0  0  0  0  0  0  0  0  0  0  0
  -25.1092  -22.8586   18.4297 N   0  0  0  0  0  0  0  0  0  0  0  0
  -21.8710  -13.9525   20.5326 N   0  0  0  0  0  0  0  0  0  0  0  0
  -25.4927  -21.5833   18.2492 N   0  0  0  0  0  0  0  0  0  0  0  0
  -30.0402  -16.4966   20.4031 N   0  0  0  0  0  0  0  0  0  0  0  0
  -22.2306  -19.7626   19.0452 N   0  0  0  0  0  0  0  0  0  0  0  0
  -27.3967  -20.2103   17.9325 N   0  0  0  0  0  0  0  0  0  0  0  0
  -29.1486  -24.3590   18.2715 N   0  0  0  0  0  0  0  0  0  0  0  0
  -20.5323  -15.3367   19.1400 N   0  0  0  0  0  0  0  0  0  0  0  0
  -23.1969  -12.6329   21.9737 N   0  0  0  0  0  0  0  0  0  0  0  0
  -31.8807  -14.7905   17.7576 N   0  0  0  0  0  0  0  0  0  0  0  0
  -29.7753  -18.9014   22.7706 N   0  0  0  0  0  0  0  0  0  0  0  0
  -20.8737  -18.1103   20.0580 N   0  0  0  0  0  0  0  0  0  0  0  0
  -26.5178  -20.4379   23.0798 N   0  3  0  0  0  0  0  0  0  0  0  0
  -29.6538  -22.1447   17.9548 O   0  0  0  0  0  0  0  0  0  0  0  0
  -31.7479  -14.6224   20.0764 O   0  0  0  0  0  0  0  0  0  0  0  0
  -31.4470  -18.3529   20.5094 O   0  0  0  0  0  0  0  0  0  0  0  0
  -27.7858  -17.9621   23.5032 O   0  0  0  0  0  0  0  0  0  0  0  0
  -22.3179  -19.3586   21.3271 O   0  0  0  0  0  0  0  0  0  0  0  0
  -26.3013  -29.0820   19.0598 O   0  0  0  0  0  0  0  0  0  0  0  0
  -25.6513  -12.1681   20.6354 O   0  0  0  0  0  0  0  0  0  1  0  0
  -23.1631  -31.2146   23.0608 F   0  0  0  0  0  0  0  0  0  0  0  0
  -23.5623  -28.7067   19.0662 F   0  0  0  0  0  0  0  0  0  0  0  0
  1  2  1  0  0  0  0
  1  5  2  0  0  0  0
  2  6  2  0  0  0  0
  3  8  2  0  0  0  0
  3 16  1  0  0  0  0
  4  9  1  0  0  0  0
  4 16  2  0  0  0  0
  5 18  1  0  0  0  0
  6 20  1  0  0  0  0
  7 10  2  0  0  0  0
  7 19  1  0  0  0  0
  8 22  1  0  0  0  0
  9 22  2  0  0  0  0
 10 23  1  0  0  0  0
 11 12  2  0  0  0  0
 11 24  1  0  0  0  0
 12 25  1  0  0  0  0
 13 21  1  0  0  0  0
 13 23  2  0  0  0  0
 14 25  2  0  0  0  0
 14 26  1  0  0  0  0
 15 29  1  0  0  0  0
 15 62  2  0  0  0  0
 16 27  1  0  0  0  0
 17 27  1  0  0  0  0
 17 31  2  0  0  0  0
 17 32  1  0  0  0  0
 18 20  2  0  0  0  0
 18 37  1  0  0  0  0
 19 21  2  0  0  0  0
 19 38  1  0  0  0  0
 20 46  1  0  0  0  0
 21 39  1  0  0  0  0
 22 81  1  0  0  0  0
 23 82  1  0  0  0  0
 24 26  2  0  0  0  0
 24 81  1  0  0  0  0
 25 83  1  0  0  0  0
 26 84  1  0  0  0  0
 27 63  2  0  0  0  0
 28 30  2  0  0  0  0
 28 56  1  0  0  0  0
 28 62  1  0  0  0  0
 29 64  2  0  0  0  0
 29 71  1  0  0  0  0
 30 64  1  0  0  0  0
 30 70  1  0  0  0  0
 31 65  1  0  0  0  0
 31 68  1  0  0  0  0
 32 69  1  0  0  0  0
 32 76  2  0  0  0  0
 33 47  1  0  0  0  0
 33 72  1  0  0  0  0
 33 77  2  0  0  0  0
 34 58  1  0  0  0  0
 34 66  1  0  0  0  0
 34 78  2  0  0  0  0
 35 59  1  0  0  0  0
 35 73  1  0  0  0  0
 35 79  2  0  0  0  0
 36 67  1  0  0  0  0
 36 74  1  0  0  0  0
 36 80  2  0  0  0  0
 37 40  1  0  0  0  0
 38 47  1  0  0  0  0
 39 66  1  0  0  0  0
 40 42  1  0  0  0  0
 41 43  1  0  0  0  0
 41 44  1  0  0  0  0
 42 46  1  0  0  0  0
 43 48  1  0  0  0  0
 44 67  1  0  0  0  0
 45 48  1  0  0  0  0
 45 67  1  0  0  0  0
 46 72  1  0  0  0  0
 47 66  1  0  0  0  0
 48 65  1  0  0  0  0
 49 59  1  0  0  0  0
 50 60  1  0  0  0  0
 51 61  1  0  0  0  0
 52 61  1  0  0  0  0
 53 61  1  0  0  0  0
 54 70  1  0  0  0  0
 55 75  1  0  0  0  0
 56 74  1  0  0  0  0
 57 60  1  0  0  0  0
 57 82  1  0  0  0  0
 58 61  1  0  0  0  0
 58 73  1  0  0  0  0
 59 75  1  0  0  0  0
 60 71  1  0  0  0  0
 63 65  1  0  0  0  0
M  CHG  1  75   1
M  ISO  4  36 100  57 101  74 100  82 101
M  END
> <Batch ID>
0195

> <Smiles>
CNc1nc(NC(C)[101CH2:1][101O:1]c2ccc3c(c2)CN(C(=O)C(NC(=O)C(C)NC)C(C)(C)C)C(C(=O)NC2CCCc4ccccc42)C3)cnc1C[100NH:0][100C:0](=O)N1CCCC(n2nc(-c3ccc(Oc4ccc(F)cc4F)cc3)c(C(N)=O)c2N)C1

> <Shape>
0.177

> <Color>
0.070

> <Negative vol penalty>
0.000

$$$$

  -OEChem-04052305363D

 85 93  0     1  0  0  0  0  0999 V2000
  -18.1216  -32.6351   21.6843 C   0  0  0  0  0  0  0  0  0  0  0  0
  -19.4540  -32.6306   21.2842 C   0  0  0  0  0  0  0  0  0  0  0  0
  -23.8549  -14.0228   18.4800 C   0  0  0  0  0  0  0  0  0  0  0  0
  -25.1124  -15.2399   20.1457 C   0  0  0  0  0  0  0  0  0  0  0  0
  -17.6870  -31.7468   22.6671 C   0  0  0  0  0  0  0  0  0  0  0  0
  -20.3529  -31.7384   21.8675 C   0  0  0  0  0  0  0  0  0  0  0  0
  -25.0932  -28.9794   19.1428 C   0  0  0  0  0  0  0  0  0  0  0  0
  -24.2154  -12.8198   19.0869 C   0  0  0  0  0  0  0  0  0  0  0  0
  -25.4728  -14.0368   20.7526 C   0  0  0  0  0  0  0  0  0  0  0  0
  -26.4576  -29.2650   19.1191 C   0  0  0  0  0  0  0  0  0  0  0  0
  -24.5078   -9.4459   20.4084 C   0  0  0  0  0  0  0  0  0  0  0  0
  -23.5106   -8.4882   20.5928 C   0  0  0  0  0  0  0  0  0  0  0  0
  -26.8111  -27.6953   20.9164 C   0  0  0  0  0  0  0  0  0  0  0  0
  -22.2688  -10.0448   21.9610 C   0  0  0  0  0  0  0  0  0  0  0  0
  -30.0160  -24.0955   16.5374 C   0  0  0  0  0  0  0  0  0  0  0  0
  -24.3034  -15.2329   19.0094 C   0  0  0  0  0  0  0  0  0  0  0  0
  -22.7992  -17.2638   18.6624 C   0  0  0  0  0  0  0  0  0  0  0  0
  -18.5790  -30.8366   23.2558 C   0  0  0  0  0  0  0  0  0  0  0  0
  -24.5750  -28.0562   20.0623 C   0  0  0  0  0  0  0  0  0  0  0  0
  -19.9302  -30.8379   22.8600 C   0  0  0  0  0  0  0  0  0  0  0  0
  -25.4401  -27.3979   20.9480 C   0  0  0  0  0  0  0  0  0  0  0  0
  -25.0243  -12.8268   20.2232 C   0  0  0  0  0  0  0  0  0  0  0  0
  -27.3164  -28.6251   20.0079 C   0  0  0  0  0  0  0  0  0  0  0  0
  -24.3856  -10.7030   21.0004 C   0  0  0  0  0  0  0  0  0  0  0  0
  -22.3911   -8.7877   21.3691 C   0  0  0  0  0  0  0  0  0  0  0  0
  -23.2660  -11.0025   21.7767 C   0  0  0  0  0  0  0  0  0  0  0  0
  -23.9319  -16.4760   18.3827 C   0  0  0  0  0  0  0  0  0  0  0  0
  -28.9585  -22.3500   18.2586 C   0  0  0  0  0  0  0  0  0  0  0  0
  -30.2588  -24.1948   17.8897 C   0  0  0  0  0  0  0  0  0  0  0  0
  -28.7152  -22.2512   16.9063 C   0  0  0  0  0  0  0  0  0  0  0  0
  -22.9034  -18.3316   17.8048 C   0  0  0  0  0  0  0  0  0  0  0  0
  -21.7471  -17.0496   19.6125 C   0  0  0  0  0  0  0  0  0  0  0  0
  -22.4908  -28.2046   22.4577 C   0  0  0  0  0  0  0  0  0  0  0  0
  -22.9126  -24.9888   22.5087 C   0  0  0  0  0  0  0  0  0  0  0  0
  -24.9015  -22.3155   21.7706 C   0  0  0  0  0  0  0  0  0  0  0  0
  -27.5387  -20.9541   15.0953 C   0  0  0  0  0  0  0  0  0  0  0  0
  -18.0732  -29.9277   24.3479 C   0  0  0  0  0  0  0  0  0  0  0  0
  -23.1046  -27.7394   20.0571 C   0  0  0  0  0  0  0  0  0  0  0  0
  -24.9369  -26.3835   21.9411 C   0  0  0  0  0  0  0  0  0  0  0  0
  -19.0075  -28.7587   24.6489 C   0  0  0  0  0  0  0  0  0  0  0  0
  -24.6766  -19.5360   13.5223 C   0  0  0  0  0  0  0  0  0  0  0  0
  -20.4489  -29.2439   24.7668 C   0  0  0  0  0  0  0  0  0  0  0  0
  -24.0543  -18.6668   14.6175 C   0  0  0  0  0  0  0  0  0  0  0  0
  -26.2031  -19.5102   13.5767 C   0  0  0  0  0  0  0  0  0  0  0  0
  -26.1611  -18.9704   15.9800 C   0  0  0  0  0  0  0  0  0  0  0  0
  -20.9302  -29.8682   23.4515 C   0  0  1  0  0  0  0  0  0  0  0  0
  -22.6128  -27.1633   21.3814 C   0  0  1  0  0  0  0  0  0  0  0  0
  -24.6246  -19.0161   16.0062 C   0  0  2  0  0  0  0  0  0  0  0  0
  -28.3771  -21.3839   19.2349 C   0  0  0  0  0  0  0  0  0  0  0  0
  -25.5729  -19.9099   21.5265 C   0  0  0  0  0  0  0  0  0  0  0  0
  -32.4691  -24.4305   20.1381 C   0  0  0  0  0  0  0  0  0  0  0  0
  -23.5679  -25.2475   25.4774 C   0  0  0  0  0  0  0  0  0  0  0  0
  -24.5534  -22.9477   25.3890 C   0  0  0  0  0  0  0  0  0  0  0  0
  -22.1320  -23.2850   24.8933 C   0  0  0  0  0  0  0  0  0  0  0  0
  -23.7740  -22.1574   19.0388 C   0  0  0  0  0  0  0  0  0  0  0  0
  -31.8851  -26.8736   19.9483 C   0  0  0  0  0  0  0  0  0  0  0  0
  -29.5361  -27.8549   20.3764 C   0  0  0  0  0  0  0  0  0  1  0  0
  -23.8593  -24.0457   23.2110 C   0  0  1  0  0  0  0  0  0  0  0  0
  -24.5996  -20.9933   21.0886 C   0  0  2  0  0  0  0  0  0  0  0  0
  -31.3958  -25.4360   19.7315 C   0  0  1  0  0  0  0  0  0  0  0  0
  -30.8536  -27.9631   19.6124 C   0  0  1  0  0  0  0  0  0  0  0  0
  -23.5377  -23.9020   24.7254 C   0  0  0  0  0  0  0  0  0  0  0  0
  -29.2398  -23.1219   16.0214 N   0  0  0  0  0  0  0  0  0  0  0  0
  -24.6991  -16.9986   17.4223 N   0  0  0  0  0  0  0  0  0  0  0  0
  -29.7344  -23.3238   18.7745 N   0  0  0  0  0  0  0  0  0  0  0  0
  -24.0473  -18.1262   17.0911 N   0  0  0  0  0  0  0  0  0  0  0  0
  -23.4903  -26.1126   21.9013 N   0  0  0  0  0  0  0  0  0  0  0  0
  -26.6711  -19.8552   14.9208 N   0  0  0  0  0  0  0  0  0  0  0  0
  -22.1271  -19.4167   17.5990 N   0  0  0  0  0  0  0  0  0  0  0  0
  -21.7946  -15.9013   20.4146 N   0  0  0  0  0  0  0  0  0  0  0  0
  -27.8906  -21.2062   16.4209 N   0  0  0  0  0  0  0  0  0  0  0  0
  -31.0677  -25.2241   18.3375 N   0  0  0  0  0  0  0  0  0  0  0  0
  -21.2619  -28.8354   22.4935 N   0  0  0  0  0  0  0  0  0  0  0  0
  -23.8113  -22.7909   22.4683 N   0  0  0  0  0  0  0  0  0  0  0  0
  -24.6946  -21.1402   19.6087 N   0  3  0  0  0  0  0  0  0  0  0  0
  -20.7843  -17.8445   19.7349 O   0  0  0  0  0  0  0  0  0  0  0  0
  -23.4408  -28.4188   23.2016 O   0  0  0  0  0  0  0  0  0  0  0  0
  -21.7057  -24.7338   22.4933 O   0  0  0  0  0  0  0  0  0  0  0  0
  -25.9961  -22.8692   21.6952 O   0  0  0  0  0  0  0  0  0  0  0  0
  -27.9182  -21.6390   14.1420 O   0  0  0  0  0  0  0  0  0  0  0  0
  -31.4292  -29.2354   19.9224 O   0  0  0  0  0  0  0  0  0  0  0  0
  -25.3761  -11.6530   20.8158 O   0  0  0  0  0  0  0  0  0  0  0  0
  -28.6485  -28.9024   19.9874 O   0  0  0  0  0  0  0  0  0  1  0  0
  -21.4328   -7.8684   21.5448 F   0  0  0  0  0  0  0  0  0  0  0  0
  -23.1424  -12.2089   22.3469 F   0  0  0  0  0  0  0  0  0  0  0  0
  1  2  1  0  0  0  0
  1  5  2  0  0  0  0
  2  6  2  0  0  0  0
  3  8  2  0  0  0  0
  3 16  1  0  0  0  0
  4  9  1  0  0  0  0
  4 16  2  0  0  0  0
  5 18  1  0  0  0  0
  6 20  1  0  0  0  0
  7 10  2  0  0  0  0
  7 19  1  0  0  0  0
  8 22  1  0  0  0  0
  9 22  2  0  0  0  0
 10 23  1  0  0  0  0
 11 12  2  0  0  0  0
 11 24  1  0  0  0  0
 12 25  1  0  0  0  0
 13 21  1  0  0  0  0
 13 23  2  0  0  0  0
 14 25  2  0  0  0  0
 14 26  1  0  0  0  0
 15 29  1  0  0  0  0
 15 63  2  0  0  0  0
 16 27  1  0  0  0  0
 17 27  1  0  0  0  0
 17 31  2  0  0  0  0
 17 32  1  0  0  0  0
 18 20  2  0  0  0  0
 18 37  1  0  0  0  0
 19 21  2  0  0  0  0
 19 38  1  0  0  0  0
 20 46  1  0  0  0  0
 21 39  1  0  0  0  0
 22 82  1  0  0  0  0
 23 83  1  0  0  0  0
 24 26  2  0  0  0  0
 24 82  1  0  0  0  0
 25 84  1  0  0  0  0
 26 85  1  0  0  0  0
 27 64  2  0  0  0  0
 28 30  2  0  0  0  0
 28 49  1  0  0  0  0
 28 65  1  0  0  0  0
 29 65  2  0  0  0  0
 29 72  1  0  0  0  0
 30 63  1  0  0  0  0
 30 71  1  0  0  0  0
 31 66  1  0  0  0  0
 31 69  1  0  0  0  0
 32 70  1  0  0  0  0
 32 76  2  0  0  0  0
 33 47  1  0  0  0  0
 33 73  1  0  0  0  0
 33 77  2  0  0  0  0
 34 58  1  0  0  0  0
 34 67  1  0  0  0  0
 34 78  2  0  0  0  0
 35 59  1  0  0  0  0
 35 74  1  0  0  0  0
 35 79  2  0  0  0  0
 36 68  1  0  0  0  0
 36 71  1  0  0  0  0
 36 80  2  0  0  0  0
 37 40  1  0  0  0  0
 38 47  1  0  0  0  0
 39 67  1  0  0  0  0
 40 42  1  0  0  0  0
 41 43  1  0  0  0  0
 41 44  1  0  0  0  0
 42 46  1  0  0  0  0
 43 48  1  0  0  0  0
 44 68  1  0  0  0  0
 45 48  1  0  0  0  0
 45 68  1  0  0  0  0
 46 73  1  0  0  0  0
 47 67  1  0  0  0  0
 48 66  1  0  0  0  0
 50 59  1  0  0  0  0
 51 60  1  0  0  0  0
 52 62  1  0  0  0  0
 53 62  1  0  0  0  0
 54 62  1  0  0  0  0
 55 75  1  0  0  0  0
 56 60  1  0  0  0  0
 56 61  1  0  0  0  0
 57 61  1  0  0  0  0
 57 83  1  0  0  0  0
 58 62  1  0  0  0  0
 58 74  1  0  0  0  0
 59 75  1  0  0  0  0
 60 72  1  0  0  0  0
 61 81  1  0  0  0  0
 64 66  1  0  0  0  0
M  CHG  1  75   1
M  ISO  4  36 100  57 101  71 100  83 101
M  END
> <Batch ID>
0195

> <Smiles>
CNC(C)C(=O)NC(C(=O)N1Cc2cc([101O:1][101CH2:1]C(O)CC(C)Nc3cnc([100NH:0][100C:0](=O)N4CCCC(n5nc(-c6ccc(Oc7ccc(F)cc7F)cc6)c(C(N)=O)c5N)C4)c(C)n3)ccc2CC1C(=O)NC1CCCc2ccccc21)C(C)(C)C

> <Shape>
0.187

> <Color>
0.084

> <Negative vol penalty>
0.000

$$$$

  -OEChem-04052305363D

 81 89  0     1  0  0  0  0  0999 V2000
  -26.5510  -31.4784   26.0030 C   0  0  0  0  0  0  0  0  0  0  0  0
  -27.3922  -30.5794   25.3552 C   0  0  0  0  0  0  0  0  0  0  0  0
  -23.9338   -9.7732   22.0274 C   0  0  0  0  0  0  0  0  0  0  0  0
  -24.4471  -11.1706   23.9302 C   0  0  0  0  0  0  0  0  0  0  0  0
  -25.1856  -31.2116   26.0949 C   0  0  0  0  0  0  0  0  0  0  0  0
  -26.8685  -29.4124   24.7998 C   0  0  0  0  0  0  0  0  0  0  0  0
  -28.7497  -26.5981   19.6962 C   0  0  0  0  0  0  0  0  0  0  0  0
  -23.4806   -8.7712   22.8854 C   0  0  0  0  0  0  0  0  0  0  0  0
  -23.9938  -10.1686   24.7883 C   0  0  0  0  0  0  0  0  0  0  0  0
  -29.5863  -25.5035   19.4826 C   0  0  0  0  0  0  0  0  0  0  0  0
  -21.0243   -8.9896   25.8893 C   0  0  0  0  0  0  0  0  0  0  0  0
  -20.1937   -9.3684   26.9439 C   0  0  0  0  0  0  0  0  0  0  0  0
  -27.6563  -24.0624   19.3486 C   0  0  0  0  0  0  0  0  0  0  0  0
  -21.8032   -8.5008   28.5231 C   0  0  0  0  0  0  0  0  0  0  0  0
  -30.2674  -18.0106   22.5410 C   0  0  0  0  0  0  0  0  0  0  0  0
  -32.0000  -19.1229   20.8416 C   0  0  0  0  0  0  0  0  0  0  0  0
  -24.4171  -10.9728   22.5498 C   0  0  0  0  0  0  0  0  0  0  0  0
  -24.1287  -13.0528   21.1013 C   0  0  0  0  0  0  0  0  0  0  0  0
  -24.6435  -30.0455   25.5319 C   0  0  0  0  0  0  0  0  0  0  0  0
  -27.3584  -26.4312   19.7485 C   0  0  0  0  0  0  0  0  0  0  0  0
  -25.4948  -29.1292   24.8854 C   0  0  0  0  0  0  0  0  0  0  0  0
  -26.8042  -25.1570   19.5604 C   0  0  0  0  0  0  0  0  0  0  0  0
  -23.5105   -8.9689   24.2659 C   0  0  0  0  0  0  0  0  0  0  0  0
  -29.0398  -24.2349   19.3117 C   0  0  0  0  0  0  0  0  0  0  0  0
  -22.2443   -8.3663   26.1515 C   0  0  0  0  0  0  0  0  0  0  0  0
  -20.5832   -9.1241   28.2608 C   0  0  0  0  0  0  0  0  0  0  0  0
  -22.6338   -8.1219   27.4684 C   0  0  0  0  0  0  0  0  0  0  0  0
  -24.8860  -12.0080   21.6640 C   0  0  0  0  0  0  0  0  0  0  0  0
  -31.3520  -17.3051   22.0683 C   0  0  0  0  0  0  0  0  0  0  0  0
  -30.9151  -19.8283   21.3136 C   0  0  0  0  0  0  0  0  0  0  0  0
  -25.0289  -13.7587   20.3411 C   0  0  0  0  0  0  0  0  0  0  0  0
  -22.7359  -13.3580   21.2523 C   0  0  0  0  0  0  0  0  0  0  0  0
  -25.1241  -26.9032   21.9596 C   0  0  0  0  0  0  0  0  0  0  0  0
  -23.1119  -26.1542   19.5280 C   0  0  0  0  0  0  0  0  0  0  0  0
  -22.6427  -24.5817   16.5357 C   0  0  0  0  0  0  0  0  0  0  0  0
  -30.9756  -14.4018   20.6138 C   0  0  0  0  0  0  0  0  0  0  0  0
  -23.1687  -29.7772   25.6977 C   0  0  0  0  0  0  0  0  0  0  0  0
  -26.4683  -27.6263   19.9531 C   0  0  0  0  0  0  0  0  0  0  0  0
  -25.3159  -24.9276   19.5875 C   0  0  0  0  0  0  0  0  0  0  0  0
  -22.6357  -28.7005   24.7559 C   0  0  0  0  0  0  0  0  0  0  0  0
  -29.0765  -13.2015   17.8516 C   0  0  0  0  0  0  0  0  0  0  0  0
  -23.5619  -27.4885   24.7523 C   0  0  0  0  0  0  0  0  0  0  0  0
  -27.7188  -12.8538   18.4647 C   0  0  0  0  0  0  0  0  0  0  0  0
  -30.2250  -12.8831   18.8064 C   0  0  0  0  0  0  0  0  0  0  0  0
  -28.7440  -13.1387   20.7596 C   0  0  0  0  0  0  0  0  0  0  0  0
  -24.9606  -27.8645   24.2487 C   0  0  1  0  0  0  0  0  0  0  0  0
  -25.0922  -27.2598   20.5003 C   0  0  1  0  0  0  0  0  0  0  0  0
  -27.5512  -13.4942   19.8557 C   0  0  2  0  0  0  0  0  0  0  0  0
  -20.8803  -24.1125   14.8119 C   0  0  0  0  0  0  0  0  0  0  0  0
  -21.8879  -24.0416   21.3580 C   0  0  0  0  0  0  0  0  0  0  0  0
  -20.8361  -23.0015   19.3380 C   0  0  0  0  0  0  0  0  0  0  0  0
  -20.2312  -25.3299   19.9978 C   0  0  0  0  0  0  0  0  0  0  0  0
  -24.1578  -26.0069   14.4304 C   0  0  0  0  0  0  0  0  0  0  0  0
  -31.5837  -15.8984   22.4978 C   0  0  0  0  0  0  0  0  0  0  0  0
  -31.6384  -21.8005   19.9672 C   0  0  0  0  0  0  0  0  0  0  0  0
  -31.1541  -23.2139   19.6903 C   0  0  0  0  0  0  0  0  0  1  0  0
  -22.5076  -24.8775   18.9951 C   0  0  1  0  0  0  0  0  0  0  0  0
  -21.9989  -25.0485   15.2425 C   0  0  2  0  0  0  0  0  0  0  0  0
  -21.3939  -24.3163   19.9236 C   0  0  0  0  0  0  0  0  0  0  0  0
  -32.2380  -17.8486   21.2104 N   0  0  0  0  0  0  0  0  0  0  0  0
  -30.0293  -19.2848   22.1718 N   0  0  0  0  0  0  0  0  0  0  0  0
  -26.1686  -12.0431   21.2928 N   0  0  0  0  0  0  0  0  0  0  0  0
  -26.2241  -13.1185   20.4887 N   0  0  0  0  0  0  0  0  0  0  0  0
  -24.4877  -26.1267   19.7969 N   0  0  0  0  0  0  0  0  0  0  0  0
  -30.0057  -13.5214   20.1065 N   0  0  0  0  0  0  0  0  0  0  0  0
  -24.9068  -14.8582   19.5675 N   0  0  0  0  0  0  0  0  0  0  0  0
  -21.9553  -12.5298   22.0701 N   0  0  0  0  0  0  0  0  0  0  0  0
  -30.7427  -21.1338   20.8844 N   0  0  0  0  0  0  0  0  0  0  0  0
  -24.9635  -27.9833   22.8063 N   0  0  0  0  0  0  0  0  0  0  0  0
  -22.0616  -25.1725   17.6377 N   0  0  0  0  0  0  0  0  0  0  0  0
  -30.6864  -14.9684   21.8491 N   0  0  0  0  0  0  0  0  0  0  0  0
  -23.0115  -25.1042   14.1505 N   0  3  0  0  0  0  0  0  0  0  0  0
  -22.1961  -14.3266   20.6658 O   0  0  0  0  0  0  0  0  0  0  0  0
  -25.2811  -25.7344   22.2926 O   0  0  0  0  0  0  0  0  0  0  0  0
  -22.3912  -27.1416   19.6927 O   0  0  0  0  0  0  0  0  0  0  0  0
  -23.5659  -23.7710   16.5654 O   0  0  0  0  0  0  0  0  0  0  0  0
  -32.0193  -14.6676   20.0080 O   0  0  0  0  0  0  0  0  0  0  0  0
  -23.0681   -7.9915   25.1034 O   0  0  0  0  0  0  0  0  0  0  0  0
  -29.8541  -23.1646   19.1037 O   0  0  0  0  0  0  0  0  0  1  0  0
  -19.7862   -9.4893   29.2735 F   0  0  0  0  0  0  0  0  0  0  0  0
  -23.8052   -7.5246   27.7266 F   0  0  0  0  0  0  0  0  0  0  0  0
  1  2  1  0  0  0  0
  1  5  2  0  0  0  0
  2  6  2  0  0  0  0
  3  8  2  0  0  0  0
  3 17  1  0  0  0  0
  4  9  1  0  0  0  0
  4 17  2  0  0  0  0
  5 19  1  0  0  0  0
  6 21  1  0  0  0  0
  7 10  2  0  0  0  0
  7 20  1  0  0  0  0
  8 23  1  0  0  0  0
  9 23  2  0  0  0  0
 10 24  1  0  0  0  0
 11 12  2  0  0  0  0
 11 25  1  0  0  0  0
 12 26  1  0  0  0  0
 13 22  1  0  0  0  0
 13 24  2  0  0  0  0
 14 26  2  0  0  0  0
 14 27  1  0  0  0  0
 15 29  2  0  0  0  0
 15 61  1  0  0  0  0
 16 30  1  0  0  0  0
 16 60  2  0  0  0  0
 17 28  1  0  0  0  0
 18 28  1  0  0  0  0
 18 31  2  0  0  0  0
 18 32  1  0  0  0  0
 19 21  2  0  0  0  0
 19 37  1  0  0  0  0
 20 22  2  0  0  0  0
 20 38  1  0  0  0  0
 21 46  1  0  0  0  0
 22 39  1  0  0  0  0
 23 78  1  0  0  0  0
 24 79  1  0  0  0  0
 25 27  2  0  0  0  0
 25 78  1  0  0  0  0
 26 80  1  0  0  0  0
 27 81  1  0  0  0  0
 28 62  2  0  0  0  0
 29 54  1  0  0  0  0
 29 60  1  0  0  0  0
 30 61  2  0  0  0  0
 30 68  1  0  0  0  0
 31 63  1  0  0  0  0
 31 66  1  0  0  0  0
 32 67  1  0  0  0  0
 32 73  2  0  0  0  0
 33 47  1  0  0  0  0
 33 69  1  0  0  0  0
 33 74  2  0  0  0  0
 34 57  1  0  0  0  0
 34 64  1  0  0  0  0
 34 75  2  0  0  0  0
 35 58  1  0  0  0  0
 35 70  1  0  0  0  0
 35 76  2  0  0  0  0
 36 65  1  0  0  0  0
 36 71  1  0  0  0  0
 36 77  2  0  0  0  0
 37 40  1  0  0  0  0
 38 47  1  0  0  0  0
 39 64  1  0  0  0  0
 40 42  1  0  0  0  0
 41 43  1  0  0  0  0
 41 44  1  0  0  0  0
 42 46  1  0  0  0  0
 43 48  1  0  0  0  0
 44 65  1  0  0  0  0
 45 48  1  0  0  0  0
 45 65  1  0  0  0  0
 46 69  1  0  0  0  0
 47 64  1  0  0  0  0
 48 63  1  0  0  0  0
 49 58  1  0  0  0  0
 50 59  1  0  0  0  0
 51 59  1  0  0  0  0
 52 59  1  0  0  0  0
 53 72  1  0  0  0  0
 54 71  1  0  0  0  0
 55 56  1  0  0  0  0
 55 68  1  0  0  0  0
 56 79  1  0  0  0  0
 57 59  1  0  0  0  0
 57 70  1  0  0  0  0
 58 72  1  0  0  0  0
 62 63  1  0  0  0  0
M  CHG  1  72   1
M  ISO  4  36 100  56 101  71 100  79 101
M  END
> <Batch ID>
0195

> <Smiles>
CNC(C)C(=O)NC(C(=O)N1Cc2cc([101O:1][101CH2:1]CNc3cnc(C[100NH:0][100C:0](=O)N4CCCC(n5nc(-c6ccc(Oc7ccc(F)cc7F)cc6)c(C(N)=O)c5N)C4)cn3)ccc2CC1C(=O)NC1CCCc2ccccc21)C(C)(C)C

> <Shape>
0.227

> <Color>
0.119

> <Negative vol penalty>
0.000

$$$$

  -OEChem-04052305363D

 83 91  0     1  0  0  0  0  0999 V2000
  -26.9745  -37.1296   20.9849 C   0  0  0  0  0  0  0  0  0  0  0  0
  -27.5685  -35.8898   20.7716 C   0  0  0  0  0  0  0  0  0  0  0  0
  -24.7807   -9.1202   21.4099 C   0  0  0  0  0  0  0  0  0  0  0  0
  -23.1426  -10.8955   21.3661 C   0  0  0  0  0  0  0  0  0  0  0  0
  -25.8808  -37.2389   21.8426 C   0  0  0  0  0  0  0  0  0  0  0  0
  -27.0698  -34.7587   21.4168 C   0  0  0  0  0  0  0  0  0  0  0  0
  -26.8542  -29.0525   19.2036 C   0  0  0  0  0  0  0  0  0  0  0  0
  -24.0384   -8.4594   22.3886 C   0  0  0  0  0  0  0  0  0  0  0  0
  -22.4003  -10.2347   22.3448 C   0  0  0  0  0  0  0  0  0  0  0  0
  -27.6807  -27.9444   19.3846 C   0  0  0  0  0  0  0  0  0  0  0  0
  -21.2721   -6.5203   22.5314 C   0  0  0  0  0  0  0  0  0  0  0  0
  -21.0746   -5.1479   22.3790 C   0  0  0  0  0  0  0  0  0  0  0  0
  -26.2065  -27.1349   21.1140 C   0  0  0  0  0  0  0  0  0  0  0  0
  -22.1906   -4.7534   24.4852 C   0  0  0  0  0  0  0  0  0  0  0  0
  -25.3677  -18.7058   19.8733 C   0  0  0  0  0  0  0  0  0  0  0  0
  -24.3328  -10.3383   20.8986 C   0  0  0  0  0  0  0  0  0  0  0  0
  -24.9832  -10.8802   18.4921 C   0  0  0  0  0  0  0  0  0  0  0  0
  -25.3624  -36.1070   22.4913 C   0  0  0  0  0  0  0  0  0  0  0  0
  -25.7015  -29.2160   19.9853 C   0  0  0  0  0  0  0  0  0  0  0  0
  -25.9690  -34.8533   22.2851 C   0  0  0  0  0  0  0  0  0  0  0  0
  -25.3657  -28.2447   20.9392 C   0  0  0  0  0  0  0  0  0  0  0  0
  -22.8482   -9.0167   22.8561 C   0  0  0  0  0  0  0  0  0  0  0  0
  -27.3584  -26.9868   20.3419 C   0  0  0  0  0  0  0  0  0  0  0  0
  -21.9289   -7.0092   23.6607 C   0  0  0  0  0  0  0  0  0  0  0  0
  -21.5339   -4.2645   23.3559 C   0  0  0  0  0  0  0  0  0  0  0  0
  -22.3881   -6.1258   24.6376 C   0  0  0  0  0  0  0  0  0  0  0  0
  -25.0995  -11.0216   19.8879 C   0  0  0  0  0  0  0  0  0  0  0  0
  -24.9765  -20.0243   19.7596 C   0  0  0  0  0  0  0  0  0  0  0  0
  -26.7298  -18.4885   19.9131 C   0  0  0  0  0  0  0  0  0  0  0  0
  -25.9256  -11.7383   17.9804 C   0  0  0  0  0  0  0  0  0  0  0  0
  -27.1413  -20.7172   19.7384 C   0  0  0  0  0  0  0  0  0  0  0  0
  -24.1020  -10.0476   17.7266 C   0  0  0  0  0  0  0  0  0  0  0  0
  -24.6994  -31.3895   22.0771 C   0  0  0  0  0  0  0  0  0  0  0  0
  -21.9652  -29.6463   21.9886 C   0  0  0  0  0  0  0  0  0  0  0  0
  -27.8085  -23.1388   19.5523 C   0  0  0  0  0  0  0  0  0  0  0  0
  -20.4605  -26.6467   21.3678 C   0  0  0  0  0  0  0  0  0  0  0  0
  -28.4984  -16.7030   20.0870 C   0  0  0  0  0  0  0  0  0  0  0  0
  -24.2082  -36.2825   23.4461 C   0  0  0  0  0  0  0  0  0  0  0  0
  -24.8061  -30.4033   19.7593 C   0  0  0  0  0  0  0  0  0  0  0  0
  -24.1285  -28.3632   21.7900 C   0  0  0  0  0  0  0  0  0  0  0  0
  -23.5063  -34.9740   23.8002 C   0  0  0  0  0  0  0  0  0  0  0  0
  -30.1506  -13.7264   19.0442 C   0  0  0  0  0  0  0  0  0  0  0  0
  -24.5289  -33.8957   24.1439 C   0  0  0  0  0  0  0  0  0  0  0  0
  -29.0310  -12.6835   19.0093 C   0  0  0  0  0  0  0  0  0  0  0  0
  -29.9755  -14.7079   20.2016 C   0  0  0  0  0  0  0  0  0  0  0  0
  -27.5429  -14.3194   20.2327 C   0  0  0  0  0  0  0  0  0  0  0  0
  -25.4413  -33.5991   22.9476 C   0  0  1  0  0  0  0  0  0  0  0  0
  -23.9319  -30.7306   20.9660 C   0  0  1  0  0  0  0  0  0  0  0  0
  -27.6407  -13.3479   19.0451 C   0  0  2  0  0  0  0  0  0  0  0  0
  -23.5235  -20.3586   19.7088 C   0  0  0  0  0  0  0  0  0  0  0  0
  -18.2195  -25.5187   21.4208 C   0  0  0  0  0  0  0  0  0  0  0  0
  -22.1342  -29.4588   25.0293 C   0  0  0  0  0  0  0  0  0  0  0  0
  -20.4768  -27.5846   24.9362 C   0  0  0  0  0  0  0  0  0  0  0  0
  -19.8330  -29.8576   24.1350 C   0  0  0  0  0  0  0  0  0  0  0  0
  -20.5420  -26.0912   18.4620 C   0  0  0  0  0  0  0  0  0  0  0  0
  -29.1072  -23.9359   19.5078 C   0  0  0  0  0  0  0  0  0  0  0  0
  -28.8841  -25.4354   19.3821 C   0  0  0  0  0  0  0  0  0  1  0  0
  -21.4269  -28.4623   22.7550 C   0  0  1  0  0  0  0  0  0  0  0  0
  -19.2189  -26.2884   20.5713 C   0  0  2  0  0  0  0  0  0  0  0  0
  -20.9921  -28.8393   24.1993 C   0  0  0  0  0  0  0  0  0  0  0  0
  -26.0416  -11.9003   20.2405 N   0  0  0  0  0  0  0  0  0  0  0  0
  -25.8397  -21.0589   19.6894 N   0  0  0  0  0  0  0  0  0  0  0  0
  -27.6485  -19.4745   19.8476 N   0  0  0  0  0  0  0  0  0  0  0  0
  -26.5260  -12.3187   19.0587 N   0  0  0  0  0  0  0  0  0  0  0  0
  -23.2884  -29.5452   21.5359 N   0  0  0  0  0  0  0  0  0  0  0  0
  -28.6369  -15.3012   20.1687 N   0  0  0  0  0  0  0  0  0  0  0  0
  -26.2912  -12.0453   16.7176 N   0  0  0  0  0  0  0  0  0  0  0  0
  -23.1954   -9.2270   18.4114 N   0  0  0  0  0  0  0  0  0  0  0  0
  -27.1786  -17.1495   20.0293 N   0  0  0  0  0  0  0  0  0  0  0  0
  -28.0762  -21.7773   19.6674 N   0  0  0  0  0  0  0  0  0  0  0  0
  -24.7550  -32.7669   21.9827 N   0  0  0  0  0  0  0  0  0  0  0  0
  -20.3584  -27.8983   21.9373 N   0  0  0  0  0  0  0  0  0  0  0  0
  -19.5823  -25.4476   19.3957 N   0  3  0  0  0  0  0  0  0  0  0  0
  -24.1293  -10.0197   16.4728 O   0  0  0  0  0  0  0  0  0  0  0  0
  -25.2026  -30.6993   22.9558 O   0  0  0  0  0  0  0  0  0  0  0  0
  -21.2362  -30.6218   21.7924 O   0  0  0  0  0  0  0  0  0  0  0  0
  -26.7089  -23.6785   19.4905 O   0  0  0  0  0  0  0  0  0  0  0  0
  -21.4230  -25.8904   21.4771 O   0  0  0  0  0  0  0  0  0  0  0  0
  -29.4788  -17.4504   20.0420 O   0  0  0  0  0  0  0  0  0  0  0  0
  -22.1235   -8.3720   23.8110 O   0  0  0  0  0  0  0  0  0  0  0  0
  -28.1637  -25.9046   20.5211 O   0  0  0  0  0  0  0  0  0  1  0  0
  -21.3428   -2.9468   23.2101 F   0  0  0  0  0  0  0  0  0  0  0  0
  -23.0187   -6.5897   25.7253 F   0  0  0  0  0  0  0  0  0  0  0  0
  1  2  1  0  0  0  0
  1  5  2  0  0  0  0
  2  6  2  0  0  0  0
  3  8  2  0  0  0  0
  3 16  1  0  0  0  0
  4  9  1  0  0  0  0
  4 16  2  0  0  0  0
  5 18  1  0  0  0  0
  6 20  1  0  0  0  0
  7 10  2  0  0  0  0
  7 19  1  0  0  0  0
  8 22  1  0  0  0  0
  9 22  2  0  0  0  0
 10 23  1  0  0  0  0
 11 12  2  0  0  0  0
 11 24  1  0  0  0  0
 12 25  1  0  0  0  0
 13 21  1  0  0  0  0
 13 23  2  0  0  0  0
 14 25  2  0  0  0  0
 14 26  1  0  0  0  0
 15 28  1  0  0  0  0
 15 29  2  0  0  0  0
 16 27  1  0  0  0  0
 17 27  1  0  0  0  0
 17 30  2  0  0  0  0
 17 32  1  0  0  0  0
 18 20  2  0  0  0  0
 18 38  1  0  0  0  0
 19 21  2  0  0  0  0
 19 39  1  0  0  0  0
 20 47  1  0  0  0  0
 21 40  1  0  0  0  0
 22 80  1  0  0  0  0
 23 81  1  0  0  0  0
 24 26  2  0  0  0  0
 24 80  1  0  0  0  0
 25 82  1  0  0  0  0
 26 83  1  0  0  0  0
 27 61  2  0  0  0  0
 28 50  1  0  0  0  0
 28 62  2  0  0  0  0
 29 63  1  0  0  0  0
 29 69  1  0  0  0  0
 30 64  1  0  0  0  0
 30 67  1  0  0  0  0
 31 62  1  0  0  0  0
 31 63  2  0  0  0  0
 31 70  1  0  0  0  0
 32 68  1  0  0  0  0
 32 74  2  0  0  0  0
 33 48  1  0  0  0  0
 33 71  1  0  0  0  0
 33 75  2  0  0  0  0
 34 58  1  0  0  0  0
 34 65  1  0  0  0  0
 34 76  2  0  0  0  0
 35 56  1  0  0  0  0
 35 70  1  0  0  0  0
 35 77  2  0  0  0  0
 36 59  1  0  0  0  0
 36 72  1  0  0  0  0
 36 78  2  0  0  0  0
 37 66  1  0  0  0  0
 37 69  1  0  0  0  0
 37 79  2  0  0  0  0
 38 41  1  0  0  0  0
 39 48  1  0  0  0  0
 40 65  1  0  0  0  0
 41 43  1  0  0  0  0
 42 44  1  0  0  0  0
 42 45  1  0  0  0  0
 43 47  1  0  0  0  0
 44 49  1  0  0  0  0
 45 66  1  0  0  0  0
 46 49  1  0  0  0  0
 46 66  1  0  0  0  0
 47 71  1  0  0  0  0
 48 65  1  0  0  0  0
 49 64  1  0  0  0  0
 51 59  1  0  0  0  0
 52 60  1  0  0  0  0
 53 60  1  0  0  0  0
 54 60  1  0  0  0  0
 55 73  1  0  0  0  0
 56 57  1  0  0  0  0
 57 81  1  0  0  0  0
 58 60  1  0  0  0  0
 58 72  1  0  0  0  0
 59 73  1  0  0  0  0
 61 64  1  0  0  0  0
M  CHG  1  73   1
M  ISO  4  37 100  57 101  69 100  81 101
M  END
> <Batch ID>
0195

> <Smiles>
CNC(C)C(=O)NC(C(=O)N1Cc2cc([101O:1][101CH2:1]CC(=O)Nc3nc(C)cc([100NH:0][100C:0](=O)N4CCCC(n5nc(-c6ccc(Oc7ccc(F)cc7F)cc6)c(C(N)=O)c5N)C4)n3)ccc2CC1C(=O)NC1CCCc2ccccc21)C(C)(C)C

> <Shape>
0.322

> <Color>
0.084

> <Negative vol penalty>
0.000

$$$$

  -OEChem-04052305363D

 84 92  0     1  0  0  0  0  0999 V2000
  -28.1858  -35.8797   23.4086 C   0  0  0  0  0  0  0  0  0  0  0  0
  -28.3874  -34.5193   23.1986 C   0  0  0  0  0  0  0  0  0  0  0  0
  -27.4268  -14.8854   21.5702 C   0  0  0  0  0  0  0  0  0  0  0  0
  -26.5346  -15.0504   19.3311 C   0  0  0  0  0  0  0  0  0  0  0  0
  -26.9460  -36.3394   23.8507 C   0  0  0  0  0  0  0  0  0  0  0  0
  -27.3496  -33.6177   23.4317 C   0  0  0  0  0  0  0  0  0  0  0  0
  -26.8933  -30.1833   19.7382 C   0  0  0  0  0  0  0  0  0  0  0  0
  -26.9336  -13.5845   21.6709 C   0  0  0  0  0  0  0  0  0  0  0  0
  -26.0415  -13.7495   19.4317 C   0  0  0  0  0  0  0  0  0  0  0  0
  -27.8019  -29.1258   19.7363 C   0  0  0  0  0  0  0  0  0  0  0  0
  -27.8145  -10.4976   20.6090 C   0  0  0  0  0  0  0  0  0  0  0  0
  -28.6592   -9.5235   21.1413 C   0  0  0  0  0  0  0  0  0  0  0  0
  -26.1412  -27.7050   20.7574 C   0  0  0  0  0  0  0  0  0  0  0  0
  -27.0701   -9.1148   22.9147 C   0  0  0  0  0  0  0  0  0  0  0  0
  -27.2272  -15.6184   20.4003 C   0  0  0  0  0  0  0  0  0  0  0  0
  -29.0006  -17.3582   19.8210 C   0  0  0  0  0  0  0  0  0  0  0  0
  -25.8895  -35.4440   24.0801 C   0  0  0  0  0  0  0  0  0  0  0  0
  -25.6032  -30.0123   20.2606 C   0  0  0  0  0  0  0  0  0  0  0  0
  -26.0949  -34.0657   23.8786 C   0  0  0  0  0  0  0  0  0  0  0  0
  -25.2173  -28.7612   20.7625 C   0  0  0  0  0  0  0  0  0  0  0  0
  -26.2410  -13.0165   20.6016 C   0  0  0  0  0  0  0  0  0  0  0  0
  -27.4269  -27.8873   20.2485 C   0  0  0  0  0  0  0  0  0  0  0  0
  -26.5977  -10.7803   21.2296 C   0  0  0  0  0  0  0  0  0  0  0  0
  -28.2870   -8.8321   22.2942 C   0  0  0  0  0  0  0  0  0  0  0  0
  -26.2255  -10.0889   22.3824 C   0  0  0  0  0  0  0  0  0  0  0  0
  -27.7359  -16.9624   20.2960 C   0  0  0  0  0  0  0  0  0  0  0  0
  -28.9929  -18.7278   19.9241 C   0  0  0  0  0  0  0  0  0  0  0  0
  -24.6092  -23.9529   16.9250 C   0  0  0  0  0  0  0  0  0  0  0  0
  -25.0328  -25.2568   15.1482 C   0  0  0  0  0  0  0  0  0  0  0  0
  -26.6209  -24.9217   16.6982 C   0  0  0  0  0  0  0  0  0  0  0  0
  -30.0854  -16.5593   19.3304 C   0  0  0  0  0  0  0  0  0  0  0  0
  -23.9652  -31.3032   22.6594 C   0  0  0  0  0  0  0  0  0  0  0  0
  -21.5335  -29.5415   21.4326 C   0  0  0  0  0  0  0  0  0  0  0  0
  -20.5551  -26.8434   19.5860 C   0  0  0  0  0  0  0  0  0  0  0  0
  -24.5924  -22.7878   19.9804 C   0  0  0  0  0  0  0  0  0  0  0  0
  -24.5816  -35.9830   24.6029 C   0  0  0  0  0  0  0  0  0  0  0  0
  -24.6262  -31.1555   20.2310 C   0  0  0  0  0  0  0  0  0  0  0  0
  -23.8375  -28.5201   21.3162 C   0  0  0  0  0  0  0  0  0  0  0  0
  -23.4204  -35.0014   24.4674 C   0  0  0  0  0  0  0  0  0  0  0  0
  -27.0680  -22.2790   22.4882 C   0  0  0  0  0  0  0  0  0  0  0  0
  -23.8359  -33.6138   24.9456 C   0  0  0  0  0  0  0  0  0  0  0  0
  -27.6340  -20.8945   22.1679 C   0  0  0  0  0  0  0  0  0  0  0  0
  -25.5672  -22.3521   22.2157 C   0  0  0  0  0  0  0  0  0  0  0  0
  -25.7293  -20.5534   20.5386 C   0  0  0  0  0  0  0  0  0  0  0  0
  -24.9861  -33.0591   24.0967 C   0  0  1  0  0  0  0  0  0  0  0  0
  -23.5074  -31.0121   21.2582 C   0  0  1  0  0  0  0  0  0  0  0  0
  -27.2500  -20.4473   20.7446 C   0  0  2  0  0  0  0  0  0  0  0  0
  -18.5012  -25.6405   18.7912 C   0  0  0  0  0  0  0  0  0  0  0  0
  -28.7904  -23.1213   18.1475 C   0  0  0  0  0  0  0  0  0  0  0  0
  -21.1509  -28.3586   24.2190 C   0  0  0  0  0  0  0  0  0  0  0  0
  -19.7854  -26.5347   23.1813 C   0  0  0  0  0  0  0  0  0  0  0  0
  -19.0270  -28.9055   23.0172 C   0  0  0  0  0  0  0  0  0  0  0  0
  -21.2484  -27.2959   16.7446 C   0  0  0  0  0  0  0  0  0  0  0  0
  -23.6757  -23.0801   17.6928 C   0  0  0  0  0  0  0  0  0  0  0  0
  -29.6264  -25.3811   18.8820 C   0  0  0  0  0  0  0  0  0  0  0  0
  -29.2857  -26.8324   19.2054 C   0  0  0  0  0  0  0  0  0  1  0  0
  -21.0118  -28.1417   21.6500 C   0  0  1  0  0  0  0  0  0  0  0  0
  -19.5391  -26.7037   18.4668 C   0  0  2  0  0  0  0  0  0  0  0  0
  -28.4147  -24.5783   18.3982 C   0  0  1  0  0  0  0  0  0  0  0  0
  -20.2705  -27.9899   23.0083 C   0  0  0  0  0  0  0  0  0  0  0  0
  -26.9798  -17.9969   20.6730 N   0  0  0  0  0  0  0  0  0  0  0  0
  -24.1381  -24.4847   15.7854 N   0  0  0  0  0  0  0  0  0  0  0  0
  -25.8360  -24.1263   17.4427 N   0  0  0  0  0  0  0  0  0  0  0  0
  -26.2888  -25.5205   15.5432 N   0  0  0  0  0  0  0  0  0  0  0  0
  -27.7717  -19.0563   20.4350 N   0  0  0  0  0  0  0  0  0  0  0  0
  -22.9202  -29.6708   21.2709 N   0  0  0  0  0  0  0  0  0  0  0  0
  -25.2704  -21.9165   20.8489 N   0  0  0  0  0  0  0  0  0  0  0  0
  -29.9117  -19.6711   19.6268 N   0  0  0  0  0  0  0  0  0  0  0  0
  -24.6090  -25.8531   13.9405 N   0  0  0  0  0  0  0  0  0  0  0  0
  -29.9260  -15.1674   19.2921 N   0  0  0  0  0  0  0  0  0  0  0  0
  -27.9018  -25.1473   17.1694 N   0  0  0  0  0  0  0  0  0  0  0  0
  -24.4884  -32.5710   22.8284 N   0  0  0  0  0  0  0  0  0  0  0  0
  -20.1938  -27.8252   20.4842 N   0  0  0  0  0  0  0  0  0  0  0  0
  -24.3566  -22.2990   18.7012 N   0  0  0  0  0  0  0  0  0  0  0  0
  -20.2179  -26.3254   17.1952 N   0  3  0  0  0  0  0  0  0  0  0  0
  -31.1701  -17.0637   18.9530 O   0  0  0  0  0  0  0  0  0  0  0  0
  -23.8509  -30.4420   23.5236 O   0  0  0  0  0  0  0  0  0  0  0  0
  -20.7391  -30.4846   21.3999 O   0  0  0  0  0  0  0  0  0  0  0  0
  -21.5662  -26.1484   19.6583 O   0  0  0  0  0  0  0  0  0  0  0  0
  -24.2291  -23.9195   20.3182 O   0  0  0  0  0  0  0  0  0  0  0  0
  -25.7599  -11.7471   20.6994 O   0  0  0  0  0  0  0  0  0  0  0  0
  -28.3120  -26.8536   20.2484 O   0  0  0  0  0  0  0  0  0  1  0  0
  -29.0975   -7.8956   22.8044 F   0  0  0  0  0  0  0  0  0  0  0  0
  -25.0572  -10.3553   22.9823 F   0  0  0  0  0  0  0  0  0  0  0  0
  1  2  1  0  0  0  0
  1  5  2  0  0  0  0
  2  6  2  0  0  0  0
  3  8  2  0  0  0  0
  3 15  1  0  0  0  0
  4  9  1  0  0  0  0
  4 15  2  0  0  0  0
  5 17  1  0  0  0  0
  6 19  1  0  0  0  0
  7 10  2  0  0  0  0
  7 18  1  0  0  0  0
  8 21  1  0  0  0  0
  9 21  2  0  0  0  0
 10 22  1  0  0  0  0
 11 12  2  0  0  0  0
 11 23  1  0  0  0  0
 12 24  1  0  0  0  0
 13 20  1  0  0  0  0
 13 22  2  0  0  0  0
 14 24  2  0  0  0  0
 14 25  1  0  0  0  0
 15 26  1  0  0  0  0
 16 26  1  0  0  0  0
 16 27  2  0  0  0  0
 16 31  1  0  0  0  0
 17 19  2  0  0  0  0
 17 36  1  0  0  0  0
 18 20  2  0  0  0  0
 18 37  1  0  0  0  0
 19 45  1  0  0  0  0
 20 38  1  0  0  0  0
 21 81  1  0  0  0  0
 22 82  1  0  0  0  0
 23 25  2  0  0  0  0
 23 81  1  0  0  0  0
 24 83  1  0  0  0  0
 25 84  1  0  0  0  0
 26 61  2  0  0  0  0
 27 65  1  0  0  0  0
 27 68  1  0  0  0  0
 28 54  1  0  0  0  0
 28 62  2  0  0  0  0
 28 63  1  0  0  0  0
 29 62  1  0  0  0  0
 29 64  2  0  0  0  0
 29 69  1  0  0  0  0
 30 63  2  0  0  0  0
 30 64  1  0  0  0  0
 30 71  1  0  0  0  0
 31 70  1  0  0  0  0
 31 76  2  0  0  0  0
 32 46  1  0  0  0  0
 32 72  1  0  0  0  0
 32 77  2  0  0  0  0
 33 57  1  0  0  0  0
 33 66  1  0  0  0  0
 33 78  2  0  0  0  0
 34 58  1  0  0  0  0
 34 73  1  0  0  0  0
 34 79  2  0  0  0  0
 35 67  1  0  0  0  0
 35 74  1  0  0  0  0
 35 80  2  0  0  0  0
 36 39  1  0  0  0  0
 37 46  1  0  0  0  0
 38 66  1  0  0  0  0
 39 41  1  0  0  0  0
 40 42  1  0  0  0  0
 40 43  1  0  0  0  0
 41 45  1  0  0  0  0
 42 47  1  0  0  0  0
 43 67  1  0  0  0  0
 44 47  1  0  0  0  0
 44 67  1  0  0  0  0
 45 72  1  0  0  0  0
 46 66  1  0  0  0  0
 47 65  1  0  0  0  0
 48 58  1  0  0  0  0
 49 59  1  0  0  0  0
 50 60  1  0  0  0  0
 51 60  1  0  0  0  0
 52 60  1  0  0  0  0
 53 75  1  0  0  0  0
 54 74  1  0  0  0  0
 55 56  1  0  0  0  0
 55 59  1  0  0  0  0
 56 82  1  0  0  0  0
 57 60  1  0  0  0  0
 57 73  1  0  0  0  0
 58 75  1  0  0  0  0
 59 71  1  0  0  0  0
 61 65  1  0  0  0  0
M  CHG  1  75   1
M  ISO  4  35 100  56 101  74 100  82 101
M  END
> <Batch ID>
0195

> <Smiles>
CNC(C)C(=O)NC(C(=O)N1Cc2cc([101O:1][101CH2:1]CC(C)Nc3nc(N)nc(C[100NH:0][100C:0](=O)N4CCCC(n5nc(-c6ccc(Oc7ccc(F)cc7F)cc6)c(C(N)=O)c5N)C4)n3)ccc2CC1C(=O)NC1CCCc2ccccc21)C(C)(C)C

> <Shape>
0.255

> <Color>
0.067

> <Negative vol penalty>
0.000

$$$$

  -OEChem-04052305363D

 82 90  0     1  0  0  0  0  0999 V2000
  -28.9275  -24.6044   16.9905 C   0  0  0  0  0  0  0  0  0  0  0  0
  -27.7638  -24.6462   17.7518 C   0  0  0  0  0  0  0  0  0  0  0  0
  -27.2685  -17.1008   18.8092 C   0  0  0  0  0  0  0  0  0  0  0  0
  -26.4148  -18.8301   20.2645 C   0  0  0  0  0  0  0  0  0  0  0  0
  -30.0456  -25.3364   17.3878 C   0  0  0  0  0  0  0  0  0  0  0  0
  -27.7179  -25.4192   18.9114 C   0  0  0  0  0  0  0  0  0  0  0  0
  -23.4516  -28.1229   19.2764 C   0  0  0  0  0  0  0  0  0  0  0  0
  -28.5069  -17.7417   18.7741 C   0  0  0  0  0  0  0  0  0  0  0  0
  -27.6533  -19.4710   20.2295 C   0  0  0  0  0  0  0  0  0  0  0  0
  -22.3035  -27.4482   19.6894 C   0  0  0  0  0  0  0  0  0  0  0  0
  -30.6815  -19.1164   21.6871 C   0  0  0  0  0  0  0  0  0  0  0  0
  -31.2048  -19.5786   22.8946 C   0  0  0  0  0  0  0  0  0  0  0  0
  -17.7694  -21.4103   20.7453 C   0  0  0  0  0  0  0  0  0  0  0  0
  -17.8678  -22.5986   21.5252 C   0  0  0  0  0  0  0  0  0  0  0  0
  -22.6053  -28.3133   21.9209 C   0  0  0  0  0  0  0  0  0  0  0  0
  -31.2208  -21.8326   22.0251 C   0  0  0  0  0  0  0  0  0  0  0  0
  -26.2224  -17.6451   19.5544 C   0  0  0  0  0  0  0  0  0  0  0  0
  -24.5181  -16.0033   20.5070 C   0  0  0  0  0  0  0  0  0  0  0  0
  -30.0103  -26.1265   18.5476 C   0  0  0  0  0  0  0  0  0  0  0  0
  -24.1924  -28.8904   20.1866 C   0  0  0  0  0  0  0  0  0  0  0  0
  -28.8371  -26.1615   19.3253 C   0  0  0  0  0  0  0  0  0  0  0  0
  -23.7609  -28.9988   21.5163 C   0  0  0  0  0  0  0  0  0  0  0  0
  -28.6993  -18.9267   19.4843 C   0  0  0  0  0  0  0  0  0  0  0  0
  -21.8819  -27.5410   21.0125 C   0  0  0  0  0  0  0  0  0  0  0  0
  -30.4280  -20.0124   20.6485 C   0  0  0  0  0  0  0  0  0  0  0  0
  -31.4744  -20.9366   23.0637 C   0  0  0  0  0  0  0  0  0  0  0  0
  -30.6976  -21.3705   20.8175 C   0  0  0  0  0  0  0  0  0  0  0  0
  -24.9427  -16.9839   19.5905 C   0  0  0  0  0  0  0  0  0  0  0  0
  -17.9944  -21.6492   19.4075 C   0  0  0  0  0  0  0  0  0  0  0  0
  -23.2366  -15.7004   20.1166 C   0  0  0  0  0  0  0  0  0  0  0  0
  -18.1647  -23.7007   20.7536 C   0  0  0  0  0  0  0  0  0  0  0  0
  -25.2194  -15.4185   21.6124 C   0  0  0  0  0  0  0  0  0  0  0  0
  -27.1583  -28.7765   21.3243 C   0  0  0  0  0  0  0  0  0  0  0  0
  -19.1307  -18.8349   17.0460 C   0  0  0  0  0  0  0  0  0  0  0  0
  -26.3136  -31.5792   22.7220 C   0  0  0  0  0  0  0  0  0  0  0  0
  -18.2744  -25.6190   22.3821 C   0  0  0  0  0  0  0  0  0  0  0  0
  -23.8221  -33.6071   23.8739 C   0  0  0  0  0  0  0  0  0  0  0  0
  -31.2593  -26.8631   18.9625 C   0  0  0  0  0  0  0  0  0  0  0  0
  -25.4136  -29.6337   19.7190 C   0  0  0  0  0  0  0  0  0  0  0  0
  -24.5096  -29.8262   22.5280 C   0  0  0  0  0  0  0  0  0  0  0  0
  -31.0070  -27.9529   20.0013 C   0  0  0  0  0  0  0  0  0  0  0  0
  -20.4168  -15.5834   16.2626 C   0  0  0  0  0  0  0  0  0  0  0  0
  -30.1115  -27.4280   21.1190 C   0  0  0  0  0  0  0  0  0  0  0  0
  -21.6995  -15.4961   17.0886 C   0  0  0  0  0  0  0  0  0  0  0  0
  -20.1744  -17.0017   15.7559 C   0  0  0  0  0  0  0  0  0  0  0  0
  -21.4356  -17.9513   17.6610 C   0  0  0  0  0  0  0  0  0  0  0  0
  -28.7403  -27.0079   20.5760 C   0  0  1  0  0  0  0  0  0  0  0  0
  -26.3782  -29.9706   20.8518 C   0  0  1  0  0  0  0  0  0  0  0  0
  -21.7019  -16.5416   18.2180 C   0  0  2  0  0  0  0  0  0  0  0  0
  -23.4435  -35.8182   24.9986 C   0  0  0  0  0  0  0  0  0  0  0  0
  -27.1969  -30.3744   25.3825 C   0  0  0  0  0  0  0  0  0  0  0  0
  -25.9413  -32.2008   26.5469 C   0  0  0  0  0  0  0  0  0  0  0  0
  -27.8554  -32.7640   25.0496 C   0  0  0  0  0  0  0  0  0  0  0  0
  -22.2564  -34.6357   21.5826 C   0  0  0  0  0  0  0  0  0  0  0  0
  -17.9805  -20.6861   18.2851 C   0  0  0  0  0  0  0  0  0  0  0  0
  -19.2348  -19.7983   18.2014 C   0  0  0  0  0  0  0  0  0  0  0  0
  -18.5430  -27.1183   22.3202 C   0  0  0  0  0  0  0  0  0  0  0  0
  -20.0142  -27.4691   22.4831 C   0  0  0  0  0  0  0  0  0  1  0  0
  -25.6797  -31.9708   24.0350 C   0  0  1  0  0  0  0  0  0  0  0  0
  -23.5524  -35.0870   23.6696 C   0  0  2  0  0  0  0  0  0  0  0  0
  -26.6551  -31.8103   25.2351 C   0  0  0  0  0  0  0  0  0  0  0  0
  -24.0069  -17.2839   18.6860 N   0  0  0  0  0  0  0  0  0  0  0  0
  -22.9816  -16.4871   19.0321 N   0  0  0  0  0  0  0  0  0  0  0  0
  -25.7008  -30.5291   22.0238 N   0  0  0  0  0  0  0  0  0  0  0  0
  -20.2065  -17.9675   16.8556 N   0  0  0  0  0  0  0  0  0  0  0  0
  -22.3143  -14.8405   20.5986 N   0  0  0  0  0  0  0  0  0  0  0  0
  -26.5290  -15.8443   21.8735 N   0  0  0  0  0  0  0  0  0  0  0  0
  -18.3512  -25.0574   21.1104 N   0  0  0  0  0  0  0  0  0  0  0  0
  -27.9130  -28.1712   20.3377 N   0  0  0  0  0  0  0  0  0  0  0  0
  -25.1720  -33.3265   23.8549 N   0  0  0  0  0  0  0  0  0  0  0  0
  -22.2796  -35.2829   22.9196 N   0  3  0  0  0  0  0  0  0  0  0  0
  -24.7060  -14.5326   22.3370 O   0  0  0  0  0  0  0  0  0  0  0  0
  -27.0822  -28.4308   22.4976 O   0  0  0  0  0  0  0  0  0  0  0  0
  -18.1212  -18.8521   16.3369 O   0  0  0  0  0  0  0  0  0  0  0  0
  -27.3114  -32.1876   22.3270 O   0  0  0  0  0  0  0  0  0  0  0  0
  -18.0294  -25.0427   23.4366 O   0  0  0  0  0  0  0  0  0  0  0  0
  -22.9251  -32.7830   24.0378 O   0  0  0  0  0  0  0  0  0  0  0  0
  -29.9077  -19.5522   19.4505 O   0  0  0  0  0  0  0  0  0  0  0  0
  -20.7621  -26.8829   21.4185 O   0  0  0  0  0  0  0  0  0  1  0  0
  -31.9755  -21.3805   24.2239 F   0  0  0  0  0  0  0  0  0  0  0  0
  -30.4550  -22.2362   19.8238 F   0  0  0  0  0  0  0  0  0  0  0  0
  -18.3230  -23.3007   19.0962 S   0  0  0  0  0  0  0  0  0  0  0  0
  1  2  1  0  0  0  0
  1  5  2  0  0  0  0
  2  6  2  0  0  0  0
  3  8  2  0  0  0  0
  3 17  1  0  0  0  0
  4  9  1  0  0  0  0
  4 17  2  0  0  0  0
  5 19  1  0  0  0  0
  6 21  1  0  0  0  0
  7 10  2  0  0  0  0
  7 20  1  0  0  0  0
  8 23  1  0  0  0  0
  9 23  2  0  0  0  0
 10 24  1  0  0  0  0
 11 12  2  0  0  0  0
 11 25  1  0  0  0  0
 12 26  1  0  0  0  0
 13 14  1  0  0  0  0
 13 29  2  0  0  0  0
 14 31  2  0  0  0  0
 15 22  1  0  0  0  0
 15 24  2  0  0  0  0
 16 26  2  0  0  0  0
 16 27  1  0  0  0  0
 17 28  1  0  0  0  0
 18 28  1  0  0  0  0
 18 30  2  0  0  0  0
 18 32  1  0  0  0  0
 19 21  2  0  0  0  0
 19 38  1  0  0  0  0
 20 22  2  0  0  0  0
 20 39  1  0  0  0  0
 21 47  1  0  0  0  0
 22 40  1  0  0  0  0
 23 78  1  0  0  0  0
 24 79  1  0  0  0  0
 25 27  2  0  0  0  0
 25 78  1  0  0  0  0
 26 80  1  0  0  0  0
 27 81  1  0  0  0  0
 28 62  2  0  0  0  0
 29 55  1  0  0  0  0
 29 82  1  0  0  0  0
 30 63  1  0  0  0  0
 30 66  1  0  0  0  0
 31 68  1  0  0  0  0
 31 82  1  0  0  0  0
 32 67  1  0  0  0  0
 32 72  2  0  0  0  0
 33 48  1  0  0  0  0
 33 69  1  0  0  0  0
 33 73  2  0  0  0  0
 34 56  1  0  0  0  0
 34 65  1  0  0  0  0
 34 74  2  0  0  0  0
 35 59  1  0  0  0  0
 35 64  1  0  0  0  0
 35 75  2  0  0  0  0
 36 57  1  0  0  0  0
 36 68  1  0  0  0  0
 36 76  2  0  0  0  0
 37 60  1  0  0  0  0
 37 70  1  0  0  0  0
 37 77  2  0  0  0  0
 38 41  1  0  0  0  0
 39 48  1  0  0  0  0
 40 64  1  0  0  0  0
 41 43  1  0  0  0  0
 42 44  1  0  0  0  0
 42 45  1  0  0  0  0
 43 47  1  0  0  0  0
 44 49  1  0  0  0  0
 45 65  1  0  0  0  0
 46 49  1  0  0  0  0
 46 65  1  0  0  0  0
 47 69  1  0  0  0  0
 48 64  1  0  0  0  0
 49 63  1  0  0  0  0
 50 60  1  0  0  0  0
 51 61  1  0  0  0  0
 52 61  1  0  0  0  0
 53 61  1  0  0  0  0
 54 71  1  0  0  0  0
 55 56  1  0  0  0  0
 57 58  1  0  0  0  0
 58 79  1  0  0  0  0
 59 61  1  0  0  0  0
 59 70  1  0  0  0  0
 60 71  1  0  0  0  0
 62 63  1  0  0  0  0
M  CHG  1  71   1
M  ISO  4  34 100  56 100  58 101  79 101
M  END
> <Batch ID>
0195

> <Smiles>
CNC(C)C(=O)NC(C(=O)N1Cc2cc([101O:1][101CH2:1]CC(=O)Nc3ccc(C[100CH2:0][100C:0](=O)N4CCCC(n5nc(-c6ccc(Oc7ccc(F)cc7F)cc6)c(C(N)=O)c5N)C4)s3)ccc2CC1C(=O)NC1CCCc2ccccc21)C(C)(C)C

> <Shape>
0.254

> <Color>
0.073

> <Negative vol penalty>
0.000

$$$$

  -OEChem-04052305363D

 86 94  0     1  0  0  0  0  0999 V2000
  -20.2826  -33.6992   19.7462 C   0  0  0  0  0  0  0  0  0  0  0  0
  -21.5984  -33.2566   19.8377 C   0  0  0  0  0  0  0  0  0  0  0  0
  -23.2133  -13.1021   19.9024 C   0  0  0  0  0  0  0  0  0  0  0  0
  -22.5728  -14.8820   21.4054 C   0  0  0  0  0  0  0  0  0  0  0  0
  -19.3256  -33.2272   20.6436 C   0  0  0  0  0  0  0  0  0  0  0  0
  -21.9581  -32.3426   20.8275 C   0  0  0  0  0  0  0  0  0  0  0  0
  -24.8994  -28.6196   19.0576 C   0  0  0  0  0  0  0  0  0  0  0  0
  -22.2443  -12.2745   20.4695 C   0  0  0  0  0  0  0  0  0  0  0  0
  -21.6037  -14.0543   21.9724 C   0  0  0  0  0  0  0  0  0  0  0  0
  -26.2462  -28.9155   18.8515 C   0  0  0  0  0  0  0  0  0  0  0  0
  -20.1809   -9.5752   21.7657 C   0  0  0  0  0  0  0  0  0  0  0  0
  -20.5439   -8.2633   22.0700 C   0  0  0  0  0  0  0  0  0  0  0  0
  -26.7942  -27.8516   20.9460 C   0  0  0  0  0  0  0  0  0  0  0  0
  -22.2562   -9.0835   23.5641 C   0  0  0  0  0  0  0  0  0  0  0  0
  -29.0954  -23.4155   18.6767 C   0  0  0  0  0  0  0  0  0  0  0  0
  -23.3776  -14.4059   20.3704 C   0  0  0  0  0  0  0  0  0  0  0  0
  -24.2196  -16.1298   18.6891 C   0  0  0  0  0  0  0  0  0  0  0  0
  -19.6717  -32.2997   21.6388 C   0  0  0  0  0  0  0  0  0  0  0  0
  -24.4879  -27.9460   20.2166 C   0  0  0  0  0  0  0  0  0  0  0  0
  -21.0051  -31.8589   21.7399 C   0  0  0  0  0  0  0  0  0  0  0  0
  -25.4420  -27.5461   21.1632 C   0  0  0  0  0  0  0  0  0  0  0  0
  -30.4004  -23.8484   18.7947 C   0  0  0  0  0  0  0  0  0  0  0  0
  -21.4395  -12.7506   21.5045 C   0  0  0  0  0  0  0  0  0  0  0  0
  -27.1935  -28.5340   19.7971 C   0  0  0  0  0  0  0  0  0  0  0  0
  -20.8557  -10.6414   22.3605 C   0  0  0  0  0  0  0  0  0  0  0  0
  -21.5815   -8.0174   22.9692 C   0  0  0  0  0  0  0  0  0  0  0  0
  -21.8932  -10.3955   23.2597 C   0  0  0  0  0  0  0  0  0  0  0  0
  -24.3788  -15.2611   19.7854 C   0  0  0  0  0  0  0  0  0  0  0  0
  -31.2792  -22.9478   19.3611 C   0  0  0  0  0  0  0  0  0  0  0  0
  -25.4540  -16.7104   18.5290 C   0  0  0  0  0  0  0  0  0  0  0  0
  -29.6221  -21.4124   19.6134 C   0  0  0  0  0  0  0  0  0  0  0  0
  -23.0596  -16.3888   17.8872 C   0  0  0  0  0  0  0  0  0  0  0  0
  -22.5858  -28.6495   22.6641 C   0  0  0  0  0  0  0  0  0  0  0  0
  -23.1338  -25.5568   23.4748 C   0  0  0  0  0  0  0  0  0  0  0  0
  -25.1631  -22.8213   23.2601 C   0  0  0  0  0  0  0  0  0  0  0  0
  -30.0039  -19.1385   20.6280 C   0  0  0  0  0  0  0  0  0  0  0  0
  -18.6127  -31.8542   22.6158 C   0  0  0  0  0  0  0  0  0  0  0  0
  -23.0347  -27.6106   20.4113 C   0  0  0  0  0  0  0  0  0  0  0  0
  -25.0544  -26.8028   22.4145 C   0  0  0  0  0  0  0  0  0  0  0  0
  -18.9955  -30.6015   23.3999 C   0  0  0  0  0  0  0  0  0  0  0  0
  -29.9226  -15.5789   20.6203 C   0  0  0  0  0  0  0  0  0  0  0  0
  -20.4202  -30.7195   23.9320 C   0  0  0  0  0  0  0  0  0  0  0  0
  -28.4599  -15.2504   20.3122 C   0  0  0  0  0  0  0  0  0  0  0  0
  -30.0512  -16.8152   21.5084 C   0  0  0  0  0  0  0  0  0  0  0  0
  -27.8871  -17.6796   20.7093 C   0  0  0  0  0  0  0  0  0  0  0  0
  -21.4289  -30.8490   22.7843 C   0  0  1  0  0  0  0  0  0  0  0  0
  -22.6665  -27.3747   21.8728 C   0  0  1  0  0  0  0  0  0  0  0  0
  -27.7095  -16.4800   19.7642 C   0  0  2  0  0  0  0  0  0  0  0  0
  -33.6559  -22.3845   18.7383 C   0  0  0  0  0  0  0  0  0  0  0  0
  -33.1386  -23.3167   21.0227 C   0  0  0  0  0  0  0  0  0  0  0  0
  -25.3662  -20.4515   24.0602 C   0  0  0  0  0  0  0  0  0  0  0  0
  -29.6318  -25.6636   16.3181 C   0  0  0  0  0  0  0  0  0  0  0  0
  -24.0003  -26.5613   26.2225 C   0  0  0  0  0  0  0  0  0  0  0  0
  -25.0643  -24.3311   26.6253 C   0  0  0  0  0  0  0  0  0  0  0  0
  -22.6013  -24.4887   26.2630 C   0  0  0  0  0  0  0  0  0  0  0  0
  -25.0902  -21.7602   20.4982 C   0  0  0  0  0  0  0  0  0  0  0  0
  -30.7287  -27.9072   19.3112 C   0  0  0  0  0  0  0  0  0  0  0  0
  -30.4500  -27.4800   17.8634 C   0  0  0  0  0  0  0  0  0  0  0  0
  -29.4626  -27.9218   20.1603 C   0  0  0  0  0  0  0  0  0  1  0  0
  -32.7185  -23.3044   19.5416 C   0  0  0  0  0  0  0  0  0  0  0  0
  -24.1664  -24.8369   24.3082 C   0  0  1  0  0  0  0  0  0  0  0  0
  -24.8620  -21.3653   22.9540 C   0  0  2  0  0  0  0  0  0  0  0  0
  -29.8706  -26.0614   17.7712 C   0  0  2  0  0  0  0  0  0  0  0  0
  -23.9654  -25.0702   25.8322 C   0  0  0  0  0  0  0  0  0  0  0  0
  -28.6700  -22.1994   19.0770 N   0  0  0  0  0  0  0  0  0  0  0  0
  -25.6168  -15.2844   20.2862 N   0  0  0  0  0  0  0  0  0  0  0  0
  -30.9229  -21.7169   19.7833 N   0  0  0  0  0  0  0  0  0  0  0  0
  -26.2468  -16.1748   19.5010 N   0  0  0  0  0  0  0  0  0  0  0  0
  -23.6204  -26.5038   22.5625 N   0  0  0  0  0  0  0  0  0  0  0  0
  -29.3190  -17.9409   20.9242 N   0  0  0  0  0  0  0  0  0  0  0  0
  -25.9278  -17.6217   17.6529 N   0  0  0  0  0  0  0  0  0  0  0  0
  -21.8731  -15.7063   18.1885 N   0  0  0  0  0  0  0  0  0  0  0  0
  -30.7826  -25.1072   18.3670 N   0  0  0  0  0  0  0  0  0  0  0  0
  -29.2114  -20.1270   20.0454 N   0  0  0  0  0  0  0  0  0  0  0  0
  -21.6682  -29.5589   22.1737 N   0  0  0  0  0  0  0  0  0  0  0  0
  -24.1110  -23.4357   23.9058 N   0  0  0  0  0  0  0  0  0  0  0  0
  -25.5125  -20.9593   21.6761 N   0  3  0  0  0  0  0  0  0  0  0  0
  -23.0792  -17.1892   16.9215 O   0  0  0  0  0  0  0  0  0  0  0  0
  -23.3018  -28.7965   23.6477 O   0  0  0  0  0  0  0  0  0  0  0  0
  -21.9400  -25.2837   23.6226 O   0  0  0  0  0  0  0  0  0  0  0  0
  -26.2268  -23.3589   22.9599 O   0  0  0  0  0  0  0  0  0  0  0  0
  -31.2110  -19.2672   20.8482 O   0  0  0  0  0  0  0  0  0  0  0  0
  -20.4936  -11.9433   22.0579 O   0  0  0  0  0  0  0  0  0  0  0  0
  -28.5086  -28.8222   19.5987 O   0  0  0  0  0  0  0  0  0  1  0  0
  -21.9289   -6.7575   23.2625 F   0  0  0  0  0  0  0  0  0  0  0  0
  -22.5443  -11.4157   23.8352 F   0  0  0  0  0  0  0  0  0  0  0  0
  1  2  1  0  0  0  0
  1  5  2  0  0  0  0
  2  6  2  0  0  0  0
  3  8  2  0  0  0  0
  3 16  1  0  0  0  0
  4  9  1  0  0  0  0
  4 16  2  0  0  0  0
  5 18  1  0  0  0  0
  6 20  1  0  0  0  0
  7 10  2  0  0  0  0
  7 19  1  0  0  0  0
  8 23  1  0  0  0  0
  9 23  2  0  0  0  0
 10 24  1  0  0  0  0
 11 12  2  0  0  0  0
 11 25  1  0  0  0  0
 12 26  1  0  0  0  0
 13 21  1  0  0  0  0
 13 24  2  0  0  0  0
 14 26  2  0  0  0  0
 14 27  1  0  0  0  0
 15 22  1  0  0  0  0
 15 65  2  0  0  0  0
 16 28  1  0  0  0  0
 17 28  1  0  0  0  0
 17 30  2  0  0  0  0
 17 32  1  0  0  0  0
 18 20  2  0  0  0  0
 18 37  1  0  0  0  0
 19 21  2  0  0  0  0
 19 38  1  0  0  0  0
 20 46  1  0  0  0  0
 21 39  1  0  0  0  0
 22 29  2  0  0  0  0
 22 73  1  0  0  0  0
 23 83  1  0  0  0  0
 24 84  1  0  0  0  0
 25 27  2  0  0  0  0
 25 83  1  0  0  0  0
 26 85  1  0  0  0  0
 27 86  1  0  0  0  0
 28 66  2  0  0  0  0
 29 60  1  0  0  0  0
 29 67  1  0  0  0  0
 30 68  1  0  0  0  0
 30 71  1  0  0  0  0
 31 65  1  0  0  0  0
 31 67  2  0  0  0  0
 31 74  1  0  0  0  0
 32 72  1  0  0  0  0
 32 78  2  0  0  0  0
 33 47  1  0  0  0  0
 33 75  1  0  0  0  0
 33 79  2  0  0  0  0
 34 61  1  0  0  0  0
 34 69  1  0  0  0  0
 34 80  2  0  0  0  0
 35 62  1  0  0  0  0
 35 76  1  0  0  0  0
 35 81  2  0  0  0  0
 36 70  1  0  0  0  0
 36 74  1  0  0  0  0
 36 82  2  0  0  0  0
 37 40  1  0  0  0  0
 38 47  1  0  0  0  0
 39 69  1  0  0  0  0
 40 42  1  0  0  0  0
 41 43  1  0  0  0  0
 41 44  1  0  0  0  0
 42 46  1  0  0  0  0
 43 48  1  0  0  0  0
 44 70  1  0  0  0  0
 45 48  1  0  0  0  0
 45 70  1  0  0  0  0
 46 75  1  0  0  0  0
 47 69  1  0  0  0  0
 48 68  1  0  0  0  0
 49 60  1  0  0  0  0
 50 60  1  0  0  0  0
 51 62  1  0  0  0  0
 52 63  1  0  0  0  0
 53 64  1  0  0  0  0
 54 64  1  0  0  0  0
 55 64  1  0  0  0  0
 56 77  1  0  0  0  0
 57 58  1  0  0  0  0
 57 59  1  0  0  0  0
 58 63  1  0  0  0  0
 59 84  1  0  0  0  0
 61 64  1  0  0  0  0
 61 76  1  0  0  0  0
 62 77  1  0  0  0  0
 63 73  1  0  0  0  0
 66 68  1  0  0  0  0
M  CHG  1  77   1
M  ISO  4  36 100  59 101  74 100  84 101
M  END
> <Batch ID>
0195

> <Smiles>
CNC(C)C(=O)NC(C(=O)N1Cc2cc([101O:1][101CH2:1]CCC(C)Nc3cnc([100NH:0][100C:0](=O)N4CCCC(n5nc(-c6ccc(Oc7ccc(F)cc7F)cc6)c(C(N)=O)c5N)C4)nc3C(C)C)ccc2CC1C(=O)NC1CCCc2ccccc21)C(C)(C)C

> <Shape>
0.204

> <Color>
0.077

> <Negative vol penalty>
0.000

$$$$

  -OEChem-04052305363D

 84 92  0     1  0  0  0  0  0999 V2000
  -17.6942  -25.9548   20.4714 C   0  0  0  0  0  0  0  0  0  0  0  0
  -18.9432  -26.1492   19.8904 C   0  0  0  0  0  0  0  0  0  0  0  0
  -26.5649  -13.5640   21.7447 C   0  0  0  0  0  0  0  0  0  0  0  0
  -26.9837  -12.0941   19.8736 C   0  0  0  0  0  0  0  0  0  0  0  0
  -17.4166  -26.5008   21.7239 C   0  0  0  0  0  0  0  0  0  0  0  0
  -19.9151  -26.8908   20.5613 C   0  0  0  0  0  0  0  0  0  0  0  0
  -25.9662  -25.9504   20.4868 C   0  0  0  0  0  0  0  0  0  0  0  0
  -25.8612  -12.5455   22.3873 C   0  0  0  0  0  0  0  0  0  0  0  0
  -26.2800  -11.0755   20.5162 C   0  0  0  0  0  0  0  0  0  0  0  0
  -26.9989  -26.5441   19.7624 C   0  0  0  0  0  0  0  0  0  0  0  0
  -23.0497  -10.2252   21.0386 C   0  0  0  0  0  0  0  0  0  0  0  0
  -22.1342   -9.4932   20.2826 C   0  0  0  0  0  0  0  0  0  0  0  0
  -27.4357  -28.0284   21.6132 C   0  0  0  0  0  0  0  0  0  0  0  0
  -23.3685   -7.4690   20.7477 C   0  0  0  0  0  0  0  0  0  0  0  0
  -27.1262  -13.3383   20.4878 C   0  0  0  0  0  0  0  0  0  0  0  0
  -29.2307  -14.6625   19.9175 C   0  0  0  0  0  0  0  0  0  0  0  0
  -18.3888  -27.2413   22.4146 C   0  0  0  0  0  0  0  0  0  0  0  0
  -25.6529  -26.3993   21.7779 C   0  0  0  0  0  0  0  0  0  0  0  0
  -19.6498  -27.4484   21.8236 C   0  0  0  0  0  0  0  0  0  0  0  0
  -26.4002  -27.4370   22.3529 C   0  0  0  0  0  0  0  0  0  0  0  0
  -25.7188  -11.3013   21.7731 C   0  0  0  0  0  0  0  0  0  0  0  0
  -27.7319  -27.5853   20.3244 C   0  0  0  0  0  0  0  0  0  0  0  0
  -24.1247   -9.5791   21.6491 C   0  0  0  0  0  0  0  0  0  0  0  0
  -22.2935   -8.1151   20.1371 C   0  0  0  0  0  0  0  0  0  0  0  0
  -24.2840   -8.2010   21.5037 C   0  0  0  0  0  0  0  0  0  0  0  0
  -27.8527  -14.3902   19.8232 C   0  0  0  0  0  0  0  0  0  0  0  0
  -29.4220  -15.7520   19.1033 C   0  0  0  0  0  0  0  0  0  0  0  0
  -30.7863  -24.0821   19.2944 C   0  0  0  0  0  0  0  0  0  0  0  0
  -29.4165  -22.3659   18.4310 C   0  0  0  0  0  0  0  0  0  0  0  0
  -30.2470  -13.9905   20.6734 C   0  0  0  0  0  0  0  0  0  0  0  0
  -23.0929  -27.7006   23.1405 C   0  0  0  0  0  0  0  0  0  0  0  0
  -24.8486  -27.3710   25.8481 C   0  0  0  0  0  0  0  0  0  0  0  0
  -27.9302  -27.0792   27.2853 C   0  0  0  0  0  0  0  0  0  0  0  0
  -27.5825  -20.9041   17.5974 C   0  0  0  0  0  0  0  0  0  0  0  0
  -18.0264  -27.8519   23.7453 C   0  0  0  0  0  0  0  0  0  0  0  0
  -24.5534  -25.7304   22.5565 C   0  0  0  0  0  0  0  0  0  0  0  0
  -26.1169  -27.9422   23.7432 C   0  0  0  0  0  0  0  0  0  0  0  0
  -19.2368  -28.3085   24.5557 C   0  0  0  0  0  0  0  0  0  0  0  0
  -26.3582  -17.9554   15.7489 C   0  0  0  0  0  0  0  0  0  0  0  0
  -20.2029  -29.0949   23.6753 C   0  0  0  0  0  0  0  0  0  0  0  0
  -26.6960  -16.7997   16.6892 C   0  0  0  0  0  0  0  0  0  0  0  0
  -26.0920  -19.2488   16.5133 C   0  0  0  0  0  0  0  0  0  0  0  0
  -27.5368  -18.4855   18.3735 C   0  0  0  0  0  0  0  0  0  0  0  0
  -20.7385  -28.2259   22.5309 C   0  0  1  0  0  0  0  0  0  0  0  0
  -23.9851  -26.6112   23.6649 C   0  0  1  0  0  0  0  0  0  0  0  0
  -27.8524  -17.1784   17.6307 C   0  0  1  0  0  0  0  0  0  0  0  0
  -29.0485  -26.8645   29.5215 C   0  0  0  0  0  0  0  0  0  0  0  0
  -32.7602  -27.2325   18.2106 C   0  0  0  0  0  0  0  0  0  0  0  0
  -32.7903  -26.5708   21.1903 C   0  0  0  0  0  0  0  0  0  0  0  0
  -24.3751  -30.3402   26.3673 C   0  0  0  0  0  0  0  0  0  0  0  0
  -26.2461  -30.2766   28.0297 C   0  0  0  0  0  0  0  0  0  0  0  0
  -24.2072  -28.8867   28.3955 C   0  0  0  0  0  0  0  0  0  0  0  0
  -29.9405  -20.1489   17.3980 C   0  0  0  0  0  0  0  0  0  0  0  0
  -29.0971  -24.4526   26.5793 C   0  0  0  0  0  0  0  0  0  0  0  0
  -31.1055  -28.6497   19.5293 C   0  0  0  0  0  0  0  0  0  0  0  0
  -29.8303  -28.7037   20.3672 C   0  0  0  0  0  0  0  0  0  1  0  0
  -25.8466  -28.2301   26.5863 C   0  0  1  0  0  0  0  0  0  0  0  0
  -28.4672  -26.1183   28.3307 C   0  0  2  0  0  0  0  0  0  0  0  0
  -31.4885  -27.2263   19.0717 C   0  0  2  0  0  0  0  0  0  0  0  0
  -31.6418  -26.2243   20.2455 C   0  0  1  0  0  0  0  0  0  0  0  0
  -25.1731  -29.4254   27.3177 C   0  0  0  0  0  0  0  0  0  0  0  0
  -27.2138  -15.2385   19.0131 N   0  0  0  0  0  0  0  0  0  0  0  0
  -29.5229  -24.4467   19.2411 N   0  0  0  0  0  0  0  0  0  0  0  0
  -28.7193  -23.4397   18.7357 N   0  0  0  0  0  0  0  0  0  0  0  0
  -28.1947  -16.0545   18.5911 N   0  0  0  0  0  0  0  0  0  0  0  0
  -25.0280  -27.2601   24.4620 N   0  0  0  0  0  0  0  0  0  0  0  0
  -27.1855  -19.5617   17.4341 N   0  0  0  0  0  0  0  0  0  0  0  0
  -30.5185  -16.4712   18.7829 N   0  0  0  0  0  0  0  0  0  0  0  0
  -29.8781  -12.8888   21.4573 N   0  0  0  0  0  0  0  0  0  0  0  0
  -31.8228  -24.8723   19.7562 N   0  0  0  0  0  0  0  0  0  0  0  0
  -21.7674  -27.3307   23.0150 N   0  0  0  0  0  0  0  0  0  0  0  0
  -26.5867  -27.3317   27.4659 N   0  0  0  0  0  0  0  0  0  0  0  0
  -28.9489  -21.1144   17.8833 N   0  0  0  0  0  0  0  0  0  0  0  0
  -29.5366  -25.2611   27.7456 N   0  3  0  0  0  0  0  0  0  0  0  0
  -31.4437  -14.3664   20.6671 O   0  0  0  0  0  0  0  0  0  0  0  0
  -23.5714  -28.7962   22.8711 O   0  0  0  0  0  0  0  0  0  0  0  0
  -23.9475  -26.8129   26.4790 O   0  0  0  0  0  0  0  0  0  0  0  0
  -28.6331  -27.5607   26.3995 O   0  0  0  0  0  0  0  0  0  0  0  0
  -26.7852  -21.8406   17.4681 O   0  0  0  0  0  0  0  0  0  0  0  0
  -25.0324  -10.3071   22.4000 O   0  0  0  0  0  0  0  0  0  0  0  0
  -28.7400  -28.1670   19.6192 O   0  0  0  0  0  0  0  0  0  1  0  0
  -21.4134   -7.4121   19.4123 F   0  0  0  0  0  0  0  0  0  0  0  0
  -25.3141   -7.5746   22.0888 F   0  0  0  0  0  0  0  0  0  0  0  0
  -31.0999  -22.4917   18.7339 S   0  0  0  0  0  0  0  0  0  0  0  0
  1  2  1  0  0  0  0
  1  5  2  0  0  0  0
  2  6  2  0  0  0  0
  3  8  2  0  0  0  0
  3 15  1  0  0  0  0
  4  9  1  0  0  0  0
  4 15  2  0  0  0  0
  5 17  1  0  0  0  0
  6 19  1  0  0  0  0
  7 10  2  0  0  0  0
  7 18  1  0  0  0  0
  8 21  1  0  0  0  0
  9 21  2  0  0  0  0
 10 22  1  0  0  0  0
 11 12  2  0  0  0  0
 11 23  1  0  0  0  0
 12 24  1  0  0  0  0
 13 20  1  0  0  0  0
 13 22  2  0  0  0  0
 14 24  2  0  0  0  0
 14 25  1  0  0  0  0
 15 26  1  0  0  0  0
 16 26  1  0  0  0  0
 16 27  2  0  0  0  0
 16 30  1  0  0  0  0
 17 19  2  0  0  0  0
 17 35  1  0  0  0  0
 18 20  2  0  0  0  0
 18 36  1  0  0  0  0
 19 44  1  0  0  0  0
 20 37  1  0  0  0  0
 21 80  1  0  0  0  0
 22 81  1  0  0  0  0
 23 25  2  0  0  0  0
 23 80  1  0  0  0  0
 24 82  1  0  0  0  0
 25 83  1  0  0  0  0
 26 62  2  0  0  0  0
 27 65  1  0  0  0  0
 27 68  1  0  0  0  0
 28 63  2  0  0  0  0
 28 70  1  0  0  0  0
 28 84  1  0  0  0  0
 29 64  2  0  0  0  0
 29 73  1  0  0  0  0
 29 84  1  0  0  0  0
 30 69  1  0  0  0  0
 30 75  2  0  0  0  0
 31 45  1  0  0  0  0
 31 71  1  0  0  0  0
 31 76  2  0  0  0  0
 32 57  1  0  0  0  0
 32 66  1  0  0  0  0
 32 77  2  0  0  0  0
 33 58  1  0  0  0  0
 33 72  1  0  0  0  0
 33 78  2  0  0  0  0
 34 67  1  0  0  0  0
 34 73  1  0  0  0  0
 34 79  2  0  0  0  0
 35 38  1  0  0  0  0
 36 45  1  0  0  0  0
 37 66  1  0  0  0  0
 38 40  1  0  0  0  0
 39 41  1  0  0  0  0
 39 42  1  0  0  0  0
 40 44  1  0  0  0  0
 41 46  1  0  0  0  0
 42 67  1  0  0  0  0
 43 46  1  0  0  0  0
 43 67  1  0  0  0  0
 44 71  1  0  0  0  0
 45 66  1  0  0  0  0
 46 65  1  0  0  0  0
 47 58  1  0  0  0  0
 48 59  1  0  0  0  0
 49 60  1  0  0  0  0
 50 61  1  0  0  0  0
 51 61  1  0  0  0  0
 52 61  1  0  0  0  0
 53 73  1  0  0  0  0
 54 74  1  0  0  0  0
 55 56  1  0  0  0  0
 55 59  1  0  0  0  0
 56 81  1  0  0  0  0
 57 61  1  0  0  0  0
 57 72  1  0  0  0  0
 58 74  1  0  0  0  0
 59 60  1  0  0  0  0
 60 70  1  0  0  0  0
 62 65  1  0  0  0  0
 63 64  1  0  0  0  0
M  CHG  1  74   1
M  ISO  4  34 100  56 101  73 100  81 101
M  END
> <Batch ID>
0195

> <Smiles>
CNC(C)C(=O)NC(C(=O)N1Cc2cc([101O:1][101CH2:1]CC(C)C(C)Nc3nnc([100N:0](C)[100C:0](=O)N4CCCC(n5nc(-c6ccc(Oc7ccc(F)cc7F)cc6)c(C(N)=O)c5N)C4)s3)ccc2CC1C(=O)NC1CCCc2ccccc21)C(C)(C)C

> <Shape>
0.234

> <Color>
0.079

> <Negative vol penalty>
0.000

$$$$

  -OEChem-04052305363D

 86 94  0     1  0  0  0  0  0999 V2000
  -32.5362  -34.5664   30.0919 C   0  0  0  0  0  0  0  0  0  0  0  0
  -32.8179  -33.7867   28.9747 C   0  0  0  0  0  0  0  0  0  0  0  0
  -23.1138   -9.7855   21.4705 C   0  0  0  0  0  0  0  0  0  0  0  0
  -23.8366  -10.7315   23.5728 C   0  0  0  0  0  0  0  0  0  0  0  0
  -31.2386  -34.6116   30.5998 C   0  0  0  0  0  0  0  0  0  0  0  0
  -31.8021  -33.0508   28.3654 C   0  0  0  0  0  0  0  0  0  0  0  0
  -31.1831  -31.8800   22.3862 C   0  0  0  0  0  0  0  0  0  0  0  0
  -22.4248   -8.7858   22.1573 C   0  0  0  0  0  0  0  0  0  0  0  0
  -23.1476   -9.7319   24.2596 C   0  0  0  0  0  0  0  0  0  0  0  0
  -31.5105  -30.7698   21.6089 C   0  0  0  0  0  0  0  0  0  0  0  0
  -23.1580   -5.8825   23.7250 C   0  0  0  0  0  0  0  0  0  0  0  0
  -23.2910   -4.5722   23.2657 C   0  0  0  0  0  0  0  0  0  0  0  0
  -29.2458  -29.9649   21.8155 C   0  0  0  0  0  0  0  0  0  0  0  0
  -20.9069   -4.4620   22.8899 C   0  0  0  0  0  0  0  0  0  0  0  0
  -29.3675  -18.4393   20.9026 C   0  0  0  0  0  0  0  0  0  0  0  0
  -23.8197  -10.7583   22.1783 C   0  0  0  0  0  0  0  0  0  0  0  0
  -24.0365  -13.0479   21.0744 C   0  0  0  0  0  0  0  0  0  0  0  0
  -30.2044  -33.8836   29.9907 C   0  0  0  0  0  0  0  0  0  0  0  0
  -29.8852  -32.0357   22.8938 C   0  0  0  0  0  0  0  0  0  0  0  0
  -30.4897  -33.0853   28.8665 C   0  0  0  0  0  0  0  0  0  0  0  0
  -28.9038  -31.0793   22.5967 C   0  0  0  0  0  0  0  0  0  0  0  0
  -22.4417   -8.7590   23.5518 C   0  0  0  0  0  0  0  0  0  0  0  0
  -30.5425  -29.8106   21.3259 C   0  0  0  0  0  0  0  0  0  0  0  0
  -21.8995   -6.4826   23.7668 C   0  0  0  0  0  0  0  0  0  0  0  0
  -22.1654   -3.8619   22.8482 C   0  0  0  0  0  0  0  0  0  0  0  0
  -20.7740   -5.7724   23.3492 C   0  0  0  0  0  0  0  0  0  0  0  0
  -24.5321  -11.7909   21.4695 C   0  0  0  0  0  0  0  0  0  0  0  0
  -31.7565  -19.0360   19.8713 C   0  0  0  0  0  0  0  0  0  0  0  0
  -30.2158  -17.4503   20.4558 C   0  0  0  0  0  0  0  0  0  0  0  0
  -30.9078  -20.0250   20.3175 C   0  0  0  0  0  0  0  0  0  0  0  0
  -25.0953  -13.6505   20.4402 C   0  0  0  0  0  0  0  0  0  0  0  0
  -22.7354  -13.6197   21.2639 C   0  0  0  0  0  0  0  0  0  0  0  0
  -28.6200  -32.1987   25.8052 C   0  0  0  0  0  0  0  0  0  0  0  0
  -25.9011  -32.8566   24.1630 C   0  0  0  0  0  0  0  0  0  0  0  0
  -24.1459  -32.6081   21.2468 C   0  0  0  0  0  0  0  0  0  0  0  0
  -30.4989  -14.9645   20.1610 C   0  0  0  0  0  0  0  0  0  0  0  0
  -28.8273  -33.9267   30.6041 C   0  0  0  0  0  0  0  0  0  0  0  0
  -29.5411  -33.2525   23.7083 C   0  0  0  0  0  0  0  0  0  0  0  0
  -27.4906  -31.2102   23.1009 C   0  0  0  0  0  0  0  0  0  0  0  0
  -27.7304  -33.4122   29.6754 C   0  0  0  0  0  0  0  0  0  0  0  0
  -29.5438  -11.7603   18.9369 C   0  0  0  0  0  0  0  0  0  0  0  0
  -28.1550  -32.1002   29.0233 C   0  0  0  0  0  0  0  0  0  0  0  0
  -28.1140  -11.5860   19.4542 C   0  0  0  0  0  0  0  0  0  0  0  0
  -30.4274  -12.4897   19.9473 C   0  0  0  0  0  0  0  0  0  0  0  0
  -28.4653  -13.5976   20.9432 C   0  0  0  0  0  0  0  0  0  0  0  0
  -29.4097  -32.2924   28.1629 C   0  0  1  0  0  0  0  0  0  0  0  0
  -28.3218  -33.0480   24.6021 C   0  0  1  0  0  0  0  0  0  0  0  0
  -27.5209  -12.9255   19.9333 C   0  0  2  0  0  0  0  0  0  0  0  0
  -33.0006  -19.8665   17.8591 C   0  0  0  0  0  0  0  0  0  0  0  0
  -21.9362  -33.2089   20.2202 C   0  0  0  0  0  0  0  0  0  0  0  0
  -24.5712  -30.5803   25.6991 C   0  0  0  0  0  0  0  0  0  0  0  0
  -22.7304  -30.6038   24.0023 C   0  0  0  0  0  0  0  0  0  0  0  0
  -23.1487  -32.6174   25.4140 C   0  0  0  0  0  0  0  0  0  0  0  0
  -25.4323  -34.2922   19.1810 C   0  0  0  0  0  0  0  0  0  0  0  0
  -33.0946  -19.3505   19.2926 C   0  0  0  0  0  0  0  0  0  0  0  0
  -31.1765  -23.7938   20.3666 C   0  0  0  0  0  0  0  0  0  0  0  0
  -30.3213  -25.0042   20.7669 C   0  0  0  0  0  0  0  0  0  0  0  0
  -30.4935  -22.4608   20.6654 C   0  0  0  0  0  0  0  0  0  0  0  0
  -30.1412  -27.5201   20.8270 C   0  0  0  0  0  0  0  0  0  1  0  0
  -24.7815  -32.0323   23.5746 C   0  0  1  0  0  0  0  0  0  0  0  0
  -23.3773  -33.6410   20.4425 C   0  0  2  0  0  0  0  0  0  0  0  0
  -31.0330  -26.3310   20.4834 C   0  0  2  0  0  0  0  0  0  0  0  0
  -23.8350  -31.4547   24.6645 C   0  0  0  0  0  0  0  0  0  0  0  0
  -29.6982  -19.7444   20.8414 N   0  0  0  0  0  0  0  0  0  0  0  0
  -25.8066  -11.6047   21.1157 N   0  0  0  0  0  0  0  0  0  0  0  0
  -31.4256  -17.7309   19.9322 N   0  0  0  0  0  0  0  0  0  0  0  0
  -26.1207  -12.7527   20.4916 N   0  0  0  0  0  0  0  0  0  0  0  0
  -27.2050  -32.4143   23.8983 N   0  0  0  0  0  0  0  0  0  0  0  0
  -29.8039  -13.7515   20.3523 N   0  0  0  0  0  0  0  0  0  0  0  0
  -25.2399  -14.8555   19.8490 N   0  0  0  0  0  0  0  0  0  0  0  0
  -21.7652  -12.8643   21.9366 N   0  0  0  0  0  0  0  0  0  0  0  0
  -29.7933  -16.1013   20.5538 N   0  0  0  0  0  0  0  0  0  0  0  0
  -31.3047  -21.3498   20.2279 N   0  0  0  0  0  0  0  0  0  0  0  0
  -29.0669  -32.9124   26.9009 N   0  0  0  0  0  0  0  0  0  0  0  0
  -24.1161  -32.8865   22.5969 N   0  0  0  0  0  0  0  0  0  0  0  0
  -24.0179  -33.8431   19.1122 N   0  3  0  0  0  0  0  0  0  0  0  0
  -22.4370  -14.7599   20.8347 O   0  0  0  0  0  0  0  0  0  0  0  0
  -28.4553  -30.9859   25.7445 O   0  0  0  0  0  0  0  0  0  0  0  0
  -25.6289  -33.8601   24.8267 O   0  0  0  0  0  0  0  0  0  0  0  0
  -24.7126  -31.6480   20.7294 O   0  0  0  0  0  0  0  0  0  0  0  0
  -31.6252  -14.9948   19.6586 O   0  0  0  0  0  0  0  0  0  0  0  0
  -31.3609  -26.3910   19.0953 O   0  0  0  0  0  0  0  0  0  0  0  0
  -21.7693   -7.7839   24.2222 O   0  0  0  0  0  0  0  0  0  0  0  0
  -30.8596  -28.7257   20.5681 O   0  0  0  0  0  0  0  0  0  1  0  0
  -22.2935   -2.6041   22.4058 F   0  0  0  0  0  0  0  0  0  0  0  0
  -19.5625   -6.3440   23.3860 F   0  0  0  0  0  0  0  0  0  0  0  0
  1  2  1  0  0  0  0
  1  5  2  0  0  0  0
  2  6  2  0  0  0  0
  3  8  2  0  0  0  0
  3 16  1  0  0  0  0
  4  9  1  0  0  0  0
  4 16  2  0  0  0  0
  5 18  1  0  0  0  0
  6 20  1  0  0  0  0
  7 10  2  0  0  0  0
  7 19  1  0  0  0  0
  8 22  1  0  0  0  0
  9 22  2  0  0  0  0
 10 23  1  0  0  0  0
 11 12  2  0  0  0  0
 11 24  1  0  0  0  0
 12 25  1  0  0  0  0
 13 21  1  0  0  0  0
 13 23  2  0  0  0  0
 14 25  2  0  0  0  0
 14 26  1  0  0  0  0
 15 29  1  0  0  0  0
 15 64  2  0  0  0  0
 16 27  1  0  0  0  0
 17 27  1  0  0  0  0
 17 31  2  0  0  0  0
 17 32  1  0  0  0  0
 18 20  2  0  0  0  0
 18 37  1  0  0  0  0
 19 21  2  0  0  0  0
 19 38  1  0  0  0  0
 20 46  1  0  0  0  0
 21 39  1  0  0  0  0
 22 83  1  0  0  0  0
 23 84  1  0  0  0  0
 24 26  2  0  0  0  0
 24 83  1  0  0  0  0
 25 85  1  0  0  0  0
 26 86  1  0  0  0  0
 27 65  2  0  0  0  0
 28 30  2  0  0  0  0
 28 55  1  0  0  0  0
 28 66  1  0  0  0  0
 29 66  2  0  0  0  0
 29 72  1  0  0  0  0
 30 64  1  0  0  0  0
 30 73  1  0  0  0  0
 31 67  1  0  0  0  0
 31 70  1  0  0  0  0
 32 71  1  0  0  0  0
 32 77  2  0  0  0  0
 33 47  1  0  0  0  0
 33 74  1  0  0  0  0
 33 78  2  0  0  0  0
 34 60  1  0  0  0  0
 34 68  1  0  0  0  0
 34 79  2  0  0  0  0
 35 61  1  0  0  0  0
 35 75  1  0  0  0  0
 35 80  2  0  0  0  0
 36 69  1  0  0  0  0
 36 72  1  0  0  0  0
 36 81  2  0  0  0  0
 37 40  1  0  0  0  0
 38 47  1  0  0  0  0
 39 68  1  0  0  0  0
 40 42  1  0  0  0  0
 41 43  1  0  0  0  0
 41 44  1  0  0  0  0
 42 46  1  0  0  0  0
 43 48  1  0  0  0  0
 44 69  1  0  0  0  0
 45 48  1  0  0  0  0
 45 69  1  0  0  0  0
 46 74  1  0  0  0  0
 47 68  1  0  0  0  0
 48 67  1  0  0  0  0
 49 55  1  0  0  0  0
 50 61  1  0  0  0  0
 51 63  1  0  0  0  0
 52 63  1  0  0  0  0
 53 63  1  0  0  0  0
 54 76  1  0  0  0  0
 56 57  1  0  0  0  0
 56 58  1  0  0  0  0
 57 62  1  0  0  0  0
 58 73  1  0  0  0  0
 59 62  1  0  0  0  0
 59 84  1  0  0  0  0
 60 63  1  0  0  0  0
 60 75  1  0  0  0  0
 61 76  1  0  0  0  0
 62 82  1  0  0  0  0
 65 67  1  0  0  0  0
M  CHG  1  76   1
M  ISO  4  36 100  59 101  72 100  84 101
M  END
> <Batch ID>
0195

> <Smiles>
CCc1nc([100NH:0][100C:0](=O)N2CCCC(n3nc(-c4ccc(Oc5ccc(F)cc5F)cc4)c(C(N)=O)c3N)C2)cnc1NCCCC(O)[101CH2:1][101O:1]c1ccc2c(c1)CN(C(=O)C(NC(=O)C(C)NC)C(C)(C)C)C(C(=O)NC1CCCc3ccccc31)C2

> <Shape>
0.276

> <Color>
0.154

> <Negative vol penalty>
0.000

$$$$

  -OEChem-04052305363D

 83 91  0     1  0  0  0  0  0999 V2000
  -27.9833  -24.2306   17.1774 C   0  0  0  0  0  0  0  0  0  0  0  0
  -26.7532  -24.6232   17.6950 C   0  0  0  0  0  0  0  0  0  0  0  0
  -27.6645  -14.9762   21.5841 C   0  0  0  0  0  0  0  0  0  0  0  0
  -26.0423  -15.2877   19.8210 C   0  0  0  0  0  0  0  0  0  0  0  0
  -29.1585  -24.5552   17.8538 C   0  0  0  0  0  0  0  0  0  0  0  0
  -26.6974  -25.3399   18.8899 C   0  0  0  0  0  0  0  0  0  0  0  0
  -23.4969  -29.2575   18.6580 C   0  0  0  0  0  0  0  0  0  0  0  0
  -27.4054  -13.6056   21.5804 C   0  0  0  0  0  0  0  0  0  0  0  0
  -25.7832  -13.9171   19.8172 C   0  0  0  0  0  0  0  0  0  0  0  0
  -22.1363  -28.9758   18.7720 C   0  0  0  0  0  0  0  0  0  0  0  0
  -24.0126  -11.7114   21.6694 C   0  0  0  0  0  0  0  0  0  0  0  0
  -22.6791  -11.3040   21.6292 C   0  0  0  0  0  0  0  0  0  0  0  0
  -22.1989  -29.6403   21.0901 C   0  0  0  0  0  0  0  0  0  0  0  0
  -23.0967  -10.1421   19.5525 C   0  0  0  0  0  0  0  0  0  0  0  0
  -20.5042  -22.9090   18.7293 C   0  0  0  0  0  0  0  0  0  0  0  0
  -26.9829  -15.8172   20.7044 C   0  0  0  0  0  0  0  0  0  0  0  0
  -28.2124  -17.9188   19.9433 C   0  0  0  0  0  0  0  0  0  0  0  0
  -29.1177  -25.2845   19.0525 C   0  0  0  0  0  0  0  0  0  0  0  0
  -24.2224  -29.7233   19.7640 C   0  0  0  0  0  0  0  0  0  0  0  0
  -27.8731  -25.6734   19.5836 C   0  0  0  0  0  0  0  0  0  0  0  0
  -23.5681  -29.9297   20.9869 C   0  0  0  0  0  0  0  0  0  0  0  0
  -21.5029  -22.1989   19.3639 C   0  0  0  0  0  0  0  0  0  0  0  0
  -26.4648  -13.0761   20.6969 C   0  0  0  0  0  0  0  0  0  0  0  0
  -21.4877  -29.1644   19.9889 C   0  0  0  0  0  0  0  0  0  0  0  0
  -24.8881  -11.3341   20.6511 C   0  0  0  0  0  0  0  0  0  0  0  0
  -22.2212  -10.5194   20.5708 C   0  0  0  0  0  0  0  0  0  0  0  0
  -24.4302  -10.5495   19.5927 C   0  0  0  0  0  0  0  0  0  0  0  0
  -27.2498  -17.2332   20.7081 C   0  0  0  0  0  0  0  0  0  0  0  0
  -21.9172  -22.7067   20.5783 C   0  0  0  0  0  0  0  0  0  0  0  0
  -28.0671  -19.2349   20.3084 C   0  0  0  0  0  0  0  0  0  0  0  0
  -20.4352  -24.4234   20.4231 C   0  0  0  0  0  0  0  0  0  0  0  0
  -29.1537  -17.4115   18.9882 C   0  0  0  0  0  0  0  0  0  0  0  0
  -26.6891  -28.6357   21.4481 C   0  0  0  0  0  0  0  0  0  0  0  0
  -26.4660  -31.5240   22.9075 C   0  0  0  0  0  0  0  0  0  0  0  0
  -24.5318  -34.2127   23.7301 C   0  0  0  0  0  0  0  0  0  0  0  0
  -23.4901  -22.3769   22.5183 C   0  0  0  0  0  0  0  0  0  0  0  0
  -30.4118  -25.5711   19.7723 C   0  0  0  0  0  0  0  0  0  0  0  0
  -25.6837  -30.0480   19.6177 C   0  0  0  0  0  0  0  0  0  0  0  0
  -24.2972  -30.4471   22.1990 C   0  0  0  0  0  0  0  0  0  0  0  0
  -30.2884  -26.6570   20.8381 C   0  0  0  0  0  0  0  0  0  0  0  0
  -26.7039  -21.9697   23.9958 C   0  0  0  0  0  0  0  0  0  0  0  0
  -29.0552  -26.4179   21.7035 C   0  0  0  0  0  0  0  0  0  0  0  0
  -27.2986  -20.7751   23.2466 C   0  0  0  0  0  0  0  0  0  0  0  0
  -25.2026  -21.8048   24.2256 C   0  0  0  0  0  0  0  0  0  0  0  0
  -25.0128  -20.3190   22.2697 C   0  0  0  0  0  0  0  0  0  0  0  0
  -27.7730  -26.4734   20.8642 C   0  0  1  0  0  0  0  0  0  0  0  0
  -26.4360  -30.0286   20.9448 C   0  0  1  0  0  0  0  0  0  0  0  0
  -26.5107  -20.4693   21.9576 C   0  0  2  0  0  0  0  0  0  0  0  0
  -24.6176  -36.3986   24.9597 C   0  0  0  0  0  0  0  0  0  0  0  0
  -26.3379  -30.0311   25.5655 C   0  0  0  0  0  0  0  0  0  0  0  0
  -25.4842  -32.1327   26.6250 C   0  0  0  0  0  0  0  0  0  0  0  0
  -27.7551  -32.0915   25.5935 C   0  0  0  0  0  0  0  0  0  0  0  0
  -23.8935  -35.7478   21.2816 C   0  0  0  0  0  0  0  0  0  0  0  0
  -18.8378  -26.3380   20.3330 C   0  0  0  0  0  0  0  0  0  0  0  0
  -19.6926  -28.4617   21.3817 C   0  0  0  0  0  0  0  0  0  1  0  0
  -25.7149  -32.0638   24.1005 C   0  0  1  0  0  0  0  0  0  0  0  0
  -24.7814  -35.7057   23.6159 C   0  0  2  0  0  0  0  0  0  0  0  0
  -18.4837  -27.5526   21.1888 C   0  0  1  0  0  0  0  0  0  0  0  0
  -26.3094  -31.5682   25.4490 C   0  0  0  0  0  0  0  0  0  0  0  0
  -19.9456  -24.0295   19.2321 N   0  0  0  0  0  0  0  0  0  0  0  0
  -26.5452  -18.0464   21.4995 N   0  0  0  0  0  0  0  0  0  0  0  0
  -21.4034  -23.8209   21.1395 N   0  0  0  0  0  0  0  0  0  0  0  0
  -27.0656  -19.2567   21.2339 N   0  0  0  0  0  0  0  0  0  0  0  0
  -25.7264  -30.7441   22.0072 N   0  0  0  0  0  0  0  0  0  0  0  0
  -24.5214  -21.5215   22.9605 N   0  0  0  0  0  0  0  0  0  0  0  0
  -22.0428  -21.0411   18.7886 N   0  0  0  0  0  0  0  0  0  0  0  0
  -28.6997  -20.3641   19.9248 N   0  0  0  0  0  0  0  0  0  0  0  0
  -29.1687  -16.0337   18.7319 N   0  0  0  0  0  0  0  0  0  0  0  0
  -22.9386  -22.0262   21.2864 N   0  0  0  0  0  0  0  0  0  0  0  0
  -19.8846  -25.5702   20.9695 N   0  0  0  0  0  0  0  0  0  0  0  0
  -27.4159  -27.8462   20.5773 N   0  0  0  0  0  0  0  0  0  0  0  0
  -25.7004  -33.5150   23.9513 N   0  0  0  0  0  0  0  0  0  0  0  0
  -23.8246  -36.3185   22.6515 N   0  3  0  0  0  0  0  0  0  0  0  0
  -29.9688  -18.1557   18.3921 O   0  0  0  0  0  0  0  0  0  0  0  0
  -26.2584  -28.3023   22.5458 O   0  0  0  0  0  0  0  0  0  0  0  0
  -27.6631  -31.7906   22.7753 O   0  0  0  0  0  0  0  0  0  0  0  0
  -23.4118  -33.7155   23.6365 O   0  0  0  0  0  0  0  0  0  0  0  0
  -23.1417  -23.3645   23.1705 O   0  0  0  0  0  0  0  0  0  0  0  0
  -17.4702  -28.3116   20.5262 O   0  0  0  0  0  0  0  0  0  0  0  0
  -26.2118  -11.7387   20.6929 O   0  0  0  0  0  0  0  0  0  0  0  0
  -20.1598  -28.8895   20.1030 O   0  0  0  0  0  0  0  0  0  1  0  0
  -20.9410  -10.1270   20.5331 F   0  0  0  0  0  0  0  0  0  0  0  0
  -25.2668  -10.1829   18.6122 F   0  0  0  0  0  0  0  0  0  0  0  0
  1  2  1  0  0  0  0
  1  5  2  0  0  0  0
  2  6  2  0  0  0  0
  3  8  2  0  0  0  0
  3 16  1  0  0  0  0
  4  9  1  0  0  0  0
  4 16  2  0  0  0  0
  5 18  1  0  0  0  0
  6 20  1  0  0  0  0
  7 10  2  0  0  0  0
  7 19  1  0  0  0  0
  8 23  1  0  0  0  0
  9 23  2  0  0  0  0
 10 24  1  0  0  0  0
 11 12  2  0  0  0  0
 11 25  1  0  0  0  0
 12 26  1  0  0  0  0
 13 21  1  0  0  0  0
 13 24  2  0  0  0  0
 14 26  2  0  0  0  0
 14 27  1  0  0  0  0
 15 22  1  0  0  0  0
 15 60  2  0  0  0  0
 16 28  1  0  0  0  0
 17 28  1  0  0  0  0
 17 30  2  0  0  0  0
 17 32  1  0  0  0  0
 18 20  2  0  0  0  0
 18 37  1  0  0  0  0
 19 21  2  0  0  0  0
 19 38  1  0  0  0  0
 20 46  1  0  0  0  0
 21 39  1  0  0  0  0
 22 29  2  0  0  0  0
 22 66  1  0  0  0  0
 23 80  1  0  0  0  0
 24 81  1  0  0  0  0
 25 27  2  0  0  0  0
 25 80  1  0  0  0  0
 26 82  1  0  0  0  0
 27 83  1  0  0  0  0
 28 61  2  0  0  0  0
 29 62  1  0  0  0  0
 29 69  1  0  0  0  0
 30 63  1  0  0  0  0
 30 67  1  0  0  0  0
 31 60  1  0  0  0  0
 31 62  2  0  0  0  0
 31 70  1  0  0  0  0
 32 68  1  0  0  0  0
 32 74  2  0  0  0  0
 33 47  1  0  0  0  0
 33 71  1  0  0  0  0
 33 75  2  0  0  0  0
 34 56  1  0  0  0  0
 34 64  1  0  0  0  0
 34 76  2  0  0  0  0
 35 57  1  0  0  0  0
 35 72  1  0  0  0  0
 35 77  2  0  0  0  0
 36 65  1  0  0  0  0
 36 69  1  0  0  0  0
 36 78  2  0  0  0  0
 37 40  1  0  0  0  0
 38 47  1  0  0  0  0
 39 64  1  0  0  0  0
 40 42  1  0  0  0  0
 41 43  1  0  0  0  0
 41 44  1  0  0  0  0
 42 46  1  0  0  0  0
 43 48  1  0  0  0  0
 44 65  1  0  0  0  0
 45 48  1  0  0  0  0
 45 65  1  0  0  0  0
 46 71  1  0  0  0  0
 47 64  1  0  0  0  0
 48 63  1  0  0  0  0
 49 57  1  0  0  0  0
 50 59  1  0  0  0  0
 51 59  1  0  0  0  0
 52 59  1  0  0  0  0
 53 73  1  0  0  0  0
 54 58  1  0  0  0  0
 54 70  1  0  0  0  0
 55 58  1  0  0  0  0
 55 81  1  0  0  0  0
 56 59  1  0  0  0  0
 56 72  1  0  0  0  0
 57 73  1  0  0  0  0
 58 79  1  0  0  0  0
 61 63  1  0  0  0  0
M  CHG  1  73   1
M  ISO  4  36 100  55 101  69 100  81 101
M  END
> <Batch ID>
0195

> <Smiles>
CNC(C)C(=O)NC(C(=O)N1Cc2cc([101O:1][101CH2:1]C(O)CNc3ncc(N)c([100NH:0][100C:0](=O)N4CCCC(n5nc(-c6ccc(Oc7ccc(F)cc7F)cc6)c(C(N)=O)c5N)C4)n3)ccc2CC1C(=O)NC1CCCc2ccccc21)C(C)(C)C

> <Shape>
0.301

> <Color>
0.076

> <Negative vol penalty>
0.000

$$$$

  -OEChem-04052305363D

 83 91  0     1  0  0  0  0  0999 V2000
  -29.4461  -30.6938   23.9667 C   0  0  0  0  0  0  0  0  0  0  0  0
  -29.6329  -29.3152   23.9688 C   0  0  0  0  0  0  0  0  0  0  0  0
  -23.2355  -25.1475   20.3224 C   0  0  0  0  0  0  0  0  0  0  0  0
  -21.8308  -24.0118   21.9268 C   0  0  0  0  0  0  0  0  0  0  0  0
  -28.6923  -31.2925   22.9581 C   0  0  0  0  0  0  0  0  0  0  0  0
  -29.0650  -28.5343   22.9628 C   0  0  0  0  0  0  0  0  0  0  0  0
  -31.4271  -23.4693   20.4585 C   0  0  0  0  0  0  0  0  0  0  0  0
  -22.2284  -26.0881   20.1064 C   0  0  0  0  0  0  0  0  0  0  0  0
  -20.8237  -24.9524   21.7108 C   0  0  0  0  0  0  0  0  0  0  0  0
  -31.1964  -22.1137   20.6887 C   0  0  0  0  0  0  0  0  0  0  0  0
  -20.1263  -28.1172   22.6693 C   0  0  0  0  0  0  0  0  0  0  0  0
  -19.4797  -28.6407   23.7888 C   0  0  0  0  0  0  0  0  0  0  0  0
  -29.6332  -22.0739   18.8518 C   0  0  0  0  0  0  0  0  0  0  0  0
  -17.3728  -27.7863   22.9715 C   0  0  0  0  0  0  0  0  0  0  0  0
  -29.6303  -14.5675   19.2804 C   0  0  0  0  0  0  0  0  0  0  0  0
  -29.2909  -13.2938   18.9207 C   0  0  0  0  0  0  0  0  0  0  0  0
  -23.0367  -24.1094   21.2326 C   0  0  0  0  0  0  0  0  0  0  0  0
  -25.1111  -23.2023   22.4081 C   0  0  0  0  0  0  0  0  0  0  0  0
  -28.1230  -30.5196   21.9338 C   0  0  0  0  0  0  0  0  0  0  0  0
  -30.7532  -24.1410   19.4284 C   0  0  0  0  0  0  0  0  0  0  0  0
  -28.3018  -29.1230   21.9403 C   0  0  0  0  0  0  0  0  0  0  0  0
  -29.8590  -23.4374   18.6090 C   0  0  0  0  0  0  0  0  0  0  0  0
  -21.0225  -25.9906   20.8006 C   0  0  0  0  0  0  0  0  0  0  0  0
  -30.2972  -21.4165   19.8872 C   0  0  0  0  0  0  0  0  0  0  0  0
  -19.3961  -27.4282   21.7008 C   0  0  0  0  0  0  0  0  0  0  0  0
  -18.1029  -28.4753   23.9399 C   0  0  0  0  0  0  0  0  0  0  0  0
  -18.0194  -27.2628   21.8519 C   0  0  0  0  0  0  0  0  0  0  0  0
  -24.0764  -23.1371   21.4558 C   0  0  0  0  0  0  0  0  0  0  0  0
  -25.8268  -22.0457   22.2173 C   0  0  0  0  0  0  0  0  0  0  0  0
  -27.9413  -13.9239   20.5584 C   0  0  0  0  0  0  0  0  0  0  0  0
  -25.3994  -24.2176   23.3786 C   0  0  0  0  0  0  0  0  0  0  0  0
  -28.7124  -26.5744   19.2966 C   0  0  0  0  0  0  0  0  0  0  0  0
  -29.0995  -26.2186   16.0957 C   0  0  0  0  0  0  0  0  0  0  0  0
  -29.6400  -17.2606   20.7208 C   0  0  0  0  0  0  0  0  0  0  0  0
  -29.9316  -24.1822   13.4867 C   0  0  0  0  0  0  0  0  0  0  0  0
  -24.9610  -16.5566   20.9797 C   0  0  0  0  0  0  0  0  0  0  0  0
  -27.2767  -31.2062   20.8912 C   0  0  0  0  0  0  0  0  0  0  0  0
  -31.0332  -25.5971   19.1759 C   0  0  0  0  0  0  0  0  0  0  0  0
  -29.1254  -24.1076   17.4771 C   0  0  0  0  0  0  0  0  0  0  0  0
  -27.0220  -30.3502   19.6532 C   0  0  0  0  0  0  0  0  0  0  0  0
  -26.3123  -18.8204   18.5005 C   0  0  0  0  0  0  0  0  0  0  0  0
  -26.6102  -28.9379   20.0561 C   0  0  0  0  0  0  0  0  0  0  0  0
  -25.9699  -20.1803   19.1116 C   0  0  0  0  0  0  0  0  0  0  0  0
  -25.1997  -17.8064   18.7495 C   0  0  0  0  0  0  0  0  0  0  0  0
  -24.4973  -18.9844   20.7971 C   0  0  0  0  0  0  0  0  0  0  0  0
  -27.7225  -28.2449   20.8524 C   0  0  1  0  0  0  0  0  0  0  0  0
  -29.9063  -26.3011   18.4263 C   0  0  1  0  0  0  0  0  0  0  0  0
  -25.5932  -20.0473   20.5991 C   0  0  2  0  0  0  0  0  0  0  0  0
  -30.1166  -24.1628   10.9841 C   0  0  0  0  0  0  0  0  0  0  0  0
  -26.0618  -26.0358   15.8750 C   0  0  0  0  0  0  0  0  0  0  0  0
  -26.3556  -25.0864   13.5770 C   0  0  0  0  0  0  0  0  0  0  0  0
  -27.1581  -27.3934   14.0835 C   0  0  0  0  0  0  0  0  0  0  0  0
  -32.8296  -23.5906   13.5896 C   0  0  0  0  0  0  0  0  0  0  0  0
  -26.8663  -13.9025   21.5811 C   0  0  0  0  0  0  0  0  0  0  0  0
  -29.3102  -18.4156   21.6595 C   0  0  0  0  0  0  0  0  0  0  0  0
  -25.4584  -14.1258   21.0081 C   0  0  0  0  0  0  0  0  0  0  0  0
  -30.2048  -19.6284   21.4525 C   0  0  0  0  0  0  0  0  0  1  0  0
  -28.4161  -25.4101   15.0195 C   0  0  1  0  0  0  0  0  0  0  0  0
  -30.8496  -24.3942   12.2964 C   0  0  2  0  0  0  0  0  0  0  0  0
  -27.0101  -25.9690   14.6612 C   0  0  0  0  0  0  0  0  0  0  0  0
  -24.1269  -22.0269   20.7148 N   0  0  0  0  0  0  0  0  0  0  0  0
  -28.7788  -14.9323   20.2952 N   0  0  0  0  0  0  0  0  0  0  0  0
  -25.2019  -21.3840   21.2016 N   0  0  0  0  0  0  0  0  0  0  0  0
  -28.2433  -12.9207   19.7278 N   0  3  0  0  0  0  0  0  0  0  0  0
  -29.4283  -25.5340   17.2743 N   0  0  0  0  0  0  0  0  0  0  0  0
  -24.9022  -17.7141   20.1859 N   0  0  0  0  0  0  0  0  0  0  0  0
  -26.9235  -21.5404   22.8209 N   0  0  0  0  0  0  0  0  0  0  0  0
  -24.5627  -25.3404   23.4396 N   0  0  0  0  0  0  0  0  0  0  0  0
  -28.7675  -27.7831   19.9640 N   0  0  0  0  0  0  0  0  0  0  0  0
  -29.3439  -25.3608   13.8947 N   0  0  0  0  0  0  0  0  0  0  0  0
  -28.7906  -16.1830   20.9572 N   0  0  0  0  0  0  0  0  0  0  0  0
  -25.3463  -15.3943   20.3230 N   0  0  0  0  0  0  0  0  0  0  0  0
  -32.0060  -23.4564   12.3605 N   0  3  0  0  0  0  0  0  0  0  0  0
  -26.3798  -24.1396   24.1572 O   0  0  0  0  0  0  0  0  0  0  0  0
  -27.8074  -25.7503   19.3570 O   0  0  0  0  0  0  0  0  0  0  0  0
  -29.3394  -27.4119   15.8952 O   0  0  0  0  0  0  0  0  0  0  0  0
  -30.5410  -17.3301   19.8916 O   0  0  0  0  0  0  0  0  0  0  0  0
  -29.7509  -23.0804   14.0005 O   0  0  0  0  0  0  0  0  0  0  0  0
  -24.6948  -16.5596   22.1865 O   0  0  0  0  0  0  0  0  0  0  0  0
  -20.0397  -26.9083   20.5902 O   0  0  0  0  0  0  0  0  0  0  0  0
  -30.0696  -20.0935   20.1102 O   0  0  0  0  0  0  0  0  0  1  0  0
  -17.4824  -28.9768   25.0158 F   0  0  0  0  0  0  0  0  0  0  0  0
  -17.3128  -26.6008   20.9254 F   0  0  0  0  0  0  0  0  0  0  0  0
  1  2  1  0  0  0  0
  1  5  2  0  0  0  0
  2  6  2  0  0  0  0
  3  8  2  0  0  0  0
  3 17  1  0  0  0  0
  4  9  1  0  0  0  0
  4 17  2  0  0  0  0
  5 19  1  0  0  0  0
  6 21  1  0  0  0  0
  7 10  2  0  0  0  0
  7 20  1  0  0  0  0
  8 23  1  0  0  0  0
  9 23  2  0  0  0  0
 10 24  1  0  0  0  0
 11 12  2  0  0  0  0
 11 25  1  0  0  0  0
 12 26  1  0  0  0  0
 13 22  1  0  0  0  0
 13 24  2  0  0  0  0
 14 26  2  0  0  0  0
 14 27  1  0  0  0  0
 15 16  2  0  0  0  0
 15 62  1  0  0  0  0
 16 64  1  0  0  0  0
 17 28  1  0  0  0  0
 18 28  1  0  0  0  0
 18 29  2  0  0  0  0
 18 31  1  0  0  0  0
 19 21  2  0  0  0  0
 19 37  1  0  0  0  0
 20 22  2  0  0  0  0
 20 38  1  0  0  0  0
 21 46  1  0  0  0  0
 22 39  1  0  0  0  0
 23 80  1  0  0  0  0
 24 81  1  0  0  0  0
 25 27  2  0  0  0  0
 25 80  1  0  0  0  0
 26 82  1  0  0  0  0
 27 83  1  0  0  0  0
 28 61  2  0  0  0  0
 29 63  1  0  0  0  0
 29 67  1  0  0  0  0
 30 54  1  0  0  0  0
 30 62  1  0  0  0  0
 30 64  2  0  0  0  0
 31 68  1  0  0  0  0
 31 74  2  0  0  0  0
 32 47  1  0  0  0  0
 32 69  1  0  0  0  0
 32 75  2  0  0  0  0
 33 58  1  0  0  0  0
 33 65  1  0  0  0  0
 33 76  2  0  0  0  0
 34 55  1  0  0  0  0
 34 71  1  0  0  0  0
 34 77  2  0  0  0  0
 35 59  1  0  0  0  0
 35 70  1  0  0  0  0
 35 78  2  0  0  0  0
 36 66  1  0  0  0  0
 36 72  1  0  0  0  0
 36 79  2  0  0  0  0
 37 40  1  0  0  0  0
 38 47  1  0  0  0  0
 39 65  1  0  0  0  0
 40 42  1  0  0  0  0
 41 43  1  0  0  0  0
 41 44  1  0  0  0  0
 42 46  1  0  0  0  0
 43 48  1  0  0  0  0
 44 66  1  0  0  0  0
 45 48  1  0  0  0  0
 45 66  1  0  0  0  0
 46 69  1  0  0  0  0
 47 65  1  0  0  0  0
 48 63  1  0  0  0  0
 49 59  1  0  0  0  0
 50 60  1  0  0  0  0
 51 60  1  0  0  0  0
 52 60  1  0  0  0  0
 53 73  1  0  0  0  0
 54 56  1  0  0  0  0
 55 57  1  0  0  0  0
 56 72  1  0  0  0  0
 57 81  1  0  0  0  0
 58 60  1  0  0  0  0
 58 70  1  0  0  0  0
 59 73  1  0  0  0  0
 61 63  1  0  0  0  0
 62 71  1  0  0  0  0
M  CHG  2  64   1  73   1
M  ISO  4  36 100  57 101  72 100  81 101
M  END
> <Batch ID>
0195

> <Smiles>
CNC(C)C(=O)NC(C(=O)N1Cc2cc([101O:1][101CH2:1]CC(=O)Nn3ccnc3CC[100NH:0][100C:0](=O)N3CCCC(n4nc(-c5ccc(Oc6ccc(F)cc6F)cc5)c(C(N)=O)c4N)C3)ccc2CC1C(=O)NC1CCCc2ccccc21)C(C)(C)C

> <Shape>
0.208

> <Color>
0.062

> <Negative vol penalty>
0.000

$$$$

  -OEChem-04052305363D

 86 94  0     1  0  0  0  0  0999 V2000
  -16.5522  -30.0245   22.9820 C   0  0  0  0  0  0  0  0  0  0  0  0
  -17.4856  -30.3750   22.0119 C   0  0  0  0  0  0  0  0  0  0  0  0
  -25.1002  -13.4778   21.1841 C   0  0  0  0  0  0  0  0  0  0  0  0
  -26.4754  -13.0176   19.2518 C   0  0  0  0  0  0  0  0  0  0  0  0
  -16.8760  -30.1399   24.3332 C   0  0  0  0  0  0  0  0  0  0  0  0
  -18.7432  -30.8421   22.3924 C   0  0  0  0  0  0  0  0  0  0  0  0
  -24.7465  -27.4571   20.2965 C   0  0  0  0  0  0  0  0  0  0  0  0
  -24.2956  -12.3818   20.8726 C   0  0  0  0  0  0  0  0  0  0  0  0
  -25.6709  -11.9215   18.9403 C   0  0  0  0  0  0  0  0  0  0  0  0
  -25.9472  -26.9883   19.7629 C   0  0  0  0  0  0  0  0  0  0  0  0
  -24.4276   -9.0198   21.2072 C   0  0  0  0  0  0  0  0  0  0  0  0
  -24.0701   -8.1617   22.2471 C   0  0  0  0  0  0  0  0  0  0  0  0
  -27.1763  -28.5920   21.0916 C   0  0  0  0  0  0  0  0  0  0  0  0
  -21.7367   -8.6299   21.8312 C   0  0  0  0  0  0  0  0  0  0  0  0
  -26.1900  -13.7958   20.3736 C   0  0  0  0  0  0  0  0  0  0  0  0
  -28.1691  -14.9364   21.5094 C   0  0  0  0  0  0  0  0  0  0  0  0
  -18.1416  -30.5994   24.7305 C   0  0  0  0  0  0  0  0  0  0  0  0
  -24.7573  -28.4860   21.2423 C   0  0  0  0  0  0  0  0  0  0  0  0
  -19.0838  -30.9650   23.7502 C   0  0  0  0  0  0  0  0  0  0  0  0
  -25.9776  -29.0573   21.6389 C   0  0  0  0  0  0  0  0  0  0  0  0
  -24.5810  -11.6036   19.7507 C   0  0  0  0  0  0  0  0  0  0  0  0
  -27.1590  -27.5545   20.1593 C   0  0  0  0  0  0  0  0  0  0  0  0
  -23.4397   -9.6830   20.4793 C   0  0  0  0  0  0  0  0  0  0  0  0
  -22.7246   -7.9667   22.5591 C   0  0  0  0  0  0  0  0  0  0  0  0
  -22.0942   -9.4880   20.7912 C   0  0  0  0  0  0  0  0  0  0  0  0
  -27.0212  -14.9282   20.6946 C   0  0  0  0  0  0  0  0  0  0  0  0
  -28.5900  -16.2437   21.4965 C   0  0  0  0  0  0  0  0  0  0  0  0
  -33.5331  -22.6521   18.9849 C   0  0  0  0  0  0  0  0  0  0  0  0
  -32.1775  -20.9565   19.1348 C   0  0  0  0  0  0  0  0  0  0  0  0
  -28.7988  -13.8586   22.2148 C   0  0  0  0  0  0  0  0  0  0  0  0
  -22.7623  -30.7169   23.5049 C   0  0  0  0  0  0  0  0  0  0  0  0
  -25.2662  -29.8756   25.0647 C   0  0  0  0  0  0  0  0  0  0  0  0
  -27.9321  -28.3835   26.5824 C   0  0  0  0  0  0  0  0  0  0  0  0
  -29.6828  -20.9825   18.7849 C   0  0  0  0  0  0  0  0  0  0  0  0
  -18.4292  -30.7520   26.2031 C   0  0  0  0  0  0  0  0  0  0  0  0
  -23.4841  -29.0641   21.7978 C   0  0  0  0  0  0  0  0  0  0  0  0
  -25.9385  -30.1855   22.6332 C   0  0  0  0  0  0  0  0  0  0  0  0
  -19.9147  -30.9002   26.5215 C   0  0  0  0  0  0  0  0  0  0  0  0
  -26.3090  -20.4216   19.7748 C   0  0  0  0  0  0  0  0  0  0  0  0
  -20.5634  -31.9126   25.5828 C   0  0  0  0  0  0  0  0  0  0  0  0
  -26.2880  -18.9431   20.1694 C   0  0  0  0  0  0  0  0  0  0  0  0
  -27.2253  -20.6766   18.5794 C   0  0  0  0  0  0  0  0  0  0  0  0
  -28.5730  -18.6866   19.1206 C   0  0  0  0  0  0  0  0  0  0  0  0
  -20.4671  -31.4522   24.1232 C   0  0  1  0  0  0  0  0  0  0  0  0
  -23.6113  -29.5027   23.2677 C   0  0  1  0  0  0  0  0  0  0  0  0
  -27.7140  -18.3906   20.3608 C   0  0  2  0  0  0  0  0  0  0  0  0
  -33.7299  -24.9716   23.0415 C   0  0  0  0  0  0  0  0  0  0  0  0
  -34.4970  -24.3115   17.3387 C   0  0  0  0  0  0  0  0  0  0  0  0
  -29.1684  -28.3090   28.7650 C   0  0  0  0  0  0  0  0  0  0  0  0
  -26.5416  -32.5727   24.4300 C   0  0  0  0  0  0  0  0  0  0  0  0
  -28.3714  -32.0069   26.0424 C   0  0  0  0  0  0  0  0  0  0  0  0
  -26.0193  -32.2085   26.8485 C   0  0  0  0  0  0  0  0  0  0  0  0
  -27.3742  -25.4982   26.9330 C   0  0  0  0  0  0  0  0  0  0  0  0
  -34.0182  -25.1467   21.5563 C   0  0  0  0  0  0  0  0  0  0  0  0
  -31.7496  -26.1112   20.9790 C   0  0  0  0  0  0  0  0  0  0  0  0
  -29.4873  -27.1761   20.4650 C   0  0  0  0  0  0  0  0  0  1  0  0
  -34.1103  -24.0351   18.7894 C   0  0  1  0  0  0  0  0  0  0  0  0
  -26.6845  -30.2070   25.4544 C   0  0  1  0  0  0  0  0  0  0  0  0
  -28.0667  -27.6842   27.9231 C   0  0  2  0  0  0  0  0  0  0  0  0
  -32.7766  -25.0088   20.6634 C   0  0  1  0  0  0  0  0  0  0  0  0
  -30.4774  -26.0647   20.1173 C   0  0  2  0  0  0  0  0  0  0  0  0
  -26.8984  -31.7316   25.6719 C   0  0  0  0  0  0  0  0  0  0  0  0
  -26.7311  -16.1346   20.2002 N   0  0  0  0  0  0  0  0  0  0  0  0
  -32.2668  -22.3141   18.8779 N   0  0  0  0  0  0  0  0  0  0  0  0
  -33.2654  -20.2442   19.4274 N   0  0  0  0  0  0  0  0  0  0  0  0
  -27.7029  -16.9131   20.7058 N   0  0  0  0  0  0  0  0  0  0  0  0
  -24.9676  -29.8843   23.6968 N   0  0  0  0  0  0  0  0  0  0  0  0
  -28.5598  -20.1297   18.8343 N   0  0  0  0  0  0  0  0  0  0  0  0
  -29.6286  -16.8745   22.0845 N   0  0  0  0  0  0  0  0  0  0  0  0
  -28.2357  -12.5786   22.1198 N   0  0  0  0  0  0  0  0  0  0  0  0
  -30.8947  -20.3573   19.0764 N   0  0  0  0  0  0  0  0  0  0  0  0
  -21.4550  -30.4307   23.8492 N   0  0  0  0  0  0  0  0  0  0  0  0
  -26.9887  -29.3882   26.6229 N   0  0  0  0  0  0  0  0  0  0  0  0
  -28.3868  -26.2422   27.7254 N   0  3  0  0  0  0  0  0  0  0  0  0
  -33.1863  -25.1099   19.2335 N   0  3  0  0  0  0  0  0  0  0  0  0
  -29.8207  -14.0287   22.9220 O   0  0  0  0  0  0  0  0  0  0  0  0
  -23.2561  -31.8321   23.3861 O   0  0  0  0  0  0  0  0  0  0  0  0
  -24.4419  -29.6211   25.9474 O   0  0  0  0  0  0  0  0  0  0  0  0
  -28.5999  -28.0721   25.5988 O   0  0  0  0  0  0  0  0  0  0  0  0
  -29.5739  -22.1849   18.5314 O   0  0  0  0  0  0  0  0  0  0  0  0
  -29.8294  -24.8047   20.2829 O   0  0  0  0  0  0  0  0  0  0  0  0
  -23.7963  -10.5339   19.4466 O   0  0  0  0  0  0  0  0  0  0  0  0
  -28.3278  -27.0890   19.6378 O   0  0  0  0  0  0  0  0  0  1  0  0
  -22.3814   -7.1415   23.5568 F   0  0  0  0  0  0  0  0  0  0  0  0
  -21.1406  -10.1214   20.0947 F   0  0  0  0  0  0  0  0  0  0  0  0
  -34.5428  -21.3246   19.3883 S   0  0  0  0  0  0  0  0  0  0  0  0
  1  2  1  0  0  0  0
  1  5  2  0  0  0  0
  2  6  2  0  0  0  0
  3  8  2  0  0  0  0
  3 15  1  0  0  0  0
  4  9  1  0  0  0  0
  4 15  2  0  0  0  0
  5 17  1  0  0  0  0
  6 19  1  0  0  0  0
  7 10  2  0  0  0  0
  7 18  1  0  0  0  0
  8 21  1  0  0  0  0
  9 21  2  0  0  0  0
 10 22  1  0  0  0  0
 11 12  2  0  0  0  0
 11 23  1  0  0  0  0
 12 24  1  0  0  0  0
 13 20  1  0  0  0  0
 13 22  2  0  0  0  0
 14 24  2  0  0  0  0
 14 25  1  0  0  0  0
 15 26  1  0  0  0  0
 16 26  1  0  0  0  0
 16 27  2  0  0  0  0
 16 30  1  0  0  0  0
 17 19  2  0  0  0  0
 17 35  1  0  0  0  0
 18 20  2  0  0  0  0
 18 36  1  0  0  0  0
 19 44  1  0  0  0  0
 20 37  1  0  0  0  0
 21 82  1  0  0  0  0
 22 83  1  0  0  0  0
 23 25  2  0  0  0  0
 23 82  1  0  0  0  0
 24 84  1  0  0  0  0
 25 85  1  0  0  0  0
 26 63  2  0  0  0  0
 27 66  1  0  0  0  0
 27 69  1  0  0  0  0
 28 57  1  0  0  0  0
 28 64  2  0  0  0  0
 28 86  1  0  0  0  0
 29 64  1  0  0  0  0
 29 65  2  0  0  0  0
 29 71  1  0  0  0  0
 30 70  1  0  0  0  0
 30 76  2  0  0  0  0
 31 45  1  0  0  0  0
 31 72  1  0  0  0  0
 31 77  2  0  0  0  0
 32 58  1  0  0  0  0
 32 67  1  0  0  0  0
 32 78  2  0  0  0  0
 33 59  1  0  0  0  0
 33 73  1  0  0  0  0
 33 79  2  0  0  0  0
 34 68  1  0  0  0  0
 34 71  1  0  0  0  0
 34 80  2  0  0  0  0
 35 38  1  0  0  0  0
 36 45  1  0  0  0  0
 37 67  1  0  0  0  0
 38 40  1  0  0  0  0
 39 41  1  0  0  0  0
 39 42  1  0  0  0  0
 40 44  1  0  0  0  0
 41 46  1  0  0  0  0
 42 68  1  0  0  0  0
 43 46  1  0  0  0  0
 43 68  1  0  0  0  0
 44 72  1  0  0  0  0
 45 67  1  0  0  0  0
 46 66  1  0  0  0  0
 47 54  1  0  0  0  0
 48 57  1  0  0  0  0
 49 59  1  0  0  0  0
 50 62  1  0  0  0  0
 51 62  1  0  0  0  0
 52 62  1  0  0  0  0
 53 74  1  0  0  0  0
 54 60  1  0  0  0  0
 55 60  1  0  0  0  0
 55 61  1  0  0  0  0
 56 61  1  0  0  0  0
 56 83  1  0  0  0  0
 57 75  1  0  0  0  0
 58 62  1  0  0  0  0
 58 73  1  0  0  0  0
 59 74  1  0  0  0  0
 60 75  1  0  0  0  0
 61 81  1  0  0  0  0
 63 66  1  0  0  0  0
 65 86  1  0  0  0  0
M  CHG  2  74   1  75   1
M  ISO  4  34 100  56 101  71 100  83 101
M  END
> <Batch ID>
0195

> <Smiles>
CCC(CC(O)[101CH2:1][101O:1]c1ccc2c(c1)CN(C(=O)C(NC(=O)C(C)NC)C(C)(C)C)C(C(=O)NC1CCCc3ccccc31)C2)NC(C)c1nc([100NH:0][100C:0](=O)N2CCCC(n3nc(-c4ccc(Oc5ccc(F)cc5F)cc4)c(C(N)=O)c3N)C2)ns1

> <Shape>
0.289

> <Color>
0.091

> <Negative vol penalty>
0.000

$$$$

  -OEChem-04052305363D

 81 89  0     1  0  0  0  0  0999 V2000
  -19.9994  -31.7787   21.0733 C   0  0  0  0  0  0  0  0  0  0  0  0
  -21.2634  -31.2043   21.1618 C   0  0  0  0  0  0  0  0  0  0  0  0
  -26.0922  -14.0965   20.9401 C   0  0  0  0  0  0  0  0  0  0  0  0
  -26.2227  -14.1713   18.5287 C   0  0  0  0  0  0  0  0  0  0  0  0
  -18.8840  -31.0811   21.5350 C   0  0  0  0  0  0  0  0  0  0  0  0
  -21.4128  -29.9323   21.7132 C   0  0  0  0  0  0  0  0  0  0  0  0
  -24.5012  -26.9847   18.9895 C   0  0  0  0  0  0  0  0  0  0  0  0
  -25.0760  -13.1448   20.8556 C   0  0  0  0  0  0  0  0  0  0  0  0
  -25.2065  -13.2196   18.4442 C   0  0  0  0  0  0  0  0  0  0  0  0
  -25.8719  -27.1983   19.1288 C   0  0  0  0  0  0  0  0  0  0  0  0
  -22.6965  -10.4294   21.2800 C   0  0  0  0  0  0  0  0  0  0  0  0
  -22.7724   -9.3229   22.1258 C   0  0  0  0  0  0  0  0  0  0  0  0
  -26.0062  -25.3167   20.6323 C   0  0  0  0  0  0  0  0  0  0  0  0
  -24.8915   -8.7134   21.1383 C   0  0  0  0  0  0  0  0  0  0  0  0
  -28.5119  -27.5967   24.3773 C   0  0  0  0  0  0  0  0  0  0  0  0
  -26.6655  -14.6098   19.7766 C   0  0  0  0  0  0  0  0  0  0  0  0
  -29.1006  -15.3544   19.9306 C   0  0  0  0  0  0  0  0  0  0  0  0
  -19.0187  -29.7959   22.0836 C   0  0  0  0  0  0  0  0  0  0  0  0
  -23.8698  -25.9405   19.6803 C   0  0  0  0  0  0  0  0  0  0  0  0
  -20.2984  -29.2174   22.1840 C   0  0  0  0  0  0  0  0  0  0  0  0
  -24.6278  -25.0904   20.4981 C   0  0  0  0  0  0  0  0  0  0  0  0
  -24.6331  -12.7063   19.6077 C   0  0  0  0  0  0  0  0  0  0  0  0
  -26.6241  -26.3660   19.9525 C   0  0  0  0  0  0  0  0  0  0  0  0
  -23.7181  -10.6780   20.3633 C   0  0  0  0  0  0  0  0  0  0  0  0
  -23.8699   -8.4649   22.0550 C   0  0  0  0  0  0  0  0  0  0  0  0
  -24.8156   -9.8200   20.2925 C   0  0  0  0  0  0  0  0  0  0  0  0
  -27.7149  -15.5934   19.8633 C   0  0  0  0  0  0  0  0  0  0  0  0
  -28.8921  -27.3638   23.0722 C   0  0  0  0  0  0  0  0  0  0  0  0
  -29.6620  -16.6060   19.9990 C   0  0  0  0  0  0  0  0  0  0  0  0
  -28.4900  -25.2932   23.6731 C   0  0  0  0  0  0  0  0  0  0  0  0
  -29.8163  -14.1120   19.9312 C   0  0  0  0  0  0  0  0  0  0  0  0
  -21.5875  -25.7674   21.8859 C   0  0  0  0  0  0  0  0  0  0  0  0
  -28.8411  -21.6764   22.4152 C   0  0  0  0  0  0  0  0  0  0  0  0
  -21.8847  -22.5765   21.3835 C   0  0  0  0  0  0  0  0  0  0  0  0
  -23.8319  -19.9779   20.3337 C   0  0  0  0  0  0  0  0  0  0  0  0
  -17.7897  -29.1000   22.6127 C   0  0  0  0  0  0  0  0  0  0  0  0
  -22.3951  -25.7069   19.4984 C   0  0  0  0  0  0  0  0  0  0  0  0
  -24.0013  -23.9426   21.2455 C   0  0  0  0  0  0  0  0  0  0  0  0
  -17.9876  -27.6036   22.8404 C   0  0  0  0  0  0  0  0  0  0  0  0
  -29.5362  -21.0984   18.8925 C   0  0  0  0  0  0  0  0  0  0  0  0
  -19.2985  -27.3443   23.5759 C   0  0  0  0  0  0  0  0  0  0  0  0
  -29.4479  -19.5752   18.8094 C   0  0  0  0  0  0  0  0  0  0  0  0
  -30.1252  -21.5547   20.2248 C   0  0  0  0  0  0  0  0  0  0  0  0
  -29.3103  -19.4996   21.3369 C   0  0  0  0  0  0  0  0  0  0  0  0
  -20.4981  -27.8295   22.7532 C   0  0  1  0  0  0  0  0  0  0  0  0
  -21.7665  -24.9301   20.6512 C   0  0  1  0  0  0  0  0  0  0  0  0
  -28.6930  -18.9993   20.0203 C   0  0  2  0  0  0  0  0  0  0  0  0
  -23.8146  -17.4817   20.0768 C   0  0  0  0  0  0  0  0  0  0  0  0
  -30.4876  -29.3138   20.3384 C   0  0  0  0  0  0  0  0  0  0  0  0
  -22.2822  -22.2665   24.3928 C   0  0  0  0  0  0  0  0  0  0  0  0
  -23.1866  -19.9712   23.9665 C   0  0  0  0  0  0  0  0  0  0  0  0
  -20.8330  -20.5175   23.3463 C   0  0  0  0  0  0  0  0  0  0  0  0
  -24.2156  -20.1605   17.4048 C   0  0  0  0  0  0  0  0  0  0  0  0
  -28.3510  -23.8219   23.6159 C   0  0  0  0  0  0  0  0  0  0  0  0
  -29.0112  -23.1744   22.3856 C   0  0  0  0  0  0  0  0  0  0  0  0
  -28.4288  -27.9149   19.9608 C   0  0  0  0  0  0  0  0  0  1  0  0
  -22.7299  -21.4751   21.9764 C   0  0  1  0  0  0  0  0  0  0  0  0
  -23.5436  -18.8163   19.3999 C   0  0  2  0  0  0  0  0  0  0  0  0
  -29.6686  -28.1263   20.8270 C   0  0  2  0  0  0  0  0  0  0  0  0
  -22.2697  -21.0803   23.4081 C   0  0  0  0  0  0  0  0  0  0  0  0
  -27.4144  -16.8946   19.8869 N   0  0  0  0  0  0  0  0  0  0  0  0
  -28.8806  -26.0435   22.6668 N   0  0  0  0  0  0  0  0  0  0  0  0
  -28.6191  -17.4844   19.9700 N   0  0  0  0  0  0  0  0  0  0  0  0
  -22.5551  -23.7591   21.0400 N   0  0  0  0  0  0  0  0  0  0  0  0
  -29.3957  -20.9627   21.3525 N   0  0  0  0  0  0  0  0  0  0  0  0
  -30.9411  -17.0299   20.0807 N   0  0  0  0  0  0  0  0  0  0  0  0
  -29.0844  -12.9192   19.8553 N   0  0  0  0  0  0  0  0  0  0  0  0
  -29.2669  -28.3676   22.1984 N   0  0  0  0  0  0  0  0  0  0  0  0
  -20.8007  -26.8875   21.6969 N   0  0  0  0  0  0  0  0  0  0  0  0
  -22.7021  -20.3774   21.0158 N   0  0  0  0  0  0  0  0  0  0  0  0
  -24.3969  -18.9071   18.1814 N   0  3  0  0  0  0  0  0  0  0  0  0
  -31.0670  -14.0607   20.0136 O   0  0  0  0  0  0  0  0  0  0  0  0
  -22.1223  -25.4220   22.9330 O   0  0  0  0  0  0  0  0  0  0  0  0
  -28.2311  -21.1582   23.3541 O   0  0  0  0  0  0  0  0  0  0  0  0
  -20.6755  -22.3918   21.2243 O   0  0  0  0  0  0  0  0  0  0  0  0
  -24.9485  -20.4783   20.4494 O   0  0  0  0  0  0  0  0  0  0  0  0
  -23.6417  -11.7774   19.5248 O   0  0  0  0  0  0  0  0  0  0  0  0
  -27.9621  -26.5726   20.0908 O   0  0  0  0  0  0  0  0  0  1  0  0
  -23.9433   -7.4032   22.8683 F   0  0  0  0  0  0  0  0  0  0  0  0
  -25.8007  -10.0543   19.4147 F   0  0  0  0  0  0  0  0  0  0  0  0
  -28.1200  -26.1096   25.1365 S   0  0  0  0  0  0  0  0  0  0  0  0
  1  2  1  0  0  0  0
  1  5  2  0  0  0  0
  2  6  2  0  0  0  0
  3  8  2  0  0  0  0
  3 16  1  0  0  0  0
  4  9  1  0  0  0  0
  4 16  2  0  0  0  0
  5 18  1  0  0  0  0
  6 20  1  0  0  0  0
  7 10  2  0  0  0  0
  7 19  1  0  0  0  0
  8 22  1  0  0  0  0
  9 22  2  0  0  0  0
 10 23  1  0  0  0  0
 11 12  2  0  0  0  0
 11 24  1  0  0  0  0
 12 25  1  0  0  0  0
 13 21  1  0  0  0  0
 13 23  2  0  0  0  0
 14 25  2  0  0  0  0
 14 26  1  0  0  0  0
 15 28  2  0  0  0  0
 15 81  1  0  0  0  0
 16 27  1  0  0  0  0
 17 27  1  0  0  0  0
 17 29  2  0  0  0  0
 17 31  1  0  0  0  0
 18 20  2  0  0  0  0
 18 36  1  0  0  0  0
 19 21  2  0  0  0  0
 19 37  1  0  0  0  0
 20 45  1  0  0  0  0
 21 38  1  0  0  0  0
 22 77  1  0  0  0  0
 23 78  1  0  0  0  0
 24 26  2  0  0  0  0
 24 77  1  0  0  0  0
 25 79  1  0  0  0  0
 26 80  1  0  0  0  0
 27 61  2  0  0  0  0
 28 62  1  0  0  0  0
 28 68  1  0  0  0  0
 29 63  1  0  0  0  0
 29 66  1  0  0  0  0
 30 54  1  0  0  0  0
 30 62  2  0  0  0  0
 30 81  1  0  0  0  0
 31 67  1  0  0  0  0
 31 72  2  0  0  0  0
 32 46  1  0  0  0  0
 32 69  1  0  0  0  0
 32 73  2  0  0  0  0
 33 55  1  0  0  0  0
 33 65  1  0  0  0  0
 33 74  2  0  0  0  0
 34 57  1  0  0  0  0
 34 64  1  0  0  0  0
 34 75  2  0  0  0  0
 35 58  1  0  0  0  0
 35 70  1  0  0  0  0
 35 76  2  0  0  0  0
 36 39  1  0  0  0  0
 37 46  1  0  0  0  0
 38 64  1  0  0  0  0
 39 41  1  0  0  0  0
 40 42  1  0  0  0  0
 40 43  1  0  0  0  0
 41 45  1  0  0  0  0
 42 47  1  0  0  0  0
 43 65  1  0  0  0  0
 44 47  1  0  0  0  0
 44 65  1  0  0  0  0
 45 69  1  0  0  0  0
 46 64  1  0  0  0  0
 47 63  1  0  0  0  0
 48 58  1  0  0  0  0
 49 59  1  0  0  0  0
 50 60  1  0  0  0  0
 51 60  1  0  0  0  0
 52 60  1  0  0  0  0
 53 71  1  0  0  0  0
 54 55  1  0  0  0  0
 56 59  1  0  0  0  0
 56 78  1  0  0  0  0
 57 60  1  0  0  0  0
 57 70  1  0  0  0  0
 58 71  1  0  0  0  0
 59 68  1  0  0  0  0
 61 63  1  0  0  0  0
M  CHG  1  71   1
M  ISO  4  33 100  55 100  56 101  78 101
M  END
> <Batch ID>
0195

> <Smiles>
CNC(C)C(=O)NC(C(=O)N1Cc2cc([101O:1][101CH2:1]C(C)Nc3csc(C[100CH2:0][100C:0](=O)N4CCCC(n5nc(-c6ccc(Oc7ccc(F)cc7F)cc6)c(C(N)=O)c5N)C4)n3)ccc2CC1C(=O)NC1CCCc2ccccc21)C(C)(C)C

> <Shape>
0.220

> <Color>
0.056

> <Negative vol penalty>
0.000

$$$$

  -OEChem-04052305363D

 83 91  0     1  0  0  0  0  0999 V2000
  -26.4760  -26.9979   21.2595 C   0  0  0  0  0  0  0  0  0  0  0  0
  -27.0568  -26.0020   20.4808 C   0  0  0  0  0  0  0  0  0  0  0  0
  -23.1173   -9.9355   19.9100 C   0  0  0  0  0  0  0  0  0  0  0  0
  -23.9244   -9.8753   22.1864 C   0  0  0  0  0  0  0  0  0  0  0  0
  -26.1423  -28.2241   20.6859 C   0  0  0  0  0  0  0  0  0  0  0  0
  -27.3033  -26.2315   19.1276 C   0  0  0  0  0  0  0  0  0  0  0  0
  -31.8968  -24.6530   17.6948 C   0  0  0  0  0  0  0  0  0  0  0  0
  -22.3947   -8.7638   20.1352 C   0  0  0  0  0  0  0  0  0  0  0  0
  -23.2018   -8.7037   22.4116 C   0  0  0  0  0  0  0  0  0  0  0  0
  -32.0633  -23.2847   17.4857 C   0  0  0  0  0  0  0  0  0  0  0  0
  -19.4885   -7.8758   21.6177 C   0  0  0  0  0  0  0  0  0  0  0  0
  -18.1726   -7.8272   21.1577 C   0  0  0  0  0  0  0  0  0  0  0  0
  -28.2441  -17.3796   21.6412 C   0  0  0  0  0  0  0  0  0  0  0  0
  -31.8456  -23.6277   15.1078 C   0  0  0  0  0  0  0  0  0  0  0  0
  -18.7314   -5.9386   19.7584 C   0  0  0  0  0  0  0  0  0  0  0  0
  -27.6088  -18.3846   20.9406 C   0  0  0  0  0  0  0  0  0  0  0  0
  -23.8823  -10.4912   20.9355 C   0  0  0  0  0  0  0  0  0  0  0  0
  -24.1868  -13.0236   20.8954 C   0  0  0  0  0  0  0  0  0  0  0  0
  -26.3937  -28.4721   19.3272 C   0  0  0  0  0  0  0  0  0  0  0  0
  -31.6922  -25.5190   16.6109 C   0  0  0  0  0  0  0  0  0  0  0  0
  -26.9714  -27.4616   18.5350 C   0  0  0  0  0  0  0  0  0  0  0  0
  -31.6793  -25.0069   15.3056 C   0  0  0  0  0  0  0  0  0  0  0  0
  -22.4369   -8.1480   21.3860 C   0  0  0  0  0  0  0  0  0  0  0  0
  -32.0349  -22.7714   16.1923 C   0  0  0  0  0  0  0  0  0  0  0  0
  -20.4259   -6.9558   21.1480 C   0  0  0  0  0  0  0  0  0  0  0  0
  -17.7940   -6.8586   20.2281 C   0  0  0  0  0  0  0  0  0  0  0  0
  -20.0473   -5.9872   20.2184 C   0  0  0  0  0  0  0  0  0  0  0  0
  -24.6294  -11.7012   20.7033 C   0  0  0  0  0  0  0  0  0  0  0  0
  -29.3797  -16.8653   21.0496 C   0  0  0  0  0  0  0  0  0  0  0  0
  -25.2607  -13.8008   20.5360 C   0  0  0  0  0  0  0  0  0  0  0  0
  -29.1584  -18.2761   19.2810 C   0  0  0  0  0  0  0  0  0  0  0  0
  -22.9183  -13.5065   21.3574 C   0  0  0  0  0  0  0  0  0  0  0  0
  -29.3450  -27.4607   15.7032 C   0  0  0  0  0  0  0  0  0  0  0  0
  -30.7565  -14.8226   20.7423 C   0  0  0  0  0  0  0  0  0  0  0  0
  -31.4702  -28.3214   13.4086 C   0  0  0  0  0  0  0  0  0  0  0  0
  -34.2042  -27.5019   11.5376 C   0  0  0  0  0  0  0  0  0  0  0  0
  -25.9723  -29.7962   18.7409 C   0  0  0  0  0  0  0  0  0  0  0  0
  -31.5409  -26.9960   16.8512 C   0  0  0  0  0  0  0  0  0  0  0  0
  -31.4832  -25.8969   14.1065 C   0  0  0  0  0  0  0  0  0  0  0  0
  -26.6099  -30.0930   17.3861 C   0  0  0  0  0  0  0  0  0  0  0  0
  -29.5719  -12.5955   18.1973 C   0  0  0  0  0  0  0  0  0  0  0  0
  -26.5181  -28.8736   16.4742 C   0  0  0  0  0  0  0  0  0  0  0  0
  -28.1553  -12.2494   18.6541 C   0  0  0  0  0  0  0  0  0  0  0  0
  -30.5142  -12.7705   19.3841 C   0  0  0  0  0  0  0  0  0  0  0  0
  -28.6304  -13.4296   20.8465 C   0  0  0  0  0  0  0  0  0  0  0  0
  -27.2772  -27.6814   17.0692 C   0  0  1  0  0  0  0  0  0  0  0  0
  -30.8256  -27.7165   15.7125 C   0  0  1  0  0  0  0  0  0  0  0  0
  -27.6392  -13.2744   19.6795 C   0  0  2  0  0  0  0  0  0  0  0  0
  -31.2232  -16.2927   22.6823 C   0  0  0  0  0  0  0  0  0  0  0  0
  -35.6855  -28.3933    9.7187 C   0  0  0  0  0  0  0  0  0  0  0  0
  -30.4788  -16.8913   16.7536 C   0  0  0  0  0  0  0  0  0  0  0  0
  -29.3017  -27.7160   11.3493 C   0  0  0  0  0  0  0  0  0  0  0  0
  -31.0790  -27.6974    9.5860 C   0  0  0  0  0  0  0  0  0  0  0  0
  -30.6346  -29.7805   10.8845 C   0  0  0  0  0  0  0  0  0  0  0  0
  -36.5944  -27.4118   13.2806 C   0  0  0  0  0  0  0  0  0  0  0  0
  -31.3361  -19.2319   16.3902 C   0  0  0  0  0  0  0  0  0  0  0  0
  -31.7472  -20.5599   17.0182 C   0  0  0  0  0  0  0  0  0  1  0  0
  -30.1345  -15.7747   21.7326 C   0  0  1  0  0  0  0  0  0  0  0  0
  -31.7932  -27.8386   12.0153 C   0  0  1  0  0  0  0  0  0  0  0  0
  -35.4743  -28.2702   11.2197 C   0  0  2  0  0  0  0  0  0  0  0  0
  -30.8180  -18.2216   17.4187 C   0  0  1  0  0  0  0  0  0  0  0  0
  -30.7039  -28.2408   10.9813 C   0  0  0  0  0  0  0  0  0  0  0  0
  -28.0401  -18.8589   19.7534 N   0  0  0  0  0  0  0  0  0  0  0  0
  -25.8865  -11.6379   20.2565 N   0  0  0  0  0  0  0  0  0  0  0  0
  -29.8670  -17.2914   19.8658 N   0  0  0  0  0  0  0  0  0  0  0  0
  -26.2430  -12.9304   20.1647 N   0  0  0  0  0  0  0  0  0  0  0  0
  -31.3335  -27.3331   14.3937 N   0  0  0  0  0  0  0  0  0  0  0  0
  -29.9778  -13.7351   20.3459 N   0  0  0  0  0  0  0  0  0  0  0  0
  -25.4512  -15.1369   20.5045 N   0  0  0  0  0  0  0  0  0  0  0  0
  -21.9262  -12.5718   21.6837 N   0  0  0  0  0  0  0  0  0  0  0  0
  -29.6296  -18.7379   18.0651 N   0  0  0  0  0  0  0  0  0  0  0  0
  -28.7016  -27.8372   16.8667 N   0  0  0  0  0  0  0  0  0  0  0  0
  -33.1261  -28.3449   11.7065 N   0  0  0  0  0  0  0  0  0  0  0  0
  -36.6578  -27.5798   11.8059 N   0  3  0  0  0  0  0  0  0  0  0  0
  -22.6663  -14.7309   21.4617 O   0  0  0  0  0  0  0  0  0  0  0  0
  -28.8246  -26.9603   14.7130 O   0  0  0  0  0  0  0  0  0  0  0  0
  -31.8992  -15.0421   20.3323 O   0  0  0  0  0  0  0  0  0  0  0  0
  -31.3509  -29.5314   13.6169 O   0  0  0  0  0  0  0  0  0  0  0  0
  -34.1709  -26.2764   11.6237 O   0  0  0  0  0  0  0  0  0  0  0  0
  -21.7318   -7.0048   21.6062 O   0  0  0  0  0  0  0  0  0  0  0  0
  -32.1965  -21.4362   15.9855 O   0  0  0  0  0  0  0  0  0  1  0  0
  -16.5299   -6.8111   19.7876 F   0  0  0  0  0  0  0  0  0  0  0  0
  -20.9432   -5.0999   19.7645 F   0  0  0  0  0  0  0  0  0  0  0  0
  1  2  1  0  0  0  0
  1  5  2  0  0  0  0
  2  6  2  0  0  0  0
  3  8  2  0  0  0  0
  3 17  1  0  0  0  0
  4  9  1  0  0  0  0
  4 17  2  0  0  0  0
  5 19  1  0  0  0  0
  6 21  1  0  0  0  0
  7 10  2  0  0  0  0
  7 20  1  0  0  0  0
  8 23  1  0  0  0  0
  9 23  2  0  0  0  0
 10 24  1  0  0  0  0
 11 12  2  0  0  0  0
 11 25  1  0  0  0  0
 12 26  1  0  0  0  0
 13 16  1  0  0  0  0
 13 29  2  0  0  0  0
 14 22  1  0  0  0  0
 14 24  2  0  0  0  0
 15 26  2  0  0  0  0
 15 27  1  0  0  0  0
 16 63  2  0  0  0  0
 17 28  1  0  0  0  0
 18 28  1  0  0  0  0
 18 30  2  0  0  0  0
 18 32  1  0  0  0  0
 19 21  2  0  0  0  0
 19 37  1  0  0  0  0
 20 22  2  0  0  0  0
 20 38  1  0  0  0  0
 21 46  1  0  0  0  0
 22 39  1  0  0  0  0
 23 80  1  0  0  0  0
 24 81  1  0  0  0  0
 25 27  2  0  0  0  0
 25 80  1  0  0  0  0
 26 82  1  0  0  0  0
 27 83  1  0  0  0  0
 28 64  2  0  0  0  0
 29 58  1  0  0  0  0
 29 65  1  0  0  0  0
 30 66  1  0  0  0  0
 30 69  1  0  0  0  0
 31 63  1  0  0  0  0
 31 65  2  0  0  0  0
 31 71  1  0  0  0  0
 32 70  1  0  0  0  0
 32 75  2  0  0  0  0
 33 47  1  0  0  0  0
 33 72  1  0  0  0  0
 33 76  2  0  0  0  0
 34 58  1  0  0  0  0
 34 68  1  0  0  0  0
 34 77  2  0  0  0  0
 35 59  1  0  0  0  0
 35 67  1  0  0  0  0
 35 78  2  0  0  0  0
 36 60  1  0  0  0  0
 36 73  1  0  0  0  0
 36 79  2  0  0  0  0
 37 40  1  0  0  0  0
 38 47  1  0  0  0  0
 39 67  1  0  0  0  0
 40 42  1  0  0  0  0
 41 43  1  0  0  0  0
 41 44  1  0  0  0  0
 42 46  1  0  0  0  0
 43 48  1  0  0  0  0
 44 68  1  0  0  0  0
 45 48  1  0  0  0  0
 45 68  1  0  0  0  0
 46 72  1  0  0  0  0
 47 67  1  0  0  0  0
 48 66  1  0  0  0  0
 49 58  1  0  0  0  0
 50 60  1  0  0  0  0
 51 61  1  0  0  0  0
 52 62  1  0  0  0  0
 53 62  1  0  0  0  0
 54 62  1  0  0  0  0
 55 74  1  0  0  0  0
 56 57  1  0  0  0  0
 56 61  1  0  0  0  0
 57 81  1  0  0  0  0
 59 62  1  0  0  0  0
 59 73  1  0  0  0  0
 60 74  1  0  0  0  0
 61 71  1  0  0  0  0
 64 66  1  0  0  0  0
M  CHG  1  74   1
M  ISO  4  34 100  57 101  58 100  81 101
M  END
> <Batch ID>
0195

> <Smiles>
CNC(C)C(=O)NC(C(=O)N1Cc2cc([101O:1][101CH2:1]CC(C)Nc3nccc([100CH:0](C)[100C:0](=O)N4CCCC(n5nc(-c6ccc(Oc7ccc(F)cc7F)cc6)c(C(N)=O)c5N)C4)n3)ccc2CC1C(=O)NC1CCCc2ccccc21)C(C)(C)C

> <Shape>
0.215

> <Color>
0.206

> <Negative vol penalty>
0.000

$$$$

  -OEChem-04052305363D

 82 90  0     1  0  0  0  0  0999 V2000
  -32.1978  -15.7397   23.6169 C   0  0  0  0  0  0  0  0  0  0  0  0
  -31.5108  -16.8546   24.0866 C   0  0  0  0  0  0  0  0  0  0  0  0
  -28.8658  -26.0733   19.8340 C   0  0  0  0  0  0  0  0  0  0  0  0
  -26.8153  -25.1610   18.9395 C   0  0  0  0  0  0  0  0  0  0  0  0
  -31.9816  -15.2859   22.3164 C   0  0  0  0  0  0  0  0  0  0  0  0
  -30.6081  -17.5170   23.2555 C   0  0  0  0  0  0  0  0  0  0  0  0
  -24.4536  -21.1755   23.4897 C   0  0  0  0  0  0  0  0  0  0  0  0
  -29.5200  -24.8725   19.5591 C   0  0  0  0  0  0  0  0  0  0  0  0
  -27.4695  -23.9601   18.6645 C   0  0  0  0  0  0  0  0  0  0  0  0
  -23.9048  -22.3878   23.0740 C   0  0  0  0  0  0  0  0  0  0  0  0
  -29.5630  -22.7499   16.3037 C   0  0  0  0  0  0  0  0  0  0  0  0
  -29.3387  -22.1617   15.0590 C   0  0  0  0  0  0  0  0  0  0  0  0
  -23.5531  -21.4666   20.8724 C   0  0  0  0  0  0  0  0  0  0  0  0
  -28.4635  -20.1907   16.1481 C   0  0  0  0  0  0  0  0  0  0  0  0
  -17.2012  -28.6776   24.4500 C   0  0  0  0  0  0  0  0  0  0  0  0
  -17.5812  -27.5153   23.8213 C   0  0  0  0  0  0  0  0  0  0  0  0
  -27.5134  -26.2175   19.5243 C   0  0  0  0  0  0  0  0  0  0  0  0
  -26.7117  -28.5721   18.9578 C   0  0  0  0  0  0  0  0  0  0  0  0
  -31.0686  -15.9374   21.4722 C   0  0  0  0  0  0  0  0  0  0  0  0
  -24.5665  -20.1013   22.5954 C   0  0  0  0  0  0  0  0  0  0  0  0
  -30.3805  -17.0723   21.9421 C   0  0  0  0  0  0  0  0  0  0  0  0
  -24.1013  -20.2409   21.2800 C   0  0  0  0  0  0  0  0  0  0  0  0
  -28.8219  -23.8159   18.9743 C   0  0  0  0  0  0  0  0  0  0  0  0
  -23.4571  -22.5344   21.7644 C   0  0  0  0  0  0  0  0  0  0  0  0
  -29.2376  -22.0585   17.4707 C   0  0  0  0  0  0  0  0  0  0  0  0
  -28.7890  -20.8821   14.9812 C   0  0  0  0  0  0  0  0  0  0  0  0
  -28.6878  -20.7789   17.3929 C   0  0  0  0  0  0  0  0  0  0  0  0
  -26.8368  -27.4575   19.8086 C   0  0  0  0  0  0  0  0  0  0  0  0
  -25.9872  -29.4821   19.6883 C   0  0  0  0  0  0  0  0  0  0  0  0
  -18.6646  -29.2579   23.0174 C   0  0  0  0  0  0  0  0  0  0  0  0
  -27.2062  -28.7675   17.6263 C   0  0  0  0  0  0  0  0  0  0  0  0
  -26.9870  -18.4276   21.3940 C   0  0  0  0  0  0  0  0  0  0  0  0
  -21.1461  -25.3274   21.7084 C   0  0  0  0  0  0  0  0  0  0  0  0
  -24.6040  -16.6296   20.1248 C   0  0  0  0  0  0  0  0  0  0  0  0
  -21.3534  -16.4313   19.1043 C   0  0  0  0  0  0  0  0  0  0  0  0
  -21.6600  -29.7005   23.5278 C   0  0  0  0  0  0  0  0  0  0  0  0
  -30.9035  -15.4383   20.0586 C   0  0  0  0  0  0  0  0  0  0  0  0
  -25.1364  -18.7916   23.0669 C   0  0  0  0  0  0  0  0  0  0  0  0
  -24.1813  -19.1117   20.2866 C   0  0  0  0  0  0  0  0  0  0  0  0
  -29.6519  -15.9721   19.3665 C   0  0  0  0  0  0  0  0  0  0  0  0
  -25.0572  -30.1384   24.4994 C   0  0  0  0  0  0  0  0  0  0  0  0
  -29.5196  -17.4755   19.5879 C   0  0  0  0  0  0  0  0  0  0  0  0
  -25.8508  -29.5954   23.3097 C   0  0  0  0  0  0  0  0  0  0  0  0
  -23.7852  -29.3301   24.7455 C   0  0  0  0  0  0  0  0  0  0  0  0
  -23.6997  -28.6424   22.3804 C   0  0  0  0  0  0  0  0  0  0  0  0
  -29.3748  -17.8029   21.0790 C   0  0  1  0  0  0  0  0  0  0  0  0
  -25.6741  -17.9297   21.9288 C   0  0  1  0  0  0  0  0  0  0  0  0
  -24.9627  -29.4594   22.0583 C   0  0  2  0  0  0  0  0  0  0  0  0
  -19.7052  -14.8433   18.0751 C   0  0  0  0  0  0  0  0  0  0  0  0
  -25.9202  -17.0322   17.4017 C   0  0  0  0  0  0  0  0  0  0  0  0
  -23.7869  -16.2701   16.3356 C   0  0  0  0  0  0  0  0  0  0  0  0
  -25.0637  -14.7192   17.8146 C   0  0  0  0  0  0  0  0  0  0  0  0
  -19.5741  -16.5650   21.4655 C   0  0  0  0  0  0  0  0  0  0  0  0
  -19.6060  -30.0202   22.1721 C   0  0  0  0  0  0  0  0  0  0  0  0
  -20.3659  -26.2202   22.6590 C   0  0  0  0  0  0  0  0  0  0  0  0
  -22.2476  -24.4994   22.3405 C   0  0  0  0  0  0  0  0  0  1  0  0
  -19.2486  -26.9890   21.9562 C   0  0  0  0  0  0  0  0  0  0  0  0
  -23.8097  -16.6596   18.8414 C   0  0  1  0  0  0  0  0  0  0  0  0
  -20.2750  -15.3970   19.3719 C   0  0  2  0  0  0  0  0  0  0  0  0
  -24.6452  -16.1924   17.6163 C   0  0  0  0  0  0  0  0  0  0  0  0
  -17.8791  -29.7588   23.9448 N   0  0  0  0  0  0  0  0  0  0  0  0
  -26.2398  -27.6405   20.9893 N   0  0  0  0  0  0  0  0  0  0  0  0
  -18.5187  -27.9030   22.9059 N   0  0  0  0  0  0  0  0  0  0  0  0
  -25.7326  -28.8807   20.8857 N   0  0  0  0  0  0  0  0  0  0  0  0
  -24.7522  -17.8529   20.7937 N   0  0  0  0  0  0  0  0  0  0  0  0
  -22.9871  -29.2403   23.5204 N   0  0  0  0  0  0  0  0  0  0  0  0
  -25.5496  -30.7299   19.4168 N   0  0  0  0  0  0  0  0  0  0  0  0
  -27.9313  -27.7304   17.0239 N   0  0  0  0  0  0  0  0  0  0  0  0
  -28.0269  -17.5276   21.5284 N   0  0  0  0  0  0  0  0  0  0  0  0
  -22.6105  -15.8651   19.0848 N   0  0  0  0  0  0  0  0  0  0  0  0
  -20.9764  -29.5847   22.3236 N   0  0  0  0  0  0  0  0  0  0  0  0
  -19.1602  -16.0015   20.1547 N   0  3  0  0  0  0  0  0  0  0  0  0
  -27.0249  -29.8366   16.9956 O   0  0  0  0  0  0  0  0  0  0  0  0
  -27.0515  -19.5450   20.8950 O   0  0  0  0  0  0  0  0  0  0  0  0
  -20.9059  -25.2741   20.5032 O   0  0  0  0  0  0  0  0  0  0  0  0
  -25.0695  -15.5590   20.5230 O   0  0  0  0  0  0  0  0  0  0  0  0
  -21.1051  -17.6218   18.9264 O   0  0  0  0  0  0  0  0  0  0  0  0
  -21.1257  -30.1841   24.5316 O   0  0  0  0  0  0  0  0  0  0  0  0
  -29.4601  -22.6441   18.7057 O   0  0  0  0  0  0  0  0  0  0  0  0
  -22.9215  -23.7169   21.3558 O   0  0  0  0  0  0  0  0  0  1  0  0
  -28.5723  -20.3180   13.7858 F   0  0  0  0  0  0  0  0  0  0  0  0
  -28.3721  -20.1102   18.5104 F   0  0  0  0  0  0  0  0  0  0  0  0
  1  2  1  0  0  0  0
  1  5  2  0  0  0  0
  2  6  2  0  0  0  0
  3  8  2  0  0  0  0
  3 17  1  0  0  0  0
  4  9  1  0  0  0  0
  4 17  2  0  0  0  0
  5 19  1  0  0  0  0
  6 21  1  0  0  0  0
  7 10  2  0  0  0  0
  7 20  1  0  0  0  0
  8 23  1  0  0  0  0
  9 23  2  0  0  0  0
 10 24  1  0  0  0  0
 11 12  2  0  0  0  0
 11 25  1  0  0  0  0
 12 26  1  0  0  0  0
 13 22  1  0  0  0  0
 13 24  2  0  0  0  0
 14 26  2  0  0  0  0
 14 27  1  0  0  0  0
 15 16  2  0  0  0  0
 15 61  1  0  0  0  0
 16 63  1  0  0  0  0
 17 28  1  0  0  0  0
 18 28  1  0  0  0  0
 18 29  2  0  0  0  0
 18 31  1  0  0  0  0
 19 21  2  0  0  0  0
 19 37  1  0  0  0  0
 20 22  2  0  0  0  0
 20 38  1  0  0  0  0
 21 46  1  0  0  0  0
 22 39  1  0  0  0  0
 23 79  1  0  0  0  0
 24 80  1  0  0  0  0
 25 27  2  0  0  0  0
 25 79  1  0  0  0  0
 26 81  1  0  0  0  0
 27 82  1  0  0  0  0
 28 62  2  0  0  0  0
 29 64  1  0  0  0  0
 29 67  1  0  0  0  0
 30 54  1  0  0  0  0
 30 61  2  0  0  0  0
 30 63  1  0  0  0  0
 31 68  1  0  0  0  0
 31 73  2  0  0  0  0
 32 47  1  0  0  0  0
 32 69  1  0  0  0  0
 32 74  2  0  0  0  0
 33 55  1  0  0  0  0
 33 56  1  0  0  0  0
 33 75  2  0  0  0  0
 34 58  1  0  0  0  0
 34 65  1  0  0  0  0
 34 76  2  0  0  0  0
 35 59  1  0  0  0  0
 35 70  1  0  0  0  0
 35 77  2  0  0  0  0
 36 66  1  0  0  0  0
 36 71  1  0  0  0  0
 36 78  2  0  0  0  0
 37 40  1  0  0  0  0
 38 47  1  0  0  0  0
 39 65  1  0  0  0  0
 40 42  1  0  0  0  0
 41 43  1  0  0  0  0
 41 44  1  0  0  0  0
 42 46  1  0  0  0  0
 43 48  1  0  0  0  0
 44 66  1  0  0  0  0
 45 48  1  0  0  0  0
 45 66  1  0  0  0  0
 46 69  1  0  0  0  0
 47 65  1  0  0  0  0
 48 64  1  0  0  0  0
 49 59  1  0  0  0  0
 50 60  1  0  0  0  0
 51 60  1  0  0  0  0
 52 60  1  0  0  0  0
 53 72  1  0  0  0  0
 54 71  1  0  0  0  0
 55 57  1  0  0  0  0
 56 80  1  0  0  0  0
 57 63  1  0  0  0  0
 58 60  1  0  0  0  0
 58 70  1  0  0  0  0
 59 72  1  0  0  0  0
 62 64  1  0  0  0  0
M  CHG  1  72   1
M  ISO  4  36 100  56 101  71 100  80 101
M  END
> <Batch ID>
0195

> <Smiles>
CNC(C)C(=O)NC(C(=O)N1Cc2cc([101O:1][101CH2:1]C(=O)CCn3ccnc3C[100NH:0][100C:0](=O)N3CCCC(n4nc(-c5ccc(Oc6ccc(F)cc6F)cc5)c(C(N)=O)c4N)C3)ccc2CC1C(=O)NC1CCCc2ccccc21)C(C)(C)C

> <Shape>
0.195

> <Color>
0.069

> <Negative vol penalty>
0.000

$$$$

  -OEChem-04052305363D

 83 91  0     1  0  0  0  0  0999 V2000
  -29.0142  -11.0945   19.0317 C   0  0  0  0  0  0  0  0  0  0  0  0
  -28.1004  -12.0580   18.6168 C   0  0  0  0  0  0  0  0  0  0  0  0
  -24.8912  -30.6021   20.5205 C   0  0  0  0  0  0  0  0  0  0  0  0
  -24.3657  -28.9102   22.1631 C   0  0  0  0  0  0  0  0  0  0  0  0
  -30.0050  -11.4267   19.9546 C   0  0  0  0  0  0  0  0  0  0  0  0
  -28.1763  -13.3541   19.1256 C   0  0  0  0  0  0  0  0  0  0  0  0
  -27.6702  -16.8849   15.5308 C   0  0  0  0  0  0  0  0  0  0  0  0
  -24.4775  -31.5939   21.4096 C   0  0  0  0  0  0  0  0  0  0  0  0
  -23.9520  -29.9021   23.0524 C   0  0  0  0  0  0  0  0  0  0  0  0
  -26.3796  -17.1476   15.0736 C   0  0  0  0  0  0  0  0  0  0  0  0
  -23.8988  -34.5943   23.3790 C   0  0  0  0  0  0  0  0  0  0  0  0
  -24.7076  -35.7226   23.5139 C   0  0  0  0  0  0  0  0  0  0  0  0
  -26.2832  -19.1006   16.4863 C   0  0  0  0  0  0  0  0  0  0  0  0
  -26.5358  -34.3243   24.2486 C   0  0  0  0  0  0  0  0  0  0  0  0
  -24.8353  -29.2602   20.8972 C   0  0  0  0  0  0  0  0  0  0  0  0
  -26.5573  -27.7008   19.8434 C   0  0  0  0  0  0  0  0  0  0  0  0
  -30.0990  -12.7300   20.4676 C   0  0  0  0  0  0  0  0  0  0  0  0
  -28.2739  -17.7233   16.4790 C   0  0  0  0  0  0  0  0  0  0  0  0
  -29.1685  -13.7037   20.0572 C   0  0  0  0  0  0  0  0  0  0  0  0
  -27.5826  -18.8478   16.9520 C   0  0  0  0  0  0  0  0  0  0  0  0
  -24.0079  -31.2440   22.6756 C   0  0  0  0  0  0  0  0  0  0  0  0
  -25.6848  -18.2540   15.5535 C   0  0  0  0  0  0  0  0  0  0  0  0
  -24.4084  -33.3309   23.6789 C   0  0  0  0  0  0  0  0  0  0  0  0
  -26.0261  -35.5876   23.9487 C   0  0  0  0  0  0  0  0  0  0  0  0
  -25.7269  -33.1959   24.1137 C   0  0  0  0  0  0  0  0  0  0  0  0
  -25.2619  -28.2351   19.9789 C   0  0  0  0  0  0  0  0  0  0  0  0
  -20.5986  -19.7504   18.6623 C   0  0  0  0  0  0  0  0  0  0  0  0
  -26.4402  -26.7658   18.8441 C   0  0  0  0  0  0  0  0  0  0  0  0
  -20.9505  -19.9061   19.9867 C   0  0  0  0  0  0  0  0  0  0  0  0
  -21.4542  -21.7662   18.5413 C   0  0  0  0  0  0  0  0  0  0  0  0
  -27.7589  -28.0210   20.5570 C   0  0  0  0  0  0  0  0  0  0  0  0
  -29.3613  -17.3419   19.4413 C   0  0  0  0  0  0  0  0  0  0  0  0
  -30.3912  -20.3915   19.0394 C   0  0  0  0  0  0  0  0  0  0  0  0
  -30.0478  -23.3757   17.4196 C   0  0  0  0  0  0  0  0  0  0  0  0
  -21.8503  -23.5362   16.7930 C   0  0  0  0  0  0  0  0  0  0  0  0
  -31.1579  -13.0296   21.4989 C   0  0  0  0  0  0  0  0  0  0  0  0
  -29.6769  -17.4412   16.9420 C   0  0  0  0  0  0  0  0  0  0  0  0
  -28.1937  -19.7903   17.9553 C   0  0  0  0  0  0  0  0  0  0  0  0
  -31.4013  -14.5223   21.7063 C   0  0  0  0  0  0  0  0  0  0  0  0
  -23.8806  -25.7811   14.9182 C   0  0  0  0  0  0  0  0  0  0  0  0
  -30.0761  -15.2655   21.8413 C   0  0  0  0  0  0  0  0  0  0  0  0
  -24.5878  -26.6125   15.9910 C   0  0  0  0  0  0  0  0  0  0  0  0
  -22.4448  -25.4444   15.3165 C   0  0  0  0  0  0  0  0  0  0  0  0
  -23.0049  -25.6449   17.7071 C   0  0  0  0  0  0  0  0  0  0  0  0
  -29.2336  -15.1269   20.5675 C   0  0  1  0  0  0  0  0  0  0  0  0
  -29.9984  -18.0724   18.2932 C   0  0  1  0  0  0  0  0  0  0  0  0
  -24.4750  -25.9537   17.3798 C   0  0  2  0  0  0  0  0  0  0  0  0
  -18.4085  -18.6275   18.1818 C   0  0  0  0  0  0  0  0  0  0  0  0
  -30.5876  -25.7285   16.7340 C   0  0  0  0  0  0  0  0  0  0  0  0
  -28.9242  -21.0946   21.6208 C   0  0  0  0  0  0  0  0  0  0  0  0
  -29.1065  -23.5092   20.9846 C   0  0  0  0  0  0  0  0  0  0  0  0
  -31.1712  -22.1643   21.3732 C   0  0  0  0  0  0  0  0  0  0  0  0
  -31.8132  -22.4559   15.2295 C   0  0  0  0  0  0  0  0  0  0  0  0
  -21.8238  -18.0173   16.3905 C   0  0  0  0  0  0  0  0  0  0  0  0
  -22.1529  -17.7058   14.9267 C   0  0  0  0  0  0  0  0  0  0  0  0
  -20.3277  -18.3033   16.5726 C   0  0  0  0  0  0  0  0  0  0  0  0
  -23.6300  -17.3922   14.7221 C   0  0  0  0  0  0  0  0  0  1  0  0
  -19.9332  -18.5312   18.0474 C   0  0  1  0  0  0  0  0  0  0  0  0
  -29.8030  -21.7598   19.2860 C   0  0  1  0  0  0  0  0  0  0  0  0
  -31.0667  -24.2854   16.7574 C   0  0  2  0  0  0  0  0  0  0  0  0
  -29.7387  -22.1133   20.7987 C   0  0  0  0  0  0  0  0  0  0  0  0
  -24.3863  -27.6854   19.1333 N   0  0  0  0  0  0  0  0  0  0  0  0
  -20.8863  -20.8161   17.8321 N   0  0  0  0  0  0  0  0  0  0  0  0
  -25.1329  -26.7959   18.4567 N   0  0  0  0  0  0  0  0  0  0  0  0
  -29.5654  -19.4683   18.3823 N   0  0  0  0  0  0  0  0  0  0  0  0
  -22.4163  -24.8196   16.6407 N   0  0  0  0  0  0  0  0  0  0  0  0
  -27.3291  -25.9291   18.2677 N   0  0  0  0  0  0  0  0  0  0  0  0
  -20.7838  -19.0274   21.0048 N   0  0  0  0  0  0  0  0  0  0  0  0
  -27.7025  -29.0060   21.5524 N   0  0  0  0  0  0  0  0  0  0  0  0
  -21.9092  -23.0303   18.0912 N   0  0  0  0  0  0  0  0  0  0  0  0
  -29.7280  -16.0130   19.5356 N   0  0  0  0  0  0  0  0  0  0  0  0
  -30.5906  -22.6927   18.4873 N   0  0  0  0  0  0  0  0  0  0  0  0
  -31.3152  -23.8500   15.3539 N   0  3  0  0  0  0  0  0  0  0  0  0
  -28.8539  -27.4621   20.3077 O   0  0  0  0  0  0  0  0  0  0  0  0
  -28.5950  -17.9401   20.1874 O   0  0  0  0  0  0  0  0  0  0  0  0
  -31.5434  -20.1529   19.4095 O   0  0  0  0  0  0  0  0  0  0  0  0
  -28.8855  -23.2832   17.0310 O   0  0  0  0  0  0  0  0  0  0  0  0
  -21.3745  -22.9191   15.8365 O   0  0  0  0  0  0  0  0  0  0  0  0
  -23.6044  -32.2116   23.5436 O   0  0  0  0  0  0  0  0  0  0  0  0
  -24.4247  -18.5124   15.1094 O   0  0  0  0  0  0  0  0  0  1  0  0
  -26.8032  -36.6711   24.0768 F   0  0  0  0  0  0  0  0  0  0  0  0
  -26.2224  -31.9847   24.4022 F   0  0  0  0  0  0  0  0  0  0  0  0
  -21.6734  -21.4448   20.2127 S   0  0  0  0  0  0  0  0  0  0  0  0
  1  2  1  0  0  0  0
  1  5  2  0  0  0  0
  2  6  2  0  0  0  0
  3  8  2  0  0  0  0
  3 15  1  0  0  0  0
  4  9  1  0  0  0  0
  4 15  2  0  0  0  0
  5 17  1  0  0  0  0
  6 19  1  0  0  0  0
  7 10  2  0  0  0  0
  7 18  1  0  0  0  0
  8 21  1  0  0  0  0
  9 21  2  0  0  0  0
 10 22  1  0  0  0  0
 11 12  2  0  0  0  0
 11 23  1  0  0  0  0
 12 24  1  0  0  0  0
 13 20  1  0  0  0  0
 13 22  2  0  0  0  0
 14 24  2  0  0  0  0
 14 25  1  0  0  0  0
 15 26  1  0  0  0  0
 16 26  1  0  0  0  0
 16 28  2  0  0  0  0
 16 31  1  0  0  0  0
 17 19  2  0  0  0  0
 17 36  1  0  0  0  0
 18 20  2  0  0  0  0
 18 37  1  0  0  0  0
 19 45  1  0  0  0  0
 20 38  1  0  0  0  0
 21 79  1  0  0  0  0
 22 80  1  0  0  0  0
 23 25  2  0  0  0  0
 23 79  1  0  0  0  0
 24 81  1  0  0  0  0
 25 82  1  0  0  0  0
 26 62  2  0  0  0  0
 27 29  2  0  0  0  0
 27 58  1  0  0  0  0
 27 63  1  0  0  0  0
 28 64  1  0  0  0  0
 28 67  1  0  0  0  0
 29 68  1  0  0  0  0
 29 83  1  0  0  0  0
 30 63  2  0  0  0  0
 30 70  1  0  0  0  0
 30 83  1  0  0  0  0
 31 69  1  0  0  0  0
 31 74  2  0  0  0  0
 32 46  1  0  0  0  0
 32 71  1  0  0  0  0
 32 75  2  0  0  0  0
 33 59  1  0  0  0  0
 33 65  1  0  0  0  0
 33 76  2  0  0  0  0
 34 60  1  0  0  0  0
 34 72  1  0  0  0  0
 34 77  2  0  0  0  0
 35 66  1  0  0  0  0
 35 70  1  0  0  0  0
 35 78  2  0  0  0  0
 36 39  1  0  0  0  0
 37 46  1  0  0  0  0
 38 65  1  0  0  0  0
 39 41  1  0  0  0  0
 40 42  1  0  0  0  0
 40 43  1  0  0  0  0
 41 45  1  0  0  0  0
 42 47  1  0  0  0  0
 43 66  1  0  0  0  0
 44 47  1  0  0  0  0
 44 66  1  0  0  0  0
 45 71  1  0  0  0  0
 46 65  1  0  0  0  0
 47 64  1  0  0  0  0
 48 58  1  0  0  0  0
 49 60  1  0  0  0  0
 50 61  1  0  0  0  0
 51 61  1  0  0  0  0
 52 61  1  0  0  0  0
 53 73  1  0  0  0  0
 54 55  1  0  0  0  0
 54 56  1  0  0  0  0
 55 57  1  0  0  0  0
 56 58  1  0  0  0  0
 57 80  1  0  0  0  0
 59 61  1  0  0  0  0
 59 72  1  0  0  0  0
 60 73  1  0  0  0  0
 62 64  1  0  0  0  0
M  CHG  1  73   1
M  ISO  4  35 100  57 101  70 100  80 101
M  END
> <Batch ID>
0195

> <Smiles>
CNC(C)C(=O)NC(C(=O)N1Cc2cc([101O:1][101CH2:1]CCCC(C)c3nc([100NH:0][100C:0](=O)N4CCCC(n5nc(-c6ccc(Oc7ccc(F)cc7F)cc6)c(C(N)=O)c5N)C4)sc3N)ccc2CC1C(=O)NC1CCCc2ccccc21)C(C)(C)C

> <Shape>
0.251

> <Color>
0.054

> <Negative vol penalty>
0.000

$$$$

  -OEChem-04052305363D

 84 92  0     1  0  0  0  0  0999 V2000
  -36.1184  -28.8785   20.9539 C   0  0  0  0  0  0  0  0  0  0  0  0
  -35.2912  -28.2775   21.8973 C   0  0  0  0  0  0  0  0  0  0  0  0
  -23.0662   -9.8738   19.9498 C   0  0  0  0  0  0  0  0  0  0  0  0
  -23.8598   -9.8737   22.2318 C   0  0  0  0  0  0  0  0  0  0  0  0
  -36.9526  -28.0936   20.1591 C   0  0  0  0  0  0  0  0  0  0  0  0
  -35.2969  -26.8910   22.0456 C   0  0  0  0  0  0  0  0  0  0  0  0
  -34.5451  -23.7413   27.2437 C   0  0  0  0  0  0  0  0  0  0  0  0
  -22.3285   -8.7181   20.2063 C   0  0  0  0  0  0  0  0  0  0  0  0
  -23.1221   -8.7180   22.4882 C   0  0  0  0  0  0  0  0  0  0  0  0
  -33.4377  -23.1057   27.8034 C   0  0  0  0  0  0  0  0  0  0  0  0
  -21.1629   -5.9715   23.8434 C   0  0  0  0  0  0  0  0  0  0  0  0
  -20.4240   -5.9218   25.0254 C   0  0  0  0  0  0  0  0  0  0  0  0
  -29.6901  -18.8602   22.5967 C   0  0  0  0  0  0  0  0  0  0  0  0
  -29.4158  -19.6556   23.7466 C   0  0  0  0  0  0  0  0  0  0  0  0
  -34.1671  -21.0117   26.8535 C   0  0  0  0  0  0  0  0  0  0  0  0
  -19.1647   -7.8591   24.3197 C   0  0  0  0  0  0  0  0  0  0  0  0
  -23.8319  -10.4516   20.9625 C   0  0  0  0  0  0  0  0  0  0  0  0
  -24.1665  -12.9779   20.8472 C   0  0  0  0  0  0  0  0  0  0  0  0
  -36.9757  -26.6975   20.3044 C   0  0  0  0  0  0  0  0  0  0  0  0
  -35.4676  -23.0178   26.4742 C   0  0  0  0  0  0  0  0  0  0  0  0
  -36.1313  -26.0865   21.2510 C   0  0  0  0  0  0  0  0  0  0  0  0
  -35.2867  -21.6400   26.2872 C   0  0  0  0  0  0  0  0  0  0  0  0
  -22.3564   -8.1402   21.4755 C   0  0  0  0  0  0  0  0  0  0  0  0
  -33.2470  -21.7412   27.6060 C   0  0  0  0  0  0  0  0  0  0  0  0
  -20.9027   -6.9650   22.8995 C   0  0  0  0  0  0  0  0  0  0  0  0
  -19.4249   -6.8655   25.2636 C   0  0  0  0  0  0  0  0  0  0  0  0
  -19.9036   -7.9088   23.1377 C   0  0  0  0  0  0  0  0  0  0  0  0
  -24.5945  -11.6451   20.6981 C   0  0  0  0  0  0  0  0  0  0  0  0
  -30.5891  -17.8522   22.8672 C   0  0  0  0  0  0  0  0  0  0  0  0
  -25.2516  -13.7311   20.4708 C   0  0  0  0  0  0  0  0  0  0  0  0
  -30.1156  -19.2249   24.8524 C   0  0  0  0  0  0  0  0  0  0  0  0
  -22.9012  -13.4893   21.2868 C   0  0  0  0  0  0  0  0  0  0  0  0
  -36.4530  -23.1381   23.4546 C   0  0  0  0  0  0  0  0  0  0  0  0
  -30.7578  -14.6947   20.6787 C   0  0  0  0  0  0  0  0  0  0  0  0
  -38.5634  -20.8903   24.4625 C   0  0  0  0  0  0  0  0  0  0  0  0
  -29.4371  -20.7956   26.7007 C   0  0  0  0  0  0  0  0  0  0  0  0
  -39.3296  -18.4339   26.7044 C   0  0  0  0  0  0  0  0  0  0  0  0
  -37.8595  -25.8870   19.3898 C   0  0  0  0  0  0  0  0  0  0  0  0
  -36.6712  -23.7130   25.8995 C   0  0  0  0  0  0  0  0  0  0  0  0
  -36.2587  -20.8141   25.4863 C   0  0  0  0  0  0  0  0  0  0  0  0
  -38.0804  -24.4543   19.8684 C   0  0  0  0  0  0  0  0  0  0  0  0
  -29.5612  -12.4051   18.1955 C   0  0  0  0  0  0  0  0  0  0  0  0
  -36.7575  -23.8220   20.2889 C   0  0  0  0  0  0  0  0  0  0  0  0
  -28.1381  -12.0895   18.6542 C   0  0  0  0  0  0  0  0  0  0  0  0
  -30.4989  -12.6052   19.3821 C   0  0  0  0  0  0  0  0  0  0  0  0
  -28.6148  -13.3304   20.8125 C   0  0  0  0  0  0  0  0  0  0  0  0
  -36.1273  -24.5875   21.4587 C   0  0  1  0  0  0  0  0  0  0  0  0
  -37.2715  -22.9787   24.7046 C   0  0  1  0  0  0  0  0  0  0  0  0
  -27.6284  -13.1512   19.6449 C   0  0  2  0  0  0  0  0  0  0  0  0
  -27.2906  -20.7954   28.8408 C   0  0  0  0  0  0  0  0  0  0  0  0
  -41.1074  -16.7486   27.2490 C   0  0  0  0  0  0  0  0  0  0  0  0
  -37.5987  -19.1329   22.1623 C   0  0  0  0  0  0  0  0  0  0  0  0
  -38.6723  -17.1771   23.2982 C   0  0  0  0  0  0  0  0  0  0  0  0
  -40.0711  -19.0970   22.5366 C   0  0  0  0  0  0  0  0  0  0  0  0
  -39.8314  -19.6480   29.3564 C   0  0  0  0  0  0  0  0  0  0  0  0
  -31.1254  -16.8254   21.9475 C   0  0  0  0  0  0  0  0  0  0  0  0
  -30.1416  -15.6838   21.6358 C   0  0  0  0  0  0  0  0  0  0  0  0
  -28.5536  -21.6435   28.9260 C   0  0  0  0  0  0  0  0  0  0  0  0
  -30.9841  -21.8991   28.3206 C   0  0  0  0  0  0  0  0  0  1  0  0
  -38.5619  -19.3829   24.5447 C   0  0  1  0  0  0  0  0  0  0  0  0
  -29.7447  -21.0033   28.1926 C   0  0  2  0  0  0  0  0  0  0  0  0
  -40.5907  -18.1562   27.5026 C   0  0  2  0  0  0  0  0  0  0  0  0
  -38.7065  -18.7131   23.1490 C   0  0  0  0  0  0  0  0  0  0  0  0
  -25.8533  -11.5536   20.2609 N   0  0  0  0  0  0  0  0  0  0  0  0
  -26.2255  -12.8385   20.1319 N   0  0  0  0  0  0  0  0  0  0  0  0
  -37.4166  -21.5407   24.9395 N   0  0  0  0  0  0  0  0  0  0  0  0
  -29.9685  -13.6048   20.3109 N   0  0  0  0  0  0  0  0  0  0  0  0
  -25.4581  -15.0633   20.3998 N   0  0  0  0  0  0  0  0  0  0  0  0
  -21.8963  -12.5767   21.6354 N   0  0  0  0  0  0  0  0  0  0  0  0
  -30.1426  -19.7153   26.1795 N   0  0  0  0  0  0  0  0  0  0  0  0
  -36.7879  -24.2464   22.7003 N   0  0  0  0  0  0  0  0  0  0  0  0
  -39.6128  -19.0246   25.4911 N   0  0  0  0  0  0  0  0  0  0  0  0
  -40.3233  -18.3031   28.9613 N   0  3  0  0  0  0  0  0  0  0  0  0
  -22.6632  -14.7192   21.3523 O   0  0  0  0  0  0  0  0  0  0  0  0
  -35.5832  -22.3155   23.1930 O   0  0  0  0  0  0  0  0  0  0  0  0
  -31.9053  -14.8882   20.2689 O   0  0  0  0  0  0  0  0  0  0  0  0
  -39.5489  -21.4696   23.9990 O   0  0  0  0  0  0  0  0  0  0  0  0
  -28.6764  -21.5429   26.0919 O   0  0  0  0  0  0  0  0  0  0  0  0
  -38.2060  -18.1514   27.1146 O   0  0  0  0  0  0  0  0  0  0  0  0
  -21.6366   -7.0126   21.7261 O   0  0  0  0  0  0  0  0  0  0  0  0
  -32.1666  -21.1185   28.1507 O   0  0  0  0  0  0  0  0  0  1  0  0
  -18.7145   -6.8168   26.3981 F   0  0  0  0  0  0  0  0  0  0  0  0
  -19.6483   -8.8649   22.2341 F   0  0  0  0  0  0  0  0  0  0  0  0
  -31.0985  -17.8672   24.5020 S   0  0  0  0  0  0  0  0  0  0  0  0
  1  2  1  0  0  0  0
  1  5  2  0  0  0  0
  2  6  2  0  0  0  0
  3  8  2  0  0  0  0
  3 17  1  0  0  0  0
  4  9  1  0  0  0  0
  4 17  2  0  0  0  0
  5 19  1  0  0  0  0
  6 21  1  0  0  0  0
  7 10  2  0  0  0  0
  7 20  1  0  0  0  0
  8 23  1  0  0  0  0
  9 23  2  0  0  0  0
 10 24  1  0  0  0  0
 11 12  2  0  0  0  0
 11 25  1  0  0  0  0
 12 26  1  0  0  0  0
 13 14  1  0  0  0  0
 13 29  2  0  0  0  0
 14 31  2  0  0  0  0
 15 22  1  0  0  0  0
 15 24  2  0  0  0  0
 16 26  2  0  0  0  0
 16 27  1  0  0  0  0
 17 28  1  0  0  0  0
 18 28  1  0  0  0  0
 18 30  2  0  0  0  0
 18 32  1  0  0  0  0
 19 21  2  0  0  0  0
 19 38  1  0  0  0  0
 20 22  2  0  0  0  0
 20 39  1  0  0  0  0
 21 47  1  0  0  0  0
 22 40  1  0  0  0  0
 23 80  1  0  0  0  0
 24 81  1  0  0  0  0
 25 27  2  0  0  0  0
 25 80  1  0  0  0  0
 26 82  1  0  0  0  0
 27 83  1  0  0  0  0
 28 64  2  0  0  0  0
 29 56  1  0  0  0  0
 29 84  1  0  0  0  0
 30 65  1  0  0  0  0
 30 68  1  0  0  0  0
 31 70  1  0  0  0  0
 31 84  1  0  0  0  0
 32 69  1  0  0  0  0
 32 74  2  0  0  0  0
 33 48  1  0  0  0  0
 33 71  1  0  0  0  0
 33 75  2  0  0  0  0
 34 57  1  0  0  0  0
 34 67  1  0  0  0  0
 34 76  2  0  0  0  0
 35 60  1  0  0  0  0
 35 66  1  0  0  0  0
 35 77  2  0  0  0  0
 36 61  1  0  0  0  0
 36 70  1  0  0  0  0
 36 78  2  0  0  0  0
 37 62  1  0  0  0  0
 37 72  1  0  0  0  0
 37 79  2  0  0  0  0
 38 41  1  0  0  0  0
 39 48  1  0  0  0  0
 40 66  1  0  0  0  0
 41 43  1  0  0  0  0
 42 44  1  0  0  0  0
 42 45  1  0  0  0  0
 43 47  1  0  0  0  0
 44 49  1  0  0  0  0
 45 67  1  0  0  0  0
 46 49  1  0  0  0  0
 46 67  1  0  0  0  0
 47 71  1  0  0  0  0
 48 66  1  0  0  0  0
 49 65  1  0  0  0  0
 50 58  1  0  0  0  0
 51 62  1  0  0  0  0
 52 63  1  0  0  0  0
 53 63  1  0  0  0  0
 54 63  1  0  0  0  0
 55 73  1  0  0  0  0
 56 57  1  0  0  0  0
 58 61  1  0  0  0  0
 59 61  1  0  0  0  0
 59 81  1  0  0  0  0
 60 63  1  0  0  0  0
 60 72  1  0  0  0  0
 62 73  1  0  0  0  0
 64 65  1  0  0  0  0
M  CHG  1  73   1
M  ISO  4  34 100  57 100  59 101  81 101
M  END
> <Batch ID>
0195

> <Smiles>
CCC(C(=O)Nc1ccc(C[100CH2:0][100C:0](=O)N2CCCC(n3nc(-c4ccc(Oc5ccc(F)cc5F)cc4)c(C(N)=O)c3N)C2)s1)[101CH2:1][101O:1]c1ccc2c(c1)CN(C(=O)C(NC(=O)C(C)NC)C(C)(C)C)C(C(=O)NC1CCCc3ccccc31)C2

> <Shape>
0.160

> <Color>
0.191

> <Negative vol penalty>
0.000

$$$$

  -OEChem-04052305363D

 82 90  0     1  0  0  0  0  0999 V2000
  -29.6325  -34.4776   22.6070 C   0  0  0  0  0  0  0  0  0  0  0  0
  -29.8578  -33.1083   22.5098 C   0  0  0  0  0  0  0  0  0  0  0  0
  -27.0154  -12.9710   20.9995 C   0  0  0  0  0  0  0  0  0  0  0  0
  -26.9107  -13.2504   18.6020 C   0  0  0  0  0  0  0  0  0  0  0  0
  -28.3464  -34.9555   22.8547 C   0  0  0  0  0  0  0  0  0  0  0  0
  -28.7972  -32.2158   22.6614 C   0  0  0  0  0  0  0  0  0  0  0  0
  -28.8212  -28.5573   19.1600 C   0  0  0  0  0  0  0  0  0  0  0  0
  -26.3626  -11.7437   20.8850 C   0  0  0  0  0  0  0  0  0  0  0  0
  -26.2579  -12.0230   18.4875 C   0  0  0  0  0  0  0  0  0  0  0  0
  -29.7207  -27.5078   19.3419 C   0  0  0  0  0  0  0  0  0  0  0  0
  -24.4024   -8.7033   21.2562 C   0  0  0  0  0  0  0  0  0  0  0  0
  -23.3665   -8.4322   22.1500 C   0  0  0  0  0  0  0  0  0  0  0  0
  -27.9391  -26.1416   20.2243 C   0  0  0  0  0  0  0  0  0  0  0  0
  -22.1618  -10.3633   21.3397 C   0  0  0  0  0  0  0  0  0  0  0  0
  -27.0959  -23.0128   14.8960 C   0  0  0  0  0  0  0  0  0  0  0  0
  -27.2894  -13.7244   19.8580 C   0  0  0  0  0  0  0  0  0  0  0  0
  -29.3514  -15.2240   19.9419 C   0  0  0  0  0  0  0  0  0  0  0  0
  -27.2677  -34.0689   22.9997 C   0  0  0  0  0  0  0  0  0  0  0  0
  -27.4738  -28.4103   19.5197 C   0  0  0  0  0  0  0  0  0  0  0  0
  -27.4956  -32.6822   22.9125 C   0  0  0  0  0  0  0  0  0  0  0  0
  -27.0240  -27.1899   20.0436 C   0  0  0  0  0  0  0  0  0  0  0  0
  -25.9839  -11.2697   19.6290 C   0  0  0  0  0  0  0  0  0  0  0  0
  -29.2804  -26.3007   19.8768 C   0  0  0  0  0  0  0  0  0  0  0  0
  -24.3181   -9.8045   20.4042 C   0  0  0  0  0  0  0  0  0  0  0  0
  -22.2462   -9.2621   22.1918 C   0  0  0  0  0  0  0  0  0  0  0  0
  -23.1978  -10.6345   20.4459 C   0  0  0  0  0  0  0  0  0  0  0  0
  -27.9632  -14.9926   19.9757 C   0  0  0  0  0  0  0  0  0  0  0  0
  -26.9199  -22.3396   16.0868 C   0  0  0  0  0  0  0  0  0  0  0  0
  -29.4767  -16.5833   20.0940 C   0  0  0  0  0  0  0  0  0  0  0  0
  -28.9397  -23.1166   16.4426 C   0  0  0  0  0  0  0  0  0  0  0  0
  -30.4311  -14.2935   19.7867 C   0  0  0  0  0  0  0  0  0  0  0  0
  -25.5390  -29.8357   21.6002 C   0  0  0  0  0  0  0  0  0  0  0  0
  -23.2854  -27.9855   20.1789 C   0  0  0  0  0  0  0  0  0  0  0  0
  -22.5521  -25.1722   18.3915 C   0  0  0  0  0  0  0  0  0  0  0  0
  -25.8124  -21.1719   18.9244 C   0  0  0  0  0  0  0  0  0  0  0  0
  -25.9036  -34.6305   23.3134 C   0  0  0  0  0  0  0  0  0  0  0  0
  -26.5106  -29.5429   19.2923 C   0  0  0  0  0  0  0  0  0  0  0  0
  -25.5835  -26.9743   20.4269 C   0  0  0  0  0  0  0  0  0  0  0  0
  -24.7686  -33.6346   23.0890 C   0  0  0  0  0  0  0  0  0  0  0  0
  -27.2784  -20.3491   22.0630 C   0  0  0  0  0  0  0  0  0  0  0  0
  -25.1162  -32.2819   23.7024 C   0  0  0  0  0  0  0  0  0  0  0  0
  -27.7454  -18.9039   21.8809 C   0  0  0  0  0  0  0  0  0  0  0  0
  -25.9633  -20.6135   21.3331 C   0  0  0  0  0  0  0  0  0  0  0  0
  -26.4333  -18.8103   19.7203 C   0  0  0  0  0  0  0  0  0  0  0  0
  -26.3664  -31.6836   23.0464 C   0  0  1  0  0  0  0  0  0  0  0  0
  -25.2673  -29.4557   20.1721 C   0  0  1  0  0  0  0  0  0  0  0  0
  -27.7843  -18.5106   20.3919 C   0  0  2  0  0  0  0  0  0  0  0  0
  -20.6175  -23.9090   17.4123 C   0  0  0  0  0  0  0  0  0  0  0  0
  -30.8993  -21.4234   18.2707 C   0  0  0  0  0  0  0  0  0  0  0  0
  -22.5412  -26.9742   22.9598 C   0  0  0  0  0  0  0  0  0  0  0  0
  -21.3200  -25.0807   21.8682 C   0  0  0  0  0  0  0  0  0  0  0  0
  -20.5928  -27.4317   21.4602 C   0  0  0  0  0  0  0  0  0  0  0  0
  -23.6104  -25.4532   15.6420 C   0  0  0  0  0  0  0  0  0  0  0  0
  -25.7155  -21.5809   16.4785 C   0  0  0  0  0  0  0  0  0  0  0  0
  -31.6356  -23.7298   18.9662 C   0  0  0  0  0  0  0  0  0  0  0  0
  -31.2578  -25.1959   19.1520 C   0  0  0  0  0  0  0  0  0  1  0  0
  -22.7378  -26.5983   20.4130 C   0  0  1  0  0  0  0  0  0  0  0  0
  -21.6903  -24.9570   17.1605 C   0  0  2  0  0  0  0  0  0  0  0  0
  -30.4961  -22.8906   18.3796 C   0  0  1  0  0  0  0  0  0  0  0  0
  -21.8256  -26.5256   21.6700 C   0  0  0  0  0  0  0  0  0  0  0  0
  -27.2571  -16.1148   20.1369 N   0  0  0  0  0  0  0  0  0  0  0  0
  -27.9763  -22.3977   16.9747 N   0  0  0  0  0  0  0  0  0  0  0  0
  -28.2055  -17.0646   20.2057 N   0  0  0  0  0  0  0  0  0  0  0  0
  -24.6815  -28.1138   20.1914 N   0  0  0  0  0  0  0  0  0  0  0  0
  -26.0676  -20.2205   19.9258 N   0  0  0  0  0  0  0  0  0  0  0  0
  -30.5492  -17.4018   20.1418 N   0  0  0  0  0  0  0  0  0  0  0  0
  -30.1254  -12.9333   19.6423 N   0  0  0  0  0  0  0  0  0  0  0  0
  -30.1486  -23.3793   17.0616 N   0  0  0  0  0  0  0  0  0  0  0  0
  -26.0376  -31.1149   21.7569 N   0  0  0  0  0  0  0  0  0  0  0  0
  -22.0782  -26.2051   19.1725 N   0  0  0  0  0  0  0  0  0  0  0  0
  -25.9396  -20.7184   17.6172 N   0  0  0  0  0  0  0  0  0  0  0  0
  -22.5285  -24.5055   16.0139 N   0  3  0  0  0  0  0  0  0  0  0  0
  -31.6321  -14.6555   19.7929 O   0  0  0  0  0  0  0  0  0  0  0  0
  -25.3118  -29.0287   22.4939 O   0  0  0  0  0  0  0  0  0  0  0  0
  -22.5034  -28.9196   19.9847 O   0  0  0  0  0  0  0  0  0  0  0  0
  -23.5441  -24.4897   18.6378 O   0  0  0  0  0  0  0  0  0  0  0  0
  -25.4998  -22.3405   19.1767 O   0  0  0  0  0  0  0  0  0  0  0  0
  -25.3471  -10.0720   19.5168 O   0  0  0  0  0  0  0  0  0  0  0  0
  -30.1565  -25.2749   20.0560 O   0  0  0  0  0  0  0  0  0  1  0  0
  -21.2508   -9.0007   23.0491 F   0  0  0  0  0  0  0  0  0  0  0  0
  -23.1106  -11.6932   19.6290 F   0  0  0  0  0  0  0  0  0  0  0  0
  -28.6425  -23.7538   14.8772 S   0  0  0  0  0  0  0  0  0  0  0  0
  1  2  1  0  0  0  0
  1  5  2  0  0  0  0
  2  6  2  0  0  0  0
  3  8  2  0  0  0  0
  3 16  1  0  0  0  0
  4  9  1  0  0  0  0
  4 16  2  0  0  0  0
  5 18  1  0  0  0  0
  6 20  1  0  0  0  0
  7 10  2  0  0  0  0
  7 19  1  0  0  0  0
  8 22  1  0  0  0  0
  9 22  2  0  0  0  0
 10 23  1  0  0  0  0
 11 12  2  0  0  0  0
 11 24  1  0  0  0  0
 12 25  1  0  0  0  0
 13 21  1  0  0  0  0
 13 23  2  0  0  0  0
 14 25  2  0  0  0  0
 14 26  1  0  0  0  0
 15 28  2  0  0  0  0
 15 82  1  0  0  0  0
 16 27  1  0  0  0  0
 17 27  1  0  0  0  0
 17 29  2  0  0  0  0
 17 31  1  0  0  0  0
 18 20  2  0  0  0  0
 18 36  1  0  0  0  0
 19 21  2  0  0  0  0
 19 37  1  0  0  0  0
 20 45  1  0  0  0  0
 21 38  1  0  0  0  0
 22 78  1  0  0  0  0
 23 79  1  0  0  0  0
 24 26  2  0  0  0  0
 24 78  1  0  0  0  0
 25 80  1  0  0  0  0
 26 81  1  0  0  0  0
 27 61  2  0  0  0  0
 28 54  1  0  0  0  0
 28 62  1  0  0  0  0
 29 63  1  0  0  0  0
 29 66  1  0  0  0  0
 30 62  2  0  0  0  0
 30 68  1  0  0  0  0
 30 82  1  0  0  0  0
 31 67  1  0  0  0  0
 31 73  2  0  0  0  0
 32 46  1  0  0  0  0
 32 69  1  0  0  0  0
 32 74  2  0  0  0  0
 33 57  1  0  0  0  0
 33 64  1  0  0  0  0
 33 75  2  0  0  0  0
 34 58  1  0  0  0  0
 34 70  1  0  0  0  0
 34 76  2  0  0  0  0
 35 65  1  0  0  0  0
 35 71  1  0  0  0  0
 35 77  2  0  0  0  0
 36 39  1  0  0  0  0
 37 46  1  0  0  0  0
 38 64  1  0  0  0  0
 39 41  1  0  0  0  0
 40 42  1  0  0  0  0
 40 43  1  0  0  0  0
 41 45  1  0  0  0  0
 42 47  1  0  0  0  0
 43 65  1  0  0  0  0
 44 47  1  0  0  0  0
 44 65  1  0  0  0  0
 45 69  1  0  0  0  0
 46 64  1  0  0  0  0
 47 63  1  0  0  0  0
 48 58  1  0  0  0  0
 49 59  1  0  0  0  0
 50 60  1  0  0  0  0
 51 60  1  0  0  0  0
 52 60  1  0  0  0  0
 53 72  1  0  0  0  0
 54 71  1  0  0  0  0
 55 56  1  0  0  0  0
 55 59  1  0  0  0  0
 56 79  1  0  0  0  0
 57 60  1  0  0  0  0
 57 70  1  0  0  0  0
 58 72  1  0  0  0  0
 59 68  1  0  0  0  0
 61 63  1  0  0  0  0
M  CHG  1  72   1
M  ISO  4  35 100  56 101  71 100  79 101
M  END
> <Batch ID>
0195

> <Smiles>
CNC(C)C(=O)NC(C(=O)N1Cc2cc([101O:1][101CH2:1]CC(C)Nc3nc(C[100NH:0][100C:0](=O)N4CCCC(n5nc(-c6ccc(Oc7ccc(F)cc7F)cc6)c(C(N)=O)c5N)C4)cs3)ccc2CC1C(=O)NC1CCCc2ccccc21)C(C)(C)C

> <Shape>
0.257

> <Color>
0.081

> <Negative vol penalty>
0.000

$$$$

  -OEChem-04052305363D

 83 91  0     1  0  0  0  0  0999 V2000
  -22.7112  -26.8617   24.7269 C   0  0  0  0  0  0  0  0  0  0  0  0
  -22.7234  -25.4762   24.6022 C   0  0  0  0  0  0  0  0  0  0  0  0
  -30.0202  -23.7037   19.1642 C   0  0  0  0  0  0  0  0  0  0  0  0
  -28.8937  -23.7975   21.2994 C   0  0  0  0  0  0  0  0  0  0  0  0
  -21.9483  -27.6326   23.8507 C   0  0  0  0  0  0  0  0  0  0  0  0
  -21.9718  -24.8606   23.6019 C   0  0  0  0  0  0  0  0  0  0  0  0
  -23.4399  -19.8001   20.4807 C   0  0  0  0  0  0  0  0  0  0  0  0
  -29.6950  -25.0404   18.9339 C   0  0  0  0  0  0  0  0  0  0  0  0
  -28.5684  -25.1343   21.0691 C   0  0  0  0  0  0  0  0  0  0  0  0
  -23.0636  -18.4656   20.6269 C   0  0  0  0  0  0  0  0  0  0  0  0
  -26.2832  -26.8698   19.2812 C   0  0  0  0  0  0  0  0  0  0  0  0
  -24.9791  -27.2771   19.5621 C   0  0  0  0  0  0  0  0  0  0  0  0
  -21.3448  -18.7742   18.9627 C   0  0  0  0  0  0  0  0  0  0  0  0
  -25.8235  -28.8751   21.1654 C   0  0  0  0  0  0  0  0  0  0  0  0
  -23.0845  -11.8375   19.4213 C   0  0  0  0  0  0  0  0  0  0  0  0
  -29.6195  -23.0823   20.3470 C   0  0  0  0  0  0  0  0  0  0  0  0
  -31.1102  -21.2038   21.2170 C   0  0  0  0  0  0  0  0  0  0  0  0
  -21.1946  -27.0268   22.8331 C   0  0  0  0  0  0  0  0  0  0  0  0
  -22.7632  -20.6359   19.5808 C   0  0  0  0  0  0  0  0  0  0  0  0
  -21.1970  -25.6241   22.7121 C   0  0  0  0  0  0  0  0  0  0  0  0
  -21.7161  -20.1182   18.8051 C   0  0  0  0  0  0  0  0  0  0  0  0
  -24.0897  -12.4940   20.1017 C   0  0  0  0  0  0  0  0  0  0  0  0
  -28.9691  -25.7557   19.8863 C   0  0  0  0  0  0  0  0  0  0  0  0
  -22.0141  -17.9532   19.8700 C   0  0  0  0  0  0  0  0  0  0  0  0
  -27.3575  -27.4651   19.9425 C   0  0  0  0  0  0  0  0  0  0  0  0
  -24.7492  -28.2798   20.5041 C   0  0  0  0  0  0  0  0  0  0  0  0
  -27.1277  -28.4677   20.8845 C   0  0  0  0  0  0  0  0  0  0  0  0
  -29.9547  -21.7013   20.5853 C   0  0  0  0  0  0  0  0  0  0  0  0
  -23.7181  -13.6630   20.7338 C   0  0  0  0  0  0  0  0  0  0  0  0
  -30.9532  -19.8395   21.1950 C   0  0  0  0  0  0  0  0  0  0  0  0
  -21.5746  -13.4302   20.0137 C   0  0  0  0  0  0  0  0  0  0  0  0
  -32.2258  -21.9117   21.7740 C   0  0  0  0  0  0  0  0  0  0  0  0
  -21.0395  -23.2931   19.8495 C   0  0  0  0  0  0  0  0  0  0  0  0
  -21.0817  -23.1838   16.6078 C   0  0  0  0  0  0  0  0  0  0  0  0
  -21.4078  -21.3070   13.7762 C   0  0  0  0  0  0  0  0  0  0  0  0
  -26.1318  -16.4380   20.9957 C   0  0  0  0  0  0  0  0  0  0  0  0
  -20.3482  -27.8986   21.9396 C   0  0  0  0  0  0  0  0  0  0  0  0
  -23.1986  -22.0661   19.4154 C   0  0  0  0  0  0  0  0  0  0  0  0
  -20.9707  -20.9686   17.8103 C   0  0  0  0  0  0  0  0  0  0  0  0
  -19.8751  -27.1932   20.6713 C   0  0  0  0  0  0  0  0  0  0  0  0
  -28.8895  -16.3481   18.6537 C   0  0  0  0  0  0  0  0  0  0  0  0
  -19.3288  -25.8081   21.0029 C   0  0  0  0  0  0  0  0  0  0  0  0
  -29.5857  -17.6770   18.9525 C   0  0  0  0  0  0  0  0  0  0  0  0
  -27.3727  -16.4850   18.7484 C   0  0  0  0  0  0  0  0  0  0  0  0
  -27.5768  -18.3457   20.3514 C   0  0  0  0  0  0  0  0  0  0  0  0
  -20.4144  -24.9211   21.6243 C   0  0  1  0  0  0  0  0  0  0  0  0
  -22.1043  -22.9615   18.8426 C   0  0  1  0  0  0  0  0  0  0  0  0
  -29.1133  -18.2679   20.2941 C   0  0  2  0  0  0  0  0  0  0  0  0
  -21.3570  -21.4913   11.2741 C   0  0  0  0  0  0  0  0  0  0  0  0
  -18.3473  -15.0915   20.8178 C   0  0  0  0  0  0  0  0  0  0  0  0
  -18.0376  -23.3779   16.6864 C   0  0  0  0  0  0  0  0  0  0  0  0
  -17.9968  -22.6112   14.3034 C   0  0  0  0  0  0  0  0  0  0  0  0
  -19.1250  -24.7537   14.9033 C   0  0  0  0  0  0  0  0  0  0  0  0
  -24.2060  -20.3740   13.5347 C   0  0  0  0  0  0  0  0  0  0  0  0
  -24.7201  -14.4612   21.5020 C   0  0  0  0  0  0  0  0  0  0  0  0
  -20.2723  -16.3366   19.7773 C   0  0  0  0  0  0  0  0  0  1  0  0
  -20.2060  -22.5609   15.5476 C   0  0  1  0  0  0  0  0  0  0  0  0
  -22.2312  -21.5165   12.5182 C   0  0  2  0  0  0  0  0  0  0  0  0
  -19.8572  -15.1346   20.6229 C   0  0  2  0  0  0  0  0  0  0  0  0
  -18.8539  -23.3101   15.3802 C   0  0  0  0  0  0  0  0  0  0  0  0
  -21.8112  -12.2789   19.3563 N   0  0  0  0  0  0  0  0  0  0  0  0
  -29.1249  -20.7319   20.1906 N   0  0  0  0  0  0  0  0  0  0  0  0
  -22.4649  -14.1622   20.7102 N   0  0  0  0  0  0  0  0  0  0  0  0
  -29.7598  -19.6116   20.5753 N   0  0  0  0  0  0  0  0  0  0  0  0
  -21.4297  -22.3623   17.6894 N   0  0  0  0  0  0  0  0  0  0  0  0
  -26.9882  -17.0352   20.0559 N   0  0  0  0  0  0  0  0  0  0  0  0
  -25.3952  -11.9898   20.1370 N   0  0  0  0  0  0  0  0  0  0  0  0
  -31.7209  -18.8246   21.6455 N   0  0  0  0  0  0  0  0  0  0  0  0
  -32.2269  -23.3118   21.7122 N   0  0  0  0  0  0  0  0  0  0  0  0
  -20.2795  -13.9123   19.9687 N   0  0  0  0  0  0  0  0  0  0  0  0
  -21.3068  -24.4221   20.6000 N   0  0  0  0  0  0  0  0  0  0  0  0
  -21.0124  -22.5048   14.3332 N   0  0  0  0  0  0  0  0  0  0  0  0
  -25.6112  -15.2009   20.6361 N   0  0  0  0  0  0  0  0  0  0  0  0
  -23.2621  -20.4480   12.3899 N   0  3  0  0  0  0  0  0  0  0  0  0
  -33.2007  -21.3194   22.2959 O   0  0  0  0  0  0  0  0  0  0  0  0
  -20.0480  -22.5784   19.9379 O   0  0  0  0  0  0  0  0  0  0  0  0
  -21.4495  -24.3541   16.4775 O   0  0  0  0  0  0  0  0  0  0  0  0
  -21.1389  -20.1923   14.2184 O   0  0  0  0  0  0  0  0  0  0  0  0
  -25.8557  -16.9658   22.0784 O   0  0  0  0  0  0  0  0  0  0  0  0
  -28.6517  -27.0601   19.6619 O   0  0  0  0  0  0  0  0  0  0  0  0
  -21.6444  -16.6512   20.0112 O   0  0  0  0  0  0  0  0  0  1  0  0
  -23.4969  -28.6719   20.7726 F   0  0  0  0  0  0  0  0  0  0  0  0
  -28.1558  -29.0441   21.5221 F   0  0  0  0  0  0  0  0  0  0  0  0
  1  2  1  0  0  0  0
  1  5  2  0  0  0  0
  2  6  2  0  0  0  0
  3  8  2  0  0  0  0
  3 16  1  0  0  0  0
  4  9  1  0  0  0  0
  4 16  2  0  0  0  0
  5 18  1  0  0  0  0
  6 20  1  0  0  0  0
  7 10  2  0  0  0  0
  7 19  1  0  0  0  0
  8 23  1  0  0  0  0
  9 23  2  0  0  0  0
 10 24  1  0  0  0  0
 11 12  2  0  0  0  0
 11 25  1  0  0  0  0
 12 26  1  0  0  0  0
 13 21  1  0  0  0  0
 13 24  2  0  0  0  0
 14 26  2  0  0  0  0
 14 27  1  0  0  0  0
 15 22  1  0  0  0  0
 15 61  2  0  0  0  0
 16 28  1  0  0  0  0
 17 28  1  0  0  0  0
 17 30  2  0  0  0  0
 17 32  1  0  0  0  0
 18 20  2  0  0  0  0
 18 37  1  0  0  0  0
 19 21  2  0  0  0  0
 19 38  1  0  0  0  0
 20 46  1  0  0  0  0
 21 39  1  0  0  0  0
 22 29  2  0  0  0  0
 22 67  1  0  0  0  0
 23 80  1  0  0  0  0
 24 81  1  0  0  0  0
 25 27  2  0  0  0  0
 25 80  1  0  0  0  0
 26 82  1  0  0  0  0
 27 83  1  0  0  0  0
 28 62  2  0  0  0  0
 29 55  1  0  0  0  0
 29 63  1  0  0  0  0
 30 64  1  0  0  0  0
 30 68  1  0  0  0  0
 31 61  1  0  0  0  0
 31 63  2  0  0  0  0
 31 70  1  0  0  0  0
 32 69  1  0  0  0  0
 32 75  2  0  0  0  0
 33 47  1  0  0  0  0
 33 71  1  0  0  0  0
 33 76  2  0  0  0  0
 34 57  1  0  0  0  0
 34 65  1  0  0  0  0
 34 77  2  0  0  0  0
 35 58  1  0  0  0  0
 35 72  1  0  0  0  0
 35 78  2  0  0  0  0
 36 66  1  0  0  0  0
 36 73  1  0  0  0  0
 36 79  2  0  0  0  0
 37 40  1  0  0  0  0
 38 47  1  0  0  0  0
 39 65  1  0  0  0  0
 40 42  1  0  0  0  0
 41 43  1  0  0  0  0
 41 44  1  0  0  0  0
 42 46  1  0  0  0  0
 43 48  1  0  0  0  0
 44 66  1  0  0  0  0
 45 48  1  0  0  0  0
 45 66  1  0  0  0  0
 46 71  1  0  0  0  0
 47 65  1  0  0  0  0
 48 64  1  0  0  0  0
 49 58  1  0  0  0  0
 50 59  1  0  0  0  0
 51 60  1  0  0  0  0
 52 60  1  0  0  0  0
 53 60  1  0  0  0  0
 54 74  1  0  0  0  0
 55 73  1  0  0  0  0
 56 59  1  0  0  0  0
 56 81  1  0  0  0  0
 57 60  1  0  0  0  0
 57 72  1  0  0  0  0
 58 74  1  0  0  0  0
 59 70  1  0  0  0  0
 62 64  1  0  0  0  0
M  CHG  1  74   1
M  ISO  4  36 100  56 101  73 100  81 101
M  END
> <Batch ID>
0195

> <Smiles>
CNC(C)C(=O)NC(C(=O)N1Cc2cc([101O:1][101CH2:1]C(C)Nc3ncc(N)c(C[100NH:0][100C:0](=O)N4CCCC(n5nc(-c6ccc(Oc7ccc(F)cc7F)cc6)c(C(N)=O)c5N)C4)n3)ccc2CC1C(=O)NC1CCCc2ccccc21)C(C)(C)C

> <Shape>
0.184

> <Color>
0.089

> <Negative vol penalty>
0.000

$$$$

  -OEChem-04052305363D

 82 90  0     1  0  0  0  0  0999 V2000
  -30.7575  -24.8117   18.4921 C   0  0  0  0  0  0  0  0  0  0  0  0
  -29.3668  -24.8378   18.4649 C   0  0  0  0  0  0  0  0  0  0  0  0
  -27.7613  -18.1248   22.5092 C   0  0  0  0  0  0  0  0  0  0  0  0
  -27.3222  -19.8017   20.8262 C   0  0  0  0  0  0  0  0  0  0  0  0
  -31.4435  -25.3847   19.5621 C   0  0  0  0  0  0  0  0  0  0  0  0
  -28.6613  -25.4362   19.5083 C   0  0  0  0  0  0  0  0  0  0  0  0
  -23.3932  -28.5313   19.0914 C   0  0  0  0  0  0  0  0  0  0  0  0
  -28.8590  -17.6756   21.7752 C   0  0  0  0  0  0  0  0  0  0  0  0
  -28.4200  -19.3525   20.0922 C   0  0  0  0  0  0  0  0  0  0  0  0
  -22.0686  -28.1640   19.3245 C   0  0  0  0  0  0  0  0  0  0  0  0
  -29.4165  -15.7406   19.0606 C   0  0  0  0  0  0  0  0  0  0  0  0
  -29.5691  -14.3632   18.9016 C   0  0  0  0  0  0  0  0  0  0  0  0
  -22.2154  -29.0727   21.5543 C   0  0  0  0  0  0  0  0  0  0  0  0
  -31.7147  -14.4733   20.0067 C   0  0  0  0  0  0  0  0  0  0  0  0
  -26.9928  -19.1879   22.0347 C   0  0  0  0  0  0  0  0  0  0  0  0
  -25.8504  -20.6483   23.7866 C   0  0  0  0  0  0  0  0  0  0  0  0
  -30.7463  -25.9990   20.6144 C   0  0  0  0  0  0  0  0  0  0  0  0
  -24.1435  -29.1632   20.0935 C   0  0  0  0  0  0  0  0  0  0  0  0
  -29.3386  -26.0168   20.5940 C   0  0  0  0  0  0  0  0  0  0  0  0
  -23.5485  -29.4492   21.3305 C   0  0  0  0  0  0  0  0  0  0  0  0
  -29.1884  -18.2895   20.5668 C   0  0  0  0  0  0  0  0  0  0  0  0
  -21.4804  -28.4321   20.5570 C   0  0  0  0  0  0  0  0  0  0  0  0
  -30.4130  -16.4843   19.6926 C   0  0  0  0  0  0  0  0  0  0  0  0
  -30.7181  -13.7296   19.3747 C   0  0  0  0  0  0  0  0  0  0  0  0
  -31.5621  -15.8507   20.1657 C   0  0  0  0  0  0  0  0  0  0  0  0
  -25.8584  -19.6520   22.7921 C   0  0  0  0  0  0  0  0  0  0  0  0
  -24.5405  -20.7158   24.1944 C   0  0  0  0  0  0  0  0  0  0  0  0
  -18.2296  -22.2503   20.5432 C   0  0  0  0  0  0  0  0  0  0  0  0
  -16.5356  -23.2329   21.6393 C   0  0  0  0  0  0  0  0  0  0  0  0
  -18.4522  -24.3507   21.3020 C   0  0  0  0  0  0  0  0  0  0  0  0
  -26.9303  -21.4419   24.2963 C   0  0  0  0  0  0  0  0  0  0  0  0
  -26.7849  -28.4435   21.7087 C   0  0  0  0  0  0  0  0  0  0  0  0
  -26.4186  -31.4458   22.8812 C   0  0  0  0  0  0  0  0  0  0  0  0
  -24.3280  -34.0572   23.5569 C   0  0  0  0  0  0  0  0  0  0  0  0
  -19.3619  -19.3425   21.5211 C   0  0  0  0  0  0  0  0  0  0  0  0
  -31.5302  -26.5633   21.7727 C   0  0  0  0  0  0  0  0  0  0  0  0
  -25.5629  -29.5770   19.8171 C   0  0  0  0  0  0  0  0  0  0  0  0
  -24.3046  -30.1438   22.4324 C   0  0  0  0  0  0  0  0  0  0  0  0
  -30.7183  -27.5083   22.6548 C   0  0  0  0  0  0  0  0  0  0  0  0
  -20.5995  -18.0323   24.5917 C   0  0  0  0  0  0  0  0  0  0  0  0
  -29.3553  -26.9022   22.9734 C   0  0  0  0  0  0  0  0  0  0  0  0
  -22.0869  -18.3888   24.5684 C   0  0  0  0  0  0  0  0  0  0  0  0
  -20.0839  -17.6707   23.2005 C   0  0  0  0  0  0  0  0  0  0  0  0
  -21.8368  -19.0379   22.1363 C   0  0  0  0  0  0  0  0  0  0  0  0
  -28.5385  -26.6785   21.6950 C   0  0  1  0  0  0  0  0  0  0  0  0
  -26.3918  -29.7531   21.0857 C   0  0  1  0  0  0  0  0  0  0  0  0
  -22.3893  -19.4639   23.5073 C   0  0  2  0  0  0  0  0  0  0  0  0
  -24.3116  -36.3611   24.5513 C   0  0  0  0  0  0  0  0  0  0  0  0
  -26.5683  -30.2368   25.6787 C   0  0  0  0  0  0  0  0  0  0  0  0
  -25.6137  -32.3703   26.5760 C   0  0  0  0  0  0  0  0  0  0  0  0
  -27.8154  -32.3870   25.4034 C   0  0  0  0  0  0  0  0  0  0  0  0
  -23.4248  -35.2739   21.0147 C   0  0  0  0  0  0  0  0  0  0  0  0
  -18.7935  -21.0684   19.8307 C   0  0  0  0  0  0  0  0  0  0  0  0
  -18.7480  -26.6871   22.1264 C   0  0  0  0  0  0  0  0  0  0  0  0
  -19.8331  -27.7507   22.1312 C   0  0  0  0  0  0  0  0  0  1  0  0
  -25.6989  -32.0521   24.0616 C   0  0  1  0  0  0  0  0  0  0  0  0
  -24.4502  -35.5440   23.2762 C   0  0  2  0  0  0  0  0  0  0  0  0
  -26.4101  -31.7467   25.4100 C   0  0  0  0  0  0  0  0  0  0  0  0
  -24.6497  -19.1244   22.5810 N   0  0  0  0  0  0  0  0  0  0  0  0
  -16.9766  -22.1311   21.0114 N   0  0  0  0  0  0  0  0  0  0  0  0
  -19.0259  -23.3262   20.6506 N   0  0  0  0  0  0  0  0  0  0  0  0
  -17.2148  -24.3766   21.8226 N   0  0  0  0  0  0  0  0  0  0  0  0
  -23.8698  -19.7916   23.4486 N   0  0  0  0  0  0  0  0  0  0  0  0
  -25.6916  -30.5229   22.1159 N   0  0  0  0  0  0  0  0  0  0  0  0
  -20.4015  -18.7320   22.2419 N   0  0  0  0  0  0  0  0  0  0  0  0
  -23.9086  -21.4749   25.1147 N   0  0  0  0  0  0  0  0  0  0  0  0
  -15.2245  -23.1829   22.1610 N   0  0  0  0  0  0  0  0  0  0  0  0
  -28.2126  -21.2444   23.7661 N   0  0  0  0  0  0  0  0  0  0  0  0
  -19.2146  -25.4972   21.4522 N   0  0  0  0  0  0  0  0  0  0  0  0
  -27.9743  -27.9277   21.2306 N   0  0  0  0  0  0  0  0  0  0  0  0
  -25.5597  -33.4744   23.7682 N   0  0  0  0  0  0  0  0  0  0  0  0
  -19.7490  -20.3433   20.6383 N   0  0  0  0  0  0  0  0  0  0  0  0
  -23.3920  -35.9796   22.3216 N   0  3  0  0  0  0  0  0  0  0  0  0
  -26.7661  -22.2891   25.2067 O   0  0  0  0  0  0  0  0  0  0  0  0
  -26.0633  -27.9392   22.5611 O   0  0  0  0  0  0  0  0  0  0  0  0
  -27.5807  -31.7840   22.6426 O   0  0  0  0  0  0  0  0  0  0  0  0
  -23.2477  -33.4720   23.5895 O   0  0  0  0  0  0  0  0  0  0  0  0
  -18.1760  -19.0233   21.6583 O   0  0  0  0  0  0  0  0  0  0  0  0
  -30.2597  -17.8515   19.8504 O   0  0  0  0  0  0  0  0  0  0  0  0
  -20.1878  -28.0742   20.7874 O   0  0  0  0  0  0  0  0  0  1  0  0
  -30.8638  -12.4067   19.2233 F   0  0  0  0  0  0  0  0  0  0  0  0
  -32.5223  -16.5598   20.7748 F   0  0  0  0  0  0  0  0  0  0  0  0
  1  2  1  0  0  0  0
  1  5  2  0  0  0  0
  2  6  2  0  0  0  0
  3  8  2  0  0  0  0
  3 15  1  0  0  0  0
  4  9  1  0  0  0  0
  4 15  2  0  0  0  0
  5 17  1  0  0  0  0
  6 19  1  0  0  0  0
  7 10  2  0  0  0  0
  7 18  1  0  0  0  0
  8 21  1  0  0  0  0
  9 21  2  0  0  0  0
 10 22  1  0  0  0  0
 11 12  2  0  0  0  0
 11 23  1  0  0  0  0
 12 24  1  0  0  0  0
 13 20  1  0  0  0  0
 13 22  2  0  0  0  0
 14 24  2  0  0  0  0
 14 25  1  0  0  0  0
 15 26  1  0  0  0  0
 16 26  1  0  0  0  0
 16 27  2  0  0  0  0
 16 31  1  0  0  0  0
 17 19  2  0  0  0  0
 17 36  1  0  0  0  0
 18 20  2  0  0  0  0
 18 37  1  0  0  0  0
 19 45  1  0  0  0  0
 20 38  1  0  0  0  0
 21 79  1  0  0  0  0
 22 80  1  0  0  0  0
 23 25  2  0  0  0  0
 23 79  1  0  0  0  0
 24 81  1  0  0  0  0
 25 82  1  0  0  0  0
 26 59  2  0  0  0  0
 27 63  1  0  0  0  0
 27 66  1  0  0  0  0
 28 53  1  0  0  0  0
 28 60  2  0  0  0  0
 28 61  1  0  0  0  0
 29 60  1  0  0  0  0
 29 62  2  0  0  0  0
 29 67  1  0  0  0  0
 30 61  2  0  0  0  0
 30 62  1  0  0  0  0
 30 69  1  0  0  0  0
 31 68  1  0  0  0  0
 31 74  2  0  0  0  0
 32 46  1  0  0  0  0
 32 70  1  0  0  0  0
 32 75  2  0  0  0  0
 33 56  1  0  0  0  0
 33 64  1  0  0  0  0
 33 76  2  0  0  0  0
 34 57  1  0  0  0  0
 34 71  1  0  0  0  0
 34 77  2  0  0  0  0
 35 65  1  0  0  0  0
 35 72  1  0  0  0  0
 35 78  2  0  0  0  0
 36 39  1  0  0  0  0
 37 46  1  0  0  0  0
 38 64  1  0  0  0  0
 39 41  1  0  0  0  0
 40 42  1  0  0  0  0
 40 43  1  0  0  0  0
 41 45  1  0  0  0  0
 42 47  1  0  0  0  0
 43 65  1  0  0  0  0
 44 47  1  0  0  0  0
 44 65  1  0  0  0  0
 45 70  1  0  0  0  0
 46 64  1  0  0  0  0
 47 63  1  0  0  0  0
 48 57  1  0  0  0  0
 49 58  1  0  0  0  0
 50 58  1  0  0  0  0
 51 58  1  0  0  0  0
 52 73  1  0  0  0  0
 53 72  1  0  0  0  0
 54 55  1  0  0  0  0
 54 69  1  0  0  0  0
 55 80  1  0  0  0  0
 56 58  1  0  0  0  0
 56 71  1  0  0  0  0
 57 73  1  0  0  0  0
 59 63  1  0  0  0  0
M  CHG  1  73   1
M  ISO  4  35 100  55 101  72 100  80 101
M  END
> <Batch ID>
0195

> <Smiles>
CNC(C)C(=O)NC(C(=O)N1Cc2cc([101O:1][101CH2:1]CNc3nc(N)nc(C[100NH:0][100C:0](=O)N4CCCC(n5nc(-c6ccc(Oc7ccc(F)cc7F)cc6)c(C(N)=O)c5N)C4)n3)ccc2CC1C(=O)NC1CCCc2ccccc21)C(C)(C)C

> <Shape>
0.250

> <Color>
0.061

> <Negative vol penalty>
0.000

$$$$

  -OEChem-04052305363D

 86 94  0     1  0  0  0  0  0999 V2000
  -21.3325  -36.7341   16.9558 C   0  0  0  0  0  0  0  0  0  0  0  0
  -21.6290  -35.4194   16.6105 C   0  0  0  0  0  0  0  0  0  0  0  0
  -24.4483   -8.4905   20.5900 C   0  0  0  0  0  0  0  0  0  0  0  0
  -22.8378  -10.2503   20.9730 C   0  0  0  0  0  0  0  0  0  0  0  0
  -22.1157  -37.3997   17.8979 C   0  0  0  0  0  0  0  0  0  0  0  0
  -22.7096  -34.7700   17.2063 C   0  0  0  0  0  0  0  0  0  0  0  0
  -24.8166  -28.2745   19.3708 C   0  0  0  0  0  0  0  0  0  0  0  0
  -23.4879   -7.5377   20.9296 C   0  0  0  0  0  0  0  0  0  0  0  0
  -21.8774   -9.2975   21.3125 C   0  0  0  0  0  0  0  0  0  0  0  0
  -25.8810  -27.3851   19.2303 C   0  0  0  0  0  0  0  0  0  0  0  0
  -21.5623   -4.6612   22.0437 C   0  0  0  0  0  0  0  0  0  0  0  0
  -21.9459   -3.6273   22.8978 C   0  0  0  0  0  0  0  0  0  0  0  0
  -27.1159  -28.6081   20.9032 C   0  0  0  0  0  0  0  0  0  0  0  0
  -22.4986   -5.2437   24.6062 C   0  0  0  0  0  0  0  0  0  0  0  0
  -27.8969  -18.5057   19.1333 C   0  0  0  0  0  0  0  0  0  0  0  0
  -24.1233   -9.8469   20.6118 C   0  0  0  0  0  0  0  0  0  0  0  0
  -25.3803  -11.3531   18.9812 C   0  0  0  0  0  0  0  0  0  0  0  0
  -23.2006  -36.7550   18.5126 C   0  0  0  0  0  0  0  0  0  0  0  0
  -24.8983  -29.3456   20.2722 C   0  0  0  0  0  0  0  0  0  0  0  0
  -23.5089  -35.4281   18.1565 C   0  0  0  0  0  0  0  0  0  0  0  0
  -26.0501  -29.5082   21.0551 C   0  0  0  0  0  0  0  0  0  0  0  0
  -22.2024   -7.9411   21.2908 C   0  0  0  0  0  0  0  0  0  0  0  0
  -27.0320  -27.5535   19.9944 C   0  0  0  0  0  0  0  0  0  0  0  0
  -21.6469   -5.9863   22.4708 C   0  0  0  0  0  0  0  0  0  0  0  0
  -22.4140   -3.9185   24.1790 C   0  0  0  0  0  0  0  0  0  0  0  0
  -22.1150   -6.2776   23.7521 C   0  0  0  0  0  0  0  0  0  0  0  0
  -25.1151  -10.8316   20.2616 C   0  0  0  0  0  0  0  0  0  0  0  0
  -29.1224  -20.4337   19.0307 C   0  0  0  0  0  0  0  0  0  0  0  0
  -28.5604  -18.1453   20.2854 C   0  0  0  0  0  0  0  0  0  0  0  0
  -29.7855  -20.0737   20.1832 C   0  0  0  0  0  0  0  0  0  0  0  0
  -26.4036  -12.2475   19.1799 C   0  0  0  0  0  0  0  0  0  0  0  0
  -24.7573  -11.0558   17.7246 C   0  0  0  0  0  0  0  0  0  0  0  0
  -24.8240  -32.5121   20.0059 C   0  0  0  0  0  0  0  0  0  0  0  0
  -24.8310  -32.3952   23.2476 C   0  0  0  0  0  0  0  0  0  0  0  0
  -25.6034  -30.6590   26.0824 C   0  0  0  0  0  0  0  0  0  0  0  0
  -28.7709  -16.3776   22.0680 C   0  0  0  0  0  0  0  0  0  0  0  0
  -24.0471  -37.5309   19.4904 C   0  0  0  0  0  0  0  0  0  0  0  0
  -23.7309  -30.2805   20.4314 C   0  0  0  0  0  0  0  0  0  0  0  0
  -26.1798  -30.6299   22.0518 C   0  0  0  0  0  0  0  0  0  0  0  0
  -24.9468  -36.6482   20.3516 C   0  0  0  0  0  0  0  0  0  0  0  0
  -29.3294  -13.0588   23.2300 C   0  0  0  0  0  0  0  0  0  0  0  0
  -25.6618  -35.6127   19.4894 C   0  0  0  0  0  0  0  0  0  0  0  0
  -28.3046  -12.2264   22.4560 C   0  0  0  0  0  0  0  0  0  0  0  0
  -28.7745  -14.4301   23.6113 C   0  0  0  0  0  0  0  0  0  0  0  0
  -27.1946  -14.3749   21.7219 C   0  0  0  0  0  0  0  0  0  0  0  0
  -24.6578  -34.6816   18.7991 C   0  0  1  0  0  0  0  0  0  0  0  0
  -24.1257  -31.6367   21.0078 C   0  0  1  0  0  0  0  0  0  0  0  0
  -27.7303  -13.0100   21.2595 C   0  0  2  0  0  0  0  0  0  0  0  0
  -30.5030  -21.5597   17.2365 C   0  0  0  0  0  0  0  0  0  0  0  0
  -25.5262  -30.8376   28.5843 C   0  0  0  0  0  0  0  0  0  0  0  0
  -27.2687  -24.1587   16.3863 C   0  0  0  0  0  0  0  0  0  0  0  0
  -29.6118  -26.4960   18.0268 C   0  0  0  0  0  0  0  0  0  0  0  0
  -27.2352  -34.2729   23.1854 C   0  0  0  0  0  0  0  0  0  0  0  0
  -27.6870  -33.6607   25.5707 C   0  0  0  0  0  0  0  0  0  0  0  0
  -25.5505  -34.7937   24.9588 C   0  0  0  0  0  0  0  0  0  0  0  0
  -23.8180  -28.3097   26.3109 C   0  0  0  0  0  0  0  0  0  0  0  0
  -28.1546  -24.5589   18.7210 C   0  0  0  0  0  0  0  0  0  0  0  0
  -29.4271  -21.7250   18.3069 C   0  0  1  0  0  0  0  0  0  0  0  0
  -25.8991  -32.3739   24.3143 C   0  0  1  0  0  0  0  0  0  0  0  0
  -24.7977  -30.3663   27.3353 C   0  0  2  0  0  0  0  0  0  0  0  0
  -28.3348  -23.7835   17.4081 C   0  0  1  0  0  0  0  0  0  0  0  0
  -28.2525  -26.0834   18.5783 C   0  0  1  0  0  0  0  0  0  1  0  0
  -26.5916  -33.7552   24.4872 C   0  0  0  0  0  0  0  0  0  0  0  0
  -28.1660  -19.6564   18.4852 N   0  0  0  0  0  0  0  0  0  0  0  0
  -25.9063  -11.3512   21.2040 N   0  0  0  0  0  0  0  0  0  0  0  0
  -29.5166  -18.9229   20.8310 N   0  0  0  0  0  0  0  0  0  0  0  0
  -26.6787  -12.2086   20.5152 N   0  0  0  0  0  0  0  0  0  0  0  0
  -25.0138  -31.5215   22.1664 N   0  0  0  0  0  0  0  0  0  0  0  0
  -28.2521  -15.1157   22.4273 N   0  0  0  0  0  0  0  0  0  0  0  0
  -30.7778  -20.9325   20.7065 N   0  0  0  0  0  0  0  0  0  0  0  0
  -27.0860  -13.0555   18.3409 N   0  0  0  0  0  0  0  0  0  0  0  0
  -23.7212  -10.1122   17.6992 N   0  0  0  0  0  0  0  0  0  0  0  0
  -28.2206  -16.9176   20.9060 N   0  0  0  0  0  0  0  0  0  0  0  0
  -24.1609  -33.6932   19.7321 N   0  0  0  0  0  0  0  0  0  0  0  0
  -25.2574  -31.8716   25.5244 N   0  0  0  0  0  0  0  0  0  0  0  0
  -24.5486  -28.9023   27.4607 N   0  3  0  0  0  0  0  0  0  0  0  0
  -28.2260  -22.3204   17.6662 N   0  3  0  0  0  0  0  0  0  0  0  0
  -25.1199  -11.5984   16.6533 O   0  0  0  0  0  0  0  0  0  0  0  0
  -25.8864  -32.1441   19.5186 O   0  0  0  0  0  0  0  0  0  0  0  0
  -23.8664  -33.1538   23.3728 O   0  0  0  0  0  0  0  0  0  0  0  0
  -26.4570  -29.8907   25.6448 O   0  0  0  0  0  0  0  0  0  0  0  0
  -29.6587  -16.9257   22.7263 O   0  0  0  0  0  0  0  0  0  0  0  0
  -21.2649   -7.0116   21.6220 O   0  0  0  0  0  0  0  0  0  0  0  0
  -28.0727  -26.6872   19.8587 O   0  0  0  0  0  0  0  0  0  1  0  0
  -22.7809   -2.9254   24.9997 F   0  0  0  0  0  0  0  0  0  0  0  0
  -22.1975   -7.5487   24.1685 F   0  0  0  0  0  0  0  0  0  0  0  0
  1  2  1  0  0  0  0
  1  5  2  0  0  0  0
  2  6  2  0  0  0  0
  3  8  2  0  0  0  0
  3 16  1  0  0  0  0
  4  9  1  0  0  0  0
  4 16  2  0  0  0  0
  5 18  1  0  0  0  0
  6 20  1  0  0  0  0
  7 10  2  0  0  0  0
  7 19  1  0  0  0  0
  8 22  1  0  0  0  0
  9 22  2  0  0  0  0
 10 23  1  0  0  0  0
 11 12  2  0  0  0  0
 11 24  1  0  0  0  0
 12 25  1  0  0  0  0
 13 21  1  0  0  0  0
 13 23  2  0  0  0  0
 14 25  2  0  0  0  0
 14 26  1  0  0  0  0
 15 29  1  0  0  0  0
 15 64  2  0  0  0  0
 16 27  1  0  0  0  0
 17 27  1  0  0  0  0
 17 31  2  0  0  0  0
 17 32  1  0  0  0  0
 18 20  2  0  0  0  0
 18 37  1  0  0  0  0
 19 21  2  0  0  0  0
 19 38  1  0  0  0  0
 20 46  1  0  0  0  0
 21 39  1  0  0  0  0
 22 83  1  0  0  0  0
 23 84  1  0  0  0  0
 24 26  2  0  0  0  0
 24 83  1  0  0  0  0
 25 85  1  0  0  0  0
 26 86  1  0  0  0  0
 27 65  2  0  0  0  0
 28 30  2  0  0  0  0
 28 58  1  0  0  0  0
 28 64  1  0  0  0  0
 29 66  2  0  0  0  0
 29 73  1  0  0  0  0
 30 66  1  0  0  0  0
 30 70  1  0  0  0  0
 31 67  1  0  0  0  0
 31 71  1  0  0  0  0
 32 72  1  0  0  0  0
 32 78  2  0  0  0  0
 33 47  1  0  0  0  0
 33 74  1  0  0  0  0
 33 79  2  0  0  0  0
 34 59  1  0  0  0  0
 34 68  1  0  0  0  0
 34 80  2  0  0  0  0
 35 60  1  0  0  0  0
 35 75  1  0  0  0  0
 35 81  2  0  0  0  0
 36 69  1  0  0  0  0
 36 73  1  0  0  0  0
 36 82  2  0  0  0  0
 37 40  1  0  0  0  0
 38 47  1  0  0  0  0
 39 68  1  0  0  0  0
 40 42  1  0  0  0  0
 41 43  1  0  0  0  0
 41 44  1  0  0  0  0
 42 46  1  0  0  0  0
 43 48  1  0  0  0  0
 44 69  1  0  0  0  0
 45 48  1  0  0  0  0
 45 69  1  0  0  0  0
 46 74  1  0  0  0  0
 47 68  1  0  0  0  0
 48 67  1  0  0  0  0
 49 58  1  0  0  0  0
 50 60  1  0  0  0  0
 51 61  1  0  0  0  0
 52 62  1  0  0  0  0
 53 63  1  0  0  0  0
 54 63  1  0  0  0  0
 55 63  1  0  0  0  0
 56 76  1  0  0  0  0
 57 61  1  0  0  0  0
 57 62  1  0  0  0  0
 58 77  1  0  0  0  0
 59 63  1  0  0  0  0
 59 75  1  0  0  0  0
 60 76  1  0  0  0  0
 61 77  1  0  0  0  0
 62 84  1  0  0  0  0
 65 67  1  0  0  0  0
M  CHG  2  76   1  77   1
M  ISO  4  36 100  62 101  73 100  84 101
M  END
> <Batch ID>
0195

> <Smiles>
CNC(C)C(=O)NC(C(=O)N1Cc2cc([101O:1][101CH:1](C)CC(C)NC(C)c3ncc([100NH:0][100C:0](=O)N4CCCC(n5nc(-c6ccc(Oc7ccc(F)cc7F)cc6)c(C(N)=O)c5N)C4)nc3N)ccc2CC1C(=O)NC1CCCc2ccccc21)C(C)(C)C

> <Shape>
0.304

> <Color>
0.116

> <Negative vol penalty>
0.000

$$$$

  -OEChem-04052305363D

 85 93  0     1  0  0  0  0  0999 V2000
  -18.3589  -30.4416   24.0255 C   0  0  0  0  0  0  0  0  0  0  0  0
  -19.7458  -30.3856   23.9325 C   0  0  0  0  0  0  0  0  0  0  0  0
  -25.6537  -14.0378   18.8500 C   0  0  0  0  0  0  0  0  0  0  0  0
  -25.1342  -14.1354   21.2075 C   0  0  0  0  0  0  0  0  0  0  0  0
  -17.5878  -29.3674   23.5837 C   0  0  0  0  0  0  0  0  0  0  0  0
  -20.3625  -29.2547   23.3985 C   0  0  0  0  0  0  0  0  0  0  0  0
  -25.4793  -29.0928   20.0372 C   0  0  0  0  0  0  0  0  0  0  0  0
  -25.6058  -12.6446   18.8972 C   0  0  0  0  0  0  0  0  0  0  0  0
  -25.0862  -12.7422   21.2546 C   0  0  0  0  0  0  0  0  0  0  0  0
  -26.8066  -28.8162   20.3620 C   0  0  0  0  0  0  0  0  0  0  0  0
  -22.9084  -10.2968   20.4192 C   0  0  0  0  0  0  0  0  0  0  0  0
  -21.8448   -9.7093   21.1041 C   0  0  0  0  0  0  0  0  0  0  0  0
  -26.4937  -26.5278   19.6659 C   0  0  0  0  0  0  0  0  0  0  0  0
  -23.4044   -8.6334   22.6032 C   0  0  0  0  0  0  0  0  0  0  0  0
  -25.0571  -24.7377   24.8737 C   0  0  0  0  0  0  0  0  0  0  0  0
  -25.4180  -14.7832   20.0052 C   0  0  0  0  0  0  0  0  0  0  0  0
  -24.4023  -17.1015   19.6863 C   0  0  0  0  0  0  0  0  0  0  0  0
  -18.1949  -28.2267   23.0352 C   0  0  0  0  0  0  0  0  0  0  0  0
  -24.6447  -28.0846   19.5336 C   0  0  0  0  0  0  0  0  0  0  0  0
  -19.5989  -28.1636   22.9502 C   0  0  0  0  0  0  0  0  0  0  0  0
  -25.1569  -26.7948   19.3330 C   0  0  0  0  0  0  0  0  0  0  0  0
  -25.3220  -11.9967   20.0994 C   0  0  0  0  0  0  0  0  0  0  0  0
  -27.3132  -27.5328   20.1791 C   0  0  0  0  0  0  0  0  0  0  0  0
  -24.2201  -10.0526   20.8262 C   0  0  0  0  0  0  0  0  0  0  0  0
  -22.0928   -8.8776   22.1961 C   0  0  0  0  0  0  0  0  0  0  0  0
  -24.4681   -9.2209   21.9183 C   0  0  0  0  0  0  0  0  0  0  0  0
  -25.4679  -16.2224   19.9573 C   0  0  0  0  0  0  0  0  0  0  0  0
  -27.1212  -24.1873   24.3772 C   0  0  0  0  0  0  0  0  0  0  0  0
  -24.9628  -18.3533   19.7588 C   0  0  0  0  0  0  0  0  0  0  0  0
  -26.4663  -23.3507   23.4978 C   0  0  0  0  0  0  0  0  0  0  0  0
  -23.0285  -16.8123   19.3950 C   0  0  0  0  0  0  0  0  0  0  0  0
  -21.9609  -26.6947   20.5179 C   0  0  0  0  0  0  0  0  0  0  0  0
  -22.1087  -25.2449   17.6198 C   0  0  0  0  0  0  0  0  0  0  0  0
  -30.4786  -25.1080   23.1104 C   0  0  0  0  0  0  0  0  0  0  0  0
  -24.0230  -24.2232   14.9857 C   0  0  0  0  0  0  0  0  0  0  0  0
  -28.2569  -22.0772   22.2656 C   0  0  0  0  0  0  0  0  0  0  0  0
  -17.3219  -27.0710   22.6146 C   0  0  0  0  0  0  0  0  0  0  0  0
  -23.2228  -28.4058   19.1630 C   0  0  0  0  0  0  0  0  0  0  0  0
  -24.3079  -25.6822   18.7764 C   0  0  0  0  0  0  0  0  0  0  0  0
  -18.0356  -26.0640   21.7162 C   0  0  0  0  0  0  0  0  0  0  0  0
  -29.8115  -19.7804   20.0329 C   0  0  0  0  0  0  0  0  0  0  0  0
  -19.4089  -25.7209   22.2846 C   0  0  0  0  0  0  0  0  0  0  0  0
  -28.7324  -18.7223   19.7919 C   0  0  0  0  0  0  0  0  0  0  0  0
  -29.7927  -20.2920   21.4722 C   0  0  0  0  0  0  0  0  0  0  0  0
  -27.4086  -19.7154   21.7020 C   0  0  0  0  0  0  0  0  0  0  0  0
  -20.3036  -26.9644   22.3540 C   0  0  1  0  0  0  0  0  0  0  0  0
  -22.3191  -27.1769   19.1406 C   0  0  1  0  0  0  0  0  0  0  0  0
  -27.3460  -19.2170   20.2489 C   0  0  2  0  0  0  0  0  0  0  0  0
  -29.0193  -24.6772   25.9738 C   0  0  0  0  0  0  0  0  0  0  0  0
  -23.8674  -23.0320   12.7825 C   0  0  0  0  0  0  0  0  0  0  0  0
  -21.8714  -22.5773   19.0817 C   0  0  0  0  0  0  0  0  0  0  0  0
  -22.6654  -21.4429   16.9958 C   0  0  0  0  0  0  0  0  0  0  0  0
  -20.5320  -22.7355   16.9757 C   0  0  0  0  0  0  0  0  0  0  0  0
  -24.9977  -26.5926   13.5041 C   0  0  0  0  0  0  0  0  0  0  0  0
  -30.5332  -25.8404   20.6777 C   0  0  0  0  0  0  0  0  0  0  0  0
  -29.0611  -25.9235   20.2832 C   0  0  0  0  0  0  0  0  0  1  0  0
  -28.6207  -24.3013   24.5481 C   0  0  2  0  0  0  0  0  0  0  0  0
  -22.7319  -23.9763   17.0896 C   0  0  1  0  0  0  0  0  0  0  0  0
  -30.8342  -26.2152   22.1314 C   0  0  2  0  0  0  0  0  0  0  0  0
  -23.8398  -24.3795   13.4869 C   0  0  2  0  0  0  0  0  0  0  0  0
  -21.9659  -22.7033   17.5480 C   0  0  0  0  0  0  0  0  0  0  0  0
  -26.3148  -24.9836   25.1667 N   0  0  0  0  0  0  0  0  0  0  0  0
  -26.6184  -16.8616   20.1849 N   0  0  0  0  0  0  0  0  0  0  0  0
  -26.2789  -18.1556   20.0570 N   0  0  0  0  0  0  0  0  0  0  0  0
  -22.9223  -26.0444   18.4352 N   0  0  0  0  0  0  0  0  0  0  0  0
  -28.4486  -20.7478   21.8336 N   0  0  0  0  0  0  0  0  0  0  0  0
  -24.4534  -19.5928   19.5959 N   0  0  0  0  0  0  0  0  0  0  0  0
  -22.6208  -15.4718   19.3599 N   0  0  0  0  0  0  0  0  0  0  0  0
  -26.9319  -22.4056   22.5503 N   0  0  0  0  0  0  0  0  0  0  0  0
  -20.8270  -27.2843   21.0432 N   0  0  0  0  0  0  0  0  0  0  0  0
  -29.1871  -25.2317   23.5999 N   0  0  0  0  0  0  0  0  0  0  0  0
  -22.8134  -24.1357   15.6417 N   0  0  0  0  0  0  0  0  0  0  0  0
  -32.2686  -26.5939   22.2709 N   0  3  0  0  0  0  0  0  0  0  0  0
  -24.9240  -25.2294   12.9183 N   0  3  0  0  0  0  0  0  0  0  0  0
  -22.1910  -17.7152   19.1563 O   0  0  0  0  0  0  0  0  0  0  0  0
  -22.6606  -25.8491   21.0629 O   0  0  0  0  0  0  0  0  0  0  0  0
  -20.9454  -25.5202   17.3157 O   0  0  0  0  0  0  0  0  0  0  0  0
  -31.2662  -24.2166   23.4196 O   0  0  0  0  0  0  0  0  0  0  0  0
  -25.1287  -24.1792   15.5206 O   0  0  0  0  0  0  0  0  0  0  0  0
  -29.1950  -22.8742   22.3489 O   0  0  0  0  0  0  0  0  0  0  0  0
  -25.2750  -10.6373   20.1457 O   0  0  0  0  0  0  0  0  0  0  0  0
  -28.6082  -27.2599   20.4959 O   0  0  0  0  0  0  0  0  0  1  0  0
  -21.0712   -8.3147   22.8547 F   0  0  0  0  0  0  0  0  0  0  0  0
  -25.7260   -8.9836   22.3147 F   0  0  0  0  0  0  0  0  0  0  0  0
  -24.7717  -23.5599   23.6586 S   0  0  0  0  0  0  0  0  0  0  0  0
  1  2  1  0  0  0  0
  1  5  2  0  0  0  0
  2  6  2  0  0  0  0
  3  8  2  0  0  0  0
  3 16  1  0  0  0  0
  4  9  1  0  0  0  0
  4 16  2  0  0  0  0
  5 18  1  0  0  0  0
  6 20  1  0  0  0  0
  7 10  2  0  0  0  0
  7 19  1  0  0  0  0
  8 22  1  0  0  0  0
  9 22  2  0  0  0  0
 10 23  1  0  0  0  0
 11 12  2  0  0  0  0
 11 24  1  0  0  0  0
 12 25  1  0  0  0  0
 13 21  1  0  0  0  0
 13 23  2  0  0  0  0
 14 25  2  0  0  0  0
 14 26  1  0  0  0  0
 15 62  2  0  0  0  0
 15 85  1  0  0  0  0
 16 27  1  0  0  0  0
 17 27  1  0  0  0  0
 17 29  2  0  0  0  0
 17 31  1  0  0  0  0
 18 20  2  0  0  0  0
 18 37  1  0  0  0  0
 19 21  2  0  0  0  0
 19 38  1  0  0  0  0
 20 46  1  0  0  0  0
 21 39  1  0  0  0  0
 22 81  1  0  0  0  0
 23 82  1  0  0  0  0
 24 26  2  0  0  0  0
 24 81  1  0  0  0  0
 25 83  1  0  0  0  0
 26 84  1  0  0  0  0
 27 63  2  0  0  0  0
 28 30  2  0  0  0  0
 28 57  1  0  0  0  0
 28 62  1  0  0  0  0
 29 64  1  0  0  0  0
 29 67  1  0  0  0  0
 30 69  1  0  0  0  0
 30 85  1  0  0  0  0
 31 68  1  0  0  0  0
 31 75  2  0  0  0  0
 32 47  1  0  0  0  0
 32 70  1  0  0  0  0
 32 76  2  0  0  0  0
 33 58  1  0  0  0  0
 33 65  1  0  0  0  0
 33 77  2  0  0  0  0
 34 59  1  0  0  0  0
 34 71  1  0  0  0  0
 34 78  2  0  0  0  0
 35 60  1  0  0  0  0
 35 72  1  0  0  0  0
 35 79  2  0  0  0  0
 36 66  1  0  0  0  0
 36 69  1  0  0  0  0
 36 80  2  0  0  0  0
 37 40  1  0  0  0  0
 38 47  1  0  0  0  0
 39 65  1  0  0  0  0
 40 42  1  0  0  0  0
 41 43  1  0  0  0  0
 41 44  1  0  0  0  0
 42 46  1  0  0  0  0
 43 48  1  0  0  0  0
 44 66  1  0  0  0  0
 45 48  1  0  0  0  0
 45 66  1  0  0  0  0
 46 70  1  0  0  0  0
 47 65  1  0  0  0  0
 48 64  1  0  0  0  0
 49 57  1  0  0  0  0
 50 60  1  0  0  0  0
 51 61  1  0  0  0  0
 52 61  1  0  0  0  0
 53 61  1  0  0  0  0
 54 74  1  0  0  0  0
 55 56  1  0  0  0  0
 55 59  1  0  0  0  0
 56 82  1  0  0  0  0
 57 71  1  0  0  0  0
 58 61  1  0  0  0  0
 58 72  1  0  0  0  0
 59 73  1  0  0  0  0
 60 74  1  0  0  0  0
 63 64  1  0  0  0  0
M  CHG  2  73   1  74   1
M  ISO  4  36 100  56 101  69 100  82 101
M  END
> <Batch ID>
0195

> <Smiles>
CNC(C)C(=O)NC(C(=O)N1Cc2cc([101O:1][101CH2:1]CC(N)C(=O)NC(C)c3ncsc3[100NH:0][100C:0](=O)N3CCCC(n4nc(-c5ccc(Oc6ccc(F)cc6F)cc5)c(C(N)=O)c4N)C3)ccc2CC1C(=O)NC1CCCc2ccccc21)C(C)(C)C

> <Shape>
0.223

> <Color>
0.065

> <Negative vol penalty>
0.000

$$$$

  -OEChem-04052305363D

 85 93  0     1  0  0  0  0  0999 V2000
  -32.8219  -22.6775   17.8842 C   0  0  0  0  0  0  0  0  0  0  0  0
  -31.4568  -22.5082   18.0920 C   0  0  0  0  0  0  0  0  0  0  0  0
  -23.9892   -9.6267   21.4321 C   0  0  0  0  0  0  0  0  0  0  0  0
  -24.5148  -10.7093   23.5270 C   0  0  0  0  0  0  0  0  0  0  0  0
  -33.5979  -23.3213   18.8472 C   0  0  0  0  0  0  0  0  0  0  0  0
  -30.8670  -22.9817   19.2635 C   0  0  0  0  0  0  0  0  0  0  0  0
  -26.5106  -25.4148   18.3991 C   0  0  0  0  0  0  0  0  0  0  0  0
  -23.5208   -8.5112   22.1261 C   0  0  0  0  0  0  0  0  0  0  0  0
  -24.0463   -9.5938   24.2211 C   0  0  0  0  0  0  0  0  0  0  0  0
  -25.3822  -24.6331   18.1555 C   0  0  0  0  0  0  0  0  0  0  0  0
  -21.8526   -5.5240   23.3546 C   0  0  0  0  0  0  0  0  0  0  0  0
  -20.6453   -4.9619   22.9397 C   0  0  0  0  0  0  0  0  0  0  0  0
  -24.6772  -24.9495   20.4407 C   0  0  0  0  0  0  0  0  0  0  0  0
  -27.2340  -19.5242   20.2940 C   0  0  0  0  0  0  0  0  0  0  0  0
  -19.5180   -7.0509   23.3897 C   0  0  0  0  0  0  0  0  0  0  0  0
  -27.1556  -21.1477   21.9555 C   0  0  0  0  0  0  0  0  0  0  0  0
  -24.4863  -10.7258   22.1326 C   0  0  0  0  0  0  0  0  0  0  0  0
  -24.2285  -13.0067   21.0195 C   0  0  0  0  0  0  0  0  0  0  0  0
  -33.0156  -23.8115   20.0267 C   0  0  0  0  0  0  0  0  0  0  0  0
  -26.7368  -25.9617   19.6704 C   0  0  0  0  0  0  0  0  0  0  0  0
  -31.6361  -23.6315   20.2437 C   0  0  0  0  0  0  0  0  0  0  0  0
  -25.8079  -25.7399   20.6972 C   0  0  0  0  0  0  0  0  0  0  0  0
  -26.4464  -20.5031   20.9660 C   0  0  0  0  0  0  0  0  0  0  0  0
  -23.5493   -8.4947   23.5206 C   0  0  0  0  0  0  0  0  0  0  0  0
  -24.4668  -24.3979   19.1772 C   0  0  0  0  0  0  0  0  0  0  0  0
  -21.8926   -6.8495   23.7872 C   0  0  0  0  0  0  0  0  0  0  0  0
  -19.4781   -5.7254   22.9572 C   0  0  0  0  0  0  0  0  0  0  0  0
  -20.7253   -7.6130   23.8047 C   0  0  0  0  0  0  0  0  0  0  0  0
  -24.9708  -11.8783   21.4162 C   0  0  0  0  0  0  0  0  0  0  0  0
  -28.5155  -19.4581   20.7954 C   0  0  0  0  0  0  0  0  0  0  0  0
  -25.1398  -13.8089   20.3773 C   0  0  0  0  0  0  0  0  0  0  0  0
  -22.8393  -13.3033   21.2143 C   0  0  0  0  0  0  0  0  0  0  0  0
  -29.0076  -25.6535   21.8732 C   0  0  0  0  0  0  0  0  0  0  0  0
  -27.3535  -28.0214   23.3494 C   0  0  0  0  0  0  0  0  0  0  0  0
  -24.2930  -20.2110   19.6986 C   0  0  0  0  0  0  0  0  0  0  0  0
  -24.3869  -29.6548   23.7715 C   0  0  0  0  0  0  0  0  0  0  0  0
  -30.1848  -16.1772   20.0863 C   0  0  0  0  0  0  0  0  0  0  0  0
  -33.9034  -24.4588   21.0599 C   0  0  0  0  0  0  0  0  0  0  0  0
  -27.9452  -26.8248   19.9098 C   0  0  0  0  0  0  0  0  0  0  0  0
  -25.9942  -26.3210   22.0742 C   0  0  0  0  0  0  0  0  0  0  0  0
  -33.1350  -25.2635   22.1051 C   0  0  0  0  0  0  0  0  0  0  0  0
  -29.8665  -12.8534   18.8504 C   0  0  0  0  0  0  0  0  0  0  0  0
  -31.9420  -24.4658   22.6220 C   0  0  0  0  0  0  0  0  0  0  0  0
  -28.5068  -12.3948   19.3801 C   0  0  0  0  0  0  0  0  0  0  0  0
  -30.5924  -13.7447   19.8557 C   0  0  0  0  0  0  0  0  0  0  0  0
  -28.4540  -14.4449   20.8609 C   0  0  0  0  0  0  0  0  0  0  0  0
  -30.9553  -24.1533   21.4905 C   0  0  1  0  0  0  0  0  0  0  0  0
  -28.3394  -26.9061   21.3813 C   0  0  1  0  0  0  0  0  0  0  0  0
  -27.6599  -13.5891   19.8593 C   0  0  2  0  0  0  0  0  0  0  0  0
  -22.0420  -19.0511   21.3417 C   0  0  0  0  0  0  0  0  0  0  0  0
  -23.3356  -31.5247   25.0737 C   0  0  0  0  0  0  0  0  0  0  0  0
  -27.2573  -26.2402   25.8250 C   0  0  0  0  0  0  0  0  0  0  0  0
  -25.4368  -27.7056   26.7231 C   0  0  0  0  0  0  0  0  0  0  0  0
  -27.7031  -28.6558   26.2945 C   0  0  0  0  0  0  0  0  0  0  0  0
  -23.7368  -31.1602   21.3078 C   0  0  0  0  0  0  0  0  0  0  0  0
  -29.6261  -18.5785   20.3707 C   0  0  0  0  0  0  0  0  0  0  0  0
  -21.8128  -19.7063   19.9855 C   0  0  0  0  0  0  0  0  0  0  0  0
  -22.5556  -21.4452   18.2998 C   0  0  0  0  0  0  0  0  0  0  0  0
  -23.4832  -22.6088   17.9575 C   0  0  0  0  0  0  0  0  0  1  0  0
  -26.2128  -28.0735   24.3370 C   0  0  1  0  0  0  0  0  0  0  0  0
  -22.8681  -20.7789   19.6561 C   0  0  2  0  0  0  0  0  0  0  0  0
  -24.0445  -31.1337   23.7863 C   0  0  2  0  0  0  0  0  0  0  0  0
  -26.6497  -27.6561   25.7696 C   0  0  0  0  0  0  0  0  0  0  0  0
  -26.2548  -11.9531   21.0560 N   0  0  0  0  0  0  0  0  0  0  0  0
  -26.3264  -13.1381   20.4261 N   0  0  0  0  0  0  0  0  0  0  0  0
  -27.1945  -27.1528   22.2603 N   0  0  0  0  0  0  0  0  0  0  0  0
  -29.7356  -14.8588   20.2685 N   0  0  0  0  0  0  0  0  0  0  0  0
  -25.0339  -15.0154   19.7812 N   0  0  0  0  0  0  0  0  0  0  0  0
  -22.0458  -12.3698   21.8949 N   0  0  0  0  0  0  0  0  0  0  0  0
  -25.0939  -20.7970   20.6693 N   0  0  0  0  0  0  0  0  0  0  0  0
  -30.1557  -25.3191   21.1808 N   0  0  0  0  0  0  0  0  0  0  0  0
  -25.6587  -29.4202   24.2499 N   0  0  0  0  0  0  0  0  0  0  0  0
  -29.3086  -17.1736   20.4988 N   0  0  0  0  0  0  0  0  0  0  0  0
  -23.1552  -31.4710   22.6390 N   0  3  0  0  0  0  0  0  0  0  0  0
  -22.3135  -14.3573   20.7827 O   0  0  0  0  0  0  0  0  0  0  0  0
  -28.5185  -25.0368   22.8125 O   0  0  0  0  0  0  0  0  0  0  0  0
  -28.3457  -28.7307   23.5337 O   0  0  0  0  0  0  0  0  0  0  0  0
  -24.6145  -19.3217   18.9126 O   0  0  0  0  0  0  0  0  0  0  0  0
  -23.6031  -28.7935   23.3787 O   0  0  0  0  0  0  0  0  0  0  0  0
  -31.2829  -16.4464   19.5877 O   0  0  0  0  0  0  0  0  0  0  0  0
  -23.0921   -7.4064   24.1981 O   0  0  0  0  0  0  0  0  0  0  0  0
  -23.3648  -23.6348   18.9423 O   0  0  0  0  0  0  0  0  0  1  0  0
  -18.3191   -5.1860   22.5572 F   0  0  0  0  0  0  0  0  0  0  0  0
  -20.7577   -8.8873   24.2181 F   0  0  0  0  0  0  0  0  0  0  0  0
  -28.7645  -20.5728   22.0713 S   0  0  0  0  0  0  0  0  0  0  0  0
  1  2  1  0  0  0  0
  1  5  2  0  0  0  0
  2  6  2  0  0  0  0
  3  8  2  0  0  0  0
  3 17  1  0  0  0  0
  4  9  1  0  0  0  0
  4 17  2  0  0  0  0
  5 19  1  0  0  0  0
  6 21  1  0  0  0  0
  7 10  2  0  0  0  0
  7 20  1  0  0  0  0
  8 24  1  0  0  0  0
  9 24  2  0  0  0  0
 10 25  1  0  0  0  0
 11 12  2  0  0  0  0
 11 26  1  0  0  0  0
 12 27  1  0  0  0  0
 13 22  1  0  0  0  0
 13 25  2  0  0  0  0
 14 23  1  0  0  0  0
 14 30  2  0  0  0  0
 15 27  2  0  0  0  0
 15 28  1  0  0  0  0
 16 23  2  0  0  0  0
 16 85  1  0  0  0  0
 17 29  1  0  0  0  0
 18 29  1  0  0  0  0
 18 31  2  0  0  0  0
 18 32  1  0  0  0  0
 19 21  2  0  0  0  0
 19 38  1  0  0  0  0
 20 22  2  0  0  0  0
 20 39  1  0  0  0  0
 21 47  1  0  0  0  0
 22 40  1  0  0  0  0
 23 70  1  0  0  0  0
 24 81  1  0  0  0  0
 25 82  1  0  0  0  0
 26 28  2  0  0  0  0
 26 81  1  0  0  0  0
 27 83  1  0  0  0  0
 28 84  1  0  0  0  0
 29 64  2  0  0  0  0
 30 56  1  0  0  0  0
 30 85  1  0  0  0  0
 31 65  1  0  0  0  0
 31 68  1  0  0  0  0
 32 69  1  0  0  0  0
 32 75  2  0  0  0  0
 33 48  1  0  0  0  0
 33 71  1  0  0  0  0
 33 76  2  0  0  0  0
 34 60  1  0  0  0  0
 34 66  1  0  0  0  0
 34 77  2  0  0  0  0
 35 61  1  0  0  0  0
 35 70  1  0  0  0  0
 35 78  2  0  0  0  0
 36 62  1  0  0  0  0
 36 72  1  0  0  0  0
 36 79  2  0  0  0  0
 37 67  1  0  0  0  0
 37 73  1  0  0  0  0
 37 80  2  0  0  0  0
 38 41  1  0  0  0  0
 39 48  1  0  0  0  0
 40 66  1  0  0  0  0
 41 43  1  0  0  0  0
 42 44  1  0  0  0  0
 42 45  1  0  0  0  0
 43 47  1  0  0  0  0
 44 49  1  0  0  0  0
 45 67  1  0  0  0  0
 46 49  1  0  0  0  0
 46 67  1  0  0  0  0
 47 71  1  0  0  0  0
 48 66  1  0  0  0  0
 49 65  1  0  0  0  0
 50 57  1  0  0  0  0
 51 62  1  0  0  0  0
 52 63  1  0  0  0  0
 53 63  1  0  0  0  0
 54 63  1  0  0  0  0
 55 74  1  0  0  0  0
 56 73  1  0  0  0  0
 57 61  1  0  0  0  0
 58 59  1  0  0  0  0
 58 61  1  0  0  0  0
 59 82  1  0  0  0  0
 60 63  1  0  0  0  0
 60 72  1  0  0  0  0
 62 74  1  0  0  0  0
 64 65  1  0  0  0  0
M  CHG  1  74   1
M  ISO  4  37 100  59 101  73 100  82 101
M  END
> <Batch ID>
0195

> <Smiles>
CCC(C[101CH2:1][101O:1]c1ccc2c(c1)CN(C(=O)C(NC(=O)C(C)NC)C(C)(C)C)C(C(=O)NC1CCCc3ccccc31)C2)C(=O)Nc1csc(C[100NH:0][100C:0](=O)N2CCCC(n3nc(-c4ccc(Oc5ccc(F)cc5F)cc4)c(C(N)=O)c3N)C2)c1

> <Shape>
0.228

> <Color>
0.121

> <Negative vol penalty>
0.000

$$$$

  -OEChem-04052305363D

 85 93  0     1  0  0  0  0  0999 V2000
  -22.7863  -37.5436   22.8813 C   0  0  0  0  0  0  0  0  0  0  0  0
  -23.9858  -37.2022   22.2649 C   0  0  0  0  0  0  0  0  0  0  0  0
  -23.6495   -9.5345   21.0986 C   0  0  0  0  0  0  0  0  0  0  0  0
  -24.1820  -10.4489   23.2706 C   0  0  0  0  0  0  0  0  0  0  0  0
  -22.5286  -37.1210   24.1847 C   0  0  0  0  0  0  0  0  0  0  0  0
  -24.9289  -36.4387   22.9520 C   0  0  0  0  0  0  0  0  0  0  0  0
  -27.1711  -30.1026   20.3601 C   0  0  0  0  0  0  0  0  0  0  0  0
  -23.0852   -8.4142   21.7086 C   0  0  0  0  0  0  0  0  0  0  0  0
  -23.6176   -9.3286   23.8806 C   0  0  0  0  0  0  0  0  0  0  0  0
  -27.8062  -28.9814   19.8257 C   0  0  0  0  0  0  0  0  0  0  0  0
  -20.1861   -7.6147   23.2543 C   0  0  0  0  0  0  0  0  0  0  0  0
  -18.9553   -7.1667   22.7750 C   0  0  0  0  0  0  0  0  0  0  0  0
  -29.1272  -28.7571   21.8388 C   0  0  0  0  0  0  0  0  0  0  0  0
  -19.9466   -5.0336   22.2233 C   0  0  0  0  0  0  0  0  0  0  0  0
  -28.6811  -18.9681   21.1945 C   0  0  0  0  0  0  0  0  0  0  0  0
  -24.1979  -10.5519   21.8796 C   0  0  0  0  0  0  0  0  0  0  0  0
  -24.1300  -12.9084   20.9052 C   0  0  0  0  0  0  0  0  0  0  0  0
  -23.4648  -36.3438   24.8847 C   0  0  0  0  0  0  0  0  0  0  0  0
  -27.5010  -30.5467   21.6435 C   0  0  0  0  0  0  0  0  0  0  0  0
  -24.6840  -36.0064   24.2665 C   0  0  0  0  0  0  0  0  0  0  0  0
  -28.4854  -29.8722   22.3843 C   0  0  0  0  0  0  0  0  0  0  0  0
  -23.0692   -8.3112   23.0995 C   0  0  0  0  0  0  0  0  0  0  0  0
  -28.7820  -28.3105   20.5632 C   0  0  0  0  0  0  0  0  0  0  0  0
  -21.2973   -6.7723   23.2181 C   0  0  0  0  0  0  0  0  0  0  0  0
  -18.8355   -5.8761   22.2595 C   0  0  0  0  0  0  0  0  0  0  0  0
  -21.1775   -5.4817   22.7026 C   0  0  0  0  0  0  0  0  0  0  0  0
  -24.7815  -11.7091   21.2501 C   0  0  0  0  0  0  0  0  0  0  0  0
  -30.0068  -20.7768   20.7469 C   0  0  0  0  0  0  0  0  0  0  0  0
  -29.6674  -18.1289   20.7250 C   0  0  0  0  0  0  0  0  0  0  0  0
  -30.9935  -19.9376   20.2781 C   0  0  0  0  0  0  0  0  0  0  0  0
  -25.1132  -13.6827   20.3391 C   0  0  0  0  0  0  0  0  0  0  0  0
  -22.7588  -13.2887   21.0808 C   0  0  0  0  0  0  0  0  0  0  0  0
  -30.1535  -22.2548   20.7772 C   0  0  0  0  0  0  0  0  0  0  0  0
  -26.8855  -33.0409   24.3778 C   0  0  0  0  0  0  0  0  0  0  0  0
  -27.2423  -30.3092   25.7273 C   0  0  0  0  0  0  0  0  0  0  0  0
  -27.2741  -27.0664   26.7858 C   0  0  0  0  0  0  0  0  0  0  0  0
  -30.2934  -15.7242   20.3098 C   0  0  0  0  0  0  0  0  0  0  0  0
  -23.1618  -35.9501   26.3087 C   0  0  0  0  0  0  0  0  0  0  0  0
  -26.8865  -31.7864   22.2347 C   0  0  0  0  0  0  0  0  0  0  0  0
  -28.8327  -30.4063   23.7470 C   0  0  0  0  0  0  0  0  0  0  0  0
  -24.0539  -34.8281   26.8335 C   0  0  0  0  0  0  0  0  0  0  0  0
  -29.8149  -12.4951   18.8882 C   0  0  0  0  0  0  0  0  0  0  0  0
  -25.5144  -35.1017   26.4886 C   0  0  0  0  0  0  0  0  0  0  0  0
  -28.4092  -12.1014   19.3476 C   0  0  0  0  0  0  0  0  0  0  0  0
  -30.5646  -13.2784   19.9644 C   0  0  0  0  0  0  0  0  0  0  0  0
  -28.4449  -14.0546   20.9510 C   0  0  0  0  0  0  0  0  0  0  0  0
  -25.7214  -35.1586   24.9703 C   0  0  1  0  0  0  0  0  0  0  0  0
  -26.6798  -31.6905   23.7569 C   0  0  1  0  0  0  0  0  0  0  0  0
  -27.6271  -13.3199   19.8762 C   0  0  2  0  0  0  0  0  0  0  0  0
  -27.1215  -25.6719   28.8665 C   0  0  0  0  0  0  0  0  0  0  0  0
  -30.1132  -31.0580   26.4353 C   0  0  0  0  0  0  0  0  0  0  0  0
  -30.2198  -29.0072   27.8675 C   0  0  0  0  0  0  0  0  0  0  0  0
  -28.5838  -30.8138   28.3989 C   0  0  0  0  0  0  0  0  0  0  0  0
  -24.8315  -25.6969   25.8282 C   0  0  0  0  0  0  0  0  0  0  0  0
  -28.9630  -24.4263   20.6243 C   0  0  0  0  0  0  0  0  0  0  0  0
  -28.6353  -26.4209   19.1260 C   0  0  0  0  0  0  0  0  0  1  0  0
  -28.1890  -29.3372   26.3850 C   0  0  1  0  0  0  0  0  0  0  0  0
  -26.3507  -26.3012   27.7165 C   0  0  2  0  0  0  0  0  0  0  0  0
  -29.1138  -24.9759   19.2089 C   0  0  1  0  0  0  0  0  0  0  0  0
  -29.2699  -30.0521   27.2440 C   0  0  0  0  0  0  0  0  0  0  0  0
  -28.8330  -20.3071   21.2138 N   0  0  0  0  0  0  0  0  0  0  0  0
  -26.0782  -11.7161   20.9298 N   0  0  0  0  0  0  0  0  0  0  0  0
  -30.8414  -18.5986   20.2584 N   0  0  0  0  0  0  0  0  0  0  0  0
  -26.2494  -12.9293   20.3776 N   0  0  0  0  0  0  0  0  0  0  0  0
  -27.6064  -30.7900   24.4637 N   0  0  0  0  0  0  0  0  0  0  0  0
  -29.7651  -14.4201   20.4140 N   0  0  0  0  0  0  0  0  0  0  0  0
  -32.2035  -20.4910   19.8018 N   0  0  0  0  0  0  0  0  0  0  0  0
  -25.1079  -14.9277   19.8171 N   0  0  0  0  0  0  0  0  0  0  0  0
  -21.8831  -12.3731   21.6802 N   0  0  0  0  0  0  0  0  0  0  0  0
  -29.4298  -16.7320   20.7380 N   0  0  0  0  0  0  0  0  0  0  0  0
  -28.9814  -22.9870   20.6392 N   0  0  0  0  0  0  0  0  0  0  0  0
  -25.7469  -33.8231   24.4132 N   0  0  0  0  0  0  0  0  0  0  0  0
  -27.3574  -28.3988   27.1308 N   0  0  0  0  0  0  0  0  0  0  0  0
  -25.6479  -25.2175   26.9730 N   0  3  0  0  0  0  0  0  0  0  0  0
  -22.3194  -14.4009   20.7022 O   0  0  0  0  0  0  0  0  0  0  0  0
  -31.2735  -22.7443   20.8983 O   0  0  0  0  0  0  0  0  0  0  0  0
  -27.9948  -33.3510   24.7959 O   0  0  0  0  0  0  0  0  0  0  0  0
  -26.2101  -30.6392   26.3180 O   0  0  0  0  0  0  0  0  0  0  0  0
  -27.8656  -26.5345   25.8488 O   0  0  0  0  0  0  0  0  0  0  0  0
  -31.4178  -15.9339   19.8477 O   0  0  0  0  0  0  0  0  0  0  0  0
  -30.4951  -24.9522   18.8442 O   0  0  0  0  0  0  0  0  0  0  0  0
  -22.5184   -7.2183   23.6951 O   0  0  0  0  0  0  0  0  0  0  0  0
  -29.3950  -27.2139   20.0373 O   0  0  0  0  0  0  0  0  0  1  0  0
  -17.6531   -5.4454   21.8006 F   0  0  0  0  0  0  0  0  0  0  0  0
  -22.2412   -4.6674   22.6663 F   0  0  0  0  0  0  0  0  0  0  0  0
  1  2  1  0  0  0  0
  1  5  2  0  0  0  0
  2  6  2  0  0  0  0
  3  8  2  0  0  0  0
  3 16  1  0  0  0  0
  4  9  1  0  0  0  0
  4 16  2  0  0  0  0
  5 18  1  0  0  0  0
  6 20  1  0  0  0  0
  7 10  2  0  0  0  0
  7 19  1  0  0  0  0
  8 22  1  0  0  0  0
  9 22  2  0  0  0  0
 10 23  1  0  0  0  0
 11 12  2  0  0  0  0
 11 24  1  0  0  0  0
 12 25  1  0  0  0  0
 13 21  1  0  0  0  0
 13 23  2  0  0  0  0
 14 25  2  0  0  0  0
 14 26  1  0  0  0  0
 15 29  1  0  0  0  0
 15 61  2  0  0  0  0
 16 27  1  0  0  0  0
 17 27  1  0  0  0  0
 17 31  2  0  0  0  0
 17 32  1  0  0  0  0
 18 20  2  0  0  0  0
 18 38  1  0  0  0  0
 19 21  2  0  0  0  0
 19 39  1  0  0  0  0
 20 47  1  0  0  0  0
 21 40  1  0  0  0  0
 22 82  1  0  0  0  0
 23 83  1  0  0  0  0
 24 26  2  0  0  0  0
 24 82  1  0  0  0  0
 25 84  1  0  0  0  0
 26 85  1  0  0  0  0
 27 62  2  0  0  0  0
 28 30  2  0  0  0  0
 28 33  1  0  0  0  0
 28 61  1  0  0  0  0
 29 63  2  0  0  0  0
 29 70  1  0  0  0  0
 30 63  1  0  0  0  0
 30 67  1  0  0  0  0
 31 64  1  0  0  0  0
 31 68  1  0  0  0  0
 32 69  1  0  0  0  0
 32 75  2  0  0  0  0
 33 71  1  0  0  0  0
 33 76  2  0  0  0  0
 34 48  1  0  0  0  0
 34 72  1  0  0  0  0
 34 77  2  0  0  0  0
 35 57  1  0  0  0  0
 35 65  1  0  0  0  0
 35 78  2  0  0  0  0
 36 58  1  0  0  0  0
 36 73  1  0  0  0  0
 36 79  2  0  0  0  0
 37 66  1  0  0  0  0
 37 70  1  0  0  0  0
 37 80  2  0  0  0  0
 38 41  1  0  0  0  0
 39 48  1  0  0  0  0
 40 65  1  0  0  0  0
 41 43  1  0  0  0  0
 42 44  1  0  0  0  0
 42 45  1  0  0  0  0
 43 47  1  0  0  0  0
 44 49  1  0  0  0  0
 45 66  1  0  0  0  0
 46 49  1  0  0  0  0
 46 66  1  0  0  0  0
 47 72  1  0  0  0  0
 48 65  1  0  0  0  0
 49 64  1  0  0  0  0
 50 58  1  0  0  0  0
 51 60  1  0  0  0  0
 52 60  1  0  0  0  0
 53 60  1  0  0  0  0
 54 74  1  0  0  0  0
 55 59  1  0  0  0  0
 55 71  1  0  0  0  0
 56 59  1  0  0  0  0
 56 83  1  0  0  0  0
 57 60  1  0  0  0  0
 57 73  1  0  0  0  0
 58 74  1  0  0  0  0
 59 81  1  0  0  0  0
 62 64  1  0  0  0  0
M  CHG  1  74   1
M  ISO  4  37 100  56 101  70 100  83 101
M  END
> <Batch ID>
0195

> <Smiles>
CNC(C)C(=O)NC(C(=O)N1Cc2cc([101O:1][101CH2:1]C(O)CNC(=O)c3ncc([100NH:0][100C:0](=O)N4CCCC(n5nc(-c6ccc(Oc7ccc(F)cc7F)cc6)c(C(N)=O)c5N)C4)nc3N)ccc2CC1C(=O)NC1CCCc2ccccc21)C(C)(C)C

> <Shape>
0.337

> <Color>
0.149

> <Negative vol penalty>
0.000

$$$$

  -OEChem-04052305363D

 85 93  0     1  0  0  0  0  0999 V2000
  -23.1980  -22.1669   18.0480 C   0  0  0  0  0  0  0  0  0  0  0  0
  -24.3652  -21.4762   17.7382 C   0  0  0  0  0  0  0  0  0  0  0  0
  -24.8511  -25.6443   20.2408 C   0  0  0  0  0  0  0  0  0  0  0  0
  -25.6713  -25.2474   22.4784 C   0  0  0  0  0  0  0  0  0  0  0  0
  -22.5187  -21.8891   19.2334 C   0  0  0  0  0  0  0  0  0  0  0  0
  -24.8544  -20.5079   18.6144 C   0  0  0  0  0  0  0  0  0  0  0  0
  -28.3825  -14.2734   18.6398 C   0  0  0  0  0  0  0  0  0  0  0  0
  -23.6371  -26.0885   20.7646 C   0  0  0  0  0  0  0  0  0  0  0  0
  -24.4573  -25.6916   23.0022 C   0  0  0  0  0  0  0  0  0  0  0  0
  -29.4924  -13.6664   19.2257 C   0  0  0  0  0  0  0  0  0  0  0  0
  -22.4207  -28.9014   22.1932 C   0  0  0  0  0  0  0  0  0  0  0  0
  -21.8726  -30.0678   21.6597 C   0  0  0  0  0  0  0  0  0  0  0  0
  -28.1920  -13.2146   21.2066 C   0  0  0  0  0  0  0  0  0  0  0  0
  -19.9037  -28.8370   20.9920 C   0  0  0  0  0  0  0  0  0  0  0  0
  -30.9041  -19.0588   24.0596 C   0  0  0  0  0  0  0  0  0  0  0  0
  -25.8682  -25.2237   21.0977 C   0  0  0  0  0  0  0  0  0  0  0  0
  -28.2628  -25.5406   20.2770 C   0  0  0  0  0  0  0  0  0  0  0  0
  -22.9945  -20.9101   20.1199 C   0  0  0  0  0  0  0  0  0  0  0  0
  -27.1700  -14.3655   19.3383 C   0  0  0  0  0  0  0  0  0  0  0  0
  -24.1815  -20.2176   19.8134 C   0  0  0  0  0  0  0  0  0  0  0  0
  -27.0675  -13.8210   20.6263 C   0  0  0  0  0  0  0  0  0  0  0  0
  -23.4402  -26.1122   22.1453 C   0  0  0  0  0  0  0  0  0  0  0  0
  -29.3981  -13.1394   20.5104 C   0  0  0  0  0  0  0  0  0  0  0  0
  -21.7105  -27.7028   22.1260 C   0  0  0  0  0  0  0  0  0  0  0  0
  -20.6141  -30.0356   21.0591 C   0  0  0  0  0  0  0  0  0  0  0  0
  -20.4519  -27.6706   21.5254 C   0  0  0  0  0  0  0  0  0  0  0  0
  -27.1224  -24.7642   20.5572 C   0  0  0  0  0  0  0  0  0  0  0  0
  -31.6280  -18.3615   25.0052 C   0  0  0  0  0  0  0  0  0  0  0  0
  -30.8344  -18.4750   22.8112 C   0  0  0  0  0  0  0  0  0  0  0  0
  -29.1770  -24.6422   19.7835 C   0  0  0  0  0  0  0  0  0  0  0  0
  -32.0988  -16.7186   23.5064 C   0  0  0  0  0  0  0  0  0  0  0  0
  -28.4766  -26.9480   20.4478 C   0  0  0  0  0  0  0  0  0  0  0  0
  -25.3562  -16.7600   20.3774 C   0  0  0  0  0  0  0  0  0  0  0  0
  -23.3193  -14.3608   21.1629 C   0  0  0  0  0  0  0  0  0  0  0  0
  -22.8844  -11.0637   21.9290 C   0  0  0  0  0  0  0  0  0  0  0  0
  -29.9027  -18.7529   20.4872 C   0  0  0  0  0  0  0  0  0  0  0  0
  -22.2516  -20.6779   21.4117 C   0  0  0  0  0  0  0  0  0  0  0  0
  -25.9744  -14.9996   18.6819 C   0  0  0  0  0  0  0  0  0  0  0  0
  -25.7828  -13.8761   21.4106 C   0  0  0  0  0  0  0  0  0  0  0  0
  -22.6321  -19.3733   22.1071 C   0  0  0  0  0  0  0  0  0  0  0  0
  -29.4425  -20.4894   17.4131 C   0  0  0  0  0  0  0  0  0  0  0  0
  -24.1483  -19.2103   22.1436 C   0  0  0  0  0  0  0  0  0  0  0  0
  -28.9048  -21.8555   17.8454 C   0  0  0  0  0  0  0  0  0  0  0  0
  -28.9050  -19.3636   18.2948 C   0  0  0  0  0  0  0  0  0  0  0  0
  -28.5612  -20.9243   20.1696 C   0  0  0  0  0  0  0  0  0  0  0  0
  -24.7302  -19.1427   20.7264 C   0  0  1  0  0  0  0  0  0  0  0  0
  -24.9359  -15.4954   19.6834 C   0  0  1  0  0  0  0  0  0  0  0  0
  -29.1257  -22.0972   19.3515 C   0  0  2  0  0  0  0  0  0  0  0  0
  -21.1100   -9.4056   22.5609 C   0  0  0  0  0  0  0  0  0  0  0  0
  -33.6365  -15.5787   20.9899 C   0  0  0  0  0  0  0  0  0  0  0  0
  -23.2609  -15.5047   23.9909 C   0  0  0  0  0  0  0  0  0  0  0  0
  -22.2838  -13.3363   24.7730 C   0  0  0  0  0  0  0  0  0  0  0  0
  -21.0411  -14.7412   23.1284 C   0  0  0  0  0  0  0  0  0  0  0  0
  -23.3984   -9.4211   19.5214 C   0  0  0  0  0  0  0  0  0  0  0  0
  -33.0058  -13.3835   22.0525 C   0  0  0  0  0  0  0  0  0  0  0  0
  -30.5820  -12.6196   22.5064 C   0  0  0  0  0  0  0  0  0  1  0  0
  -23.1083  -13.4929   22.3799 C   0  0  1  0  0  0  0  0  0  0  0  0
  -21.8935  -10.0332   21.4186 C   0  0  2  0  0  0  0  0  0  0  0  0
  -32.6586  -14.8722   21.9243 C   0  0  1  0  0  0  0  0  0  0  0  0
  -32.0459  -12.5718   22.9378 C   0  0  1  0  0  0  0  0  0  0  0  0
  -22.4484  -14.2693   23.5543 C   0  0  0  0  0  0  0  0  0  0  0  0
  -27.2939  -23.4720   20.2656 N   0  0  0  0  0  0  0  0  0  0  0  0
  -32.2406  -17.1843   24.7620 N   0  0  0  0  0  0  0  0  0  0  0  0
  -31.4220  -17.3015   22.4985 N   0  0  0  0  0  0  0  0  0  0  0  0
  -28.5528  -23.4296   19.7971 N   0  0  0  0  0  0  0  0  0  0  0  0
  -24.6437  -14.5119   20.7282 N   0  0  0  0  0  0  0  0  0  0  0  0
  -29.1537  -19.6594   19.7074 N   0  0  0  0  0  0  0  0  0  0  0  0
  -31.7240  -18.9264   26.3006 N   0  0  0  0  0  0  0  0  0  0  0  0
  -30.4459  -24.7791   19.3434 N   0  0  0  0  0  0  0  0  0  0  0  0
  -27.4319  -27.7243   20.9677 N   0  0  0  0  0  0  0  0  0  0  0  0
  -30.1023  -19.1560   21.8072 N   0  0  0  0  0  0  0  0  0  0  0  0
  -32.7138  -15.5124   23.2215 N   0  0  0  0  0  0  0  0  0  0  0  0
  -24.5132  -17.8317   20.1530 N   0  0  0  0  0  0  0  0  0  0  0  0
  -22.3470  -12.3335   21.9276 N   0  0  0  0  0  0  0  0  0  0  0  0
  -22.6056   -8.9485   20.6855 N   0  3  0  0  0  0  0  0  0  0  0  0
  -29.5564  -27.5035   20.1329 O   0  0  0  0  0  0  0  0  0  0  0  0
  -26.3694  -16.7629   21.0667 O   0  0  0  0  0  0  0  0  0  0  0  0
  -22.3441  -14.8796   20.6137 O   0  0  0  0  0  0  0  0  0  0  0  0
  -24.0202  -10.7710   22.2961 O   0  0  0  0  0  0  0  0  0  0  0  0
  -30.3583  -17.7099   20.0113 O   0  0  0  0  0  0  0  0  0  0  0  0
  -32.4600  -11.2030   22.9092 O   0  0  0  0  0  0  0  0  0  0  0  0
  -22.2557  -26.5458   22.6568 O   0  0  0  0  0  0  0  0  0  0  0  0
  -30.4801  -12.5469   21.0849 O   0  0  0  0  0  0  0  0  0  1  0  0
  -20.0871  -31.1561   20.5483 F   0  0  0  0  0  0  0  0  0  0  0  0
  -19.7643  -26.5223   21.4589 F   0  0  0  0  0  0  0  0  0  0  0  0
  1  2  1  0  0  0  0
  1  5  2  0  0  0  0
  2  6  2  0  0  0  0
  3  8  2  0  0  0  0
  3 16  1  0  0  0  0
  4  9  1  0  0  0  0
  4 16  2  0  0  0  0
  5 18  1  0  0  0  0
  6 20  1  0  0  0  0
  7 10  2  0  0  0  0
  7 19  1  0  0  0  0
  8 22  1  0  0  0  0
  9 22  2  0  0  0  0
 10 23  1  0  0  0  0
 11 12  2  0  0  0  0
 11 24  1  0  0  0  0
 12 25  1  0  0  0  0
 13 21  1  0  0  0  0
 13 23  2  0  0  0  0
 14 25  2  0  0  0  0
 14 26  1  0  0  0  0
 15 28  1  0  0  0  0
 15 29  2  0  0  0  0
 16 27  1  0  0  0  0
 17 27  1  0  0  0  0
 17 30  2  0  0  0  0
 17 32  1  0  0  0  0
 18 20  2  0  0  0  0
 18 37  1  0  0  0  0
 19 21  2  0  0  0  0
 19 38  1  0  0  0  0
 20 46  1  0  0  0  0
 21 39  1  0  0  0  0
 22 82  1  0  0  0  0
 23 83  1  0  0  0  0
 24 26  2  0  0  0  0
 24 82  1  0  0  0  0
 25 84  1  0  0  0  0
 26 85  1  0  0  0  0
 27 62  2  0  0  0  0
 28 63  2  0  0  0  0
 28 68  1  0  0  0  0
 29 64  1  0  0  0  0
 29 71  1  0  0  0  0
 30 65  1  0  0  0  0
 30 69  1  0  0  0  0
 31 63  1  0  0  0  0
 31 64  2  0  0  0  0
 31 72  1  0  0  0  0
 32 70  1  0  0  0  0
 32 76  2  0  0  0  0
 33 47  1  0  0  0  0
 33 73  1  0  0  0  0
 33 77  2  0  0  0  0
 34 57  1  0  0  0  0
 34 66  1  0  0  0  0
 34 78  2  0  0  0  0
 35 58  1  0  0  0  0
 35 74  1  0  0  0  0
 35 79  2  0  0  0  0
 36 67  1  0  0  0  0
 36 71  1  0  0  0  0
 36 80  2  0  0  0  0
 37 40  1  0  0  0  0
 38 47  1  0  0  0  0
 39 66  1  0  0  0  0
 40 42  1  0  0  0  0
 41 43  1  0  0  0  0
 41 44  1  0  0  0  0
 42 46  1  0  0  0  0
 43 48  1  0  0  0  0
 44 67  1  0  0  0  0
 45 48  1  0  0  0  0
 45 67  1  0  0  0  0
 46 73  1  0  0  0  0
 47 66  1  0  0  0  0
 48 65  1  0  0  0  0
 49 58  1  0  0  0  0
 50 59  1  0  0  0  0
 51 61  1  0  0  0  0
 52 61  1  0  0  0  0
 53 61  1  0  0  0  0
 54 75  1  0  0  0  0
 55 59  1  0  0  0  0
 55 60  1  0  0  0  0
 56 60  1  0  0  0  0
 56 83  1  0  0  0  0
 57 61  1  0  0  0  0
 57 74  1  0  0  0  0
 58 75  1  0  0  0  0
 59 72  1  0  0  0  0
 60 81  1  0  0  0  0
 62 65  1  0  0  0  0
M  CHG  1  75   1
M  ISO  4  36 100  56 101  71 100  83 101
M  END
> <Batch ID>
0195

> <Smiles>
CNC(C)C(=O)NC(C(=O)N1Cc2cc([101O:1][101CH2:1]C(O)CC(C)Nc3nc(N)cc([100NH:0][100C:0](=O)N4CCCC(n5nc(-c6ccc(Oc7ccc(F)cc7F)cc6)c(C(N)=O)c5N)C4)n3)ccc2CC1C(=O)NC1CCCc2ccccc21)C(C)(C)C

> <Shape>
0.230

> <Color>
0.064

> <Negative vol penalty>
0.000

$$$$

  -OEChem-04052305363D

 82 90  0     1  0  0  0  0  0999 V2000
  -25.3852  -11.2307   19.7588 C   0  0  0  0  0  0  0  0  0  0  0  0
  -25.0460  -12.4471   20.3425 C   0  0  0  0  0  0  0  0  0  0  0  0
  -25.2260  -27.7760   19.3230 C   0  0  0  0  0  0  0  0  0  0  0  0
  -25.7240  -25.7978   20.6175 C   0  0  0  0  0  0  0  0  0  0  0  0
  -26.7009  -10.9906   19.3651 C   0  0  0  0  0  0  0  0  0  0  0  0
  -26.0227  -13.4238   20.5337 C   0  0  0  0  0  0  0  0  0  0  0  0
  -24.4466  -18.0400   19.1727 C   0  0  0  0  0  0  0  0  0  0  0  0
  -26.5825  -28.0997   19.2957 C   0  0  0  0  0  0  0  0  0  0  0  0
  -27.0805  -26.1214   20.5901 C   0  0  0  0  0  0  0  0  0  0  0  0
  -23.6090  -18.7141   20.0602 C   0  0  0  0  0  0  0  0  0  0  0  0
  -29.1686  -28.2425   22.1938 C   0  0  0  0  0  0  0  0  0  0  0  0
  -29.8839  -28.1380   23.3867 C   0  0  0  0  0  0  0  0  0  0  0  0
  -25.4921  -19.9955   20.8547 C   0  0  0  0  0  0  0  0  0  0  0  0
  -31.3509  -26.5130   22.3645 C   0  0  0  0  0  0  0  0  0  0  0  0
  -21.2348  -21.1137   27.5226 C   0  0  0  0  0  0  0  0  0  0  0  0
  -24.7967  -26.6251   19.9840 C   0  0  0  0  0  0  0  0  0  0  0  0
  -22.6899  -25.5041   19.0829 C   0  0  0  0  0  0  0  0  0  0  0  0
  -27.6923  -11.9685   19.5427 C   0  0  0  0  0  0  0  0  0  0  0  0
  -25.8176  -18.3313   19.1272 C   0  0  0  0  0  0  0  0  0  0  0  0
  -27.3532  -13.1960   20.1431 C   0  0  0  0  0  0  0  0  0  0  0  0
  -26.3445  -19.3254   19.9640 C   0  0  0  0  0  0  0  0  0  0  0  0
  -20.3695  -22.1875   27.5733 C   0  0  0  0  0  0  0  0  0  0  0  0
  -27.5098  -27.2723   19.9292 C   0  0  0  0  0  0  0  0  0  0  0  0
  -24.1322  -19.6900   20.9034 C   0  0  0  0  0  0  0  0  0  0  0  0
  -29.5443  -27.4822   21.0863 C   0  0  0  0  0  0  0  0  0  0  0  0
  -30.9751  -27.2733   23.4720 C   0  0  0  0  0  0  0  0  0  0  0  0
  -30.6355  -26.6175   21.1717 C   0  0  0  0  0  0  0  0  0  0  0  0
  -23.3955  -26.2906   20.0130 C   0  0  0  0  0  0  0  0  0  0  0  0
  -20.3419  -22.9856   26.4479 C   0  0  0  0  0  0  0  0  0  0  0  0
  -21.4003  -25.4876   19.5555 C   0  0  0  0  0  0  0  0  0  0  0  0
  -21.8993  -21.6837   25.4249 C   0  0  0  0  0  0  0  0  0  0  0  0
  -23.1581  -24.8470   17.8977 C   0  0  0  0  0  0  0  0  0  0  0  0
  -28.4804  -16.6832   19.6720 C   0  0  0  0  0  0  0  0  0  0  0  0
  -29.9109  -19.3834   18.5833 C   0  0  0  0  0  0  0  0  0  0  0  0
  -29.7313  -22.7527   18.0716 C   0  0  0  0  0  0  0  0  0  0  0  0
  -19.0489  -26.2083   25.0146 C   0  0  0  0  0  0  0  0  0  0  0  0
  -29.1105  -11.6451   19.1444 C   0  0  0  0  0  0  0  0  0  0  0  0
  -26.7030  -17.6139   18.1454 C   0  0  0  0  0  0  0  0  0  0  0  0
  -27.8057  -19.6898   19.9397 C   0  0  0  0  0  0  0  0  0  0  0  0
  -30.0092  -12.8747   19.0398 C   0  0  0  0  0  0  0  0  0  0  0  0
  -18.3102  -28.1109   22.0972 C   0  0  0  0  0  0  0  0  0  0  0  0
  -29.8220  -13.7776   20.2549 C   0  0  0  0  0  0  0  0  0  0  0  0
  -19.4660  -27.7891   21.1483 C   0  0  0  0  0  0  0  0  0  0  0  0
  -18.7766  -28.1870   23.5493 C   0  0  0  0  0  0  0  0  0  0  0  0
  -20.6682  -26.6794   23.0776 C   0  0  0  0  0  0  0  0  0  0  0  0
  -28.3794  -14.2898   20.3446 C   0  0  1  0  0  0  0  0  0  0  0  0
  -28.1750  -17.6299   18.5459 C   0  0  1  0  0  0  0  0  0  0  0  0
  -20.2369  -26.5370   21.6079 C   0  0  2  0  0  0  0  0  0  0  0  0
  -30.4240  -25.0254   17.2638 C   0  0  0  0  0  0  0  0  0  0  0  0
  -31.5636  -19.3922   21.1482 C   0  0  0  0  0  0  0  0  0  0  0  0
  -32.1579  -21.7777   20.6745 C   0  0  0  0  0  0  0  0  0  0  0  0
  -32.8416  -19.9839   19.0816 C   0  0  0  0  0  0  0  0  0  0  0  0
  -28.4314  -22.3428   15.4447 C   0  0  0  0  0  0  0  0  0  0  0  0
  -19.4441  -24.1778   26.3857 C   0  0  0  0  0  0  0  0  0  0  0  0
  -22.6848  -22.2372   23.1222 C   0  0  0  0  0  0  0  0  0  0  0  0
  -23.6742  -21.6890   22.1076 C   0  0  0  0  0  0  0  0  0  1  0  0
  -30.4091  -20.6595   19.2176 C   0  0  1  0  0  0  0  0  0  0  0  0
  -30.0567  -23.6062   16.8591 C   0  0  2  0  0  0  0  0  0  0  0  0
  -31.7158  -20.4453   20.0325 C   0  0  0  0  0  0  0  0  0  0  0  0
  -22.0173  -20.8310   26.4605 N   0  0  0  0  0  0  0  0  0  0  0  0
  -22.6187  -26.7413   21.0017 N   0  0  0  0  0  0  0  0  0  0  0  0
  -21.0963  -22.7623   25.3518 N   0  0  0  0  0  0  0  0  0  0  0  0
  -21.4115  -26.2365   20.6953 N   0  0  0  0  0  0  0  0  0  0  0  0
  -28.6318  -18.9559   18.9669 N   0  0  0  0  0  0  0  0  0  0  0  0
  -19.4990  -26.9685   23.9226 N   0  0  0  0  0  0  0  0  0  0  0  0
  -19.5791  -22.4336   28.7022 N   0  0  0  0  0  0  0  0  0  0  0  0
  -20.2693  -24.9059   19.1030 N   0  0  0  0  0  0  0  0  0  0  0  0
  -24.5127  -24.9667   17.5583 N   0  0  0  0  0  0  0  0  0  0  0  0
  -22.6882  -21.4238   24.3165 N   0  0  0  0  0  0  0  0  0  0  0  0
  -28.1653  -15.3655   19.4004 N   0  0  0  0  0  0  0  0  0  0  0  0
  -30.5315  -21.6317   18.1368 N   0  0  0  0  0  0  0  0  0  0  0  0
  -19.7867  -25.0653   25.2968 N   0  0  0  0  0  0  0  0  0  0  0  0
  -28.8855  -23.6678   15.9397 N   0  3  0  0  0  0  0  0  0  0  0  0
  -22.3945  -24.1872   17.1527 O   0  0  0  0  0  0  0  0  0  0  0  0
  -28.9673  -17.1160   20.7099 O   0  0  0  0  0  0  0  0  0  0  0  0
  -30.6271  -18.7916   17.7719 O   0  0  0  0  0  0  0  0  0  0  0  0
  -28.8574  -23.0526   18.8821 O   0  0  0  0  0  0  0  0  0  0  0  0
  -18.0593  -26.5220   25.6850 O   0  0  0  0  0  0  0  0  0  0  0  0
  -28.8336  -27.5877   19.9025 O   0  0  0  0  0  0  0  0  0  0  0  0
  -23.3169  -20.3491   21.7711 O   0  0  0  0  0  0  0  0  0  1  0  0
  -31.6629  -27.1742   24.6171 F   0  0  0  0  0  0  0  0  0  0  0  0
  -31.0019  -25.8855   20.1107 F   0  0  0  0  0  0  0  0  0  0  0  0
  1  2  1  0  0  0  0
  1  5  2  0  0  0  0
  2  6  2  0  0  0  0
  3  8  2  0  0  0  0
  3 16  1  0  0  0  0
  4  9  1  0  0  0  0
  4 16  2  0  0  0  0
  5 18  1  0  0  0  0
  6 20  1  0  0  0  0
  7 10  2  0  0  0  0
  7 19  1  0  0  0  0
  8 23  1  0  0  0  0
  9 23  2  0  0  0  0
 10 24  1  0  0  0  0
 11 12  2  0  0  0  0
 11 25  1  0  0  0  0
 12 26  1  0  0  0  0
 13 21  1  0  0  0  0
 13 24  2  0  0  0  0
 14 26  2  0  0  0  0
 14 27  1  0  0  0  0
 15 22  1  0  0  0  0
 15 60  2  0  0  0  0
 16 28  1  0  0  0  0
 17 28  1  0  0  0  0
 17 30  2  0  0  0  0
 17 32  1  0  0  0  0
 18 20  2  0  0  0  0
 18 37  1  0  0  0  0
 19 21  2  0  0  0  0
 19 38  1  0  0  0  0
 20 46  1  0  0  0  0
 21 39  1  0  0  0  0
 22 29  2  0  0  0  0
 22 66  1  0  0  0  0
 23 79  1  0  0  0  0
 24 80  1  0  0  0  0
 25 27  2  0  0  0  0
 25 79  1  0  0  0  0
 26 81  1  0  0  0  0
 27 82  1  0  0  0  0
 28 61  2  0  0  0  0
 29 54  1  0  0  0  0
 29 62  1  0  0  0  0
 30 63  1  0  0  0  0
 30 67  1  0  0  0  0
 31 60  1  0  0  0  0
 31 62  2  0  0  0  0
 31 69  1  0  0  0  0
 32 68  1  0  0  0  0
 32 74  2  0  0  0  0
 33 47  1  0  0  0  0
 33 70  1  0  0  0  0
 33 75  2  0  0  0  0
 34 57  1  0  0  0  0
 34 64  1  0  0  0  0
 34 76  2  0  0  0  0
 35 58  1  0  0  0  0
 35 71  1  0  0  0  0
 35 77  2  0  0  0  0
 36 65  1  0  0  0  0
 36 72  1  0  0  0  0
 36 78  2  0  0  0  0
 37 40  1  0  0  0  0
 38 47  1  0  0  0  0
 39 64  1  0  0  0  0
 40 42  1  0  0  0  0
 41 43  1  0  0  0  0
 41 44  1  0  0  0  0
 42 46  1  0  0  0  0
 43 48  1  0  0  0  0
 44 65  1  0  0  0  0
 45 48  1  0  0  0  0
 45 65  1  0  0  0  0
 46 70  1  0  0  0  0
 47 64  1  0  0  0  0
 48 63  1  0  0  0  0
 49 58  1  0  0  0  0
 50 59  1  0  0  0  0
 51 59  1  0  0  0  0
 52 59  1  0  0  0  0
 53 73  1  0  0  0  0
 54 72  1  0  0  0  0
 55 56  1  0  0  0  0
 55 69  1  0  0  0  0
 56 80  1  0  0  0  0
 57 59  1  0  0  0  0
 57 71  1  0  0  0  0
 58 73  1  0  0  0  0
 61 63  1  0  0  0  0
M  CHG  1  73   1
M  ISO  4  36 100  56 101  72 100  80 101
M  END
> <Batch ID>
0195

> <Smiles>
CNC(C)C(=O)NC(C(=O)N1Cc2cc([101O:1][101CH2:1]CNc3ncc(N)c(C[100NH:0][100C:0](=O)N4CCCC(n5nc(-c6ccc(Oc7ccc(F)cc7F)cc6)c(C(N)=O)c5N)C4)n3)ccc2CC1C(=O)NC1CCCc2ccccc21)C(C)(C)C

> <Shape>
0.206

> <Color>
0.064

> <Negative vol penalty>
0.000

$$$$

  -OEChem-04052305363D

 85 93  0     1  0  0  0  0  0999 V2000
  -34.8401  -24.8483   16.2024 C   0  0  0  0  0  0  0  0  0  0  0  0
  -34.0034  -24.7103   17.3052 C   0  0  0  0  0  0  0  0  0  0  0  0
  -22.9983   -9.8958   19.9805 C   0  0  0  0  0  0  0  0  0  0  0  0
  -23.7260   -9.9437   22.2838 C   0  0  0  0  0  0  0  0  0  0  0  0
  -34.3849  -25.5082   15.0617 C   0  0  0  0  0  0  0  0  0  0  0  0
  -32.7112  -25.2331   17.2683 C   0  0  0  0  0  0  0  0  0  0  0  0
  -29.2597  -22.0135   19.1029 C   0  0  0  0  0  0  0  0  0  0  0  0
  -22.2315   -8.7614   20.2463 C   0  0  0  0  0  0  0  0  0  0  0  0
  -22.9592   -8.8092   22.5496 C   0  0  0  0  0  0  0  0  0  0  0  0
  -29.1670  -21.9015   20.4895 C   0  0  0  0  0  0  0  0  0  0  0  0
  -23.2013   -5.4707   22.0734 C   0  0  0  0  0  0  0  0  0  0  0  0
  -23.7891   -4.4523   22.8237 C   0  0  0  0  0  0  0  0  0  0  0  0
  -27.2509  -23.3670   20.4738 C   0  0  0  0  0  0  0  0  0  0  0  0
  -22.0671   -4.6941   24.5010 C   0  0  0  0  0  0  0  0  0  0  0  0
  -23.7457  -10.4869   20.9993 C   0  0  0  0  0  0  0  0  0  0  0  0
  -24.1321  -13.0025   20.8259 C   0  0  0  0  0  0  0  0  0  0  0  0
  -33.0832  -26.0309   15.0072 C   0  0  0  0  0  0  0  0  0  0  0  0
  -28.3538  -22.8132   18.3913 C   0  0  0  0  0  0  0  0  0  0  0  0
  -32.2386  -25.9018   16.1263 C   0  0  0  0  0  0  0  0  0  0  0  0
  -27.3327  -23.4855   19.0779 C   0  0  0  0  0  0  0  0  0  0  0  0
  -22.2119   -8.2181   21.5308 C   0  0  0  0  0  0  0  0  0  0  0  0
  -28.1643  -22.5806   21.1754 C   0  0  0  0  0  0  0  0  0  0  0  0
  -22.0464   -6.1009   22.5370 C   0  0  0  0  0  0  0  0  0  0  0  0
  -23.2220   -4.0640   24.0374 C   0  0  0  0  0  0  0  0  0  0  0  0
  -21.4793   -5.7126   23.7508 C   0  0  0  0  0  0  0  0  0  0  0  0
  -24.5384  -11.6585   20.7252 C   0  0  0  0  0  0  0  0  0  0  0  0
  -31.8499  -18.6586   22.2117 C   0  0  0  0  0  0  0  0  0  0  0  0
  -25.2418  -13.7250   20.4612 C   0  0  0  0  0  0  0  0  0  0  0  0
  -30.7441  -19.0606   22.9313 C   0  0  0  0  0  0  0  0  0  0  0  0
  -30.5872  -16.8948   21.8886 C   0  0  0  0  0  0  0  0  0  0  0  0
  -22.8648  -13.5491   21.2144 C   0  0  0  0  0  0  0  0  0  0  0  0
  -28.6037  -25.3960   16.5554 C   0  0  0  0  0  0  0  0  0  0  0  0
  -25.4429  -24.8670   16.0532 C   0  0  0  0  0  0  0  0  0  0  0  0
  -22.5219  -23.4978   17.1666 C   0  0  0  0  0  0  0  0  0  0  0  0
  -30.7221  -14.6829   20.6904 C   0  0  0  0  0  0  0  0  0  0  0  0
  -32.6520  -26.7775   13.7698 C   0  0  0  0  0  0  0  0  0  0  0  0
  -28.4509  -22.9022   16.8929 C   0  0  0  0  0  0  0  0  0  0  0  0
  -26.3229  -24.3406   18.3584 C   0  0  0  0  0  0  0  0  0  0  0  0
  -31.1413  -26.9745   13.6727 C   0  0  0  0  0  0  0  0  0  0  0  0
  -29.5999  -12.2336   18.3626 C   0  0  0  0  0  0  0  0  0  0  0  0
  -30.5799  -27.4625   15.0044 C   0  0  0  0  0  0  0  0  0  0  0  0
  -28.1497  -11.9762   18.7780 C   0  0  0  0  0  0  0  0  0  0  0  0
  -30.5019  -12.4749   19.5717 C   0  0  0  0  0  0  0  0  0  0  0  0
  -28.5884  -13.2631   20.9083 C   0  0  0  0  0  0  0  0  0  0  0  0
  -30.8219  -26.4336   16.1154 C   0  0  1  0  0  0  0  0  0  0  0  0
  -27.7898  -24.1542   16.3247 C   0  0  1  0  0  0  0  0  0  0  0  0
  -27.6294  -13.0788   19.7209 C   0  0  2  0  0  0  0  0  0  0  0  0
  -33.3762  -19.7824   20.5500 C   0  0  0  0  0  0  0  0  0  0  0  0
  -34.3364  -18.7148   22.6220 C   0  0  0  0  0  0  0  0  0  0  0  0
  -20.0986  -23.2629   16.5582 C   0  0  0  0  0  0  0  0  0  0  0  0
  -29.3555  -19.8095   25.6765 C   0  0  0  0  0  0  0  0  0  0  0  0
  -29.0488  -24.3899   23.5922 C   0  0  0  0  0  0  0  0  0  0  0  0
  -24.9525  -27.7566   16.9014 C   0  0  0  0  0  0  0  0  0  0  0  0
  -22.5317  -27.1873   17.1913 C   0  0  0  0  0  0  0  0  0  0  0  0
  -23.5947  -26.9996   14.9424 C   0  0  0  0  0  0  0  0  0  0  0  0
  -22.7163  -20.5467   17.0544 C   0  0  0  0  0  0  0  0  0  0  0  0
  -29.2707  -22.0836   24.5883 C   0  0  0  0  0  0  0  0  0  0  0  0
  -33.0997  -19.4266   22.0283 C   0  0  0  0  0  0  0  0  0  0  0  0
  -24.1653  -25.3037   16.7285 C   0  0  1  0  0  0  0  0  0  0  0  0
  -21.4824  -22.6383   16.4700 C   0  0  2  0  0  0  0  0  0  0  0  0
  -29.3510  -20.5667   24.3513 C   0  0  1  0  0  0  0  0  0  0  0  0
  -29.1979  -22.9037   23.2928 C   0  0  1  0  0  0  0  0  0  1  0  0
  -23.8311  -26.7973   16.4550 C   0  0  0  0  0  0  0  0  0  0  0  0
  -25.8072  -11.5318   20.3275 N   0  0  0  0  0  0  0  0  0  0  0  0
  -31.7619  -17.4168   21.6134 N   0  0  0  0  0  0  0  0  0  0  0  0
  -26.2077  -12.8056   20.1750 N   0  0  0  0  0  0  0  0  0  0  0  0
  -26.4635  -24.4010   16.8941 N   0  0  0  0  0  0  0  0  0  0  0  0
  -29.9484  -13.5351   20.4170 N   0  0  0  0  0  0  0  0  0  0  0  0
  -25.4758  -15.0507   20.3604 N   0  0  0  0  0  0  0  0  0  0  0  0
  -21.8329  -12.6651   21.5580 N   0  0  0  0  0  0  0  0  0  0  0  0
  -30.5615  -20.2431   23.6257 N   0  0  0  0  0  0  0  0  0  0  0  0
  -30.0792  -15.6374   21.4779 N   0  0  0  0  0  0  0  0  0  0  0  0
  -29.8732  -25.3457   16.0120 N   0  0  0  0  0  0  0  0  0  0  0  0
  -23.1328  -24.3705   16.2911 N   0  0  0  0  0  0  0  0  0  0  0  0
  -21.4278  -21.2852   17.0921 N   0  3  0  0  0  0  0  0  0  0  0  0
  -22.6488  -14.7845   21.2399 O   0  0  0  0  0  0  0  0  0  0  0  0
  -28.1155  -26.3311   17.1790 O   0  0  0  0  0  0  0  0  0  0  0  0
  -25.5295  -24.9300   14.8244 O   0  0  0  0  0  0  0  0  0  0  0  0
  -22.7647  -23.4068   18.3679 O   0  0  0  0  0  0  0  0  0  0  0  0
  -31.8603  -14.8218   20.2354 O   0  0  0  0  0  0  0  0  0  0  0  0
  -21.4635   -7.1113   21.7906 O   0  0  0  0  0  0  0  0  0  0  0  0
  -28.0720  -22.4735   22.5289 O   0  0  0  0  0  0  0  0  0  1  0  0
  -23.7857   -3.0849   24.7570 F   0  0  0  0  0  0  0  0  0  0  0  0
  -20.3692   -6.3135   24.2007 F   0  0  0  0  0  0  0  0  0  0  0  0
  -29.5385  -17.8429   22.8613 S   0  0  0  0  0  0  0  0  0  0  0  0
  1  2  1  0  0  0  0
  1  5  2  0  0  0  0
  2  6  2  0  0  0  0
  3  8  2  0  0  0  0
  3 15  1  0  0  0  0
  4  9  1  0  0  0  0
  4 15  2  0  0  0  0
  5 17  1  0  0  0  0
  6 19  1  0  0  0  0
  7 10  2  0  0  0  0
  7 18  1  0  0  0  0
  8 21  1  0  0  0  0
  9 21  2  0  0  0  0
 10 22  1  0  0  0  0
 11 12  2  0  0  0  0
 11 23  1  0  0  0  0
 12 24  1  0  0  0  0
 13 20  1  0  0  0  0
 13 22  2  0  0  0  0
 14 24  2  0  0  0  0
 14 25  1  0  0  0  0
 15 26  1  0  0  0  0
 16 26  1  0  0  0  0
 16 28  2  0  0  0  0
 16 31  1  0  0  0  0
 17 19  2  0  0  0  0
 17 36  1  0  0  0  0
 18 20  2  0  0  0  0
 18 37  1  0  0  0  0
 19 45  1  0  0  0  0
 20 38  1  0  0  0  0
 21 81  1  0  0  0  0
 22 82  1  0  0  0  0
 23 25  2  0  0  0  0
 23 81  1  0  0  0  0
 24 83  1  0  0  0  0
 25 84  1  0  0  0  0
 26 64  2  0  0  0  0
 27 29  2  0  0  0  0
 27 58  1  0  0  0  0
 27 65  1  0  0  0  0
 28 66  1  0  0  0  0
 28 69  1  0  0  0  0
 29 71  1  0  0  0  0
 29 85  1  0  0  0  0
 30 65  2  0  0  0  0
 30 72  1  0  0  0  0
 30 85  1  0  0  0  0
 31 70  1  0  0  0  0
 31 76  2  0  0  0  0
 32 46  1  0  0  0  0
 32 73  1  0  0  0  0
 32 77  2  0  0  0  0
 33 59  1  0  0  0  0
 33 67  1  0  0  0  0
 33 78  2  0  0  0  0
 34 60  1  0  0  0  0
 34 74  1  0  0  0  0
 34 79  2  0  0  0  0
 35 68  1  0  0  0  0
 35 72  1  0  0  0  0
 35 80  2  0  0  0  0
 36 39  1  0  0  0  0
 37 46  1  0  0  0  0
 38 67  1  0  0  0  0
 39 41  1  0  0  0  0
 40 42  1  0  0  0  0
 40 43  1  0  0  0  0
 41 45  1  0  0  0  0
 42 47  1  0  0  0  0
 43 68  1  0  0  0  0
 44 47  1  0  0  0  0
 44 68  1  0  0  0  0
 45 73  1  0  0  0  0
 46 67  1  0  0  0  0
 47 66  1  0  0  0  0
 48 58  1  0  0  0  0
 49 58  1  0  0  0  0
 50 60  1  0  0  0  0
 51 61  1  0  0  0  0
 52 62  1  0  0  0  0
 53 63  1  0  0  0  0
 54 63  1  0  0  0  0
 55 63  1  0  0  0  0
 56 75  1  0  0  0  0
 57 61  1  0  0  0  0
 57 62  1  0  0  0  0
 59 63  1  0  0  0  0
 59 74  1  0  0  0  0
 60 75  1  0  0  0  0
 61 71  1  0  0  0  0
 62 82  1  0  0  0  0
 64 66  1  0  0  0  0
M  CHG  1  75   1
M  ISO  4  35 100  62 101  72 100  82 101
M  END
> <Batch ID>
0195

> <Smiles>
CNC(C)C(=O)NC(C(=O)N1Cc2cc([101O:1][101CH:1](C)CC(C)Nc3sc([100NH:0][100C:0](=O)N4CCCC(n5nc(-c6ccc(Oc7ccc(F)cc7F)cc6)c(C(N)=O)c5N)C4)nc3C(C)C)ccc2CC1C(=O)NC1CCCc2ccccc21)C(C)(C)C

> <Shape>
0.215

> <Color>
0.194

> <Negative vol penalty>
0.000

$$$$

  -OEChem-04052305363D

 84 92  0     1  0  0  0  0  0999 V2000
  -23.7899  -30.4538   27.3153 C   0  0  0  0  0  0  0  0  0  0  0  0
  -24.8379  -29.6947   26.8047 C   0  0  0  0  0  0  0  0  0  0  0  0
  -24.7467   -8.7869   21.4864 C   0  0  0  0  0  0  0  0  0  0  0  0
  -23.0431  -10.4663   21.1482 C   0  0  0  0  0  0  0  0  0  0  0  0
  -22.5674  -30.4918   26.6460 C   0  0  0  0  0  0  0  0  0  0  0  0
  -24.6637  -28.9721   25.6249 C   0  0  0  0  0  0  0  0  0  0  0  0
  -28.8693  -27.9146   21.3005 C   0  0  0  0  0  0  0  0  0  0  0  0
  -23.9279   -8.1431   22.4141 C   0  0  0  0  0  0  0  0  0  0  0  0
  -22.2243   -9.8225   22.0759 C   0  0  0  0  0  0  0  0  0  0  0  0
  -29.6903  -26.8186   21.0386 C   0  0  0  0  0  0  0  0  0  0  0  0
  -21.2580   -6.0690   22.3633 C   0  0  0  0  0  0  0  0  0  0  0  0
  -21.1443   -4.6816   22.2748 C   0  0  0  0  0  0  0  0  0  0  0  0
  -28.0901  -26.0138   19.4227 C   0  0  0  0  0  0  0  0  0  0  0  0
  -22.0260   -4.4664   24.5138 C   0  0  0  0  0  0  0  0  0  0  0  0
  -25.2234  -18.5283   20.9165 C   0  0  0  0  0  0  0  0  0  0  0  0
  -25.4650  -20.7271   20.3367 C   0  0  0  0  0  0  0  0  0  0  0  0
  -24.3044   -9.9486   20.8535 C   0  0  0  0  0  0  0  0  0  0  0  0
  -25.2030  -10.3889   18.5069 C   0  0  0  0  0  0  0  0  0  0  0  0
  -22.3812  -29.7770   25.4522 C   0  0  0  0  0  0  0  0  0  0  0  0
  -27.6454  -28.0629   20.6323 C   0  0  0  0  0  0  0  0  0  0  0  0
  -23.4372  -28.9995   24.9397 C   0  0  0  0  0  0  0  0  0  0  0  0
  -27.2567  -27.1139   19.6761 C   0  0  0  0  0  0  0  0  0  0  0  0
  -22.6667   -8.6608   22.7088 C   0  0  0  0  0  0  0  0  0  0  0  0
  -29.2994  -25.8665   20.1017 C   0  0  0  0  0  0  0  0  0  0  0  0
  -21.7558   -6.6551   23.5271 C   0  0  0  0  0  0  0  0  0  0  0  0
  -21.5282   -3.8803   23.3500 C   0  0  0  0  0  0  0  0  0  0  0  0
  -22.1397   -5.8538   24.6024 C   0  0  0  0  0  0  0  0  0  0  0  0
  -25.1500  -10.6144   19.8955 C   0  0  0  0  0  0  0  0  0  0  0  0
  -26.4931  -18.2660   20.4510 C   0  0  0  0  0  0  0  0  0  0  0  0
  -26.7350  -20.4651   19.8719 C   0  0  0  0  0  0  0  0  0  0  0  0
  -26.1570  -11.2664   18.0527 C   0  0  0  0  0  0  0  0  0  0  0  0
  -24.4565   -9.4686   17.6998 C   0  0  0  0  0  0  0  0  0  0  0  0
  -24.5983  -28.1736   21.5305 C   0  0  0  0  0  0  0  0  0  0  0  0
  -24.1058  -28.8667   18.4001 C   0  0  0  0  0  0  0  0  0  0  0  0
  -25.2206  -28.6758   15.1802 C   0  0  0  0  0  0  0  0  0  0  0  0
  -28.2320  -16.4726   20.1252 C   0  0  0  0  0  0  0  0  0  0  0  0
  -21.0269  -29.8110   24.7894 C   0  0  0  0  0  0  0  0  0  0  0  0
  -26.7838  -29.2648   20.9068 C   0  0  0  0  0  0  0  0  0  0  0  0
  -25.9619  -27.2377   18.9168 C   0  0  0  0  0  0  0  0  0  0  0  0
  -21.0427  -29.3158   23.3455 C   0  0  0  0  0  0  0  0  0  0  0  0
  -30.1320  -13.5354   19.4617 C   0  0  0  0  0  0  0  0  0  0  0  0
  -21.8327  -28.0155   23.2358 C   0  0  0  0  0  0  0  0  0  0  0  0
  -29.0743  -12.4336   19.3652 C   0  0  0  0  0  0  0  0  0  0  0  0
  -29.7780  -14.5695   20.5290 C   0  0  0  0  0  0  0  0  0  0  0  0
  -27.3792  -14.0530   20.3092 C   0  0  0  0  0  0  0  0  0  0  0  0
  -23.2949  -28.2217   23.6493 C   0  0  1  0  0  0  0  0  0  0  0  0
  -25.3188  -29.0457   20.5416 C   0  0  1  0  0  0  0  0  0  0  0  0
  -27.6596  -13.0231   19.2027 C   0  0  2  0  0  0  0  0  0  0  0  0
  -31.8154  -22.5552   20.8390 C   0  0  0  0  0  0  0  0  0  0  0  0
  -24.5831  -29.2996   12.8346 C   0  0  0  0  0  0  0  0  0  0  0  0
  -28.7404  -20.7280   17.4371 C   0  0  0  0  0  0  0  0  0  0  0  0
  -22.1047  -26.5643   18.3343 C   0  0  0  0  0  0  0  0  0  0  0  0
  -22.2256  -26.6227   15.8342 C   0  0  0  0  0  0  0  0  0  0  0  0
  -21.3840  -28.6088   17.0872 C   0  0  0  0  0  0  0  0  0  0  0  0
  -27.6081  -30.3962   14.8651 C   0  0  0  0  0  0  0  0  0  0  0  0
  -30.3642  -22.8391   21.2060 C   0  0  0  0  0  0  0  0  0  0  0  0
  -29.5031  -22.7319   18.7585 C   0  0  0  0  0  0  0  0  0  0  0  0
  -23.8501  -28.0555   17.1529 C   0  0  1  0  0  0  0  0  0  0  0  0
  -25.3310  -29.7249   14.0886 C   0  0  2  0  0  0  0  0  0  0  0  0
  -28.8127  -21.3640   18.8227 C   0  0  1  0  0  0  0  0  0  0  0  0
  -29.5488  -23.5014   20.0889 C   0  0  2  0  0  0  0  0  0  1  0  0
  -22.4147  -27.4592   17.1177 C   0  0  0  0  0  0  0  0  0  0  0  0
  -24.6866  -19.7635   20.8676 N   0  0  0  0  0  0  0  0  0  0  0  0
  -26.0026  -11.5609   20.2971 N   0  0  0  0  0  0  0  0  0  0  0  0
  -27.2717  -19.2298   19.9204 N   0  0  0  0  0  0  0  0  0  0  0  0
  -26.6004  -11.9378   19.1540 N   0  0  0  0  0  0  0  0  0  0  0  0
  -25.1509  -28.4272   19.2250 N   0  0  0  0  0  0  0  0  0  0  0  0
  -28.4259  -15.0871   20.3086 N   0  0  0  0  0  0  0  0  0  0  0  0
  -26.6515  -11.5215   16.8228 N   0  0  0  0  0  0  0  0  0  0  0  0
  -23.5163   -8.6400   18.3273 N   0  0  0  0  0  0  0  0  0  0  0  0
  -26.9843  -16.9397   20.5371 N   0  0  0  0  0  0  0  0  0  0  0  0
  -27.4690  -21.5109   19.3411 N   0  0  0  0  0  0  0  0  0  0  0  0
  -24.0349  -28.8658   22.5854 N   0  0  0  0  0  0  0  0  0  0  0  0
  -24.1621  -28.9290   16.0267 N   0  0  0  0  0  0  0  0  0  0  0  0
  -26.7597  -29.9508   13.7298 N   0  3  0  0  0  0  0  0  0  0  0  0
  -24.6303   -9.3719   16.4613 O   0  0  0  0  0  0  0  0  0  0  0  0
  -24.5554  -26.9624   21.3490 O   0  0  0  0  0  0  0  0  0  0  0  0
  -23.4087  -29.8580   18.6302 O   0  0  0  0  0  0  0  0  0  0  0  0
  -25.9937  -27.7247   15.2706 O   0  0  0  0  0  0  0  0  0  0  0  0
  -29.0980  -17.1869   19.6136 O   0  0  0  0  0  0  0  0  0  0  0  0
  -21.8673   -8.0327   23.6138 O   0  0  0  0  0  0  0  0  0  0  0  0
  -30.0985  -24.7954   19.8446 O   0  0  0  0  0  0  0  0  0  1  0  0
  -21.4175   -2.5481   23.2654 F   0  0  0  0  0  0  0  0  0  0  0  0
  -22.6175   -6.4112   25.7235 F   0  0  0  0  0  0  0  0  0  0  0  0
  1  2  1  0  0  0  0
  1  5  2  0  0  0  0
  2  6  2  0  0  0  0
  3  8  2  0  0  0  0
  3 17  1  0  0  0  0
  4  9  1  0  0  0  0
  4 17  2  0  0  0  0
  5 19  1  0  0  0  0
  6 21  1  0  0  0  0
  7 10  2  0  0  0  0
  7 20  1  0  0  0  0
  8 23  1  0  0  0  0
  9 23  2  0  0  0  0
 10 24  1  0  0  0  0
 11 12  2  0  0  0  0
 11 25  1  0  0  0  0
 12 26  1  0  0  0  0
 13 22  1  0  0  0  0
 13 24  2  0  0  0  0
 14 26  2  0  0  0  0
 14 27  1  0  0  0  0
 15 29  2  0  0  0  0
 15 63  1  0  0  0  0
 16 30  1  0  0  0  0
 16 63  2  0  0  0  0
 17 28  1  0  0  0  0
 18 28  1  0  0  0  0
 18 31  2  0  0  0  0
 18 32  1  0  0  0  0
 19 21  2  0  0  0  0
 19 37  1  0  0  0  0
 20 22  2  0  0  0  0
 20 38  1  0  0  0  0
 21 46  1  0  0  0  0
 22 39  1  0  0  0  0
 23 81  1  0  0  0  0
 24 82  1  0  0  0  0
 25 27  2  0  0  0  0
 25 81  1  0  0  0  0
 26 83  1  0  0  0  0
 27 84  1  0  0  0  0
 28 64  2  0  0  0  0
 29 65  1  0  0  0  0
 29 71  1  0  0  0  0
 30 65  2  0  0  0  0
 30 72  1  0  0  0  0
 31 66  1  0  0  0  0
 31 69  1  0  0  0  0
 32 70  1  0  0  0  0
 32 76  2  0  0  0  0
 33 47  1  0  0  0  0
 33 73  1  0  0  0  0
 33 77  2  0  0  0  0
 34 58  1  0  0  0  0
 34 67  1  0  0  0  0
 34 78  2  0  0  0  0
 35 59  1  0  0  0  0
 35 74  1  0  0  0  0
 35 79  2  0  0  0  0
 36 68  1  0  0  0  0
 36 71  1  0  0  0  0
 36 80  2  0  0  0  0
 37 40  1  0  0  0  0
 38 47  1  0  0  0  0
 39 67  1  0  0  0  0
 40 42  1  0  0  0  0
 41 43  1  0  0  0  0
 41 44  1  0  0  0  0
 42 46  1  0  0  0  0
 43 48  1  0  0  0  0
 44 68  1  0  0  0  0
 45 48  1  0  0  0  0
 45 68  1  0  0  0  0
 46 73  1  0  0  0  0
 47 67  1  0  0  0  0
 48 66  1  0  0  0  0
 49 56  1  0  0  0  0
 50 59  1  0  0  0  0
 51 60  1  0  0  0  0
 52 62  1  0  0  0  0
 53 62  1  0  0  0  0
 54 62  1  0  0  0  0
 55 75  1  0  0  0  0
 56 61  1  0  0  0  0
 57 60  1  0  0  0  0
 57 61  1  0  0  0  0
 58 62  1  0  0  0  0
 58 74  1  0  0  0  0
 59 75  1  0  0  0  0
 60 72  1  0  0  0  0
 61 82  1  0  0  0  0
 64 66  1  0  0  0  0
M  CHG  1  75   1
M  ISO  4  36 100  61 101  71 100  82 101
M  END
> <Batch ID>
0195

> <Smiles>
CC[101CH:1](CC(C)Nc1cncc([100NH:0][100C:0](=O)N2CCCC(n3nc(-c4ccc(Oc5ccc(F)cc5F)cc4)c(C(N)=O)c3N)C2)n1)[101O:1]c1ccc2c(c1)CN(C(=O)C(NC(=O)C(C)NC)C(C)(C)C)C(C(=O)NC1CCCc3ccccc31)C2

> <Shape>
0.255

> <Color>
0.080

> <Negative vol penalty>
0.000

$$$$

  -OEChem-04052305363D

 82 90  0     1  0  0  0  0  0999 V2000
  -20.3381  -22.8917   18.7849 C   0  0  0  0  0  0  0  0  0  0  0  0
  -21.7066  -22.6538   18.7076 C   0  0  0  0  0  0  0  0  0  0  0  0
  -22.6685  -27.5922   19.9591 C   0  0  0  0  0  0  0  0  0  0  0  0
  -23.5298  -26.8628   22.0953 C   0  0  0  0  0  0  0  0  0  0  0  0
  -19.5498  -22.1431   19.6579 C   0  0  0  0  0  0  0  0  0  0  0  0
  -22.2878  -21.6679   19.5043 C   0  0  0  0  0  0  0  0  0  0  0  0
  -26.9946  -18.0399   18.0243 C   0  0  0  0  0  0  0  0  0  0  0  0
  -21.3988  -27.1382   20.3160 C   0  0  0  0  0  0  0  0  0  0  0  0
  -22.2601  -26.4088   22.4522 C   0  0  0  0  0  0  0  0  0  0  0  0
  -28.3567  -18.1055   18.3142 C   0  0  0  0  0  0  0  0  0  0  0  0
  -17.8542  -26.4979   20.8069 C   0  0  0  0  0  0  0  0  0  0  0  0
  -16.7686  -27.3322   20.5407 C   0  0  0  0  0  0  0  0  0  0  0  0
  -28.0259  -16.6102   20.1780 C   0  0  0  0  0  0  0  0  0  0  0  0
  -17.7309  -29.0364   21.9573 C   0  0  0  0  0  0  0  0  0  0  0  0
  -34.6154  -23.2525   20.4222 C   0  0  0  0  0  0  0  0  0  0  0  0
  -23.7340  -27.4545   20.8487 C   0  0  0  0  0  0  0  0  0  0  0  0
  -25.5840  -29.2047   20.7015 C   0  0  0  0  0  0  0  0  0  0  0  0
  -20.1201  -21.1409   20.4585 C   0  0  0  0  0  0  0  0  0  0  0  0
  -26.1346  -17.2663   18.8171 C   0  0  0  0  0  0  0  0  0  0  0  0
  -21.5066  -20.9061   20.3898 C   0  0  0  0  0  0  0  0  0  0  0  0
  -26.6537  -16.5345   19.8946 C   0  0  0  0  0  0  0  0  0  0  0  0
  -21.1946  -26.5465   21.5625 C   0  0  0  0  0  0  0  0  0  0  0  0
  -28.8721  -17.3929   19.3929 C   0  0  0  0  0  0  0  0  0  0  0  0
  -18.8782  -26.9328   21.6484 C   0  0  0  0  0  0  0  0  0  0  0  0
  -16.7069  -28.6015   21.1158 C   0  0  0  0  0  0  0  0  0  0  0  0
  -18.8165  -28.2020   22.2236 C   0  0  0  0  0  0  0  0  0  0  0  0
  -25.0459  -27.9228   20.4805 C   0  0  0  0  0  0  0  0  0  0  0  0
  -26.8493  -29.1422   20.1709 C   0  0  0  0  0  0  0  0  0  0  0  0
  -32.6207  -23.2660   19.3939 C   0  0  0  0  0  0  0  0  0  0  0  0
  -33.2164  -21.5143   20.6642 C   0  0  0  0  0  0  0  0  0  0  0  0
  -24.9930  -30.3497   21.3303 C   0  0  0  0  0  0  0  0  0  0  0  0
  -23.6156  -17.8837   20.6548 C   0  0  0  0  0  0  0  0  0  0  0  0
  -30.4842  -24.5253   19.3064 C   0  0  0  0  0  0  0  0  0  0  0  0
  -23.4722  -14.6505   20.8730 C   0  0  0  0  0  0  0  0  0  0  0  0
  -25.1022  -11.6584   20.6788 C   0  0  0  0  0  0  0  0  0  0  0  0
  -19.2351  -20.3899   21.4216 C   0  0  0  0  0  0  0  0  0  0  0  0
  -24.6721  -17.1849   18.4750 C   0  0  0  0  0  0  0  0  0  0  0  0
  -25.7761  -15.6731   20.7643 C   0  0  0  0  0  0  0  0  0  0  0  0
  -19.8683  -19.1087   21.9581 C   0  0  0  0  0  0  0  0  0  0  0  0
  -29.3969  -26.9205   16.7948 C   0  0  0  0  0  0  0  0  0  0  0  0
  -21.3053  -19.3675   22.3992 C   0  0  0  0  0  0  0  0  0  0  0  0
  -28.1809  -27.5468   17.4760 C   0  0  0  0  0  0  0  0  0  0  0  0
  -29.5292  -25.4382   17.1347 C   0  0  0  0  0  0  0  0  0  0  0  0
  -28.3538  -25.7831   19.2850 C   0  0  0  0  0  0  0  0  0  0  0  0
  -22.1700  -19.8285   21.2197 C   0  0  1  0  0  0  0  0  0  0  0  0
  -23.8034  -16.7736   19.6598 C   0  0  1  0  0  0  0  0  0  0  0  0
  -28.2019  -27.2851   18.9922 C   0  0  2  0  0  0  0  0  0  0  0  0
  -24.7293   -9.1911   20.9448 C   0  0  0  0  0  0  0  0  0  0  0  0
  -23.4700  -14.9803   23.9063 C   0  0  0  0  0  0  0  0  0  0  0  0
  -24.0520  -12.5530   24.1009 C   0  0  0  0  0  0  0  0  0  0  0  0
  -21.8976  -13.2365   23.0454 C   0  0  0  0  0  0  0  0  0  0  0  0
  -25.8423  -11.1254   17.8633 C   0  0  0  0  0  0  0  0  0  0  0  0
  -31.6268  -23.9432   18.5128 C   0  0  0  0  0  0  0  0  0  0  0  0
  -31.6939  -19.5604   20.9638 C   0  0  0  0  0  0  0  0  0  0  0  0
  -30.5796  -17.3039   21.0460 C   0  0  0  0  0  0  0  0  0  1  0  0
  -24.0638  -13.6140   21.7976 C   0  0  1  0  0  0  0  0  0  0  0  0
  -24.7469  -10.3617   19.9741 C   0  0  2  0  0  0  0  0  0  0  0  0
  -31.8694  -18.0791   21.2922 C   0  0  1  0  0  0  0  0  0  0  0  0
  -23.3873  -13.6136   23.1975 C   0  0  0  0  0  0  0  0  0  0  0  0
  -33.7703  -23.9214   19.6211 N   0  0  0  0  0  0  0  0  0  0  0  0
  -34.4073  -22.0486   20.9793 N   0  0  0  0  0  0  0  0  0  0  0  0
  -25.8995  -27.1056   19.8578 N   0  0  0  0  0  0  0  0  0  0  0  0
  -32.2748  -22.0630   19.8798 N   0  0  0  0  0  0  0  0  0  0  0  0
  -26.9868  -27.8760   19.6830 N   0  0  0  0  0  0  0  0  0  0  0  0
  -24.3520  -15.6311   20.3932 N   0  0  0  0  0  0  0  0  0  0  0  0
  -29.5175  -25.2287   18.5874 N   0  0  0  0  0  0  0  0  0  0  0  0
  -27.8467  -30.0473   20.0787 N   0  0  0  0  0  0  0  0  0  0  0  0
  -23.6843  -30.2417   21.8202 N   0  0  0  0  0  0  0  0  0  0  0  0
  -32.9294  -20.2719   21.2038 N   0  0  0  0  0  0  0  0  0  0  0  0
  -22.5336  -18.7009   20.3885 N   0  0  0  0  0  0  0  0  0  0  0  0
  -23.9771  -12.3402   21.0917 N   0  0  0  0  0  0  0  0  0  0  0  0
  -25.7378  -10.0672   18.9006 N   0  3  0  0  0  0  0  0  0  0  0  0
  -25.6012  -31.4413   21.4393 O   0  0  0  0  0  0  0  0  0  0  0  0
  -24.3939  -17.9901   21.5954 O   0  0  0  0  0  0  0  0  0  0  0  0
  -30.4550  -24.3609   20.5288 O   0  0  0  0  0  0  0  0  0  0  0  0
  -22.2753  -14.5879   20.5813 O   0  0  0  0  0  0  0  0  0  0  0  0
  -26.2620  -12.0277   20.8495 O   0  0  0  0  0  0  0  0  0  0  0  0
  -32.8769  -17.5281   20.4414 O   0  0  0  0  0  0  0  0  0  0  0  0
  -19.9557  -26.1036   21.9112 O   0  0  0  0  0  0  0  0  0  0  0  0
  -30.2012  -17.4556   19.6784 O   0  0  0  0  0  0  0  0  0  1  0  0
  -15.6651  -29.4032   20.8588 F   0  0  0  0  0  0  0  0  0  0  0  0
  -19.7978  -28.6258   23.0319 F   0  0  0  0  0  0  0  0  0  0  0  0
  1  2  1  0  0  0  0
  1  5  2  0  0  0  0
  2  6  2  0  0  0  0
  3  8  2  0  0  0  0
  3 16  1  0  0  0  0
  4  9  1  0  0  0  0
  4 16  2  0  0  0  0
  5 18  1  0  0  0  0
  6 20  1  0  0  0  0
  7 10  2  0  0  0  0
  7 19  1  0  0  0  0
  8 22  1  0  0  0  0
  9 22  2  0  0  0  0
 10 23  1  0  0  0  0
 11 12  2  0  0  0  0
 11 24  1  0  0  0  0
 12 25  1  0  0  0  0
 13 21  1  0  0  0  0
 13 23  2  0  0  0  0
 14 25  2  0  0  0  0
 14 26  1  0  0  0  0
 15 60  1  0  0  0  0
 15 61  2  0  0  0  0
 16 27  1  0  0  0  0
 17 27  1  0  0  0  0
 17 28  2  0  0  0  0
 17 31  1  0  0  0  0
 18 20  2  0  0  0  0
 18 36  1  0  0  0  0
 19 21  2  0  0  0  0
 19 37  1  0  0  0  0
 20 45  1  0  0  0  0
 21 38  1  0  0  0  0
 22 79  1  0  0  0  0
 23 80  1  0  0  0  0
 24 26  2  0  0  0  0
 24 79  1  0  0  0  0
 25 81  1  0  0  0  0
 26 82  1  0  0  0  0
 27 62  2  0  0  0  0
 28 64  1  0  0  0  0
 28 67  1  0  0  0  0
 29 53  1  0  0  0  0
 29 60  2  0  0  0  0
 29 63  1  0  0  0  0
 30 61  1  0  0  0  0
 30 63  2  0  0  0  0
 30 69  1  0  0  0  0
 31 68  1  0  0  0  0
 31 73  2  0  0  0  0
 32 46  1  0  0  0  0
 32 70  1  0  0  0  0
 32 74  2  0  0  0  0
 33 53  1  0  0  0  0
 33 66  1  0  0  0  0
 33 75  2  0  0  0  0
 34 56  1  0  0  0  0
 34 65  1  0  0  0  0
 34 76  2  0  0  0  0
 35 57  1  0  0  0  0
 35 71  1  0  0  0  0
 35 77  2  0  0  0  0
 36 39  1  0  0  0  0
 37 46  1  0  0  0  0
 38 65  1  0  0  0  0
 39 41  1  0  0  0  0
 40 42  1  0  0  0  0
 40 43  1  0  0  0  0
 41 45  1  0  0  0  0
 42 47  1  0  0  0  0
 43 66  1  0  0  0  0
 44 47  1  0  0  0  0
 44 66  1  0  0  0  0
 45 70  1  0  0  0  0
 46 65  1  0  0  0  0
 47 64  1  0  0  0  0
 48 57  1  0  0  0  0
 49 59  1  0  0  0  0
 50 59  1  0  0  0  0
 51 59  1  0  0  0  0
 52 72  1  0  0  0  0
 54 58  1  0  0  0  0
 54 69  1  0  0  0  0
 55 58  1  0  0  0  0
 55 80  1  0  0  0  0
 56 59  1  0  0  0  0
 56 71  1  0  0  0  0
 57 72  1  0  0  0  0
 58 78  1  0  0  0  0
 62 64  1  0  0  0  0
M  CHG  1  72   1
M  ISO  4  33 100  53 100  55 101  80 101
M  END
> <Batch ID>
0195

> <Smiles>
CNC(C)C(=O)NC(C(=O)N1Cc2cc([101O:1][101CH2:1]C(O)CNc3ncnc([100CH2:0][100C:0](=O)N4CCCC(n5nc(-c6ccc(Oc7ccc(F)cc7F)cc6)c(C(N)=O)c5N)C4)n3)ccc2CC1C(=O)NC1CCCc2ccccc21)C(C)(C)C

> <Shape>
0.214

> <Color>
0.067

> <Negative vol penalty>
0.000

$$$$

  -OEChem-04052305363D

 88 96  0     1  0  0  0  0  0999 V2000
  -29.2120  -23.3693   25.5727 C   0  0  0  0  0  0  0  0  0  0  0  0
  -29.5824  -24.2914   24.5990 C   0  0  0  0  0  0  0  0  0  0  0  0
  -26.3338  -13.0029   21.8706 C   0  0  0  0  0  0  0  0  0  0  0  0
  -25.9525  -13.6681   19.5795 C   0  0  0  0  0  0  0  0  0  0  0  0
  -28.1419  -22.5058   25.3422 C   0  0  0  0  0  0  0  0  0  0  0  0
  -28.8835  -24.3497   23.3938 C   0  0  0  0  0  0  0  0  0  0  0  0
  -27.8267  -29.0988   21.9887 C   0  0  0  0  0  0  0  0  0  0  0  0
  -25.0686  -12.4170   21.9111 C   0  0  0  0  0  0  0  0  0  0  0  0
  -24.6873  -13.0822   19.6200 C   0  0  0  0  0  0  0  0  0  0  0  0
  -28.8607  -29.8386   21.4166 C   0  0  0  0  0  0  0  0  0  0  0  0
  -21.8644  -13.4321   22.2681 C   0  0  0  0  0  0  0  0  0  0  0  0
  -21.0738  -13.6760   23.3910 C   0  0  0  0  0  0  0  0  0  0  0  0
  -27.9649  -29.3833   19.2235 C   0  0  0  0  0  0  0  0  0  0  0  0
  -21.0046  -11.3063   23.8570 C   0  0  0  0  0  0  0  0  0  0  0  0
  -30.7631  -24.0893   20.2302 C   0  0  0  0  0  0  0  0  0  0  0  0
  -26.7757  -13.6284   20.7048 C   0  0  0  0  0  0  0  0  0  0  0  0
  -29.2916  -13.6215   20.2832 C   0  0  0  0  0  0  0  0  0  0  0  0
  -27.4234  -22.5601   24.1374 C   0  0  0  0  0  0  0  0  0  0  0  0
  -26.8586  -28.4856   21.1805 C   0  0  0  0  0  0  0  0  0  0  0  0
  -27.8036  -23.4852   23.1464 C   0  0  0  0  0  0  0  0  0  0  0  0
  -26.9182  -28.6384   19.7880 C   0  0  0  0  0  0  0  0  0  0  0  0
  -24.2453  -12.4566   20.7858 C   0  0  0  0  0  0  0  0  0  0  0  0
  -28.9316  -29.9785   20.0336 C   0  0  0  0  0  0  0  0  0  0  0  0
  -22.2251  -12.1253   21.9396 C   0  0  0  0  0  0  0  0  0  0  0  0
  -20.6438  -12.6131   24.1855 C   0  0  0  0  0  0  0  0  0  0  0  0
  -21.7952  -11.0624   22.7340 C   0  0  0  0  0  0  0  0  0  0  0  0
  -28.0823  -14.2343   20.6626 C   0  0  0  0  0  0  0  0  0  0  0  0
  -30.0835  -25.3473   18.4454 C   0  0  0  0  0  0  0  0  0  0  0  0
  -30.0857  -23.0027   19.7223 C   0  0  0  0  0  0  0  0  0  0  0  0
  -29.4067  -24.2605   17.9371 C   0  0  0  0  0  0  0  0  0  0  0  0
  -30.2341  -14.6122   20.4131 C   0  0  0  0  0  0  0  0  0  0  0  0
  -29.5408  -12.2771   19.8519 C   0  0  0  0  0  0  0  0  0  0  0  0
  -25.9494  -25.4856   20.6538 C   0  0  0  0  0  0  0  0  0  0  0  0
  -31.9119  -28.7083   16.1913 C   0  0  0  0  0  0  0  0  0  0  0  0
  -23.6249  -26.9101   18.8960 C   0  0  0  0  0  0  0  0  0  0  0  0
  -22.5950  -29.6372   17.1214 C   0  0  0  0  0  0  0  0  0  0  0  0
  -29.5089  -20.5737   20.1116 C   0  0  0  0  0  0  0  0  0  0  0  0
  -26.3039  -21.5743   23.9147 C   0  0  0  0  0  0  0  0  0  0  0  0
  -25.7344  -27.7133   21.8146 C   0  0  0  0  0  0  0  0  0  0  0  0
  -25.8921  -28.0169   18.8773 C   0  0  0  0  0  0  0  0  0  0  0  0
  -25.3782  -21.9541   22.7619 C   0  0  0  0  0  0  0  0  0  0  0  0
  -30.3850  -18.5350   23.2421 C   0  0  0  0  0  0  0  0  0  0  0  0
  -26.1907  -22.3643   21.5378 C   0  0  0  0  0  0  0  0  0  0  0  0
  -30.6598  -17.1803   22.5937 C   0  0  0  0  0  0  0  0  0  0  0  0
  -30.5542  -19.6893   22.2623 C   0  0  0  0  0  0  0  0  0  0  0  0
  -29.1478  -18.2146   20.8120 C   0  0  0  0  0  0  0  0  0  0  0  0
  -27.0544  -23.5957   21.8362 C   0  0  1  0  0  0  0  0  0  0  0  0
  -25.0947  -26.7029   20.8673 C   0  0  1  0  0  0  0  0  0  0  0  0
  -30.1356  -17.0862   21.1471 C   0  0  2  0  0  0  0  0  0  0  0  0
  -32.1382  -29.2847   13.7395 C   0  0  0  0  0  0  0  0  0  0  0  0
  -20.6619  -30.4922   15.7690 C   0  0  0  0  0  0  0  0  0  0  0  0
  -32.0264  -31.3512   20.4657 C   0  0  0  0  0  0  0  0  0  0  0  0
  -24.4737  -25.1343   16.5645 C   0  0  0  0  0  0  0  0  0  0  0  0
  -23.2052  -26.6565   15.0341 C   0  0  0  0  0  0  0  0  0  0  0  0
  -22.0010  -25.4041   16.8241 C   0  0  0  0  0  0  0  0  0  0  0  0
  -22.1511  -31.9024   18.9736 C   0  0  0  0  0  0  0  0  0  0  0  0
  -30.0933  -26.6723   17.7418 C   0  0  0  0  0  0  0  0  0  0  0  0
  -31.4028  -29.5602   15.0390 C   0  0  0  0  0  0  0  0  0  0  0  0
  -31.9528  -29.9272   18.3868 C   0  0  0  0  0  0  0  0  0  0  0  0
  -31.2086  -28.8971   17.5287 C   0  0  2  0  0  0  0  0  0  0  0  0
  -23.4888  -27.3475   17.4576 C   0  0  1  0  0  0  0  0  0  0  0  0
  -21.2981  -30.4257   17.1486 C   0  0  2  0  0  0  0  0  0  0  0  0
  -31.2731  -30.2550   19.7221 C   0  0  2  0  0  0  0  0  0  1  0  0
  -23.3128  -26.1458   16.4868 C   0  0  0  0  0  0  0  0  0  0  0  0
  -30.7741  -25.2811   19.6009 N   0  0  0  0  0  0  0  0  0  0  0  0
  -28.2393  -15.5150   21.0078 N   0  0  0  0  0  0  0  0  0  0  0  0
  -29.3954  -23.0688   18.5666 N   0  0  0  0  0  0  0  0  0  0  0  0
  -29.5584  -15.7151   20.8459 N   0  0  0  0  0  0  0  0  0  0  0  0
  -24.8158  -27.2661   19.5447 N   0  0  0  0  0  0  0  0  0  0  0  0
  -29.7501  -19.5329   21.0416 N   0  0  0  0  0  0  0  0  0  0  0  0
  -28.7018  -24.3929   16.7198 N   0  0  0  0  0  0  0  0  0  0  0  0
  -31.5666  -14.6388   20.1983 N   0  0  0  0  0  0  0  0  0  0  0  0
  -28.4593  -11.3889   19.7748 N   0  0  0  0  0  0  0  0  0  0  0  0
  -30.1212  -21.7845   20.4458 N   0  0  0  0  0  0  0  0  0  0  0  0
  -26.2472  -24.7967   21.8141 N   0  0  0  0  0  0  0  0  0  0  0  0
  -22.3910  -28.3078   17.4250 N   0  0  0  0  0  0  0  0  0  0  0  0
  -21.5480  -31.8177   17.6186 N   0  3  0  0  0  0  0  0  0  0  0  0
  -31.1445  -27.5918   18.2471 N   0  3  0  0  0  0  0  0  0  0  0  0
  -30.6910  -11.8707   19.5597 O   0  0  0  0  0  0  0  0  0  0  0  0
  -26.3106  -25.1923   19.5202 O   0  0  0  0  0  0  0  0  0  0  0  0
  -32.8504  -27.9225   16.0594 O   0  0  0  0  0  0  0  0  0  0  0  0
  -22.7053  -26.2822   19.4267 O   0  0  0  0  0  0  0  0  0  0  0  0
  -23.6801  -30.1486   16.8536 O   0  0  0  0  0  0  0  0  0  0  0  0
  -28.8267  -20.3938   19.1005 O   0  0  0  0  0  0  0  0  0  0  0  0
  -23.0108  -11.8849   20.8249 O   0  0  0  0  0  0  0  0  0  0  0  0
  -29.9402  -30.6995   19.4726 O   0  0  0  0  0  0  0  0  0  1  0  0
  -19.8858  -12.8476   25.2647 F   0  0  0  0  0  0  0  0  0  0  0  0
  -22.1395   -9.8050   22.4241 F   0  0  0  0  0  0  0  0  0  0  0  0
  1  2  1  0  0  0  0
  1  5  2  0  0  0  0
  2  6  2  0  0  0  0
  3  8  2  0  0  0  0
  3 16  1  0  0  0  0
  4  9  1  0  0  0  0
  4 16  2  0  0  0  0
  5 18  1  0  0  0  0
  6 20  1  0  0  0  0
  7 10  2  0  0  0  0
  7 19  1  0  0  0  0
  8 22  1  0  0  0  0
  9 22  2  0  0  0  0
 10 23  1  0  0  0  0
 11 12  2  0  0  0  0
 11 24  1  0  0  0  0
 12 25  1  0  0  0  0
 13 21  1  0  0  0  0
 13 23  2  0  0  0  0
 14 25  2  0  0  0  0
 14 26  1  0  0  0  0
 15 29  1  0  0  0  0
 15 65  2  0  0  0  0
 16 27  1  0  0  0  0
 17 27  1  0  0  0  0
 17 31  2  0  0  0  0
 17 32  1  0  0  0  0
 18 20  2  0  0  0  0
 18 38  1  0  0  0  0
 19 21  2  0  0  0  0
 19 39  1  0  0  0  0
 20 47  1  0  0  0  0
 21 40  1  0  0  0  0
 22 85  1  0  0  0  0
 23 86  1  0  0  0  0
 24 26  2  0  0  0  0
 24 85  1  0  0  0  0
 25 87  1  0  0  0  0
 26 88  1  0  0  0  0
 27 66  2  0  0  0  0
 28 30  2  0  0  0  0
 28 57  1  0  0  0  0
 28 65  1  0  0  0  0
 29 67  2  0  0  0  0
 29 74  1  0  0  0  0
 30 67  1  0  0  0  0
 30 71  1  0  0  0  0
 31 68  1  0  0  0  0
 31 72  1  0  0  0  0
 32 73  1  0  0  0  0
 32 79  2  0  0  0  0
 33 48  1  0  0  0  0
 33 75  1  0  0  0  0
 33 80  2  0  0  0  0
 34 58  1  0  0  0  0
 34 60  1  0  0  0  0
 34 81  2  0  0  0  0
 35 61  1  0  0  0  0
 35 69  1  0  0  0  0
 35 82  2  0  0  0  0
 36 62  1  0  0  0  0
 36 76  1  0  0  0  0
 36 83  2  0  0  0  0
 37 70  1  0  0  0  0
 37 74  1  0  0  0  0
 37 84  2  0  0  0  0
 38 41  1  0  0  0  0
 39 48  1  0  0  0  0
 40 69  1  0  0  0  0
 41 43  1  0  0  0  0
 42 44  1  0  0  0  0
 42 45  1  0  0  0  0
 43 47  1  0  0  0  0
 44 49  1  0  0  0  0
 45 70  1  0  0  0  0
 46 49  1  0  0  0  0
 46 70  1  0  0  0  0
 47 75  1  0  0  0  0
 48 69  1  0  0  0  0
 49 68  1  0  0  0  0
 50 58  1  0  0  0  0
 51 62  1  0  0  0  0
 52 63  1  0  0  0  0
 53 64  1  0  0  0  0
 54 64  1  0  0  0  0
 55 64  1  0  0  0  0
 56 77  1  0  0  0  0
 57 78  1  0  0  0  0
 59 60  1  0  0  0  0
 59 63  1  0  0  0  0
 60 78  1  0  0  0  0
 61 64  1  0  0  0  0
 61 76  1  0  0  0  0
 62 77  1  0  0  0  0
 63 86  1  0  0  0  0
 66 68  1  0  0  0  0
M  CHG  2  77   1  78   1
M  ISO  4  37 100  63 101  74 100  86 101
M  END
> <Batch ID>
0195

> <Smiles>
CCC(=O)C(C[101CH:1](C)[101O:1]c1ccc2c(c1)CN(C(=O)C(NC(=O)C(C)NC)C(C)(C)C)C(C(=O)NC1CCCc3ccccc31)C2)NCc1ncc([100NH:0][100C:0](=O)N2CCCC(n3nc(-c4ccc(Oc5ccc(F)cc5F)cc4)c(C(N)=O)c3N)C2)nc1N

> <Shape>
0.215

> <Color>
0.081

> <Negative vol penalty>
0.000

$$$$

  -OEChem-04052305363D

 81 89  0     1  0  0  0  0  0999 V2000
  -34.4721  -23.8969   11.1841 C   0  0  0  0  0  0  0  0  0  0  0  0
  -33.7053  -23.2293   12.1337 C   0  0  0  0  0  0  0  0  0  0  0  0
  -23.0565   -9.8746   19.9464 C   0  0  0  0  0  0  0  0  0  0  0  0
  -23.8581   -9.8628   22.2255 C   0  0  0  0  0  0  0  0  0  0  0  0
  -34.8142  -25.2341   11.3810 C   0  0  0  0  0  0  0  0  0  0  0  0
  -33.2810  -23.8983   13.2813 C   0  0  0  0  0  0  0  0  0  0  0  0
  -28.4153  -23.0048   14.3638 C   0  0  0  0  0  0  0  0  0  0  0  0
  -22.3183   -8.7186   20.2000 C   0  0  0  0  0  0  0  0  0  0  0  0
  -23.1198   -8.7069   22.4792 C   0  0  0  0  0  0  0  0  0  0  0  0
  -28.1112  -21.7868   14.9702 C   0  0  0  0  0  0  0  0  0  0  0  0
  -19.9038   -7.9007   23.1336 C   0  0  0  0  0  0  0  0  0  0  0  0
  -19.1683   -7.8501   24.3177 C   0  0  0  0  0  0  0  0  0  0  0  0
  -28.0025  -22.8879   17.1138 C   0  0  0  0  0  0  0  0  0  0  0  0
  -20.4246   -5.9077   25.0149 C   0  0  0  0  0  0  0  0  0  0  0  0
  -31.9422  -19.0785   21.7532 C   0  0  0  0  0  0  0  0  0  0  0  0
  -23.8265  -10.4467   20.9592 C   0  0  0  0  0  0  0  0  0  0  0  0
  -24.1639  -12.9731   20.8544 C   0  0  0  0  0  0  0  0  0  0  0  0
  -34.3858  -25.9226   12.5269 C   0  0  0  0  0  0  0  0  0  0  0  0
  -28.5263  -24.1736   15.1307 C   0  0  0  0  0  0  0  0  0  0  0  0
  -33.6189  -25.2455   13.4943 C   0  0  0  0  0  0  0  0  0  0  0  0
  -28.3056  -24.1200   16.5144 C   0  0  0  0  0  0  0  0  0  0  0  0
  -22.3499   -8.1348   21.4664 C   0  0  0  0  0  0  0  0  0  0  0  0
  -27.9076  -21.7276   16.3457 C   0  0  0  0  0  0  0  0  0  0  0  0
  -20.8996   -6.9548   22.8901 C   0  0  0  0  0  0  0  0  0  0  0  0
  -19.4287   -6.8536   25.2583 C   0  0  0  0  0  0  0  0  0  0  0  0
  -21.1600   -5.9583   23.8307 C   0  0  0  0  0  0  0  0  0  0  0  0
  -24.5897  -11.6405   20.6976 C   0  0  0  0  0  0  0  0  0  0  0  0
  -30.7171  -17.0218   21.4852 C   0  0  0  0  0  0  0  0  0  0  0  0
  -30.5006  -17.9806   20.5177 C   0  0  0  0  0  0  0  0  0  0  0  0
  -25.2486  -13.7267   20.4777 C   0  0  0  0  0  0  0  0  0  0  0  0
  -22.9008  -13.4841   21.3008 C   0  0  0  0  0  0  0  0  0  0  0  0
  -30.8612  -26.2417   15.7428 C   0  0  0  0  0  0  0  0  0  0  0  0
  -30.7567  -14.6824   20.6709 C   0  0  0  0  0  0  0  0  0  0  0  0
  -28.4963  -27.8674   17.2550 C   0  0  0  0  0  0  0  0  0  0  0  0
  -25.4597  -27.7843   18.8104 C   0  0  0  0  0  0  0  0  0  0  0  0
  -34.8204  -27.3540   12.7187 C   0  0  0  0  0  0  0  0  0  0  0  0
  -28.8286  -25.4844   14.4578 C   0  0  0  0  0  0  0  0  0  0  0  0
  -28.3931  -25.3497   17.3796 C   0  0  0  0  0  0  0  0  0  0  0  0
  -34.0156  -28.0977   13.7815 C   0  0  0  0  0  0  0  0  0  0  0  0
  -29.5487  -12.4059   18.1813 C   0  0  0  0  0  0  0  0  0  0  0  0
  -33.8744  -27.2447   15.0382 C   0  0  0  0  0  0  0  0  0  0  0  0
  -28.1268  -12.0900   18.6435 C   0  0  0  0  0  0  0  0  0  0  0  0
  -30.4907  -12.5992   19.3655 C   0  0  0  0  0  0  0  0  0  0  0  0
  -28.6125  -13.3202   20.8058 C   0  0  0  0  0  0  0  0  0  0  0  0
  -33.1188  -25.9441   14.7401 C   0  0  1  0  0  0  0  0  0  0  0  0
  -29.4233  -26.5201   15.4070 C   0  0  1  0  0  0  0  0  0  0  0  0
  -27.6219  -13.1477   19.6408 C   0  0  2  0  0  0  0  0  0  0  0  0
  -23.8022  -29.2648   19.9757 C   0  0  0  0  0  0  0  0  0  0  0  0
  -30.2821  -27.9158   19.7285 C   0  0  0  0  0  0  0  0  0  0  0  0
  -28.2685  -28.5272   21.0848 C   0  0  0  0  0  0  0  0  0  0  0  0
  -29.0642  -30.0534   19.2792 C   0  0  0  0  0  0  0  0  0  0  0  0
  -23.3532  -27.1897   16.8184 C   0  0  0  0  0  0  0  0  0  0  0  0
  -30.1451  -15.6678   21.6348 C   0  0  0  0  0  0  0  0  0  0  0  0
  -29.4159  -18.8171   18.4322 C   0  0  0  0  0  0  0  0  0  0  0  0
  -28.1367  -19.3605   16.3325 C   0  0  0  0  0  0  0  0  0  1  0  0
  -27.9339  -27.8794   18.6559 C   0  0  1  0  0  0  0  0  0  0  0  0
  -24.2220  -28.6485   18.6503 C   0  0  2  0  0  0  0  0  0  0  0  0
  -28.3923  -18.3172   17.4147 C   0  0  1  0  0  0  0  0  0  0  0  0
  -28.8874  -28.5702   19.6713 C   0  0  0  0  0  0  0  0  0  0  0  0
  -31.2019  -19.1607   20.6700 N   0  0  0  0  0  0  0  0  0  0  0  0
  -25.8468  -11.5495   20.2556 N   0  0  0  0  0  0  0  0  0  0  0  0
  -26.2203  -12.8344   20.1313 N   0  0  0  0  0  0  0  0  0  0  0  0
  -28.6976  -26.6065   16.6759 N   0  0  0  0  0  0  0  0  0  0  0  0
  -29.9648  -13.5952   20.3008 N   0  0  0  0  0  0  0  0  0  0  0  0
  -25.4566  -15.0590   20.4122 N   0  0  0  0  0  0  0  0  0  0  0  0
  -21.8960  -12.5711   21.6487 N   0  0  0  0  0  0  0  0  0  0  0  0
  -29.6413  -17.8107   19.4453 N   0  0  0  0  0  0  0  0  0  0  0  0
  -31.6970  -26.1964   14.6434 N   0  0  0  0  0  0  0  0  0  0  0  0
  -26.6147  -28.4950   18.5609 N   0  0  0  0  0  0  0  0  0  0  0  0
  -23.0867  -27.8358   18.1293 N   0  3  0  0  0  0  0  0  0  0  0  0
  -22.6646  -14.7139   21.3729 O   0  0  0  0  0  0  0  0  0  0  0  0
  -31.1883  -26.0815   16.9128 O   0  0  0  0  0  0  0  0  0  0  0  0
  -31.9031  -14.8764   20.2581 O   0  0  0  0  0  0  0  0  0  0  0  0
  -28.7411  -28.9376   16.6924 O   0  0  0  0  0  0  0  0  0  0  0  0
  -25.4075  -26.5984   19.1288 O   0  0  0  0  0  0  0  0  0  0  0  0
  -28.9021  -17.1446   16.7765 O   0  0  0  0  0  0  0  0  0  0  0  0
  -21.6295   -7.0069   21.7143 O   0  0  0  0  0  0  0  0  0  0  0  0
  -27.6113  -20.5399   16.9402 O   0  0  0  0  0  0  0  0  0  1  0  0
  -18.7234   -6.8060   26.3961 F   0  0  0  0  0  0  0  0  0  0  0  0
  -22.1163   -5.0476   23.6029 F   0  0  0  0  0  0  0  0  0  0  0  0
  -31.8441  -17.6103   22.6362 S   0  0  0  0  0  0  0  0  0  0  0  0
  1  2  1  0  0  0  0
  1  5  2  0  0  0  0
  2  6  2  0  0  0  0
  3  8  2  0  0  0  0
  3 16  1  0  0  0  0
  4  9  1  0  0  0  0
  4 16  2  0  0  0  0
  5 18  1  0  0  0  0
  6 20  1  0  0  0  0
  7 10  2  0  0  0  0
  7 19  1  0  0  0  0
  8 22  1  0  0  0  0
  9 22  2  0  0  0  0
 10 23  1  0  0  0  0
 11 12  2  0  0  0  0
 11 24  1  0  0  0  0
 12 25  1  0  0  0  0
 13 21  1  0  0  0  0
 13 23  2  0  0  0  0
 14 25  2  0  0  0  0
 14 26  1  0  0  0  0
 15 60  2  0  0  0  0
 15 81  1  0  0  0  0
 16 27  1  0  0  0  0
 17 27  1  0  0  0  0
 17 30  2  0  0  0  0
 17 31  1  0  0  0  0
 18 20  2  0  0  0  0
 18 36  1  0  0  0  0
 19 21  2  0  0  0  0
 19 37  1  0  0  0  0
 20 45  1  0  0  0  0
 21 38  1  0  0  0  0
 22 77  1  0  0  0  0
 23 78  1  0  0  0  0
 24 26  2  0  0  0  0
 24 77  1  0  0  0  0
 25 79  1  0  0  0  0
 26 80  1  0  0  0  0
 27 61  2  0  0  0  0
 28 29  2  0  0  0  0
 28 53  1  0  0  0  0
 28 81  1  0  0  0  0
 29 60  1  0  0  0  0
 29 67  1  0  0  0  0
 30 62  1  0  0  0  0
 30 65  1  0  0  0  0
 31 66  1  0  0  0  0
 31 71  2  0  0  0  0
 32 46  1  0  0  0  0
 32 68  1  0  0  0  0
 32 72  2  0  0  0  0
 33 53  1  0  0  0  0
 33 64  1  0  0  0  0
 33 73  2  0  0  0  0
 34 56  1  0  0  0  0
 34 63  1  0  0  0  0
 34 74  2  0  0  0  0
 35 57  1  0  0  0  0
 35 69  1  0  0  0  0
 35 75  2  0  0  0  0
 36 39  1  0  0  0  0
 37 46  1  0  0  0  0
 38 63  1  0  0  0  0
 39 41  1  0  0  0  0
 40 42  1  0  0  0  0
 40 43  1  0  0  0  0
 41 45  1  0  0  0  0
 42 47  1  0  0  0  0
 43 64  1  0  0  0  0
 44 47  1  0  0  0  0
 44 64  1  0  0  0  0
 45 68  1  0  0  0  0
 46 63  1  0  0  0  0
 47 62  1  0  0  0  0
 48 57  1  0  0  0  0
 49 59  1  0  0  0  0
 50 59  1  0  0  0  0
 51 59  1  0  0  0  0
 52 70  1  0  0  0  0
 54 58  1  0  0  0  0
 54 67  1  0  0  0  0
 55 58  1  0  0  0  0
 55 78  1  0  0  0  0
 56 59  1  0  0  0  0
 56 69  1  0  0  0  0
 57 70  1  0  0  0  0
 58 76  1  0  0  0  0
 61 62  1  0  0  0  0
M  CHG  1  70   1
M  ISO  4  33 100  53 100  55 101  78 101
M  END
> <Batch ID>
0195

> <Smiles>
CNC(C)C(=O)NC(C(=O)N1Cc2cc([101O:1][101CH2:1]C(O)CNc3ncsc3[100CH2:0][100C:0](=O)N3CCCC(n4nc(-c5ccc(Oc6ccc(F)cc6F)cc5)c(C(N)=O)c4N)C3)ccc2CC1C(=O)NC1CCCc2ccccc21)C(C)(C)C

> <Shape>
0.249

> <Color>
0.187

> <Negative vol penalty>
0.000

$$$$

  -OEChem-04052305363D

 82 90  0     1  0  0  0  0  0999 V2000
  -32.1056  -15.3839   19.2703 C   0  0  0  0  0  0  0  0  0  0  0  0
  -31.1660  -16.4074   19.2004 C   0  0  0  0  0  0  0  0  0  0  0  0
  -28.7444  -25.7399   19.5924 C   0  0  0  0  0  0  0  0  0  0  0  0
  -26.5649  -24.7247   19.3548 C   0  0  0  0  0  0  0  0  0  0  0  0
  -31.6880  -14.0676   19.4623 C   0  0  0  0  0  0  0  0  0  0  0  0
  -29.8079  -16.1150   19.3214 C   0  0  0  0  0  0  0  0  0  0  0  0
  -25.5120  -19.5988   21.9509 C   0  0  0  0  0  0  0  0  0  0  0  0
  -29.3382  -24.4792   19.5321 C   0  0  0  0  0  0  0  0  0  0  0  0
  -27.1587  -23.4640   19.2945 C   0  0  0  0  0  0  0  0  0  0  0  0
  -24.5697  -20.4820   21.4259 C   0  0  0  0  0  0  0  0  0  0  0  0
  -28.7790  -21.5828   17.0018 C   0  0  0  0  0  0  0  0  0  0  0  0
  -28.3284  -20.7023   16.0184 C   0  0  0  0  0  0  0  0  0  0  0  0
  -22.9134  -18.7286   21.4650 C   0  0  0  0  0  0  0  0  0  0  0  0
  -27.6742  -19.1266   17.7291 C   0  0  0  0  0  0  0  0  0  0  0  0
  -18.4825  -28.1556   22.8902 C   0  0  0  0  0  0  0  0  0  0  0  0
  -27.3577  -25.8627   19.5038 C   0  0  0  0  0  0  0  0  0  0  0  0
  -26.4607  -28.0240   18.4880 C   0  0  0  0  0  0  0  0  0  0  0  0
  -30.3248  -13.7601   19.5954 C   0  0  0  0  0  0  0  0  0  0  0  0
  -25.1645  -18.2686   22.2272 C   0  0  0  0  0  0  0  0  0  0  0  0
  -29.3716  -14.7932   19.5141 C   0  0  0  0  0  0  0  0  0  0  0  0
  -23.8525  -17.8312   21.9959 C   0  0  0  0  0  0  0  0  0  0  0  0
  -28.5454  -23.3413   19.3831 C   0  0  0  0  0  0  0  0  0  0  0  0
  -23.2710  -20.0462   21.1801 C   0  0  0  0  0  0  0  0  0  0  0  0
  -28.6774  -21.2353   18.3489 C   0  0  0  0  0  0  0  0  0  0  0  0
  -27.7759  -19.4742   16.3821 C   0  0  0  0  0  0  0  0  0  0  0  0
  -28.1249  -20.0072   18.7125 C   0  0  0  0  0  0  0  0  0  0  0  0
  -26.7437  -27.1646   19.5666 C   0  0  0  0  0  0  0  0  0  0  0  0
  -19.8219  -28.0393   23.1977 C   0  0  0  0  0  0  0  0  0  0  0  0
  -25.8830  -29.1261   19.0696 C   0  0  0  0  0  0  0  0  0  0  0  0
  -19.5966  -26.2101   22.0089 C   0  0  0  0  0  0  0  0  0  0  0  0
  -26.6987  -27.8423   17.0859 C   0  0  0  0  0  0  0  0  0  0  0  0
  -26.1291  -15.4316   21.1670 C   0  0  0  0  0  0  0  0  0  0  0  0
  -24.1607  -14.3267   23.4965 C   0  0  0  0  0  0  0  0  0  0  0  0
  -21.4657  -14.8798   25.5159 C   0  0  0  0  0  0  0  0  0  0  0  0
  -22.8955  -29.9373   24.1947 C   0  0  0  0  0  0  0  0  0  0  0  0
  -29.9184  -12.3164   19.7544 C   0  0  0  0  0  0  0  0  0  0  0  0
  -26.1855  -17.3356   22.8184 C   0  0  0  0  0  0  0  0  0  0  0  0
  -23.4234  -16.4186   22.2943 C   0  0  0  0  0  0  0  0  0  0  0  0
  -28.4849  -12.1380   20.2480 C   0  0  0  0  0  0  0  0  0  0  0  0
  -25.8524  -31.6233   23.1505 C   0  0  0  0  0  0  0  0  0  0  0  0
  -27.5351  -13.0407   19.4672 C   0  0  0  0  0  0  0  0  0  0  0  0
  -26.3906  -30.7493   22.0162 C   0  0  0  0  0  0  0  0  0  0  0  0
  -25.2227  -30.7837   24.2597 C   0  0  0  0  0  0  0  0  0  0  0  0
  -24.7222  -28.9651   22.6735 C   0  0  0  0  0  0  0  0  0  0  0  0
  -27.8910  -14.5191   19.6656 C   0  0  1  0  0  0  0  0  0  0  0  0
  -25.8593  -15.8645   22.5803 C   0  0  1  0  0  0  0  0  0  0  0  0
  -25.3169  -29.7700   21.5052 C   0  0  2  0  0  0  0  0  0  0  0  0
  -20.0734  -13.7773   27.2889 C   0  0  0  0  0  0  0  0  0  0  0  0
  -22.7988  -12.6220   21.3636 C   0  0  0  0  0  0  0  0  0  0  0  0
  -20.8837  -12.2994   22.9437 C   0  0  0  0  0  0  0  0  0  0  0  0
  -23.1547  -11.4661   23.5526 C   0  0  0  0  0  0  0  0  0  0  0  0
  -22.1424  -16.9629   27.5062 C   0  0  0  0  0  0  0  0  0  0  0  0
  -20.6077  -28.9945   24.0039 C   0  0  0  0  0  0  0  0  0  0  0  0
  -21.2163  -24.4227   21.3708 C   0  0  0  0  0  0  0  0  0  0  0  0
  -22.4962  -22.2870   20.9950 C   0  0  0  0  0  0  0  0  0  1  0  0
  -22.7001  -13.9530   23.5738 C   0  0  1  0  0  0  0  0  0  0  0  0
  -21.2661  -14.6778   27.0071 C   0  0  2  0  0  0  0  0  0  0  0  0
  -21.1207  -22.9451   20.9956 C   0  0  1  0  0  0  0  0  0  0  0  0
  -22.3926  -12.6113   22.8509 C   0  0  0  0  0  0  0  0  0  0  0  0
  -26.3761  -27.6768   20.7441 N   0  0  0  0  0  0  0  0  0  0  0  0
  -20.4623  -26.9241   22.6936 N   0  0  0  0  0  0  0  0  0  0  0  0
  -25.8564  -28.8700   20.4089 N   0  0  0  0  0  0  0  0  0  0  0  0
  -24.4595  -15.5426   22.8655 N   0  0  0  0  0  0  0  0  0  0  0  0
  -24.2120  -29.8776   23.7088 N   0  0  0  0  0  0  0  0  0  0  0  0
  -25.4004  -30.2796   18.5608 N   0  0  0  0  0  0  0  0  0  0  0  0
  -27.3011  -26.6508   16.6594 N   0  0  0  0  0  0  0  0  0  0  0  0
  -19.9008  -25.0224   21.3655 N   0  0  0  0  0  0  0  0  0  0  0  0
  -27.4188  -14.9843   20.9521 N   0  0  0  0  0  0  0  0  0  0  0  0
  -22.3507  -13.9624   24.9902 N   0  0  0  0  0  0  0  0  0  0  0  0
  -21.9991  -29.0484   23.6141 N   0  0  0  0  0  0  0  0  0  0  0  0
  -21.0361  -15.9870   27.6809 N   0  3  0  0  0  0  0  0  0  0  0  0
  -26.4015  -28.7177   16.2381 O   0  0  0  0  0  0  0  0  0  0  0  0
  -25.2332  -15.4970   20.3335 O   0  0  0  0  0  0  0  0  0  0  0  0
  -25.0048  -13.5711   23.9846 O   0  0  0  0  0  0  0  0  0  0  0  0
  -20.8910  -15.7607   24.8802 O   0  0  0  0  0  0  0  0  0  0  0  0
  -22.5436  -30.7282   25.0766 O   0  0  0  0  0  0  0  0  0  0  0  0
  -20.3154  -22.2685   21.9631 O   0  0  0  0  0  0  0  0  0  0  0  0
  -29.1245  -22.1110   19.3240 O   0  0  0  0  0  0  0  0  0  0  0  0
  -22.3494  -20.9060   20.6670 O   0  0  0  0  0  0  0  0  0  1  0  0
  -27.3418  -18.6293   15.4377 F   0  0  0  0  0  0  0  0  0  0  0  0
  -28.0236  -19.6683   20.0051 F   0  0  0  0  0  0  0  0  0  0  0  0
  -17.9949  -26.8211   21.9297 S   0  0  0  0  0  0  0  0  0  0  0  0
  1  2  1  0  0  0  0
  1  5  2  0  0  0  0
  2  6  2  0  0  0  0
  3  8  2  0  0  0  0
  3 16  1  0  0  0  0
  4  9  1  0  0  0  0
  4 16  2  0  0  0  0
  5 18  1  0  0  0  0
  6 20  1  0  0  0  0
  7 10  2  0  0  0  0
  7 19  1  0  0  0  0
  8 22  1  0  0  0  0
  9 22  2  0  0  0  0
 10 23  1  0  0  0  0
 11 12  2  0  0  0  0
 11 24  1  0  0  0  0
 12 25  1  0  0  0  0
 13 21  1  0  0  0  0
 13 23  2  0  0  0  0
 14 25  2  0  0  0  0
 14 26  1  0  0  0  0
 15 28  2  0  0  0  0
 15 82  1  0  0  0  0
 16 27  1  0  0  0  0
 17 27  1  0  0  0  0
 17 29  2  0  0  0  0
 17 31  1  0  0  0  0
 18 20  2  0  0  0  0
 18 36  1  0  0  0  0
 19 21  2  0  0  0  0
 19 37  1  0  0  0  0
 20 45  1  0  0  0  0
 21 38  1  0  0  0  0
 22 78  1  0  0  0  0
 23 79  1  0  0  0  0
 24 26  2  0  0  0  0
 24 78  1  0  0  0  0
 25 80  1  0  0  0  0
 26 81  1  0  0  0  0
 27 60  2  0  0  0  0
 28 53  1  0  0  0  0
 28 61  1  0  0  0  0
 29 62  1  0  0  0  0
 29 65  1  0  0  0  0
 30 61  2  0  0  0  0
 30 67  1  0  0  0  0
 30 82  1  0  0  0  0
 31 66  1  0  0  0  0
 31 72  2  0  0  0  0
 32 46  1  0  0  0  0
 32 68  1  0  0  0  0
 32 73  2  0  0  0  0
 33 56  1  0  0  0  0
 33 63  1  0  0  0  0
 33 74  2  0  0  0  0
 34 57  1  0  0  0  0
 34 69  1  0  0  0  0
 34 75  2  0  0  0  0
 35 64  1  0  0  0  0
 35 70  1  0  0  0  0
 35 76  2  0  0  0  0
 36 39  1  0  0  0  0
 37 46  1  0  0  0  0
 38 63  1  0  0  0  0
 39 41  1  0  0  0  0
 40 42  1  0  0  0  0
 40 43  1  0  0  0  0
 41 45  1  0  0  0  0
 42 47  1  0  0  0  0
 43 64  1  0  0  0  0
 44 47  1  0  0  0  0
 44 64  1  0  0  0  0
 45 68  1  0  0  0  0
 46 63  1  0  0  0  0
 47 62  1  0  0  0  0
 48 57  1  0  0  0  0
 49 59  1  0  0  0  0
 50 59  1  0  0  0  0
 51 59  1  0  0  0  0
 52 71  1  0  0  0  0
 53 70  1  0  0  0  0
 54 58  1  0  0  0  0
 54 67  1  0  0  0  0
 55 58  1  0  0  0  0
 55 79  1  0  0  0  0
 56 59  1  0  0  0  0
 56 69  1  0  0  0  0
 57 71  1  0  0  0  0
 58 77  1  0  0  0  0
 60 62  1  0  0  0  0
M  CHG  1  71   1
M  ISO  4  35 100  55 101  70 100  79 101
M  END
> <Batch ID>
0195

> <Smiles>
CNC(C)C(=O)NC(C(=O)N1Cc2cc([101O:1][101CH2:1]C(O)CNc3nc(C[100NH:0][100C:0](=O)N4CCCC(n5nc(-c6ccc(Oc7ccc(F)cc7F)cc6)c(C(N)=O)c5N)C4)cs3)ccc2CC1C(=O)NC1CCCc2ccccc21)C(C)(C)C

> <Shape>
0.216

> <Color>
0.068

> <Negative vol penalty>
0.000

$$$$

  -OEChem-04052305363D

 87 95  0     1  0  0  0  0  0999 V2000
  -28.6230  -31.9954   27.0855 C   0  0  0  0  0  0  0  0  0  0  0  0
  -28.4870  -30.8916   26.2497 C   0  0  0  0  0  0  0  0  0  0  0  0
  -25.6080   -8.7362   21.7722 C   0  0  0  0  0  0  0  0  0  0  0  0
  -24.7685  -10.4037   23.3057 C   0  0  0  0  0  0  0  0  0  0  0  0
  -27.5174  -32.7980   27.3639 C   0  0  0  0  0  0  0  0  0  0  0  0
  -27.2450  -30.5891   25.6926 C   0  0  0  0  0  0  0  0  0  0  0  0
  -27.5539  -29.4235   20.7742 C   0  0  0  0  0  0  0  0  0  0  0  0
  -25.5531   -7.7779   22.7842 C   0  0  0  0  0  0  0  0  0  0  0  0
  -24.7136   -9.4454   24.3178 C   0  0  0  0  0  0  0  0  0  0  0  0
  -28.0029  -28.1440   20.4501 C   0  0  0  0  0  0  0  0  0  0  0  0
  -22.6702   -6.9184   25.2447 C   0  0  0  0  0  0  0  0  0  0  0  0
  -21.5220   -6.8782   26.0356 C   0  0  0  0  0  0  0  0  0  0  0  0
  -25.7230  -27.4407   20.0942 C   0  0  0  0  0  0  0  0  0  0  0  0
  -22.8594   -7.3158   27.9995 C   0  0  0  0  0  0  0  0  0  0  0  0
  -25.2157  -10.0492   22.0330 C   0  0  0  0  0  0  0  0  0  0  0  0
  -24.2551  -11.3695   20.0729 C   0  0  0  0  0  0  0  0  0  0  0  0
  -26.2633  -32.5107   26.8022 C   0  0  0  0  0  0  0  0  0  0  0  0
  -26.1831  -29.7188   20.7714 C   0  0  0  0  0  0  0  0  0  0  0  0
  -26.1213  -31.3878   25.9648 C   0  0  0  0  0  0  0  0  0  0  0  0
  -25.2594  -28.7254   20.4162 C   0  0  0  0  0  0  0  0  0  0  0  0
  -25.1059   -8.1324   24.0569 C   0  0  0  0  0  0  0  0  0  0  0  0
  -27.0872  -27.1516   20.1128 C   0  0  0  0  0  0  0  0  0  0  0  0
  -23.9131   -7.1572   25.8313 C   0  0  0  0  0  0  0  0  0  0  0  0
  -21.6165   -7.0770   27.4130 C   0  0  0  0  0  0  0  0  0  0  0  0
  -24.0076   -7.3559   27.2086 C   0  0  0  0  0  0  0  0  0  0  0  0
  -25.2727  -11.0398   20.9882 C   0  0  0  0  0  0  0  0  0  0  0  0
  -24.8011  -12.3610   19.2950 C   0  0  0  0  0  0  0  0  0  0  0  0
  -28.1097  -18.0930   21.7740 C   0  0  0  0  0  0  0  0  0  0  0  0
  -28.5422  -20.1089   22.1001 C   0  0  0  0  0  0  0  0  0  0  0  0
  -22.9344  -10.8280   19.9381 C   0  0  0  0  0  0  0  0  0  0  0  0
  -24.0868  -30.6607   22.9673 C   0  0  0  0  0  0  0  0  0  0  0  0
  -22.0985  -30.8788   20.4136 C   0  0  0  0  0  0  0  0  0  0  0  0
  -21.3356  -29.8767   17.2418 C   0  0  0  0  0  0  0  0  0  0  0  0
  -29.1266  -16.3742   20.2384 C   0  0  0  0  0  0  0  0  0  0  0  0
  -25.0869  -33.3799   27.1701 C   0  0  0  0  0  0  0  0  0  0  0  0
  -25.7167  -31.1111   21.0974 C   0  0  0  0  0  0  0  0  0  0  0  0
  -23.7784  -28.9968   20.3784 C   0  0  0  0  0  0  0  0  0  0  0  0
  -23.8883  -33.2078   26.2406 C   0  0  0  0  0  0  0  0  0  0  0  0
  -29.0127  -13.9357   17.6465 C   0  0  0  0  0  0  0  0  0  0  0  0
  -23.6056  -31.7279   26.0024 C   0  0  0  0  0  0  0  0  0  0  0  0
  -27.9438  -12.9497   18.1231 C   0  0  0  0  0  0  0  0  0  0  0  0
  -29.8462  -14.4738   18.8081 C   0  0  0  0  0  0  0  0  0  0  0  0
  -28.0020  -14.0659   20.3897 C   0  0  0  0  0  0  0  0  0  0  0  0
  -24.7960  -31.0415   25.3216 C   0  0  1  0  0  0  0  0  0  0  0  0
  -24.2644  -31.1614   21.5618 C   0  0  1  0  0  0  0  0  0  0  0  0
  -27.0946  -13.5463   19.2626 C   0  0  2  0  0  0  0  0  0  0  0  0
  -19.6290  -30.1999   15.4307 C   0  0  0  0  0  0  0  0  0  0  0  0
  -32.6398  -21.2303   19.7585 C   0  0  0  0  0  0  0  0  0  0  0  0
  -33.9927  -21.4837   21.8476 C   0  0  0  0  0  0  0  0  0  0  0  0
  -20.1435  -29.1039   21.9426 C   0  0  0  0  0  0  0  0  0  0  0  0
  -18.9416  -28.6892   19.7858 C   0  0  0  0  0  0  0  0  0  0  0  0
  -19.0825  -31.0026   20.7082 C   0  0  0  0  0  0  0  0  0  0  0  0
  -26.7629  -20.4988   23.8521 C   0  0  0  0  0  0  0  0  0  0  0  0
  -23.3604  -30.9403   15.3634 C   0  0  0  0  0  0  0  0  0  0  0  0
  -31.4395  -21.4797   21.9530 C   0  0  0  0  0  0  0  0  0  0  0  0
  -30.0119  -23.4350   21.2257 C   0  0  0  0  0  0  0  0  0  0  0  0
  -28.7294  -25.4586   20.4178 C   0  0  0  0  0  0  0  0  0  1  0  0
  -21.1485  -29.9364   19.7148 C   0  0  1  0  0  0  0  0  0  0  0  0
  -20.9608  -30.6643   15.9994 C   0  0  2  0  0  0  0  0  0  0  0  0
  -32.6930  -21.8785   21.1450 C   0  0  0  0  0  0  0  0  0  0  0  0
  -30.0973  -21.8996   21.3252 C   0  0  2  0  0  0  0  0  0  0  0  0
  -28.7263  -23.9371   20.5513 C   0  0  1  0  0  0  0  0  0  0  0  0
  -19.8567  -29.6771   20.5403 C   0  0  0  0  0  0  0  0  0  0  0  0
  -26.3813  -11.7630   20.8093 N   0  0  0  0  0  0  0  0  0  0  0  0
  -28.9466  -19.0942   21.3718 N   0  0  0  0  0  0  0  0  0  0  0  0
  -27.2129  -18.4243   22.7053 N   0  0  0  0  0  0  0  0  0  0  0  0
  -26.0635  -12.5571   19.7727 N   0  0  0  0  0  0  0  0  0  0  0  0
  -27.5109  -19.7185   22.8962 N   0  0  0  0  0  0  0  0  0  0  0  0
  -23.3714  -30.3719   20.7113 N   0  0  0  0  0  0  0  0  0  0  0  0
  -28.9751  -15.0270   19.8473 N   0  0  0  0  0  0  0  0  0  0  0  0
  -24.3198  -13.0756   18.2557 N   0  0  0  0  0  0  0  0  0  0  0  0
  -22.5346   -9.8146   20.8199 N   0  0  0  0  0  0  0  0  0  0  0  0
  -28.2212  -16.7975   21.2108 N   0  0  0  0  0  0  0  0  0  0  0  0
  -29.0050  -21.4113   22.1423 N   0  0  0  0  0  0  0  0  0  0  0  0
  -24.8208  -31.3560   23.9092 N   0  0  0  0  0  0  0  0  0  0  0  0
  -20.9087  -30.5047   18.3927 N   0  0  0  0  0  0  0  0  0  0  0  0
  -22.0038  -30.5001   14.9476 N   0  3  0  0  0  0  0  0  0  0  0  0
  -22.1384  -11.2193   19.0511 O   0  0  0  0  0  0  0  0  0  0  0  0
  -23.3381  -29.7145   23.1815 O   0  0  0  0  0  0  0  0  0  0  0  0
  -21.7273  -32.0249   20.6791 O   0  0  0  0  0  0  0  0  0  0  0  0
  -21.9430  -28.8092   17.1957 O   0  0  0  0  0  0  0  0  0  0  0  0
  -29.9778  -17.1065   19.7274 O   0  0  0  0  0  0  0  0  0  0  0  0
  -28.6098  -23.3637   19.2491 O   0  0  0  0  0  0  0  0  0  0  0  0
  -25.0520   -7.1975   25.0446 O   0  0  0  0  0  0  0  0  0  0  0  0
  -27.5254  -25.8936   19.7946 O   0  0  0  0  0  0  0  0  0  1  0  0
  -20.5136   -7.0399   28.1721 F   0  0  0  0  0  0  0  0  0  0  0  0
  -25.1987   -7.5869   27.7777 F   0  0  0  0  0  0  0  0  0  0  0  0
  1  2  1  0  0  0  0
  1  5  2  0  0  0  0
  2  6  2  0  0  0  0
  3  8  2  0  0  0  0
  3 15  1  0  0  0  0
  4  9  1  0  0  0  0
  4 15  2  0  0  0  0
  5 17  1  0  0  0  0
  6 19  1  0  0  0  0
  7 10  2  0  0  0  0
  7 18  1  0  0  0  0
  8 21  1  0  0  0  0
  9 21  2  0  0  0  0
 10 22  1  0  0  0  0
 11 12  2  0  0  0  0
 11 23  1  0  0  0  0
 12 24  1  0  0  0  0
 13 20  1  0  0  0  0
 13 22  2  0  0  0  0
 14 24  2  0  0  0  0
 14 25  1  0  0  0  0
 15 26  1  0  0  0  0
 16 26  1  0  0  0  0
 16 27  2  0  0  0  0
 16 30  1  0  0  0  0
 17 19  2  0  0  0  0
 17 35  1  0  0  0  0
 18 20  2  0  0  0  0
 18 36  1  0  0  0  0
 19 44  1  0  0  0  0
 20 37  1  0  0  0  0
 21 84  1  0  0  0  0
 22 85  1  0  0  0  0
 23 25  2  0  0  0  0
 23 84  1  0  0  0  0
 24 86  1  0  0  0  0
 25 87  1  0  0  0  0
 26 64  2  0  0  0  0
 27 67  1  0  0  0  0
 27 71  1  0  0  0  0
 28 65  1  0  0  0  0
 28 66  2  0  0  0  0
 28 73  1  0  0  0  0
 29 65  2  0  0  0  0
 29 68  1  0  0  0  0
 29 74  1  0  0  0  0
 30 72  1  0  0  0  0
 30 78  2  0  0  0  0
 31 45  1  0  0  0  0
 31 75  1  0  0  0  0
 31 79  2  0  0  0  0
 32 58  1  0  0  0  0
 32 69  1  0  0  0  0
 32 80  2  0  0  0  0
 33 59  1  0  0  0  0
 33 76  1  0  0  0  0
 33 81  2  0  0  0  0
 34 70  1  0  0  0  0
 34 73  1  0  0  0  0
 34 82  2  0  0  0  0
 35 38  1  0  0  0  0
 36 45  1  0  0  0  0
 37 69  1  0  0  0  0
 38 40  1  0  0  0  0
 39 41  1  0  0  0  0
 39 42  1  0  0  0  0
 40 44  1  0  0  0  0
 41 46  1  0  0  0  0
 42 70  1  0  0  0  0
 43 46  1  0  0  0  0
 43 70  1  0  0  0  0
 44 75  1  0  0  0  0
 45 69  1  0  0  0  0
 46 67  1  0  0  0  0
 47 59  1  0  0  0  0
 48 60  1  0  0  0  0
 49 60  1  0  0  0  0
 50 63  1  0  0  0  0
 51 63  1  0  0  0  0
 52 63  1  0  0  0  0
 53 68  1  0  0  0  0
 54 77  1  0  0  0  0
 55 60  1  0  0  0  0
 55 61  1  0  0  0  0
 56 61  1  0  0  0  0
 56 62  1  0  0  0  0
 57 62  1  0  0  0  0
 57 85  1  0  0  0  0
 58 63  1  0  0  0  0
 58 76  1  0  0  0  0
 59 77  1  0  0  0  0
 61 74  1  0  0  0  0
 62 83  1  0  0  0  0
 64 67  1  0  0  0  0
 66 68  1  0  0  0  0
M  CHG  1  77   1
M  ISO  4  34 100  57 101  73 100  85 101
M  END
> <Batch ID>
0195

> <Smiles>
CNC(C)C(=O)NC(C(=O)N1Cc2cc([101O:1][101CH2:1]C(O)CC(CC(C)C)Nc3nc([100NH:0][100C:0](=O)N4CCCC(n5nc(-c6ccc(Oc7ccc(F)cc7F)cc6)c(C(N)=O)c5N)C4)nn3C)ccc2CC1C(=O)NC1CCCc2ccccc21)C(C)(C)C

> <Shape>
0.259

> <Color>
0.087

> <Negative vol penalty>
0.000

$$$$

  -OEChem-04052305363D

 86 95  0     1  0  0  0  0  0999 V2000
  -18.1635  -29.0397   17.0373 C   0  0  0  0  0  0  0  0  0  0  0  0
  -19.0819  -28.1953   17.6527 C   0  0  0  0  0  0  0  0  0  0  0  0
  -22.9298  -11.1721   18.8984 C   0  0  0  0  0  0  0  0  0  0  0  0
  -23.2517   -9.6530   20.7493 C   0  0  0  0  0  0  0  0  0  0  0  0
  -18.3813  -30.4168   17.0287 C   0  0  0  0  0  0  0  0  0  0  0  0
  -20.2193  -28.7274   18.2590 C   0  0  0  0  0  0  0  0  0  0  0  0
  -21.1312  -26.6900   22.8046 C   0  0  0  0  0  0  0  0  0  0  0  0
  -21.9753  -10.3109   18.3575 C   0  0  0  0  0  0  0  0  0  0  0  0
  -22.2971   -8.7917   20.2083 C   0  0  0  0  0  0  0  0  0  0  0  0
  -21.7182  -25.4256   22.8295 C   0  0  0  0  0  0  0  0  0  0  0  0
  -18.9271   -8.5946   20.0507 C   0  0  0  0  0  0  0  0  0  0  0  0
  -17.9740   -8.0596   20.9172 C   0  0  0  0  0  0  0  0  0  0  0  0
  -23.8647  -26.4375   23.2629 C   0  0  0  0  0  0  0  0  0  0  0  0
  -18.7287   -5.8304   20.3712 C   0  0  0  0  0  0  0  0  0  0  0  0
  -28.4307  -20.7774   19.6363 C   0  0  0  0  0  0  0  0  0  0  0  0
  -23.5681  -10.8432   20.0943 C   0  0  0  0  0  0  0  0  0  0  0  0
  -24.3326  -12.7874   21.5583 C   0  0  0  0  0  0  0  0  0  0  0  0
  -19.5170  -30.9669   17.6436 C   0  0  0  0  0  0  0  0  0  0  0  0
  -21.9097  -27.8401   22.9982 C   0  0  0  0  0  0  0  0  0  0  0  0
  -20.4532  -30.1130   18.2575 C   0  0  0  0  0  0  0  0  0  0  0  0
  -23.2847  -27.7151   23.2425 C   0  0  0  0  0  0  0  0  0  0  0  0
  -29.4588  -19.8624   19.2462 C   0  0  0  0  0  0  0  0  0  0  0  0
  -21.6589   -9.1207   19.0124 C   0  0  0  0  0  0  0  0  0  0  0  0
  -23.0857  -25.2994   23.0558 C   0  0  0  0  0  0  0  0  0  0  0  0
  -19.7810   -7.7475   19.3443 C   0  0  0  0  0  0  0  0  0  0  0  0
  -17.8748   -6.6775   21.0775 C   0  0  0  0  0  0  0  0  0  0  0  0
  -19.6819   -6.3654   19.5046 C   0  0  0  0  0  0  0  0  0  0  0  0
  -24.5547  -11.7322   20.6533 C   0  0  0  0  0  0  0  0  0  0  0  0
  -29.2171  -18.5788   19.6852 C   0  0  0  0  0  0  0  0  0  0  0  0
  -28.2452  -22.1477   19.4271 C   0  0  0  0  0  0  0  0  0  0  0  0
  -27.4424  -20.1289   20.3654 C   0  0  0  0  0  0  0  0  0  0  0  0
  -25.5797  -13.3188   21.7788 C   0  0  0  0  0  0  0  0  0  0  0  0
  -26.2753  -22.0143   20.6109 C   0  0  0  0  0  0  0  0  0  0  0  0
  -30.0237  -17.3601   19.4951 C   0  0  0  0  0  0  0  0  0  0  0  0
  -23.1084  -13.2461   22.1471 C   0  0  0  0  0  0  0  0  0  0  0  0
  -22.6147  -30.3935   21.2411 C   0  0  0  0  0  0  0  0  0  0  0  0
  -24.0580  -31.3895   23.9701 C   0  0  0  0  0  0  0  0  0  0  0  0
  -25.5097  -30.5657   26.9468 C   0  0  0  0  0  0  0  0  0  0  0  0
  -30.4632  -15.1181   19.7622 C   0  0  0  0  0  0  0  0  0  0  0  0
  -19.7335  -32.4576   17.5675 C   0  0  0  0  0  0  0  0  0  0  0  0
  -21.2567  -29.1951   22.9949 C   0  0  0  0  0  0  0  0  0  0  0  0
  -24.1612  -28.9175   23.4763 C   0  0  0  0  0  0  0  0  0  0  0  0
  -20.7739  -32.9734   18.5583 C   0  0  0  0  0  0  0  0  0  0  0  0
  -30.1678  -11.6087   20.5380 C   0  0  0  0  0  0  0  0  0  0  0  0
  -22.0190  -32.0926   18.5318 C   0  0  0  0  0  0  0  0  0  0  0  0
  -28.6586  -11.4097   20.6764 C   0  0  0  0  0  0  0  0  0  0  0  0
  -30.5005  -12.6414   19.4654 C   0  0  0  0  0  0  0  0  0  0  0  0
  -28.3171  -13.7656   19.8087 C   0  0  0  0  0  0  0  0  0  0  0  0
  -21.6864  -30.6545   18.9474 C   0  0  1  0  0  0  0  0  0  0  0  0
  -22.2327  -30.3280   22.6929 C   0  0  1  0  0  0  0  0  0  0  0  0
  -27.9424  -12.7529   20.9042 C   0  0  1  0  0  0  0  0  0  0  0  0
  -30.6605  -20.2356   18.4556 C   0  0  0  0  0  0  0  0  0  0  0  0
  -26.6291  -31.5936   28.9437 C   0  0  0  0  0  0  0  0  0  0  0  0
  -26.5905  -31.8229   22.3243 C   0  0  0  0  0  0  0  0  0  0  0  0
  -27.8826  -31.9192   24.4666 C   0  0  0  0  0  0  0  0  0  0  0  0
  -26.1157  -33.6173   24.0004 C   0  0  0  0  0  0  0  0  0  0  0  0
  -23.4438  -29.5185   28.7891 C   0  0  0  0  0  0  0  0  0  0  0  0
  -24.1195  -22.0396   21.8668 C   0  0  0  0  0  0  0  0  0  0  0  0
  -23.0633  -23.0546   22.2709 C   0  0  0  0  0  0  0  0  0  1  0  0
  -25.4392  -31.2470   24.5624 C   0  0  1  0  0  0  0  0  0  0  0  0
  -25.3142  -31.1142   28.3487 C   0  0  2  0  0  0  0  0  0  0  0  0
  -26.4911  -32.1289   23.8321 C   0  0  0  0  0  0  0  0  0  0  0  0
  -25.8417  -11.5997   20.3215 N   0  0  0  0  0  0  0  0  0  0  0  0
  -27.1534  -22.7691   19.9218 N   0  0  0  0  0  0  0  0  0  0  0  0
  -26.3354  -20.6982   20.8813 N   0  0  0  0  0  0  0  0  0  0  0  0
  -29.6564  -16.2188   19.9786 N   0  0  0  0  0  0  0  0  0  0  0  0
  -26.4395  -12.5787   21.0216 N   0  0  0  0  0  0  0  0  0  0  0  0
  -23.4770  -30.2210   23.4573 N   0  0  0  0  0  0  0  0  0  0  0  0
  -29.7762  -13.8920   19.6966 N   0  0  0  0  0  0  0  0  0  0  0  0
  -29.1831  -22.9071   18.7018 N   0  0  0  0  0  0  0  0  0  0  0  0
  -26.0139  -14.3425   22.5444 N   0  0  0  0  0  0  0  0  0  0  0  0
  -21.9178  -12.5869   21.8121 N   0  0  0  0  0  0  0  0  0  0  0  0
  -25.1665  -22.6811   21.1051 N   0  0  0  0  0  0  0  0  0  0  0  0
  -21.5437  -30.5639   20.3847 N   0  0  0  0  0  0  0  0  0  0  0  0
  -25.3043  -31.5336   25.9865 N   0  0  0  0  0  0  0  0  0  0  0  0
  -24.7496  -30.0634   29.2420 N   0  3  0  0  0  0  0  0  0  0  0  0
  -23.0693  -14.2223   22.9338 O   0  0  0  0  0  0  0  0  0  0  0  0
  -23.7939  -30.2979   20.9217 O   0  0  0  0  0  0  0  0  0  0  0  0
  -23.5116  -32.4954   23.9690 O   0  0  0  0  0  0  0  0  0  0  0  0
  -25.8177  -29.3966   26.7258 O   0  0  0  0  0  0  0  0  0  0  0  0
  -31.6877  -15.1790   19.6283 O   0  0  0  0  0  0  0  0  0  0  0  0
  -20.7273   -8.2802   18.4850 O   0  0  0  0  0  0  0  0  0  0  0  0
  -23.6614  -24.0666   23.0799 O   0  0  0  0  0  0  0  0  0  1  0  0
  -16.9605   -6.1640   21.9109 F   0  0  0  0  0  0  0  0  0  0  0  0
  -20.5002   -5.5466   18.8296 F   0  0  0  0  0  0  0  0  0  0  0  0
  -27.7563  -18.4662   20.5679 S   0  0  0  0  0  0  0  0  0  0  0  0
  1  2  1  0  0  0  0
  1  5  2  0  0  0  0
  2  6  2  0  0  0  0
  3  8  2  0  0  0  0
  3 16  1  0  0  0  0
  4  9  1  0  0  0  0
  4 16  2  0  0  0  0
  5 18  1  0  0  0  0
  6 20  1  0  0  0  0
  7 10  2  0  0  0  0
  7 19  1  0  0  0  0
  8 23  1  0  0  0  0
  9 23  2  0  0  0  0
 10 24  1  0  0  0  0
 11 12  2  0  0  0  0
 11 25  1  0  0  0  0
 12 26  1  0  0  0  0
 13 21  1  0  0  0  0
 13 24  2  0  0  0  0
 14 26  2  0  0  0  0
 14 27  1  0  0  0  0
 15 22  1  0  0  0  0
 15 30  1  0  0  0  0
 15 31  2  0  0  0  0
 16 28  1  0  0  0  0
 17 28  1  0  0  0  0
 17 32  2  0  0  0  0
 17 35  1  0  0  0  0
 18 20  2  0  0  0  0
 18 40  1  0  0  0  0
 19 21  2  0  0  0  0
 19 41  1  0  0  0  0
 20 49  1  0  0  0  0
 21 42  1  0  0  0  0
 22 29  2  0  0  0  0
 22 52  1  0  0  0  0
 23 82  1  0  0  0  0
 24 83  1  0  0  0  0
 25 27  2  0  0  0  0
 25 82  1  0  0  0  0
 26 84  1  0  0  0  0
 27 85  1  0  0  0  0
 28 63  2  0  0  0  0
 29 34  1  0  0  0  0
 29 86  1  0  0  0  0
 30 64  2  0  0  0  0
 30 70  1  0  0  0  0
 31 65  1  0  0  0  0
 31 86  1  0  0  0  0
 32 67  1  0  0  0  0
 32 71  1  0  0  0  0
 33 64  1  0  0  0  0
 33 65  2  0  0  0  0
 33 73  1  0  0  0  0
 34 66  2  0  0  0  0
 35 72  1  0  0  0  0
 35 77  2  0  0  0  0
 36 50  1  0  0  0  0
 36 74  1  0  0  0  0
 36 78  2  0  0  0  0
 37 60  1  0  0  0  0
 37 68  1  0  0  0  0
 37 79  2  0  0  0  0
 38 61  1  0  0  0  0
 38 75  1  0  0  0  0
 38 80  2  0  0  0  0
 39 66  1  0  0  0  0
 39 69  1  0  0  0  0
 39 81  2  0  0  0  0
 40 43  1  0  0  0  0
 41 50  1  0  0  0  0
 42 68  1  0  0  0  0
 43 45  1  0  0  0  0
 44 46  1  0  0  0  0
 44 47  1  0  0  0  0
 45 49  1  0  0  0  0
 46 51  1  0  0  0  0
 47 69  1  0  0  0  0
 48 51  1  0  0  0  0
 48 69  1  0  0  0  0
 49 74  1  0  0  0  0
 50 68  1  0  0  0  0
 51 67  1  0  0  0  0
 53 61  1  0  0  0  0
 54 62  1  0  0  0  0
 55 62  1  0  0  0  0
 56 62  1  0  0  0  0
 57 76  1  0  0  0  0
 58 59  1  0  0  0  0
 58 73  1  0  0  0  0
 59 83  1  0  0  0  0
 60 62  1  0  0  0  0
 60 75  1  0  0  0  0
 61 76  1  0  0  0  0
 63 67  1  0  0  0  0
M  CHG  1  76   1
M  ISO  4  39 100  59 101  66 100  83 101
M  END
> <Batch ID>
0195

> <Smiles>
CNC(C)C(=O)NC(C(=O)N1Cc2cc([101O:1][101CH2:1]CNc3nc(N)c4c(C)c(C=[100N:0][100C:0](=O)N5CCCC(n6nc(-c7ccc(Oc8ccc(F)cc8F)cc7)c(C(N)=O)c6N)C5)sc4n3)ccc2CC1C(=O)NC1CCCc2ccccc21)C(C)(C)C

> <Shape>
0.261

> <Color>
0.106

> <Negative vol penalty>
0.000

$$$$

  -OEChem-04052305363D

 82 90  0     1  0  0  0  0  0999 V2000
  -29.0487   -8.6958   17.4586 C   0  0  0  0  0  0  0  0  0  0  0  0
  -28.0230   -9.3401   18.1431 C   0  0  0  0  0  0  0  0  0  0  0  0
  -25.0312  -30.3897   20.3098 C   0  0  0  0  0  0  0  0  0  0  0  0
  -24.4159  -28.5894   21.7988 C   0  0  0  0  0  0  0  0  0  0  0  0
  -30.3643   -9.1342   17.6028 C   0  0  0  0  0  0  0  0  0  0  0  0
  -28.3127  -10.4225   18.9730 C   0  0  0  0  0  0  0  0  0  0  0  0
  -25.0872  -14.2746   18.3386 C   0  0  0  0  0  0  0  0  0  0  0  0
  -24.5701  -31.3187   21.2425 C   0  0  0  0  0  0  0  0  0  0  0  0
  -23.9549  -29.5184   22.7316 C   0  0  0  0  0  0  0  0  0  0  0  0
  -23.8333  -14.1603   18.9373 C   0  0  0  0  0  0  0  0  0  0  0  0
  -23.8865  -34.1764   23.3828 C   0  0  0  0  0  0  0  0  0  0  0  0
  -24.6873  -35.2890   23.6404 C   0  0  0  0  0  0  0  0  0  0  0  0
  -24.5775  -15.5665   20.7505 C   0  0  0  0  0  0  0  0  0  0  0  0
  -26.4719  -33.8348   24.3735 C   0  0  0  0  0  0  0  0  0  0  0  0
  -20.8410  -19.7132   17.4642 C   0  0  0  0  0  0  0  0  0  0  0  0
  -24.9541  -29.0250   20.5879 C   0  0  0  0  0  0  0  0  0  0  0  0
  -26.7302  -27.5357   19.5225 C   0  0  0  0  0  0  0  0  0  0  0  0
  -30.6690  -10.2287   18.4275 C   0  0  0  0  0  0  0  0  0  0  0  0
  -26.1008  -15.0281   18.9479 C   0  0  0  0  0  0  0  0  0  0  0  0
  -29.6338  -10.8751   19.1295 C   0  0  0  0  0  0  0  0  0  0  0  0
  -25.8426  -15.6909   20.1562 C   0  0  0  0  0  0  0  0  0  0  0  0
  -24.0320  -30.8831   22.4534 C   0  0  0  0  0  0  0  0  0  0  0  0
  -23.5792  -14.8040   20.1448 C   0  0  0  0  0  0  0  0  0  0  0  0
  -24.3783  -32.8930   23.6207 C   0  0  0  0  0  0  0  0  0  0  0  0
  -25.9801  -35.1182   24.1356 C   0  0  0  0  0  0  0  0  0  0  0  0
  -25.6710  -32.7222   24.1160 C   0  0  0  0  0  0  0  0  0  0  0  0
  -25.4296  -28.0648   19.6246 C   0  0  0  0  0  0  0  0  0  0  0  0
  -26.6673  -26.6734   18.4553 C   0  0  0  0  0  0  0  0  0  0  0  0
  -21.1205  -19.7738   18.8134 C   0  0  0  0  0  0  0  0  0  0  0  0
  -21.7025  -21.7289   17.5323 C   0  0  0  0  0  0  0  0  0  0  0  0
  -27.8913  -27.8000   20.3211 C   0  0  0  0  0  0  0  0  0  0  0  0
  -28.9906  -14.3811   20.1030 C   0  0  0  0  0  0  0  0  0  0  0  0
  -29.1419  -17.6016   20.4600 C   0  0  0  0  0  0  0  0  0  0  0  0
  -27.4757  -20.5580   20.8215 C   0  0  0  0  0  0  0  0  0  0  0  0
  -22.1943  -23.6151   15.9364 C   0  0  0  0  0  0  0  0  0  0  0  0
  -32.1120  -10.6365   18.5888 C   0  0  0  0  0  0  0  0  0  0  0  0
  -27.4396  -15.1634   18.2758 C   0  0  0  0  0  0  0  0  0  0  0  0
  -26.8905  -16.5285   20.8409 C   0  0  0  0  0  0  0  0  0  0  0  0
  -32.2880  -12.0264   19.1949 C   0  0  0  0  0  0  0  0  0  0  0  0
  -24.3251  -25.9769   14.3367 C   0  0  0  0  0  0  0  0  0  0  0  0
  -31.3822  -12.1975   20.4102 C   0  0  0  0  0  0  0  0  0  0  0  0
  -24.9731  -26.7281   15.5020 C   0  0  0  0  0  0  0  0  0  0  0  0
  -22.8694  -25.6194   14.6318 C   0  0  0  0  0  0  0  0  0  0  0  0
  -23.2984  -25.6497   17.0575 C   0  0  0  0  0  0  0  0  0  0  0  0
  -29.9049  -12.0685   20.0197 C   0  0  1  0  0  0  0  0  0  0  0  0
  -28.5590  -15.5353   19.2433 C   0  0  1  0  0  0  0  0  0  0  0  0
  -24.7844  -25.9742   16.8330 C   0  0  2  0  0  0  0  0  0  0  0  0
  -27.8708  -23.0171   21.1284 C   0  0  0  0  0  0  0  0  0  0  0  0
  -29.8662  -17.1179   23.3842 C   0  0  0  0  0  0  0  0  0  0  0  0
  -29.3170  -19.5168   23.8446 C   0  0  0  0  0  0  0  0  0  0  0  0
  -31.1686  -18.9421   22.2749 C   0  0  0  0  0  0  0  0  0  0  0  0
  -26.0838  -21.2150   18.2937 C   0  0  0  0  0  0  0  0  0  0  0  0
  -20.0156  -15.1591   20.5112 C   0  0  0  0  0  0  0  0  0  0  0  0
  -20.2965  -17.5153   19.4810 C   0  0  0  0  0  0  0  0  0  0  0  0
  -21.2348  -14.5158   19.8674 C   0  0  0  0  0  0  0  0  0  1  0  0
  -28.7734  -18.5745   21.5539 C   0  0  1  0  0  0  0  0  0  0  0  0
  -27.6382  -21.8974   20.1258 C   0  0  2  0  0  0  0  0  0  0  0  0
  -20.1627  -16.6662   20.7462 C   0  0  1  0  0  0  0  0  0  0  0  0
  -29.7620  -18.5205   22.7527 C   0  0  0  0  0  0  0  0  0  0  0  0
  -21.1737  -20.8336   16.7281 N   0  0  0  0  0  0  0  0  0  0  0  0
  -24.6011  -27.5794   18.6962 N   0  0  0  0  0  0  0  0  0  0  0  0
  -25.3830  -26.7363   18.0005 N   0  0  0  0  0  0  0  0  0  0  0  0
  -28.1857  -16.6250   20.1475 N   0  0  0  0  0  0  0  0  0  0  0  0
  -22.7685  -24.9036   15.9055 N   0  0  0  0  0  0  0  0  0  0  0  0
  -27.5858  -25.8752   17.8709 N   0  0  0  0  0  0  0  0  0  0  0  0
  -27.7812  -28.7132   21.3785 N   0  0  0  0  0  0  0  0  0  0  0  0
  -20.8913  -18.7998   19.7711 N   0  0  0  0  0  0  0  0  0  0  0  0
  -22.1821  -23.0195   17.1972 N   0  0  0  0  0  0  0  0  0  0  0  0
  -29.4404  -13.2860   19.3902 N   0  0  0  0  0  0  0  0  0  0  0  0
  -28.6749  -19.8844   20.9191 N   0  0  0  0  0  0  0  0  0  0  0  0
  -26.4178  -22.2213   19.3342 N   0  3  0  0  0  0  0  0  0  0  0  0
  -28.9980  -27.2551   20.0931 O   0  0  0  0  0  0  0  0  0  0  0  0
  -28.9221  -14.4774   21.3227 O   0  0  0  0  0  0  0  0  0  0  0  0
  -30.2349  -17.7088   19.8983 O   0  0  0  0  0  0  0  0  0  0  0  0
  -26.3940  -20.1516   21.2400 O   0  0  0  0  0  0  0  0  0  0  0  0
  -21.7710  -23.0685   14.9146 O   0  0  0  0  0  0  0  0  0  0  0  0
  -19.0308  -17.1347   21.4816 O   0  0  0  0  0  0  0  0  0  0  0  0
  -23.5823  -31.7893   23.3638 O   0  0  0  0  0  0  0  0  0  0  0  0
  -22.3564  -14.6935   20.7317 O   0  0  0  0  0  0  0  0  0  1  0  0
  -26.7496  -36.1867   24.3814 F   0  0  0  0  0  0  0  0  0  0  0  0
  -26.1495  -31.4916   24.3454 F   0  0  0  0  0  0  0  0  0  0  0  0
  -21.8306  -21.2897   19.1863 S   0  0  0  0  0  0  0  0  0  0  0  0
  1  2  1  0  0  0  0
  1  5  2  0  0  0  0
  2  6  2  0  0  0  0
  3  8  2  0  0  0  0
  3 16  1  0  0  0  0
  4  9  1  0  0  0  0
  4 16  2  0  0  0  0
  5 18  1  0  0  0  0
  6 20  1  0  0  0  0
  7 10  2  0  0  0  0
  7 19  1  0  0  0  0
  8 22  1  0  0  0  0
  9 22  2  0  0  0  0
 10 23  1  0  0  0  0
 11 12  2  0  0  0  0
 11 24  1  0  0  0  0
 12 25  1  0  0  0  0
 13 21  1  0  0  0  0
 13 23  2  0  0  0  0
 14 25  2  0  0  0  0
 14 26  1  0  0  0  0
 15 29  2  0  0  0  0
 15 60  1  0  0  0  0
 16 27  1  0  0  0  0
 17 27  1  0  0  0  0
 17 28  2  0  0  0  0
 17 31  1  0  0  0  0
 18 20  2  0  0  0  0
 18 36  1  0  0  0  0
 19 21  2  0  0  0  0
 19 37  1  0  0  0  0
 20 45  1  0  0  0  0
 21 38  1  0  0  0  0
 22 78  1  0  0  0  0
 23 79  1  0  0  0  0
 24 26  2  0  0  0  0
 24 78  1  0  0  0  0
 25 80  1  0  0  0  0
 26 81  1  0  0  0  0
 27 61  2  0  0  0  0
 28 62  1  0  0  0  0
 28 65  1  0  0  0  0
 29 67  1  0  0  0  0
 29 82  1  0  0  0  0
 30 60  2  0  0  0  0
 30 68  1  0  0  0  0
 30 82  1  0  0  0  0
 31 66  1  0  0  0  0
 31 72  2  0  0  0  0
 32 46  1  0  0  0  0
 32 69  1  0  0  0  0
 32 73  2  0  0  0  0
 33 56  1  0  0  0  0
 33 63  1  0  0  0  0
 33 74  2  0  0  0  0
 34 57  1  0  0  0  0
 34 70  1  0  0  0  0
 34 75  2  0  0  0  0
 35 64  1  0  0  0  0
 35 68  1  0  0  0  0
 35 76  2  0  0  0  0
 36 39  1  0  0  0  0
 37 46  1  0  0  0  0
 38 63  1  0  0  0  0
 39 41  1  0  0  0  0
 40 42  1  0  0  0  0
 40 43  1  0  0  0  0
 41 45  1  0  0  0  0
 42 47  1  0  0  0  0
 43 64  1  0  0  0  0
 44 47  1  0  0  0  0
 44 64  1  0  0  0  0
 45 69  1  0  0  0  0
 46 63  1  0  0  0  0
 47 62  1  0  0  0  0
 48 57  1  0  0  0  0
 49 59  1  0  0  0  0
 50 59  1  0  0  0  0
 51 59  1  0  0  0  0
 52 71  1  0  0  0  0
 53 55  1  0  0  0  0
 53 58  1  0  0  0  0
 54 58  1  0  0  0  0
 54 67  1  0  0  0  0
 55 79  1  0  0  0  0
 56 59  1  0  0  0  0
 56 70  1  0  0  0  0
 57 71  1  0  0  0  0
 58 77  1  0  0  0  0
 61 62  1  0  0  0  0
M  CHG  1  71   1
M  ISO  4  35 100  55 101  68 100  79 101
M  END
> <Batch ID>
0195

> <Smiles>
CNC(C)C(=O)NC(C(=O)N1Cc2cc([101O:1][101CH2:1]CC(O)CNc3cnc([100NH:0][100C:0](=O)N4CCCC(n5nc(-c6ccc(Oc7ccc(F)cc7F)cc6)c(C(N)=O)c5N)C4)s3)ccc2CC1C(=O)NC1CCCc2ccccc21)C(C)(C)C

> <Shape>
0.231

> <Color>
0.074

> <Negative vol penalty>
0.000

$$$$

  -OEChem-04052305363D

 86 94  0     1  0  0  0  0  0999 V2000
  -23.4652  -30.0456   21.1317 C   0  0  0  0  0  0  0  0  0  0  0  0
  -24.4098  -29.2004   20.5583 C   0  0  0  0  0  0  0  0  0  0  0  0
  -23.2560   -9.6407   20.7256 C   0  0  0  0  0  0  0  0  0  0  0  0
  -23.9021  -10.2818   22.9636 C   0  0  0  0  0  0  0  0  0  0  0  0
  -23.8761  -31.2040   21.7898 C   0  0  0  0  0  0  0  0  0  0  0  0
  -25.7660  -29.5138   20.6417 C   0  0  0  0  0  0  0  0  0  0  0  0
  -28.6113  -25.5135   21.8852 C   0  0  0  0  0  0  0  0  0  0  0  0
  -22.5654   -8.5432   21.2393 C   0  0  0  0  0  0  0  0  0  0  0  0
  -23.2114   -9.1842   23.4774 C   0  0  0  0  0  0  0  0  0  0  0  0
  -28.8932  -24.5941   20.8757 C   0  0  0  0  0  0  0  0  0  0  0  0
  -20.3310   -5.7757   21.9902 C   0  0  0  0  0  0  0  0  0  0  0  0
  -19.0552   -5.5193   21.4881 C   0  0  0  0  0  0  0  0  0  0  0  0
  -31.0723  -25.5880   20.5875 C   0  0  0  0  0  0  0  0  0  0  0  0
  -18.3207   -7.6931   22.2445 C   0  0  0  0  0  0  0  0  0  0  0  0
  -30.2677  -19.6188   21.5577 C   0  0  0  0  0  0  0  0  0  0  0  0
  -23.9244  -10.5100   21.5878 C   0  0  0  0  0  0  0  0  0  0  0  0
  -24.1324  -12.9380   20.8332 C   0  0  0  0  0  0  0  0  0  0  0  0
  -25.2387  -31.5267   21.8898 C   0  0  0  0  0  0  0  0  0  0  0  0
  -29.5552  -26.4855   22.2466 C   0  0  0  0  0  0  0  0  0  0  0  0
  -26.1955  -30.6783   21.3006 C   0  0  0  0  0  0  0  0  0  0  0  0
  -30.8009  -26.5169   21.6036 C   0  0  0  0  0  0  0  0  0  0  0  0
  -22.5430   -8.3149   22.6152 C   0  0  0  0  0  0  0  0  0  0  0  0
  -30.1228  -24.6332   20.2247 C   0  0  0  0  0  0  0  0  0  0  0  0
  -20.6017   -6.9908   22.6196 C   0  0  0  0  0  0  0  0  0  0  0  0
  -18.0500   -6.4780   21.6152 C   0  0  0  0  0  0  0  0  0  0  0  0
  -19.5965   -7.9495   22.7467 C   0  0  0  0  0  0  0  0  0  0  0  0
  -24.6385  -11.6437   21.0576 C   0  0  0  0  0  0  0  0  0  0  0  0
  -31.4773  -19.3063   21.0046 C   0  0  0  0  0  0  0  0  0  0  0  0
  -25.1981  -13.6401   20.3254 C   0  0  0  0  0  0  0  0  0  0  0  0
  -30.2604  -17.4585   21.0746 C   0  0  0  0  0  0  0  0  0  0  0  0
  -22.8166  -13.4591   21.0633 C   0  0  0  0  0  0  0  0  0  0  0  0
  -29.6311  -29.6630   22.2053 C   0  0  0  0  0  0  0  0  0  0  0  0
  -32.4592  -29.2268   23.7331 C   0  0  0  0  0  0  0  0  0  0  0  0
  -35.1158  -27.1859   24.3843 C   0  0  0  0  0  0  0  0  0  0  0  0
  -30.5837  -15.0516   20.4048 C   0  0  0  0  0  0  0  0  0  0  0  0
  -25.6317  -32.8141   22.5700 C   0  0  0  0  0  0  0  0  0  0  0  0
  -29.2460  -27.4531   23.3559 C   0  0  0  0  0  0  0  0  0  0  0  0
  -31.8562  -27.5278   21.9682 C   0  0  0  0  0  0  0  0  0  0  0  0
  -27.1115  -32.8810   22.9389 C   0  0  0  0  0  0  0  0  0  0  0  0
  -29.7198  -12.0465   18.7018 C   0  0  0  0  0  0  0  0  0  0  0  0
  -27.9751  -32.4282   21.7659 C   0  0  0  0  0  0  0  0  0  0  0  0
  -28.2792  -11.7803   19.1444 C   0  0  0  0  0  0  0  0  0  0  0  0
  -30.5615  -12.6333   19.8336 C   0  0  0  0  0  0  0  0  0  0  0  0
  -28.5529  -13.5591   20.9186 C   0  0  0  0  0  0  0  0  0  0  0  0
  -27.6774  -30.9713   21.3916 C   0  0  1  0  0  0  0  0  0  0  0  0
  -30.0839  -28.7262   23.2893 C   0  0  1  0  0  0  0  0  0  0  0  0
  -27.6494  -13.0282   19.7937 C   0  0  2  0  0  0  0  0  0  0  0  0
  -33.4801  -22.7396   23.1128 C   0  0  0  0  0  0  0  0  0  0  0  0
  -37.2887  -27.1203   25.6379 C   0  0  0  0  0  0  0  0  0  0  0  0
  -35.0637  -21.4108   19.7839 C   0  0  0  0  0  0  0  0  0  0  0  0
  -33.7417  -30.9887   21.5975 C   0  0  0  0  0  0  0  0  0  0  0  0
  -35.9758  -30.1242   22.3251 C   0  0  0  0  0  0  0  0  0  0  0  0
  -34.5565  -31.4092   23.9242 C   0  0  0  0  0  0  0  0  0  0  0  0
  -34.2192  -24.9103   26.0507 C   0  0  0  0  0  0  0  0  0  0  0  0
  -34.4106  -22.0170   22.1478 C   0  0  0  0  0  0  0  0  0  0  0  0
  -32.1584  -21.5890   18.8992 C   0  0  0  0  0  0  0  0  0  0  0  0
  -29.7797  -22.4552   19.3331 C   0  0  0  0  0  0  0  0  0  1  0  0
  -33.8938  -29.0513   23.2973 C   0  0  1  0  0  0  0  0  0  0  0  0
  -35.8010  -26.8086   25.6853 C   0  0  2  0  0  0  0  0  0  0  0  0
  -33.9847  -22.0652   20.6634 C   0  0  2  0  0  0  0  0  0  0  0  0
  -32.5851  -21.4516   20.3753 C   0  0  2  0  0  0  0  0  0  0  0  0
  -30.6527  -21.4087   18.6462 C   0  0  1  0  0  0  0  0  0  0  0  0
  -34.5215  -30.3754   22.7776 C   0  0  0  0  0  0  0  0  0  0  0  0
  -25.9256  -11.5276   20.7199 N   0  0  0  0  0  0  0  0  0  0  0  0
  -31.4453  -17.9633   20.7158 N   0  0  0  0  0  0  0  0  0  0  0  0
  -26.2371  -12.7579   20.2780 N   0  0  0  0  0  0  0  0  0  0  0  0
  -29.5348  -18.4569   21.5885 N   0  3  0  0  0  0  0  0  0  0  0  0
  -31.5040  -28.4565   23.0549 N   0  0  0  0  0  0  0  0  0  0  0  0
  -29.9049  -13.8146   20.3974 N   0  0  0  0  0  0  0  0  0  0  0  0
  -25.3383  -14.9198   19.9191 N   0  0  0  0  0  0  0  0  0  0  0  0
  -21.8410  -12.6016   21.5898 N   0  0  0  0  0  0  0  0  0  0  0  0
  -32.6112  -20.0393   20.7166 N   0  0  0  0  0  0  0  0  0  0  0  0
  -29.8476  -16.1101   20.9361 N   0  0  0  0  0  0  0  0  0  0  0  0
  -28.3157  -30.0689   22.3258 N   0  0  0  0  0  0  0  0  0  0  0  0
  -34.5961  -28.4622   24.4323 N   0  0  0  0  0  0  0  0  0  0  0  0
  -30.4303  -21.5276   17.1690 N   0  3  0  0  0  0  0  0  0  0  0  0
  -35.6343  -25.3524   25.9551 N   0  3  0  0  0  0  0  0  0  0  0  0
  -22.5106  -14.6455   20.7942 O   0  0  0  0  0  0  0  0  0  0  0  0
  -30.4174  -29.9943   21.3257 O   0  0  0  0  0  0  0  0  0  0  0  0
  -32.1966  -30.0130   24.6467 O   0  0  0  0  0  0  0  0  0  0  0  0
  -35.0515  -26.4260   23.4205 O   0  0  0  0  0  0  0  0  0  0  0  0
  -31.7232  -15.1692   19.9469 O   0  0  0  0  0  0  0  0  0  0  0  0
  -21.8690   -7.2441   23.1169 O   0  0  0  0  0  0  0  0  0  0  0  0
  -30.4020  -23.7316   19.2321 O   0  0  0  0  0  0  0  0  0  1  0  0
  -16.8253   -6.2323   21.1316 F   0  0  0  0  0  0  0  0  0  0  0  0
  -19.8508   -9.1191   23.3493 F   0  0  0  0  0  0  0  0  0  0  0  0
  1  2  1  0  0  0  0
  1  5  2  0  0  0  0
  2  6  2  0  0  0  0
  3  8  2  0  0  0  0
  3 16  1  0  0  0  0
  4  9  1  0  0  0  0
  4 16  2  0  0  0  0
  5 18  1  0  0  0  0
  6 20  1  0  0  0  0
  7 10  2  0  0  0  0
  7 19  1  0  0  0  0
  8 22  1  0  0  0  0
  9 22  2  0  0  0  0
 10 23  1  0  0  0  0
 11 12  2  0  0  0  0
 11 24  1  0  0  0  0
 12 25  1  0  0  0  0
 13 21  1  0  0  0  0
 13 23  2  0  0  0  0
 14 25  2  0  0  0  0
 14 26  1  0  0  0  0
 15 28  2  0  0  0  0
 15 67  1  0  0  0  0
 16 27  1  0  0  0  0
 17 27  1  0  0  0  0
 17 29  2  0  0  0  0
 17 31  1  0  0  0  0
 18 20  2  0  0  0  0
 18 36  1  0  0  0  0
 19 21  2  0  0  0  0
 19 37  1  0  0  0  0
 20 45  1  0  0  0  0
 21 38  1  0  0  0  0
 22 83  1  0  0  0  0
 23 84  1  0  0  0  0
 24 26  2  0  0  0  0
 24 83  1  0  0  0  0
 25 85  1  0  0  0  0
 26 86  1  0  0  0  0
 27 64  2  0  0  0  0
 28 65  1  0  0  0  0
 28 72  1  0  0  0  0
 29 66  1  0  0  0  0
 29 70  1  0  0  0  0
 30 65  1  0  0  0  0
 30 67  2  0  0  0  0
 30 73  1  0  0  0  0
 31 71  1  0  0  0  0
 31 78  2  0  0  0  0
 32 46  1  0  0  0  0
 32 74  1  0  0  0  0
 32 79  2  0  0  0  0
 33 58  1  0  0  0  0
 33 68  1  0  0  0  0
 33 80  2  0  0  0  0
 34 59  1  0  0  0  0
 34 75  1  0  0  0  0
 34 81  2  0  0  0  0
 35 69  1  0  0  0  0
 35 73  1  0  0  0  0
 35 82  2  0  0  0  0
 36 39  1  0  0  0  0
 37 46  1  0  0  0  0
 38 68  1  0  0  0  0
 39 41  1  0  0  0  0
 40 42  1  0  0  0  0
 40 43  1  0  0  0  0
 41 45  1  0  0  0  0
 42 47  1  0  0  0  0
 43 69  1  0  0  0  0
 44 47  1  0  0  0  0
 44 69  1  0  0  0  0
 45 74  1  0  0  0  0
 46 68  1  0  0  0  0
 47 66  1  0  0  0  0
 48 55  1  0  0  0  0
 49 59  1  0  0  0  0
 50 60  1  0  0  0  0
 51 63  1  0  0  0  0
 52 63  1  0  0  0  0
 53 63  1  0  0  0  0
 54 77  1  0  0  0  0
 55 60  1  0  0  0  0
 56 61  1  0  0  0  0
 56 62  1  0  0  0  0
 57 62  1  0  0  0  0
 57 84  1  0  0  0  0
 58 63  1  0  0  0  0
 58 75  1  0  0  0  0
 59 77  1  0  0  0  0
 60 61  1  0  0  0  0
 61 72  1  0  0  0  0
 62 76  1  0  0  0  0
 64 66  1  0  0  0  0
M  CHG  3  67   1  76   1  77   1
M  ISO  4  35 100  57 101  73 100  84 101
M  END
> <Batch ID>
0195

> <Smiles>
CCC(C)C(CC(N)[101CH2:1][101O:1]c1ccc2c(c1)CN(C(=O)C(NC(=O)C(C)NC)C(C)(C)C)C(C(=O)NC1CCCc3ccccc31)C2)Nc1cnc([100NH:0][100C:0](=O)N2CCCC(n3nc(-c4ccc(Oc5ccc(F)cc5F)cc4)c(C(N)=O)c3N)C2)[nH]1

> <Shape>
0.252

> <Color>
0.156

> <Negative vol penalty>
0.000

$$$$

  -OEChem-04052305363D

 83 91  0     1  0  0  0  0  0999 V2000
  -18.2956  -32.8629   20.8484 C   0  0  0  0  0  0  0  0  0  0  0  0
  -19.6134  -32.7166   20.4274 C   0  0  0  0  0  0  0  0  0  0  0  0
  -22.8098  -12.9272   19.8301 C   0  0  0  0  0  0  0  0  0  0  0  0
  -22.1613  -14.7246   21.3085 C   0  0  0  0  0  0  0  0  0  0  0  0
  -17.8700  -32.2529   22.0277 C   0  0  0  0  0  0  0  0  0  0  0  0
  -20.5068  -31.9611   21.1861 C   0  0  0  0  0  0  0  0  0  0  0  0
  -25.0784  -28.4667   19.0897 C   0  0  0  0  0  0  0  0  0  0  0  0
  -21.7833  -12.1346   20.3434 C   0  0  0  0  0  0  0  0  0  0  0  0
  -21.1347  -13.9320   21.8218 C   0  0  0  0  0  0  0  0  0  0  0  0
  -26.4485  -28.6914   18.9628 C   0  0  0  0  0  0  0  0  0  0  0  0
  -19.5579   -9.5102   21.5199 C   0  0  0  0  0  0  0  0  0  0  0  0
  -19.8558   -8.1845   21.8350 C   0  0  0  0  0  0  0  0  0  0  0  0
  -26.8188  -27.5901   21.0769 C   0  0  0  0  0  0  0  0  0  0  0  0
  -21.5202   -8.9347   23.4175 C   0  0  0  0  0  0  0  0  0  0  0  0
  -28.6505  -21.8671   19.3104 C   0  0  0  0  0  0  0  0  0  0  0  0
  -31.2054  -22.5355   19.7013 C   0  0  0  0  0  0  0  0  0  0  0  0
  -22.9989  -14.2222   20.3127 C   0  0  0  0  0  0  0  0  0  0  0  0
  -23.9882  -15.9192   18.6850 C   0  0  0  0  0  0  0  0  0  0  0  0
  -18.7560  -31.4816   22.7962 C   0  0  0  0  0  0  0  0  0  0  0  0
  -24.5662  -27.8105   20.2182 C   0  0  0  0  0  0  0  0  0  0  0  0
  -20.0930  -31.3414   22.3775 C   0  0  0  0  0  0  0  0  0  0  0  0
  -25.4420  -27.3560   21.2145 C   0  0  0  0  0  0  0  0  0  0  0  0
  -20.9457  -12.6370   21.3392 C   0  0  0  0  0  0  0  0  0  0  0  0
  -27.3186  -28.2556   19.9579 C   0  0  0  0  0  0  0  0  0  0  0  0
  -20.2412  -10.5482   22.1535 C   0  0  0  0  0  0  0  0  0  0  0  0
  -20.8370   -7.8967   22.7838 C   0  0  0  0  0  0  0  0  0  0  0  0
  -21.2223  -10.2604   23.1023 C   0  0  0  0  0  0  0  0  0  0  0  0
  -24.0595  -15.0413   19.7832 C   0  0  0  0  0  0  0  0  0  0  0  0
  -29.5308  -20.9919   19.9074 C   0  0  0  0  0  0  0  0  0  0  0  0
  -30.3253  -23.4105   19.1036 C   0  0  0  0  0  0  0  0  0  0  0  0
  -25.2499  -16.4536   18.5901 C   0  0  0  0  0  0  0  0  0  0  0  0
  -22.8805  -16.2244   17.8274 C   0  0  0  0  0  0  0  0  0  0  0  0
  -22.5670  -28.6030   22.5589 C   0  0  0  0  0  0  0  0  0  0  0  0
  -22.9034  -25.4817   23.3757 C   0  0  0  0  0  0  0  0  0  0  0  0
  -24.7941  -22.6431   23.2557 C   0  0  0  0  0  0  0  0  0  0  0  0
  -29.7760  -18.7016   20.9277 C   0  0  0  0  0  0  0  0  0  0  0  0
  -18.2622  -30.8805   24.0883 C   0  0  0  0  0  0  0  0  0  0  0  0
  -23.0885  -27.5522   20.3274 C   0  0  0  0  0  0  0  0  0  0  0  0
  -24.9447  -26.6286   22.4360 C   0  0  0  0  0  0  0  0  0  0  0  0
  -19.1742  -29.7873   24.6392 C   0  0  0  0  0  0  0  0  0  0  0  0
  -29.5622  -15.1477   20.8968 C   0  0  0  0  0  0  0  0  0  0  0  0
  -20.6312  -30.2373   24.5994 C   0  0  0  0  0  0  0  0  0  0  0  0
  -28.1057  -14.8754   20.5140 C   0  0  0  0  0  0  0  0  0  0  0  0
  -29.6921  -16.3752   21.7969 C   0  0  0  0  0  0  0  0  0  0  0  0
  -27.6048  -17.3231   20.8948 C   0  0  0  0  0  0  0  0  0  0  0  0
  -21.0854  -30.5093   23.1603 C   0  0  1  0  0  0  0  0  0  0  0  0
  -22.6253  -27.3294   21.7638 C   0  0  1  0  0  0  0  0  0  0  0  0
  -27.4302  -16.1343   19.9356 C   0  0  2  0  0  0  0  0  0  0  0  0
  -24.8254  -20.2622   24.0479 C   0  0  0  0  0  0  0  0  0  0  0  0
  -29.7967  -25.2756   16.6013 C   0  0  0  0  0  0  0  0  0  0  0  0
  -23.6632  -26.4259   26.1759 C   0  0  0  0  0  0  0  0  0  0  0  0
  -24.5829  -24.1403   26.6214 C   0  0  0  0  0  0  0  0  0  0  0  0
  -22.1564  -24.4306   26.1207 C   0  0  0  0  0  0  0  0  0  0  0  0
  -24.8233  -21.6002   20.4862 C   0  0  0  0  0  0  0  0  0  0  0  0
  -30.8378  -27.4437   19.6691 C   0  0  0  0  0  0  0  0  0  0  0  0
  -30.6201  -27.0386   18.2045 C   0  0  0  0  0  0  0  0  0  0  0  0
  -29.5277  -27.5217   20.4449 C   0  0  0  0  0  0  0  0  0  1  0  0
  -23.8471  -24.7040   24.2609 C   0  0  1  0  0  0  0  0  0  0  0  0
  -24.4344  -21.2066   22.9219 C   0  0  2  0  0  0  0  0  0  0  0  0
  -29.9728  -25.6534   18.0687 C   0  0  2  0  0  0  0  0  0  0  0  0
  -23.5719  -24.9406   25.7728 C   0  0  0  0  0  0  0  0  0  0  0  0
  -30.8240  -21.3105   20.1139 N   0  0  0  0  0  0  0  0  0  0  0  0
  -29.0320  -23.0921   18.8974 N   0  0  0  0  0  0  0  0  0  0  0  0
  -25.2707  -15.0164   20.3456 N   0  0  0  0  0  0  0  0  0  0  0  0
  -25.9722  -15.8851   19.5978 N   0  0  0  0  0  0  0  0  0  0  0  0
  -23.4908  -26.4057   22.4999 N   0  0  0  0  0  0  0  0  0  0  0  0
  -29.0328  -17.5297   21.1827 N   0  0  0  0  0  0  0  0  0  0  0  0
  -25.8009  -17.3494   17.7438 N   0  0  0  0  0  0  0  0  0  0  0  0
  -21.6557  -15.5859   18.0651 N   0  0  0  0  0  0  0  0  0  0  0  0
  -29.0513  -19.7212   20.3114 N   0  0  0  0  0  0  0  0  0  0  0  0
  -30.7973  -24.6492   18.7080 N   0  0  0  0  0  0  0  0  0  0  0  0
  -21.3574  -29.2653   22.4725 N   0  0  0  0  0  0  0  0  0  0  0  0
  -23.7407  -23.3096   23.8453 N   0  0  0  0  0  0  0  0  0  0  0  0
  -25.1345  -20.7725   21.6799 N   0  3  0  0  0  0  0  0  0  0  0  0
  -22.9785  -17.0268   16.8682 O   0  0  0  0  0  0  0  0  0  0  0  0
  -23.5465  -28.9576   23.2044 O   0  0  0  0  0  0  0  0  0  0  0  0
  -21.6903  -25.2719   23.4532 O   0  0  0  0  0  0  0  0  0  0  0  0
  -25.9002  -23.1247   23.0207 O   0  0  0  0  0  0  0  0  0  0  0  0
  -30.9744  -18.7842   21.2088 O   0  0  0  0  0  0  0  0  0  0  0  0
  -19.9437  -11.8639   21.8402 O   0  0  0  0  0  0  0  0  0  0  0  0
  -28.6563  -28.4742   19.8368 O   0  0  0  0  0  0  0  0  0  1  0  0
  -21.1219   -6.6236   23.0874 F   0  0  0  0  0  0  0  0  0  0  0  0
  -21.8813  -11.2534   23.7152 F   0  0  0  0  0  0  0  0  0  0  0  0
  1  2  1  0  0  0  0
  1  5  2  0  0  0  0
  2  6  2  0  0  0  0
  3  8  2  0  0  0  0
  3 17  1  0  0  0  0
  4  9  1  0  0  0  0
  4 17  2  0  0  0  0
  5 19  1  0  0  0  0
  6 21  1  0  0  0  0
  7 10  2  0  0  0  0
  7 20  1  0  0  0  0
  8 23  1  0  0  0  0
  9 23  2  0  0  0  0
 10 24  1  0  0  0  0
 11 12  2  0  0  0  0
 11 25  1  0  0  0  0
 12 26  1  0  0  0  0
 13 22  1  0  0  0  0
 13 24  2  0  0  0  0
 14 26  2  0  0  0  0
 14 27  1  0  0  0  0
 15 29  2  0  0  0  0
 15 63  1  0  0  0  0
 16 30  1  0  0  0  0
 16 62  2  0  0  0  0
 17 28  1  0  0  0  0
 18 28  1  0  0  0  0
 18 31  2  0  0  0  0
 18 32  1  0  0  0  0
 19 21  2  0  0  0  0
 19 37  1  0  0  0  0
 20 22  2  0  0  0  0
 20 38  1  0  0  0  0
 21 46  1  0  0  0  0
 22 39  1  0  0  0  0
 23 80  1  0  0  0  0
 24 81  1  0  0  0  0
 25 27  2  0  0  0  0
 25 80  1  0  0  0  0
 26 82  1  0  0  0  0
 27 83  1  0  0  0  0
 28 64  2  0  0  0  0
 29 62  1  0  0  0  0
 29 70  1  0  0  0  0
 30 63  2  0  0  0  0
 30 71  1  0  0  0  0
 31 65  1  0  0  0  0
 31 68  1  0  0  0  0
 32 69  1  0  0  0  0
 32 75  2  0  0  0  0
 33 47  1  0  0  0  0
 33 72  1  0  0  0  0
 33 76  2  0  0  0  0
 34 58  1  0  0  0  0
 34 66  1  0  0  0  0
 34 77  2  0  0  0  0
 35 59  1  0  0  0  0
 35 73  1  0  0  0  0
 35 78  2  0  0  0  0
 36 67  1  0  0  0  0
 36 70  1  0  0  0  0
 36 79  2  0  0  0  0
 37 40  1  0  0  0  0
 38 47  1  0  0  0  0
 39 66  1  0  0  0  0
 40 42  1  0  0  0  0
 41 43  1  0  0  0  0
 41 44  1  0  0  0  0
 42 46  1  0  0  0  0
 43 48  1  0  0  0  0
 44 67  1  0  0  0  0
 45 48  1  0  0  0  0
 45 67  1  0  0  0  0
 46 72  1  0  0  0  0
 47 66  1  0  0  0  0
 48 65  1  0  0  0  0
 49 59  1  0  0  0  0
 50 60  1  0  0  0  0
 51 61  1  0  0  0  0
 52 61  1  0  0  0  0
 53 61  1  0  0  0  0
 54 74  1  0  0  0  0
 55 56  1  0  0  0  0
 55 57  1  0  0  0  0
 56 60  1  0  0  0  0
 57 81  1  0  0  0  0
 58 61  1  0  0  0  0
 58 73  1  0  0  0  0
 59 74  1  0  0  0  0
 60 71  1  0  0  0  0
 64 65  1  0  0  0  0
M  CHG  1  74   1
M  ISO  4  36 100  57 101  70 100  81 101
M  END
> <Batch ID>
0195

> <Smiles>
CNC(C)C(=O)NC(C(=O)N1Cc2cc([101O:1][101CH2:1]CCC(C)Nc3cnc([100NH:0][100C:0](=O)N4CCCC(n5nc(-c6ccc(Oc7ccc(F)cc7F)cc6)c(C(N)=O)c5N)C4)cn3)ccc2CC1C(=O)NC1CCCc2ccccc21)C(C)(C)C

> <Shape>
0.214

> <Color>
0.095

> <Negative vol penalty>
0.000

$$$$
