
  -OEChem-04052305393D

 87 95  0     1  0  0  0  0  0999 V2000
  -20.2997  -17.9642   20.1509 C   0  0  0  0  0  0  0  0  0  0  0  0
  -21.2949  -17.1337   20.6560 C   0  0  0  0  0  0  0  0  0  0  0  0
  -23.0751   -9.8685   19.9403 C   0  0  0  0  0  0  0  0  0  0  0  0
  -23.8346   -9.8744   22.2338 C   0  0  0  0  0  0  0  0  0  0  0  0
  -20.0471  -19.1950   20.7554 C   0  0  0  0  0  0  0  0  0  0  0  0
  -22.0390  -17.5339   21.7653 C   0  0  0  0  0  0  0  0  0  0  0  0
  -24.2403  -13.9439   26.2118 C   0  0  0  0  0  0  0  0  0  0  0  0
  -22.3307   -8.7156   20.1898 C   0  0  0  0  0  0  0  0  0  0  0  0
  -23.0902   -8.7215   22.4833 C   0  0  0  0  0  0  0  0  0  0  0  0
  -25.4999  -13.3879   26.4312 C   0  0  0  0  0  0  0  0  0  0  0  0
  -19.8617   -7.9247   23.0851 C   0  0  0  0  0  0  0  0  0  0  0  0
  -19.1045   -7.8847   24.2558 C   0  0  0  0  0  0  0  0  0  0  0  0
  -26.0503  -15.2264   27.8926 C   0  0  0  0  0  0  0  0  0  0  0  0
  -20.3451   -5.9465   24.9918 C   0  0  0  0  0  0  0  0  0  0  0  0
  -31.7933  -17.5563   21.7172 C   0  0  0  0  0  0  0  0  0  0  0  0
  -30.6866  -18.8751   22.9687 C   0  0  0  0  0  0  0  0  0  0  0  0
  -23.8271  -10.4479   20.9623 C   0  0  0  0  0  0  0  0  0  0  0  0
  -24.1699  -12.9730   20.8432 C   0  0  0  0  0  0  0  0  0  0  0  0
  -20.7819  -19.6063   21.8786 C   0  0  0  0  0  0  0  0  0  0  0  0
  -23.8797  -15.1530   26.8236 C   0  0  0  0  0  0  0  0  0  0  0  0
  -21.7969  -18.7719   22.3846 C   0  0  0  0  0  0  0  0  0  0  0  0
  -24.7847  -15.7944   27.6814 C   0  0  0  0  0  0  0  0  0  0  0  0
  -22.3383   -8.1421   21.4613 C   0  0  0  0  0  0  0  0  0  0  0  0
  -26.4062  -14.0306   27.2694 C   0  0  0  0  0  0  0  0  0  0  0  0
  -20.8605   -6.9756   22.8676 C   0  0  0  0  0  0  0  0  0  0  0  0
  -19.3462   -6.8956   25.2092 C   0  0  0  0  0  0  0  0  0  0  0  0
  -21.1022   -5.9866   23.8210 C   0  0  0  0  0  0  0  0  0  0  0  0
  -24.5967  -11.6386   20.7051 C   0  0  0  0  0  0  0  0  0  0  0  0
  -30.5870  -16.9327   21.9326 C   0  0  0  0  0  0  0  0  0  0  0  0
  -25.2624  -13.7222   20.4803 C   0  0  0  0  0  0  0  0  0  0  0  0
  -22.8996  -13.4892   21.2621 C   0  0  0  0  0  0  0  0  0  0  0  0
  -23.0685  -18.0425   25.7763 C   0  0  0  0  0  0  0  0  0  0  0  0
  -30.9559  -16.3184   26.5850 C   0  0  0  0  0  0  0  0  0  0  0  0
  -22.4907  -18.5928   28.9204 C   0  0  0  0  0  0  0  0  0  0  0  0
  -23.1210  -17.7639   32.1704 C   0  0  0  0  0  0  0  0  0  0  0  0
  -30.7290  -14.7655   20.6562 C   0  0  0  0  0  0  0  0  0  0  0  0
  -20.5048  -20.9661   22.4692 C   0  0  0  0  0  0  0  0  0  0  0  0
  -22.5074  -15.7260   26.5978 C   0  0  0  0  0  0  0  0  0  0  0  0
  -24.4388  -17.0841   28.3783 C   0  0  0  0  0  0  0  0  0  0  0  0
  -21.0844  -21.1517   23.8691 C   0  0  0  0  0  0  0  0  0  0  0  0
  -29.6139  -12.3530   18.2868 C   0  0  0  0  0  0  0  0  0  0  0  0
  -22.5268  -20.6580   23.9195 C   0  0  0  0  0  0  0  0  0  0  0  0
  -28.1741  -12.0619   18.7161 C   0  0  0  0  0  0  0  0  0  0  0  0
  -30.5290  -12.5810   19.4887 C   0  0  0  0  0  0  0  0  0  0  0  0
  -28.6222  -13.3057   20.8700 C   0  0  0  0  0  0  0  0  0  0  0  0
  -22.6086  -19.1601   23.6014 C   0  0  1  0  0  0  0  0  0  0  0  0
  -22.4345  -17.2259   26.8667 C   0  0  1  0  0  0  0  0  0  0  0  0
  -27.6494  -13.1333   19.6920 C   0  0  2  0  0  0  0  0  0  0  0  0
  -31.4866  -16.2402   27.9940 C   0  0  0  0  0  0  0  0  0  0  0  0
  -22.5294  -18.4166   34.5202 C   0  0  0  0  0  0  0  0  0  0  0  0
  -27.0783  -17.0239   25.2383 C   0  0  0  0  0  0  0  0  0  0  0  0
  -28.7481  -11.8201   26.1710 C   0  0  0  0  0  0  0  0  0  0  0  0
  -24.3165  -21.0276   28.7013 C   0  0  0  0  0  0  0  0  0  0  0  0
  -24.4467  -21.0679   31.2012 C   0  0  0  0  0  0  0  0  0  0  0  0
  -22.2507  -21.3919   30.0631 C   0  0  0  0  0  0  0  0  0  0  0  0
  -21.9692  -15.0987   32.7442 C   0  0  0  0  0  0  0  0  0  0  0  0
  -29.7783  -14.1006   26.5155 C   0  0  0  0  0  0  0  0  0  0  0  0
  -28.5393  -17.6003   23.2614 C   0  0  0  0  0  0  0  0  0  0  0  0
  -29.6372  -15.6130   26.3075 C   0  0  2  0  0  0  0  0  0  0  0  0
  -23.3082  -19.0955   30.0857 C   0  0  1  0  0  0  0  0  0  0  0  0
  -22.1919  -17.5130   33.3444 C   0  0  2  0  0  0  0  0  0  0  0  0
  -28.5062  -17.1922   24.7373 C   0  0  2  0  0  0  0  0  0  0  0  0
  -28.4748  -13.3089   26.3443 C   0  0  2  0  0  0  0  0  0  1  0  0
  -23.5881  -20.6224   29.9983 C   0  0  0  0  0  0  0  0  0  0  0  0
  -31.8491  -18.7649   22.3652 N   0  0  0  0  0  0  0  0  0  0  0  0
  -25.8616  -11.5424   20.2869 N   0  0  0  0  0  0  0  0  0  0  0  0
  -29.8888  -17.7894   22.7363 N   0  0  0  0  0  0  0  0  0  0  0  0
  -26.2390  -12.8259   20.1591 N   0  0  0  0  0  0  0  0  0  0  0  0
  -23.0872  -17.6078   28.1206 N   0  0  0  0  0  0  0  0  0  0  0  0
  -29.9703  -13.6117   20.3664 N   0  0  0  0  0  0  0  0  0  0  0  0
  -25.4733  -15.0536   20.4078 N   0  0  0  0  0  0  0  0  0  0  0  0
  -21.8873  -12.5803   21.5989 N   0  0  0  0  0  0  0  0  0  0  0  0
  -30.0819  -15.6904   21.4749 N   0  0  0  0  0  0  0  0  0  0  0  0
  -22.2060  -18.3768   24.7498 N   0  0  0  0  0  0  0  0  0  0  0  0
  -22.5953  -18.6867   31.2911 N   0  0  0  0  0  0  0  0  0  0  0  0
  -22.2973  -16.0964   33.7949 N   0  3  0  0  0  0  0  0  0  0  0  0
  -29.2055  -15.8931   24.9079 N   0  3  0  0  0  0  0  0  0  0  0  0
  -22.6638  -14.7198   21.3198 O   0  0  0  0  0  0  0  0  0  0  0  0
  -24.2523  -18.3479   25.8608 O   0  0  0  0  0  0  0  0  0  0  0  0
  -31.5837  -16.9102   25.7067 O   0  0  0  0  0  0  0  0  0  0  0  0
  -21.3614  -19.0518   28.7312 O   0  0  0  0  0  0  0  0  0  0  0  0
  -24.2064  -17.2005   32.0478 O   0  0  0  0  0  0  0  0  0  0  0  0
  -31.8583  -14.9339   20.1888 O   0  0  0  0  0  0  0  0  0  0  0  0
  -21.6118   -7.0172   21.7051 O   0  0  0  0  0  0  0  0  0  0  0  0
  -27.6365  -13.4904   27.4848 O   0  0  0  0  0  0  0  0  0  1  0  0
  -18.6201   -6.8583   26.3342 F   0  0  0  0  0  0  0  0  0  0  0  0
  -22.0612   -5.0728   23.6182 F   0  0  0  0  0  0  0  0  0  0  0  0
  1  2  1  0  0  0  0
  1  5  2  0  0  0  0
  2  6  2  0  0  0  0
  3  8  2  0  0  0  0
  3 17  1  0  0  0  0
  4  9  1  0  0  0  0
  4 17  2  0  0  0  0
  5 19  1  0  0  0  0
  6 21  1  0  0  0  0
  7 10  2  0  0  0  0
  7 20  1  0  0  0  0
  8 23  1  0  0  0  0
  9 23  2  0  0  0  0
 10 24  1  0  0  0  0
 11 12  2  0  0  0  0
 11 25  1  0  0  0  0
 12 26  1  0  0  0  0
 13 22  1  0  0  0  0
 13 24  2  0  0  0  0
 14 26  2  0  0  0  0
 14 27  1  0  0  0  0
 15 29  2  0  0  0  0
 15 65  1  0  0  0  0
 16 65  2  0  0  0  0
 16 67  1  0  0  0  0
 17 28  1  0  0  0  0
 18 28  1  0  0  0  0
 18 30  2  0  0  0  0
 18 31  1  0  0  0  0
 19 21  2  0  0  0  0
 19 37  1  0  0  0  0
 20 22  2  0  0  0  0
 20 38  1  0  0  0  0
 21 46  1  0  0  0  0
 22 39  1  0  0  0  0
 23 84  1  0  0  0  0
 24 85  1  0  0  0  0
 25 27  2  0  0  0  0
 25 84  1  0  0  0  0
 26 86  1  0  0  0  0
 27 87  1  0  0  0  0
 28 66  2  0  0  0  0
 29 67  1  0  0  0  0
 29 73  1  0  0  0  0
 30 68  1  0  0  0  0
 30 71  1  0  0  0  0
 31 72  1  0  0  0  0
 31 78  2  0  0  0  0
 32 47  1  0  0  0  0
 32 74  1  0  0  0  0
 32 79  2  0  0  0  0
 33 49  1  0  0  0  0
 33 59  1  0  0  0  0
 33 80  2  0  0  0  0
 34 60  1  0  0  0  0
 34 69  1  0  0  0  0
 34 81  2  0  0  0  0
 35 61  1  0  0  0  0
 35 75  1  0  0  0  0
 35 82  2  0  0  0  0
 36 70  1  0  0  0  0
 36 73  1  0  0  0  0
 36 83  2  0  0  0  0
 37 40  1  0  0  0  0
 38 47  1  0  0  0  0
 39 69  1  0  0  0  0
 40 42  1  0  0  0  0
 41 43  1  0  0  0  0
 41 44  1  0  0  0  0
 42 46  1  0  0  0  0
 43 48  1  0  0  0  0
 44 70  1  0  0  0  0
 45 48  1  0  0  0  0
 45 70  1  0  0  0  0
 46 74  1  0  0  0  0
 47 69  1  0  0  0  0
 48 68  1  0  0  0  0
 50 61  1  0  0  0  0
 51 62  1  0  0  0  0
 52 63  1  0  0  0  0
 53 64  1  0  0  0  0
 54 64  1  0  0  0  0
 55 64  1  0  0  0  0
 56 76  1  0  0  0  0
 57 59  1  0  0  0  0
 57 63  1  0  0  0  0
 58 62  1  0  0  0  0
 58 67  1  0  0  0  0
 59 77  1  0  0  0  0
 60 64  1  0  0  0  0
 60 75  1  0  0  0  0
 61 76  1  0  0  0  0
 62 77  1  0  0  0  0
 63 85  1  0  0  0  0
 66 68  1  0  0  0  0
M  CHG  2  76   1  77   1
M  ISO  4  36 100  63 101  73 100  85 101
M  END
> <Batch ID>
0196

> <Smiles>
CNC(C)C(=O)NC(C(=O)N1Cc2cc([101O:1][101CH:1](C)CC(NC(C)Cn3cncc3[100NH:0][100C:0](=O)N3CCCC(n4nc(-c5ccc(Oc6ccc(F)cc6F)cc5)c(C(N)=O)c4N)C3)C(C)=O)ccc2CC1C(=O)NC1CCCc2ccccc21)C(C)(C)C

> <Shape>
0.168

> <Color>
0.180

> <Negative vol penalty>
0.000

$$$$

  -OEChem-04052305393D

 84 92  0     1  0  0  0  0  0999 V2000
  -18.9926  -31.8821   19.2746 C   0  0  0  0  0  0  0  0  0  0  0  0
  -20.3813  -31.8002   19.2772 C   0  0  0  0  0  0  0  0  0  0  0  0
  -26.3698  -12.9399   21.5787 C   0  0  0  0  0  0  0  0  0  0  0  0
  -26.1525  -13.6162   19.2695 C   0  0  0  0  0  0  0  0  0  0  0  0
  -18.2663  -31.4219   20.3722 C   0  0  0  0  0  0  0  0  0  0  0  0
  -21.0447  -31.2592   20.3779 C   0  0  0  0  0  0  0  0  0  0  0  0
  -24.7135  -28.0340   19.0425 C   0  0  0  0  0  0  0  0  0  0  0  0
  -25.1194  -12.3249   21.5162 C   0  0  0  0  0  0  0  0  0  0  0  0
  -24.9022  -13.0011   19.2070 C   0  0  0  0  0  0  0  0  0  0  0  0
  -25.9148  -28.5847   18.5983 C   0  0  0  0  0  0  0  0  0  0  0  0
  -23.8194   -9.4398   20.3249 C   0  0  0  0  0  0  0  0  0  0  0  0
  -23.6964   -8.1640   20.8749 C   0  0  0  0  0  0  0  0  0  0  0  0
  -26.8850  -28.2086   20.7746 C   0  0  0  0  0  0  0  0  0  0  0  0
  -22.0204   -8.9866   22.4084 C   0  0  0  0  0  0  0  0  0  0  0  0
  -29.4524  -24.2538   17.9515 C   0  0  0  0  0  0  0  0  0  0  0  0
  -26.8863  -13.5857   20.4553 C   0  0  0  0  0  0  0  0  0  0  0  0
  -29.4269  -13.6402   20.2314 C   0  0  0  0  0  0  0  0  0  0  0  0
  -18.9206  -30.8661   21.4828 C   0  0  0  0  0  0  0  0  0  0  0  0
  -24.5853  -27.5757   20.3615 C   0  0  0  0  0  0  0  0  0  0  0  0
  -20.3266  -30.7924   21.4919 C   0  0  0  0  0  0  0  0  0  0  0  0
  -25.6818  -27.6502   21.2323 C   0  0  0  0  0  0  0  0  0  0  0  0
  -24.3856  -12.3554   20.3304 C   0  0  0  0  0  0  0  0  0  0  0  0
  -26.9999  -28.6747   19.4652 C   0  0  0  0  0  0  0  0  0  0  0  0
  -23.0429  -10.4892   20.8167 C   0  0  0  0  0  0  0  0  0  0  0  0
  -22.7969   -7.9373   21.9167 C   0  0  0  0  0  0  0  0  0  0  0  0
  -22.1434  -10.2625   21.8584 C   0  0  0  0  0  0  0  0  0  0  0  0
  -28.1776  -14.2217   20.5194 C   0  0  0  0  0  0  0  0  0  0  0  0
  -30.0533  -25.3693   18.4918 C   0  0  0  0  0  0  0  0  0  0  0  0
  -30.0409  -23.0417   19.7992 C   0  0  0  0  0  0  0  0  0  0  0  0
  -30.6425  -24.1570   20.3393 C   0  0  0  0  0  0  0  0  0  0  0  0
  -30.3327  -14.6511   20.4413 C   0  0  0  0  0  0  0  0  0  0  0  0
  -29.7405  -12.3057   19.8115 C   0  0  0  0  0  0  0  0  0  0  0  0
  -22.7622  -28.3644   22.8430 C   0  0  0  0  0  0  0  0  0  0  0  0
  -24.1652  -25.7735   24.2000 C   0  0  0  0  0  0  0  0  0  0  0  0
  -26.8188  -23.6294   24.2882 C   0  0  0  0  0  0  0  0  0  0  0  0
  -29.4929  -20.5968   20.1254 C   0  0  0  0  0  0  0  0  0  0  0  0
  -18.0954  -30.4254   22.6659 C   0  0  0  0  0  0  0  0  0  0  0  0
  -23.2910  -26.9597   20.8174 C   0  0  0  0  0  0  0  0  0  0  0  0
  -25.6020  -27.1538   22.6521 C   0  0  0  0  0  0  0  0  0  0  0  0
  -18.8540  -29.5221   23.6350 C   0  0  0  0  0  0  0  0  0  0  0  0
  -30.1704  -18.5514   23.3006 C   0  0  0  0  0  0  0  0  0  0  0  0
  -20.2346  -30.0984   23.9323 C   0  0  0  0  0  0  0  0  0  0  0  0
  -30.5267  -17.2091   22.6662 C   0  0  0  0  0  0  0  0  0  0  0  0
  -30.3881  -19.7178   22.3450 C   0  0  0  0  0  0  0  0  0  0  0  0
  -29.1341  -18.2239   20.7791 C   0  0  0  0  0  0  0  0  0  0  0  0
  -21.0810  -30.1892   22.6568 C   0  0  1  0  0  0  0  0  0  0  0  0
  -23.1130  -26.9956   22.3321 C   0  0  1  0  0  0  0  0  0  0  0  0
  -30.1192  -17.1156   21.1825 C   0  0  2  0  0  0  0  0  0  0  0  0
  -28.1823  -21.6391   24.9790 C   0  0  0  0  0  0  0  0  0  0  0  0
  -32.1315  -27.7015   18.0245 C   0  0  0  0  0  0  0  0  0  0  0  0
  -24.9491  -27.5762   26.5336 C   0  0  0  0  0  0  0  0  0  0  0  0
  -26.5898  -25.8242   27.2452 C   0  0  0  0  0  0  0  0  0  0  0  0
  -24.1514  -25.3003   27.1957 C   0  0  0  0  0  0  0  0  0  0  0  0
  -25.5761  -21.9147   22.2207 C   0  0  0  0  0  0  0  0  0  0  0  0
  -28.4870  -29.0629   17.6503 C   0  0  0  0  0  0  0  0  0  1  0  0
  -25.4125  -25.5385   25.0173 C   0  0  1  0  0  0  0  0  0  0  0  0
  -26.8880  -22.1137   24.3369 C   0  0  2  0  0  0  0  0  0  0  0  0
  -30.6205  -27.7847   18.2270 C   0  0  1  0  0  0  0  0  0  0  0  0
  -30.0051  -28.9888   17.4954 C   0  0  1  0  0  0  0  0  0  0  0  0
  -25.2769  -26.0710   26.4718 C   0  0  0  0  0  0  0  0  0  0  0  0
  -29.4353  -23.0700   18.5955 N   0  0  0  0  0  0  0  0  0  0  0  0
  -28.2770  -15.5026   20.8846 N   0  0  0  0  0  0  0  0  0  0  0  0
  -30.6592  -25.3410   19.6954 N   0  0  0  0  0  0  0  0  0  0  0  0
  -29.5996  -15.7343   20.8276 N   0  0  0  0  0  0  0  0  0  0  0  0
  -24.3131  -26.5656   23.0525 N   0  0  0  0  0  0  0  0  0  0  0  0
  -29.6854  -19.5537   21.0641 N   0  0  0  0  0  0  0  0  0  0  0  0
  -31.2643  -24.0720   21.6060 N   0  0  0  0  0  0  0  0  0  0  0  0
  -31.6769  -14.7101   20.3314 N   0  0  0  0  0  0  0  0  0  0  0  0
  -28.6896  -11.3936   19.6440 N   0  0  0  0  0  0  0  0  0  0  0  0
  -30.0487  -21.8183   20.5148 N   0  0  0  0  0  0  0  0  0  0  0  0
  -30.0260  -26.5457   17.7659 N   0  0  0  0  0  0  0  0  0  0  0  0
  -21.6025  -28.8865   22.3026 N   0  0  0  0  0  0  0  0  0  0  0  0
  -25.6960  -24.1102   24.9279 N   0  0  0  0  0  0  0  0  0  0  0  0
  -26.8108  -21.5471   22.9606 N   0  3  0  0  0  0  0  0  0  0  0  0
  -30.9192  -11.9284   19.6072 O   0  0  0  0  0  0  0  0  0  0  0  0
  -23.4890  -28.9061   23.6677 O   0  0  0  0  0  0  0  0  0  0  0  0
  -23.1004  -25.2669   24.5622 O   0  0  0  0  0  0  0  0  0  0  0  0
  -27.6771  -24.3181   23.7408 O   0  0  0  0  0  0  0  0  0  0  0  0
  -28.8960  -20.4102   19.0630 O   0  0  0  0  0  0  0  0  0  0  0  0
  -30.3295  -28.9247   16.1055 O   0  0  0  0  0  0  0  0  0  0  0  0
  -23.1656  -11.7551   20.2690 O   0  0  0  0  0  0  0  0  0  0  0  0
  -28.1734  -29.2124   19.0344 O   0  0  0  0  0  0  0  0  0  1  0  0
  -22.6778   -6.7117   22.4437 F   0  0  0  0  0  0  0  0  0  0  0  0
  -21.3940  -11.2664   22.3342 F   0  0  0  0  0  0  0  0  0  0  0  0
  1  2  1  0  0  0  0
  1  5  2  0  0  0  0
  2  6  2  0  0  0  0
  3  8  2  0  0  0  0
  3 16  1  0  0  0  0
  4  9  1  0  0  0  0
  4 16  2  0  0  0  0
  5 18  1  0  0  0  0
  6 20  1  0  0  0  0
  7 10  2  0  0  0  0
  7 19  1  0  0  0  0
  8 22  1  0  0  0  0
  9 22  2  0  0  0  0
 10 23  1  0  0  0  0
 11 12  2  0  0  0  0
 11 24  1  0  0  0  0
 12 25  1  0  0  0  0
 13 21  1  0  0  0  0
 13 23  2  0  0  0  0
 14 25  2  0  0  0  0
 14 26  1  0  0  0  0
 15 28  1  0  0  0  0
 15 61  2  0  0  0  0
 16 27  1  0  0  0  0
 17 27  1  0  0  0  0
 17 31  2  0  0  0  0
 17 32  1  0  0  0  0
 18 20  2  0  0  0  0
 18 37  1  0  0  0  0
 19 21  2  0  0  0  0
 19 38  1  0  0  0  0
 20 46  1  0  0  0  0
 21 39  1  0  0  0  0
 22 81  1  0  0  0  0
 23 82  1  0  0  0  0
 24 26  2  0  0  0  0
 24 81  1  0  0  0  0
 25 83  1  0  0  0  0
 26 84  1  0  0  0  0
 27 62  2  0  0  0  0
 28 63  2  0  0  0  0
 28 71  1  0  0  0  0
 29 30  2  0  0  0  0
 29 61  1  0  0  0  0
 29 70  1  0  0  0  0
 30 63  1  0  0  0  0
 30 67  1  0  0  0  0
 31 64  1  0  0  0  0
 31 68  1  0  0  0  0
 32 69  1  0  0  0  0
 32 75  2  0  0  0  0
 33 47  1  0  0  0  0
 33 72  1  0  0  0  0
 33 76  2  0  0  0  0
 34 56  1  0  0  0  0
 34 65  1  0  0  0  0
 34 77  2  0  0  0  0
 35 57  1  0  0  0  0
 35 73  1  0  0  0  0
 35 78  2  0  0  0  0
 36 66  1  0  0  0  0
 36 70  1  0  0  0  0
 36 79  2  0  0  0  0
 37 40  1  0  0  0  0
 38 47  1  0  0  0  0
 39 65  1  0  0  0  0
 40 42  1  0  0  0  0
 41 43  1  0  0  0  0
 41 44  1  0  0  0  0
 42 46  1  0  0  0  0
 43 48  1  0  0  0  0
 44 66  1  0  0  0  0
 45 48  1  0  0  0  0
 45 66  1  0  0  0  0
 46 72  1  0  0  0  0
 47 65  1  0  0  0  0
 48 64  1  0  0  0  0
 49 57  1  0  0  0  0
 50 58  1  0  0  0  0
 51 60  1  0  0  0  0
 52 60  1  0  0  0  0
 53 60  1  0  0  0  0
 54 74  1  0  0  0  0
 55 59  1  0  0  0  0
 55 82  1  0  0  0  0
 56 60  1  0  0  0  0
 56 73  1  0  0  0  0
 57 74  1  0  0  0  0
 58 59  1  0  0  0  0
 58 71  1  0  0  0  0
 59 80  1  0  0  0  0
 62 64  1  0  0  0  0
M  CHG  1  74   1
M  ISO  4  36 100  55 101  70 100  82 101
M  END
> <Batch ID>
0196

> <Smiles>
CNC(C)C(=O)NC(C(=O)N1Cc2cc([101O:1][101CH2:1]C(O)C(C)Nc3cnc([100NH:0][100C:0](=O)N4CCCC(n5nc(-c6ccc(Oc7ccc(F)cc7F)cc6)c(C(N)=O)c5N)C4)c(N)n3)ccc2CC1C(=O)NC1CCCc2ccccc21)C(C)(C)C

> <Shape>
0.265

> <Color>
0.133

> <Negative vol penalty>
0.000

$$$$

  -OEChem-04052305393D

 83 91  0     1  0  0  0  0  0999 V2000
  -21.9580  -11.2466   20.8681 C   0  0  0  0  0  0  0  0  0  0  0  0
  -21.6142  -12.5817   21.0545 C   0  0  0  0  0  0  0  0  0  0  0  0
  -29.9112  -27.7015   21.0265 C   0  0  0  0  0  0  0  0  0  0  0  0
  -28.4083  -25.8098   21.0224 C   0  0  0  0  0  0  0  0  0  0  0  0
  -23.3005  -10.8768   20.7984 C   0  0  0  0  0  0  0  0  0  0  0  0
  -22.6129  -13.5477   21.1723 C   0  0  0  0  0  0  0  0  0  0  0  0
  -21.6408  -17.6917   18.4287 C   0  0  0  0  0  0  0  0  0  0  0  0
  -30.9104  -26.9064   21.5878 C   0  0  0  0  0  0  0  0  0  0  0  0
  -29.4075  -25.0147   21.5836 C   0  0  0  0  0  0  0  0  0  0  0  0
  -20.7149  -18.5959   18.9473 C   0  0  0  0  0  0  0  0  0  0  0  0
  -33.1247  -24.5773   20.5368 C   0  0  0  0  0  0  0  0  0  0  0  0
  -34.4079  -24.6725   19.9982 C   0  0  0  0  0  0  0  0  0  0  0  0
  -22.5226  -19.9885   19.7301 C   0  0  0  0  0  0  0  0  0  0  0  0
  -35.2574  -25.3782   22.1470 C   0  0  0  0  0  0  0  0  0  0  0  0
  -20.2918  -26.8176   22.1586 C   0  0  0  0  0  0  0  0  0  0  0  0
  -28.6601  -27.1532   20.7438 C   0  0  0  0  0  0  0  0  0  0  0  0
  -27.3725  -28.1794   18.7954 C   0  0  0  0  0  0  0  0  0  0  0  0
  -24.3160  -11.8401   20.9058 C   0  0  0  0  0  0  0  0  0  0  0  0
  -23.0168  -17.9240   18.5667 C   0  0  0  0  0  0  0  0  0  0  0  0
  -23.9703  -13.1903   21.1053 C   0  0  0  0  0  0  0  0  0  0  0  0
  -23.4638  -19.0869   19.2101 C   0  0  0  0  0  0  0  0  0  0  0  0
  -30.6586  -25.5631   21.8663 C   0  0  0  0  0  0  0  0  0  0  0  0
  -21.1558  -19.7431   19.6007 C   0  0  0  0  0  0  0  0  0  0  0  0
  -32.9079  -24.8826   21.8804 C   0  0  0  0  0  0  0  0  0  0  0  0
  -35.4742  -25.0729   20.8033 C   0  0  0  0  0  0  0  0  0  0  0  0
  -33.9742  -25.2831   22.6856 C   0  0  0  0  0  0  0  0  0  0  0  0
  -27.6273  -27.9741   20.1646 C   0  0  0  0  0  0  0  0  0  0  0  0
  -20.3469  -28.1578   22.4829 C   0  0  0  0  0  0  0  0  0  0  0  0
  -19.0531  -26.2230   22.2863 C   0  0  0  0  0  0  0  0  0  0  0  0
  -26.2967  -29.0330   18.7706 C   0  0  0  0  0  0  0  0  0  0  0  0
  -18.1298  -28.1794   22.9840 C   0  0  0  0  0  0  0  0  0  0  0  0
  -28.0476  -27.6460   17.6485 C   0  0  0  0  0  0  0  0  0  0  0  0
  -25.4166  -16.4030   19.9919 C   0  0  0  0  0  0  0  0  0  0  0  0
  -27.2090  -18.6871   18.5455 C   0  0  0  0  0  0  0  0  0  0  0  0
  -27.3700  -21.8110   17.1807 C   0  0  0  0  0  0  0  0  0  0  0  0
  -21.8815  -30.1496   22.6388 C   0  0  0  0  0  0  0  0  0  0  0  0
  -25.7538  -11.3860   20.8716 C   0  0  0  0  0  0  0  0  0  0  0  0
  -24.0026  -16.9522   17.9782 C   0  0  0  0  0  0  0  0  0  0  0  0
  -24.9302  -19.3928   19.3667 C   0  0  0  0  0  0  0  0  0  0  0  0
  -26.7455  -12.5212   20.6305 C   0  0  0  0  0  0  0  0  0  0  0  0
  -24.2098  -32.5028   21.3279 C   0  0  0  0  0  0  0  0  0  0  0  0
  -26.4191  -13.7139   21.5236 C   0  0  0  0  0  0  0  0  0  0  0  0
  -25.3243  -31.6270   20.7508 C   0  0  0  0  0  0  0  0  0  0  0  0
  -23.6327  -31.9124   22.6133 C   0  0  0  0  0  0  0  0  0  0  0  0
  -24.3020  -29.6411   21.9331 C   0  0  0  0  0  0  0  0  0  0  0  0
  -25.0245  -14.2707   21.2127 C   0  0  1  0  0  0  0  0  0  0  0  0
  -25.3806  -17.0319   18.6278 C   0  0  1  0  0  0  0  0  0  0  0  0
  -24.8701  -30.1617   20.6027 C   0  0  2  0  0  0  0  0  0  0  0  0
  -28.3577  -23.7756   15.9715 C   0  0  0  0  0  0  0  0  0  0  0  0
  -28.3912  -19.3182   21.2867 C   0  0  0  0  0  0  0  0  0  0  0  0
  -29.2330  -21.4814   20.3484 C   0  0  0  0  0  0  0  0  0  0  0  0
  -30.0464  -19.3171   19.4120 C   0  0  0  0  0  0  0  0  0  0  0  0
  -26.5154  -20.7670   14.5466 C   0  0  0  0  0  0  0  0  0  0  0  0
  -20.0735  -24.0775   21.5239 C   0  0  0  0  0  0  0  0  0  0  0  0
  -20.7757  -21.7814   20.7655 C   0  0  0  0  0  0  0  0  0  1  0  0
  -27.6836  -20.0704   18.9204 C   0  0  1  0  0  0  0  0  0  0  0  0
  -27.9617  -22.3104   15.8750 C   0  0  2  0  0  0  0  0  0  0  0  0
  -19.6146  -22.6486   21.2396 C   0  0  1  0  0  0  0  0  0  0  0  0
  -28.8108  -20.0403   19.9908 C   0  0  0  0  0  0  0  0  0  0  0  0
  -26.7817  -28.6436   20.9525 N   0  0  0  0  0  0  0  0  0  0  0  0
  -19.2814  -28.8724   22.9006 N   0  0  0  0  0  0  0  0  0  0  0  0
  -17.9467  -26.8763   22.6980 N   0  0  0  0  0  0  0  0  0  0  0  0
  -25.9850  -29.2779   20.0756 N   0  0  0  0  0  0  0  0  0  0  0  0
  -25.8550  -18.4089   18.7799 N   0  0  0  0  0  0  0  0  0  0  0  0
  -23.2200  -30.5241   22.3961 N   0  0  0  0  0  0  0  0  0  0  0  0
  -25.5966  -29.5906   17.7600 N   0  0  0  0  0  0  0  0  0  0  0  0
  -16.9935  -28.8962   23.4179 N   0  0  0  0  0  0  0  0  0  0  0  0
  -29.1335  -26.7839   17.8534 N   0  0  0  0  0  0  0  0  0  0  0  0
  -21.5986  -28.8116   22.3662 N   0  0  0  0  0  0  0  0  0  0  0  0
  -18.9562  -24.8779   21.9724 N   0  0  0  0  0  0  0  0  0  0  0  0
  -25.0565  -15.0690   20.0060 N   0  0  0  0  0  0  0  0  0  0  0  0
  -28.0619  -20.7243   17.6723 N   0  0  0  0  0  0  0  0  0  0  0  0
  -26.9742  -22.1624   14.7687 N   0  3  0  0  0  0  0  0  0  0  0  0
  -27.7087  -27.9387   16.4767 O   0  0  0  0  0  0  0  0  0  0  0  0
  -25.7480  -17.0776   20.9597 O   0  0  0  0  0  0  0  0  0  0  0  0
  -28.0086  -17.8855   18.0560 O   0  0  0  0  0  0  0  0  0  0  0  0
  -26.3941  -22.3349   17.7133 O   0  0  0  0  0  0  0  0  0  0  0  0
  -21.0411  -30.9629   23.0318 O   0  0  0  0  0  0  0  0  0  0  0  0
  -19.1055  -22.0729   22.4444 O   0  0  0  0  0  0  0  0  0  0  0  0
  -31.6335  -24.7869   22.4138 O   0  0  0  0  0  0  0  0  0  0  0  0
  -20.2542  -20.6270   20.1084 O   0  0  0  0  0  0  0  0  0  1  0  0
  -36.7066  -25.1628   20.2864 F   0  0  0  0  0  0  0  0  0  0  0  0
  -33.7722  -25.5766   23.9774 F   0  0  0  0  0  0  0  0  0  0  0  0
  1  2  1  0  0  0  0
  1  5  2  0  0  0  0
  2  6  2  0  0  0  0
  3  8  2  0  0  0  0
  3 16  1  0  0  0  0
  4  9  1  0  0  0  0
  4 16  2  0  0  0  0
  5 18  1  0  0  0  0
  6 20  1  0  0  0  0
  7 10  2  0  0  0  0
  7 19  1  0  0  0  0
  8 22  1  0  0  0  0
  9 22  2  0  0  0  0
 10 23  1  0  0  0  0
 11 12  2  0  0  0  0
 11 24  1  0  0  0  0
 12 25  1  0  0  0  0
 13 21  1  0  0  0  0
 13 23  2  0  0  0  0
 14 25  2  0  0  0  0
 14 26  1  0  0  0  0
 15 28  2  0  0  0  0
 15 29  1  0  0  0  0
 16 27  1  0  0  0  0
 17 27  1  0  0  0  0
 17 30  2  0  0  0  0
 17 32  1  0  0  0  0
 18 20  2  0  0  0  0
 18 37  1  0  0  0  0
 19 21  2  0  0  0  0
 19 38  1  0  0  0  0
 20 46  1  0  0  0  0
 21 39  1  0  0  0  0
 22 80  1  0  0  0  0
 23 81  1  0  0  0  0
 24 26  2  0  0  0  0
 24 80  1  0  0  0  0
 25 82  1  0  0  0  0
 26 83  1  0  0  0  0
 27 60  2  0  0  0  0
 28 61  1  0  0  0  0
 28 69  1  0  0  0  0
 29 62  2  0  0  0  0
 29 70  1  0  0  0  0
 30 63  1  0  0  0  0
 30 66  1  0  0  0  0
 31 61  2  0  0  0  0
 31 62  1  0  0  0  0
 31 67  1  0  0  0  0
 32 68  1  0  0  0  0
 32 74  2  0  0  0  0
 33 47  1  0  0  0  0
 33 71  1  0  0  0  0
 33 75  2  0  0  0  0
 34 56  1  0  0  0  0
 34 64  1  0  0  0  0
 34 76  2  0  0  0  0
 35 57  1  0  0  0  0
 35 72  1  0  0  0  0
 35 77  2  0  0  0  0
 36 65  1  0  0  0  0
 36 69  1  0  0  0  0
 36 78  2  0  0  0  0
 37 40  1  0  0  0  0
 38 47  1  0  0  0  0
 39 64  1  0  0  0  0
 40 42  1  0  0  0  0
 41 43  1  0  0  0  0
 41 44  1  0  0  0  0
 42 46  1  0  0  0  0
 43 48  1  0  0  0  0
 44 65  1  0  0  0  0
 45 48  1  0  0  0  0
 45 65  1  0  0  0  0
 46 71  1  0  0  0  0
 47 64  1  0  0  0  0
 48 63  1  0  0  0  0
 49 57  1  0  0  0  0
 50 59  1  0  0  0  0
 51 59  1  0  0  0  0
 52 59  1  0  0  0  0
 53 73  1  0  0  0  0
 54 58  1  0  0  0  0
 54 70  1  0  0  0  0
 55 58  1  0  0  0  0
 55 81  1  0  0  0  0
 56 59  1  0  0  0  0
 56 72  1  0  0  0  0
 57 73  1  0  0  0  0
 58 79  1  0  0  0  0
 60 63  1  0  0  0  0
M  CHG  1  73   1
M  ISO  4  36 100  55 101  69 100  81 101
M  END
> <Batch ID>
0196

> <Smiles>
CNC(C)C(=O)NC(C(=O)N1Cc2cc([101O:1][101CH2:1]C(O)CNc3cc([100NH:0][100C:0](=O)N4CCCC(n5nc(-c6ccc(Oc7ccc(F)cc7F)cc6)c(C(N)=O)c5N)C4)nc(N)n3)ccc2CC1C(=O)NC1CCCc2ccccc21)C(C)(C)C

> <Shape>
0.234

> <Color>
0.069

> <Negative vol penalty>
0.000

$$$$

  -OEChem-04052305393D

 87 95  0     1  0  0  0  0  0999 V2000
  -26.6746  -37.5748   21.0014 C   0  0  0  0  0  0  0  0  0  0  0  0
  -27.2744  -36.3642   20.6695 C   0  0  0  0  0  0  0  0  0  0  0  0
  -29.9348  -20.9782   24.5011 C   0  0  0  0  0  0  0  0  0  0  0  0
  -24.3962  -12.4700   20.2187 C   0  0  0  0  0  0  0  0  0  0  0  0
  -25.0413  -13.1925   22.4320 C   0  0  0  0  0  0  0  0  0  0  0  0
  -25.7218  -37.6237   22.0182 C   0  0  0  0  0  0  0  0  0  0  0  0
  -26.9225  -35.2020   21.3549 C   0  0  0  0  0  0  0  0  0  0  0  0
  -26.5817  -29.5345   19.0594 C   0  0  0  0  0  0  0  0  0  0  0  0
  -24.5253  -11.1391   20.6154 C   0  0  0  0  0  0  0  0  0  0  0  0
  -25.1703  -11.8615   22.8289 C   0  0  0  0  0  0  0  0  0  0  0  0
  -27.4666  -28.4574   19.0849 C   0  0  0  0  0  0  0  0  0  0  0  0
  -22.7247   -8.8763   22.3678 C   0  0  0  0  0  0  0  0  0  0  0  0
  -21.7127   -7.9894   22.0006 C   0  0  0  0  0  0  0  0  0  0  0  0
  -29.3249  -20.1556   23.5607 C   0  0  0  0  0  0  0  0  0  0  0  0
  -30.7618  -22.0132   24.0790 C   0  0  0  0  0  0  0  0  0  0  0  0
  -26.3055  -27.5566   20.9979 C   0  0  0  0  0  0  0  0  0  0  0  0
  -23.3203   -6.6597   20.7821 C   0  0  0  0  0  0  0  0  0  0  0  0
  -24.6543  -13.4967   21.1269 C   0  0  0  0  0  0  0  0  0  0  0  0
  -23.3669  -15.6736   20.7925 C   0  0  0  0  0  0  0  0  0  0  0  0
  -25.3510  -36.4598   22.7099 C   0  0  0  0  0  0  0  0  0  0  0  0
  -25.5571  -29.6366   20.0113 C   0  0  0  0  0  0  0  0  0  0  0  0
  -25.9648  -35.2356   22.3827 C   0  0  0  0  0  0  0  0  0  0  0  0
  -25.4074  -28.6347   20.9808 C   0  0  0  0  0  0  0  0  0  0  0  0
  -24.9123  -10.8348   21.9205 C   0  0  0  0  0  0  0  0  0  0  0  0
  -27.3303  -27.4697   20.0561 C   0  0  0  0  0  0  0  0  0  0  0  0
  -24.0345   -8.6550   21.9421 C   0  0  0  0  0  0  0  0  0  0  0  0
  -22.0105   -6.8811   21.2077 C   0  0  0  0  0  0  0  0  0  0  0  0
  -24.3323   -7.5467   21.1493 C   0  0  0  0  0  0  0  0  0  0  0  0
  -24.5217  -14.8718   20.7175 C   0  0  0  0  0  0  0  0  0  0  0  0
  -29.5722  -20.4076   22.2209 C   0  0  0  0  0  0  0  0  0  0  0  0
  -30.9450  -22.1820   22.7160 C   0  0  0  0  0  0  0  0  0  0  0  0
  -23.7582  -16.8876   20.2832 C   0  0  0  0  0  0  0  0  0  0  0  0
  -22.0577  -15.3499   21.2792 C   0  0  0  0  0  0  0  0  0  0  0  0
  -24.8073  -31.7280   22.2845 C   0  0  0  0  0  0  0  0  0  0  0  0
  -22.1582  -29.8779   22.5700 C   0  0  0  0  0  0  0  0  0  0  0  0
  -20.6881  -26.8324   22.1113 C   0  0  0  0  0  0  0  0  0  0  0  0
  -29.0510  -19.6317   19.8815 C   0  0  0  0  0  0  0  0  0  0  0  0
  -24.3509  -36.5706   23.8333 C   0  0  0  0  0  0  0  0  0  0  0  0
  -24.5944  -30.7909   19.9537 C   0  0  0  0  0  0  0  0  0  0  0  0
  -24.3115  -28.6872   22.0127 C   0  0  0  0  0  0  0  0  0  0  0  0
  -23.7603  -35.2284   24.2576 C   0  0  0  0  0  0  0  0  0  0  0  0
  -26.8596  -18.8281   17.1928 C   0  0  0  0  0  0  0  0  0  0  0  0
  -24.8627  -34.1858   24.4148 C   0  0  0  0  0  0  0  0  0  0  0  0
  -25.9025  -17.7999   17.8001 C   0  0  0  0  0  0  0  0  0  0  0  0
  -28.2817  -18.6635   17.7261 C   0  0  0  0  0  0  0  0  0  0  0  0
  -27.4416  -17.6271   19.7972 C   0  0  0  0  0  0  0  0  0  0  0  0
  -25.5915  -33.9490   23.0865 C   0  0  1  0  0  0  0  0  0  0  0  0
  -23.9037  -31.0599   21.2872 C   0  0  1  0  0  0  0  0  0  0  0  0
  -25.9836  -17.7947   19.3393 C   0  0  2  0  0  0  0  0  0  0  0  0
  -18.5248  -25.6141   22.4768 C   0  0  0  0  0  0  0  0  0  0  0  0
  -35.3916  -24.5241   20.2060 C   0  0  0  0  0  0  0  0  0  0  0  0
  -33.9525  -22.5866   19.5473 C   0  0  0  0  0  0  0  0  0  0  0  0
  -22.7975  -29.6400   25.5440 C   0  0  0  0  0  0  0  0  0  0  0  0
  -21.2157  -27.7026   25.6578 C   0  0  0  0  0  0  0  0  0  0  0  0
  -20.3733  -29.9625   25.0206 C   0  0  0  0  0  0  0  0  0  0  0  0
  -20.3443  -26.3355   19.2141 C   0  0  0  0  0  0  0  0  0  0  0  0
  -32.9272  -24.6294   20.6901 C   0  0  0  0  0  0  0  0  0  0  0  0
  -30.4741  -24.9595   21.2031 C   0  0  0  0  0  0  0  0  0  0  0  0
  -27.9942  -25.4422   21.1070 C   0  0  0  0  0  0  0  0  0  1  0  0
  -21.7877  -28.6589   23.3798 C   0  0  1  0  0  0  0  0  0  0  0  0
  -19.3533  -26.4394   21.5045 C   0  0  2  0  0  0  0  0  0  0  0  0
  -34.1547  -23.7002   20.5757 C   0  0  0  0  0  0  0  0  0  0  0  0
  -31.6080  -23.9258   21.0591 C   0  0  2  0  0  0  0  0  0  0  0  0
  -29.0705  -24.3617   21.0236 C   0  0  1  0  0  0  0  0  0  0  0  0
  -21.5655  -28.9907   24.8824 C   0  0  0  0  0  0  0  0  0  0  0  0
  -25.5680  -15.5218   20.2010 N   0  0  0  0  0  0  0  0  0  0  0  0
  -30.3694  -21.4032   21.7727 N   0  0  0  0  0  0  0  0  0  0  0  0
  -25.0722  -16.7447   19.9468 N   0  0  0  0  0  0  0  0  0  0  0  0
  -23.3993  -29.8389   21.9189 N   0  0  0  0  0  0  0  0  0  0  0  0
  -28.2810  -18.6722   19.1906 N   0  0  0  0  0  0  0  0  0  0  0  0
  -23.1029  -18.0528   20.0946 N   0  0  0  0  0  0  0  0  0  0  0  0
  -21.8274  -14.0565   21.7677 N   0  0  0  0  0  0  0  0  0  0  0  0
  -28.9461  -19.5636   21.2704 N   0  0  0  0  0  0  0  0  0  0  0  0
  -31.7701  -23.2155   22.3115 N   0  0  0  0  0  0  0  0  0  0  0  0
  -24.7969  -33.1081   22.2170 N   0  0  0  0  0  0  0  0  0  0  0  0
  -20.6282  -28.0679   22.7206 N   0  0  0  0  0  0  0  0  0  0  0  0
  -19.5633  -25.6363   20.2668 N   0  3  0  0  0  0  0  0  0  0  0  0
  -21.1155  -16.1778   21.2657 O   0  0  0  0  0  0  0  0  0  0  0  0
  -25.4643  -31.0422   23.0590 O   0  0  0  0  0  0  0  0  0  0  0  0
  -21.3721  -30.8268   22.5114 O   0  0  0  0  0  0  0  0  0  0  0  0
  -21.6833  -26.1135   22.0540 O   0  0  0  0  0  0  0  0  0  0  0  0
  -29.7306  -20.4705   19.2845 O   0  0  0  0  0  0  0  0  0  0  0  0
  -28.9786  -23.7215   19.7509 O   0  0  0  0  0  0  0  0  0  0  0  0
  -25.0382   -9.5361   22.3081 O   0  0  0  0  0  0  0  0  0  0  0  0
  -28.1986  -26.4109   20.0838 O   0  0  0  0  0  0  0  0  0  1  0  0
  -21.0389   -6.0286   20.8565 F   0  0  0  0  0  0  0  0  0  0  0  0
  -25.5889   -7.3282   20.7382 F   0  0  0  0  0  0  0  0  0  0  0  0
  1  2  1  0  0  0  0
  1  6  2  0  0  0  0
  2  7  2  0  0  0  0
  3 14  1  0  0  0  0
  3 15  2  0  0  0  0
  4  9  2  0  0  0  0
  4 18  1  0  0  0  0
  5 10  1  0  0  0  0
  5 18  2  0  0  0  0
  6 20  1  0  0  0  0
  7 22  1  0  0  0  0
  8 11  2  0  0  0  0
  8 21  1  0  0  0  0
  9 24  1  0  0  0  0
 10 24  2  0  0  0  0
 11 25  1  0  0  0  0
 12 13  2  0  0  0  0
 12 26  1  0  0  0  0
 13 27  1  0  0  0  0
 14 30  2  0  0  0  0
 15 31  1  0  0  0  0
 16 23  1  0  0  0  0
 16 25  2  0  0  0  0
 17 27  2  0  0  0  0
 17 28  1  0  0  0  0
 18 29  1  0  0  0  0
 19 29  1  0  0  0  0
 19 32  2  0  0  0  0
 19 33  1  0  0  0  0
 20 22  2  0  0  0  0
 20 38  1  0  0  0  0
 21 23  2  0  0  0  0
 21 39  1  0  0  0  0
 22 47  1  0  0  0  0
 23 40  1  0  0  0  0
 24 84  1  0  0  0  0
 25 85  1  0  0  0  0
 26 28  2  0  0  0  0
 26 84  1  0  0  0  0
 27 86  1  0  0  0  0
 28 87  1  0  0  0  0
 29 66  2  0  0  0  0
 30 67  1  0  0  0  0
 30 73  1  0  0  0  0
 31 67  2  0  0  0  0
 31 74  1  0  0  0  0
 32 68  1  0  0  0  0
 32 71  1  0  0  0  0
 33 72  1  0  0  0  0
 33 78  2  0  0  0  0
 34 48  1  0  0  0  0
 34 75  1  0  0  0  0
 34 79  2  0  0  0  0
 35 60  1  0  0  0  0
 35 69  1  0  0  0  0
 35 80  2  0  0  0  0
 36 61  1  0  0  0  0
 36 76  1  0  0  0  0
 36 81  2  0  0  0  0
 37 70  1  0  0  0  0
 37 73  1  0  0  0  0
 37 82  2  0  0  0  0
 38 41  1  0  0  0  0
 39 48  1  0  0  0  0
 40 69  1  0  0  0  0
 41 43  1  0  0  0  0
 42 44  1  0  0  0  0
 42 45  1  0  0  0  0
 43 47  1  0  0  0  0
 44 49  1  0  0  0  0
 45 70  1  0  0  0  0
 46 49  1  0  0  0  0
 46 70  1  0  0  0  0
 47 75  1  0  0  0  0
 48 69  1  0  0  0  0
 49 68  1  0  0  0  0
 50 61  1  0  0  0  0
 51 62  1  0  0  0  0
 52 62  1  0  0  0  0
 53 65  1  0  0  0  0
 54 65  1  0  0  0  0
 55 65  1  0  0  0  0
 56 77  1  0  0  0  0
 57 62  1  0  0  0  0
 57 63  1  0  0  0  0
 58 63  1  0  0  0  0
 58 64  1  0  0  0  0
 59 64  1  0  0  0  0
 59 85  1  0  0  0  0
 60 65  1  0  0  0  0
 60 76  1  0  0  0  0
 61 77  1  0  0  0  0
 63 74  1  0  0  0  0
 64 83  1  0  0  0  0
 66 68  1  0  0  0  0
M  CHG  1  77   1
M  ISO  4  37 100  59 101  73 100  85 101
M  END
> <Batch ID>
0196

> <Smiles>
CNC(C)C(=O)NC(C(=O)N1Cc2cc([101O:1][101CH2:1]C(O)CC(CC(C)C)Nc3cccc([100NH:0][100C:0](=O)N4CCCC(n5nc(-c6ccc(Oc7ccc(F)cc7F)cc6)c(C(N)=O)c5N)C4)n3)ccc2CC1C(=O)NC1CCCc2ccccc21)C(C)(C)C

> <Shape>
0.286

> <Color>
0.090

> <Negative vol penalty>
0.000

$$$$

  -OEChem-04052305393D

 85 93  0     1  0  0  0  0  0999 V2000
  -27.7137  -19.7880   28.6134 C   0  0  0  0  0  0  0  0  0  0  0  0
  -28.2909  -20.5985   27.6411 C   0  0  0  0  0  0  0  0  0  0  0  0
  -27.0210  -12.7208   20.9952 C   0  0  0  0  0  0  0  0  0  0  0  0
  -26.9654  -13.0006   18.5961 C   0  0  0  0  0  0  0  0  0  0  0  0
  -26.3994  -19.3479   28.4621 C   0  0  0  0  0  0  0  0  0  0  0  0
  -27.5544  -20.9685   26.5163 C   0  0  0  0  0  0  0  0  0  0  0  0
  -27.8582  -26.2923   23.5046 C   0  0  0  0  0  0  0  0  0  0  0  0
  -26.3892  -11.4840   20.8656 C   0  0  0  0  0  0  0  0  0  0  0  0
  -26.3337  -11.7637   18.4665 C   0  0  0  0  0  0  0  0  0  0  0  0
  -28.5256  -26.6755   22.3420 C   0  0  0  0  0  0  0  0  0  0  0  0
  -23.2536  -10.3306   20.3540 C   0  0  0  0  0  0  0  0  0  0  0  0
  -22.2012  -10.0468   21.2244 C   0  0  0  0  0  0  0  0  0  0  0  0
  -26.5181  -26.2762   21.0654 C   0  0  0  0  0  0  0  0  0  0  0  0
  -23.4119   -8.1320   22.0640 C   0  0  0  0  0  0  0  0  0  0  0  0
  -31.4514  -21.9129   17.6252 C   0  0  0  0  0  0  0  0  0  0  0  0
  -30.3516  -23.3344   18.8919 C   0  0  0  0  0  0  0  0  0  0  0  0
  -27.3090  -13.4791   19.8604 C   0  0  0  0  0  0  0  0  0  0  0  0
  -29.3460  -15.0092   19.9908 C   0  0  0  0  0  0  0  0  0  0  0  0
  -25.6433  -19.7206   27.3396 C   0  0  0  0  0  0  0  0  0  0  0  0
  -26.5167  -25.8870   23.4546 C   0  0  0  0  0  0  0  0  0  0  0  0
  -26.2292  -20.5318   26.3492 C   0  0  0  0  0  0  0  0  0  0  0  0
  -25.8353  -25.8907   22.2291 C   0  0  0  0  0  0  0  0  0  0  0  0
  -30.2099  -22.1266   18.2536 C   0  0  0  0  0  0  0  0  0  0  0  0
  -26.0456  -11.0054   19.6013 C   0  0  0  0  0  0  0  0  0  0  0  0
  -27.8564  -26.6648   21.1217 C   0  0  0  0  0  0  0  0  0  0  0  0
  -24.3851   -9.5150   20.3386 C   0  0  0  0  0  0  0  0  0  0  0  0
  -22.2803   -8.9476   22.0794 C   0  0  0  0  0  0  0  0  0  0  0  0
  -24.4642   -8.4157   21.1936 C   0  0  0  0  0  0  0  0  0  0  0  0
  -27.9610  -14.7571   19.9937 C   0  0  0  0  0  0  0  0  0  0  0  0
  -29.4476  -16.3701   20.1463 C   0  0  0  0  0  0  0  0  0  0  0  0
  -30.4426  -14.0950   19.8592 C   0  0  0  0  0  0  0  0  0  0  0  0
  -24.9581  -23.2011   24.1329 C   0  0  0  0  0  0  0  0  0  0  0  0
  -22.3443  -25.0250   23.5298 C   0  0  0  0  0  0  0  0  0  0  0  0
  -21.0124  -27.7539   21.9722 C   0  0  0  0  0  0  0  0  0  0  0  0
  -27.8406  -21.5501   18.8864 C   0  0  0  0  0  0  0  0  0  0  0  0
  -24.2420  -19.1814   27.1967 C   0  0  0  0  0  0  0  0  0  0  0  0
  -25.8034  -25.5021   24.7216 C   0  0  0  0  0  0  0  0  0  0  0  0
  -24.3890  -25.4836   22.1247 C   0  0  0  0  0  0  0  0  0  0  0  0
  -23.4059  -19.9257   26.1588 C   0  0  0  0  0  0  0  0  0  0  0  0
  -25.9437  -19.8184   21.3521 C   0  0  0  0  0  0  0  0  0  0  0  0
  -24.2036  -20.1248   24.8739 C   0  0  0  0  0  0  0  0  0  0  0  0
  -26.4133  -18.3680   21.2182 C   0  0  0  0  0  0  0  0  0  0  0  0
  -25.8711  -20.5184   19.9962 C   0  0  0  0  0  0  0  0  0  0  0  0
  -27.5695  -18.9984   19.0612 C   0  0  0  0  0  0  0  0  0  0  0  0
  -25.4544  -20.9749   25.1272 C   0  0  1  0  0  0  0  0  0  0  0  0
  -24.5862  -24.6157   24.4764 C   0  0  1  0  0  0  0  0  0  0  0  0
  -27.7206  -18.2715   20.4075 C   0  0  2  0  0  0  0  0  0  0  0  0
  -18.8403  -28.9644   21.6342 C   0  0  0  0  0  0  0  0  0  0  0  0
  -34.1041  -27.6941   16.6957 C   0  0  0  0  0  0  0  0  0  0  0  0
  -33.8294  -26.0198   14.8665 C   0  0  0  0  0  0  0  0  0  0  0  0
  -34.5500  -25.2815   17.1523 C   0  0  0  0  0  0  0  0  0  0  0  0
  -21.4619  -22.8824   21.5447 C   0  0  0  0  0  0  0  0  0  0  0  0
  -19.8556  -24.5405   20.5757 C   0  0  0  0  0  0  0  0  0  0  0  0
  -19.6208  -23.8216   22.9529 C   0  0  0  0  0  0  0  0  0  0  0  0
  -22.0523  -30.2149   23.2453 C   0  0  0  0  0  0  0  0  0  0  0  0
  -30.3144  -26.5430   18.4828 C   0  0  0  0  0  0  0  0  0  0  0  0
  -32.1529  -26.1210   16.7843 C   0  0  0  0  0  0  0  0  0  0  0  0
  -32.2635  -25.0359   19.0963 C   0  0  0  0  0  0  0  0  0  0  0  0
  -29.9110  -26.7986   19.9316 C   0  0  0  0  0  0  0  0  0  1  0  0
  -21.5272  -25.3497   22.3026 C   0  0  1  0  0  0  0  0  0  0  0  0
  -20.1010  -28.8575   22.4780 C   0  0  2  0  0  0  0  0  0  0  0  0
  -31.8288  -26.2907   18.2964 C   0  0  2  0  0  0  0  0  0  0  0  0
  -33.6495  -26.2546   16.3773 C   0  0  0  0  0  0  0  0  0  0  0  0
  -20.6442  -24.1544   21.8453 C   0  0  0  0  0  0  0  0  0  0  0  0
  -32.3179  -22.9055   17.8444 N   0  0  0  0  0  0  0  0  0  0  0  0
  -27.2349  -15.8686   20.1396 N   0  0  0  0  0  0  0  0  0  0  0  0
  -31.6198  -23.7546   18.6175 N   0  0  0  0  0  0  0  0  0  0  0  0
  -28.1672  -16.8323   20.2300 N   0  0  0  0  0  0  0  0  0  0  0  0
  -23.7369  -25.1096   23.3906 N   0  0  0  0  0  0  0  0  0  0  0  0
  -27.1460  -20.3892   19.2870 N   0  0  0  0  0  0  0  0  0  0  0  0
  -30.5064  -17.2044   20.2184 N   0  0  0  0  0  0  0  0  0  0  0  0
  -30.1605  -12.7306   19.7074 N   0  0  0  0  0  0  0  0  0  0  0  0
  -29.0565  -21.3036   18.2496 N   0  0  0  0  0  0  0  0  0  0  0  0
  -25.1017  -22.3746   25.2310 N   0  0  0  0  0  0  0  0  0  0  0  0
  -20.7768  -26.5598   22.6202 N   0  0  0  0  0  0  0  0  0  0  0  0
  -20.8057  -30.1700   22.4384 N   0  3  0  0  0  0  0  0  0  0  0  0
  -31.6377  -14.4749   19.8923 O   0  0  0  0  0  0  0  0  0  0  0  0
  -25.1026  -22.8825   22.9584 O   0  0  0  0  0  0  0  0  0  0  0  0
  -21.7680  -24.7149   24.5754 O   0  0  0  0  0  0  0  0  0  0  0  0
  -21.8470  -27.9322   21.0878 O   0  0  0  0  0  0  0  0  0  0  0  0
  -27.4031  -22.6803   19.1172 O   0  0  0  0  0  0  0  0  0  0  0  0
  -25.4294   -9.7985   19.4744 O   0  0  0  0  0  0  0  0  0  0  0  0
  -28.5100  -27.0403   19.9776 O   0  0  0  0  0  0  0  0  0  1  0  0
  -21.2703   -8.6761   22.9163 F   0  0  0  0  0  0  0  0  0  0  0  0
  -25.5492   -7.6293   21.1841 F   0  0  0  0  0  0  0  0  0  0  0  0
  1  2  1  0  0  0  0
  1  5  2  0  0  0  0
  2  6  2  0  0  0  0
  3  8  2  0  0  0  0
  3 17  1  0  0  0  0
  4  9  1  0  0  0  0
  4 17  2  0  0  0  0
  5 19  1  0  0  0  0
  6 21  1  0  0  0  0
  7 10  2  0  0  0  0
  7 20  1  0  0  0  0
  8 24  1  0  0  0  0
  9 24  2  0  0  0  0
 10 25  1  0  0  0  0
 11 12  2  0  0  0  0
 11 26  1  0  0  0  0
 12 27  1  0  0  0  0
 13 22  1  0  0  0  0
 13 25  2  0  0  0  0
 14 27  2  0  0  0  0
 14 28  1  0  0  0  0
 15 23  1  0  0  0  0
 15 65  2  0  0  0  0
 16 23  2  0  0  0  0
 16 67  1  0  0  0  0
 17 29  1  0  0  0  0
 18 29  1  0  0  0  0
 18 30  2  0  0  0  0
 18 31  1  0  0  0  0
 19 21  2  0  0  0  0
 19 36  1  0  0  0  0
 20 22  2  0  0  0  0
 20 37  1  0  0  0  0
 21 45  1  0  0  0  0
 22 38  1  0  0  0  0
 23 73  1  0  0  0  0
 24 82  1  0  0  0  0
 25 83  1  0  0  0  0
 26 28  2  0  0  0  0
 26 82  1  0  0  0  0
 27 84  1  0  0  0  0
 28 85  1  0  0  0  0
 29 66  2  0  0  0  0
 30 68  1  0  0  0  0
 30 71  1  0  0  0  0
 31 72  1  0  0  0  0
 31 77  2  0  0  0  0
 32 46  1  0  0  0  0
 32 74  1  0  0  0  0
 32 78  2  0  0  0  0
 33 60  1  0  0  0  0
 33 69  1  0  0  0  0
 33 79  2  0  0  0  0
 34 61  1  0  0  0  0
 34 75  1  0  0  0  0
 34 80  2  0  0  0  0
 35 70  1  0  0  0  0
 35 73  1  0  0  0  0
 35 81  2  0  0  0  0
 36 39  1  0  0  0  0
 37 46  1  0  0  0  0
 38 69  1  0  0  0  0
 39 41  1  0  0  0  0
 40 42  1  0  0  0  0
 40 43  1  0  0  0  0
 41 45  1  0  0  0  0
 42 47  1  0  0  0  0
 43 70  1  0  0  0  0
 44 47  1  0  0  0  0
 44 70  1  0  0  0  0
 45 74  1  0  0  0  0
 46 69  1  0  0  0  0
 47 68  1  0  0  0  0
 48 61  1  0  0  0  0
 49 63  1  0  0  0  0
 50 63  1  0  0  0  0
 51 63  1  0  0  0  0
 52 64  1  0  0  0  0
 53 64  1  0  0  0  0
 54 64  1  0  0  0  0
 55 76  1  0  0  0  0
 56 59  1  0  0  0  0
 56 62  1  0  0  0  0
 57 62  1  0  0  0  0
 57 63  1  0  0  0  0
 58 62  1  0  0  0  0
 58 67  1  0  0  0  0
 59 83  1  0  0  0  0
 60 64  1  0  0  0  0
 60 75  1  0  0  0  0
 61 76  1  0  0  0  0
 65 67  1  0  0  0  0
 66 68  1  0  0  0  0
M  CHG  1  76   1
M  ISO  4  35 100  59 101  73 100  83 101
M  END
> <Batch ID>
0196

> <Smiles>
CNC(C)C(=O)NC(C(=O)N1Cc2cc([101O:1][101CH2:1]CC(Cn3cc([100NH:0][100C:0](=O)N4CCCC(n5nc(-c6ccc(Oc7ccc(F)cc7F)cc6)c(C(N)=O)c5N)C4)cn3)CC(C)(C)C)ccc2CC1C(=O)NC1CCCc2ccccc21)C(C)(C)C

> <Shape>
0.197

> <Color>
0.076

> <Negative vol penalty>
0.000

$$$$

  -OEChem-04052305393D

 83 91  0     1  0  0  0  0  0999 V2000
  -26.5458  -35.4456   22.5292 C   0  0  0  0  0  0  0  0  0  0  0  0
  -27.0159  -34.1400   22.4304 C   0  0  0  0  0  0  0  0  0  0  0  0
  -26.6851  -12.9182   21.0678 C   0  0  0  0  0  0  0  0  0  0  0  0
  -26.3983  -13.4231   18.7226 C   0  0  0  0  0  0  0  0  0  0  0  0
  -25.2514  -35.6864   22.9881 C   0  0  0  0  0  0  0  0  0  0  0  0
  -26.1923  -33.0744   22.7914 C   0  0  0  0  0  0  0  0  0  0  0  0
  -26.3432  -29.2805   19.4405 C   0  0  0  0  0  0  0  0  0  0  0  0
  -26.1568  -11.6445   20.8582 C   0  0  0  0  0  0  0  0  0  0  0  0
  -25.8700  -12.1493   18.5130 C   0  0  0  0  0  0  0  0  0  0  0  0
  -27.4489  -28.4326   19.4881 C   0  0  0  0  0  0  0  0  0  0  0  0
  -23.1034  -10.2476   20.4708 C   0  0  0  0  0  0  0  0  0  0  0  0
  -22.1593   -9.7799   21.3848 C   0  0  0  0  0  0  0  0  0  0  0  0
  -26.1452  -26.8109   20.7086 C   0  0  0  0  0  0  0  0  0  0  0  0
  -23.6028   -7.9191   21.9237 C   0  0  0  0  0  0  0  0  0  0  0  0
  -26.8059  -13.8076   20.0000 C   0  0  0  0  0  0  0  0  0  0  0  0
  -28.7028  -15.5081   20.1333 C   0  0  0  0  0  0  0  0  0  0  0  0
  -24.4081  -34.6226   23.3457 C   0  0  0  0  0  0  0  0  0  0  0  0
  -25.1313  -28.9039   20.0371 C   0  0  0  0  0  0  0  0  0  0  0  0
  -24.8858  -33.3012   23.2567 C   0  0  0  0  0  0  0  0  0  0  0  0
  -25.0249  -27.6547   20.6650 C   0  0  0  0  0  0  0  0  0  0  0  0
  -25.7492  -11.2600   19.5808 C   0  0  0  0  0  0  0  0  0  0  0  0
  -27.3509  -27.1988   20.1247 C   0  0  0  0  0  0  0  0  0  0  0  0
  -24.2972   -9.5510   20.2831 C   0  0  0  0  0  0  0  0  0  0  0  0
  -22.4090   -8.6157   22.1113 C   0  0  0  0  0  0  0  0  0  0  0  0
  -24.5469   -8.3867   21.0096 C   0  0  0  0  0  0  0  0  0  0  0  0
  -27.3510  -15.1237   20.2160 C   0  0  0  0  0  0  0  0  0  0  0  0
  -28.6963  -16.8508   20.4223 C   0  0  0  0  0  0  0  0  0  0  0  0
  -25.2937  -22.6685   17.1953 C   0  0  0  0  0  0  0  0  0  0  0  0
  -26.9796  -23.8494   16.9878 C   0  0  0  0  0  0  0  0  0  0  0  0
  -29.8607  -14.7217   19.8228 C   0  0  0  0  0  0  0  0  0  0  0  0
  -23.3336  -30.0623   22.3887 C   0  0  0  0  0  0  0  0  0  0  0  0
  -21.2803  -27.7374   21.4395 C   0  0  0  0  0  0  0  0  0  0  0  0
  -20.8230  -24.7331   19.8865 C   0  0  0  0  0  0  0  0  0  0  0  0
  -24.5095  -21.1044   19.9441 C   0  0  0  0  0  0  0  0  0  0  0  0
  -23.0331  -34.9347   23.8812 C   0  0  0  0  0  0  0  0  0  0  0  0
  -23.9401  -29.8186   19.9538 C   0  0  0  0  0  0  0  0  0  0  0  0
  -23.7405  -27.1948   21.3032 C   0  0  0  0  0  0  0  0  0  0  0  0
  -22.0946  -33.7308   23.8883 C   0  0  0  0  0  0  0  0  0  0  0  0
  -26.2513  -20.1370   22.8948 C   0  0  0  0  0  0  0  0  0  0  0  0
  -22.7994  -32.5078   24.4663 C   0  0  0  0  0  0  0  0  0  0  0  0
  -26.8526  -18.7772   22.5354 C   0  0  0  0  0  0  0  0  0  0  0  0
  -24.8718  -20.3274   22.2682 C   0  0  0  0  0  0  0  0  0  0  0  0
  -25.4212  -18.7572   20.4499 C   0  0  0  0  0  0  0  0  0  0  0  0
  -24.0139  -32.1174   23.6153 C   0  0  1  0  0  0  0  0  0  0  0  0
  -22.9048  -29.5519   21.0421 C   0  0  1  0  0  0  0  0  0  0  0  0
  -26.8363  -18.5415   21.0131 C   0  0  2  0  0  0  0  0  0  0  0  0
  -19.0372  -23.0704   19.2999 C   0  0  0  0  0  0  0  0  0  0  0  0
  -29.5982  -22.6320   18.2672 C   0  0  0  0  0  0  0  0  0  0  0  0
  -21.2293  -26.7745   24.3344 C   0  0  0  0  0  0  0  0  0  0  0  0
  -20.2374  -24.6219   23.5277 C   0  0  0  0  0  0  0  0  0  0  0  0
  -19.0045  -26.7643   23.1922 C   0  0  0  0  0  0  0  0  0  0  0  0
  -21.3262  -25.0413   16.9864 C   0  0  0  0  0  0  0  0  0  0  0  0
  -24.2140  -21.7430   17.5642 C   0  0  0  0  0  0  0  0  0  0  0  0
  -29.3555  -26.4450   19.0906 C   0  0  0  0  0  0  0  0  0  1  0  0
  -21.0633  -26.2886   21.8041 C   0  0  1  0  0  0  0  0  0  0  0  0
  -19.8252  -24.2848   18.8339 C   0  0  2  0  0  0  0  0  0  0  0  0
  -28.9484  -23.9914   18.5139 C   0  0  1  0  0  0  0  0  0  0  0  0
  -29.9827  -25.0673   18.8835 C   0  0  1  0  0  0  0  0  0  0  0  0
  -20.4085  -26.1215   23.2044 C   0  0  0  0  0  0  0  0  0  0  0  0
  -26.5445  -16.1401   20.5330 N   0  0  0  0  0  0  0  0  0  0  0  0
  -26.4176  -22.9226   17.8167 N   0  0  0  0  0  0  0  0  0  0  0  0
  -26.2644  -24.1705   15.9056 N   0  0  0  0  0  0  0  0  0  0  0  0
  -27.3919  -17.1763   20.6520 N   0  0  0  0  0  0  0  0  0  0  0  0
  -22.6058  -28.1273   21.2009 N   0  0  0  0  0  0  0  0  0  0  0  0
  -24.9256  -20.0912   20.8235 N   0  0  0  0  0  0  0  0  0  0  0  0
  -29.6792  -17.7729   20.4999 N   0  0  0  0  0  0  0  0  0  0  0  0
  -29.6887  -13.3575   19.5509 N   0  0  0  0  0  0  0  0  0  0  0  0
  -28.2144  -24.3728   17.3236 N   0  0  0  0  0  0  0  0  0  0  0  0
  -23.5904  -31.4197   22.4202 N   0  0  0  0  0  0  0  0  0  0  0  0
  -20.2942  -25.7034   20.7112 N   0  0  0  0  0  0  0  0  0  0  0  0
  -24.5988  -20.8007   18.5911 N   0  0  0  0  0  0  0  0  0  0  0  0
  -20.5300  -23.9309   17.5695 N   0  3  0  0  0  0  0  0  0  0  0  0
  -31.0158  -15.2106   19.8036 O   0  0  0  0  0  0  0  0  0  0  0  0
  -23.4233  -29.2826   23.3298 O   0  0  0  0  0  0  0  0  0  0  0  0
  -20.3088  -28.4936   21.3621 O   0  0  0  0  0  0  0  0  0  0  0  0
  -21.9567  -24.2662   19.9712 O   0  0  0  0  0  0  0  0  0  0  0  0
  -24.0946  -22.2005   20.3355 O   0  0  0  0  0  0  0  0  0  0  0  0
  -25.1227  -23.3714   16.0450 O   0  0  0  0  0  0  0  0  0  0  0  0
  -30.9732  -25.1554   17.8577 O   0  0  0  0  0  0  0  0  0  0  0  0
  -25.2339  -10.0170   19.3758 O   0  0  0  0  0  0  0  0  0  0  0  0
  -28.4287  -26.3695   20.1732 O   0  0  0  0  0  0  0  0  0  1  0  0
  -21.5029   -8.1675   22.9902 F   0  0  0  0  0  0  0  0  0  0  0  0
  -25.6925   -7.7139   20.8345 F   0  0  0  0  0  0  0  0  0  0  0  0
  1  2  1  0  0  0  0
  1  5  2  0  0  0  0
  2  6  2  0  0  0  0
  3  8  2  0  0  0  0
  3 15  1  0  0  0  0
  4  9  1  0  0  0  0
  4 15  2  0  0  0  0
  5 17  1  0  0  0  0
  6 19  1  0  0  0  0
  7 10  2  0  0  0  0
  7 18  1  0  0  0  0
  8 21  1  0  0  0  0
  9 21  2  0  0  0  0
 10 22  1  0  0  0  0
 11 12  2  0  0  0  0
 11 23  1  0  0  0  0
 12 24  1  0  0  0  0
 13 20  1  0  0  0  0
 13 22  2  0  0  0  0
 14 24  2  0  0  0  0
 14 25  1  0  0  0  0
 15 26  1  0  0  0  0
 16 26  1  0  0  0  0
 16 27  2  0  0  0  0
 16 30  1  0  0  0  0
 17 19  2  0  0  0  0
 17 35  1  0  0  0  0
 18 20  2  0  0  0  0
 18 36  1  0  0  0  0
 19 44  1  0  0  0  0
 20 37  1  0  0  0  0
 21 80  1  0  0  0  0
 22 81  1  0  0  0  0
 23 25  2  0  0  0  0
 23 80  1  0  0  0  0
 24 82  1  0  0  0  0
 25 83  1  0  0  0  0
 26 60  2  0  0  0  0
 27 63  1  0  0  0  0
 27 66  1  0  0  0  0
 28 53  1  0  0  0  0
 28 61  2  0  0  0  0
 28 78  1  0  0  0  0
 29 61  1  0  0  0  0
 29 62  2  0  0  0  0
 29 68  1  0  0  0  0
 30 67  1  0  0  0  0
 30 73  2  0  0  0  0
 31 45  1  0  0  0  0
 31 69  1  0  0  0  0
 31 74  2  0  0  0  0
 32 55  1  0  0  0  0
 32 64  1  0  0  0  0
 32 75  2  0  0  0  0
 33 56  1  0  0  0  0
 33 70  1  0  0  0  0
 33 76  2  0  0  0  0
 34 65  1  0  0  0  0
 34 71  1  0  0  0  0
 34 77  2  0  0  0  0
 35 38  1  0  0  0  0
 36 45  1  0  0  0  0
 37 64  1  0  0  0  0
 38 40  1  0  0  0  0
 39 41  1  0  0  0  0
 39 42  1  0  0  0  0
 40 44  1  0  0  0  0
 41 46  1  0  0  0  0
 42 65  1  0  0  0  0
 43 46  1  0  0  0  0
 43 65  1  0  0  0  0
 44 69  1  0  0  0  0
 45 64  1  0  0  0  0
 46 63  1  0  0  0  0
 47 56  1  0  0  0  0
 48 57  1  0  0  0  0
 49 59  1  0  0  0  0
 50 59  1  0  0  0  0
 51 59  1  0  0  0  0
 52 72  1  0  0  0  0
 53 71  1  0  0  0  0
 54 58  1  0  0  0  0
 54 81  1  0  0  0  0
 55 59  1  0  0  0  0
 55 70  1  0  0  0  0
 56 72  1  0  0  0  0
 57 58  1  0  0  0  0
 57 68  1  0  0  0  0
 58 79  1  0  0  0  0
 60 63  1  0  0  0  0
 62 78  1  0  0  0  0
M  CHG  1  72   1
M  ISO  4  34 100  54 101  71 100  81 101
M  END
> <Batch ID>
0196

> <Smiles>
CNC(C)C(=O)NC(C(=O)N1Cc2cc([101O:1][101CH2:1]C(O)C(C)Nc3noc(C[100NH:0][100C:0](=O)N4CCCC(n5nc(-c6ccc(Oc7ccc(F)cc7F)cc6)c(C(N)=O)c5N)C4)n3)ccc2CC1C(=O)NC1CCCc2ccccc21)C(C)(C)C

> <Shape>
0.263

> <Color>
0.088

> <Negative vol penalty>
0.000

$$$$

  -OEChem-04052305393D

 81 89  0     1  0  0  0  0  0999 V2000
  -30.2068  -23.4384   25.2409 C   0  0  0  0  0  0  0  0  0  0  0  0
  -29.8108  -23.8304   23.9661 C   0  0  0  0  0  0  0  0  0  0  0  0
  -26.4150  -12.6407   21.5430 C   0  0  0  0  0  0  0  0  0  0  0  0
  -25.9723  -13.4171   19.2984 C   0  0  0  0  0  0  0  0  0  0  0  0
  -29.2535  -23.2659   26.2435 C   0  0  0  0  0  0  0  0  0  0  0  0
  -28.4609  -24.0491   23.6931 C   0  0  0  0  0  0  0  0  0  0  0  0
  -27.6780  -28.2904   21.0391 C   0  0  0  0  0  0  0  0  0  0  0  0
  -25.1779  -11.9967   21.5642 C   0  0  0  0  0  0  0  0  0  0  0  0
  -24.7353  -12.7730   19.3195 C   0  0  0  0  0  0  0  0  0  0  0  0
  -27.9397  -28.2425   19.6706 C   0  0  0  0  0  0  0  0  0  0  0  0
  -23.8375   -9.1367   20.3571 C   0  0  0  0  0  0  0  0  0  0  0  0
  -23.7934   -7.8340   20.8536 C   0  0  0  0  0  0  0  0  0  0  0  0
  -25.5821  -27.9748   19.2353 C   0  0  0  0  0  0  0  0  0  0  0  0
  -22.2473   -8.5407   22.5705 C   0  0  0  0  0  0  0  0  0  0  0  0
  -30.0710  -22.2615   17.6310 C   0  0  0  0  0  0  0  0  0  0  0  0
  -26.8122  -13.3510   20.4101 C   0  0  0  0  0  0  0  0  0  0  0  0
  -29.3198  -13.4823   19.9600 C   0  0  0  0  0  0  0  0  0  0  0  0
  -27.8923  -23.4920   25.9852 C   0  0  0  0  0  0  0  0  0  0  0  0
  -26.3653  -28.1696   21.5175 C   0  0  0  0  0  0  0  0  0  0  0  0
  -27.4884  -23.8781   24.6929 C   0  0  0  0  0  0  0  0  0  0  0  0
  -25.3062  -28.0240   20.6102 C   0  0  0  0  0  0  0  0  0  0  0  0
  -24.3381  -12.0628   20.4525 C   0  0  0  0  0  0  0  0  0  0  0  0
  -26.8920  -28.0819   18.7685 C   0  0  0  0  0  0  0  0  0  0  0  0
  -23.0867  -10.1415   20.9674 C   0  0  0  0  0  0  0  0  0  0  0  0
  -22.9983   -7.5360   21.9603 C   0  0  0  0  0  0  0  0  0  0  0  0
  -22.2916   -9.8435   22.0740 C   0  0  0  0  0  0  0  0  0  0  0  0
  -28.0897  -14.0169   20.3877 C   0  0  0  0  0  0  0  0  0  0  0  0
  -29.0161  -21.5715   18.1904 C   0  0  0  0  0  0  0  0  0  0  0  0
  -30.2187  -14.5057   20.1358 C   0  0  0  0  0  0  0  0  0  0  0  0
  -28.4474  -23.6196   17.0572 C   0  0  0  0  0  0  0  0  0  0  0  0
  -29.6226  -12.1772   19.4494 C   0  0  0  0  0  0  0  0  0  0  0  0
  -24.8405  -26.0996   23.3866 C   0  0  0  0  0  0  0  0  0  0  0  0
  -29.5169  -20.4700   20.3516 C   0  0  0  0  0  0  0  0  0  0  0  0
  -22.4088  -28.2271   23.0987 C   0  0  0  0  0  0  0  0  0  0  0  0
  -28.1621  -25.7884   15.8088 C   0  0  0  0  0  0  0  0  0  0  0  0
  -20.9431  -30.7250   21.2933 C   0  0  0  0  0  0  0  0  0  0  0  0
  -26.8936  -23.2468   27.0884 C   0  0  0  0  0  0  0  0  0  0  0  0
  -26.0969  -28.2500   22.9953 C   0  0  0  0  0  0  0  0  0  0  0  0
  -23.8769  -27.9102   21.0715 C   0  0  0  0  0  0  0  0  0  0  0  0
  -25.5231  -23.8618   26.8170 C   0  0  0  0  0  0  0  0  0  0  0  0
  -31.0287  -18.3674   22.8283 C   0  0  0  0  0  0  0  0  0  0  0  0
  -25.0704  -23.5503   25.3941 C   0  0  0  0  0  0  0  0  0  0  0  0
  -30.5352  -16.9685   22.4613 C   0  0  0  0  0  0  0  0  0  0  0  0
  -29.9665  -19.4258   22.5475 C   0  0  0  0  0  0  0  0  0  0  0  0
  -28.9662  -18.0223   20.7722 C   0  0  0  0  0  0  0  0  0  0  0  0
  -26.0362  -24.1490   24.3644 C   0  0  1  0  0  0  0  0  0  0  0  0
  -24.7767  -27.6008   23.3989 C   0  0  1  0  0  0  0  0  0  0  0  0
  -30.0201  -16.9267   21.0117 C   0  0  2  0  0  0  0  0  0  0  0  0
  -18.9438  -32.2416   21.2910 C   0  0  0  0  0  0  0  0  0  0  0  0
  -20.6514  -25.9052   22.1878 C   0  0  0  0  0  0  0  0  0  0  0  0
  -19.0113  -27.5815   21.3113 C   0  0  0  0  0  0  0  0  0  0  0  0
  -19.5350  -27.5084   23.7492 C   0  0  0  0  0  0  0  0  0  0  0  0
  -22.6367  -33.1489   21.4177 C   0  0  0  0  0  0  0  0  0  0  0  0
  -29.0101  -20.3013   18.9415 C   0  0  0  0  0  0  0  0  0  0  0  0
  -27.0096  -26.7103   15.4268 C   0  0  0  0  0  0  0  0  0  0  0  0
  -26.2568  -27.2561   16.6306 C   0  0  0  0  0  0  0  0  0  1  0  0
  -21.2598  -28.4138   22.1375 C   0  0  1  0  0  0  0  0  0  0  0  0
  -20.3978  -32.0800   21.7067 C   0  0  2  0  0  0  0  0  0  0  0  0
  -20.1414  -27.3524   22.3375 C   0  0  0  0  0  0  0  0  0  0  0  0
  -29.7468  -23.4360   16.9804 N   0  0  0  0  0  0  0  0  0  0  0  0
  -28.1942  -15.2818   20.8041 N   0  0  0  0  0  0  0  0  0  0  0  0
  -29.5005  -15.5504   20.6389 N   0  0  0  0  0  0  0  0  0  0  0  0
  -23.6663  -27.9882   22.5265 N   0  0  0  0  0  0  0  0  0  0  0  0
  -29.4869  -19.3385   21.1670 N   0  0  0  0  0  0  0  0  0  0  0  0
  -31.5456  -14.6049   19.9077 N   0  0  0  0  0  0  0  0  0  0  0  0
  -28.5810  -11.2467   19.3338 N   0  0  0  0  0  0  0  0  0  0  0  0
  -27.6919  -24.6926   16.5275 N   0  0  0  0  0  0  0  0  0  0  0  0
  -25.8057  -25.5706   24.2221 N   0  0  0  0  0  0  0  0  0  0  0  0
  -20.8112  -29.7924   22.3004 N   0  0  0  0  0  0  0  0  0  0  0  0
  -21.1912  -33.1722   21.0755 N   0  3  0  0  0  0  0  0  0  0  0  0
  -30.7857  -11.8407   19.1212 O   0  0  0  0  0  0  0  0  0  0  0  0
  -24.0700  -25.4680   22.6730 O   0  0  0  0  0  0  0  0  0  0  0  0
  -29.9296  -21.5745   20.7149 O   0  0  0  0  0  0  0  0  0  0  0  0
  -22.1996  -28.2981   24.3123 O   0  0  0  0  0  0  0  0  0  0  0  0
  -29.3233  -26.0318   15.4978 O   0  0  0  0  0  0  0  0  0  0  0  0
  -21.4335  -30.5138   20.1863 O   0  0  0  0  0  0  0  0  0  0  0  0
  -23.1310  -11.4342   20.4728 O   0  0  0  0  0  0  0  0  0  0  0  0
  -27.1447  -28.0342   17.4322 O   0  0  0  0  0  0  0  0  0  1  0  0
  -22.9547   -6.2846   22.4360 F   0  0  0  0  0  0  0  0  0  0  0  0
  -21.5671  -10.8044   22.6637 F   0  0  0  0  0  0  0  0  0  0  0  0
  -27.5543  -22.4193   17.8979 S   0  0  0  0  0  0  0  0  0  0  0  0
  1  2  1  0  0  0  0
  1  5  2  0  0  0  0
  2  6  2  0  0  0  0
  3  8  2  0  0  0  0
  3 16  1  0  0  0  0
  4  9  1  0  0  0  0
  4 16  2  0  0  0  0
  5 18  1  0  0  0  0
  6 20  1  0  0  0  0
  7 10  2  0  0  0  0
  7 19  1  0  0  0  0
  8 22  1  0  0  0  0
  9 22  2  0  0  0  0
 10 23  1  0  0  0  0
 11 12  2  0  0  0  0
 11 24  1  0  0  0  0
 12 25  1  0  0  0  0
 13 21  1  0  0  0  0
 13 23  2  0  0  0  0
 14 25  2  0  0  0  0
 14 26  1  0  0  0  0
 15 28  2  0  0  0  0
 15 60  1  0  0  0  0
 16 27  1  0  0  0  0
 17 27  1  0  0  0  0
 17 29  2  0  0  0  0
 17 31  1  0  0  0  0
 18 20  2  0  0  0  0
 18 37  1  0  0  0  0
 19 21  2  0  0  0  0
 19 38  1  0  0  0  0
 20 46  1  0  0  0  0
 21 39  1  0  0  0  0
 22 77  1  0  0  0  0
 23 78  1  0  0  0  0
 24 26  2  0  0  0  0
 24 77  1  0  0  0  0
 25 79  1  0  0  0  0
 26 80  1  0  0  0  0
 27 61  2  0  0  0  0
 28 54  1  0  0  0  0
 28 81  1  0  0  0  0
 29 62  1  0  0  0  0
 29 65  1  0  0  0  0
 30 60  2  0  0  0  0
 30 67  1  0  0  0  0
 30 81  1  0  0  0  0
 31 66  1  0  0  0  0
 31 71  2  0  0  0  0
 32 47  1  0  0  0  0
 32 68  1  0  0  0  0
 32 72  2  0  0  0  0
 33 54  1  0  0  0  0
 33 64  1  0  0  0  0
 33 73  2  0  0  0  0
 34 57  1  0  0  0  0
 34 63  1  0  0  0  0
 34 74  2  0  0  0  0
 35 55  1  0  0  0  0
 35 67  1  0  0  0  0
 35 75  2  0  0  0  0
 36 58  1  0  0  0  0
 36 69  1  0  0  0  0
 36 76  2  0  0  0  0
 37 40  1  0  0  0  0
 38 47  1  0  0  0  0
 39 63  1  0  0  0  0
 40 42  1  0  0  0  0
 41 43  1  0  0  0  0
 41 44  1  0  0  0  0
 42 46  1  0  0  0  0
 43 48  1  0  0  0  0
 44 64  1  0  0  0  0
 45 48  1  0  0  0  0
 45 64  1  0  0  0  0
 46 68  1  0  0  0  0
 47 63  1  0  0  0  0
 48 62  1  0  0  0  0
 49 58  1  0  0  0  0
 50 59  1  0  0  0  0
 51 59  1  0  0  0  0
 52 59  1  0  0  0  0
 53 70  1  0  0  0  0
 55 56  1  0  0  0  0
 56 78  1  0  0  0  0
 57 59  1  0  0  0  0
 57 69  1  0  0  0  0
 58 70  1  0  0  0  0
 61 62  1  0  0  0  0
M  CHG  1  70   1
M  ISO  4  33 100  54 100  56 101  78 101
M  END
> <Batch ID>
0196

> <Smiles>
CNC(C)C(=O)NC(C(=O)N1Cc2cc([101O:1][101CH2:1]CC(=O)Nc3ncc([100CH2:0][100C:0](=O)N4CCCC(n5nc(-c6ccc(Oc7ccc(F)cc7F)cc6)c(C(N)=O)c5N)C4)s3)ccc2CC1C(=O)NC1CCCc2ccccc21)C(C)(C)C

> <Shape>
0.254

> <Color>
0.078

> <Negative vol penalty>
0.000

$$$$

  -OEChem-04052305393D

 81 89  0     1  0  0  0  0  0999 V2000
  -30.4474  -25.2161   17.5063 C   0  0  0  0  0  0  0  0  0  0  0  0
  -29.0767  -25.1039   17.7161 C   0  0  0  0  0  0  0  0  0  0  0  0
  -26.1055  -14.6371   19.3192 C   0  0  0  0  0  0  0  0  0  0  0  0
  -23.9576  -14.6364   20.4254 C   0  0  0  0  0  0  0  0  0  0  0  0
  -31.2467  -25.8533   18.4545 C   0  0  0  0  0  0  0  0  0  0  0  0
  -28.5046  -25.6279   18.8748 C   0  0  0  0  0  0  0  0  0  0  0  0
  -22.9657  -28.1842   19.4145 C   0  0  0  0  0  0  0  0  0  0  0  0
  -26.3402  -13.3396   19.7741 C   0  0  0  0  0  0  0  0  0  0  0  0
  -24.1923  -13.3389   20.8803 C   0  0  0  0  0  0  0  0  0  0  0  0
  -21.7427  -27.6868   19.8624 C   0  0  0  0  0  0  0  0  0  0  0  0
  -24.0526  -10.2008   19.6338 C   0  0  0  0  0  0  0  0  0  0  0  0
  -23.0125   -9.2782   19.5212 C   0  0  0  0  0  0  0  0  0  0  0  0
  -22.1785  -28.6029   22.0510 C   0  0  0  0  0  0  0  0  0  0  0  0
  -23.0275   -8.9689   21.9173 C   0  0  0  0  0  0  0  0  0  0  0  0
  -20.7232  -21.7130   23.7304 C   0  0  0  0  0  0  0  0  0  0  0  0
  -24.9142  -15.2856   19.6449 C   0  0  0  0  0  0  0  0  0  0  0  0
  -24.0504  -17.0057   17.9707 C   0  0  0  0  0  0  0  0  0  0  0  0
  -30.6827  -26.3938   19.6208 C   0  0  0  0  0  0  0  0  0  0  0  0
  -23.8106  -28.8864   20.2860 C   0  0  0  0  0  0  0  0  0  0  0  0
  -29.2973  -26.2717   19.8401 C   0  0  0  0  0  0  0  0  0  0  0  0
  -23.4105  -29.1104   21.6111 C   0  0  0  0  0  0  0  0  0  0  0  0
  -25.3836  -12.6904   20.5546 C   0  0  0  0  0  0  0  0  0  0  0  0
  -21.3502  -27.8936   21.1816 C   0  0  0  0  0  0  0  0  0  0  0  0
  -24.5801  -10.5074   20.8882 C   0  0  0  0  0  0  0  0  0  0  0  0
  -22.5000   -8.6623   20.6629 C   0  0  0  0  0  0  0  0  0  0  0  0
  -24.0676   -9.8915   22.0299 C   0  0  0  0  0  0  0  0  0  0  0  0
  -24.6714  -16.6261   19.1758 C   0  0  0  0  0  0  0  0  0  0  0  0
  -21.9414  -22.3462   23.4468 C   0  0  0  0  0  0  0  0  0  0  0  0
  -24.0622  -18.3789   17.9961 C   0  0  0  0  0  0  0  0  0  0  0  0
  -23.5112  -16.1899   16.9222 C   0  0  0  0  0  0  0  0  0  0  0  0
  -26.7465  -28.4311   21.4160 C   0  0  0  0  0  0  0  0  0  0  0  0
  -26.2941  -31.3806   22.6879 C   0  0  0  0  0  0  0  0  0  0  0  0
  -24.1043  -33.7703   23.7561 C   0  0  0  0  0  0  0  0  0  0  0  0
  -24.2468  -22.3784   22.4317 C   0  0  0  0  0  0  0  0  0  0  0  0
  -31.5939  -27.0319   20.6394 C   0  0  0  0  0  0  0  0  0  0  0  0
  -25.1147  -29.4397   19.7802 C   0  0  0  0  0  0  0  0  0  0  0  0
  -24.2721  -29.8754   22.5811 C   0  0  0  0  0  0  0  0  0  0  0  0
  -30.8560  -27.8905   21.6634 C   0  0  0  0  0  0  0  0  0  0  0  0
  -26.5620  -22.0707   19.7442 C   0  0  0  0  0  0  0  0  0  0  0  0
  -29.6333  -27.1515   22.1978 C   0  0  0  0  0  0  0  0  0  0  0  0
  -26.2792  -20.6765   19.1800 C   0  0  0  0  0  0  0  0  0  0  0  0
  -26.4240  -22.1057   21.2652 C   0  0  0  0  0  0  0  0  0  0  0  0
  -24.8683  -20.1959   21.2209 C   0  0  0  0  0  0  0  0  0  0  0  0
  -28.6361  -26.8492   21.0728 C   0  0  1  0  0  0  0  0  0  0  0  0
  -26.1267  -29.6958   20.8927 C   0  0  1  0  0  0  0  0  0  0  0  0
  -24.9315  -20.1263   19.6863 C   0  0  2  0  0  0  0  0  0  0  0  0
  -24.0328  -36.0601   24.7805 C   0  0  0  0  0  0  0  0  0  0  0  0
  -27.0366  -30.1891   25.3970 C   0  0  0  0  0  0  0  0  0  0  0  0
  -26.0453  -32.2161   26.4820 C   0  0  0  0  0  0  0  0  0  0  0  0
  -28.0021  -32.4530   24.9531 C   0  0  0  0  0  0  0  0  0  0  0  0
  -22.6658  -34.8943   21.4266 C   0  0  0  0  0  0  0  0  0  0  0  0
  -18.9611  -25.4698   24.6345 C   0  0  0  0  0  0  0  0  0  0  0  0
  -20.2409  -24.8635   25.2283 C   0  0  0  0  0  0  0  0  0  0  0  0
  -20.0705  -27.0499   23.0000 C   0  0  0  0  0  0  0  0  0  1  0  0
  -25.7307  -31.9109   23.9842 C   0  0  1  0  0  0  0  0  0  0  0  0
  -24.0308  -35.2623   23.4858 C   0  0  2  0  0  0  0  0  0  0  0  0
  -19.0611  -25.9167   23.1699 C   0  0  2  0  0  0  0  0  0  0  0  0
  -26.6881  -31.6762   25.1866 C   0  0  0  0  0  0  0  0  0  0  0  0
  -19.9329  -22.5395   24.4211 N   0  0  0  0  0  0  0  0  0  0  0  0
  -25.0502  -17.6736   19.9129 N   0  0  0  0  0  0  0  0  0  0  0  0
  -21.9378  -23.5825   23.9531 N   0  0  0  0  0  0  0  0  0  0  0  0
  -24.6662  -18.7249   19.1690 N   0  0  0  0  0  0  0  0  0  0  0  0
  -20.7187  -23.6244   24.5140 N   0  0  0  0  0  0  0  0  0  0  0  0
  -25.5408  -30.3909   22.0406 N   0  0  0  0  0  0  0  0  0  0  0  0
  -25.1213  -21.5736   21.6712 N   0  0  0  0  0  0  0  0  0  0  0  0
  -23.6147  -19.3121   17.1293 N   0  0  0  0  0  0  0  0  0  0  0  0
  -23.5815  -14.7966   17.0565 N   0  0  0  0  0  0  0  0  0  0  0  0
  -23.0242  -21.7781   22.7308 N   0  0  0  0  0  0  0  0  0  0  0  0
  -27.8815  -28.0366   20.7336 N   0  0  0  0  0  0  0  0  0  0  0  0
  -25.4050  -33.3127   23.7446 N   0  0  0  0  0  0  0  0  0  0  0  0
  -17.7313  -26.4123   22.7069 N   0  3  0  0  0  0  0  0  0  0  0  0
  -22.7877  -35.5917   22.7327 N   0  3  0  0  0  0  0  0  0  0  0  0
  -22.9973  -16.6820   15.8891 O   0  0  0  0  0  0  0  0  0  0  0  0
  -26.2339  -27.8565   22.3692 O   0  0  0  0  0  0  0  0  0  0  0  0
  -27.3596  -31.8330   22.2617 O   0  0  0  0  0  0  0  0  0  0  0  0
  -23.1079  -33.0806   23.9610 O   0  0  0  0  0  0  0  0  0  0  0  0
  -24.5487  -23.5264   22.7680 O   0  0  0  0  0  0  0  0  0  0  0  0
  -25.6122  -11.4242   20.9984 O   0  0  0  0  0  0  0  0  0  0  0  0
  -20.1572  -27.4086   21.6215 O   0  0  0  0  0  0  0  0  0  1  0  0
  -21.5002   -7.7775   20.5548 F   0  0  0  0  0  0  0  0  0  0  0  0
  -24.5695  -10.1829   23.2378 F   0  0  0  0  0  0  0  0  0  0  0  0
  1  2  1  0  0  0  0
  1  5  2  0  0  0  0
  2  6  2  0  0  0  0
  3  8  2  0  0  0  0
  3 16  1  0  0  0  0
  4  9  1  0  0  0  0
  4 16  2  0  0  0  0
  5 18  1  0  0  0  0
  6 20  1  0  0  0  0
  7 10  2  0  0  0  0
  7 19  1  0  0  0  0
  8 22  1  0  0  0  0
  9 22  2  0  0  0  0
 10 23  1  0  0  0  0
 11 12  2  0  0  0  0
 11 24  1  0  0  0  0
 12 25  1  0  0  0  0
 13 21  1  0  0  0  0
 13 23  2  0  0  0  0
 14 25  2  0  0  0  0
 14 26  1  0  0  0  0
 15 28  1  0  0  0  0
 15 59  2  0  0  0  0
 16 27  1  0  0  0  0
 17 27  1  0  0  0  0
 17 29  2  0  0  0  0
 17 30  1  0  0  0  0
 18 20  2  0  0  0  0
 18 35  1  0  0  0  0
 19 21  2  0  0  0  0
 19 36  1  0  0  0  0
 20 44  1  0  0  0  0
 21 37  1  0  0  0  0
 22 78  1  0  0  0  0
 23 79  1  0  0  0  0
 24 26  2  0  0  0  0
 24 78  1  0  0  0  0
 25 80  1  0  0  0  0
 26 81  1  0  0  0  0
 27 60  2  0  0  0  0
 28 61  2  0  0  0  0
 28 68  1  0  0  0  0
 29 62  1  0  0  0  0
 29 66  1  0  0  0  0
 30 67  1  0  0  0  0
 30 73  2  0  0  0  0
 31 45  1  0  0  0  0
 31 69  1  0  0  0  0
 31 74  2  0  0  0  0
 32 55  1  0  0  0  0
 32 64  1  0  0  0  0
 32 75  2  0  0  0  0
 33 56  1  0  0  0  0
 33 70  1  0  0  0  0
 33 76  2  0  0  0  0
 34 65  1  0  0  0  0
 34 68  1  0  0  0  0
 34 77  2  0  0  0  0
 35 38  1  0  0  0  0
 36 45  1  0  0  0  0
 37 64  1  0  0  0  0
 38 40  1  0  0  0  0
 39 41  1  0  0  0  0
 39 42  1  0  0  0  0
 40 44  1  0  0  0  0
 41 46  1  0  0  0  0
 42 65  1  0  0  0  0
 43 46  1  0  0  0  0
 43 65  1  0  0  0  0
 44 69  1  0  0  0  0
 45 64  1  0  0  0  0
 46 62  1  0  0  0  0
 47 56  1  0  0  0  0
 48 58  1  0  0  0  0
 49 58  1  0  0  0  0
 50 58  1  0  0  0  0
 51 72  1  0  0  0  0
 52 53  1  0  0  0  0
 52 57  1  0  0  0  0
 53 63  1  0  0  0  0
 54 57  1  0  0  0  0
 54 79  1  0  0  0  0
 55 58  1  0  0  0  0
 55 70  1  0  0  0  0
 56 72  1  0  0  0  0
 57 71  1  0  0  0  0
 59 63  1  0  0  0  0
 60 62  1  0  0  0  0
 61 63  1  0  0  0  0
M  CHG  2  71   1  72   1
M  ISO  4  34 100  54 101  68 100  79 101
M  END
> <Batch ID>
0196

> <Smiles>
CNC(C)C(=O)NC(C(=O)N1Cc2cc([101O:1][101CH2:1]C(N)CCn3ncc([100NH:0][100C:0](=O)N4CCCC(n5nc(-c6ccc(Oc7ccc(F)cc7F)cc6)c(C(N)=O)c5N)C4)n3)ccc2CC1C(=O)NC1CCCc2ccccc21)C(C)(C)C

> <Shape>
0.280

> <Color>
0.073

> <Negative vol penalty>
0.000

$$$$

  -OEChem-04052305393D

 83 91  0     1  0  0  0  0  0999 V2000
  -30.7652  -33.5588   28.3933 C   0  0  0  0  0  0  0  0  0  0  0  0
  -31.0326  -32.7769   27.2741 C   0  0  0  0  0  0  0  0  0  0  0  0
  -23.9139   -9.6456   21.6745 C   0  0  0  0  0  0  0  0  0  0  0  0
  -24.5172  -10.8537   23.6779 C   0  0  0  0  0  0  0  0  0  0  0  0
  -29.5338  -33.4525   29.0385 C   0  0  0  0  0  0  0  0  0  0  0  0
  -30.0690  -31.8874   26.8001 C   0  0  0  0  0  0  0  0  0  0  0  0
  -28.9947  -30.3930   20.9590 C   0  0  0  0  0  0  0  0  0  0  0  0
  -23.4541   -8.5837   22.4533 C   0  0  0  0  0  0  0  0  0  0  0  0
  -24.0573   -9.7919   24.4567 C   0  0  0  0  0  0  0  0  0  0  0  0
  -29.3878  -29.3043   20.1818 C   0  0  0  0  0  0  0  0  0  0  0  0
  -20.7032   -7.8371   24.2722 C   0  0  0  0  0  0  0  0  0  0  0  0
  -19.4753   -7.2688   23.9333 C   0  0  0  0  0  0  0  0  0  0  0  0
  -27.2886  -28.2148   20.6567 C   0  0  0  0  0  0  0  0  0  0  0  0
  -28.5476  -20.6315   20.0692 C   0  0  0  0  0  0  0  0  0  0  0  0
  -20.5581   -5.1373   23.5846 C   0  0  0  0  0  0  0  0  0  0  0  0
  -24.4456  -10.7806   22.2868 C   0  0  0  0  0  0  0  0  0  0  0  0
  -24.1804  -12.9882   21.0363 C   0  0  0  0  0  0  0  0  0  0  0  0
  -28.5510  -32.5682   28.5664 C   0  0  0  0  0  0  0  0  0  0  0  0
  -27.7479  -30.3960   21.6009 C   0  0  0  0  0  0  0  0  0  0  0  0
  -28.8238  -31.7682   27.4403 C   0  0  0  0  0  0  0  0  0  0  0  0
  -26.8810  -29.3058   21.4394 C   0  0  0  0  0  0  0  0  0  0  0  0
  -28.3752  -19.2742   20.2761 C   0  0  0  0  0  0  0  0  0  0  0  0
  -23.5257   -8.6568   23.8444 C   0  0  0  0  0  0  0  0  0  0  0  0
  -28.5360  -28.2138   20.0329 C   0  0  0  0  0  0  0  0  0  0  0  0
  -21.8586   -7.0555   24.2672 C   0  0  0  0  0  0  0  0  0  0  0  0
  -19.4027   -5.9189   23.5895 C   0  0  0  0  0  0  0  0  0  0  0  0
  -21.7860   -5.7056   23.9234 C   0  0  0  0  0  0  0  0  0  0  0  0
  -24.9213  -11.8775   21.4828 C   0  0  0  0  0  0  0  0  0  0  0  0
  -29.7103  -21.0485   19.4530 C   0  0  0  0  0  0  0  0  0  0  0  0
  -29.3768  -18.4237   19.8528 C   0  0  0  0  0  0  0  0  0  0  0  0
  -25.0809  -13.7345   20.3161 C   0  0  0  0  0  0  0  0  0  0  0  0
  -22.8016  -13.3160   21.2533 C   0  0  0  0  0  0  0  0  0  0  0  0
  -26.7834  -30.5122   24.6274 C   0  0  0  0  0  0  0  0  0  0  0  0
  -23.8436  -30.7326   23.2743 C   0  0  0  0  0  0  0  0  0  0  0  0
  -21.8439  -30.1298   20.5753 C   0  0  0  0  0  0  0  0  0  0  0  0
  -30.1196  -16.0216   19.6966 C   0  0  0  0  0  0  0  0  0  0  0  0
  -27.2526  -32.4537   29.3251 C   0  0  0  0  0  0  0  0  0  0  0  0
  -27.3276  -31.5895   22.4140 C   0  0  0  0  0  0  0  0  0  0  0  0
  -25.5236  -29.2688   22.0911 C   0  0  0  0  0  0  0  0  0  0  0  0
  -26.1455  -31.7590   28.5364 C   0  0  0  0  0  0  0  0  0  0  0  0
  -29.7521  -12.6181   18.7176 C   0  0  0  0  0  0  0  0  0  0  0  0
  -26.6751  -30.4888   27.8785 C   0  0  0  0  0  0  0  0  0  0  0  0
  -28.4016  -12.2134   19.3130 C   0  0  0  0  0  0  0  0  0  0  0  0
  -30.5155  -13.5691   19.6377 C   0  0  0  0  0  0  0  0  0  0  0  0
  -28.4146  -14.3530   20.6580 C   0  0  0  0  0  0  0  0  0  0  0  0
  -27.7948  -30.8097   26.8812 C   0  0  1  0  0  0  0  0  0  0  0  0
  -26.2479  -31.2627   23.4410 C   0  0  1  0  0  0  0  0  0  0  0  0
  -27.5806  -13.4468   19.7377 C   0  0  2  0  0  0  0  0  0  0  0  0
  -27.1339  -18.7811   20.9386 C   0  0  0  0  0  0  0  0  0  0  0  0
  -19.4778  -30.3875   19.7799 C   0  0  0  0  0  0  0  0  0  0  0  0
  -23.0053  -28.3666   25.0090 C   0  0  0  0  0  0  0  0  0  0  0  0
  -21.0115  -28.0733   23.5235 C   0  0  0  0  0  0  0  0  0  0  0  0
  -21.2956  -30.1825   24.8247 C   0  0  0  0  0  0  0  0  0  0  0  0
  -22.6650  -31.8812   18.3354 C   0  0  0  0  0  0  0  0  0  0  0  0
  -28.9150  -23.4062   19.6394 C   0  0  0  0  0  0  0  0  0  0  0  0
  -28.4019  -25.8713   19.6446 C   0  0  0  0  0  0  0  0  0  1  0  0
  -22.7920  -29.7426   22.8349 C   0  0  1  0  0  0  0  0  0  0  0  0
  -20.8615  -31.0164   19.8315 C   0  0  2  0  0  0  0  0  0  0  0  0
  -29.4049  -24.7966   19.2396 C   0  0  1  0  0  0  0  0  0  0  0  0
  -22.0524  -29.0908   24.0372 C   0  0  0  0  0  0  0  0  0  0  0  0
  -26.1943  -11.9111   21.0798 N   0  0  0  0  0  0  0  0  0  0  0  0
  -30.6739  -20.1938   19.0491 N   0  0  0  0  0  0  0  0  0  0  0  0
  -30.5042  -18.8598   19.2521 N   0  0  0  0  0  0  0  0  0  0  0  0
  -26.2603  -13.0519   20.3725 N   0  0  0  0  0  0  0  0  0  0  0  0
  -25.1609  -30.4569   22.8812 N   0  0  0  0  0  0  0  0  0  0  0  0
  -29.6770  -14.7155   19.9948 N   0  0  0  0  0  0  0  0  0  0  0  0
  -24.9709  -14.9015   19.6463 N   0  0  0  0  0  0  0  0  0  0  0  0
  -22.0186  -12.4395   22.0167 N   0  0  0  0  0  0  0  0  0  0  0  0
  -29.2241  -17.0293   20.0531 N   0  0  0  0  0  0  0  0  0  0  0  0
  -29.8829  -22.4067   19.2462 N   0  0  0  0  0  0  0  0  0  0  0  0
  -27.2405  -31.3246   25.6475 N   0  0  0  0  0  0  0  0  0  0  0  0
  -21.9175  -30.4586   21.9123 N   0  0  0  0  0  0  0  0  0  0  0  0
  -21.3259  -31.2455   18.4340 N   0  3  0  0  0  0  0  0  0  0  0  0
  -22.2753  -14.3471   20.7703 O   0  0  0  0  0  0  0  0  0  0  0  0
  -26.7807  -29.2868   24.6187 O   0  0  0  0  0  0  0  0  0  0  0  0
  -23.5075  -31.7181   23.9357 O   0  0  0  0  0  0  0  0  0  0  0  0
  -22.4794  -29.2326   20.0260 O   0  0  0  0  0  0  0  0  0  0  0  0
  -31.2006  -16.2291   19.1395 O   0  0  0  0  0  0  0  0  0  0  0  0
  -30.6335  -25.0715   19.9158 O   0  0  0  0  0  0  0  0  0  0  0  0
  -23.0768   -7.6210   24.6047 O   0  0  0  0  0  0  0  0  0  0  0  0
  -28.9175  -27.1497   19.2753 O   0  0  0  0  0  0  0  0  0  1  0  0
  -18.2232   -5.3729   23.2656 F   0  0  0  0  0  0  0  0  0  0  0  0
  -22.8923   -4.9494   23.9180 F   0  0  0  0  0  0  0  0  0  0  0  0
  1  2  1  0  0  0  0
  1  5  2  0  0  0  0
  2  6  2  0  0  0  0
  3  8  2  0  0  0  0
  3 16  1  0  0  0  0
  4  9  1  0  0  0  0
  4 16  2  0  0  0  0
  5 18  1  0  0  0  0
  6 20  1  0  0  0  0
  7 10  2  0  0  0  0
  7 19  1  0  0  0  0
  8 23  1  0  0  0  0
  9 23  2  0  0  0  0
 10 24  1  0  0  0  0
 11 12  2  0  0  0  0
 11 25  1  0  0  0  0
 12 26  1  0  0  0  0
 13 21  1  0  0  0  0
 13 24  2  0  0  0  0
 14 22  2  0  0  0  0
 14 29  1  0  0  0  0
 15 26  2  0  0  0  0
 15 27  1  0  0  0  0
 16 28  1  0  0  0  0
 17 28  1  0  0  0  0
 17 31  2  0  0  0  0
 17 32  1  0  0  0  0
 18 20  2  0  0  0  0
 18 37  1  0  0  0  0
 19 21  2  0  0  0  0
 19 38  1  0  0  0  0
 20 46  1  0  0  0  0
 21 39  1  0  0  0  0
 22 30  1  0  0  0  0
 22 49  1  0  0  0  0
 23 80  1  0  0  0  0
 24 81  1  0  0  0  0
 25 27  2  0  0  0  0
 25 80  1  0  0  0  0
 26 82  1  0  0  0  0
 27 83  1  0  0  0  0
 28 61  2  0  0  0  0
 29 62  2  0  0  0  0
 29 70  1  0  0  0  0
 30 63  2  0  0  0  0
 30 69  1  0  0  0  0
 31 64  1  0  0  0  0
 31 67  1  0  0  0  0
 32 68  1  0  0  0  0
 32 74  2  0  0  0  0
 33 47  1  0  0  0  0
 33 71  1  0  0  0  0
 33 75  2  0  0  0  0
 34 57  1  0  0  0  0
 34 65  1  0  0  0  0
 34 76  2  0  0  0  0
 35 58  1  0  0  0  0
 35 72  1  0  0  0  0
 35 77  2  0  0  0  0
 36 66  1  0  0  0  0
 36 69  1  0  0  0  0
 36 78  2  0  0  0  0
 37 40  1  0  0  0  0
 38 47  1  0  0  0  0
 39 65  1  0  0  0  0
 40 42  1  0  0  0  0
 41 43  1  0  0  0  0
 41 44  1  0  0  0  0
 42 46  1  0  0  0  0
 43 48  1  0  0  0  0
 44 66  1  0  0  0  0
 45 48  1  0  0  0  0
 45 66  1  0  0  0  0
 46 71  1  0  0  0  0
 47 65  1  0  0  0  0
 48 64  1  0  0  0  0
 50 58  1  0  0  0  0
 51 60  1  0  0  0  0
 52 60  1  0  0  0  0
 53 60  1  0  0  0  0
 54 73  1  0  0  0  0
 55 59  1  0  0  0  0
 55 70  1  0  0  0  0
 56 59  1  0  0  0  0
 56 81  1  0  0  0  0
 57 60  1  0  0  0  0
 57 72  1  0  0  0  0
 58 73  1  0  0  0  0
 59 79  1  0  0  0  0
 61 64  1  0  0  0  0
 62 63  1  0  0  0  0
M  CHG  1  73   1
M  ISO  4  36 100  56 101  69 100  81 101
M  END
> <Batch ID>
0196

> <Smiles>
CNC(C)C(=O)NC(C(=O)N1Cc2cc([101O:1][101CH2:1]C(O)CNc3cc(C)c([100NH:0][100C:0](=O)N4CCCC(n5nc(-c6ccc(Oc7ccc(F)cc7F)cc6)c(C(N)=O)c5N)C4)nn3)ccc2CC1C(=O)NC1CCCc2ccccc21)C(C)(C)C

> <Shape>
0.331

> <Color>
0.142

> <Negative vol penalty>
0.000

$$$$

  -OEChem-04052305393D

 87 95  0     1  0  0  0  0  0999 V2000
  -32.7587  -16.6719   20.8368 C   0  0  0  0  0  0  0  0  0  0  0  0
  -31.7923  -17.5595   21.2991 C   0  0  0  0  0  0  0  0  0  0  0  0
  -28.3769  -28.0722   21.1188 C   0  0  0  0  0  0  0  0  0  0  0  0
  -27.1330  -27.1447   19.2670 C   0  0  0  0  0  0  0  0  0  0  0  0
  -32.3943  -15.6242   19.9921 C   0  0  0  0  0  0  0  0  0  0  0  0
  -30.4610  -17.4005   20.9161 C   0  0  0  0  0  0  0  0  0  0  0  0
  -25.4918  -18.5895   24.2923 C   0  0  0  0  0  0  0  0  0  0  0  0
  -29.4256  -27.1909   20.8559 C   0  0  0  0  0  0  0  0  0  0  0  0
  -28.1817  -26.2633   19.0040 C   0  0  0  0  0  0  0  0  0  0  0  0
  -24.6285  -19.6833   24.3379 C   0  0  0  0  0  0  0  0  0  0  0  0
  -29.3615  -23.3516   20.2533 C   0  0  0  0  0  0  0  0  0  0  0  0
  -29.0394  -22.0184   19.9997 C   0  0  0  0  0  0  0  0  0  0  0  0
  -23.1166  -18.5447   22.8422 C   0  0  0  0  0  0  0  0  0  0  0  0
  -30.0572  -22.1882   17.8151 C   0  0  0  0  0  0  0  0  0  0  0  0
  -27.2306  -28.0491   20.3244 C   0  0  0  0  0  0  0  0  0  0  0  0
  -25.9693  -30.2516   20.0672 C   0  0  0  0  0  0  0  0  0  0  0  0
  -31.0563  -15.4466   19.6063 C   0  0  0  0  0  0  0  0  0  0  0  0
  -25.1786  -17.4677   23.5114 C   0  0  0  0  0  0  0  0  0  0  0  0
  -30.0786  -16.3502   20.0644 C   0  0  0  0  0  0  0  0  0  0  0  0
  -23.9764  -17.4369   22.7905 C   0  0  0  0  0  0  0  0  0  0  0  0
  -19.4651  -24.3340   19.2578 C   0  0  0  0  0  0  0  0  0  0  0  0
  -29.3280  -26.2865   19.7985 C   0  0  0  0  0  0  0  0  0  0  0  0
  -23.4421  -19.6622   23.6105 C   0  0  0  0  0  0  0  0  0  0  0  0
  -30.0314  -24.1032   19.2879 C   0  0  0  0  0  0  0  0  0  0  0  0
  -29.3873  -21.4367   18.7806 C   0  0  0  0  0  0  0  0  0  0  0  0
  -30.3793  -23.5215   18.0688 C   0  0  0  0  0  0  0  0  0  0  0  0
  -26.1468  -28.9589   20.5958 C   0  0  0  0  0  0  0  0  0  0  0  0
  -19.4701  -24.5940   20.6130 C   0  0  0  0  0  0  0  0  0  0  0  0
  -20.4905  -23.5320   18.8000 C   0  0  0  0  0  0  0  0  0  0  0  0
  -24.7980  -30.6951   20.6308 C   0  0  0  0  0  0  0  0  0  0  0  0
  -21.3471  -23.3437   20.8971 C   0  0  0  0  0  0  0  0  0  0  0  0
  -26.7900  -30.9857   19.1489 C   0  0  0  0  0  0  0  0  0  0  0  0
  -26.5250  -16.0210   21.0217 C   0  0  0  0  0  0  0  0  0  0  0  0
  -24.1804  -13.8353   21.5197 C   0  0  0  0  0  0  0  0  0  0  0  0
  -21.0881  -13.1409   22.7854 C   0  0  0  0  0  0  0  0  0  0  0  0
  -20.0123  -27.8628   22.8503 C   0  0  0  0  0  0  0  0  0  0  0  0
  -30.7180  -14.3273   18.6537 C   0  0  0  0  0  0  0  0  0  0  0  0
  -26.1077  -16.2849   23.4940 C   0  0  0  0  0  0  0  0  0  0  0  0
  -23.5842  -16.2482   21.9528 C   0  0  0  0  0  0  0  0  0  0  0  0
  -29.2267  -14.0066   18.5959 C   0  0  0  0  0  0  0  0  0  0  0  0
  -22.1022  -30.1900   24.5511 C   0  0  0  0  0  0  0  0  0  0  0  0
  -28.4092  -15.2886   18.4732 C   0  0  0  0  0  0  0  0  0  0  0  0
  -23.3598  -30.2550   23.6826 C   0  0  0  0  0  0  0  0  0  0  0  0
  -21.5165  -28.7803   24.5915 C   0  0  0  0  0  0  0  0  0  0  0  0
  -22.5120  -28.2455   22.4014 C   0  0  0  0  0  0  0  0  0  0  0  0
  -28.6201  -16.1961   19.6911 C   0  0  1  0  0  0  0  0  0  0  0  0
  -25.9338  -15.4065   22.2589 C   0  0  1  0  0  0  0  0  0  0  0  0
  -23.1071  -29.6591   22.2846 C   0  0  2  0  0  0  0  0  0  0  0  0
  -17.5760  -23.7865   17.6813 C   0  0  0  0  0  0  0  0  0  0  0  0
  -18.9971  -25.8305   17.2840 C   0  0  0  0  0  0  0  0  0  0  0  0
  -19.4235  -11.2761   23.0071 C   0  0  0  0  0  0  0  0  0  0  0  0
  -22.9323  -24.4765   23.4046 C   0  0  0  0  0  0  0  0  0  0  0  0
  -23.4143  -14.1736   18.5857 C   0  0  0  0  0  0  0  0  0  0  0  0
  -21.2315  -13.0603   19.0994 C   0  0  0  0  0  0  0  0  0  0  0  0
  -23.3693  -11.8130   19.4100 C   0  0  0  0  0  0  0  0  0  0  0  0
  -21.1923  -13.2436   25.7413 C   0  0  0  0  0  0  0  0  0  0  0  0
  -18.4097  -25.4502   21.2237 C   0  0  0  0  0  0  0  0  0  0  0  0
  -18.6308  -26.9504   21.0015 C   0  0  0  0  0  0  0  0  0  0  0  0
  -23.1842  -22.0133   23.8597 C   0  0  0  0  0  0  0  0  0  1  0  0
  -18.4171  -24.8876   18.3567 C   0  0  0  0  0  0  0  0  0  0  0  0
  -22.7636  -13.6569   21.0302 C   0  0  1  0  0  0  0  0  0  0  0  0
  -20.5892  -12.0038   23.6586 C   0  0  2  0  0  0  0  0  0  0  0  0
  -22.3503  -23.0892   23.1674 C   0  0  2  0  0  0  0  0  0  0  0  0
  -22.7027  -13.1993   19.5455 C   0  0  0  0  0  0  0  0  0  0  0  0
  -25.1666  -28.6044   21.4311 N   0  0  0  0  0  0  0  0  0  0  0  0
  -20.3992  -24.1134   21.4651 N   0  0  0  0  0  0  0  0  0  0  0  0
  -21.4520  -23.0179   19.5946 N   0  0  0  0  0  0  0  0  0  0  0  0
  -24.3621  -29.6809   21.4317 N   0  0  0  0  0  0  0  0  0  0  0  0
  -24.5287  -15.1189   21.9632 N   0  0  0  0  0  0  0  0  0  0  0  0
  -21.2994  -28.2740   23.2342 N   0  0  0  0  0  0  0  0  0  0  0  0
  -20.5400  -23.2287   17.4170 N   0  0  0  0  0  0  0  0  0  0  0  0
  -24.1086  -31.8500   20.5145 N   0  0  0  0  0  0  0  0  0  0  0  0
  -27.9591  -30.3812   18.6673 N   0  0  0  0  0  0  0  0  0  0  0  0
  -22.3161  -22.8337   21.7413 N   0  0  0  0  0  0  0  0  0  0  0  0
  -27.8566  -15.7113   20.8209 N   0  0  0  0  0  0  0  0  0  0  0  0
  -22.1211  -12.7395   21.9650 N   0  0  0  0  0  0  0  0  0  0  0  0
  -19.8923  -27.4022   21.5448 N   0  0  0  0  0  0  0  0  0  0  0  0
  -20.1384  -12.5248   24.9801 N   0  3  0  0  0  0  0  0  0  0  0  0
  -26.5037  -32.1497   18.7794 O   0  0  0  0  0  0  0  0  0  0  0  0
  -25.8244  -16.7230   20.3018 O   0  0  0  0  0  0  0  0  0  0  0  0
  -24.9477  -12.8694   21.5156 O   0  0  0  0  0  0  0  0  0  0  0  0
  -20.6069  -14.2712   22.8243 O   0  0  0  0  0  0  0  0  0  0  0  0
  -19.0408  -27.9082   23.6127 O   0  0  0  0  0  0  0  0  0  0  0  0
  -30.3512  -25.4265   19.5415 O   0  0  0  0  0  0  0  0  0  0  0  0
  -22.5980  -20.7288   23.6527 O   0  0  0  0  0  0  0  0  0  1  0  0
  -29.0793  -20.1559   18.5377 F   0  0  0  0  0  0  0  0  0  0  0  0
  -31.0239  -24.2381   17.1378 F   0  0  0  0  0  0  0  0  0  0  0  0
  1  2  1  0  0  0  0
  1  5  2  0  0  0  0
  2  6  2  0  0  0  0
  3  8  2  0  0  0  0
  3 15  1  0  0  0  0
  4  9  1  0  0  0  0
  4 15  2  0  0  0  0
  5 17  1  0  0  0  0
  6 19  1  0  0  0  0
  7 10  2  0  0  0  0
  7 18  1  0  0  0  0
  8 22  1  0  0  0  0
  9 22  2  0  0  0  0
 10 23  1  0  0  0  0
 11 12  2  0  0  0  0
 11 24  1  0  0  0  0
 12 25  1  0  0  0  0
 13 20  1  0  0  0  0
 13 23  2  0  0  0  0
 14 25  2  0  0  0  0
 14 26  1  0  0  0  0
 15 27  1  0  0  0  0
 16 27  1  0  0  0  0
 16 30  2  0  0  0  0
 16 32  1  0  0  0  0
 17 19  2  0  0  0  0
 17 37  1  0  0  0  0
 18 20  2  0  0  0  0
 18 38  1  0  0  0  0
 19 46  1  0  0  0  0
 20 39  1  0  0  0  0
 21 28  2  0  0  0  0
 21 29  1  0  0  0  0
 21 60  1  0  0  0  0
 22 84  1  0  0  0  0
 23 85  1  0  0  0  0
 24 26  2  0  0  0  0
 24 84  1  0  0  0  0
 25 86  1  0  0  0  0
 26 87  1  0  0  0  0
 27 65  2  0  0  0  0
 28 57  1  0  0  0  0
 28 66  1  0  0  0  0
 29 67  2  0  0  0  0
 29 71  1  0  0  0  0
 30 68  1  0  0  0  0
 30 72  1  0  0  0  0
 31 66  2  0  0  0  0
 31 67  1  0  0  0  0
 31 74  1  0  0  0  0
 32 73  1  0  0  0  0
 32 79  2  0  0  0  0
 33 47  1  0  0  0  0
 33 75  1  0  0  0  0
 33 80  2  0  0  0  0
 34 61  1  0  0  0  0
 34 69  1  0  0  0  0
 34 81  2  0  0  0  0
 35 62  1  0  0  0  0
 35 76  1  0  0  0  0
 35 82  2  0  0  0  0
 36 70  1  0  0  0  0
 36 77  1  0  0  0  0
 36 83  2  0  0  0  0
 37 40  1  0  0  0  0
 38 47  1  0  0  0  0
 39 69  1  0  0  0  0
 40 42  1  0  0  0  0
 41 43  1  0  0  0  0
 41 44  1  0  0  0  0
 42 46  1  0  0  0  0
 43 48  1  0  0  0  0
 44 70  1  0  0  0  0
 45 48  1  0  0  0  0
 45 70  1  0  0  0  0
 46 75  1  0  0  0  0
 47 69  1  0  0  0  0
 48 68  1  0  0  0  0
 49 60  1  0  0  0  0
 50 60  1  0  0  0  0
 51 62  1  0  0  0  0
 52 63  1  0  0  0  0
 53 64  1  0  0  0  0
 54 64  1  0  0  0  0
 55 64  1  0  0  0  0
 56 78  1  0  0  0  0
 57 58  1  0  0  0  0
 58 77  1  0  0  0  0
 59 63  1  0  0  0  0
 59 85  1  0  0  0  0
 61 64  1  0  0  0  0
 61 76  1  0  0  0  0
 62 78  1  0  0  0  0
 63 74  1  0  0  0  0
 65 68  1  0  0  0  0
M  CHG  1  78   1
M  ISO  4  36 100  59 101  77 100  85 101
M  END
> <Batch ID>
0196

> <Smiles>
CNC(C)C(=O)NC(C(=O)N1Cc2cc([101O:1][101CH2:1]C(C)Nc3nc(N)c(C(C)C)c(CC[100NH:0][100C:0](=O)N4CCCC(n5nc(-c6ccc(Oc7ccc(F)cc7F)cc6)c(C(N)=O)c5N)C4)n3)ccc2CC1C(=O)NC1CCCc2ccccc21)C(C)(C)C

> <Shape>
0.239

> <Color>
0.044

> <Negative vol penalty>
0.000

$$$$

  -OEChem-04052305393D

 81 89  0     1  0  0  0  0  0999 V2000
  -31.6744  -23.6963   17.8640 C   0  0  0  0  0  0  0  0  0  0  0  0
  -30.3762  -24.1809   17.7399 C   0  0  0  0  0  0  0  0  0  0  0  0
  -26.4320  -13.8294   21.7652 C   0  0  0  0  0  0  0  0  0  0  0  0
  -26.3847  -13.3550   19.3967 C   0  0  0  0  0  0  0  0  0  0  0  0
  -32.2328  -23.5182   19.1290 C   0  0  0  0  0  0  0  0  0  0  0  0
  -29.6354  -24.4867   18.8810 C   0  0  0  0  0  0  0  0  0  0  0  0
  -27.1980  -28.9082   18.4875 C   0  0  0  0  0  0  0  0  0  0  0  0
  -25.6575  -12.6950   22.0079 C   0  0  0  0  0  0  0  0  0  0  0  0
  -25.6102  -12.2206   19.6394 C   0  0  0  0  0  0  0  0  0  0  0  0
  -26.0267  -28.9245   17.7314 C   0  0  0  0  0  0  0  0  0  0  0  0
  -23.3902  -10.1217   23.2165 C   0  0  0  0  0  0  0  0  0  0  0  0
  -22.3215  -10.2421   24.1047 C   0  0  0  0  0  0  0  0  0  0  0  0
  -24.7239  -28.8086   19.7584 C   0  0  0  0  0  0  0  0  0  0  0  0
  -21.3318  -11.9283   22.6853 C   0  0  0  0  0  0  0  0  0  0  0  0
  -22.6542  -23.1065   17.2216 C   0  0  0  0  0  0  0  0  0  0  0  0
  -26.7955  -14.1595   20.4595 C   0  0  0  0  0  0  0  0  0  0  0  0
  -29.0000  -15.4088   20.1644 C   0  0  0  0  0  0  0  0  0  0  0  0
  -31.5019  -23.8311   20.2859 C   0  0  0  0  0  0  0  0  0  0  0  0
  -27.1411  -28.8309   19.8865 C   0  0  0  0  0  0  0  0  0  0  0  0
  -30.1841  -24.3114   20.1627 C   0  0  0  0  0  0  0  0  0  0  0  0
  -25.8958  -28.7941   20.5300 C   0  0  0  0  0  0  0  0  0  0  0  0
  -25.2467  -11.8906   20.9450 C   0  0  0  0  0  0  0  0  0  0  0  0
  -24.7895  -28.8718   18.3667 C   0  0  0  0  0  0  0  0  0  0  0  0
  -23.4298  -10.9047   22.0627 C   0  0  0  0  0  0  0  0  0  0  0  0
  -21.2923  -11.1453   23.8391 C   0  0  0  0  0  0  0  0  0  0  0  0
  -22.4006  -11.8079   21.7972 C   0  0  0  0  0  0  0  0  0  0  0  0
  -27.5950  -15.3315   20.2081 C   0  0  0  0  0  0  0  0  0  0  0  0
  -23.3370  -23.6327   16.1450 C   0  0  0  0  0  0  0  0  0  0  0  0
  -29.2630  -16.7294   19.8937 C   0  0  0  0  0  0  0  0  0  0  0  0
  -22.3148  -25.4556   16.8100 C   0  0  0  0  0  0  0  0  0  0  0  0
  -29.9798  -14.3789   20.3515 C   0  0  0  0  0  0  0  0  0  0  0  0
  -28.1488  -26.7423   22.0605 C   0  0  0  0  0  0  0  0  0  0  0  0
  -27.1293  -29.0099   24.1439 C   0  0  0  0  0  0  0  0  0  0  0  0
  -25.0944  -31.6814   24.7512 C   0  0  0  0  0  0  0  0  0  0  0  0
  -26.0982  -20.8872   17.1454 C   0  0  0  0  0  0  0  0  0  0  0  0
  -32.1310  -23.5773   21.6329 C   0  0  0  0  0  0  0  0  0  0  0  0
  -28.4132  -28.8412   20.6890 C   0  0  0  0  0  0  0  0  0  0  0  0
  -25.7801  -28.7309   22.0304 C   0  0  0  0  0  0  0  0  0  0  0  0
  -31.4129  -24.2793   22.7826 C   0  0  0  0  0  0  0  0  0  0  0  0
  -27.4371  -21.1119   20.5001 C   0  0  0  0  0  0  0  0  0  0  0  0
  -29.9052  -24.0741   22.6750 C   0  0  0  0  0  0  0  0  0  0  0  0
  -27.7633  -19.6470   20.7962 C   0  0  0  0  0  0  0  0  0  0  0  0
  -26.1515  -21.2388   19.6883 C   0  0  0  0  0  0  0  0  0  0  0  0
  -26.4738  -19.0007   18.7083 C   0  0  0  0  0  0  0  0  0  0  0  0
  -29.3575  -24.6779   21.3762 C   0  0  1  0  0  0  0  0  0  0  0  0
  -28.2459  -28.2416   22.0818 C   0  0  1  0  0  0  0  0  0  0  0  0
  -27.7750  -18.8039   19.5073 C   0  0  2  0  0  0  0  0  0  0  0  0
  -24.4560  -33.3006   26.5590 C   0  0  0  0  0  0  0  0  0  0  0  0
  -25.4611  -26.8410   25.4941 C   0  0  0  0  0  0  0  0  0  0  0  0
  -24.1601  -28.6500   26.6357 C   0  0  0  0  0  0  0  0  0  0  0  0
  -26.6048  -28.4101   27.0702 C   0  0  0  0  0  0  0  0  0  0  0  0
  -26.0189  -34.0002   23.1613 C   0  0  0  0  0  0  0  0  0  0  0  0
  -24.2411  -22.8853   15.2484 C   0  0  0  0  0  0  0  0  0  0  0  0
  -25.7108  -22.8710   15.7062 C   0  0  0  0  0  0  0  0  0  0  0  0
  -22.3306  -27.7932   15.9377 C   0  0  0  0  0  0  0  0  0  0  0  0
  -23.7042  -28.3148   16.3251 C   0  0  0  0  0  0  0  0  0  1  0  0
  -25.8248  -29.3123   24.8409 C   0  0  1  0  0  0  0  0  0  0  0  0
  -25.3717  -33.0380   25.3736 C   0  0  2  0  0  0  0  0  0  0  0  0
  -25.5146  -28.3026   25.9819 C   0  0  0  0  0  0  0  0  0  0  0  0
  -27.0066  -16.5093   19.9835 N   0  0  0  0  0  0  0  0  0  0  0  0
  -23.1433  -24.9794   15.9072 N   0  0  0  0  0  0  0  0  0  0  0  0
  -28.0469  -17.3392   19.7960 N   0  0  0  0  0  0  0  0  0  0  0  0
  -27.0526  -28.7369   22.7708 N   0  0  0  0  0  0  0  0  0  0  0  0
  -26.2349  -20.4273   18.4657 N   0  0  0  0  0  0  0  0  0  0  0  0
  -30.4135  -17.4170   19.7323 N   0  0  0  0  0  0  0  0  0  0  0  0
  -29.5372  -13.0769   20.6219 N   0  0  0  0  0  0  0  0  0  0  0  0
  -21.8995  -26.7756   16.8686 N   0  0  0  0  0  0  0  0  0  0  0  0
  -29.2435  -26.1156   21.4960 N   0  0  0  0  0  0  0  0  0  0  0  0
  -25.9084  -30.7015   25.2788 N   0  0  0  0  0  0  0  0  0  0  0  0
  -25.8669  -22.2498   17.0026 N   0  0  0  0  0  0  0  0  0  0  0  0
  -25.1641  -34.1203   24.3704 N   0  3  0  0  0  0  0  0  0  0  0  0
  -31.2116  -14.6098   20.2973 O   0  0  0  0  0  0  0  0  0  0  0  0
  -27.1551  -26.1945   22.5232 O   0  0  0  0  0  0  0  0  0  0  0  0
  -28.1786  -29.0227   24.7924 O   0  0  0  0  0  0  0  0  0  0  0  0
  -24.2385  -31.5078   23.8865 O   0  0  0  0  0  0  0  0  0  0  0  0
  -26.1816  -20.1392   16.1652 O   0  0  0  0  0  0  0  0  0  0  0  0
  -24.4912  -10.7834   21.1815 O   0  0  0  0  0  0  0  0  0  0  0  0
  -23.6447  -28.8869   17.6311 O   0  0  0  0  0  0  0  0  0  1  0  0
  -20.2653  -11.2597   24.6914 F   0  0  0  0  0  0  0  0  0  0  0  0
  -22.4326  -12.5619   20.6898 F   0  0  0  0  0  0  0  0  0  0  0  0
  -21.7305  -24.3394   17.9753 S   0  0  0  0  0  0  0  0  0  0  0  0
  1  2  1  0  0  0  0
  1  5  2  0  0  0  0
  2  6  2  0  0  0  0
  3  8  2  0  0  0  0
  3 16  1  0  0  0  0
  4  9  1  0  0  0  0
  4 16  2  0  0  0  0
  5 18  1  0  0  0  0
  6 20  1  0  0  0  0
  7 10  2  0  0  0  0
  7 19  1  0  0  0  0
  8 22  1  0  0  0  0
  9 22  2  0  0  0  0
 10 23  1  0  0  0  0
 11 12  2  0  0  0  0
 11 24  1  0  0  0  0
 12 25  1  0  0  0  0
 13 21  1  0  0  0  0
 13 23  2  0  0  0  0
 14 25  2  0  0  0  0
 14 26  1  0  0  0  0
 15 28  2  0  0  0  0
 15 81  1  0  0  0  0
 16 27  1  0  0  0  0
 17 27  1  0  0  0  0
 17 29  2  0  0  0  0
 17 31  1  0  0  0  0
 18 20  2  0  0  0  0
 18 36  1  0  0  0  0
 19 21  2  0  0  0  0
 19 37  1  0  0  0  0
 20 45  1  0  0  0  0
 21 38  1  0  0  0  0
 22 77  1  0  0  0  0
 23 78  1  0  0  0  0
 24 26  2  0  0  0  0
 24 77  1  0  0  0  0
 25 79  1  0  0  0  0
 26 80  1  0  0  0  0
 27 60  2  0  0  0  0
 28 53  1  0  0  0  0
 28 61  1  0  0  0  0
 29 62  1  0  0  0  0
 29 65  1  0  0  0  0
 30 61  2  0  0  0  0
 30 67  1  0  0  0  0
 30 81  1  0  0  0  0
 31 66  1  0  0  0  0
 31 72  2  0  0  0  0
 32 46  1  0  0  0  0
 32 68  1  0  0  0  0
 32 73  2  0  0  0  0
 33 57  1  0  0  0  0
 33 63  1  0  0  0  0
 33 74  2  0  0  0  0
 34 58  1  0  0  0  0
 34 69  1  0  0  0  0
 34 75  2  0  0  0  0
 35 64  1  0  0  0  0
 35 70  1  0  0  0  0
 35 76  2  0  0  0  0
 36 39  1  0  0  0  0
 37 46  1  0  0  0  0
 38 63  1  0  0  0  0
 39 41  1  0  0  0  0
 40 42  1  0  0  0  0
 40 43  1  0  0  0  0
 41 45  1  0  0  0  0
 42 47  1  0  0  0  0
 43 64  1  0  0  0  0
 44 47  1  0  0  0  0
 44 64  1  0  0  0  0
 45 68  1  0  0  0  0
 46 63  1  0  0  0  0
 47 62  1  0  0  0  0
 48 58  1  0  0  0  0
 49 59  1  0  0  0  0
 50 59  1  0  0  0  0
 51 59  1  0  0  0  0
 52 71  1  0  0  0  0
 53 54  1  0  0  0  0
 54 70  1  0  0  0  0
 55 56  1  0  0  0  0
 55 67  1  0  0  0  0
 56 78  1  0  0  0  0
 57 59  1  0  0  0  0
 57 69  1  0  0  0  0
 58 71  1  0  0  0  0
 60 62  1  0  0  0  0
M  CHG  1  71   1
M  ISO  4  35 100  56 101  70 100  78 101
M  END
> <Batch ID>
0196

> <Smiles>
CNC(C)C(=O)NC(C(=O)N1Cc2cc([101O:1][101CH2:1]CNc3nc(CC[100NH:0][100C:0](=O)N4CCCC(n5nc(-c6ccc(Oc7ccc(F)cc7F)cc6)c(C(N)=O)c5N)C4)cs3)ccc2CC1C(=O)NC1CCCc2ccccc21)C(C)(C)C

> <Shape>
0.223

> <Color>
0.069

> <Negative vol penalty>
0.000

$$$$

  -OEChem-04052305393D

 83 91  0     1  0  0  0  0  0999 V2000
  -19.8456  -23.7460   21.8637 C   0  0  0  0  0  0  0  0  0  0  0  0
  -21.0390  -24.1732   21.2904 C   0  0  0  0  0  0  0  0  0  0  0  0
  -24.6540  -15.1573   21.5212 C   0  0  0  0  0  0  0  0  0  0  0  0
  -27.0652  -15.0101   21.4857 C   0  0  0  0  0  0  0  0  0  0  0  0
  -18.9241  -24.6819   22.3316 C   0  0  0  0  0  0  0  0  0  0  0  0
  -21.3111  -25.5366   21.1837 C   0  0  0  0  0  0  0  0  0  0  0  0
  -26.0477  -26.6858   22.5583 C   0  0  0  0  0  0  0  0  0  0  0  0
  -24.5665  -13.8072   21.1821 C   0  0  0  0  0  0  0  0  0  0  0  0
  -26.9778  -13.6599   21.1467 C   0  0  0  0  0  0  0  0  0  0  0  0
  -27.0603  -26.4190   21.6379 C   0  0  0  0  0  0  0  0  0  0  0  0
  -24.8562  -10.8226   22.7447 C   0  0  0  0  0  0  0  0  0  0  0  0
  -23.9450  -10.0353   23.4484 C   0  0  0  0  0  0  0  0  0  0  0  0
  -33.1418  -23.1042   18.2495 C   0  0  0  0  0  0  0  0  0  0  0  0
  -27.0777  -28.7432   20.9924 C   0  0  0  0  0  0  0  0  0  0  0  0
  -22.7964   -9.5212   21.3860 C   0  0  0  0  0  0  0  0  0  0  0  0
  -32.8871  -21.9064   18.8857 C   0  0  0  0  0  0  0  0  0  0  0  0
  -25.9033  -15.7588   21.6729 C   0  0  0  0  0  0  0  0  0  0  0  0
  -26.0472  -17.7038   23.3174 C   0  0  0  0  0  0  0  0  0  0  0  0
  -19.1893  -26.0573   22.2393 C   0  0  0  0  0  0  0  0  0  0  0  0
  -25.5340  -27.9834   22.6952 C   0  0  0  0  0  0  0  0  0  0  0  0
  -20.3917  -26.4918   21.6495 C   0  0  0  0  0  0  0  0  0  0  0  0
  -26.0603  -29.0244   21.9171 C   0  0  0  0  0  0  0  0  0  0  0  0
  -25.7284  -13.0584   20.9949 C   0  0  0  0  0  0  0  0  0  0  0  0
  -27.5734  -27.4472   20.8527 C   0  0  0  0  0  0  0  0  0  0  0  0
  -24.7375  -10.9594   21.3616 C   0  0  0  0  0  0  0  0  0  0  0  0
  -22.9151   -9.3845   22.7691 C   0  0  0  0  0  0  0  0  0  0  0  0
  -23.7076  -10.3087   20.6823 C   0  0  0  0  0  0  0  0  0  0  0  0
  -25.9943  -17.1537   22.0226 C   0  0  0  0  0  0  0  0  0  0  0  0
  -32.0293  -23.8187   17.8544 C   0  0  0  0  0  0  0  0  0  0  0  0
  -26.1278  -19.0593   23.1114 C   0  0  0  0  0  0  0  0  0  0  0  0
  -30.6444  -22.2217   18.6902 C   0  0  0  0  0  0  0  0  0  0  0  0
  -26.0255  -17.0481   24.5922 C   0  0  0  0  0  0  0  0  0  0  0  0
  -22.6823  -29.3230   22.2747 C   0  0  0  0  0  0  0  0  0  0  0  0
  -24.1576  -31.9319   23.5153 C   0  0  0  0  0  0  0  0  0  0  0  0
  -27.0722  -33.6090   24.0977 C   0  0  0  0  0  0  0  0  0  0  0  0
  -28.1334  -22.3865   18.5714 C   0  0  0  0  0  0  0  0  0  0  0  0
  -18.1419  -27.0322   22.7159 C   0  0  0  0  0  0  0  0  0  0  0  0
  -24.4603  -28.2600   23.7116 C   0  0  0  0  0  0  0  0  0  0  0  0
  -25.5574  -30.4387   22.0400 C   0  0  0  0  0  0  0  0  0  0  0  0
  -18.6719  -28.4511   22.9058 C   0  0  0  0  0  0  0  0  0  0  0  0
  -24.8631  -22.4527   19.9777 C   0  0  0  0  0  0  0  0  0  0  0  0
  -19.5115  -28.8726   21.7041 C   0  0  0  0  0  0  0  0  0  0  0  0
  -24.7891  -21.1544   20.7845 C   0  0  0  0  0  0  0  0  0  0  0  0
  -25.6537  -22.2717   18.6831 C   0  0  0  0  0  0  0  0  0  0  0  0
  -26.9193  -20.3954   19.6561 C   0  0  0  0  0  0  0  0  0  0  0  0
  -20.7340  -27.9617   21.5385 C   0  0  1  0  0  0  0  0  0  0  0  0
  -23.6552  -29.5185   23.4029 C   0  0  1  0  0  0  0  0  0  0  0  0
  -26.1880  -20.5444   21.0003 C   0  0  2  0  0  0  0  0  0  0  0  0
  -27.9562  -35.7339   25.0981 C   0  0  0  0  0  0  0  0  0  0  0  0
  -31.7272  -26.7943   15.6516 C   0  0  0  0  0  0  0  0  0  0  0  0
  -23.2176  -33.4770   21.0579 C   0  0  0  0  0  0  0  0  0  0  0  0
  -24.8842  -35.2570   21.6257 C   0  0  0  0  0  0  0  0  0  0  0  0
  -23.0328  -34.7322   23.2131 C   0  0  0  0  0  0  0  0  0  0  0  0
  -28.6669  -32.1353   26.1087 C   0  0  0  0  0  0  0  0  0  0  0  0
  -29.1776  -27.2108   17.6145 C   0  0  0  0  0  0  0  0  0  0  0  0
  -30.5967  -26.7017   17.9033 C   0  0  0  0  0  0  0  0  0  0  0  0
  -28.6026  -28.0043   18.7823 C   0  0  0  0  0  0  0  0  0  1  0  0
  -24.9376  -33.0915   22.9445 C   0  0  1  0  0  0  0  0  0  0  0  0
  -27.6202  -34.2720   25.3485 C   0  0  2  0  0  0  0  0  0  0  0  0
  -31.1738  -25.8814   16.7412 C   0  0  2  0  0  0  0  0  0  0  0  0
  -24.0264  -34.1125   22.2064 C   0  0  0  0  0  0  0  0  0  0  0  0
  -31.6463  -21.4329   19.1234 N   0  0  0  0  0  0  0  0  0  0  0  0
  -26.0375  -18.0838   21.0650 N   0  0  0  0  0  0  0  0  0  0  0  0
  -30.7614  -23.4057   18.0593 N   0  0  0  0  0  0  0  0  0  0  0  0
  -26.1183  -19.2321   21.7586 N   0  0  0  0  0  0  0  0  0  0  0  0
  -24.5025  -30.6575   23.0434 N   0  0  0  0  0  0  0  0  0  0  0  0
  -26.9693  -21.6938   18.9658 N   0  0  0  0  0  0  0  0  0  0  0  0
  -26.2050  -20.1085   23.9574 N   0  0  0  0  0  0  0  0  0  0  0  0
  -25.9398  -15.6495   24.6228 N   0  0  0  0  0  0  0  0  0  0  0  0
  -32.2426  -25.0257   17.2131 N   0  0  0  0  0  0  0  0  0  0  0  0
  -29.3266  -21.7559   18.9226 N   0  0  0  0  0  0  0  0  0  0  0  0
  -21.7615  -28.3162   22.4939 N   0  0  0  0  0  0  0  0  0  0  0  0
  -25.6950  -33.6599   24.0543 N   0  0  0  0  0  0  0  0  0  0  0  0
  -28.8573  -33.5768   25.8037 N   0  3  0  0  0  0  0  0  0  0  0  0
  -26.0639  -17.6846   25.6725 O   0  0  0  0  0  0  0  0  0  0  0  0
  -22.7602  -30.0339   21.2796 O   0  0  0  0  0  0  0  0  0  0  0  0
  -23.2797  -32.1482   24.3544 O   0  0  0  0  0  0  0  0  0  0  0  0
  -27.7939  -33.1004   23.2427 O   0  0  0  0  0  0  0  0  0  0  0  0
  -28.0764  -23.4735   17.9907 O   0  0  0  0  0  0  0  0  0  0  0  0
  -25.6434  -11.7408   20.6643 O   0  0  0  0  0  0  0  0  0  0  0  0
  -28.5614  -27.1894   19.9530 O   0  0  0  0  0  0  0  0  0  1  0  0
  -22.0410   -8.6272   23.4448 F   0  0  0  0  0  0  0  0  0  0  0  0
  -23.5892  -10.4353   19.3535 F   0  0  0  0  0  0  0  0  0  0  0  0
  1  2  1  0  0  0  0
  1  5  2  0  0  0  0
  2  6  2  0  0  0  0
  3  8  2  0  0  0  0
  3 17  1  0  0  0  0
  4  9  1  0  0  0  0
  4 17  2  0  0  0  0
  5 19  1  0  0  0  0
  6 21  1  0  0  0  0
  7 10  2  0  0  0  0
  7 20  1  0  0  0  0
  8 23  1  0  0  0  0
  9 23  2  0  0  0  0
 10 24  1  0  0  0  0
 11 12  2  0  0  0  0
 11 25  1  0  0  0  0
 12 26  1  0  0  0  0
 13 16  2  0  0  0  0
 13 29  1  0  0  0  0
 14 22  1  0  0  0  0
 14 24  2  0  0  0  0
 15 26  2  0  0  0  0
 15 27  1  0  0  0  0
 16 62  1  0  0  0  0
 17 28  1  0  0  0  0
 18 28  1  0  0  0  0
 18 30  2  0  0  0  0
 18 32  1  0  0  0  0
 19 21  2  0  0  0  0
 19 37  1  0  0  0  0
 20 22  2  0  0  0  0
 20 38  1  0  0  0  0
 21 46  1  0  0  0  0
 22 39  1  0  0  0  0
 23 80  1  0  0  0  0
 24 81  1  0  0  0  0
 25 27  2  0  0  0  0
 25 80  1  0  0  0  0
 26 82  1  0  0  0  0
 27 83  1  0  0  0  0
 28 63  2  0  0  0  0
 29 64  2  0  0  0  0
 29 70  1  0  0  0  0
 30 65  1  0  0  0  0
 30 68  1  0  0  0  0
 31 62  2  0  0  0  0
 31 64  1  0  0  0  0
 31 71  1  0  0  0  0
 32 69  1  0  0  0  0
 32 75  2  0  0  0  0
 33 47  1  0  0  0  0
 33 72  1  0  0  0  0
 33 76  2  0  0  0  0
 34 58  1  0  0  0  0
 34 66  1  0  0  0  0
 34 77  2  0  0  0  0
 35 59  1  0  0  0  0
 35 73  1  0  0  0  0
 35 78  2  0  0  0  0
 36 67  1  0  0  0  0
 36 71  1  0  0  0  0
 36 79  2  0  0  0  0
 37 40  1  0  0  0  0
 38 47  1  0  0  0  0
 39 66  1  0  0  0  0
 40 42  1  0  0  0  0
 41 43  1  0  0  0  0
 41 44  1  0  0  0  0
 42 46  1  0  0  0  0
 43 48  1  0  0  0  0
 44 67  1  0  0  0  0
 45 48  1  0  0  0  0
 45 67  1  0  0  0  0
 46 72  1  0  0  0  0
 47 66  1  0  0  0  0
 48 65  1  0  0  0  0
 49 59  1  0  0  0  0
 50 60  1  0  0  0  0
 51 61  1  0  0  0  0
 52 61  1  0  0  0  0
 53 61  1  0  0  0  0
 54 74  1  0  0  0  0
 55 56  1  0  0  0  0
 55 57  1  0  0  0  0
 56 60  1  0  0  0  0
 57 81  1  0  0  0  0
 58 61  1  0  0  0  0
 58 73  1  0  0  0  0
 59 74  1  0  0  0  0
 60 70  1  0  0  0  0
 63 65  1  0  0  0  0
M  CHG  1  74   1
M  ISO  4  36 100  57 101  71 100  81 101
M  END
> <Batch ID>
0196

> <Smiles>
CNC(C)C(=O)NC(C(=O)N1Cc2cc([101O:1][101CH2:1]CCC(C)Nc3ccnc([100NH:0][100C:0](=O)N4CCCC(n5nc(-c6ccc(Oc7ccc(F)cc7F)cc6)c(C(N)=O)c5N)C4)n3)ccc2CC1C(=O)NC1CCCc2ccccc21)C(C)(C)C

> <Shape>
0.246

> <Color>
0.092

> <Negative vol penalty>
0.000

$$$$

  -OEChem-04052305393D

 82 90  0     1  0  0  0  0  0999 V2000
  -18.8898  -32.9241   19.9530 C   0  0  0  0  0  0  0  0  0  0  0  0
  -20.1334  -32.4439   19.5550 C   0  0  0  0  0  0  0  0  0  0  0  0
  -24.2560  -13.6538   20.6381 C   0  0  0  0  0  0  0  0  0  0  0  0
  -26.5560  -13.2766   20.0019 C   0  0  0  0  0  0  0  0  0  0  0  0
  -18.4574  -32.7334   21.2647 C   0  0  0  0  0  0  0  0  0  0  0  0
  -20.9458  -31.7736   20.4689 C   0  0  0  0  0  0  0  0  0  0  0  0
  -24.7338  -27.1066   19.2959 C   0  0  0  0  0  0  0  0  0  0  0  0
  -23.9732  -12.3063   20.4147 C   0  0  0  0  0  0  0  0  0  0  0  0
  -26.2733  -11.9290   19.7786 C   0  0  0  0  0  0  0  0  0  0  0  0
  -26.1095  -27.0472   19.0777 C   0  0  0  0  0  0  0  0  0  0  0  0
  -24.4091   -9.3685   22.0310 C   0  0  0  0  0  0  0  0  0  0  0  0
  -23.6484   -8.6983   22.9890 C   0  0  0  0  0  0  0  0  0  0  0  0
  -26.4486  -26.5004   21.4026 C   0  0  0  0  0  0  0  0  0  0  0  0
  -21.9687   -8.2189   21.3199 C   0  0  0  0  0  0  0  0  0  0  0  0
  -32.1134  -22.0434   18.1707 C   0  0  0  0  0  0  0  0  0  0  0  0
  -25.5474  -14.1389   20.4316 C   0  0  0  0  0  0  0  0  0  0  0  0
  -26.2700  -16.1217   21.8649 C   0  0  0  0  0  0  0  0  0  0  0  0
  -19.2608  -32.0519   22.1926 C   0  0  0  0  0  0  0  0  0  0  0  0
  -24.2051  -26.8737   20.5737 C   0  0  0  0  0  0  0  0  0  0  0  0
  -20.5242  -31.5748   21.7946 C   0  0  0  0  0  0  0  0  0  0  0  0
  -25.0656  -26.5549   21.6339 C   0  0  0  0  0  0  0  0  0  0  0  0
  -24.9819  -11.4439   19.9850 C   0  0  0  0  0  0  0  0  0  0  0  0
  -26.9674  -26.7470   20.1317 C   0  0  0  0  0  0  0  0  0  0  0  0
  -23.9496   -9.4639   20.7174 C   0  0  0  0  0  0  0  0  0  0  0  0
  -22.4283   -8.1235   22.6335 C   0  0  0  0  0  0  0  0  0  0  0  0
  -22.7294   -8.8891   20.3619 C   0  0  0  0  0  0  0  0  0  0  0  0
  -25.8400  -15.5309   20.6615 C   0  0  0  0  0  0  0  0  0  0  0  0
  -31.5195  -22.9234   17.2904 C   0  0  0  0  0  0  0  0  0  0  0  0
  -26.4061  -17.4548   21.5634 C   0  0  0  0  0  0  0  0  0  0  0  0
  -30.6087  -21.0652   16.5641 C   0  0  0  0  0  0  0  0  0  0  0  0
  -26.5237  -15.5193   23.1410 C   0  0  0  0  0  0  0  0  0  0  0  0
  -22.5325  -28.5955   22.6572 C   0  0  0  0  0  0  0  0  0  0  0  0
  -22.4204  -25.7946   24.2896 C   0  0  0  0  0  0  0  0  0  0  0  0
  -30.0671  -25.5515   18.7070 C   0  0  0  0  0  0  0  0  0  0  0  0
  -23.8166  -22.7419   24.9047 C   0  0  0  0  0  0  0  0  0  0  0  0
  -27.4165  -20.3956   16.4466 C   0  0  0  0  0  0  0  0  0  0  0  0
  -18.7708  -31.9115   23.6120 C   0  0  0  0  0  0  0  0  0  0  0  0
  -22.7167  -26.9152   20.7868 C   0  0  0  0  0  0  0  0  0  0  0  0
  -24.5468  -26.2766   23.0202 C   0  0  0  0  0  0  0  0  0  0  0  0
  -19.5323  -30.8625   24.4183 C   0  0  0  0  0  0  0  0  0  0  0  0
  -24.6625  -20.8343   18.6600 C   0  0  0  0  0  0  0  0  0  0  0  0
  -21.0360  -31.0247   24.2198 C   0  0  0  0  0  0  0  0  0  0  0  0
  -24.6907  -19.5781   19.5325 C   0  0  0  0  0  0  0  0  0  0  0  0
  -25.0668  -20.5298   17.2192 C   0  0  0  0  0  0  0  0  0  0  0  0
  -26.3885  -18.5804   17.9448 C   0  0  0  0  0  0  0  0  0  0  0  0
  -21.4236  -30.8210   22.7502 C   0  0  1  0  0  0  0  0  0  0  0  0
  -22.3281  -27.1665   22.2405 C   0  0  1  0  0  0  0  0  0  0  0  0
  -26.0422  -18.8473   19.4197 C   0  0  2  0  0  0  0  0  0  0  0  0
  -24.0405  -20.4351   25.8671 C   0  0  0  0  0  0  0  0  0  0  0  0
  -23.5210  -27.3018   26.7035 C   0  0  0  0  0  0  0  0  0  0  0  0
  -24.0909  -25.0929   27.7351 C   0  0  0  0  0  0  0  0  0  0  0  0
  -21.7131  -25.6578   27.2357 C   0  0  0  0  0  0  0  0  0  0  0  0
  -22.3051  -21.5349   22.6647 C   0  0  0  0  0  0  0  0  0  0  0  0
  -31.7339  -24.4090   17.2571 C   0  0  0  0  0  0  0  0  0  0  0  0
  -29.7882  -20.1283   15.7661 C   0  0  0  0  0  0  0  0  0  0  0  0
  -28.7483  -26.2900   18.6233 C   0  0  0  0  0  0  0  0  0  1  0  0
  -23.2878  -25.1281   25.3300 C   0  0  1  0  0  0  0  0  0  0  0  0
  -23.2076  -21.3538   24.9867 C   0  0  2  0  0  0  0  0  0  0  0  0
  -23.1635  -25.8022   26.7255 C   0  0  0  0  0  0  0  0  0  0  0  0
  -25.7114  -16.4161   19.6697 N   0  0  0  0  0  0  0  0  0  0  0  0
  -30.6567  -22.3642   16.3681 N   0  0  0  0  0  0  0  0  0  0  0  0
  -26.0625  -17.5767   20.2492 N   0  0  0  0  0  0  0  0  0  0  0  0
  -23.0844  -26.3355   23.1795 N   0  0  0  0  0  0  0  0  0  0  0  0
  -26.3575  -19.8381   17.1820 N   0  0  0  0  0  0  0  0  0  0  0  0
  -26.7849  -18.5228   22.2970 N   0  0  0  0  0  0  0  0  0  0  0  0
  -26.3339  -14.1374   23.2770 N   0  0  0  0  0  0  0  0  0  0  0  0
  -21.4420  -29.4113   22.4231 N   0  0  0  0  0  0  0  0  0  0  0  0
  -30.5027  -25.1375   17.4580 N   0  0  0  0  0  0  0  0  0  0  0  0
  -22.9292  -23.7140   25.3154 N   0  0  0  0  0  0  0  0  0  0  0  0
  -28.6071  -19.6794   16.4692 N   0  0  0  0  0  0  0  0  0  0  0  0
  -23.1161  -20.7472   23.6285 N   0  3  0  0  0  0  0  0  0  0  0  0
  -26.8915  -16.1894   24.1356 O   0  0  0  0  0  0  0  0  0  0  0  0
  -23.5999  -28.9327   23.1557 O   0  0  0  0  0  0  0  0  0  0  0  0
  -21.1981  -25.8276   24.4524 O   0  0  0  0  0  0  0  0  0  0  0  0
  -30.6539  -25.3578   19.7682 O   0  0  0  0  0  0  0  0  0  0  0  0
  -24.9660  -22.9433   24.5188 O   0  0  0  0  0  0  0  0  0  0  0  0
  -27.3106  -21.4559   15.8210 O   0  0  0  0  0  0  0  0  0  0  0  0
  -24.7063  -10.1289   19.7673 O   0  0  0  0  0  0  0  0  0  0  0  0
  -28.3107  -26.6890   19.9216 O   0  0  0  0  0  0  0  0  0  1  0  0
  -21.6986   -7.4787   23.5533 F   0  0  0  0  0  0  0  0  0  0  0  0
  -22.2833   -8.9765   19.1013 F   0  0  0  0  0  0  0  0  0  0  0  0
  -31.5755  -20.4487   17.8408 S   0  0  0  0  0  0  0  0  0  0  0  0
  1  2  1  0  0  0  0
  1  5  2  0  0  0  0
  2  6  2  0  0  0  0
  3  8  2  0  0  0  0
  3 16  1  0  0  0  0
  4  9  1  0  0  0  0
  4 16  2  0  0  0  0
  5 18  1  0  0  0  0
  6 20  1  0  0  0  0
  7 10  2  0  0  0  0
  7 19  1  0  0  0  0
  8 22  1  0  0  0  0
  9 22  2  0  0  0  0
 10 23  1  0  0  0  0
 11 12  2  0  0  0  0
 11 24  1  0  0  0  0
 12 25  1  0  0  0  0
 13 21  1  0  0  0  0
 13 23  2  0  0  0  0
 14 25  2  0  0  0  0
 14 26  1  0  0  0  0
 15 28  2  0  0  0  0
 15 82  1  0  0  0  0
 16 27  1  0  0  0  0
 17 27  1  0  0  0  0
 17 29  2  0  0  0  0
 17 31  1  0  0  0  0
 18 20  2  0  0  0  0
 18 37  1  0  0  0  0
 19 21  2  0  0  0  0
 19 38  1  0  0  0  0
 20 46  1  0  0  0  0
 21 39  1  0  0  0  0
 22 78  1  0  0  0  0
 23 79  1  0  0  0  0
 24 26  2  0  0  0  0
 24 78  1  0  0  0  0
 25 80  1  0  0  0  0
 26 81  1  0  0  0  0
 27 60  2  0  0  0  0
 28 54  1  0  0  0  0
 28 61  1  0  0  0  0
 29 62  1  0  0  0  0
 29 65  1  0  0  0  0
 30 55  1  0  0  0  0
 30 61  2  0  0  0  0
 30 82  1  0  0  0  0
 31 66  1  0  0  0  0
 31 72  2  0  0  0  0
 32 47  1  0  0  0  0
 32 67  1  0  0  0  0
 32 73  2  0  0  0  0
 33 57  1  0  0  0  0
 33 63  1  0  0  0  0
 33 74  2  0  0  0  0
 34 56  1  0  0  0  0
 34 68  1  0  0  0  0
 34 75  2  0  0  0  0
 35 58  1  0  0  0  0
 35 69  1  0  0  0  0
 35 76  2  0  0  0  0
 36 64  1  0  0  0  0
 36 70  1  0  0  0  0
 36 77  2  0  0  0  0
 37 40  1  0  0  0  0
 38 47  1  0  0  0  0
 39 63  1  0  0  0  0
 40 42  1  0  0  0  0
 41 43  1  0  0  0  0
 41 44  1  0  0  0  0
 42 46  1  0  0  0  0
 43 48  1  0  0  0  0
 44 64  1  0  0  0  0
 45 48  1  0  0  0  0
 45 64  1  0  0  0  0
 46 67  1  0  0  0  0
 47 63  1  0  0  0  0
 48 62  1  0  0  0  0
 49 58  1  0  0  0  0
 50 59  1  0  0  0  0
 51 59  1  0  0  0  0
 52 59  1  0  0  0  0
 53 71  1  0  0  0  0
 54 68  1  0  0  0  0
 55 70  1  0  0  0  0
 56 79  1  0  0  0  0
 57 59  1  0  0  0  0
 57 69  1  0  0  0  0
 58 71  1  0  0  0  0
 60 62  1  0  0  0  0
M  CHG  1  71   1
M  ISO  4  36 100  56 101  70 100  79 101
M  END
> <Batch ID>
0196

> <Smiles>
CNC(C)C(=O)NC(C(=O)N1Cc2cc([101O:1][101CH2:1]C(=O)NCc3csc(C[100NH:0][100C:0](=O)N4CCCC(n5nc(-c6ccc(Oc7ccc(F)cc7F)cc6)c(C(N)=O)c5N)C4)n3)ccc2CC1C(=O)NC1CCCc2ccccc21)C(C)(C)C

> <Shape>
0.170

> <Color>
0.106

> <Negative vol penalty>
0.000

$$$$

  -OEChem-04052305393D

 82 90  0     1  0  0  0  0  0999 V2000
  -19.1884  -33.4954   22.2969 C   0  0  0  0  0  0  0  0  0  0  0  0
  -20.5294  -33.2796   21.9956 C   0  0  0  0  0  0  0  0  0  0  0  0
  -26.1928  -13.3304   21.0746 C   0  0  0  0  0  0  0  0  0  0  0  0
  -24.7065  -14.7337   19.7867 C   0  0  0  0  0  0  0  0  0  0  0  0
  -18.4705  -32.5325   23.0049 C   0  0  0  0  0  0  0  0  0  0  0  0
  -21.1535  -32.1011   22.4031 C   0  0  0  0  0  0  0  0  0  0  0  0
  -25.5170  -29.0200   19.4078 C   0  0  0  0  0  0  0  0  0  0  0  0
  -25.1082  -12.5515   21.4777 C   0  0  0  0  0  0  0  0  0  0  0  0
  -23.6218  -13.9547   20.1898 C   0  0  0  0  0  0  0  0  0  0  0  0
  -26.9042  -28.9886   19.5432 C   0  0  0  0  0  0  0  0  0  0  0  0
  -22.7783   -9.9777   22.5559 C   0  0  0  0  0  0  0  0  0  0  0  0
  -22.9252   -8.5912   22.5159 C   0  0  0  0  0  0  0  0  0  0  0  0
  -28.1700  -22.5454   16.8005 C   0  0  0  0  0  0  0  0  0  0  0  0
  -26.7187  -27.0210   20.9264 C   0  0  0  0  0  0  0  0  0  0  0  0
  -23.3346   -8.7033   20.1374 C   0  0  0  0  0  0  0  0  0  0  0  0
  -28.2611  -23.6102   15.9275 C   0  0  0  0  0  0  0  0  0  0  0  0
  -25.9920  -14.4216   20.2292 C   0  0  0  0  0  0  0  0  0  0  0  0
  -27.9188  -15.0376   18.6750 C   0  0  0  0  0  0  0  0  0  0  0  0
  -19.0836  -31.3374   23.4129 C   0  0  0  0  0  0  0  0  0  0  0  0
  -24.7181  -28.0569   20.0407 C   0  0  0  0  0  0  0  0  0  0  0  0
  -20.4434  -31.1219   23.1185 C   0  0  0  0  0  0  0  0  0  0  0  0
  -25.3217  -27.0409   20.7954 C   0  0  0  0  0  0  0  0  0  0  0  0
  -23.8227  -12.8636   21.0353 C   0  0  0  0  0  0  0  0  0  0  0  0
  -27.5051  -27.9907   20.3050 C   0  0  0  0  0  0  0  0  0  0  0  0
  -22.9095  -10.7270   21.3867 C   0  0  0  0  0  0  0  0  0  0  0  0
  -23.2034   -7.9540   21.3067 C   0  0  0  0  0  0  0  0  0  0  0  0
  -23.1877  -10.0898   20.1775 C   0  0  0  0  0  0  0  0  0  0  0  0
  -27.1119  -15.2269   19.8129 C   0  0  0  0  0  0  0  0  0  0  0  0
  -28.7799  -22.7237   18.0254 C   0  0  0  0  0  0  0  0  0  0  0  0
  -28.8348  -16.0596   18.7297 C   0  0  0  0  0  0  0  0  0  0  0  0
  -29.4503  -24.8164   17.4435 C   0  0  0  0  0  0  0  0  0  0  0  0
  -27.8467  -14.0282   17.6593 C   0  0  0  0  0  0  0  0  0  0  0  0
  -22.4431  -28.1359   22.2592 C   0  0  0  0  0  0  0  0  0  0  0  0
  -22.1921  -24.9788   21.5580 C   0  0  0  0  0  0  0  0  0  0  0  0
  -23.6670  -22.1583   20.3267 C   0  0  0  0  0  0  0  0  0  0  0  0
  -29.2528  -21.6189   20.2395 C   0  0  0  0  0  0  0  0  0  0  0  0
  -18.2794  -30.3468   24.2172 C   0  0  0  0  0  0  0  0  0  0  0  0
  -23.2249  -28.0889   19.8629 C   0  0  0  0  0  0  0  0  0  0  0  0
  -24.5101  -25.9716   21.4784 C   0  0  0  0  0  0  0  0  0  0  0  0
  -18.9145  -28.9604   24.2868 C   0  0  0  0  0  0  0  0  0  0  0  0
  -30.5412  -19.0221   22.3068 C   0  0  0  0  0  0  0  0  0  0  0  0
  -20.4007  -29.0698   24.6126 C   0  0  0  0  0  0  0  0  0  0  0  0
  -29.8680  -17.7592   21.7644 C   0  0  0  0  0  0  0  0  0  0  0  0
  -29.6023  -20.2265   22.2678 C   0  0  0  0  0  0  0  0  0  0  0  0
  -28.3154  -19.2304   20.4183 C   0  0  0  0  0  0  0  0  0  0  0  0
  -21.1490  -29.8453   23.5218 C   0  0  1  0  0  0  0  0  0  0  0  0
  -22.4751  -27.3594   20.9733 C   0  0  1  0  0  0  0  0  0  0  0  0
  -29.2432  -18.0052   20.3771 C   0  0  2  0  0  0  0  0  0  0  0  0
  -23.2246  -19.7223   19.9171 C   0  0  0  0  0  0  0  0  0  0  0  0
  -32.0994  -25.4776   19.0540 C   0  0  0  0  0  0  0  0  0  0  0  0
  -22.5357  -24.4178   24.5375 C   0  0  0  0  0  0  0  0  0  0  0  0
  -23.0356  -22.0335   23.9598 C   0  0  0  0  0  0  0  0  0  0  0  0
  -20.8083  -23.0093   23.4032 C   0  0  0  0  0  0  0  0  0  0  0  0
  -24.0716  -22.4562   17.4101 C   0  0  0  0  0  0  0  0  0  0  0  0
  -30.9508  -27.7071   19.2887 C   0  0  0  0  0  0  0  0  0  0  0  0
  -29.6317  -28.4704   19.3546 C   0  0  0  0  0  0  0  0  0  1  0  0
  -22.8384  -23.7149   22.0717 C   0  0  1  0  0  0  0  0  0  0  0  0
  -23.1837  -21.1233   19.3269 C   0  0  2  0  0  0  0  0  0  0  0  0
  -30.7591  -26.2061   19.0501 C   0  0  1  0  0  0  0  0  0  0  0  0
  -22.3200  -23.3150   23.4819 C   0  0  0  0  0  0  0  0  0  0  0  0
  -28.8959  -24.7649   16.2173 N   0  0  0  0  0  0  0  0  0  0  0  0
  -27.4828  -16.2858   20.5376 N   0  0  0  0  0  0  0  0  0  0  0  0
  -29.4314  -23.8503   18.3816 N   0  0  0  0  0  0  0  0  0  0  0  0
  -28.5328  -16.7710   19.8535 N   0  0  0  0  0  0  0  0  0  0  0  0
  -23.0534  -26.0495   21.2797 N   0  0  0  0  0  0  0  0  0  0  0  0
  -29.0519  -20.4004   20.9219 N   0  0  0  0  0  0  0  0  0  0  0  0
  -29.8611  -16.4100   17.9258 N   0  0  0  0  0  0  0  0  0  0  0  0
  -26.8442  -13.0536   17.7558 N   0  0  0  0  0  0  0  0  0  0  0  0
  -28.7121  -21.6562   18.9547 N   0  0  0  0  0  0  0  0  0  0  0  0
  -30.1108  -25.9860   17.7741 N   0  0  0  0  0  0  0  0  0  0  0  0
  -21.3728  -29.0034   22.3662 N   0  0  0  0  0  0  0  0  0  0  0  0
  -22.6227  -22.7002   21.0459 N   0  0  0  0  0  0  0  0  0  0  0  0
  -24.0381  -21.1441   18.1060 N   0  3  0  0  0  0  0  0  0  0  0  0
  -28.6578  -13.9821   16.7035 O   0  0  0  0  0  0  0  0  0  0  0  0
  -23.3234  -27.9600   23.0933 O   0  0  0  0  0  0  0  0  0  0  0  0
  -20.9688  -25.0123   21.4025 O   0  0  0  0  0  0  0  0  0  0  0  0
  -24.8526  -22.4535   20.4593 O   0  0  0  0  0  0  0  0  0  0  0  0
  -29.8835  -22.5502   20.7464 O   0  0  0  0  0  0  0  0  0  0  0  0
  -22.7642  -12.1036   21.4282 O   0  0  0  0  0  0  0  0  0  0  0  0
  -28.8589  -27.9582   20.4393 O   0  0  0  0  0  0  0  0  0  1  0  0
  -23.3459   -6.6227   21.2687 F   0  0  0  0  0  0  0  0  0  0  0  0
  -23.3161  -10.8044   19.0511 F   0  0  0  0  0  0  0  0  0  0  0  0
  1  2  1  0  0  0  0
  1  5  2  0  0  0  0
  2  6  2  0  0  0  0
  3  8  2  0  0  0  0
  3 17  1  0  0  0  0
  4  9  1  0  0  0  0
  4 17  2  0  0  0  0
  5 19  1  0  0  0  0
  6 21  1  0  0  0  0
  7 10  2  0  0  0  0
  7 20  1  0  0  0  0
  8 23  1  0  0  0  0
  9 23  2  0  0  0  0
 10 24  1  0  0  0  0
 11 12  2  0  0  0  0
 11 25  1  0  0  0  0
 12 26  1  0  0  0  0
 13 16  1  0  0  0  0
 13 29  2  0  0  0  0
 14 22  1  0  0  0  0
 14 24  2  0  0  0  0
 15 26  2  0  0  0  0
 15 27  1  0  0  0  0
 16 61  2  0  0  0  0
 17 28  1  0  0  0  0
 18 28  1  0  0  0  0
 18 30  2  0  0  0  0
 18 32  1  0  0  0  0
 19 21  2  0  0  0  0
 19 37  1  0  0  0  0
 20 22  2  0  0  0  0
 20 38  1  0  0  0  0
 21 46  1  0  0  0  0
 22 39  1  0  0  0  0
 23 79  1  0  0  0  0
 24 80  1  0  0  0  0
 25 27  2  0  0  0  0
 25 79  1  0  0  0  0
 26 81  1  0  0  0  0
 27 82  1  0  0  0  0
 28 62  2  0  0  0  0
 29 63  1  0  0  0  0
 29 69  1  0  0  0  0
 30 64  1  0  0  0  0
 30 67  1  0  0  0  0
 31 61  1  0  0  0  0
 31 63  2  0  0  0  0
 31 70  1  0  0  0  0
 32 68  1  0  0  0  0
 32 74  2  0  0  0  0
 33 47  1  0  0  0  0
 33 71  1  0  0  0  0
 33 75  2  0  0  0  0
 34 57  1  0  0  0  0
 34 65  1  0  0  0  0
 34 76  2  0  0  0  0
 35 58  1  0  0  0  0
 35 72  1  0  0  0  0
 35 77  2  0  0  0  0
 36 66  1  0  0  0  0
 36 69  1  0  0  0  0
 36 78  2  0  0  0  0
 37 40  1  0  0  0  0
 38 47  1  0  0  0  0
 39 65  1  0  0  0  0
 40 42  1  0  0  0  0
 41 43  1  0  0  0  0
 41 44  1  0  0  0  0
 42 46  1  0  0  0  0
 43 48  1  0  0  0  0
 44 66  1  0  0  0  0
 45 48  1  0  0  0  0
 45 66  1  0  0  0  0
 46 71  1  0  0  0  0
 47 65  1  0  0  0  0
 48 64  1  0  0  0  0
 49 58  1  0  0  0  0
 50 59  1  0  0  0  0
 51 60  1  0  0  0  0
 52 60  1  0  0  0  0
 53 60  1  0  0  0  0
 54 73  1  0  0  0  0
 55 56  1  0  0  0  0
 55 59  1  0  0  0  0
 56 80  1  0  0  0  0
 57 60  1  0  0  0  0
 57 72  1  0  0  0  0
 58 73  1  0  0  0  0
 59 70  1  0  0  0  0
 62 64  1  0  0  0  0
M  CHG  1  73   1
M  ISO  4  36 100  56 101  69 100  80 101
M  END
> <Batch ID>
0196

> <Smiles>
CNC(C)C(=O)NC(C(=O)N1Cc2cc([101O:1][101CH2:1]CC(C)Nc3nccc([100NH:0][100C:0](=O)N4CCCC(n5nc(-c6ccc(Oc7ccc(F)cc7F)cc6)c(C(N)=O)c5N)C4)n3)ccc2CC1C(=O)NC1CCCc2ccccc21)C(C)(C)C

> <Shape>
0.263

> <Color>
0.077

> <Negative vol penalty>
0.000

$$$$

  -OEChem-04052305393D

 83 91  0     1  0  0  0  0  0999 V2000
  -21.5873  -13.3205   38.0370 C   0  0  0  0  0  0  0  0  0  0  0  0
  -22.8019  -12.8796   37.5214 C   0  0  0  0  0  0  0  0  0  0  0  0
  -23.1870   -9.8201   19.9323 C   0  0  0  0  0  0  0  0  0  0  0  0
  -23.5694   -9.9988   22.3112 C   0  0  0  0  0  0  0  0  0  0  0  0
  -20.4531  -13.3401   37.2263 C   0  0  0  0  0  0  0  0  0  0  0  0
  -22.8827  -12.4570   36.1951 C   0  0  0  0  0  0  0  0  0  0  0  0
  -27.6304  -13.1586   32.3907 C   0  0  0  0  0  0  0  0  0  0  0  0
  -22.4208   -8.6736   20.1416 C   0  0  0  0  0  0  0  0  0  0  0  0
  -22.8031   -8.8522   22.5205 C   0  0  0  0  0  0  0  0  0  0  0  0
  -28.6582  -12.2992   32.0050 C   0  0  0  0  0  0  0  0  0  0  0  0
  -23.2029   -5.5056   22.2535 C   0  0  0  0  0  0  0  0  0  0  0  0
  -23.7024   -4.5436   23.1312 C   0  0  0  0  0  0  0  0  0  0  0  0
  -27.4037  -11.6924   30.0359 C   0  0  0  0  0  0  0  0  0  0  0  0
  -21.7483   -4.8032   24.5280 C   0  0  0  0  0  0  0  0  0  0  0  0
  -29.6308  -15.4141   26.0745 C   0  0  0  0  0  0  0  0  0  0  0  0
  -23.7614  -10.4828   21.0171 C   0  0  0  0  0  0  0  0  0  0  0  0
  -24.1003  -12.9995   20.7745 C   0  0  0  0  0  0  0  0  0  0  0  0
  -20.5223  -12.9266   35.8866 C   0  0  0  0  0  0  0  0  0  0  0  0
  -26.4748  -13.2833   31.6062 C   0  0  0  0  0  0  0  0  0  0  0  0
  -21.7481  -12.4698   35.3660 C   0  0  0  0  0  0  0  0  0  0  0  0
  -26.3638  -12.5560   30.4126 C   0  0  0  0  0  0  0  0  0  0  0  0
  -30.2293  -14.8856   24.9489 C   0  0  0  0  0  0  0  0  0  0  0  0
  -22.2288   -8.1896   21.4356 C   0  0  0  0  0  0  0  0  0  0  0  0
  -28.5438  -11.5638   30.8289 C   0  0  0  0  0  0  0  0  0  0  0  0
  -21.9760   -6.1165   22.5130 C   0  0  0  0  0  0  0  0  0  0  0  0
  -22.9752   -4.1923   24.2685 C   0  0  0  0  0  0  0  0  0  0  0  0
  -21.2487   -5.7653   23.6502 C   0  0  0  0  0  0  0  0  0  0  0  0
  -24.5535  -11.6669   20.8016 C   0  0  0  0  0  0  0  0  0  0  0  0
  -30.8585  -13.6698   25.1224 C   0  0  0  0  0  0  0  0  0  0  0  0
  -25.2313  -13.7420   20.5378 C   0  0  0  0  0  0  0  0  0  0  0  0
  -30.2853  -13.6300   27.3217 C   0  0  0  0  0  0  0  0  0  0  0  0
  -22.7756  -13.5196   20.9479 C   0  0  0  0  0  0  0  0  0  0  0  0
  -23.3822  -12.7063   32.0605 C   0  0  0  0  0  0  0  0  0  0  0  0
  -23.0957  -14.0774   29.1346 C   0  0  0  0  0  0  0  0  0  0  0  0
  -24.5503  -14.8670   26.1501 C   0  0  0  0  0  0  0  0  0  0  0  0
  -31.0476  -12.7498   21.5566 C   0  0  0  0  0  0  0  0  0  0  0  0
  -19.2591  -12.9210   35.0625 C   0  0  0  0  0  0  0  0  0  0  0  0
  -25.3867  -14.2348   32.0224 C   0  0  0  0  0  0  0  0  0  0  0  0
  -25.1526  -12.6694   29.5246 C   0  0  0  0  0  0  0  0  0  0  0  0
  -19.5119  -12.8105   33.5611 C   0  0  0  0  0  0  0  0  0  0  0  0
  -29.5151  -13.4697   18.4245 C   0  0  0  0  0  0  0  0  0  0  0  0
  -20.5307  -11.7130   33.2706 C   0  0  0  0  0  0  0  0  0  0  0  0
  -28.0289  -13.2096   18.6761 C   0  0  0  0  0  0  0  0  0  0  0  0
  -30.3974  -12.4796   19.1816 C   0  0  0  0  0  0  0  0  0  0  0  0
  -28.6467  -12.1362   20.8817 C   0  0  0  0  0  0  0  0  0  0  0  0
  -21.8815  -12.0269   33.9251 C   0  0  1  0  0  0  0  0  0  0  0  0
  -24.0307  -13.8960   31.4111 C   0  0  1  0  0  0  0  0  0  0  0  0
  -27.7183  -13.1447   20.1836 C   0  0  2  0  0  0  0  0  0  0  0  0
  -24.7813  -15.8926   23.8715 C   0  0  0  0  0  0  0  0  0  0  0  0
  -31.8761  -10.2660   30.6106 C   0  0  0  0  0  0  0  0  0  0  0  0
  -21.5607  -11.5904   28.2577 C   0  0  0  0  0  0  0  0  0  0  0  0
  -21.9243  -12.2891   25.8812 C   0  0  0  0  0  0  0  0  0  0  0  0
  -20.6142  -13.7492   27.4221 C   0  0  0  0  0  0  0  0  0  0  0  0
  -25.6064  -17.3956   27.2680 C   0  0  0  0  0  0  0  0  0  0  0  0
  -31.5419  -12.9993   23.9758 C   0  0  0  0  0  0  0  0  0  0  0  0
  -30.9631  -11.7091   28.7628 C   0  0  0  0  0  0  0  0  0  0  0  0
  -23.1197  -13.5746   27.7114 C   0  0  1  0  0  0  0  0  0  0  0  0
  -24.5806  -16.1598   25.3551 C   0  0  2  0  0  0  0  0  0  0  0  0
  -30.8303  -11.3034   30.2288 C   0  0  1  0  0  0  0  0  0  1  0  0
  -21.8269  -12.7970   27.3356 C   0  0  0  0  0  0  0  0  0  0  0  0
  -29.6395  -14.8110   27.2813 N   0  0  0  0  0  0  0  0  0  0  0  0
  -25.8697  -11.5656   20.5981 N   0  0  0  0  0  0  0  0  0  0  0  0
  -30.9063  -13.0116   26.2992 N   0  0  0  0  0  0  0  0  0  0  0  0
  -26.2533  -12.8440   20.4409 N   0  0  0  0  0  0  0  0  0  0  0  0
  -24.1129  -13.6081   29.9777 N   0  0  0  0  0  0  0  0  0  0  0  0
  -30.0533  -12.4676   20.6054 N   0  0  0  0  0  0  0  0  0  0  0  0
  -30.1889  -15.5547   23.7200 N   0  0  0  0  0  0  0  0  0  0  0  0
  -25.4414  -15.0689   20.4051 N   0  0  0  0  0  0  0  0  0  0  0  0
  -21.7290  -12.6175   21.1831 N   0  0  0  0  0  0  0  0  0  0  0  0
  -30.3141  -12.9821   28.5454 N   0  0  0  0  0  0  0  0  0  0  0  0
  -22.5980  -13.0201   33.1541 N   0  0  0  0  0  0  0  0  0  0  0  0
  -23.3824  -14.7384   26.8717 N   0  0  0  0  0  0  0  0  0  0  0  0
  -30.6356  -12.7237   22.8833 N   0  0  0  0  0  0  0  0  0  0  0  0
  -25.6904  -17.0339   25.8296 N   0  3  0  0  0  0  0  0  0  0  0  0
  -22.5246  -14.7468   20.8795 O   0  0  0  0  0  0  0  0  0  0  0  0
  -23.5775  -11.5867   31.6022 O   0  0  0  0  0  0  0  0  0  0  0  0
  -22.2112  -14.8632   29.4835 O   0  0  0  0  0  0  0  0  0  0  0  0
  -25.4691  -14.0509   26.1299 O   0  0  0  0  0  0  0  0  0  0  0  0
  -32.2147  -13.0114   21.2461 O   0  0  0  0  0  0  0  0  0  0  0  0
  -21.4810   -7.0709   21.6402 O   0  0  0  0  0  0  0  0  0  0  0  0
  -29.5452  -10.7238   30.4504 O   0  0  0  0  0  0  0  0  0  1  0  0
  -23.4543   -3.2673   25.1104 F   0  0  0  0  0  0  0  0  0  0  0  0
  -20.0689   -6.3478   23.9043 F   0  0  0  0  0  0  0  0  0  0  0  0
  1  2  1  0  0  0  0
  1  5  2  0  0  0  0
  2  6  2  0  0  0  0
  3  8  2  0  0  0  0
  3 16  1  0  0  0  0
  4  9  1  0  0  0  0
  4 16  2  0  0  0  0
  5 18  1  0  0  0  0
  6 20  1  0  0  0  0
  7 10  2  0  0  0  0
  7 19  1  0  0  0  0
  8 23  1  0  0  0  0
  9 23  2  0  0  0  0
 10 24  1  0  0  0  0
 11 12  2  0  0  0  0
 11 25  1  0  0  0  0
 12 26  1  0  0  0  0
 13 21  1  0  0  0  0
 13 24  2  0  0  0  0
 14 26  2  0  0  0  0
 14 27  1  0  0  0  0
 15 22  1  0  0  0  0
 15 61  2  0  0  0  0
 16 28  1  0  0  0  0
 17 28  1  0  0  0  0
 17 30  2  0  0  0  0
 17 32  1  0  0  0  0
 18 20  2  0  0  0  0
 18 37  1  0  0  0  0
 19 21  2  0  0  0  0
 19 38  1  0  0  0  0
 20 46  1  0  0  0  0
 21 39  1  0  0  0  0
 22 29  2  0  0  0  0
 22 67  1  0  0  0  0
 23 80  1  0  0  0  0
 24 81  1  0  0  0  0
 25 27  2  0  0  0  0
 25 80  1  0  0  0  0
 26 82  1  0  0  0  0
 27 83  1  0  0  0  0
 28 62  2  0  0  0  0
 29 55  1  0  0  0  0
 29 63  1  0  0  0  0
 30 64  1  0  0  0  0
 30 68  1  0  0  0  0
 31 61  1  0  0  0  0
 31 63  2  0  0  0  0
 31 70  1  0  0  0  0
 32 69  1  0  0  0  0
 32 75  2  0  0  0  0
 33 47  1  0  0  0  0
 33 71  1  0  0  0  0
 33 76  2  0  0  0  0
 34 57  1  0  0  0  0
 34 65  1  0  0  0  0
 34 77  2  0  0  0  0
 35 58  1  0  0  0  0
 35 72  1  0  0  0  0
 35 78  2  0  0  0  0
 36 66  1  0  0  0  0
 36 73  1  0  0  0  0
 36 79  2  0  0  0  0
 37 40  1  0  0  0  0
 38 47  1  0  0  0  0
 39 65  1  0  0  0  0
 40 42  1  0  0  0  0
 41 43  1  0  0  0  0
 41 44  1  0  0  0  0
 42 46  1  0  0  0  0
 43 48  1  0  0  0  0
 44 66  1  0  0  0  0
 45 48  1  0  0  0  0
 45 66  1  0  0  0  0
 46 71  1  0  0  0  0
 47 65  1  0  0  0  0
 48 64  1  0  0  0  0
 49 58  1  0  0  0  0
 50 59  1  0  0  0  0
 51 60  1  0  0  0  0
 52 60  1  0  0  0  0
 53 60  1  0  0  0  0
 54 74  1  0  0  0  0
 55 73  1  0  0  0  0
 56 59  1  0  0  0  0
 56 70  1  0  0  0  0
 57 60  1  0  0  0  0
 57 72  1  0  0  0  0
 58 74  1  0  0  0  0
 59 81  1  0  0  0  0
 62 64  1  0  0  0  0
M  CHG  1  74   1
M  ISO  4  36 100  59 101  73 100  81 101
M  END
> <Batch ID>
0196

> <Smiles>
CNC(C)C(=O)NC(C(=O)N1Cc2cc([101O:1][101CH:1](C)CNc3ncc(N)c(C[100NH:0][100C:0](=O)N4CCCC(n5nc(-c6ccc(Oc7ccc(F)cc7F)cc6)c(C(N)=O)c5N)C4)n3)ccc2CC1C(=O)NC1CCCc2ccccc21)C(C)(C)C

> <Shape>
0.142

> <Color>
0.171

> <Negative vol penalty>
0.000

$$$$

  -OEChem-04052305393D

 83 91  0     1  0  0  0  0  0999 V2000
  -23.0027   -7.8710   22.1444 C   0  0  0  0  0  0  0  0  0  0  0  0
  -24.1604   -8.5494   22.5115 C   0  0  0  0  0  0  0  0  0  0  0  0
  -20.0739  -28.0659   23.7717 C   0  0  0  0  0  0  0  0  0  0  0  0
  -20.1746  -26.7155   21.7709 C   0  0  0  0  0  0  0  0  0  0  0  0
  -22.3053   -8.2536   20.9993 C   0  0  0  0  0  0  0  0  0  0  0  0
  -24.6221   -9.6102   21.7331 C   0  0  0  0  0  0  0  0  0  0  0  0
  -28.0353  -15.8824   22.3045 C   0  0  0  0  0  0  0  0  0  0  0  0
  -18.7977  -28.5006   23.4142 C   0  0  0  0  0  0  0  0  0  0  0  0
  -18.8983  -27.1502   21.4133 C   0  0  0  0  0  0  0  0  0  0  0  0
  -29.1274  -16.5666   21.7727 C   0  0  0  0  0  0  0  0  0  0  0  0
  -15.6373  -27.3036   23.5220 C   0  0  0  0  0  0  0  0  0  0  0  0
  -14.6567  -27.3207   24.5139 C   0  0  0  0  0  0  0  0  0  0  0  0
  -27.7973  -17.1904   19.8594 C   0  0  0  0  0  0  0  0  0  0  0  0
  -14.3841  -29.7011   24.2034 C   0  0  0  0  0  0  0  0  0  0  0  0
  -30.3926  -25.4168   19.0573 C   0  0  0  0  0  0  0  0  0  0  0  0
  -29.1344  -23.0748   19.3008 C   0  0  0  0  0  0  0  0  0  0  0  0
  -20.7624  -27.1733   22.9501 C   0  0  0  0  0  0  0  0  0  0  0  0
  -22.4089  -25.5971   24.0956 C   0  0  0  0  0  0  0  0  0  0  0  0
  -22.7534   -9.3259   20.2118 C   0  0  0  0  0  0  0  0  0  0  0  0
  -26.8171  -15.8377   21.6113 C   0  0  0  0  0  0  0  0  0  0  0  0
  -23.9308  -10.0067   20.5757 C   0  0  0  0  0  0  0  0  0  0  0  0
  -26.6904  -16.5070   20.3857 C   0  0  0  0  0  0  0  0  0  0  0  0
  -18.2099  -28.0427   22.2350 C   0  0  0  0  0  0  0  0  0  0  0  0
  -29.0094  -17.2183   20.5486 C   0  0  0  0  0  0  0  0  0  0  0  0
  -15.9914  -28.4853   22.8709 C   0  0  0  0  0  0  0  0  0  0  0  0
  -14.0301  -28.5194   24.8545 C   0  0  0  0  0  0  0  0  0  0  0  0
  -15.3647  -29.6840   23.2115 C   0  0  0  0  0  0  0  0  0  0  0  0
  -22.0810  -26.7243   23.3186 C   0  0  0  0  0  0  0  0  0  0  0  0
  -29.0309  -25.3190   18.8739 C   0  0  0  0  0  0  0  0  0  0  0  0
  -30.4962  -23.1723   19.4835 C   0  0  0  0  0  0  0  0  0  0  0  0
  -23.7811  -25.6089   24.1557 C   0  0  0  0  0  0  0  0  0  0  0  0
  -21.5501  -24.6262   24.7082 C   0  0  0  0  0  0  0  0  0  0  0  0
  -25.0359  -13.5255   20.3526 C   0  0  0  0  0  0  0  0  0  0  0  0
  -22.9470  -15.9519   19.8318 C   0  0  0  0  0  0  0  0  0  0  0  0
  -22.4436  -19.3004   19.4061 C   0  0  0  0  0  0  0  0  0  0  0  0
  -27.9992  -27.9083   20.5820 C   0  0  0  0  0  0  0  0  0  0  0  0
  -21.9922   -9.6726   18.9568 C   0  0  0  0  0  0  0  0  0  0  0  0
  -25.6406  -15.1178   22.2113 C   0  0  0  0  0  0  0  0  0  0  0  0
  -25.3984  -16.5064   19.6117 C   0  0  0  0  0  0  0  0  0  0  0  0
  -22.3411  -11.0476   18.3930 C   0  0  0  0  0  0  0  0  0  0  0  0
  -27.5086  -28.6060   24.0388 C   0  0  0  0  0  0  0  0  0  0  0  0
  -23.8536  -11.2427   18.3594 C   0  0  0  0  0  0  0  0  0  0  0  0
  -26.0915  -28.1012   24.3163 C   0  0  0  0  0  0  0  0  0  0  0  0
  -27.6251  -29.2241   22.6472 C   0  0  0  0  0  0  0  0  0  0  0  0
  -25.7508  -27.8531   21.8221 C   0  0  0  0  0  0  0  0  0  0  0  0
  -24.4497  -11.1784   19.7708 C   0  0  1  0  0  0  0  0  0  0  0  0
  -24.6003  -14.7055   21.1744 C   0  0  1  0  0  0  0  0  0  0  0  0
  -25.5976  -27.1707   23.1922 C   0  0  2  0  0  0  0  0  0  0  0  0
  -20.6323  -20.9792   18.9609 C   0  0  0  0  0  0  0  0  0  0  0  0
  -22.8784  -15.0976   16.9034 C   0  0  0  0  0  0  0  0  0  0  0  0
  -21.8533  -17.3145   16.3530 C   0  0  0  0  0  0  0  0  0  0  0  0
  -20.6546  -15.7274   17.8587 C   0  0  0  0  0  0  0  0  0  0  0  0
  -22.9541  -20.7018   21.9623 C   0  0  0  0  0  0  0  0  0  0  0  0
  -28.2258  -26.5246   18.5343 C   0  0  0  0  0  0  0  0  0  0  0  0
  -30.5871  -20.7220   19.9457 C   0  0  0  0  0  0  0  0  0  0  0  0
  -31.0027  -18.4513   20.9514 C   0  0  0  0  0  0  0  0  0  1  0  0
  -22.7068  -16.9337   18.7104 C   0  0  1  0  0  0  0  0  0  0  0  0
  -21.4398  -20.2550   20.0269 C   0  0  2  0  0  0  0  0  0  0  0  0
  -31.6424  -19.6834   20.3207 C   0  0  1  0  0  0  0  0  0  0  0  0
  -22.0483  -16.2669   17.4698 C   0  0  0  0  0  0  0  0  0  0  0  0
  -28.3773  -24.1464   18.9927 N   0  0  0  0  0  0  0  0  0  0  0  0
  -31.1498  -24.3451   19.3651 N   0  0  0  0  0  0  0  0  0  0  0  0
  -23.1581  -27.4029   22.9142 N   0  0  0  0  0  0  0  0  0  0  0  0
  -24.1762  -26.7001   23.4392 N   0  0  0  0  0  0  0  0  0  0  0  0
  -24.2787  -15.7834   20.2369 N   0  0  0  0  0  0  0  0  0  0  0  0
  -27.1420  -28.2904   21.6271 N   0  0  0  0  0  0  0  0  0  0  0  0
  -24.6761  -24.7923   24.7510 N   0  0  0  0  0  0  0  0  0  0  0  0
  -20.1646  -24.7634   24.5469 N   0  0  0  0  0  0  0  0  0  0  0  0
  -31.2010  -22.0226   19.7978 N   0  0  0  0  0  0  0  0  0  0  0  0
  -24.2152  -12.4206   20.4754 N   0  0  0  0  0  0  0  0  0  0  0  0
  -21.9295  -18.0267   19.2844 N   0  0  0  0  0  0  0  0  0  0  0  0
  -27.4646  -27.0153   19.6614 N   0  0  0  0  0  0  0  0  0  0  0  0
  -22.1400  -21.2738   20.8591 N   0  3  0  0  0  0  0  0  0  0  0  0
  -21.9972  -23.6748   25.3926 O   0  0  0  0  0  0  0  0  0  0  0  0
  -26.0413  -13.6116   19.6573 O   0  0  0  0  0  0  0  0  0  0  0  0
  -21.9876  -15.3617   20.3347 O   0  0  0  0  0  0  0  0  0  0  0  0
  -23.5698  -19.6504   19.0601 O   0  0  0  0  0  0  0  0  0  0  0  0
  -29.1572  -28.3275   20.4801 O   0  0  0  0  0  0  0  0  0  0  0  0
  -32.3243  -19.2619   19.1377 O   0  0  0  0  0  0  0  0  0  0  0  0
  -16.9645  -28.4666   21.8859 O   0  0  0  0  0  0  0  0  0  0  0  0
  -30.0740  -17.8864   20.0269 O   0  0  0  0  0  0  0  0  0  1  0  0
  -13.0874  -28.5354   25.8060 F   0  0  0  0  0  0  0  0  0  0  0  0
  -15.6998  -30.8222   22.5887 F   0  0  0  0  0  0  0  0  0  0  0  0
  1  2  1  0  0  0  0
  1  5  2  0  0  0  0
  2  6  2  0  0  0  0
  3  8  2  0  0  0  0
  3 17  1  0  0  0  0
  4  9  1  0  0  0  0
  4 17  2  0  0  0  0
  5 19  1  0  0  0  0
  6 21  1  0  0  0  0
  7 10  2  0  0  0  0
  7 20  1  0  0  0  0
  8 23  1  0  0  0  0
  9 23  2  0  0  0  0
 10 24  1  0  0  0  0
 11 12  2  0  0  0  0
 11 25  1  0  0  0  0
 12 26  1  0  0  0  0
 13 22  1  0  0  0  0
 13 24  2  0  0  0  0
 14 26  2  0  0  0  0
 14 27  1  0  0  0  0
 15 29  2  0  0  0  0
 15 62  1  0  0  0  0
 16 30  1  0  0  0  0
 16 61  2  0  0  0  0
 17 28  1  0  0  0  0
 18 28  1  0  0  0  0
 18 31  2  0  0  0  0
 18 32  1  0  0  0  0
 19 21  2  0  0  0  0
 19 37  1  0  0  0  0
 20 22  2  0  0  0  0
 20 38  1  0  0  0  0
 21 46  1  0  0  0  0
 22 39  1  0  0  0  0
 23 80  1  0  0  0  0
 24 81  1  0  0  0  0
 25 27  2  0  0  0  0
 25 80  1  0  0  0  0
 26 82  1  0  0  0  0
 27 83  1  0  0  0  0
 28 63  2  0  0  0  0
 29 54  1  0  0  0  0
 29 61  1  0  0  0  0
 30 62  2  0  0  0  0
 30 69  1  0  0  0  0
 31 64  1  0  0  0  0
 31 67  1  0  0  0  0
 32 68  1  0  0  0  0
 32 74  2  0  0  0  0
 33 47  1  0  0  0  0
 33 70  1  0  0  0  0
 33 75  2  0  0  0  0
 34 57  1  0  0  0  0
 34 65  1  0  0  0  0
 34 76  2  0  0  0  0
 35 58  1  0  0  0  0
 35 71  1  0  0  0  0
 35 77  2  0  0  0  0
 36 66  1  0  0  0  0
 36 72  1  0  0  0  0
 36 78  2  0  0  0  0
 37 40  1  0  0  0  0
 38 47  1  0  0  0  0
 39 65  1  0  0  0  0
 40 42  1  0  0  0  0
 41 43  1  0  0  0  0
 41 44  1  0  0  0  0
 42 46  1  0  0  0  0
 43 48  1  0  0  0  0
 44 66  1  0  0  0  0
 45 48  1  0  0  0  0
 45 66  1  0  0  0  0
 46 70  1  0  0  0  0
 47 65  1  0  0  0  0
 48 64  1  0  0  0  0
 49 58  1  0  0  0  0
 50 60  1  0  0  0  0
 51 60  1  0  0  0  0
 52 60  1  0  0  0  0
 53 73  1  0  0  0  0
 54 72  1  0  0  0  0
 55 59  1  0  0  0  0
 55 69  1  0  0  0  0
 56 59  1  0  0  0  0
 56 81  1  0  0  0  0
 57 60  1  0  0  0  0
 57 71  1  0  0  0  0
 58 73  1  0  0  0  0
 59 79  1  0  0  0  0
 63 64  1  0  0  0  0
M  CHG  1  73   1
M  ISO  4  36 100  56 101  72 100  81 101
M  END
> <Batch ID>
0196

> <Smiles>
CNC(C)C(=O)NC(C(=O)N1Cc2cc([101O:1][101CH2:1]C(O)CNc3cnc(C[100NH:0][100C:0](=O)N4CCCC(n5nc(-c6ccc(Oc7ccc(F)cc7F)cc6)c(C(N)=O)c5N)C4)cn3)ccc2CC1C(=O)NC1CCCc2ccccc21)C(C)(C)C

> <Shape>
0.231

> <Color>
0.069

> <Negative vol penalty>
0.000

$$$$

  -OEChem-04052305393D

 81 89  0     1  0  0  0  0  0999 V2000
  -16.5582  -30.2983   22.5819 C   0  0  0  0  0  0  0  0  0  0  0  0
  -17.2891  -29.8856   21.4724 C   0  0  0  0  0  0  0  0  0  0  0  0
  -26.3623  -12.6448   21.6386 C   0  0  0  0  0  0  0  0  0  0  0  0
  -25.9238  -13.5561   19.4445 C   0  0  0  0  0  0  0  0  0  0  0  0
  -17.2177  -30.8094   23.6989 C   0  0  0  0  0  0  0  0  0  0  0  0
  -18.6799  -29.9848   21.4790 C   0  0  0  0  0  0  0  0  0  0  0  0
  -22.6567  -26.1475   18.8395 C   0  0  0  0  0  0  0  0  0  0  0  0
  -25.1449  -11.9652   21.5997 C   0  0  0  0  0  0  0  0  0  0  0  0
  -24.7064  -12.8764   19.4055 C   0  0  0  0  0  0  0  0  0  0  0  0
  -23.3475  -26.1986   17.6296 C   0  0  0  0  0  0  0  0  0  0  0  0
  -23.9053   -9.1545   20.1868 C   0  0  0  0  0  0  0  0  0  0  0  0
  -23.8941   -7.8208   20.5951 C   0  0  0  0  0  0  0  0  0  0  0  0
  -25.2661  -27.1132   18.7705 C   0  0  0  0  0  0  0  0  0  0  0  0
  -22.3070   -8.3662   22.3332 C   0  0  0  0  0  0  0  0  0  0  0  0
  -26.7518  -13.4404   20.5610 C   0  0  0  0  0  0  0  0  0  0  0  0
  -29.2595  -13.6741   20.1560 C   0  0  0  0  0  0  0  0  0  0  0  0
  -18.6180  -30.9059   23.7229 C   0  0  0  0  0  0  0  0  0  0  0  0
  -23.2627  -26.5898   20.0243 C   0  0  0  0  0  0  0  0  0  0  0  0
  -19.3587  -30.4989   22.5968 C   0  0  0  0  0  0  0  0  0  0  0  0
  -24.5818  -27.0642   19.9946 C   0  0  0  0  0  0  0  0  0  0  0  0
  -24.3169  -12.0809   20.4832 C   0  0  0  0  0  0  0  0  0  0  0  0
  -24.6513  -26.6842   17.5944 C   0  0  0  0  0  0  0  0  0  0  0  0
  -23.1174  -10.0941   20.8518 C   0  0  0  0  0  0  0  0  0  0  0  0
  -23.0950   -7.4266   21.6683 C   0  0  0  0  0  0  0  0  0  0  0  0
  -22.3183   -9.6999   21.9249 C   0  0  0  0  0  0  0  0  0  0  0  0
  -28.0090  -14.1431   20.6009 C   0  0  0  0  0  0  0  0  0  0  0  0
  -30.1253  -14.7092   20.4119 C   0  0  0  0  0  0  0  0  0  0  0  0
  -28.3405  -21.7508   18.9663 C   0  0  0  0  0  0  0  0  0  0  0  0
  -27.6340  -23.0846   17.1528 C   0  0  0  0  0  0  0  0  0  0  0  0
  -29.6074  -12.4154   19.5641 C   0  0  0  0  0  0  0  0  0  0  0  0
  -22.6513  -28.8870   22.1344 C   0  0  0  0  0  0  0  0  0  0  0  0
  -25.0988  -27.5098   23.7579 C   0  0  0  0  0  0  0  0  0  0  0  0
  -27.9261  -25.6008   23.6650 C   0  0  0  0  0  0  0  0  0  0  0  0
  -29.3815  -20.6129   20.9583 C   0  0  0  0  0  0  0  0  0  0  0  0
  -19.2835  -31.5090   24.9345 C   0  0  0  0  0  0  0  0  0  0  0  0
  -22.5135  -26.5031   21.3257 C   0  0  0  0  0  0  0  0  0  0  0  0
  -25.2845  -27.5321   21.2419 C   0  0  0  0  0  0  0  0  0  0  0  0
  -20.7829  -31.2321   25.0070 C   0  0  0  0  0  0  0  0  0  0  0  0
  -30.7656  -18.4073   23.3866 C   0  0  0  0  0  0  0  0  0  0  0  0
  -21.4402  -31.4948   23.6558 C   0  0  0  0  0  0  0  0  0  0  0  0
  -30.3347  -17.0203   22.9040 C   0  0  0  0  0  0  0  0  0  0  0  0
  -29.6834  -19.4562   23.1368 C   0  0  0  0  0  0  0  0  0  0  0  0
  -28.7605  -18.1368   21.2722 C   0  0  0  0  0  0  0  0  0  0  0  0
  -20.8703  -30.5676   22.5755 C   0  0  1  0  0  0  0  0  0  0  0  0
  -23.0473  -27.4598   22.3873 C   0  0  1  0  0  0  0  0  0  0  0  0
  -29.8437  -17.0592   21.4435 C   0  0  2  0  0  0  0  0  0  0  0  0
  -29.7303  -24.6793   25.1458 C   0  0  0  0  0  0  0  0  0  0  0  0
  -28.6340  -24.6595   14.5899 C   0  0  0  0  0  0  0  0  0  0  0  0
  -26.4044  -30.2650   23.8777 C   0  0  0  0  0  0  0  0  0  0  0  0
  -28.5568  -29.1416   24.4887 C   0  0  0  0  0  0  0  0  0  0  0  0
  -26.5751  -28.9370   25.9899 C   0  0  0  0  0  0  0  0  0  0  0  0
  -27.2028  -22.8081   23.0043 C   0  0  0  0  0  0  0  0  0  0  0  0
  -26.2420  -25.4488   14.6062 C   0  0  0  0  0  0  0  0  0  0  0  0
  -24.9971  -25.7542   15.4331 C   0  0  0  0  0  0  0  0  0  1  0  0
  -26.5971  -27.6919   23.7896 C   0  0  1  0  0  0  0  0  0  0  0  0
  -28.3734  -24.4214   24.5096 C   0  0  2  0  0  0  0  0  0  0  0  0
  -27.3938  -24.8902   15.4476 C   0  0  1  0  0  0  0  0  0  0  0  0
  -27.0197  -29.0020   24.5125 C   0  0  0  0  0  0  0  0  0  0  0  0
  -28.0705  -15.3798   21.1017 N   0  0  0  0  0  0  0  0  0  0  0  0
  -29.0713  -22.8387   18.8472 N   0  0  0  0  0  0  0  0  0  0  0  0
  -28.6562  -23.6216   17.7840 N   0  0  0  0  0  0  0  0  0  0  0  0
  -29.3702  -15.6967   20.9730 N   0  0  0  0  0  0  0  0  0  0  0  0
  -24.5079  -27.4335   22.4887 N   0  0  0  0  0  0  0  0  0  0  0  0
  -29.2707  -19.4381   21.7317 N   0  0  0  0  0  0  0  0  0  0  0  0
  -31.4513  -14.8619   20.2095 N   0  0  0  0  0  0  0  0  0  0  0  0
  -28.5955  -11.4648   19.3724 N   0  0  0  0  0  0  0  0  0  0  0  0
  -28.4544  -20.7101   19.9212 N   0  0  0  0  0  0  0  0  0  0  0  0
  -27.0022  -23.6336   16.0514 N   0  0  0  0  0  0  0  0  0  0  0  0
  -21.4394  -29.2424   22.6953 N   0  0  0  0  0  0  0  0  0  0  0  0
  -27.1433  -26.4775   24.3859 N   0  0  0  0  0  0  0  0  0  0  0  0
  -28.4729  -23.1927   23.6721 N   0  3  0  0  0  0  0  0  0  0  0  0
  -30.7839  -12.1355   19.2307 O   0  0  0  0  0  0  0  0  0  0  0  0
  -23.3912  -29.6124   21.4802 O   0  0  0  0  0  0  0  0  0  0  0  0
  -24.4766  -27.4309   24.8201 O   0  0  0  0  0  0  0  0  0  0  0  0
  -28.2429  -25.7332   22.4849 O   0  0  0  0  0  0  0  0  0  0  0  0
  -30.2534  -21.4568   21.1812 O   0  0  0  0  0  0  0  0  0  0  0  0
  -23.1290  -11.4177   20.4447 O   0  0  0  0  0  0  0  0  0  0  0  0
  -25.3276  -26.7358   16.4147 O   0  0  0  0  0  0  0  0  0  1  0  0
  -23.0831   -6.1456   22.0592 F   0  0  0  0  0  0  0  0  0  0  0  0
  -21.5583  -10.5978   22.5669 F   0  0  0  0  0  0  0  0  0  0  0  0
  -27.0949  -21.5898   17.7982 S   0  0  0  0  0  0  0  0  0  0  0  0
  1  2  1  0  0  0  0
  1  5  2  0  0  0  0
  2  6  2  0  0  0  0
  3  8  2  0  0  0  0
  3 15  1  0  0  0  0
  4  9  1  0  0  0  0
  4 15  2  0  0  0  0
  5 17  1  0  0  0  0
  6 19  1  0  0  0  0
  7 10  2  0  0  0  0
  7 18  1  0  0  0  0
  8 21  1  0  0  0  0
  9 21  2  0  0  0  0
 10 22  1  0  0  0  0
 11 12  2  0  0  0  0
 11 23  1  0  0  0  0
 12 24  1  0  0  0  0
 13 20  1  0  0  0  0
 13 22  2  0  0  0  0
 14 24  2  0  0  0  0
 14 25  1  0  0  0  0
 15 26  1  0  0  0  0
 16 26  1  0  0  0  0
 16 27  2  0  0  0  0
 16 30  1  0  0  0  0
 17 19  2  0  0  0  0
 17 35  1  0  0  0  0
 18 20  2  0  0  0  0
 18 36  1  0  0  0  0
 19 44  1  0  0  0  0
 20 37  1  0  0  0  0
 21 77  1  0  0  0  0
 22 78  1  0  0  0  0
 23 25  2  0  0  0  0
 23 77  1  0  0  0  0
 24 79  1  0  0  0  0
 25 80  1  0  0  0  0
 26 59  2  0  0  0  0
 27 62  1  0  0  0  0
 27 65  1  0  0  0  0
 28 60  2  0  0  0  0
 28 67  1  0  0  0  0
 28 81  1  0  0  0  0
 29 61  2  0  0  0  0
 29 68  1  0  0  0  0
 29 81  1  0  0  0  0
 30 66  1  0  0  0  0
 30 72  2  0  0  0  0
 31 45  1  0  0  0  0
 31 69  1  0  0  0  0
 31 73  2  0  0  0  0
 32 55  1  0  0  0  0
 32 63  1  0  0  0  0
 32 74  2  0  0  0  0
 33 56  1  0  0  0  0
 33 70  1  0  0  0  0
 33 75  2  0  0  0  0
 34 64  1  0  0  0  0
 34 67  1  0  0  0  0
 34 76  2  0  0  0  0
 35 38  1  0  0  0  0
 36 45  1  0  0  0  0
 37 63  1  0  0  0  0
 38 40  1  0  0  0  0
 39 41  1  0  0  0  0
 39 42  1  0  0  0  0
 40 44  1  0  0  0  0
 41 46  1  0  0  0  0
 42 64  1  0  0  0  0
 43 46  1  0  0  0  0
 43 64  1  0  0  0  0
 44 69  1  0  0  0  0
 45 63  1  0  0  0  0
 46 62  1  0  0  0  0
 47 56  1  0  0  0  0
 48 57  1  0  0  0  0
 49 58  1  0  0  0  0
 50 58  1  0  0  0  0
 51 58  1  0  0  0  0
 52 71  1  0  0  0  0
 53 54  1  0  0  0  0
 53 57  1  0  0  0  0
 54 78  1  0  0  0  0
 55 58  1  0  0  0  0
 55 70  1  0  0  0  0
 56 71  1  0  0  0  0
 57 68  1  0  0  0  0
 59 62  1  0  0  0  0
 60 61  1  0  0  0  0
M  CHG  1  71   1
M  ISO  4  34 100  54 101  67 100  78 101
M  END
> <Batch ID>
0196

> <Smiles>
CNC(C)C(=O)NC(C(=O)N1Cc2cc([101O:1][101CH2:1]CC(C)Nc3nnc([100NH:0][100C:0](=O)N4CCCC(n5nc(-c6ccc(Oc7ccc(F)cc7F)cc6)c(C(N)=O)c5N)C4)s3)ccc2CC1C(=O)NC1CCCc2ccccc21)C(C)(C)C

> <Shape>
0.249

> <Color>
0.092

> <Negative vol penalty>
0.000

$$$$

  -OEChem-04052305393D

 82 90  0     1  0  0  0  0  0999 V2000
  -25.3852  -11.2307   19.7588 C   0  0  0  0  0  0  0  0  0  0  0  0
  -25.0460  -12.4471   20.3425 C   0  0  0  0  0  0  0  0  0  0  0  0
  -25.2260  -27.7760   19.3230 C   0  0  0  0  0  0  0  0  0  0  0  0
  -25.7240  -25.7978   20.6175 C   0  0  0  0  0  0  0  0  0  0  0  0
  -26.7009  -10.9906   19.3651 C   0  0  0  0  0  0  0  0  0  0  0  0
  -26.0227  -13.4238   20.5337 C   0  0  0  0  0  0  0  0  0  0  0  0
  -24.4466  -18.0400   19.1727 C   0  0  0  0  0  0  0  0  0  0  0  0
  -26.5825  -28.0997   19.2957 C   0  0  0  0  0  0  0  0  0  0  0  0
  -27.0805  -26.1214   20.5901 C   0  0  0  0  0  0  0  0  0  0  0  0
  -23.6090  -18.7141   20.0602 C   0  0  0  0  0  0  0  0  0  0  0  0
  -29.1686  -28.2425   22.1938 C   0  0  0  0  0  0  0  0  0  0  0  0
  -29.8839  -28.1380   23.3867 C   0  0  0  0  0  0  0  0  0  0  0  0
  -25.4921  -19.9955   20.8547 C   0  0  0  0  0  0  0  0  0  0  0  0
  -31.3509  -26.5130   22.3645 C   0  0  0  0  0  0  0  0  0  0  0  0
  -21.2348  -21.1137   27.5226 C   0  0  0  0  0  0  0  0  0  0  0  0
  -24.7967  -26.6251   19.9840 C   0  0  0  0  0  0  0  0  0  0  0  0
  -22.6899  -25.5041   19.0829 C   0  0  0  0  0  0  0  0  0  0  0  0
  -27.6923  -11.9685   19.5427 C   0  0  0  0  0  0  0  0  0  0  0  0
  -25.8176  -18.3313   19.1272 C   0  0  0  0  0  0  0  0  0  0  0  0
  -27.3532  -13.1960   20.1431 C   0  0  0  0  0  0  0  0  0  0  0  0
  -26.3445  -19.3254   19.9640 C   0  0  0  0  0  0  0  0  0  0  0  0
  -20.3695  -22.1875   27.5733 C   0  0  0  0  0  0  0  0  0  0  0  0
  -27.5098  -27.2723   19.9292 C   0  0  0  0  0  0  0  0  0  0  0  0
  -24.1322  -19.6900   20.9034 C   0  0  0  0  0  0  0  0  0  0  0  0
  -29.5443  -27.4822   21.0863 C   0  0  0  0  0  0  0  0  0  0  0  0
  -30.9751  -27.2733   23.4720 C   0  0  0  0  0  0  0  0  0  0  0  0
  -30.6355  -26.6175   21.1717 C   0  0  0  0  0  0  0  0  0  0  0  0
  -23.3955  -26.2906   20.0130 C   0  0  0  0  0  0  0  0  0  0  0  0
  -20.3419  -22.9856   26.4479 C   0  0  0  0  0  0  0  0  0  0  0  0
  -21.4003  -25.4876   19.5555 C   0  0  0  0  0  0  0  0  0  0  0  0
  -21.8993  -21.6837   25.4249 C   0  0  0  0  0  0  0  0  0  0  0  0
  -23.1581  -24.8470   17.8977 C   0  0  0  0  0  0  0  0  0  0  0  0
  -28.4804  -16.6832   19.6720 C   0  0  0  0  0  0  0  0  0  0  0  0
  -29.9109  -19.3834   18.5833 C   0  0  0  0  0  0  0  0  0  0  0  0
  -29.7313  -22.7527   18.0716 C   0  0  0  0  0  0  0  0  0  0  0  0
  -19.0489  -26.2083   25.0146 C   0  0  0  0  0  0  0  0  0  0  0  0
  -29.1105  -11.6451   19.1444 C   0  0  0  0  0  0  0  0  0  0  0  0
  -26.7030  -17.6139   18.1454 C   0  0  0  0  0  0  0  0  0  0  0  0
  -27.8057  -19.6898   19.9397 C   0  0  0  0  0  0  0  0  0  0  0  0
  -30.0092  -12.8747   19.0398 C   0  0  0  0  0  0  0  0  0  0  0  0
  -18.3102  -28.1109   22.0972 C   0  0  0  0  0  0  0  0  0  0  0  0
  -29.8220  -13.7776   20.2549 C   0  0  0  0  0  0  0  0  0  0  0  0
  -19.4660  -27.7891   21.1483 C   0  0  0  0  0  0  0  0  0  0  0  0
  -18.7766  -28.1870   23.5493 C   0  0  0  0  0  0  0  0  0  0  0  0
  -20.6682  -26.6794   23.0776 C   0  0  0  0  0  0  0  0  0  0  0  0
  -28.3794  -14.2898   20.3446 C   0  0  1  0  0  0  0  0  0  0  0  0
  -28.1750  -17.6299   18.5459 C   0  0  1  0  0  0  0  0  0  0  0  0
  -20.2369  -26.5370   21.6079 C   0  0  2  0  0  0  0  0  0  0  0  0
  -30.4240  -25.0254   17.2638 C   0  0  0  0  0  0  0  0  0  0  0  0
  -31.5636  -19.3922   21.1482 C   0  0  0  0  0  0  0  0  0  0  0  0
  -32.1579  -21.7777   20.6745 C   0  0  0  0  0  0  0  0  0  0  0  0
  -32.8416  -19.9839   19.0816 C   0  0  0  0  0  0  0  0  0  0  0  0
  -28.4314  -22.3428   15.4447 C   0  0  0  0  0  0  0  0  0  0  0  0
  -19.4441  -24.1778   26.3857 C   0  0  0  0  0  0  0  0  0  0  0  0
  -22.6848  -22.2372   23.1222 C   0  0  0  0  0  0  0  0  0  0  0  0
  -23.6742  -21.6890   22.1076 C   0  0  0  0  0  0  0  0  0  1  0  0
  -30.4091  -20.6595   19.2176 C   0  0  1  0  0  0  0  0  0  0  0  0
  -30.0567  -23.6062   16.8591 C   0  0  2  0  0  0  0  0  0  0  0  0
  -31.7158  -20.4453   20.0325 C   0  0  0  0  0  0  0  0  0  0  0  0
  -22.0173  -20.8310   26.4605 N   0  0  0  0  0  0  0  0  0  0  0  0
  -22.6187  -26.7413   21.0017 N   0  0  0  0  0  0  0  0  0  0  0  0
  -21.0963  -22.7623   25.3518 N   0  0  0  0  0  0  0  0  0  0  0  0
  -21.4115  -26.2365   20.6953 N   0  0  0  0  0  0  0  0  0  0  0  0
  -28.6318  -18.9559   18.9669 N   0  0  0  0  0  0  0  0  0  0  0  0
  -19.4990  -26.9685   23.9226 N   0  0  0  0  0  0  0  0  0  0  0  0
  -19.5791  -22.4336   28.7022 N   0  0  0  0  0  0  0  0  0  0  0  0
  -20.2693  -24.9059   19.1030 N   0  0  0  0  0  0  0  0  0  0  0  0
  -24.5127  -24.9667   17.5583 N   0  0  0  0  0  0  0  0  0  0  0  0
  -22.6882  -21.4238   24.3165 N   0  0  0  0  0  0  0  0  0  0  0  0
  -28.1653  -15.3655   19.4004 N   0  0  0  0  0  0  0  0  0  0  0  0
  -30.5315  -21.6317   18.1368 N   0  0  0  0  0  0  0  0  0  0  0  0
  -19.7867  -25.0653   25.2968 N   0  0  0  0  0  0  0  0  0  0  0  0
  -28.8855  -23.6678   15.9397 N   0  3  0  0  0  0  0  0  0  0  0  0
  -22.3945  -24.1872   17.1527 O   0  0  0  0  0  0  0  0  0  0  0  0
  -28.9673  -17.1160   20.7099 O   0  0  0  0  0  0  0  0  0  0  0  0
  -30.6271  -18.7916   17.7719 O   0  0  0  0  0  0  0  0  0  0  0  0
  -28.8574  -23.0526   18.8821 O   0  0  0  0  0  0  0  0  0  0  0  0
  -18.0593  -26.5220   25.6850 O   0  0  0  0  0  0  0  0  0  0  0  0
  -28.8336  -27.5877   19.9025 O   0  0  0  0  0  0  0  0  0  0  0  0
  -23.3169  -20.3491   21.7711 O   0  0  0  0  0  0  0  0  0  1  0  0
  -31.6629  -27.1742   24.6171 F   0  0  0  0  0  0  0  0  0  0  0  0
  -31.0019  -25.8855   20.1107 F   0  0  0  0  0  0  0  0  0  0  0  0
  1  2  1  0  0  0  0
  1  5  2  0  0  0  0
  2  6  2  0  0  0  0
  3  8  2  0  0  0  0
  3 16  1  0  0  0  0
  4  9  1  0  0  0  0
  4 16  2  0  0  0  0
  5 18  1  0  0  0  0
  6 20  1  0  0  0  0
  7 10  2  0  0  0  0
  7 19  1  0  0  0  0
  8 23  1  0  0  0  0
  9 23  2  0  0  0  0
 10 24  1  0  0  0  0
 11 12  2  0  0  0  0
 11 25  1  0  0  0  0
 12 26  1  0  0  0  0
 13 21  1  0  0  0  0
 13 24  2  0  0  0  0
 14 26  2  0  0  0  0
 14 27  1  0  0  0  0
 15 22  1  0  0  0  0
 15 60  2  0  0  0  0
 16 28  1  0  0  0  0
 17 28  1  0  0  0  0
 17 30  2  0  0  0  0
 17 32  1  0  0  0  0
 18 20  2  0  0  0  0
 18 37  1  0  0  0  0
 19 21  2  0  0  0  0
 19 38  1  0  0  0  0
 20 46  1  0  0  0  0
 21 39  1  0  0  0  0
 22 29  2  0  0  0  0
 22 66  1  0  0  0  0
 23 79  1  0  0  0  0
 24 80  1  0  0  0  0
 25 27  2  0  0  0  0
 25 79  1  0  0  0  0
 26 81  1  0  0  0  0
 27 82  1  0  0  0  0
 28 61  2  0  0  0  0
 29 54  1  0  0  0  0
 29 62  1  0  0  0  0
 30 63  1  0  0  0  0
 30 67  1  0  0  0  0
 31 60  1  0  0  0  0
 31 62  2  0  0  0  0
 31 69  1  0  0  0  0
 32 68  1  0  0  0  0
 32 74  2  0  0  0  0
 33 47  1  0  0  0  0
 33 70  1  0  0  0  0
 33 75  2  0  0  0  0
 34 57  1  0  0  0  0
 34 64  1  0  0  0  0
 34 76  2  0  0  0  0
 35 58  1  0  0  0  0
 35 71  1  0  0  0  0
 35 77  2  0  0  0  0
 36 65  1  0  0  0  0
 36 72  1  0  0  0  0
 36 78  2  0  0  0  0
 37 40  1  0  0  0  0
 38 47  1  0  0  0  0
 39 64  1  0  0  0  0
 40 42  1  0  0  0  0
 41 43  1  0  0  0  0
 41 44  1  0  0  0  0
 42 46  1  0  0  0  0
 43 48  1  0  0  0  0
 44 65  1  0  0  0  0
 45 48  1  0  0  0  0
 45 65  1  0  0  0  0
 46 70  1  0  0  0  0
 47 64  1  0  0  0  0
 48 63  1  0  0  0  0
 49 58  1  0  0  0  0
 50 59  1  0  0  0  0
 51 59  1  0  0  0  0
 52 59  1  0  0  0  0
 53 73  1  0  0  0  0
 54 72  1  0  0  0  0
 55 56  1  0  0  0  0
 55 69  1  0  0  0  0
 56 80  1  0  0  0  0
 57 59  1  0  0  0  0
 57 71  1  0  0  0  0
 58 73  1  0  0  0  0
 61 63  1  0  0  0  0
M  CHG  1  73   1
M  ISO  4  36 100  56 101  72 100  80 101
M  END
> <Batch ID>
0196

> <Smiles>
CNC(C)C(=O)NC(C(=O)N1Cc2cc([101O:1][101CH2:1]CNc3ncc(N)c(C[100NH:0][100C:0](=O)N4CCCC(n5nc(-c6ccc(Oc7ccc(F)cc7F)cc6)c(C(N)=O)c5N)C4)n3)ccc2CC1C(=O)NC1CCCc2ccccc21)C(C)(C)C

> <Shape>
0.206

> <Color>
0.064

> <Negative vol penalty>
0.000

$$$$

  -OEChem-04052305393D

 86 94  0     1  0  0  0  0  0999 V2000
  -16.6937  -29.6274   24.2898 C   0  0  0  0  0  0  0  0  0  0  0  0
  -17.4675  -28.4745   24.2028 C   0  0  0  0  0  0  0  0  0  0  0  0
  -24.6291   -8.6008   21.3880 C   0  0  0  0  0  0  0  0  0  0  0  0
  -23.4577  -10.5297   22.2509 C   0  0  0  0  0  0  0  0  0  0  0  0
  -17.0208  -30.7446   23.5224 C   0  0  0  0  0  0  0  0  0  0  0  0
  -18.5682  -28.4378   23.3476 C   0  0  0  0  0  0  0  0  0  0  0  0
  -23.8498  -25.4781   24.2700 C   0  0  0  0  0  0  0  0  0  0  0  0
  -24.0520   -7.8070   22.3791 C   0  0  0  0  0  0  0  0  0  0  0  0
  -22.8805   -9.7358   23.2420 C   0  0  0  0  0  0  0  0  0  0  0  0
  -24.3276  -24.2489   23.8177 C   0  0  0  0  0  0  0  0  0  0  0  0
  -21.0765   -6.3058   22.9497 C   0  0  0  0  0  0  0  0  0  0  0  0
  -20.5569   -5.0687   22.5685 C   0  0  0  0  0  0  0  0  0  0  0  0
  -25.4784  -25.3662   22.0158 C   0  0  0  0  0  0  0  0  0  0  0  0
  -22.0841   -3.9620   24.0786 C   0  0  0  0  0  0  0  0  0  0  0  0
  -28.7444  -20.0051   18.7455 C   0  0  0  0  0  0  0  0  0  0  0  0
  -27.4630  -20.1367   18.2574 C   0  0  0  0  0  0  0  0  0  0  0  0
  -24.3320   -9.9622   21.3239 C   0  0  0  0  0  0  0  0  0  0  0  0
  -24.4158  -11.0465   19.0163 C   0  0  0  0  0  0  0  0  0  0  0  0
  -18.1318  -30.7248   22.6646 C   0  0  0  0  0  0  0  0  0  0  0  0
  -24.1743  -26.6614   23.5911 C   0  0  0  0  0  0  0  0  0  0  0  0
  -18.9097  -29.5553   22.5670 C   0  0  0  0  0  0  0  0  0  0  0  0
  -25.0055  -26.6093   22.4630 C   0  0  0  0  0  0  0  0  0  0  0  0
  -23.1777   -8.3744   23.3061 C   0  0  0  0  0  0  0  0  0  0  0  0
  -25.1397  -24.1925   22.6888 C   0  0  0  0  0  0  0  0  0  0  0  0
  -22.0999   -6.3710   23.8952 C   0  0  0  0  0  0  0  0  0  0  0  0
  -21.0606   -3.8969   23.1330 C   0  0  0  0  0  0  0  0  0  0  0  0
  -22.6037   -5.1991   24.4597 C   0  0  0  0  0  0  0  0  0  0  0  0
  -24.9283  -10.7829   20.3007 C   0  0  0  0  0  0  0  0  0  0  0  0
  -27.9837  -18.5714   20.3565 C   0  0  0  0  0  0  0  0  0  0  0  0
  -26.7021  -18.7034   19.8690 C   0  0  0  0  0  0  0  0  0  0  0  0
  -25.3479  -11.8726   18.4375 C   0  0  0  0  0  0  0  0  0  0  0  0
  -23.2052  -10.5858   18.4014 C   0  0  0  0  0  0  0  0  0  0  0  0
  -22.5118  -28.9012   22.0669 C   0  0  0  0  0  0  0  0  0  0  0  0
  -25.3984  -30.3698   21.8860 C   0  0  0  0  0  0  0  0  0  0  0  0
  -28.7993  -30.0860   21.8993 C   0  0  0  0  0  0  0  0  0  0  0  0
  -29.4107  -15.6481   20.6937 C   0  0  0  0  0  0  0  0  0  0  0  0
  -18.4182  -31.9408   21.8195 C   0  0  0  0  0  0  0  0  0  0  0  0
  -23.6727  -27.9821   24.1074 C   0  0  0  0  0  0  0  0  0  0  0  0
  -25.3998  -27.8529   21.7104 C   0  0  0  0  0  0  0  0  0  0  0  0
  -19.8212  -31.9477   21.2179 C   0  0  0  0  0  0  0  0  0  0  0  0
  -30.0225  -12.8878   18.5297 C   0  0  0  0  0  0  0  0  0  0  0  0
  -20.1460  -30.5891   20.6053 C   0  0  0  0  0  0  0  0  0  0  0  0
  -28.7401  -12.0591   18.6223 C   0  0  0  0  0  0  0  0  0  0  0  0
  -30.3821  -13.5230   19.8710 C   0  0  0  0  0  0  0  0  0  0  0  0
  -28.0222  -13.4904   20.5805 C   0  0  0  0  0  0  0  0  0  0  0  0
  -20.1260  -29.4851   21.6694 C   0  0  1  0  0  0  0  0  0  0  0  0
  -23.6455  -29.0702   23.0384 C   0  0  1  0  0  0  0  0  0  0  0  0
  -27.5883  -12.8755   19.2389 C   0  0  2  0  0  0  0  0  0  0  0  0
  -23.4693  -16.2164   19.7163 C   0  0  0  0  0  0  0  0  0  0  0  0
  -30.8912  -31.4568   21.6942 C   0  0  0  0  0  0  0  0  0  0  0  0
  -24.9632  -30.5788   18.8733 C   0  0  0  0  0  0  0  0  0  0  0  0
  -27.4076  -31.0594   18.6238 C   0  0  0  0  0  0  0  0  0  0  0  0
  -25.9588  -32.6165   19.9273 C   0  0  0  0  0  0  0  0  0  0  0  0
  -29.7087  -29.3150   24.6081 C   0  0  0  0  0  0  0  0  0  0  0  0
  -28.2931  -17.7011   21.5275 C   0  0  0  0  0  0  0  0  0  0  0  0
  -23.3611  -17.3009   20.7811 C   0  0  0  0  0  0  0  0  0  0  0  0
  -24.1588  -19.5431   21.6334 C   0  0  0  0  0  0  0  0  0  0  0  0
  -24.7921  -21.8483   22.4894 C   0  0  0  0  0  0  0  0  0  1  0  0
  -26.5439  -30.3586   20.9028 C   0  0  1  0  0  0  0  0  0  0  0  0
  -29.8714  -30.8560   22.6491 C   0  0  2  0  0  0  0  0  0  0  0  0
  -24.3035  -18.4863   20.5212 C   0  0  1  0  0  0  0  0  0  0  0  0
  -25.0191  -20.7978   21.4047 C   0  0  2  0  0  0  0  0  0  0  0  0
  -26.2095  -31.1295   19.5946 C   0  0  0  0  0  0  0  0  0  0  0  0
  -29.0278  -19.2200   19.8037 N   0  0  0  0  0  0  0  0  0  0  0  0
  -26.4188  -19.4882   18.8105 N   0  0  0  0  0  0  0  0  0  0  0  0
  -26.0956  -11.3921   20.5250 N   0  0  0  0  0  0  0  0  0  0  0  0
  -26.3243  -12.0466   19.3737 N   0  0  0  0  0  0  0  0  0  0  0  0
  -24.8789  -29.1196   22.2507 N   0  0  0  0  0  0  0  0  0  0  0  0
  -29.2480  -14.2840   20.4007 N   0  0  0  0  0  0  0  0  0  0  0  0
  -25.4195  -12.4598   17.2240 N   0  0  0  0  0  0  0  0  0  0  0  0
  -22.3609   -9.7430   19.1371 N   0  0  0  0  0  0  0  0  0  0  0  0
  -25.6724  -18.0115   20.4793 N   0  0  0  0  0  0  0  0  0  0  0  0
  -21.3396  -29.5203   22.4571 N   0  0  0  0  0  0  0  0  0  0  0  0
  -27.7036  -30.8755   21.6212 N   0  0  0  0  0  0  0  0  0  0  0  0
  -28.2844  -16.2961   21.1859 N   0  0  0  0  0  0  0  0  0  0  0  0
  -30.5880  -29.9565   23.5969 N   0  3  0  0  0  0  0  0  0  0  0  0
  -22.8898  -10.8986   17.2283 O   0  0  0  0  0  0  0  0  0  0  0  0
  -22.6878  -28.2580   21.0388 O   0  0  0  0  0  0  0  0  0  0  0  0
  -24.9846  -31.4477   22.3202 O   0  0  0  0  0  0  0  0  0  0  0  0
  -28.9231  -28.9035   21.5880 O   0  0  0  0  0  0  0  0  0  0  0  0
  -30.4789  -16.2455   20.5239 O   0  0  0  0  0  0  0  0  0  0  0  0
  -24.6861  -21.3659   20.1415 O   0  0  0  0  0  0  0  0  0  0  0  0
  -22.6142   -7.6000   24.2732 O   0  0  0  0  0  0  0  0  0  0  0  0
  -25.6069  -22.9940   22.2448 O   0  0  0  0  0  0  0  0  0  1  0  0
  -20.5605   -2.7091   22.7680 F   0  0  0  0  0  0  0  0  0  0  0  0
  -23.5860   -5.2555   25.3694 F   0  0  0  0  0  0  0  0  0  0  0  0
  1  2  1  0  0  0  0
  1  5  2  0  0  0  0
  2  6  2  0  0  0  0
  3  8  2  0  0  0  0
  3 17  1  0  0  0  0
  4  9  1  0  0  0  0
  4 17  2  0  0  0  0
  5 19  1  0  0  0  0
  6 21  1  0  0  0  0
  7 10  2  0  0  0  0
  7 20  1  0  0  0  0
  8 23  1  0  0  0  0
  9 23  2  0  0  0  0
 10 24  1  0  0  0  0
 11 12  2  0  0  0  0
 11 25  1  0  0  0  0
 12 26  1  0  0  0  0
 13 22  1  0  0  0  0
 13 24  2  0  0  0  0
 14 26  2  0  0  0  0
 14 27  1  0  0  0  0
 15 16  1  0  0  0  0
 15 64  2  0  0  0  0
 16 65  2  0  0  0  0
 17 28  1  0  0  0  0
 18 28  1  0  0  0  0
 18 31  2  0  0  0  0
 18 32  1  0  0  0  0
 19 21  2  0  0  0  0
 19 37  1  0  0  0  0
 20 22  2  0  0  0  0
 20 38  1  0  0  0  0
 21 46  1  0  0  0  0
 22 39  1  0  0  0  0
 23 83  1  0  0  0  0
 24 84  1  0  0  0  0
 25 27  2  0  0  0  0
 25 83  1  0  0  0  0
 26 85  1  0  0  0  0
 27 86  1  0  0  0  0
 28 66  2  0  0  0  0
 29 30  2  0  0  0  0
 29 55  1  0  0  0  0
 29 64  1  0  0  0  0
 30 65  1  0  0  0  0
 30 72  1  0  0  0  0
 31 67  1  0  0  0  0
 31 70  1  0  0  0  0
 32 71  1  0  0  0  0
 32 77  2  0  0  0  0
 33 47  1  0  0  0  0
 33 73  1  0  0  0  0
 33 78  2  0  0  0  0
 34 59  1  0  0  0  0
 34 68  1  0  0  0  0
 34 79  2  0  0  0  0
 35 60  1  0  0  0  0
 35 74  1  0  0  0  0
 35 80  2  0  0  0  0
 36 69  1  0  0  0  0
 36 75  1  0  0  0  0
 36 81  2  0  0  0  0
 37 40  1  0  0  0  0
 38 47  1  0  0  0  0
 39 68  1  0  0  0  0
 40 42  1  0  0  0  0
 41 43  1  0  0  0  0
 41 44  1  0  0  0  0
 42 46  1  0  0  0  0
 43 48  1  0  0  0  0
 44 69  1  0  0  0  0
 45 48  1  0  0  0  0
 45 69  1  0  0  0  0
 46 73  1  0  0  0  0
 47 68  1  0  0  0  0
 48 67  1  0  0  0  0
 49 56  1  0  0  0  0
 50 60  1  0  0  0  0
 51 63  1  0  0  0  0
 52 63  1  0  0  0  0
 53 63  1  0  0  0  0
 54 76  1  0  0  0  0
 55 75  1  0  0  0  0
 56 61  1  0  0  0  0
 57 61  1  0  0  0  0
 57 62  1  0  0  0  0
 58 62  1  0  0  0  0
 58 84  1  0  0  0  0
 59 63  1  0  0  0  0
 59 74  1  0  0  0  0
 60 76  1  0  0  0  0
 61 72  1  0  0  0  0
 62 82  1  0  0  0  0
 66 67  1  0  0  0  0
M  CHG  1  76   1
M  ISO  4  36 100  58 101  75 100  84 101
M  END
> <Batch ID>
0196

> <Smiles>
CCC(CC(O)[101CH2:1][101O:1]c1ccc2c(c1)CN(C(=O)C(NC(=O)C(C)NC)C(C)(C)C)C(C(=O)NC1CCCc3ccccc31)C2)Nc1nccnc1C[100NH:0][100C:0](=O)N1CCCC(n2nc(-c3ccc(Oc4ccc(F)cc4F)cc3)c(C(N)=O)c2N)C1

> <Shape>
0.249

> <Color>
0.095

> <Negative vol penalty>
0.000

$$$$

  -OEChem-04052305393D

 81 89  0     1  0  0  0  0  0999 V2000
  -30.3086  -32.9968   29.0573 C   0  0  0  0  0  0  0  0  0  0  0  0
  -30.5936  -32.2196   27.9393 C   0  0  0  0  0  0  0  0  0  0  0  0
  -24.6120   -8.7278   21.1263 C   0  0  0  0  0  0  0  0  0  0  0  0
  -22.8281  -10.2770   20.6215 C   0  0  0  0  0  0  0  0  0  0  0  0
  -29.0280  -32.9801   29.6085 C   0  0  0  0  0  0  0  0  0  0  0  0
  -29.5985  -31.4242   27.3723 C   0  0  0  0  0  0  0  0  0  0  0  0
  -28.8432  -30.1508   21.4298 C   0  0  0  0  0  0  0  0  0  0  0  0
  -23.6737   -7.7205   21.3508 C   0  0  0  0  0  0  0  0  0  0  0  0
  -21.8898   -9.2697   20.8459 C   0  0  0  0  0  0  0  0  0  0  0  0
  -29.2027  -29.0500   20.6533 C   0  0  0  0  0  0  0  0  0  0  0  0
  -21.5617   -6.7897   23.8201 C   0  0  0  0  0  0  0  0  0  0  0  0
  -21.7290   -5.9892   24.9501 C   0  0  0  0  0  0  0  0  0  0  0  0
  -26.9918  -28.1300   20.9448 C   0  0  0  0  0  0  0  0  0  0  0  0
  -28.4231  -19.8311   20.4732 C   0  0  0  0  0  0  0  0  0  0  0  0
  -21.8975   -4.0344   23.5404 C   0  0  0  0  0  0  0  0  0  0  0  0
  -28.1290  -20.2612   18.2080 C   0  0  0  0  0  0  0  0  0  0  0  0
  -24.1892  -10.0061   20.7617 C   0  0  0  0  0  0  0  0  0  0  0  0
  -25.7836  -11.3707   19.3113 C   0  0  0  0  0  0  0  0  0  0  0  0
  -28.0141  -32.1915   29.0422 C   0  0  0  0  0  0  0  0  0  0  0  0
  -27.5566  -30.2443   21.9796 C   0  0  0  0  0  0  0  0  0  0  0  0
  -28.3035  -31.3958   27.9172 C   0  0  0  0  0  0  0  0  0  0  0  0
  -26.6177  -29.2342   21.7258 C   0  0  0  0  0  0  0  0  0  0  0  0
  -28.6268  -20.7440   19.3983 C   0  0  0  0  0  0  0  0  0  0  0  0
  -22.3126   -7.9914   21.2106 C   0  0  0  0  0  0  0  0  0  0  0  0
  -28.2779  -28.0381   20.4131 C   0  0  0  0  0  0  0  0  0  0  0  0
  -21.5622   -6.2125   22.5502 C   0  0  0  0  0  0  0  0  0  0  0  0
  -21.8970   -4.6116   24.8102 C   0  0  0  0  0  0  0  0  0  0  0  0
  -21.7301   -4.8348   22.4104 C   0  0  0  0  0  0  0  0  0  0  0  0
  -25.1580  -11.0473   20.5303 C   0  0  0  0  0  0  0  0  0  0  0  0
  -26.6101  -12.4238   19.6183 C   0  0  0  0  0  0  0  0  0  0  0  0
  -27.7771  -18.6854   20.0635 C   0  0  0  0  0  0  0  0  0  0  0  0
  -25.6311  -10.7727   18.0171 C   0  0  0  0  0  0  0  0  0  0  0  0
  -26.3822  -30.3757   24.9304 C   0  0  0  0  0  0  0  0  0  0  0  0
  -23.5792  -30.8703   23.3746 C   0  0  0  0  0  0  0  0  0  0  0  0
  -21.7433  -30.4950   20.5223 C   0  0  0  0  0  0  0  0  0  0  0  0
  -27.5629  -17.2905   22.1503 C   0  0  0  0  0  0  0  0  0  0  0  0
  -26.6578  -32.1697   29.7015 C   0  0  0  0  0  0  0  0  0  0  0  0
  -27.1760  -31.4511   22.7928 C   0  0  0  0  0  0  0  0  0  0  0  0
  -25.2172  -29.2968   22.2762 C   0  0  0  0  0  0  0  0  0  0  0  0
  -25.5593  -31.5872   28.8159 C   0  0  0  0  0  0  0  0  0  0  0  0
  -27.9779  -14.3399   24.0993 C   0  0  0  0  0  0  0  0  0  0  0  0
  -26.0306  -30.2916   28.1633 C   0  0  0  0  0  0  0  0  0  0  0  0
  -27.3327  -13.2468   23.2443 C   0  0  0  0  0  0  0  0  0  0  0  0
  -27.2200  -15.6622   23.9959 C   0  0  0  0  0  0  0  0  0  0  0  0
  -26.3533  -15.0523   21.7719 C   0  0  0  0  0  0  0  0  0  0  0  0
  -27.2440  -30.5390   27.2588 C   0  0  1  0  0  0  0  0  0  0  0  0
  -25.9997  -31.1937   23.7295 C   0  0  1  0  0  0  0  0  0  0  0  0
  -27.1190  -13.7193   21.7928 C   0  0  2  0  0  0  0  0  0  0  0  0
  -19.4720  -30.9668   19.5652 C   0  0  0  0  0  0  0  0  0  0  0  0
  -22.4233  -28.5460   24.9782 C   0  0  0  0  0  0  0  0  0  0  0  0
  -20.5283  -28.4525   23.3446 C   0  0  0  0  0  0  0  0  0  0  0  0
  -20.8864  -30.5021   24.7207 C   0  0  0  0  0  0  0  0  0  0  0  0
  -22.8694  -32.2194   18.3969 C   0  0  0  0  0  0  0  0  0  0  0  0
  -29.3082  -22.0835   19.5478 C   0  0  0  0  0  0  0  0  0  0  0  0
  -28.9215  -24.5809   19.5832 C   0  0  0  0  0  0  0  0  0  0  0  0
  -27.9818  -25.7239   19.9516 C   0  0  0  0  0  0  0  0  0  1  0  0
  -22.4857  -29.9814   22.8330 C   0  0  1  0  0  0  0  0  0  0  0  0
  -20.8949  -31.4765   19.7341 C   0  0  2  0  0  0  0  0  0  0  0  0
  -28.3161  -23.2057   19.8838 C   0  0  2  0  0  0  0  0  0  0  0  0
  -21.6078  -29.3681   23.9602 C   0  0  0  0  0  0  0  0  0  0  0  0
  -25.5534  -11.8313   21.5367 N   0  0  0  0  0  0  0  0  0  0  0  0
  -26.4364  -12.6578   20.9507 N   0  0  0  0  0  0  0  0  0  0  0  0
  -24.8951  -30.4939   23.0705 N   0  0  0  0  0  0  0  0  0  0  0  0
  -27.0590  -16.0490   22.5925 N   0  0  0  0  0  0  0  0  0  0  0  0
  -27.4613  -13.1631   18.8759 N   0  0  0  0  0  0  0  0  0  0  0  0
  -24.7399   -9.7000   17.8776 N   0  0  0  0  0  0  0  0  0  0  0  0
  -27.3803  -17.5351   20.7896 N   0  0  0  0  0  0  0  0  0  0  0  0
  -26.8271  -31.1249   26.0029 N   0  0  0  0  0  0  0  0  0  0  0  0
  -21.7438  -30.7877   21.8698 N   0  0  0  0  0  0  0  0  0  0  0  0
  -21.4792  -31.6959   18.3808 N   0  3  0  0  0  0  0  0  0  0  0  0
  -26.2785  -11.1670   17.0177 O   0  0  0  0  0  0  0  0  0  0  0  0
  -26.2799  -29.1553   24.8877 O   0  0  0  0  0  0  0  0  0  0  0  0
  -23.2766  -31.8660   24.0369 O   0  0  0  0  0  0  0  0  0  0  0  0
  -22.3424  -29.5599   19.9959 O   0  0  0  0  0  0  0  0  0  0  0  0
  -28.1398  -18.0667   22.9162 O   0  0  0  0  0  0  0  0  0  0  0  0
  -27.9713  -23.1363   21.2672 O   0  0  0  0  0  0  0  0  0  0  0  0
  -21.3967   -7.0086   21.4293 O   0  0  0  0  0  0  0  0  0  0  0  0
  -28.6264  -26.9622   19.6561 O   0  0  0  0  0  0  0  0  0  1  0  0
  -22.0592   -3.8432   25.8953 F   0  0  0  0  0  0  0  0  0  0  0  0
  -21.7326   -4.2747   21.1929 F   0  0  0  0  0  0  0  0  0  0  0  0
  -27.4194  -18.7133   18.3891 S   0  0  0  0  0  0  0  0  0  0  0  0
  1  2  1  0  0  0  0
  1  5  2  0  0  0  0
  2  6  2  0  0  0  0
  3  8  2  0  0  0  0
  3 17  1  0  0  0  0
  4  9  1  0  0  0  0
  4 17  2  0  0  0  0
  5 19  1  0  0  0  0
  6 21  1  0  0  0  0
  7 10  2  0  0  0  0
  7 20  1  0  0  0  0
  8 24  1  0  0  0  0
  9 24  2  0  0  0  0
 10 25  1  0  0  0  0
 11 12  2  0  0  0  0
 11 26  1  0  0  0  0
 12 27  1  0  0  0  0
 13 22  1  0  0  0  0
 13 25  2  0  0  0  0
 14 23  1  0  0  0  0
 14 31  2  0  0  0  0
 15 27  2  0  0  0  0
 15 28  1  0  0  0  0
 16 23  2  0  0  0  0
 16 81  1  0  0  0  0
 17 29  1  0  0  0  0
 18 29  1  0  0  0  0
 18 30  2  0  0  0  0
 18 32  1  0  0  0  0
 19 21  2  0  0  0  0
 19 37  1  0  0  0  0
 20 22  2  0  0  0  0
 20 38  1  0  0  0  0
 21 46  1  0  0  0  0
 22 39  1  0  0  0  0
 23 54  1  0  0  0  0
 24 77  1  0  0  0  0
 25 78  1  0  0  0  0
 26 28  2  0  0  0  0
 26 77  1  0  0  0  0
 27 79  1  0  0  0  0
 28 80  1  0  0  0  0
 29 61  2  0  0  0  0
 30 62  1  0  0  0  0
 30 65  1  0  0  0  0
 31 67  1  0  0  0  0
 31 81  1  0  0  0  0
 32 66  1  0  0  0  0
 32 71  2  0  0  0  0
 33 47  1  0  0  0  0
 33 68  1  0  0  0  0
 33 72  2  0  0  0  0
 34 57  1  0  0  0  0
 34 63  1  0  0  0  0
 34 73  2  0  0  0  0
 35 58  1  0  0  0  0
 35 69  1  0  0  0  0
 35 74  2  0  0  0  0
 36 64  1  0  0  0  0
 36 67  1  0  0  0  0
 36 75  2  0  0  0  0
 37 40  1  0  0  0  0
 38 47  1  0  0  0  0
 39 63  1  0  0  0  0
 40 42  1  0  0  0  0
 41 43  1  0  0  0  0
 41 44  1  0  0  0  0
 42 46  1  0  0  0  0
 43 48  1  0  0  0  0
 44 64  1  0  0  0  0
 45 48  1  0  0  0  0
 45 64  1  0  0  0  0
 46 68  1  0  0  0  0
 47 63  1  0  0  0  0
 48 62  1  0  0  0  0
 49 58  1  0  0  0  0
 50 60  1  0  0  0  0
 51 60  1  0  0  0  0
 52 60  1  0  0  0  0
 53 70  1  0  0  0  0
 54 59  1  0  0  0  0
 55 56  1  0  0  0  0
 55 59  1  0  0  0  0
 56 78  1  0  0  0  0
 57 60  1  0  0  0  0
 57 69  1  0  0  0  0
 58 70  1  0  0  0  0
 59 76  1  0  0  0  0
 61 62  1  0  0  0  0
M  CHG  1  70   1
M  ISO  4  36 100  56 101  67 100  78 101
M  END
> <Batch ID>
0196

> <Smiles>
CNC(C)C(=O)NC(C(=O)N1Cc2cc([101O:1][101CH2:1]CC(O)Cc3csc([100NH:0][100C:0](=O)N4CCCC(n5nc(-c6ccc(Oc7ccc(F)cc7F)cc6)c(C(N)=O)c5N)C4)c3)ccc2CC1C(=O)NC1CCCc2ccccc21)C(C)(C)C

> <Shape>
0.288

> <Color>
0.101

> <Negative vol penalty>
0.000

$$$$

  -OEChem-04052305393D

 82 90  0     1  0  0  0  0  0999 V2000
  -32.1056  -15.3839   19.2703 C   0  0  0  0  0  0  0  0  0  0  0  0
  -31.1660  -16.4074   19.2004 C   0  0  0  0  0  0  0  0  0  0  0  0
  -28.7444  -25.7399   19.5924 C   0  0  0  0  0  0  0  0  0  0  0  0
  -26.5649  -24.7247   19.3548 C   0  0  0  0  0  0  0  0  0  0  0  0
  -31.6880  -14.0676   19.4623 C   0  0  0  0  0  0  0  0  0  0  0  0
  -29.8079  -16.1150   19.3214 C   0  0  0  0  0  0  0  0  0  0  0  0
  -25.5120  -19.5988   21.9509 C   0  0  0  0  0  0  0  0  0  0  0  0
  -29.3382  -24.4792   19.5321 C   0  0  0  0  0  0  0  0  0  0  0  0
  -27.1587  -23.4640   19.2945 C   0  0  0  0  0  0  0  0  0  0  0  0
  -24.5697  -20.4820   21.4259 C   0  0  0  0  0  0  0  0  0  0  0  0
  -28.7790  -21.5828   17.0018 C   0  0  0  0  0  0  0  0  0  0  0  0
  -28.3284  -20.7023   16.0184 C   0  0  0  0  0  0  0  0  0  0  0  0
  -22.9134  -18.7286   21.4650 C   0  0  0  0  0  0  0  0  0  0  0  0
  -27.6742  -19.1266   17.7291 C   0  0  0  0  0  0  0  0  0  0  0  0
  -18.4825  -28.1556   22.8902 C   0  0  0  0  0  0  0  0  0  0  0  0
  -27.3577  -25.8627   19.5038 C   0  0  0  0  0  0  0  0  0  0  0  0
  -26.4607  -28.0240   18.4880 C   0  0  0  0  0  0  0  0  0  0  0  0
  -30.3248  -13.7601   19.5954 C   0  0  0  0  0  0  0  0  0  0  0  0
  -25.1645  -18.2686   22.2272 C   0  0  0  0  0  0  0  0  0  0  0  0
  -29.3716  -14.7932   19.5141 C   0  0  0  0  0  0  0  0  0  0  0  0
  -23.8525  -17.8312   21.9959 C   0  0  0  0  0  0  0  0  0  0  0  0
  -28.5454  -23.3413   19.3831 C   0  0  0  0  0  0  0  0  0  0  0  0
  -23.2710  -20.0462   21.1801 C   0  0  0  0  0  0  0  0  0  0  0  0
  -28.6774  -21.2353   18.3489 C   0  0  0  0  0  0  0  0  0  0  0  0
  -27.7759  -19.4742   16.3821 C   0  0  0  0  0  0  0  0  0  0  0  0
  -28.1249  -20.0072   18.7125 C   0  0  0  0  0  0  0  0  0  0  0  0
  -26.7437  -27.1646   19.5666 C   0  0  0  0  0  0  0  0  0  0  0  0
  -19.8219  -28.0393   23.1977 C   0  0  0  0  0  0  0  0  0  0  0  0
  -25.8830  -29.1261   19.0696 C   0  0  0  0  0  0  0  0  0  0  0  0
  -19.5966  -26.2101   22.0089 C   0  0  0  0  0  0  0  0  0  0  0  0
  -26.6987  -27.8423   17.0859 C   0  0  0  0  0  0  0  0  0  0  0  0
  -26.1291  -15.4316   21.1670 C   0  0  0  0  0  0  0  0  0  0  0  0
  -24.1607  -14.3267   23.4965 C   0  0  0  0  0  0  0  0  0  0  0  0
  -21.4657  -14.8798   25.5159 C   0  0  0  0  0  0  0  0  0  0  0  0
  -22.8955  -29.9373   24.1947 C   0  0  0  0  0  0  0  0  0  0  0  0
  -29.9184  -12.3164   19.7544 C   0  0  0  0  0  0  0  0  0  0  0  0
  -26.1855  -17.3356   22.8184 C   0  0  0  0  0  0  0  0  0  0  0  0
  -23.4234  -16.4186   22.2943 C   0  0  0  0  0  0  0  0  0  0  0  0
  -28.4849  -12.1380   20.2480 C   0  0  0  0  0  0  0  0  0  0  0  0
  -25.8524  -31.6233   23.1505 C   0  0  0  0  0  0  0  0  0  0  0  0
  -27.5351  -13.0407   19.4672 C   0  0  0  0  0  0  0  0  0  0  0  0
  -26.3906  -30.7493   22.0162 C   0  0  0  0  0  0  0  0  0  0  0  0
  -25.2227  -30.7837   24.2597 C   0  0  0  0  0  0  0  0  0  0  0  0
  -24.7222  -28.9651   22.6735 C   0  0  0  0  0  0  0  0  0  0  0  0
  -27.8910  -14.5191   19.6656 C   0  0  1  0  0  0  0  0  0  0  0  0
  -25.8593  -15.8645   22.5803 C   0  0  1  0  0  0  0  0  0  0  0  0
  -25.3169  -29.7700   21.5052 C   0  0  2  0  0  0  0  0  0  0  0  0
  -20.0734  -13.7773   27.2889 C   0  0  0  0  0  0  0  0  0  0  0  0
  -22.7988  -12.6220   21.3636 C   0  0  0  0  0  0  0  0  0  0  0  0
  -20.8837  -12.2994   22.9437 C   0  0  0  0  0  0  0  0  0  0  0  0
  -23.1547  -11.4661   23.5526 C   0  0  0  0  0  0  0  0  0  0  0  0
  -22.1424  -16.9629   27.5062 C   0  0  0  0  0  0  0  0  0  0  0  0
  -20.6077  -28.9945   24.0039 C   0  0  0  0  0  0  0  0  0  0  0  0
  -21.2163  -24.4227   21.3708 C   0  0  0  0  0  0  0  0  0  0  0  0
  -22.4962  -22.2870   20.9950 C   0  0  0  0  0  0  0  0  0  1  0  0
  -22.7001  -13.9530   23.5738 C   0  0  1  0  0  0  0  0  0  0  0  0
  -21.2661  -14.6778   27.0071 C   0  0  2  0  0  0  0  0  0  0  0  0
  -21.1207  -22.9451   20.9956 C   0  0  1  0  0  0  0  0  0  0  0  0
  -22.3926  -12.6113   22.8509 C   0  0  0  0  0  0  0  0  0  0  0  0
  -26.3761  -27.6768   20.7441 N   0  0  0  0  0  0  0  0  0  0  0  0
  -20.4623  -26.9241   22.6936 N   0  0  0  0  0  0  0  0  0  0  0  0
  -25.8564  -28.8700   20.4089 N   0  0  0  0  0  0  0  0  0  0  0  0
  -24.4595  -15.5426   22.8655 N   0  0  0  0  0  0  0  0  0  0  0  0
  -24.2120  -29.8776   23.7088 N   0  0  0  0  0  0  0  0  0  0  0  0
  -25.4004  -30.2796   18.5608 N   0  0  0  0  0  0  0  0  0  0  0  0
  -27.3011  -26.6508   16.6594 N   0  0  0  0  0  0  0  0  0  0  0  0
  -19.9008  -25.0224   21.3655 N   0  0  0  0  0  0  0  0  0  0  0  0
  -27.4188  -14.9843   20.9521 N   0  0  0  0  0  0  0  0  0  0  0  0
  -22.3507  -13.9624   24.9902 N   0  0  0  0  0  0  0  0  0  0  0  0
  -21.9991  -29.0484   23.6141 N   0  0  0  0  0  0  0  0  0  0  0  0
  -21.0361  -15.9870   27.6809 N   0  3  0  0  0  0  0  0  0  0  0  0
  -26.4015  -28.7177   16.2381 O   0  0  0  0  0  0  0  0  0  0  0  0
  -25.2332  -15.4970   20.3335 O   0  0  0  0  0  0  0  0  0  0  0  0
  -25.0048  -13.5711   23.9846 O   0  0  0  0  0  0  0  0  0  0  0  0
  -20.8910  -15.7607   24.8802 O   0  0  0  0  0  0  0  0  0  0  0  0
  -22.5436  -30.7282   25.0766 O   0  0  0  0  0  0  0  0  0  0  0  0
  -20.3154  -22.2685   21.9631 O   0  0  0  0  0  0  0  0  0  0  0  0
  -29.1245  -22.1110   19.3240 O   0  0  0  0  0  0  0  0  0  0  0  0
  -22.3494  -20.9060   20.6670 O   0  0  0  0  0  0  0  0  0  1  0  0
  -27.3418  -18.6293   15.4377 F   0  0  0  0  0  0  0  0  0  0  0  0
  -28.0236  -19.6683   20.0051 F   0  0  0  0  0  0  0  0  0  0  0  0
  -17.9949  -26.8211   21.9297 S   0  0  0  0  0  0  0  0  0  0  0  0
  1  2  1  0  0  0  0
  1  5  2  0  0  0  0
  2  6  2  0  0  0  0
  3  8  2  0  0  0  0
  3 16  1  0  0  0  0
  4  9  1  0  0  0  0
  4 16  2  0  0  0  0
  5 18  1  0  0  0  0
  6 20  1  0  0  0  0
  7 10  2  0  0  0  0
  7 19  1  0  0  0  0
  8 22  1  0  0  0  0
  9 22  2  0  0  0  0
 10 23  1  0  0  0  0
 11 12  2  0  0  0  0
 11 24  1  0  0  0  0
 12 25  1  0  0  0  0
 13 21  1  0  0  0  0
 13 23  2  0  0  0  0
 14 25  2  0  0  0  0
 14 26  1  0  0  0  0
 15 28  2  0  0  0  0
 15 82  1  0  0  0  0
 16 27  1  0  0  0  0
 17 27  1  0  0  0  0
 17 29  2  0  0  0  0
 17 31  1  0  0  0  0
 18 20  2  0  0  0  0
 18 36  1  0  0  0  0
 19 21  2  0  0  0  0
 19 37  1  0  0  0  0
 20 45  1  0  0  0  0
 21 38  1  0  0  0  0
 22 78  1  0  0  0  0
 23 79  1  0  0  0  0
 24 26  2  0  0  0  0
 24 78  1  0  0  0  0
 25 80  1  0  0  0  0
 26 81  1  0  0  0  0
 27 60  2  0  0  0  0
 28 53  1  0  0  0  0
 28 61  1  0  0  0  0
 29 62  1  0  0  0  0
 29 65  1  0  0  0  0
 30 61  2  0  0  0  0
 30 67  1  0  0  0  0
 30 82  1  0  0  0  0
 31 66  1  0  0  0  0
 31 72  2  0  0  0  0
 32 46  1  0  0  0  0
 32 68  1  0  0  0  0
 32 73  2  0  0  0  0
 33 56  1  0  0  0  0
 33 63  1  0  0  0  0
 33 74  2  0  0  0  0
 34 57  1  0  0  0  0
 34 69  1  0  0  0  0
 34 75  2  0  0  0  0
 35 64  1  0  0  0  0
 35 70  1  0  0  0  0
 35 76  2  0  0  0  0
 36 39  1  0  0  0  0
 37 46  1  0  0  0  0
 38 63  1  0  0  0  0
 39 41  1  0  0  0  0
 40 42  1  0  0  0  0
 40 43  1  0  0  0  0
 41 45  1  0  0  0  0
 42 47  1  0  0  0  0
 43 64  1  0  0  0  0
 44 47  1  0  0  0  0
 44 64  1  0  0  0  0
 45 68  1  0  0  0  0
 46 63  1  0  0  0  0
 47 62  1  0  0  0  0
 48 57  1  0  0  0  0
 49 59  1  0  0  0  0
 50 59  1  0  0  0  0
 51 59  1  0  0  0  0
 52 71  1  0  0  0  0
 53 70  1  0  0  0  0
 54 58  1  0  0  0  0
 54 67  1  0  0  0  0
 55 58  1  0  0  0  0
 55 79  1  0  0  0  0
 56 59  1  0  0  0  0
 56 69  1  0  0  0  0
 57 71  1  0  0  0  0
 58 77  1  0  0  0  0
 60 62  1  0  0  0  0
M  CHG  1  71   1
M  ISO  4  35 100  55 101  70 100  79 101
M  END
> <Batch ID>
0196

> <Smiles>
CNC(C)C(=O)NC(C(=O)N1Cc2cc([101O:1][101CH2:1]C(O)CNc3nc(C[100NH:0][100C:0](=O)N4CCCC(n5nc(-c6ccc(Oc7ccc(F)cc7F)cc6)c(C(N)=O)c5N)C4)cs3)ccc2CC1C(=O)NC1CCCc2ccccc21)C(C)(C)C

> <Shape>
0.216

> <Color>
0.068

> <Negative vol penalty>
0.000

$$$$

  -OEChem-04052305393D

 86 94  0     1  0  0  0  0  0999 V2000
  -39.2712  -31.5702   24.3948 C   0  0  0  0  0  0  0  0  0  0  0  0
  -39.0336  -30.2775   23.9388 C   0  0  0  0  0  0  0  0  0  0  0  0
  -23.0754   -9.8655   19.9424 C   0  0  0  0  0  0  0  0  0  0  0  0
  -23.8351   -9.8755   22.2358 C   0  0  0  0  0  0  0  0  0  0  0  0
  -38.2876  -32.5486   24.2567 C   0  0  0  0  0  0  0  0  0  0  0  0
  -37.8118  -29.9622   23.3453 C   0  0  0  0  0  0  0  0  0  0  0  0
  -36.8555  -26.0166   18.7602 C   0  0  0  0  0  0  0  0  0  0  0  0
  -22.3321   -8.7122   20.1936 C   0  0  0  0  0  0  0  0  0  0  0  0
  -23.0917   -8.7222   22.4871 C   0  0  0  0  0  0  0  0  0  0  0  0
  -36.4243  -24.6909   18.7381 C   0  0  0  0  0  0  0  0  0  0  0  0
  -19.8639   -7.9235   23.0902 C   0  0  0  0  0  0  0  0  0  0  0  0
  -19.1069   -7.8845   24.2611 C   0  0  0  0  0  0  0  0  0  0  0  0
  -34.1683  -25.4380   18.3238 C   0  0  0  0  0  0  0  0  0  0  0  0
  -20.3492   -5.9485   24.9999 C   0  0  0  0  0  0  0  0  0  0  0  0
  -23.8269  -10.4471   20.9635 C   0  0  0  0  0  0  0  0  0  0  0  0
  -24.1675  -12.9722   20.8406 C   0  0  0  0  0  0  0  0  0  0  0  0
  -37.0567  -32.2476   23.6525 C   0  0  0  0  0  0  0  0  0  0  0  0
  -35.9430  -27.0651   18.5749 C   0  0  0  0  0  0  0  0  0  0  0  0
  -36.8103  -30.9372   23.2002 C   0  0  0  0  0  0  0  0  0  0  0  0
  -34.5909  -26.7760   18.3415 C   0  0  0  0  0  0  0  0  0  0  0  0
  -22.3402   -8.1406   21.4659 C   0  0  0  0  0  0  0  0  0  0  0  0
  -35.0800  -24.4016   18.5227 C   0  0  0  0  0  0  0  0  0  0  0  0
  -20.8635   -6.9749   22.8741 C   0  0  0  0  0  0  0  0  0  0  0  0
  -19.3495   -6.8971   25.2159 C   0  0  0  0  0  0  0  0  0  0  0  0
  -21.1062   -5.9875   23.8289 C   0  0  0  0  0  0  0  0  0  0  0  0
  -24.5954  -11.6380   20.7045 C   0  0  0  0  0  0  0  0  0  0  0  0
  -25.2593  -13.7218   20.4766 C   0  0  0  0  0  0  0  0  0  0  0  0
  -30.5691  -16.9531   21.8989 C   0  0  0  0  0  0  0  0  0  0  0  0
  -32.0822  -18.5144   21.9897 C   0  0  0  0  0  0  0  0  0  0  0  0
  -22.8967  -13.4879   21.2588 C   0  0  0  0  0  0  0  0  0  0  0  0
  -34.9511  -29.5142   20.3417 C   0  0  0  0  0  0  0  0  0  0  0  0
  -33.3762  -30.3314   17.6262 C   0  0  0  0  0  0  0  0  0  0  0  0
  -32.0093  -29.3412   14.6600 C   0  0  0  0  0  0  0  0  0  0  0  0
  -30.7249  -14.7706   20.6505 C   0  0  0  0  0  0  0  0  0  0  0  0
  -36.0063  -33.3266   23.5681 C   0  0  0  0  0  0  0  0  0  0  0  0
  -36.4286  -28.4887   18.5749 C   0  0  0  0  0  0  0  0  0  0  0  0
  -33.5746  -27.8646   18.1167 C   0  0  0  0  0  0  0  0  0  0  0  0
  -34.8799  -33.0048   22.5894 C   0  0  0  0  0  0  0  0  0  0  0  0
  -29.6120  -12.3532   18.2851 C   0  0  0  0  0  0  0  0  0  0  0  0
  -34.3869  -31.5759   22.7939 C   0  0  0  0  0  0  0  0  0  0  0  0
  -28.1725  -12.0614   18.7148 C   0  0  0  0  0  0  0  0  0  0  0  0
  -30.5269  -12.5840   19.4865 C   0  0  0  0  0  0  0  0  0  0  0  0
  -28.6194  -13.3092   20.8667 C   0  0  0  0  0  0  0  0  0  0  0  0
  -35.5070  -30.5626   22.5286 C   0  0  1  0  0  0  0  0  0  0  0  0
  -35.3261  -29.4960   18.8868 C   0  0  1  0  0  0  0  0  0  0  0  0
  -27.6468  -13.1339   19.6890 C   0  0  2  0  0  0  0  0  0  0  0  0
  -30.7581  -30.2284   12.6739 C   0  0  0  0  0  0  0  0  0  0  0  0
  -35.9052  -16.4286   19.8530 C   0  0  0  0  0  0  0  0  0  0  0  0
  -37.2365  -16.2575   21.9641 C   0  0  0  0  0  0  0  0  0  0  0  0
  -30.8236  -30.4567   19.2931 C   0  0  0  0  0  0  0  0  0  0  0  0
  -29.5117  -30.3985   17.1616 C   0  0  0  0  0  0  0  0  0  0  0  0
  -31.0657  -32.2961   17.6162 C   0  0  0  0  0  0  0  0  0  0  0  0
  -34.1707  -28.5507   12.7993 C   0  0  0  0  0  0  0  0  0  0  0  0
  -35.2079  -17.8062   21.8367 C   0  0  0  0  0  0  0  0  0  0  0  0
  -35.2172  -20.0165   20.6101 C   0  0  0  0  0  0  0  0  0  0  0  0
  -35.3793  -22.1756   19.3045 C   0  0  0  0  0  0  0  0  0  1  0  0
  -32.0172  -30.0245   17.0449 C   0  0  1  0  0  0  0  0  0  0  0  0
  -32.1259  -29.9100   13.2574 C   0  0  2  0  0  0  0  0  0  0  0  0
  -36.4066  -17.1916   21.0826 C   0  0  0  0  0  0  0  0  0  0  0  0
  -34.3629  -18.8009   21.0193 C   0  0  2  0  0  0  0  0  0  0  0  0
  -34.4646  -21.0310   19.7361 C   0  0  1  0  0  0  0  0  0  0  0  0
  -30.8731  -30.7733   17.7851 C   0  0  0  0  0  0  0  0  0  0  0  0
  -25.8604  -11.5423   20.2864 N   0  0  0  0  0  0  0  0  0  0  0  0
  -31.8326  -17.3298   21.4763 N   0  0  0  0  0  0  0  0  0  0  0  0
  -29.8457  -17.7514   22.6838 N   0  0  0  0  0  0  0  0  0  0  0  0
  -26.2367  -12.8260   20.1566 N   0  0  0  0  0  0  0  0  0  0  0  0
  -34.0974  -29.2408   18.1323 N   0  0  0  0  0  0  0  0  0  0  0  0
  -29.9673  -13.6156   20.3626 N   0  0  0  0  0  0  0  0  0  0  0  0
  -25.4691  -15.0533   20.4020 N   0  0  0  0  0  0  0  0  0  0  0  0
  -21.8852  -12.5786   21.5970 N   0  0  0  0  0  0  0  0  0  0  0  0
  -30.0770  -15.6963   21.4677 N   0  0  0  0  0  0  0  0  0  0  0  0
  -33.2389  -19.2518   21.8147 N   0  0  0  0  0  0  0  0  0  0  0  0
  -35.7027  -30.3867   21.1055 N   0  0  0  0  0  0  0  0  0  0  0  0
  -32.1049  -30.3262   15.6202 N   0  0  0  0  0  0  0  0  0  0  0  0
  -32.8052  -28.9351   12.3579 N   0  3  0  0  0  0  0  0  0  0  0  0
  -22.6599  -14.7185   21.3147 O   0  0  0  0  0  0  0  0  0  0  0  0
  -34.0459  -28.7914   20.7413 O   0  0  0  0  0  0  0  0  0  0  0  0
  -33.7858  -31.4950   17.6245 O   0  0  0  0  0  0  0  0  0  0  0  0
  -31.8457  -28.1434   14.8816 O   0  0  0  0  0  0  0  0  0  0  0  0
  -31.8540  -14.9393   20.1828 O   0  0  0  0  0  0  0  0  0  0  0  0
  -33.9620  -20.3816   18.5683 O   0  0  0  0  0  0  0  0  0  0  0  0
  -21.6148   -7.0154   21.7115 O   0  0  0  0  0  0  0  0  0  0  0  0
  -34.6536  -23.1003   18.5012 O   0  0  0  0  0  0  0  0  0  1  0  0
  -18.6235   -6.8607   26.3410 F   0  0  0  0  0  0  0  0  0  0  0  0
  -22.0660   -5.0742   23.6275 F   0  0  0  0  0  0  0  0  0  0  0  0
  -30.7885  -19.1087   22.9478 S   0  0  0  0  0  0  0  0  0  0  0  0
  1  2  1  0  0  0  0
  1  5  2  0  0  0  0
  2  6  2  0  0  0  0
  3  8  2  0  0  0  0
  3 15  1  0  0  0  0
  4  9  1  0  0  0  0
  4 15  2  0  0  0  0
  5 17  1  0  0  0  0
  6 19  1  0  0  0  0
  7 10  2  0  0  0  0
  7 18  1  0  0  0  0
  8 21  1  0  0  0  0
  9 21  2  0  0  0  0
 10 22  1  0  0  0  0
 11 12  2  0  0  0  0
 11 23  1  0  0  0  0
 12 24  1  0  0  0  0
 13 20  1  0  0  0  0
 13 22  2  0  0  0  0
 14 24  2  0  0  0  0
 14 25  1  0  0  0  0
 15 26  1  0  0  0  0
 16 26  1  0  0  0  0
 16 27  2  0  0  0  0
 16 30  1  0  0  0  0
 17 19  2  0  0  0  0
 17 35  1  0  0  0  0
 18 20  2  0  0  0  0
 18 36  1  0  0  0  0
 19 44  1  0  0  0  0
 20 37  1  0  0  0  0
 21 82  1  0  0  0  0
 22 83  1  0  0  0  0
 23 25  2  0  0  0  0
 23 82  1  0  0  0  0
 24 84  1  0  0  0  0
 25 85  1  0  0  0  0
 26 63  2  0  0  0  0
 27 66  1  0  0  0  0
 27 69  1  0  0  0  0
 28 64  1  0  0  0  0
 28 65  2  0  0  0  0
 28 71  1  0  0  0  0
 29 64  2  0  0  0  0
 29 72  1  0  0  0  0
 29 86  1  0  0  0  0
 30 70  1  0  0  0  0
 30 76  2  0  0  0  0
 31 45  1  0  0  0  0
 31 73  1  0  0  0  0
 31 77  2  0  0  0  0
 32 57  1  0  0  0  0
 32 67  1  0  0  0  0
 32 78  2  0  0  0  0
 33 58  1  0  0  0  0
 33 74  1  0  0  0  0
 33 79  2  0  0  0  0
 34 68  1  0  0  0  0
 34 71  1  0  0  0  0
 34 80  2  0  0  0  0
 35 38  1  0  0  0  0
 36 45  1  0  0  0  0
 37 67  1  0  0  0  0
 38 40  1  0  0  0  0
 39 41  1  0  0  0  0
 39 42  1  0  0  0  0
 40 44  1  0  0  0  0
 41 46  1  0  0  0  0
 42 68  1  0  0  0  0
 43 46  1  0  0  0  0
 43 68  1  0  0  0  0
 44 73  1  0  0  0  0
 45 67  1  0  0  0  0
 46 66  1  0  0  0  0
 47 58  1  0  0  0  0
 48 59  1  0  0  0  0
 49 59  1  0  0  0  0
 50 62  1  0  0  0  0
 51 62  1  0  0  0  0
 52 62  1  0  0  0  0
 53 75  1  0  0  0  0
 54 59  1  0  0  0  0
 54 60  1  0  0  0  0
 55 60  1  0  0  0  0
 55 61  1  0  0  0  0
 56 61  1  0  0  0  0
 56 83  1  0  0  0  0
 57 62  1  0  0  0  0
 57 74  1  0  0  0  0
 58 75  1  0  0  0  0
 60 72  1  0  0  0  0
 61 81  1  0  0  0  0
 63 66  1  0  0  0  0
 65 86  1  0  0  0  0
M  CHG  1  75   1
M  ISO  4  34 100  56 101  71 100  83 101
M  END
> <Batch ID>
0196

> <Smiles>
CNC(C)C(=O)NC(C(=O)N1Cc2cc([101O:1][101CH2:1]C(O)CC(CC(C)C)Nc3nc([100NH:0][100C:0](=O)N4CCCC(n5nc(-c6ccc(Oc7ccc(F)cc7F)cc6)c(C(N)=O)c5N)C4)ns3)ccc2CC1C(=O)NC1CCCc2ccccc21)C(C)(C)C

> <Shape>
0.168

> <Color>
0.177

> <Negative vol penalty>
0.000

$$$$

  -OEChem-04052305393D

 83 91  0     1  0  0  0  0  0999 V2000
  -23.0027   -7.8710   22.1444 C   0  0  0  0  0  0  0  0  0  0  0  0
  -24.1604   -8.5494   22.5115 C   0  0  0  0  0  0  0  0  0  0  0  0
  -20.0739  -28.0659   23.7717 C   0  0  0  0  0  0  0  0  0  0  0  0
  -20.1746  -26.7155   21.7709 C   0  0  0  0  0  0  0  0  0  0  0  0
  -22.3053   -8.2536   20.9993 C   0  0  0  0  0  0  0  0  0  0  0  0
  -24.6221   -9.6102   21.7331 C   0  0  0  0  0  0  0  0  0  0  0  0
  -28.0353  -15.8824   22.3045 C   0  0  0  0  0  0  0  0  0  0  0  0
  -18.7977  -28.5006   23.4142 C   0  0  0  0  0  0  0  0  0  0  0  0
  -18.8983  -27.1502   21.4133 C   0  0  0  0  0  0  0  0  0  0  0  0
  -29.1274  -16.5666   21.7727 C   0  0  0  0  0  0  0  0  0  0  0  0
  -15.6373  -27.3036   23.5220 C   0  0  0  0  0  0  0  0  0  0  0  0
  -14.6567  -27.3207   24.5139 C   0  0  0  0  0  0  0  0  0  0  0  0
  -27.7973  -17.1904   19.8594 C   0  0  0  0  0  0  0  0  0  0  0  0
  -14.3841  -29.7011   24.2034 C   0  0  0  0  0  0  0  0  0  0  0  0
  -30.3926  -25.4168   19.0573 C   0  0  0  0  0  0  0  0  0  0  0  0
  -29.1344  -23.0748   19.3008 C   0  0  0  0  0  0  0  0  0  0  0  0
  -20.7624  -27.1733   22.9501 C   0  0  0  0  0  0  0  0  0  0  0  0
  -22.4089  -25.5971   24.0956 C   0  0  0  0  0  0  0  0  0  0  0  0
  -22.7534   -9.3259   20.2118 C   0  0  0  0  0  0  0  0  0  0  0  0
  -26.8171  -15.8377   21.6113 C   0  0  0  0  0  0  0  0  0  0  0  0
  -23.9308  -10.0067   20.5757 C   0  0  0  0  0  0  0  0  0  0  0  0
  -26.6904  -16.5070   20.3857 C   0  0  0  0  0  0  0  0  0  0  0  0
  -18.2099  -28.0427   22.2350 C   0  0  0  0  0  0  0  0  0  0  0  0
  -29.0094  -17.2183   20.5486 C   0  0  0  0  0  0  0  0  0  0  0  0
  -15.9914  -28.4853   22.8709 C   0  0  0  0  0  0  0  0  0  0  0  0
  -14.0301  -28.5194   24.8545 C   0  0  0  0  0  0  0  0  0  0  0  0
  -15.3647  -29.6840   23.2115 C   0  0  0  0  0  0  0  0  0  0  0  0
  -22.0810  -26.7243   23.3186 C   0  0  0  0  0  0  0  0  0  0  0  0
  -29.0309  -25.3190   18.8739 C   0  0  0  0  0  0  0  0  0  0  0  0
  -30.4962  -23.1723   19.4835 C   0  0  0  0  0  0  0  0  0  0  0  0
  -23.7811  -25.6089   24.1557 C   0  0  0  0  0  0  0  0  0  0  0  0
  -21.5501  -24.6262   24.7082 C   0  0  0  0  0  0  0  0  0  0  0  0
  -25.0359  -13.5255   20.3526 C   0  0  0  0  0  0  0  0  0  0  0  0
  -22.9470  -15.9519   19.8318 C   0  0  0  0  0  0  0  0  0  0  0  0
  -22.4436  -19.3004   19.4061 C   0  0  0  0  0  0  0  0  0  0  0  0
  -27.9992  -27.9083   20.5820 C   0  0  0  0  0  0  0  0  0  0  0  0
  -21.9922   -9.6726   18.9568 C   0  0  0  0  0  0  0  0  0  0  0  0
  -25.6406  -15.1178   22.2113 C   0  0  0  0  0  0  0  0  0  0  0  0
  -25.3984  -16.5064   19.6117 C   0  0  0  0  0  0  0  0  0  0  0  0
  -22.3411  -11.0476   18.3930 C   0  0  0  0  0  0  0  0  0  0  0  0
  -27.5086  -28.6060   24.0388 C   0  0  0  0  0  0  0  0  0  0  0  0
  -23.8536  -11.2427   18.3594 C   0  0  0  0  0  0  0  0  0  0  0  0
  -26.0915  -28.1012   24.3163 C   0  0  0  0  0  0  0  0  0  0  0  0
  -27.6251  -29.2241   22.6472 C   0  0  0  0  0  0  0  0  0  0  0  0
  -25.7508  -27.8531   21.8221 C   0  0  0  0  0  0  0  0  0  0  0  0
  -24.4497  -11.1784   19.7708 C   0  0  1  0  0  0  0  0  0  0  0  0
  -24.6003  -14.7055   21.1744 C   0  0  1  0  0  0  0  0  0  0  0  0
  -25.5976  -27.1707   23.1922 C   0  0  2  0  0  0  0  0  0  0  0  0
  -20.6323  -20.9792   18.9609 C   0  0  0  0  0  0  0  0  0  0  0  0
  -22.8784  -15.0976   16.9034 C   0  0  0  0  0  0  0  0  0  0  0  0
  -21.8533  -17.3145   16.3530 C   0  0  0  0  0  0  0  0  0  0  0  0
  -20.6546  -15.7274   17.8587 C   0  0  0  0  0  0  0  0  0  0  0  0
  -22.9541  -20.7018   21.9623 C   0  0  0  0  0  0  0  0  0  0  0  0
  -28.2258  -26.5246   18.5343 C   0  0  0  0  0  0  0  0  0  0  0  0
  -30.5871  -20.7220   19.9457 C   0  0  0  0  0  0  0  0  0  0  0  0
  -31.0027  -18.4513   20.9514 C   0  0  0  0  0  0  0  0  0  1  0  0
  -22.7068  -16.9337   18.7104 C   0  0  1  0  0  0  0  0  0  0  0  0
  -21.4398  -20.2550   20.0269 C   0  0  2  0  0  0  0  0  0  0  0  0
  -31.6424  -19.6834   20.3207 C   0  0  1  0  0  0  0  0  0  0  0  0
  -22.0483  -16.2669   17.4698 C   0  0  0  0  0  0  0  0  0  0  0  0
  -28.3773  -24.1464   18.9927 N   0  0  0  0  0  0  0  0  0  0  0  0
  -31.1498  -24.3451   19.3651 N   0  0  0  0  0  0  0  0  0  0  0  0
  -23.1581  -27.4029   22.9142 N   0  0  0  0  0  0  0  0  0  0  0  0
  -24.1762  -26.7001   23.4392 N   0  0  0  0  0  0  0  0  0  0  0  0
  -24.2787  -15.7834   20.2369 N   0  0  0  0  0  0  0  0  0  0  0  0
  -27.1420  -28.2904   21.6271 N   0  0  0  0  0  0  0  0  0  0  0  0
  -24.6761  -24.7923   24.7510 N   0  0  0  0  0  0  0  0  0  0  0  0
  -20.1646  -24.7634   24.5469 N   0  0  0  0  0  0  0  0  0  0  0  0
  -31.2010  -22.0226   19.7978 N   0  0  0  0  0  0  0  0  0  0  0  0
  -24.2152  -12.4206   20.4754 N   0  0  0  0  0  0  0  0  0  0  0  0
  -21.9295  -18.0267   19.2844 N   0  0  0  0  0  0  0  0  0  0  0  0
  -27.4646  -27.0153   19.6614 N   0  0  0  0  0  0  0  0  0  0  0  0
  -22.1400  -21.2738   20.8591 N   0  3  0  0  0  0  0  0  0  0  0  0
  -21.9972  -23.6748   25.3926 O   0  0  0  0  0  0  0  0  0  0  0  0
  -26.0413  -13.6116   19.6573 O   0  0  0  0  0  0  0  0  0  0  0  0
  -21.9876  -15.3617   20.3347 O   0  0  0  0  0  0  0  0  0  0  0  0
  -23.5698  -19.6504   19.0601 O   0  0  0  0  0  0  0  0  0  0  0  0
  -29.1572  -28.3275   20.4801 O   0  0  0  0  0  0  0  0  0  0  0  0
  -32.3243  -19.2619   19.1377 O   0  0  0  0  0  0  0  0  0  0  0  0
  -16.9645  -28.4666   21.8859 O   0  0  0  0  0  0  0  0  0  0  0  0
  -30.0740  -17.8864   20.0269 O   0  0  0  0  0  0  0  0  0  1  0  0
  -13.0874  -28.5354   25.8060 F   0  0  0  0  0  0  0  0  0  0  0  0
  -15.6998  -30.8222   22.5887 F   0  0  0  0  0  0  0  0  0  0  0  0
  1  2  1  0  0  0  0
  1  5  2  0  0  0  0
  2  6  2  0  0  0  0
  3  8  2  0  0  0  0
  3 17  1  0  0  0  0
  4  9  1  0  0  0  0
  4 17  2  0  0  0  0
  5 19  1  0  0  0  0
  6 21  1  0  0  0  0
  7 10  2  0  0  0  0
  7 20  1  0  0  0  0
  8 23  1  0  0  0  0
  9 23  2  0  0  0  0
 10 24  1  0  0  0  0
 11 12  2  0  0  0  0
 11 25  1  0  0  0  0
 12 26  1  0  0  0  0
 13 22  1  0  0  0  0
 13 24  2  0  0  0  0
 14 26  2  0  0  0  0
 14 27  1  0  0  0  0
 15 29  2  0  0  0  0
 15 62  1  0  0  0  0
 16 30  1  0  0  0  0
 16 61  2  0  0  0  0
 17 28  1  0  0  0  0
 18 28  1  0  0  0  0
 18 31  2  0  0  0  0
 18 32  1  0  0  0  0
 19 21  2  0  0  0  0
 19 37  1  0  0  0  0
 20 22  2  0  0  0  0
 20 38  1  0  0  0  0
 21 46  1  0  0  0  0
 22 39  1  0  0  0  0
 23 80  1  0  0  0  0
 24 81  1  0  0  0  0
 25 27  2  0  0  0  0
 25 80  1  0  0  0  0
 26 82  1  0  0  0  0
 27 83  1  0  0  0  0
 28 63  2  0  0  0  0
 29 54  1  0  0  0  0
 29 61  1  0  0  0  0
 30 62  2  0  0  0  0
 30 69  1  0  0  0  0
 31 64  1  0  0  0  0
 31 67  1  0  0  0  0
 32 68  1  0  0  0  0
 32 74  2  0  0  0  0
 33 47  1  0  0  0  0
 33 70  1  0  0  0  0
 33 75  2  0  0  0  0
 34 57  1  0  0  0  0
 34 65  1  0  0  0  0
 34 76  2  0  0  0  0
 35 58  1  0  0  0  0
 35 71  1  0  0  0  0
 35 77  2  0  0  0  0
 36 66  1  0  0  0  0
 36 72  1  0  0  0  0
 36 78  2  0  0  0  0
 37 40  1  0  0  0  0
 38 47  1  0  0  0  0
 39 65  1  0  0  0  0
 40 42  1  0  0  0  0
 41 43  1  0  0  0  0
 41 44  1  0  0  0  0
 42 46  1  0  0  0  0
 43 48  1  0  0  0  0
 44 66  1  0  0  0  0
 45 48  1  0  0  0  0
 45 66  1  0  0  0  0
 46 70  1  0  0  0  0
 47 65  1  0  0  0  0
 48 64  1  0  0  0  0
 49 58  1  0  0  0  0
 50 60  1  0  0  0  0
 51 60  1  0  0  0  0
 52 60  1  0  0  0  0
 53 73  1  0  0  0  0
 54 72  1  0  0  0  0
 55 59  1  0  0  0  0
 55 69  1  0  0  0  0
 56 59  1  0  0  0  0
 56 81  1  0  0  0  0
 57 60  1  0  0  0  0
 57 71  1  0  0  0  0
 58 73  1  0  0  0  0
 59 79  1  0  0  0  0
 63 64  1  0  0  0  0
M  CHG  1  73   1
M  ISO  4  36 100  56 101  72 100  81 101
M  END
> <Batch ID>
0196

> <Smiles>
CNC(C)C(=O)NC(C(=O)N1Cc2cc([101O:1][101CH2:1]C(O)CNc3cnc(C[100NH:0][100C:0](=O)N4CCCC(n5nc(-c6ccc(Oc7ccc(F)cc7F)cc6)c(C(N)=O)c5N)C4)cn3)ccc2CC1C(=O)NC1CCCc2ccccc21)C(C)(C)C

> <Shape>
0.231

> <Color>
0.069

> <Negative vol penalty>
0.000

$$$$

  -OEChem-04052305393D

 89 97  0     1  0  0  0  0  0999 V2000
  -20.9348  -23.5350   21.3948 C   0  0  0  0  0  0  0  0  0  0  0  0
  -22.2691  -23.2322   21.1434 C   0  0  0  0  0  0  0  0  0  0  0  0
  -22.5183  -29.5616   21.1446 C   0  0  0  0  0  0  0  0  0  0  0  0
  -23.8145  -28.9940   23.1029 C   0  0  0  0  0  0  0  0  0  0  0  0
  -20.1465  -22.6494   22.1284 C   0  0  0  0  0  0  0  0  0  0  0  0
  -22.8163  -22.0440   21.6265 C   0  0  0  0  0  0  0  0  0  0  0  0
  -27.0797  -18.5839   18.9142 C   0  0  0  0  0  0  0  0  0  0  0  0
  -21.4217  -29.8546   21.9553 C   0  0  0  0  0  0  0  0  0  0  0  0
  -22.7179  -29.2871   23.9136 C   0  0  0  0  0  0  0  0  0  0  0  0
  -28.4590  -18.4847   19.0910 C   0  0  0  0  0  0  0  0  0  0  0  0
  -19.0158  -28.1460   23.6036 C   0  0  0  0  0  0  0  0  0  0  0  0
  -17.7703  -27.6573   23.2094 C   0  0  0  0  0  0  0  0  0  0  0  0
  -28.1288  -16.6028   20.5637 C   0  0  0  0  0  0  0  0  0  0  0  0
  -16.9220  -29.9163   23.0890 C   0  0  0  0  0  0  0  0  0  0  0  0
  -23.7147  -29.1312   21.7184 C   0  0  0  0  0  0  0  0  0  0  0  0
  -25.8605  -29.7135   20.4679 C   0  0  0  0  0  0  0  0  0  0  0  0
  -20.6816  -21.4453   22.6125 C   0  0  0  0  0  0  0  0  0  0  0  0
  -26.2125  -17.6986   19.5705 C   0  0  0  0  0  0  0  0  0  0  0  0
  -22.0347  -21.1421   22.3684 C   0  0  0  0  0  0  0  0  0  0  0  0
  -26.7390  -16.6913   20.3915 C   0  0  0  0  0  0  0  0  0  0  0  0
  -21.5215  -29.7174   23.3398 C   0  0  0  0  0  0  0  0  0  0  0  0
  -28.9837  -17.4959   19.9181 C   0  0  0  0  0  0  0  0  0  0  0  0
  -19.2145  -29.5199   23.7406 C   0  0  0  0  0  0  0  0  0  0  0  0
  -16.7234  -28.5424   22.9521 C   0  0  0  0  0  0  0  0  0  0  0  0
  -18.1676  -30.4050   23.4832 C   0  0  0  0  0  0  0  0  0  0  0  0
  -24.8475  -28.8277   20.8814 C   0  0  0  0  0  0  0  0  0  0  0  0
  -32.9727  -22.9502   20.7931 C   0  0  0  0  0  0  0  0  0  0  0  0
  -26.6945  -28.9442   19.6939 C   0  0  0  0  0  0  0  0  0  0  0  0
  -33.1629  -23.9504   21.7235 C   0  0  0  0  0  0  0  0  0  0  0  0
  -31.0010  -23.9016   20.6623 C   0  0  0  0  0  0  0  0  0  0  0  0
  -26.0323  -31.1072   20.7576 C   0  0  0  0  0  0  0  0  0  0  0  0
  -23.8880  -18.0129   21.7157 C   0  0  0  0  0  0  0  0  0  0  0  0
  -23.4813  -14.8423   21.1642 C   0  0  0  0  0  0  0  0  0  0  0  0
  -24.8297  -11.8874   20.1167 C   0  0  0  0  0  0  0  0  0  0  0  0
  -28.8480  -23.5933   19.3911 C   0  0  0  0  0  0  0  0  0  0  0  0
  -19.8032  -20.5416   23.4410 C   0  0  0  0  0  0  0  0  0  0  0  0
  -24.7284  -17.8020   19.3482 C   0  0  0  0  0  0  0  0  0  0  0  0
  -25.8520  -15.7034   21.1027 C   0  0  0  0  0  0  0  0  0  0  0  0
  -20.3586  -19.1284   23.5973 C   0  0  0  0  0  0  0  0  0  0  0  0
  -26.2192  -24.6710   17.2451 C   0  0  0  0  0  0  0  0  0  0  0  0
  -21.8395  -19.1739   23.9602 C   0  0  0  0  0  0  0  0  0  0  0  0
  -25.6954  -25.9395   17.9222 C   0  0  0  0  0  0  0  0  0  0  0  0
  -26.6324  -23.6124   18.2661 C   0  0  0  0  0  0  0  0  0  0  0  0
  -27.0529  -25.3426   19.9686 C   0  0  0  0  0  0  0  0  0  0  0  0
  -22.6578  -19.8515   22.8545 C   0  0  1  0  0  0  0  0  0  0  0  0
  -23.9107  -17.1714   20.4711 C   0  0  1  0  0  0  0  0  0  0  0  0
  -26.6851  -26.4625   18.9817 C   0  0  2  0  0  0  0  0  0  0  0  0
  -24.2643   -9.4612   19.8150 C   0  0  0  0  0  0  0  0  0  0  0  0
  -35.5567  -24.1794   16.8503 C   0  0  0  0  0  0  0  0  0  0  0  0
  -33.8524  -23.0479   15.4158 C   0  0  0  0  0  0  0  0  0  0  0  0
  -35.8182  -21.7595   16.2891 C   0  0  0  0  0  0  0  0  0  0  0  0
  -23.7154  -14.4158   24.1764 C   0  0  0  0  0  0  0  0  0  0  0  0
  -24.0976  -11.9818   23.7317 C   0  0  0  0  0  0  0  0  0  0  0  0
  -21.9430  -13.0466   23.0635 C   0  0  0  0  0  0  0  0  0  0  0  0
  -25.3263  -12.0145   17.2018 C   0  0  0  0  0  0  0  0  0  0  0  0
  -34.8454  -22.2867   19.1693 C   0  0  0  0  0  0  0  0  0  0  0  0
  -33.9997  -22.5263   17.9072 C   0  0  0  0  0  0  0  0  0  0  0  0
  -32.9324  -19.8194   21.2837 C   0  0  0  0  0  0  0  0  0  0  0  0
  -31.0869  -18.6030   19.9984 C   0  0  0  0  0  0  0  0  0  1  0  0
  -33.9847  -21.9005   20.3889 C   0  0  2  0  0  0  0  0  0  0  0  0
  -24.0431  -13.5731   21.7580 C   0  0  1  0  0  0  0  0  0  0  0  0
  -24.3163  -10.8305   19.1555 C   0  0  2  0  0  0  0  0  0  0  0  0
  -32.3218  -18.4786   20.8852 C   0  0  1  0  0  0  0  0  0  0  0  0
  -34.7950  -22.8596   16.6158 C   0  0  0  0  0  0  0  0  0  0  0  0
  -23.4666  -13.2740   23.1707 C   0  0  0  0  0  0  0  0  0  0  0  0
  -25.0202  -27.5903   20.4091 N   0  0  0  0  0  0  0  0  0  0  0  0
  -31.7335  -22.9204   20.1838 N   0  0  0  0  0  0  0  0  0  0  0  0
  -26.1514  -27.6931   19.6907 N   0  0  0  0  0  0  0  0  0  0  0  0
  -24.4075  -15.8495   20.8584 N   0  0  0  0  0  0  0  0  0  0  0  0
  -27.5736  -24.1785   19.2348 N   0  0  0  0  0  0  0  0  0  0  0  0
  -27.8321  -29.2226   19.0225 N   0  0  0  0  0  0  0  0  0  0  0  0
  -34.2703  -24.2059   22.4617 N   0  0  0  0  0  0  0  0  0  0  0  0
  -25.0829  -31.7428   21.5693 N   0  0  0  0  0  0  0  0  0  0  0  0
  -29.6683  -24.2371   20.3169 N   0  0  0  0  0  0  0  0  0  0  0  0
  -22.8649  -18.9411   21.7488 N   0  0  0  0  0  0  0  0  0  0  0  0
  -23.7986  -12.5207   20.7777 N   0  0  0  0  0  0  0  0  0  0  0  0
  -25.2022  -10.7431   17.9603 N   0  3  0  0  0  0  0  0  0  0  0  0
  -33.3329  -20.5976   20.0851 N   0  3  0  0  0  0  0  0  0  0  0  0
  -26.9901  -31.7731   20.2964 O   0  0  0  0  0  0  0  0  0  0  0  0
  -24.7352  -17.8324   22.5826 O   0  0  0  0  0  0  0  0  0  0  0  0
  -22.2663  -14.9338   20.9719 O   0  0  0  0  0  0  0  0  0  0  0  0
  -26.0260  -12.1247   20.2688 O   0  0  0  0  0  0  0  0  0  0  0  0
  -29.1964  -22.6110   18.7311 O   0  0  0  0  0  0  0  0  0  0  0  0
  -33.2972  -17.6962   20.1946 O   0  0  0  0  0  0  0  0  0  0  0  0
  -20.4518  -30.0036   24.1313 O   0  0  0  0  0  0  0  0  0  0  0  0
  -30.3296  -17.3972   20.0930 O   0  0  0  0  0  0  0  0  0  1  0  0
  -15.5278  -28.0731   22.5720 F   0  0  0  0  0  0  0  0  0  0  0  0
  -18.3527  -31.7260   23.6120 F   0  0  0  0  0  0  0  0  0  0  0  0
  -31.7396  -24.8992   21.8473 S   0  0  0  0  0  0  0  0  0  0  0  0
  1  2  1  0  0  0  0
  1  5  2  0  0  0  0
  2  6  2  0  0  0  0
  3  8  2  0  0  0  0
  3 15  1  0  0  0  0
  4  9  1  0  0  0  0
  4 15  2  0  0  0  0
  5 17  1  0  0  0  0
  6 19  1  0  0  0  0
  7 10  2  0  0  0  0
  7 18  1  0  0  0  0
  8 21  1  0  0  0  0
  9 21  2  0  0  0  0
 10 22  1  0  0  0  0
 11 12  2  0  0  0  0
 11 23  1  0  0  0  0
 12 24  1  0  0  0  0
 13 20  1  0  0  0  0
 13 22  2  0  0  0  0
 14 24  2  0  0  0  0
 14 25  1  0  0  0  0
 15 26  1  0  0  0  0
 16 26  1  0  0  0  0
 16 28  2  0  0  0  0
 16 31  1  0  0  0  0
 17 19  2  0  0  0  0
 17 36  1  0  0  0  0
 18 20  2  0  0  0  0
 18 37  1  0  0  0  0
 19 45  1  0  0  0  0
 20 38  1  0  0  0  0
 21 85  1  0  0  0  0
 22 86  1  0  0  0  0
 23 25  2  0  0  0  0
 23 85  1  0  0  0  0
 24 87  1  0  0  0  0
 25 88  1  0  0  0  0
 26 66  2  0  0  0  0
 27 29  2  0  0  0  0
 27 60  1  0  0  0  0
 27 67  1  0  0  0  0
 28 68  1  0  0  0  0
 28 71  1  0  0  0  0
 29 72  1  0  0  0  0
 29 89  1  0  0  0  0
 30 67  2  0  0  0  0
 30 74  1  0  0  0  0
 30 89  1  0  0  0  0
 31 73  1  0  0  0  0
 31 79  2  0  0  0  0
 32 46  1  0  0  0  0
 32 75  1  0  0  0  0
 32 80  2  0  0  0  0
 33 61  1  0  0  0  0
 33 69  1  0  0  0  0
 33 81  2  0  0  0  0
 34 62  1  0  0  0  0
 34 76  1  0  0  0  0
 34 82  2  0  0  0  0
 35 70  1  0  0  0  0
 35 74  1  0  0  0  0
 35 83  2  0  0  0  0
 36 39  1  0  0  0  0
 37 46  1  0  0  0  0
 38 69  1  0  0  0  0
 39 41  1  0  0  0  0
 40 42  1  0  0  0  0
 40 43  1  0  0  0  0
 41 45  1  0  0  0  0
 42 47  1  0  0  0  0
 43 70  1  0  0  0  0
 44 47  1  0  0  0  0
 44 70  1  0  0  0  0
 45 75  1  0  0  0  0
 46 69  1  0  0  0  0
 47 68  1  0  0  0  0
 48 62  1  0  0  0  0
 49 64  1  0  0  0  0
 50 64  1  0  0  0  0
 51 64  1  0  0  0  0
 52 65  1  0  0  0  0
 53 65  1  0  0  0  0
 54 65  1  0  0  0  0
 55 77  1  0  0  0  0
 56 57  1  0  0  0  0
 56 60  1  0  0  0  0
 57 64  1  0  0  0  0
 58 63  1  0  0  0  0
 58 78  1  0  0  0  0
 59 63  1  0  0  0  0
 59 86  1  0  0  0  0
 60 78  1  0  0  0  0
 61 65  1  0  0  0  0
 61 76  1  0  0  0  0
 62 77  1  0  0  0  0
 63 84  1  0  0  0  0
 66 68  1  0  0  0  0
M  CHG  2  77   1  78   1
M  ISO  4  35 100  59 101  74 100  86 101
M  END
> <Batch ID>
0196

> <Smiles>
CNC(C)C(=O)NC(C(=O)N1Cc2cc([101O:1][101CH2:1]C(O)CNC(CCC(C)(C)C)c3nc([100NH:0][100C:0](=O)N4CCCC(n5nc(-c6ccc(Oc7ccc(F)cc7F)cc6)c(C(N)=O)c5N)C4)sc3N)ccc2CC1C(=O)NC1CCCc2ccccc21)C(C)(C)C

> <Shape>
0.214

> <Color>
0.086

> <Negative vol penalty>
0.000

$$$$

  -OEChem-04052305393D

 82 90  0     1  0  0  0  0  0999 V2000
  -19.7414  -34.1364   23.3590 C   0  0  0  0  0  0  0  0  0  0  0  0
  -21.0419  -33.8419   22.9622 C   0  0  0  0  0  0  0  0  0  0  0  0
  -32.9198  -22.5925   16.8119 C   0  0  0  0  0  0  0  0  0  0  0  0
  -27.1397  -12.9712   21.0400 C   0  0  0  0  0  0  0  0  0  0  0  0
  -27.0705  -13.2980   18.6472 C   0  0  0  0  0  0  0  0  0  0  0  0
  -18.9413  -33.1399   23.9164 C   0  0  0  0  0  0  0  0  0  0  0  0
  -21.5434  -32.5508   23.1238 C   0  0  0  0  0  0  0  0  0  0  0  0
  -25.4597  -29.6334   19.4282 C   0  0  0  0  0  0  0  0  0  0  0  0
  -26.4048  -11.7940   20.9005 C   0  0  0  0  0  0  0  0  0  0  0  0
  -26.3356  -12.1207   18.5076 C   0  0  0  0  0  0  0  0  0  0  0  0
  -26.8382  -29.4348   19.4915 C   0  0  0  0  0  0  0  0  0  0  0  0
  -24.2377   -8.8900   21.2079 C   0  0  0  0  0  0  0  0  0  0  0  0
  -23.1796   -8.6757   22.0911 C   0  0  0  0  0  0  0  0  0  0  0  0
  -31.9380  -21.7313   17.2892 C   0  0  0  0  0  0  0  0  0  0  0  0
  -32.7736  -23.9651   16.9786 C   0  0  0  0  0  0  0  0  0  0  0  0
  -26.4747  -27.2779   20.5088 C   0  0  0  0  0  0  0  0  0  0  0  0
  -22.1161  -10.6988   21.3079 C   0  0  0  0  0  0  0  0  0  0  0  0
  -27.4725  -13.7233   19.9133 C   0  0  0  0  0  0  0  0  0  0  0  0
  -29.6322  -15.0756   20.0346 C   0  0  0  0  0  0  0  0  0  0  0  0
  -19.4300  -31.8337   24.0760 C   0  0  0  0  0  0  0  0  0  0  0  0
  -24.5771  -28.6588   19.9156 C   0  0  0  0  0  0  0  0  0  0  0  0
  -20.7495  -31.5363   23.6852 C   0  0  0  0  0  0  0  0  0  0  0  0
  -25.0854  -27.4655   20.4483 C   0  0  0  0  0  0  0  0  0  0  0  0
  -26.0028  -11.3686   19.6343 C   0  0  0  0  0  0  0  0  0  0  0  0
  -27.3460  -28.2582   20.0345 C   0  0  0  0  0  0  0  0  0  0  0  0
  -24.2350  -10.0088   20.3747 C   0  0  0  0  0  0  0  0  0  0  0  0
  -22.1188   -9.5800   22.1411 C   0  0  0  0  0  0  0  0  0  0  0  0
  -23.1742  -10.9131   20.4247 C   0  0  0  0  0  0  0  0  0  0  0  0
  -28.2311  -14.9399   20.0568 C   0  0  0  0  0  0  0  0  0  0  0  0
  -30.8380  -22.2886   17.9210 C   0  0  0  0  0  0  0  0  0  0  0  0
  -31.6361  -24.4224   17.6242 C   0  0  0  0  0  0  0  0  0  0  0  0
  -29.8497  -16.4203   20.2111 C   0  0  0  0  0  0  0  0  0  0  0  0
  -30.6463  -14.0757   19.8692 C   0  0  0  0  0  0  0  0  0  0  0  0
  -22.3850  -28.5667   22.2156 C   0  0  0  0  0  0  0  0  0  0  0  0
  -21.7697  -25.6332   20.9752 C   0  0  0  0  0  0  0  0  0  0  0  0
  -22.8920  -22.9474   19.1937 C   0  0  0  0  0  0  0  0  0  0  0  0
  -28.6622  -21.7381   19.0652 C   0  0  0  0  0  0  0  0  0  0  0  0
  -18.5437  -30.8015   24.7271 C   0  0  0  0  0  0  0  0  0  0  0  0
  -23.0922  -28.8767   19.8157 C   0  0  0  0  0  0  0  0  0  0  0  0
  -24.1799  -26.3793   20.9665 C   0  0  0  0  0  0  0  0  0  0  0  0
  -19.0242  -29.3676   24.5190 C   0  0  0  0  0  0  0  0  0  0  0  0
  -26.6657  -20.1263   21.5337 C   0  0  0  0  0  0  0  0  0  0  0  0
  -20.5216  -29.2617   24.7899 C   0  0  0  0  0  0  0  0  0  0  0  0
  -27.0102  -18.6445   21.3677 C   0  0  0  0  0  0  0  0  0  0  0  0
  -26.6308  -20.8543   20.1911 C   0  0  0  0  0  0  0  0  0  0  0  0
  -28.1813  -19.2151   19.2020 C   0  0  0  0  0  0  0  0  0  0  0  0
  -21.3211  -30.1417   23.8213 C   0  0  1  0  0  0  0  0  0  0  0  0
  -22.2969  -28.0384   20.8118 C   0  0  1  0  0  0  0  0  0  0  0  0
  -28.2920  -18.4540   20.5332 C   0  0  2  0  0  0  0  0  0  0  0  0
  -22.1737  -20.6858   18.3772 C   0  0  0  0  0  0  0  0  0  0  0  0
  -22.1296  -24.5062   23.7877 C   0  0  0  0  0  0  0  0  0  0  0  0
  -22.3487  -22.2285   22.7717 C   0  0  0  0  0  0  0  0  0  0  0  0
  -20.2280  -23.5140   22.5017 C   0  0  0  0  0  0  0  0  0  0  0  0
  -23.2483  -23.7285   16.3614 C   0  0  0  0  0  0  0  0  0  0  0  0
  -30.3759  -26.4177   18.4342 C   0  0  0  0  0  0  0  0  0  0  0  0
  -29.4862  -28.6809   19.0874 C   0  0  0  0  0  0  0  0  0  1  0  0
  -22.2868  -24.2371   21.2247 C   0  0  1  0  0  0  0  0  0  0  0  0
  -22.2712  -22.1675   18.0488 C   0  0  2  0  0  0  0  0  0  0  0  0
  -30.7373  -27.8402   18.8572 C   0  0  1  0  0  0  0  0  0  0  0  0
  -21.7657  -23.6426   22.5635 C   0  0  0  0  0  0  0  0  0  0  0  0
  -27.6029  -16.1052   20.2336 N   0  0  0  0  0  0  0  0  0  0  0  0
  -30.6611  -23.6166   18.1015 N   0  0  0  0  0  0  0  0  0  0  0  0
  -28.6138  -16.9861   20.3242 N   0  0  0  0  0  0  0  0  0  0  0  0
  -22.7357  -26.6420   20.8526 N   0  0  0  0  0  0  0  0  0  0  0  0
  -27.8792  -20.6321   19.4582 N   0  0  0  0  0  0  0  0  0  0  0  0
  -30.9755  -17.1620   20.2791 N   0  0  0  0  0  0  0  0  0  0  0  0
  -30.2487  -12.7425   19.6994 N   0  0  0  0  0  0  0  0  0  0  0  0
  -29.8430  -21.4027   18.4037 N   0  0  0  0  0  0  0  0  0  0  0  0
  -31.5045  -25.7916   17.7827 N   0  0  0  0  0  0  0  0  0  0  0  0
  -21.4198  -29.5059   22.5250 N   0  0  0  0  0  0  0  0  0  0  0  0
  -21.9334  -23.4541   20.0455 N   0  0  0  0  0  0  0  0  0  0  0  0
  -23.0896  -22.3221   16.8130 N   0  3  0  0  0  0  0  0  0  0  0  0
  -31.8693  -14.3540   19.8883 O   0  0  0  0  0  0  0  0  0  0  0  0
  -23.2628  -28.1517   22.9633 O   0  0  0  0  0  0  0  0  0  0  0  0
  -20.5539  -25.8207   20.8849 O   0  0  0  0  0  0  0  0  0  0  0  0
  -24.1061  -23.0896   19.3218 O   0  0  0  0  0  0  0  0  0  0  0  0
  -28.3244  -22.8965   19.3223 O   0  0  0  0  0  0  0  0  0  0  0  0
  -31.4613  -27.7919   20.0884 O   0  0  0  0  0  0  0  0  0  0  0  0
  -25.2859  -10.2197   19.4978 O   0  0  0  0  0  0  0  0  0  0  0  0
  -28.6911  -28.0621   20.0980 O   0  0  0  0  0  0  0  0  0  1  0  0
  -21.1020   -9.3733   22.9882 F   0  0  0  0  0  0  0  0  0  0  0  0
  -23.1655  -11.9890   19.6259 F   0  0  0  0  0  0  0  0  0  0  0  0
  1  2  1  0  0  0  0
  1  6  2  0  0  0  0
  2  7  2  0  0  0  0
  3 14  1  0  0  0  0
  3 15  2  0  0  0  0
  4  9  2  0  0  0  0
  4 18  1  0  0  0  0
  5 10  1  0  0  0  0
  5 18  2  0  0  0  0
  6 20  1  0  0  0  0
  7 22  1  0  0  0  0
  8 11  2  0  0  0  0
  8 21  1  0  0  0  0
  9 24  1  0  0  0  0
 10 24  2  0  0  0  0
 11 25  1  0  0  0  0
 12 13  2  0  0  0  0
 12 26  1  0  0  0  0
 13 27  1  0  0  0  0
 14 30  2  0  0  0  0
 15 31  1  0  0  0  0
 16 23  1  0  0  0  0
 16 25  2  0  0  0  0
 17 27  2  0  0  0  0
 17 28  1  0  0  0  0
 18 29  1  0  0  0  0
 19 29  1  0  0  0  0
 19 32  2  0  0  0  0
 19 33  1  0  0  0  0
 20 22  2  0  0  0  0
 20 38  1  0  0  0  0
 21 23  2  0  0  0  0
 21 39  1  0  0  0  0
 22 47  1  0  0  0  0
 23 40  1  0  0  0  0
 24 79  1  0  0  0  0
 25 80  1  0  0  0  0
 26 28  2  0  0  0  0
 26 79  1  0  0  0  0
 27 81  1  0  0  0  0
 28 82  1  0  0  0  0
 29 61  2  0  0  0  0
 30 62  1  0  0  0  0
 30 68  1  0  0  0  0
 31 62  2  0  0  0  0
 31 69  1  0  0  0  0
 32 63  1  0  0  0  0
 32 66  1  0  0  0  0
 33 67  1  0  0  0  0
 33 73  2  0  0  0  0
 34 48  1  0  0  0  0
 34 70  1  0  0  0  0
 34 74  2  0  0  0  0
 35 57  1  0  0  0  0
 35 64  1  0  0  0  0
 35 75  2  0  0  0  0
 36 58  1  0  0  0  0
 36 71  1  0  0  0  0
 36 76  2  0  0  0  0
 37 65  1  0  0  0  0
 37 68  1  0  0  0  0
 37 77  2  0  0  0  0
 38 41  1  0  0  0  0
 39 48  1  0  0  0  0
 40 64  1  0  0  0  0
 41 43  1  0  0  0  0
 42 44  1  0  0  0  0
 42 45  1  0  0  0  0
 43 47  1  0  0  0  0
 44 49  1  0  0  0  0
 45 65  1  0  0  0  0
 46 49  1  0  0  0  0
 46 65  1  0  0  0  0
 47 70  1  0  0  0  0
 48 64  1  0  0  0  0
 49 63  1  0  0  0  0
 50 58  1  0  0  0  0
 51 60  1  0  0  0  0
 52 60  1  0  0  0  0
 53 60  1  0  0  0  0
 54 72  1  0  0  0  0
 55 59  1  0  0  0  0
 55 69  1  0  0  0  0
 56 59  1  0  0  0  0
 56 80  1  0  0  0  0
 57 60  1  0  0  0  0
 57 71  1  0  0  0  0
 58 72  1  0  0  0  0
 59 78  1  0  0  0  0
 61 63  1  0  0  0  0
M  CHG  1  72   1
M  ISO  4  37 100  56 101  68 100  80 101
M  END
> <Batch ID>
0196

> <Smiles>
CNC(C)C(=O)NC(C(=O)N1Cc2cc([101O:1][101CH2:1]C(O)CNc3cccc([100NH:0][100C:0](=O)N4CCCC(n5nc(-c6ccc(Oc7ccc(F)cc7F)cc6)c(C(N)=O)c5N)C4)n3)ccc2CC1C(=O)NC1CCCc2ccccc21)C(C)(C)C

> <Shape>
0.252

> <Color>
0.100

> <Negative vol penalty>
0.000

$$$$

  -OEChem-04052305393D

 82 90  0     1  0  0  0  0  0999 V2000
  -14.6891  -27.4581   21.9585 C   0  0  0  0  0  0  0  0  0  0  0  0
  -15.5582  -27.1930   20.9051 C   0  0  0  0  0  0  0  0  0  0  0  0
  -26.5102  -12.5255   21.6811 C   0  0  0  0  0  0  0  0  0  0  0  0
  -25.7154  -13.8856   19.8493 C   0  0  0  0  0  0  0  0  0  0  0  0
  -15.1510  -28.1294   23.0899 C   0  0  0  0  0  0  0  0  0  0  0  0
  -16.8897  -27.6001   20.9819 C   0  0  0  0  0  0  0  0  0  0  0  0
  -21.7679  -24.6861   18.6978 C   0  0  0  0  0  0  0  0  0  0  0  0
  -25.2489  -11.9409   21.7944 C   0  0  0  0  0  0  0  0  0  0  0  0
  -24.4541  -13.3010   19.9625 C   0  0  0  0  0  0  0  0  0  0  0  0
  -22.5014  -24.8618   17.5252 C   0  0  0  0  0  0  0  0  0  0  0  0
  -23.4589   -9.5520   20.2063 C   0  0  0  0  0  0  0  0  0  0  0  0
  -23.3975   -8.1664   20.3539 C   0  0  0  0  0  0  0  0  0  0  0  0
  -24.0981  -26.2077   18.7327 C   0  0  0  0  0  0  0  0  0  0  0  0
  -22.2760   -8.4421   22.4760 C   0  0  0  0  0  0  0  0  0  0  0  0
  -26.7435  -13.4979   20.7086 C   0  0  0  0  0  0  0  0  0  0  0  0
  -29.1204  -13.6601   19.7965 C   0  0  0  0  0  0  0  0  0  0  0  0
  -16.4912  -28.5363   23.1847 C   0  0  0  0  0  0  0  0  0  0  0  0
  -22.1889  -25.2799   19.8964 C   0  0  0  0  0  0  0  0  0  0  0  0
  -17.3697  -28.2786   22.1150 C   0  0  0  0  0  0  0  0  0  0  0  0
  -23.3696  -26.0359   19.9197 C   0  0  0  0  0  0  0  0  0  0  0  0
  -24.2208  -12.3286   20.9351 C   0  0  0  0  0  0  0  0  0  0  0  0
  -23.6651  -25.6250   17.5419 C   0  0  0  0  0  0  0  0  0  0  0  0
  -22.9289  -10.3828   21.1936 C   0  0  0  0  0  0  0  0  0  0  0  0
  -22.8061   -7.6114   21.4888 C   0  0  0  0  0  0  0  0  0  0  0  0
  -22.3374   -9.8278   22.3284 C   0  0  0  0  0  0  0  0  0  0  0  0
  -28.0461  -14.1026   20.5915 C   0  0  0  0  0  0  0  0  0  0  0  0
  -30.1218  -14.5691   20.0358 C   0  0  0  0  0  0  0  0  0  0  0  0
  -29.3562  -21.5911   19.8051 C   0  0  0  0  0  0  0  0  0  0  0  0
  -28.8403  -23.1144   18.0787 C   0  0  0  0  0  0  0  0  0  0  0  0
  -29.2054  -12.5285   18.9201 C   0  0  0  0  0  0  0  0  0  0  0  0
  -20.9590  -27.4315   21.8868 C   0  0  0  0  0  0  0  0  0  0  0  0
  -23.5490  -26.6734   23.6867 C   0  0  0  0  0  0  0  0  0  0  0  0
  -26.7291  -25.4416   23.8131 C   0  0  0  0  0  0  0  0  0  0  0  0
  -30.1175  -20.2740   21.8131 C   0  0  0  0  0  0  0  0  0  0  0  0
  -16.9329  -29.3008   24.4075 C   0  0  0  0  0  0  0  0  0  0  0  0
  -21.4010  -25.0587   21.1584 C   0  0  0  0  0  0  0  0  0  0  0  0
  -23.8754  -26.6777   21.1849 C   0  0  0  0  0  0  0  0  0  0  0  0
  -18.4494  -29.3671   24.5695 C   0  0  0  0  0  0  0  0  0  0  0  0
  -31.7484  -17.5453   23.4167 C   0  0  0  0  0  0  0  0  0  0  0  0
  -19.1118  -29.7383   23.2465 C   0  0  0  0  0  0  0  0  0  0  0  0
  -31.0861  -16.3125   22.7974 C   0  0  0  0  0  0  0  0  0  0  0  0
  -30.7510  -18.6852   23.6157 C   0  0  0  0  0  0  0  0  0  0  0  0
  -29.3265  -17.8266   21.7983 C   0  0  0  0  0  0  0  0  0  0  0  0
  -18.8271  -28.6823   22.1716 C   0  0  1  0  0  0  0  0  0  0  0  0
  -21.6453  -26.1349   22.2117 C   0  0  1  0  0  0  0  0  0  0  0  0
  -30.3054  -16.6746   21.5187 C   0  0  2  0  0  0  0  0  0  0  0  0
  -28.6007  -24.9806   25.4200 C   0  0  0  0  0  0  0  0  0  0  0  0
  -24.2027  -29.6524   23.7762 C   0  0  0  0  0  0  0  0  0  0  0  0
  -26.5099  -29.0521   24.5408 C   0  0  0  0  0  0  0  0  0  0  0  0
  -24.5365  -28.4457   25.9410 C   0  0  0  0  0  0  0  0  0  0  0  0
  -26.6829  -22.5432   23.2160 C   0  0  0  0  0  0  0  0  0  0  0  0
  -26.4757  -25.4494   15.2846 C   0  0  0  0  0  0  0  0  0  0  0  0
  -28.6607  -25.1411   16.6345 C   0  0  0  0  0  0  0  0  0  0  0  0
  -25.7916  -25.9772   16.5369 C   0  0  0  0  0  0  0  0  0  1  0  0
  -24.9651  -27.1858   23.7914 C   0  0  1  0  0  0  0  0  0  0  0  0
  -27.3750  -24.4117   24.7222 C   0  0  2  0  0  0  0  0  0  0  0  0
  -28.0034  -25.5631   15.3194 C   0  0  1  0  0  0  0  0  0  0  0  0
  -25.0432  -28.5736   24.4879 C   0  0  0  0  0  0  0  0  0  0  0  0
  -28.3378  -15.2067   21.2841 N   0  0  0  0  0  0  0  0  0  0  0  0
  -29.8859  -22.7755   20.0253 N   0  0  0  0  0  0  0  0  0  0  0  0
  -29.5825  -23.6693   19.0132 N   0  0  0  0  0  0  0  0  0  0  0  0
  -29.6067  -15.4656   20.9252 N   0  0  0  0  0  0  0  0  0  0  0  0
  -23.0667  -26.4375   22.3914 N   0  0  0  0  0  0  0  0  0  0  0  0
  -30.0522  -18.9758   22.3618 N   0  0  0  0  0  0  0  0  0  0  0  0
  -31.3840  -14.6808   19.5702 N   0  0  0  0  0  0  0  0  0  0  0  0
  -28.0840  -11.6978   18.7908 N   0  0  0  0  0  0  0  0  0  0  0  0
  -29.4417  -20.4229   20.6024 N   0  0  0  0  0  0  0  0  0  0  0  0
  -28.3795  -23.7575   16.9418 N   0  0  0  0  0  0  0  0  0  0  0  0
  -19.6672  -27.5206   22.3692 N   0  0  0  0  0  0  0  0  0  0  0  0
  -25.7299  -26.1381   24.4593 N   0  0  0  0  0  0  0  0  0  0  0  0
  -27.7940  -23.2169   23.9361 N   0  3  0  0  0  0  0  0  0  0  0  0
  -30.2504  -12.2527   18.2834 O   0  0  0  0  0  0  0  0  0  0  0  0
  -21.5577  -28.2883   21.2471 O   0  0  0  0  0  0  0  0  0  0  0  0
  -22.8972  -26.4825   24.7164 O   0  0  0  0  0  0  0  0  0  0  0  0
  -27.0788  -25.6137   22.6475 O   0  0  0  0  0  0  0  0  0  0  0  0
  -30.7505  -21.1795   22.3620 O   0  0  0  0  0  0  0  0  0  0  0  0
  -28.5530  -24.7658   14.2687 O   0  0  0  0  0  0  0  0  0  0  0  0
  -22.9899  -11.7582   21.0452 O   0  0  0  0  0  0  0  0  0  0  0  0
  -24.3825  -25.7986   16.3987 O   0  0  0  0  0  0  0  0  0  1  0  0
  -22.7458   -6.2807   21.6297 F   0  0  0  0  0  0  0  0  0  0  0  0
  -21.8255  -10.6208   23.2796 F   0  0  0  0  0  0  0  0  0  0  0  0
  -28.4512  -21.4669   18.3534 S   0  0  0  0  0  0  0  0  0  0  0  0
  1  2  1  0  0  0  0
  1  5  2  0  0  0  0
  2  6  2  0  0  0  0
  3  8  2  0  0  0  0
  3 15  1  0  0  0  0
  4  9  1  0  0  0  0
  4 15  2  0  0  0  0
  5 17  1  0  0  0  0
  6 19  1  0  0  0  0
  7 10  2  0  0  0  0
  7 18  1  0  0  0  0
  8 21  1  0  0  0  0
  9 21  2  0  0  0  0
 10 22  1  0  0  0  0
 11 12  2  0  0  0  0
 11 23  1  0  0  0  0
 12 24  1  0  0  0  0
 13 20  1  0  0  0  0
 13 22  2  0  0  0  0
 14 24  2  0  0  0  0
 14 25  1  0  0  0  0
 15 26  1  0  0  0  0
 16 26  1  0  0  0  0
 16 27  2  0  0  0  0
 16 30  1  0  0  0  0
 17 19  2  0  0  0  0
 17 35  1  0  0  0  0
 18 20  2  0  0  0  0
 18 36  1  0  0  0  0
 19 44  1  0  0  0  0
 20 37  1  0  0  0  0
 21 78  1  0  0  0  0
 22 79  1  0  0  0  0
 23 25  2  0  0  0  0
 23 78  1  0  0  0  0
 24 80  1  0  0  0  0
 25 81  1  0  0  0  0
 26 59  2  0  0  0  0
 27 62  1  0  0  0  0
 27 65  1  0  0  0  0
 28 60  2  0  0  0  0
 28 67  1  0  0  0  0
 28 82  1  0  0  0  0
 29 61  2  0  0  0  0
 29 68  1  0  0  0  0
 29 82  1  0  0  0  0
 30 66  1  0  0  0  0
 30 72  2  0  0  0  0
 31 45  1  0  0  0  0
 31 69  1  0  0  0  0
 31 73  2  0  0  0  0
 32 55  1  0  0  0  0
 32 63  1  0  0  0  0
 32 74  2  0  0  0  0
 33 56  1  0  0  0  0
 33 70  1  0  0  0  0
 33 75  2  0  0  0  0
 34 64  1  0  0  0  0
 34 67  1  0  0  0  0
 34 76  2  0  0  0  0
 35 38  1  0  0  0  0
 36 45  1  0  0  0  0
 37 63  1  0  0  0  0
 38 40  1  0  0  0  0
 39 41  1  0  0  0  0
 39 42  1  0  0  0  0
 40 44  1  0  0  0  0
 41 46  1  0  0  0  0
 42 64  1  0  0  0  0
 43 46  1  0  0  0  0
 43 64  1  0  0  0  0
 44 69  1  0  0  0  0
 45 63  1  0  0  0  0
 46 62  1  0  0  0  0
 47 56  1  0  0  0  0
 48 58  1  0  0  0  0
 49 58  1  0  0  0  0
 50 58  1  0  0  0  0
 51 71  1  0  0  0  0
 52 54  1  0  0  0  0
 52 57  1  0  0  0  0
 53 57  1  0  0  0  0
 53 68  1  0  0  0  0
 54 79  1  0  0  0  0
 55 58  1  0  0  0  0
 55 70  1  0  0  0  0
 56 71  1  0  0  0  0
 57 77  1  0  0  0  0
 59 62  1  0  0  0  0
 60 61  1  0  0  0  0
M  CHG  1  71   1
M  ISO  4  34 100  54 101  67 100  79 101
M  END
> <Batch ID>
0196

> <Smiles>
CNC(C)C(=O)NC(C(=O)N1Cc2cc([101O:1][101CH2:1]CC(O)CNc3nnc([100NH:0][100C:0](=O)N4CCCC(n5nc(-c6ccc(Oc7ccc(F)cc7F)cc6)c(C(N)=O)c5N)C4)s3)ccc2CC1C(=O)NC1CCCc2ccccc21)C(C)(C)C

> <Shape>
0.250

> <Color>
0.068

> <Negative vol penalty>
0.000

$$$$

  -OEChem-04052305393D

 82 90  0     1  0  0  0  0  0999 V2000
  -26.8785  -29.8981   20.6337 C   0  0  0  0  0  0  0  0  0  0  0  0
  -26.8920  -28.9422   21.6443 C   0  0  0  0  0  0  0  0  0  0  0  0
  -23.2891   -9.6517   19.9879 C   0  0  0  0  0  0  0  0  0  0  0  0
  -23.9063   -9.8652   22.3139 C   0  0  0  0  0  0  0  0  0  0  0  0
  -26.7286  -29.5038   19.3048 C   0  0  0  0  0  0  0  0  0  0  0  0
  -26.7543  -27.5915   21.3268 C   0  0  0  0  0  0  0  0  0  0  0  0
  -29.4174  -22.8553   24.1522 C   0  0  0  0  0  0  0  0  0  0  0  0
  -22.6637   -8.4362   20.2654 C   0  0  0  0  0  0  0  0  0  0  0  0
  -23.2809   -8.6497   22.5915 C   0  0  0  0  0  0  0  0  0  0  0  0
  -28.9607  -21.9645   25.1226 C   0  0  0  0  0  0  0  0  0  0  0  0
  -23.9696   -5.3577   22.2465 C   0  0  0  0  0  0  0  0  0  0  0  0
  -24.6510   -4.4480   23.0550 C   0  0  0  0  0  0  0  0  0  0  0  0
  -28.3946  -20.3805   23.3935 C   0  0  0  0  0  0  0  0  0  0  0  0
  -22.8427   -4.5164   24.6558 C   0  0  0  0  0  0  0  0  0  0  0  0
  -31.9595  -17.2733   24.1347 C   0  0  0  0  0  0  0  0  0  0  0  0
  -23.9104  -10.3662   21.0121 C   0  0  0  0  0  0  0  0  0  0  0  0
  -23.9777  -12.9041   20.7622 C   0  0  0  0  0  0  0  0  0  0  0  0
  -26.5987  -28.1468   18.9699 C   0  0  0  0  0  0  0  0  0  0  0  0
  -29.3559  -22.5192   22.7921 C   0  0  0  0  0  0  0  0  0  0  0  0
  -26.6010  -27.1787   19.9923 C   0  0  0  0  0  0  0  0  0  0  0  0
  -28.8535  -21.2678   22.4080 C   0  0  0  0  0  0  0  0  0  0  0  0
  -22.6595   -7.9352   21.5672 C   0  0  0  0  0  0  0  0  0  0  0  0
  -28.4465  -20.7281   24.7432 C   0  0  0  0  0  0  0  0  0  0  0  0
  -22.7248   -5.8468   22.6426 C   0  0  0  0  0  0  0  0  0  0  0  0
  -24.0875   -4.0274   24.2597 C   0  0  0  0  0  0  0  0  0  0  0  0
  -22.1613   -5.4262   23.8473 C   0  0  0  0  0  0  0  0  0  0  0  0
  -24.5571  -11.6216   20.7260 C   0  0  0  0  0  0  0  0  0  0  0  0
  -24.9999  -13.7527   20.4139 C   0  0  0  0  0  0  0  0  0  0  0  0
  -30.8101  -17.1313   24.8718 C   0  0  0  0  0  0  0  0  0  0  0  0
  -30.7415  -15.8762   23.1409 C   0  0  0  0  0  0  0  0  0  0  0  0
  -22.6354  -13.2934   21.0822 C   0  0  0  0  0  0  0  0  0  0  0  0
  -27.8722  -23.7189   20.2499 C   0  0  0  0  0  0  0  0  0  0  0  0
  -29.6134  -21.4869   18.6659 C   0  0  0  0  0  0  0  0  0  0  0  0
  -31.2991  -18.5212   18.7647 C   0  0  0  0  0  0  0  0  0  0  0  0
  -30.6979  -14.4107   21.0922 C   0  0  0  0  0  0  0  0  0  0  0  0
  -26.3915  -27.7726   17.5236 C   0  0  0  0  0  0  0  0  0  0  0  0
  -29.8773  -23.4804   21.7594 C   0  0  0  0  0  0  0  0  0  0  0  0
  -28.7846  -20.8507   20.9624 C   0  0  0  0  0  0  0  0  0  0  0  0
  -26.6275  -26.2917   17.2378 C   0  0  0  0  0  0  0  0  0  0  0  0
  -29.3069  -13.2286   18.0353 C   0  0  0  0  0  0  0  0  0  0  0  0
  -25.9264  -25.4282   18.2816 C   0  0  0  0  0  0  0  0  0  0  0  0
  -27.8834  -12.8187   18.4193 C   0  0  0  0  0  0  0  0  0  0  0  0
  -30.3068  -12.9149   19.1469 C   0  0  0  0  0  0  0  0  0  0  0  0
  -28.5328  -13.0434   20.8514 C   0  0  0  0  0  0  0  0  0  0  0  0
  -26.4793  -25.7018   19.6855 C   0  0  1  0  0  0  0  0  0  0  0  0
  -29.2917  -23.2414   20.3711 C   0  0  1  0  0  0  0  0  0  0  0  0
  -27.4799  -13.3990   19.7890 C   0  0  2  0  0  0  0  0  0  0  0  0
  -32.5844  -16.9363   17.3041 C   0  0  0  0  0  0  0  0  0  0  0  0
  -27.2440  -18.1958   28.2070 C   0  0  0  0  0  0  0  0  0  0  0  0
  -29.1636  -16.0210   27.3265 C   0  0  0  0  0  0  0  0  0  0  0  0
  -26.9985  -20.4926   17.4478 C   0  0  0  0  0  0  0  0  0  0  0  0
  -28.1865  -18.3899   16.7878 C   0  0  0  0  0  0  0  0  0  0  0  0
  -28.9239  -20.5825   15.8543 C   0  0  0  0  0  0  0  0  0  0  0  0
  -33.7580  -18.8438   20.3799 C   0  0  0  0  0  0  0  0  0  0  0  0
  -28.6275  -19.9092   26.9686 C   0  0  0  0  0  0  0  0  0  1  0  0
  -29.4017  -20.0434   18.2778 C   0  0  1  0  0  0  0  0  0  0  0  0
  -32.6707  -18.1245   18.2493 C   0  0  2  0  0  0  0  0  0  0  0  0
  -28.6235  -18.5119   27.6081 C   0  0  2  0  0  0  0  0  0  0  0  0
  -29.0771  -17.3866   26.6486 C   0  0  1  0  0  0  0  0  0  0  0  0
  -28.3770  -19.8855   17.1191 C   0  0  0  0  0  0  0  0  0  0  0  0
  -31.9098  -16.4663   23.0269 N   0  0  0  0  0  0  0  0  0  0  0  0
  -25.8474  -11.6483   20.3817 N   0  0  0  0  0  0  0  0  0  0  0  0
  -26.0871  -12.9579   20.1983 N   0  0  0  0  0  0  0  0  0  0  0  0
  -29.3008  -21.8277   19.9895 N   0  0  0  0  0  0  0  0  0  0  0  0
  -29.8611  -13.4999   20.4134 N   0  0  0  0  0  0  0  0  0  0  0  0
  -25.0658  -15.0938   20.2741 N   0  0  0  0  0  0  0  0  0  0  0  0
  -21.7119  -12.2941   21.4182 N   0  0  0  0  0  0  0  0  0  0  0  0
  -30.3590  -17.6989   26.0492 N   0  0  0  0  0  0  0  0  0  0  0  0
  -30.1547  -14.9262   22.2686 N   0  0  0  0  0  0  0  0  0  0  0  0
  -27.7542  -25.0406   19.8644 N   0  0  0  0  0  0  0  0  0  0  0  0
  -30.7240  -19.5016   17.9841 N   0  0  0  0  0  0  0  0  0  0  0  0
  -33.5646  -17.7584   19.3842 N   0  3  0  0  0  0  0  0  0  0  0  0
  -22.2616  -14.4905   21.0546 O   0  0  0  0  0  0  0  0  0  0  0  0
  -26.9522  -22.9450   20.4870 O   0  0  0  0  0  0  0  0  0  0  0  0
  -30.0471  -22.2811   17.8276 O   0  0  0  0  0  0  0  0  0  0  0  0
  -30.7872  -18.0096   19.7581 O   0  0  0  0  0  0  0  0  0  0  0  0
  -31.8029  -14.7321   20.6477 O   0  0  0  0  0  0  0  0  0  0  0  0
  -30.0135  -16.2275   24.2360 O   0  0  0  0  0  0  0  0  0  0  0  0
  -22.0492   -6.7493   21.8384 O   0  0  0  0  0  0  0  0  0  0  0  0
  -27.9995  -19.8570   25.6883 O   0  0  0  0  0  0  0  0  0  1  0  0
  -24.7413   -3.1526   25.0353 F   0  0  0  0  0  0  0  0  0  0  0  0
  -20.9652   -5.8916   24.2326 F   0  0  0  0  0  0  0  0  0  0  0  0
  1  2  1  0  0  0  0
  1  5  2  0  0  0  0
  2  6  2  0  0  0  0
  3  8  2  0  0  0  0
  3 16  1  0  0  0  0
  4  9  1  0  0  0  0
  4 16  2  0  0  0  0
  5 18  1  0  0  0  0
  6 20  1  0  0  0  0
  7 10  2  0  0  0  0
  7 19  1  0  0  0  0
  8 22  1  0  0  0  0
  9 22  2  0  0  0  0
 10 23  1  0  0  0  0
 11 12  2  0  0  0  0
 11 24  1  0  0  0  0
 12 25  1  0  0  0  0
 13 21  1  0  0  0  0
 13 23  2  0  0  0  0
 14 25  2  0  0  0  0
 14 26  1  0  0  0  0
 15 29  2  0  0  0  0
 15 61  1  0  0  0  0
 16 27  1  0  0  0  0
 17 27  1  0  0  0  0
 17 28  2  0  0  0  0
 17 31  1  0  0  0  0
 18 20  2  0  0  0  0
 18 36  1  0  0  0  0
 19 21  2  0  0  0  0
 19 37  1  0  0  0  0
 20 45  1  0  0  0  0
 21 38  1  0  0  0  0
 22 79  1  0  0  0  0
 23 80  1  0  0  0  0
 24 26  2  0  0  0  0
 24 79  1  0  0  0  0
 25 81  1  0  0  0  0
 26 82  1  0  0  0  0
 27 62  2  0  0  0  0
 28 63  1  0  0  0  0
 28 66  1  0  0  0  0
 29 68  1  0  0  0  0
 29 78  1  0  0  0  0
 30 61  2  0  0  0  0
 30 69  1  0  0  0  0
 30 78  1  0  0  0  0
 31 67  1  0  0  0  0
 31 73  2  0  0  0  0
 32 46  1  0  0  0  0
 32 70  1  0  0  0  0
 32 74  2  0  0  0  0
 33 56  1  0  0  0  0
 33 64  1  0  0  0  0
 33 75  2  0  0  0  0
 34 57  1  0  0  0  0
 34 71  1  0  0  0  0
 34 76  2  0  0  0  0
 35 65  1  0  0  0  0
 35 69  1  0  0  0  0
 35 77  2  0  0  0  0
 36 39  1  0  0  0  0
 37 46  1  0  0  0  0
 38 64  1  0  0  0  0
 39 41  1  0  0  0  0
 40 42  1  0  0  0  0
 40 43  1  0  0  0  0
 41 45  1  0  0  0  0
 42 47  1  0  0  0  0
 43 65  1  0  0  0  0
 44 47  1  0  0  0  0
 44 65  1  0  0  0  0
 45 70  1  0  0  0  0
 46 64  1  0  0  0  0
 47 63  1  0  0  0  0
 48 57  1  0  0  0  0
 49 58  1  0  0  0  0
 50 59  1  0  0  0  0
 51 60  1  0  0  0  0
 52 60  1  0  0  0  0
 53 60  1  0  0  0  0
 54 72  1  0  0  0  0
 55 58  1  0  0  0  0
 55 80  1  0  0  0  0
 56 60  1  0  0  0  0
 56 71  1  0  0  0  0
 57 72  1  0  0  0  0
 58 59  1  0  0  0  0
 59 68  1  0  0  0  0
 62 63  1  0  0  0  0
M  CHG  1  72   1
M  ISO  4  35 100  55 101  69 100  80 101
M  END
> <Batch ID>
0196

> <Smiles>
CNC(C)C(=O)NC(C(=O)N1Cc2cc([101O:1][101CH2:1]C(C)C(C)Nc3cnc([100NH:0][100C:0](=O)N4CCCC(n5nc(-c6ccc(Oc7ccc(F)cc7F)cc6)c(C(N)=O)c5N)C4)o3)ccc2CC1C(=O)NC1CCCc2ccccc21)C(C)(C)C

> <Shape>
0.256

> <Color>
0.201

> <Negative vol penalty>
0.000

$$$$

  -OEChem-04052305393D

 81 89  0     1  0  0  0  0  0999 V2000
  -28.7078  -32.6700   22.5319 C   0  0  0  0  0  0  0  0  0  0  0  0
  -28.6928  -31.3383   22.1295 C   0  0  0  0  0  0  0  0  0  0  0  0
  -23.0873   -9.9684   19.8746 C   0  0  0  0  0  0  0  0  0  0  0  0
  -24.0492   -9.6977   22.0743 C   0  0  0  0  0  0  0  0  0  0  0  0
  -27.6129  -33.2046   23.2097 C   0  0  0  0  0  0  0  0  0  0  0  0
  -27.5832  -30.5402   22.4057 C   0  0  0  0  0  0  0  0  0  0  0  0
  -26.1710  -27.7347   18.4334 C   0  0  0  0  0  0  0  0  0  0  0  0
  -22.4318   -8.7447   20.0106 C   0  0  0  0  0  0  0  0  0  0  0  0
  -23.3936   -8.4740   22.2104 C   0  0  0  0  0  0  0  0  0  0  0  0
  -26.9190  -26.5892   18.1647 C   0  0  0  0  0  0  0  0  0  0  0  0
  -20.2803   -7.3865   22.9484 C   0  0  0  0  0  0  0  0  0  0  0  0
  -19.6351   -7.1297   24.1581 C   0  0  0  0  0  0  0  0  0  0  0  0
  -25.2341  -25.2428   19.2450 C   0  0  0  0  0  0  0  0  0  0  0  0
  -21.0398   -5.1932   24.4961 C   0  0  0  0  0  0  0  0  0  0  0  0
  -31.0015  -19.0501   20.5351 C   0  0  0  0  0  0  0  0  0  0  0  0
  -23.8960  -10.4449   20.9064 C   0  0  0  0  0  0  0  0  0  0  0  0
  -24.0899  -12.9783   21.1344 C   0  0  0  0  0  0  0  0  0  0  0  0
  -26.4854  -32.4152   23.4859 C   0  0  0  0  0  0  0  0  0  0  0  0
  -24.9521  -27.6438   19.1206 C   0  0  0  0  0  0  0  0  0  0  0  0
  -26.4728  -31.0644   23.0891 C   0  0  0  0  0  0  0  0  0  0  0  0
  -24.4712  -26.3883   19.5189 C   0  0  0  0  0  0  0  0  0  0  0  0
  -22.5849   -7.9975   21.1785 C   0  0  0  0  0  0  0  0  0  0  0  0
  -26.4520  -25.3434   18.5730 C   0  0  0  0  0  0  0  0  0  0  0  0
  -21.3052   -6.5467   22.5125 C   0  0  0  0  0  0  0  0  0  0  0  0
  -20.0148   -6.0330   24.9320 C   0  0  0  0  0  0  0  0  0  0  0  0
  -21.6849   -5.4501   23.2864 C   0  0  0  0  0  0  0  0  0  0  0  0
  -24.5739  -11.7086   20.7663 C   0  0  0  0  0  0  0  0  0  0  0  0
  -30.2434  -18.3454   21.4466 C   0  0  0  0  0  0  0  0  0  0  0  0
  -25.1032  -13.8426   20.7986 C   0  0  0  0  0  0  0  0  0  0  0  0
  -29.1797  -20.2691   20.4613 C   0  0  0  0  0  0  0  0  0  0  0  0
  -22.8365  -13.3438   21.7269 C   0  0  0  0  0  0  0  0  0  0  0  0
  -23.8432  -28.7677   21.8794 C   0  0  0  0  0  0  0  0  0  0  0  0
  -21.0518  -27.4912   20.8301 C   0  0  0  0  0  0  0  0  0  0  0  0
  -28.3371  -22.3186   19.2683 C   0  0  0  0  0  0  0  0  0  0  0  0
  -19.4762  -25.2115   18.8383 C   0  0  0  0  0  0  0  0  0  0  0  0
  -30.5191  -15.1847   20.6894 C   0  0  0  0  0  0  0  0  0  0  0  0
  -25.3454  -33.0245   24.2628 C   0  0  0  0  0  0  0  0  0  0  0  0
  -24.1442  -28.8859   19.3792 C   0  0  0  0  0  0  0  0  0  0  0  0
  -23.1590  -26.2345   20.2419 C   0  0  0  0  0  0  0  0  0  0  0  0
  -24.0542  -32.2137   24.1863 C   0  0  0  0  0  0  0  0  0  0  0  0
  -29.3005  -13.0959   18.0763 C   0  0  0  0  0  0  0  0  0  0  0  0
  -24.3382  -30.7339   24.4233 C   0  0  0  0  0  0  0  0  0  0  0  0
  -27.9257  -12.6489   18.5763 C   0  0  0  0  0  0  0  0  0  0  0  0
  -30.3089  -13.2029   19.2180 C   0  0  0  0  0  0  0  0  0  0  0  0
  -28.5034  -13.6009   20.8476 C   0  0  0  0  0  0  0  0  0  0  0  0
  -25.2774  -30.1734   23.3484 C   0  0  1  0  0  0  0  0  0  0  0  0
  -23.1653  -28.7314   20.5390 C   0  0  1  0  0  0  0  0  0  0  0  0
  -27.4379  -13.5324   19.7402 C   0  0  2  0  0  0  0  0  0  0  0  0
  -17.1898  -24.3798   18.2236 C   0  0  0  0  0  0  0  0  0  0  0  0
  -20.8918  -25.9820   23.4771 C   0  0  0  0  0  0  0  0  0  0  0  0
  -19.1640  -24.4935   22.4440 C   0  0  0  0  0  0  0  0  0  0  0  0
  -18.7191  -26.9360   22.6872 C   0  0  0  0  0  0  0  0  0  0  0  0
  -19.8347  -25.9740   16.0013 C   0  0  0  0  0  0  0  0  0  0  0  0
  -30.5807  -17.1360   22.2217 C   0  0  0  0  0  0  0  0  0  0  0  0
  -27.0638  -23.1433   19.2374 C   0  0  0  0  0  0  0  0  0  1  0  0
  -20.3791  -26.1452   20.9519 C   0  0  1  0  0  0  0  0  0  0  0  0
  -18.3090  -25.3496   17.8777 C   0  0  2  0  0  0  0  0  0  0  0  0
  -19.8142  -25.8919   22.3782 C   0  0  0  0  0  0  0  0  0  0  0  0
  -30.3931  -20.1532   19.9688 N   0  0  0  0  0  0  0  0  0  0  0  0
  -25.7992  -11.7574   20.2370 N   0  0  0  0  0  0  0  0  0  0  0  0
  -26.0937  -13.0683   20.2700 N   0  0  0  0  0  0  0  0  0  0  0  0
  -22.4086  -27.4792   20.4770 N   0  0  0  0  0  0  0  0  0  0  0  0
  -29.7861  -14.0556   20.2884 N   0  0  0  0  0  0  0  0  0  0  0  0
  -25.2345  -15.1818   20.9067 N   0  0  0  0  0  0  0  0  0  0  0  0
  -21.9092  -12.3308   22.0069 N   0  0  0  0  0  0  0  0  0  0  0  0
  -28.2124  -21.2559   20.1566 N   0  0  0  0  0  0  0  0  0  0  0  0
  -24.5515  -29.9294   22.1204 N   0  0  0  0  0  0  0  0  0  0  0  0
  -19.3760  -26.0930   19.8939 N   0  0  0  0  0  0  0  0  0  0  0  0
  -29.9493  -15.9419   21.7056 N   0  0  0  0  0  0  0  0  0  0  0  0
  -18.7523  -25.0768   16.4812 N   0  3  0  0  0  0  0  0  0  0  0  0
  -22.5408  -14.5352   21.9849 O   0  0  0  0  0  0  0  0  0  0  0  0
  -23.7307  -27.8130   22.6395 O   0  0  0  0  0  0  0  0  0  0  0  0
  -20.3957  -28.5158   21.0336 O   0  0  0  0  0  0  0  0  0  0  0  0
  -29.3074  -22.6087   18.5761 O   0  0  0  0  0  0  0  0  0  0  0  0
  -20.3840  -24.4000   18.6712 O   0  0  0  0  0  0  0  0  0  0  0  0
  -31.5985  -15.4979   20.1760 O   0  0  0  0  0  0  0  0  0  0  0  0
  -21.9453   -6.8035   21.3117 O   0  0  0  0  0  0  0  0  0  0  0  0
  -27.1805  -24.2238   18.3126 O   0  0  0  0  0  0  0  0  0  1  0  0
  -19.3962   -5.7874   26.0943 F   0  0  0  0  0  0  0  0  0  0  0  0
  -22.6696   -4.6404   22.8734 F   0  0  0  0  0  0  0  0  0  0  0  0
  -28.7052  -19.0862   21.6105 S   0  0  0  0  0  0  0  0  0  0  0  0
  1  2  1  0  0  0  0
  1  5  2  0  0  0  0
  2  6  2  0  0  0  0
  3  8  2  0  0  0  0
  3 16  1  0  0  0  0
  4  9  1  0  0  0  0
  4 16  2  0  0  0  0
  5 18  1  0  0  0  0
  6 20  1  0  0  0  0
  7 10  2  0  0  0  0
  7 19  1  0  0  0  0
  8 22  1  0  0  0  0
  9 22  2  0  0  0  0
 10 23  1  0  0  0  0
 11 12  2  0  0  0  0
 11 24  1  0  0  0  0
 12 25  1  0  0  0  0
 13 21  1  0  0  0  0
 13 23  2  0  0  0  0
 14 25  2  0  0  0  0
 14 26  1  0  0  0  0
 15 28  2  0  0  0  0
 15 59  1  0  0  0  0
 16 27  1  0  0  0  0
 17 27  1  0  0  0  0
 17 29  2  0  0  0  0
 17 31  1  0  0  0  0
 18 20  2  0  0  0  0
 18 37  1  0  0  0  0
 19 21  2  0  0  0  0
 19 38  1  0  0  0  0
 20 46  1  0  0  0  0
 21 39  1  0  0  0  0
 22 77  1  0  0  0  0
 23 78  1  0  0  0  0
 24 26  2  0  0  0  0
 24 77  1  0  0  0  0
 25 79  1  0  0  0  0
 26 80  1  0  0  0  0
 27 60  2  0  0  0  0
 28 54  1  0  0  0  0
 28 81  1  0  0  0  0
 29 61  1  0  0  0  0
 29 64  1  0  0  0  0
 30 59  2  0  0  0  0
 30 66  1  0  0  0  0
 30 81  1  0  0  0  0
 31 65  1  0  0  0  0
 31 71  2  0  0  0  0
 32 47  1  0  0  0  0
 32 67  1  0  0  0  0
 32 72  2  0  0  0  0
 33 56  1  0  0  0  0
 33 62  1  0  0  0  0
 33 73  2  0  0  0  0
 34 55  1  0  0  0  0
 34 66  1  0  0  0  0
 34 74  2  0  0  0  0
 35 57  1  0  0  0  0
 35 68  1  0  0  0  0
 35 75  2  0  0  0  0
 36 63  1  0  0  0  0
 36 69  1  0  0  0  0
 36 76  2  0  0  0  0
 37 40  1  0  0  0  0
 38 47  1  0  0  0  0
 39 62  1  0  0  0  0
 40 42  1  0  0  0  0
 41 43  1  0  0  0  0
 41 44  1  0  0  0  0
 42 46  1  0  0  0  0
 43 48  1  0  0  0  0
 44 63  1  0  0  0  0
 45 48  1  0  0  0  0
 45 63  1  0  0  0  0
 46 67  1  0  0  0  0
 47 62  1  0  0  0  0
 48 61  1  0  0  0  0
 49 57  1  0  0  0  0
 50 58  1  0  0  0  0
 51 58  1  0  0  0  0
 52 58  1  0  0  0  0
 53 70  1  0  0  0  0
 54 69  1  0  0  0  0
 55 78  1  0  0  0  0
 56 58  1  0  0  0  0
 56 68  1  0  0  0  0
 57 70  1  0  0  0  0
 60 61  1  0  0  0  0
M  CHG  1  70   1
M  ISO  4  36 100  55 101  69 100  78 101
M  END
> <Batch ID>
0196

> <Smiles>
CNC(C)C(=O)NC(C(=O)N1Cc2cc([101O:1][101CH2:1]C(=O)Nc3ncc(C[100NH:0][100C:0](=O)N4CCCC(n5nc(-c6ccc(Oc7ccc(F)cc7F)cc6)c(C(N)=O)c5N)C4)s3)ccc2CC1C(=O)NC1CCCc2ccccc21)C(C)(C)C

> <Shape>
0.359

> <Color>
0.181

> <Negative vol penalty>
0.000

$$$$

  -OEChem-04052305393D

 83 91  0     1  0  0  0  0  0999 V2000
  -16.5706  -29.2833   23.5171 C   0  0  0  0  0  0  0  0  0  0  0  0
  -17.4267  -29.3933   22.4261 C   0  0  0  0  0  0  0  0  0  0  0  0
  -26.4454  -13.5708   19.1986 C   0  0  0  0  0  0  0  0  0  0  0  0
  -26.3198  -13.1387   21.5723 C   0  0  0  0  0  0  0  0  0  0  0  0
  -17.0936  -29.0988   24.7963 C   0  0  0  0  0  0  0  0  0  0  0  0
  -18.8065  -29.3199   22.6138 C   0  0  0  0  0  0  0  0  0  0  0  0
  -24.7720  -27.0621   19.3532 C   0  0  0  0  0  0  0  0  0  0  0  0
  -25.1813  -13.0062   19.0289 C   0  0  0  0  0  0  0  0  0  0  0  0
  -25.0557  -12.5740   21.4026 C   0  0  0  0  0  0  0  0  0  0  0  0
  -26.0376  -27.5179   18.9868 C   0  0  0  0  0  0  0  0  0  0  0  0
  -23.7615   -9.6354   20.3441 C   0  0  0  0  0  0  0  0  0  0  0  0
  -23.4957   -8.4328   20.9987 C   0  0  0  0  0  0  0  0  0  0  0  0
  -26.8248  -27.1180   21.2318 C   0  0  0  0  0  0  0  0  0  0  0  0
  -29.3683  -21.7121   19.2096 C   0  0  0  0  0  0  0  0  0  0  0  0
  -21.6834   -9.4868   22.1994 C   0  0  0  0  0  0  0  0  0  0  0  0
  -27.0147  -13.6370   20.4703 C   0  0  0  0  0  0  0  0  0  0  0  0
  -29.5280  -13.7923   20.0617 C   0  0  0  0  0  0  0  0  0  0  0  0
  -18.4801  -29.0135   24.9986 C   0  0  0  0  0  0  0  0  0  0  0  0
  -24.5200  -26.6404   20.6666 C   0  0  0  0  0  0  0  0  0  0  0  0
  -19.3486  -29.1354   23.8971 C   0  0  0  0  0  0  0  0  0  0  0  0
  -25.5558  -26.6549   21.6116 C   0  0  0  0  0  0  0  0  0  0  0  0
  -29.4576  -22.8912   18.4908 C   0  0  0  0  0  0  0  0  0  0  0  0
  -24.4864  -12.5078   20.1309 C   0  0  0  0  0  0  0  0  0  0  0  0
  -27.0635  -27.5486   19.9269 C   0  0  0  0  0  0  0  0  0  0  0  0
  -22.9882  -10.7638   20.6171 C   0  0  0  0  0  0  0  0  0  0  0  0
  -22.4567   -8.3584   21.9264 C   0  0  0  0  0  0  0  0  0  0  0  0
  -21.9492  -10.6895   21.5447 C   0  0  0  0  0  0  0  0  0  0  0  0
  -28.3207  -14.2197   20.6462 C   0  0  0  0  0  0  0  0  0  0  0  0
  -29.8431  -21.7081   20.5057 C   0  0  0  0  0  0  0  0  0  0  0  0
  -30.0156  -23.9883   19.1158 C   0  0  0  0  0  0  0  0  0  0  0  0
  -30.4707  -14.6687   20.5409 C   0  0  0  0  0  0  0  0  0  0  0  0
  -29.7752  -12.7006   19.1657 C   0  0  0  0  0  0  0  0  0  0  0  0
  -22.5901  -27.6049   23.0009 C   0  0  0  0  0  0  0  0  0  0  0  0
  -23.7063  -24.9494   24.4923 C   0  0  0  0  0  0  0  0  0  0  0  0
  -26.1870  -22.6259   24.8001 C   0  0  0  0  0  0  0  0  0  0  0  0
  -30.1708  -20.2852   22.5586 C   0  0  0  0  0  0  0  0  0  0  0  0
  -19.0004  -28.8609   26.4059 C   0  0  0  0  0  0  0  0  0  0  0  0
  -23.1564  -26.1263   21.0390 C   0  0  0  0  0  0  0  0  0  0  0  0
  -25.3423  -26.1939   23.0294 C   0  0  0  0  0  0  0  0  0  0  0  0
  -20.4600  -28.4185   26.4711 C   0  0  0  0  0  0  0  0  0  0  0  0
  -31.4165  -17.4531   24.3207 C   0  0  0  0  0  0  0  0  0  0  0  0
  -21.3100  -29.2386   25.5058 C   0  0  0  0  0  0  0  0  0  0  0  0
  -30.8789  -16.2637   23.5217 C   0  0  0  0  0  0  0  0  0  0  0  0
  -30.4118  -18.6028   24.3715 C   0  0  0  0  0  0  0  0  0  0  0  0
  -29.3725  -17.8577   22.2658 C   0  0  0  0  0  0  0  0  0  0  0  0
  -20.8502  -29.0360   24.0570 C   0  0  1  0  0  0  0  0  0  0  0  0
  -22.8766  -26.2049   22.5366 C   0  0  1  0  0  0  0  0  0  0  0  0
  -30.3752  -16.6999   22.1319 C   0  0  2  0  0  0  0  0  0  0  0  0
  -26.8339  -20.5995   26.1315 C   0  0  0  0  0  0  0  0  0  0  0  0
  -32.2032  -26.2765   18.9501 C   0  0  0  0  0  0  0  0  0  0  0  0
  -24.4532  -26.7387   26.8482 C   0  0  0  0  0  0  0  0  0  0  0  0
  -25.9109  -24.8900   27.7003 C   0  0  0  0  0  0  0  0  0  0  0  0
  -23.4506  -24.5383   27.4863 C   0  0  0  0  0  0  0  0  0  0  0  0
  -26.2301  -20.9117   22.3879 C   0  0  0  0  0  0  0  0  0  0  0  0
  -30.2100  -27.6053   18.1712 C   0  0  0  0  0  0  0  0  0  0  0  0
  -28.6971  -27.7948   18.2161 C   0  0  0  0  0  0  0  0  0  1  0  0
  -24.8737  -24.6435   25.3993 C   0  0  1  0  0  0  0  0  0  0  0  0
  -26.1438  -21.1104   24.8763 C   0  0  2  0  0  0  0  0  0  0  0  0
  -30.6820  -26.3885   18.9733 C   0  0  1  0  0  0  0  0  0  0  0  0
  -24.6759  -25.2132   26.8324 C   0  0  0  0  0  0  0  0  0  0  0  0
  -28.4791  -15.2848   21.4364 N   0  0  0  0  0  0  0  0  0  0  0  0
  -30.3844  -22.7968   21.0921 N   0  0  0  0  0  0  0  0  0  0  0  0
  -30.4719  -23.9557   20.3858 N   0  0  0  0  0  0  0  0  0  0  0  0
  -29.7970  -15.5339   21.3520 N   0  0  0  0  0  0  0  0  0  0  0  0
  -23.9899  -25.7060   23.3465 N   0  0  0  0  0  0  0  0  0  0  0  0
  -29.9826  -18.9648   23.0189 N   0  0  0  0  0  0  0  0  0  0  0  0
  -28.9864  -22.9419   17.1655 N   0  0  0  0  0  0  0  0  0  0  0  0
  -31.8018  -14.7759   20.3436 N   0  0  0  0  0  0  0  0  0  0  0  0
  -29.6881  -12.9353   17.7867 N   0  0  0  0  0  0  0  0  0  0  0  0
  -29.7540  -20.5031   21.2458 N   0  0  0  0  0  0  0  0  0  0  0  0
  -30.1152  -25.1778   18.4168 N   0  0  0  0  0  0  0  0  0  0  0  0
  -21.3313  -27.7702   23.5463 N   0  0  0  0  0  0  0  0  0  0  0  0
  -25.0598  -23.1973   25.3516 N   0  0  0  0  0  0  0  0  0  0  0  0
  -26.8214  -20.5127   23.6911 N   0  3  0  0  0  0  0  0  0  0  0  0
  -30.0486  -11.5472   19.5761 O   0  0  0  0  0  0  0  0  0  0  0  0
  -23.4482  -28.4707   22.8750 O   0  0  0  0  0  0  0  0  0  0  0  0
  -22.5854  -24.5263   24.7859 O   0  0  0  0  0  0  0  0  0  0  0  0
  -27.1283  -23.2414   24.3045 O   0  0  0  0  0  0  0  0  0  0  0  0
  -30.6904  -21.1514   23.2668 O   0  0  0  0  0  0  0  0  0  0  0  0
  -23.2528  -11.9569   19.9657 O   0  0  0  0  0  0  0  0  0  0  0  0
  -28.2996  -27.9937   19.5721 O   0  0  0  0  0  0  0  0  0  1  0  0
  -22.2006   -7.2031   22.5538 F   0  0  0  0  0  0  0  0  0  0  0  0
  -21.2021  -11.7699   21.8103 F   0  0  0  0  0  0  0  0  0  0  0  0
  1  2  1  0  0  0  0
  1  5  2  0  0  0  0
  2  6  2  0  0  0  0
  3  8  2  0  0  0  0
  3 16  1  0  0  0  0
  4  9  1  0  0  0  0
  4 16  2  0  0  0  0
  5 18  1  0  0  0  0
  6 20  1  0  0  0  0
  7 10  2  0  0  0  0
  7 19  1  0  0  0  0
  8 23  1  0  0  0  0
  9 23  2  0  0  0  0
 10 24  1  0  0  0  0
 11 12  2  0  0  0  0
 11 25  1  0  0  0  0
 12 26  1  0  0  0  0
 13 21  1  0  0  0  0
 13 24  2  0  0  0  0
 14 22  1  0  0  0  0
 14 29  2  0  0  0  0
 15 26  2  0  0  0  0
 15 27  1  0  0  0  0
 16 28  1  0  0  0  0
 17 28  1  0  0  0  0
 17 31  2  0  0  0  0
 17 32  1  0  0  0  0
 18 20  2  0  0  0  0
 18 37  1  0  0  0  0
 19 21  2  0  0  0  0
 19 38  1  0  0  0  0
 20 46  1  0  0  0  0
 21 39  1  0  0  0  0
 22 30  2  0  0  0  0
 22 67  1  0  0  0  0
 23 80  1  0  0  0  0
 24 81  1  0  0  0  0
 25 27  2  0  0  0  0
 25 80  1  0  0  0  0
 26 82  1  0  0  0  0
 27 83  1  0  0  0  0
 28 61  2  0  0  0  0
 29 62  1  0  0  0  0
 29 70  1  0  0  0  0
 30 63  1  0  0  0  0
 30 71  1  0  0  0  0
 31 64  1  0  0  0  0
 31 68  1  0  0  0  0
 32 69  1  0  0  0  0
 32 75  2  0  0  0  0
 33 47  1  0  0  0  0
 33 72  1  0  0  0  0
 33 76  2  0  0  0  0
 34 57  1  0  0  0  0
 34 65  1  0  0  0  0
 34 77  2  0  0  0  0
 35 58  1  0  0  0  0
 35 73  1  0  0  0  0
 35 78  2  0  0  0  0
 36 66  1  0  0  0  0
 36 70  1  0  0  0  0
 36 79  2  0  0  0  0
 37 40  1  0  0  0  0
 38 47  1  0  0  0  0
 39 65  1  0  0  0  0
 40 42  1  0  0  0  0
 41 43  1  0  0  0  0
 41 44  1  0  0  0  0
 42 46  1  0  0  0  0
 43 48  1  0  0  0  0
 44 66  1  0  0  0  0
 45 48  1  0  0  0  0
 45 66  1  0  0  0  0
 46 72  1  0  0  0  0
 47 65  1  0  0  0  0
 48 64  1  0  0  0  0
 49 58  1  0  0  0  0
 50 59  1  0  0  0  0
 51 60  1  0  0  0  0
 52 60  1  0  0  0  0
 53 60  1  0  0  0  0
 54 74  1  0  0  0  0
 55 56  1  0  0  0  0
 55 59  1  0  0  0  0
 56 81  1  0  0  0  0
 57 60  1  0  0  0  0
 57 73  1  0  0  0  0
 58 74  1  0  0  0  0
 59 71  1  0  0  0  0
 61 64  1  0  0  0  0
 62 63  2  0  0  0  0
M  CHG  1  74   1
M  ISO  4  36 100  56 101  70 100  81 101
M  END
> <Batch ID>
0196

> <Smiles>
CNC(C)C(=O)NC(C(=O)N1Cc2cc([101O:1][101CH2:1]CC(C)Nc3nnc([100NH:0][100C:0](=O)N4CCCC(n5nc(-c6ccc(Oc7ccc(F)cc7F)cc6)c(C(N)=O)c5N)C4)cc3N)ccc2CC1C(=O)NC1CCCc2ccccc21)C(C)(C)C

> <Shape>
0.268

> <Color>
0.080

> <Negative vol penalty>
0.000

$$$$

  -OEChem-04052305393D

 83 91  0     1  0  0  0  0  0999 V2000
  -21.6802  -12.6046   19.6641 C   0  0  0  0  0  0  0  0  0  0  0  0
  -21.7000  -13.8382   20.3071 C   0  0  0  0  0  0  0  0  0  0  0  0
  -28.8797  -26.6683   25.0272 C   0  0  0  0  0  0  0  0  0  0  0  0
  -26.8560  -25.8491   26.0618 C   0  0  0  0  0  0  0  0  0  0  0  0
  -22.8541  -11.8615   19.5480 C   0  0  0  0  0  0  0  0  0  0  0  0
  -22.8937  -14.3288   20.8352 C   0  0  0  0  0  0  0  0  0  0  0  0
  -23.6299  -19.2213   19.7553 C   0  0  0  0  0  0  0  0  0  0  0  0
  -29.5436  -26.5728   26.2502 C   0  0  0  0  0  0  0  0  0  0  0  0
  -27.5199  -25.7536   27.2848 C   0  0  0  0  0  0  0  0  0  0  0  0
  -22.9207  -20.1539   20.5110 C   0  0  0  0  0  0  0  0  0  0  0  0
  -29.7542  -28.3538   29.1152 C   0  0  0  0  0  0  0  0  0  0  0  0
  -30.5592  -29.4258   29.5002 C   0  0  0  0  0  0  0  0  0  0  0  0
  -24.8804  -20.5390   21.8640 C   0  0  0  0  0  0  0  0  0  0  0  0
  -32.4791  -27.9607   29.5657 C   0  0  0  0  0  0  0  0  0  0  0  0
  -17.7859  -29.7061   22.6462 C   0  0  0  0  0  0  0  0  0  0  0  0
  -17.9973  -28.6446   23.4942 C   0  0  0  0  0  0  0  0  0  0  0  0
  -27.5359  -26.3065   24.9330 C   0  0  0  0  0  0  0  0  0  0  0  0
  -26.7450  -25.4111   22.6790 C   0  0  0  0  0  0  0  0  0  0  0  0
  -24.0647  -12.3476   20.0664 C   0  0  0  0  0  0  0  0  0  0  0  0
  -24.9688  -18.9321   20.0557 C   0  0  0  0  0  0  0  0  0  0  0  0
  -24.0846  -13.5908   20.7270 C   0  0  0  0  0  0  0  0  0  0  0  0
  -25.6052  -19.6042   21.1090 C   0  0  0  0  0  0  0  0  0  0  0  0
  -28.8637  -26.1154   27.3790 C   0  0  0  0  0  0  0  0  0  0  0  0
  -23.5450  -20.8108   21.5673 C   0  0  0  0  0  0  0  0  0  0  0  0
  -30.3116  -27.0851   28.9555 C   0  0  0  0  0  0  0  0  0  0  0  0
  -31.9216  -29.2293   29.7254 C   0  0  0  0  0  0  0  0  0  0  0  0
  -31.6741  -26.8886   29.1808 C   0  0  0  0  0  0  0  0  0  0  0  0
  -26.8494  -26.4054   23.6700 C   0  0  0  0  0  0  0  0  0  0  0  0
  -25.9992  -25.9947   21.6842 C   0  0  0  0  0  0  0  0  0  0  0  0
  -19.8940  -29.4136   22.6771 C   0  0  0  0  0  0  0  0  0  0  0  0
  -27.2748  -24.0789   22.6594 C   0  0  0  0  0  0  0  0  0  0  0  0
  -26.5515  -16.3311   20.9688 C   0  0  0  0  0  0  0  0  0  0  0  0
  -29.1413  -18.2456   20.5816 C   0  0  0  0  0  0  0  0  0  0  0  0
  -30.4153  -21.4099   20.4764 C   0  0  0  0  0  0  0  0  0  0  0  0
  -21.9716  -30.4086   21.6573 C   0  0  0  0  0  0  0  0  0  0  0  0
  -25.2985  -11.4869   19.9582 C   0  0  0  0  0  0  0  0  0  0  0  0
  -25.7279  -17.9432   19.2141 C   0  0  0  0  0  0  0  0  0  0  0  0
  -27.0467  -19.3445   21.4594 C   0  0  0  0  0  0  0  0  0  0  0  0
  -26.5965  -12.2480   20.2152 C   0  0  0  0  0  0  0  0  0  0  0  0
  -24.9922  -30.2708   19.7775 C   0  0  0  0  0  0  0  0  0  0  0  0
  -26.4680  -13.1169   21.4624 C   0  0  0  0  0  0  0  0  0  0  0  0
  -25.7993  -29.1692   20.4685 C   0  0  0  0  0  0  0  0  0  0  0  0
  -24.1911  -31.1002   20.7794 C   0  0  0  0  0  0  0  0  0  0  0  0
  -24.1384  -29.2218   22.3726 C   0  0  0  0  0  0  0  0  0  0  0  0
  -25.3648  -14.1681   21.2911 C   0  0  1  0  0  0  0  0  0  0  0  0
  -26.9355  -17.3496   19.9329 C   0  0  1  0  0  0  0  0  0  0  0  0
  -24.9113  -28.3186   21.3977 C   0  0  2  0  0  0  0  0  0  0  0  0
  -32.5734  -22.6557   20.1803 C   0  0  0  0  0  0  0  0  0  0  0  0
  -20.8537  -24.8964   20.1751 C   0  0  0  0  0  0  0  0  0  0  0  0
  -29.9512  -17.5151   23.4313 C   0  0  0  0  0  0  0  0  0  0  0  0
  -31.5209  -19.4655   23.4108 C   0  0  0  0  0  0  0  0  0  0  0  0
  -31.8421  -17.5912   21.7964 C   0  0  0  0  0  0  0  0  0  0  0  0
  -29.4221  -22.7871   18.0524 C   0  0  0  0  0  0  0  0  0  0  0  0
  -21.6782  -23.8116   22.3020 C   0  0  0  0  0  0  0  0  0  0  0  0
  -20.0674  -27.4507   24.2658 C   0  0  0  0  0  0  0  0  0  0  0  0
  -19.9739  -26.0558   23.6613 C   0  0  0  0  0  0  0  0  0  0  0  0
  -21.8168  -22.4426   21.6452 C   0  0  0  0  0  0  0  0  0  1  0  0
  -29.9131  -19.1923   21.4687 C   0  0  1  0  0  0  0  0  0  0  0  0
  -31.3443  -22.0893   19.4866 C   0  0  2  0  0  0  0  0  0  0  0  0
  -20.6044  -24.6951   21.6639 C   0  0  1  0  0  0  0  0  0  0  0  0
  -30.7791  -18.4447   22.5217 C   0  0  0  0  0  0  0  0  0  0  0  0
  -18.9705  -30.1801   22.1407 N   0  0  0  0  0  0  0  0  0  0  0  0
  -26.2203  -27.5351   23.3352 N   0  0  0  0  0  0  0  0  0  0  0  0
  -19.3523  -28.4687   23.5035 N   0  0  0  0  0  0  0  0  0  0  0  0
  -25.7136  -27.2542   22.1226 N   0  0  0  0  0  0  0  0  0  0  0  0
  -27.7446  -18.3642   20.6111 N   0  0  0  0  0  0  0  0  0  0  0  0
  -23.3705  -30.2279   21.6225 N   0  0  0  0  0  0  0  0  0  0  0  0
  -25.5665  -25.5483   20.4859 N   0  0  0  0  0  0  0  0  0  0  0  0
  -28.0180  -23.6392   23.7633 N   0  0  0  0  0  0  0  0  0  0  0  0
  -21.2928  -29.4998   22.4684 N   0  0  0  0  0  0  0  0  0  0  0  0
  -25.8329  -15.2624   20.4678 N   0  0  0  0  0  0  0  0  0  0  0  0
  -30.6744  -20.0592   20.5758 N   0  0  0  0  0  0  0  0  0  0  0  0
  -30.6385  -23.2053   18.7957 N   0  3  0  0  0  0  0  0  0  0  0  0
  -20.6000  -26.0353   22.3139 N   0  3  0  0  0  0  0  0  0  0  0  0
  -27.1083  -23.3072   21.6846 O   0  0  0  0  0  0  0  0  0  0  0  0
  -26.8839  -16.5015   22.1359 O   0  0  0  0  0  0  0  0  0  0  0  0
  -29.7554  -17.4356   19.8827 O   0  0  0  0  0  0  0  0  0  0  0  0
  -29.5490  -22.0173   21.1018 O   0  0  0  0  0  0  0  0  0  0  0  0
  -21.4139  -31.2864   20.9936 O   0  0  0  0  0  0  0  0  0  0  0  0
  -29.5113  -26.0219   28.5725 O   0  0  0  0  0  0  0  0  0  0  0  0
  -22.8549  -21.7210   22.3069 O   0  0  0  0  0  0  0  0  0  1  0  0
  -32.6949  -30.2592   30.0936 F   0  0  0  0  0  0  0  0  0  0  0  0
  -32.2155  -25.6723   29.0278 F   0  0  0  0  0  0  0  0  0  0  0  0
  1  2  1  0  0  0  0
  1  5  2  0  0  0  0
  2  6  2  0  0  0  0
  3  8  2  0  0  0  0
  3 17  1  0  0  0  0
  4  9  1  0  0  0  0
  4 17  2  0  0  0  0
  5 19  1  0  0  0  0
  6 21  1  0  0  0  0
  7 10  2  0  0  0  0
  7 20  1  0  0  0  0
  8 23  1  0  0  0  0
  9 23  2  0  0  0  0
 10 24  1  0  0  0  0
 11 12  2  0  0  0  0
 11 25  1  0  0  0  0
 12 26  1  0  0  0  0
 13 22  1  0  0  0  0
 13 24  2  0  0  0  0
 14 26  2  0  0  0  0
 14 27  1  0  0  0  0
 15 16  2  0  0  0  0
 15 62  1  0  0  0  0
 16 64  1  0  0  0  0
 17 28  1  0  0  0  0
 18 28  1  0  0  0  0
 18 29  2  0  0  0  0
 18 31  1  0  0  0  0
 19 21  2  0  0  0  0
 19 36  1  0  0  0  0
 20 22  2  0  0  0  0
 20 37  1  0  0  0  0
 21 45  1  0  0  0  0
 22 38  1  0  0  0  0
 23 80  1  0  0  0  0
 24 81  1  0  0  0  0
 25 27  2  0  0  0  0
 25 80  1  0  0  0  0
 26 82  1  0  0  0  0
 27 83  1  0  0  0  0
 28 63  2  0  0  0  0
 29 65  1  0  0  0  0
 29 68  1  0  0  0  0
 30 62  2  0  0  0  0
 30 64  1  0  0  0  0
 30 70  1  0  0  0  0
 31 69  1  0  0  0  0
 31 75  2  0  0  0  0
 32 46  1  0  0  0  0
 32 71  1  0  0  0  0
 32 76  2  0  0  0  0
 33 58  1  0  0  0  0
 33 66  1  0  0  0  0
 33 77  2  0  0  0  0
 34 59  1  0  0  0  0
 34 72  1  0  0  0  0
 34 78  2  0  0  0  0
 35 67  1  0  0  0  0
 35 70  1  0  0  0  0
 35 79  2  0  0  0  0
 36 39  1  0  0  0  0
 37 46  1  0  0  0  0
 38 66  1  0  0  0  0
 39 41  1  0  0  0  0
 40 42  1  0  0  0  0
 40 43  1  0  0  0  0
 41 45  1  0  0  0  0
 42 47  1  0  0  0  0
 43 67  1  0  0  0  0
 44 47  1  0  0  0  0
 44 67  1  0  0  0  0
 45 71  1  0  0  0  0
 46 66  1  0  0  0  0
 47 65  1  0  0  0  0
 48 59  1  0  0  0  0
 49 60  1  0  0  0  0
 50 61  1  0  0  0  0
 51 61  1  0  0  0  0
 52 61  1  0  0  0  0
 53 73  1  0  0  0  0
 54 57  1  0  0  0  0
 54 60  1  0  0  0  0
 55 56  1  0  0  0  0
 55 64  1  0  0  0  0
 56 74  1  0  0  0  0
 57 81  1  0  0  0  0
 58 61  1  0  0  0  0
 58 72  1  0  0  0  0
 59 73  1  0  0  0  0
 60 74  1  0  0  0  0
 63 65  1  0  0  0  0
M  CHG  2  73   1  74   1
M  ISO  4  35 100  57 101  70 100  81 101
M  END
> <Batch ID>
0196

> <Smiles>
CNC(C)C(=O)NC(C(=O)N1Cc2cc([101O:1][101CH2:1]CC(C)NCCn3ccnc3[100NH:0][100C:0](=O)N3CCCC(n4nc(-c5ccc(Oc6ccc(F)cc6F)cc5)c(C(N)=O)c4N)C3)ccc2CC1C(=O)NC1CCCc2ccccc21)C(C)(C)C

> <Shape>
0.190

> <Color>
0.086

> <Negative vol penalty>
0.000

$$$$

  -OEChem-04052305393D

 82 90  0     1  0  0  0  0  0999 V2000
  -19.4414  -11.8195   30.0432 C   0  0  0  0  0  0  0  0  0  0  0  0
  -20.7321  -12.2085   30.3867 C   0  0  0  0  0  0  0  0  0  0  0  0
  -23.2867   -9.8010   19.9133 C   0  0  0  0  0  0  0  0  0  0  0  0
  -23.7377   -9.9419   22.2827 C   0  0  0  0  0  0  0  0  0  0  0  0
  -19.1399  -10.4669   29.8894 C   0  0  0  0  0  0  0  0  0  0  0  0
  -21.7220  -11.2451   30.5777 C   0  0  0  0  0  0  0  0  0  0  0  0
  -26.0938  -12.4815   28.3408 C   0  0  0  0  0  0  0  0  0  0  0  0
  -22.5601   -8.6287   20.1213 C   0  0  0  0  0  0  0  0  0  0  0  0
  -23.0110   -8.7696   22.4907 C   0  0  0  0  0  0  0  0  0  0  0  0
  -26.8952  -13.4224   28.9858 C   0  0  0  0  0  0  0  0  0  0  0  0
  -19.4785   -7.7691   21.2159 C   0  0  0  0  0  0  0  0  0  0  0  0
  -18.2494   -7.6447   20.5683 C   0  0  0  0  0  0  0  0  0  0  0  0
  -28.2714  -11.6434   29.8579 C   0  0  0  0  0  0  0  0  0  0  0  0
  -19.0504   -5.6715   19.4271 C   0  0  0  0  0  0  0  0  0  0  0  0
  -33.0728  -13.7550   25.2275 C   0  0  0  0  0  0  0  0  0  0  0  0
  -23.8755  -10.4576   20.9940 C   0  0  0  0  0  0  0  0  0  0  0  0
  -24.1354  -12.9875   20.7949 C   0  0  0  0  0  0  0  0  0  0  0  0
  -20.1289   -9.4870   30.0691 C   0  0  0  0  0  0  0  0  0  0  0  0
  -26.3691  -11.1116   28.4585 C   0  0  0  0  0  0  0  0  0  0  0  0
  -21.4331   -9.8781   30.4274 C   0  0  0  0  0  0  0  0  0  0  0  0
  -27.4734  -10.6873   29.2113 C   0  0  0  0  0  0  0  0  0  0  0  0
  -22.4222   -8.1130   21.4100 C   0  0  0  0  0  0  0  0  0  0  0  0
  -27.9825  -13.0033   29.7469 C   0  0  0  0  0  0  0  0  0  0  0  0
  -20.4937   -6.8447   20.9691 C   0  0  0  0  0  0  0  0  0  0  0  0
  -18.0353   -6.5959   19.6740 C   0  0  0  0  0  0  0  0  0  0  0  0
  -20.2796   -5.7960   20.0747 C   0  0  0  0  0  0  0  0  0  0  0  0
  -24.6267  -11.6683   20.7796 C   0  0  0  0  0  0  0  0  0  0  0  0
  -32.0830  -13.5220   26.1592 C   0  0  0  0  0  0  0  0  0  0  0  0
  -25.2370  -13.7671   20.5397 C   0  0  0  0  0  0  0  0  0  0  0  0
  -31.4524  -13.2035   23.8563 C   0  0  0  0  0  0  0  0  0  0  0  0
  -22.8025  -13.4655   21.0197 C   0  0  0  0  0  0  0  0  0  0  0  0
  -24.8075   -8.6023   29.6283 C   0  0  0  0  0  0  0  0  0  0  0  0
  -27.3110   -6.9565   28.3849 C   0  0  0  0  0  0  0  0  0  0  0  0
  -30.5688   -6.9698   27.3682 C   0  0  0  0  0  0  0  0  0  0  0  0
  -31.0973  -12.9516   21.3750 C   0  0  0  0  0  0  0  0  0  0  0  0
  -19.7440   -8.0346   29.9382 C   0  0  0  0  0  0  0  0  0  0  0  0
  -25.5107  -10.1108   27.7347 C   0  0  0  0  0  0  0  0  0  0  0  0
  -27.8237   -9.2293   29.3527 C   0  0  0  0  0  0  0  0  0  0  0  0
  -20.9406   -7.0982   29.7914 C   0  0  0  0  0  0  0  0  0  0  0  0
  -29.4637  -13.6560   18.2908 C   0  0  0  0  0  0  0  0  0  0  0  0
  -22.0138   -7.4381   30.8208 C   0  0  0  0  0  0  0  0  0  0  0  0
  -27.9923  -13.3521   18.5822 C   0  0  0  0  0  0  0  0  0  0  0  0
  -30.3967  -12.6807   19.0063 C   0  0  0  0  0  0  0  0  0  0  0  0
  -28.7036  -12.2532   20.7441 C   0  0  0  0  0  0  0  0  0  0  0  0
  -22.5401   -8.8642   30.6188 C   0  0  1  0  0  0  0  0  0  0  0  0
  -25.5790   -8.7137   28.3438 C   0  0  1  0  0  0  0  0  0  0  0  0
  -27.7274  -13.2493   20.0971 C   0  0  2  0  0  0  0  0  0  0  0  0
  -32.3470   -5.4657   26.4340 C   0  0  0  0  0  0  0  0  0  0  0  0
  -32.7595  -15.5107   30.1136 C   0  0  0  0  0  0  0  0  0  0  0  0
  -27.6908   -5.6991   31.1389 C   0  0  0  0  0  0  0  0  0  0  0  0
  -29.9776   -4.9789   30.4178 C   0  0  0  0  0  0  0  0  0  0  0  0
  -27.9654   -4.1160   29.2225 C   0  0  0  0  0  0  0  0  0  0  0  0
  -30.8235   -8.6028   24.9131 C   0  0  0  0  0  0  0  0  0  0  0  0
  -32.1299  -13.6209   27.6555 C   0  0  0  0  0  0  0  0  0  0  0  0
  -30.2488  -15.7879   30.1210 C   0  0  0  0  0  0  0  0  0  0  0  0
  -28.8862  -15.2031   29.7661 C   0  0  0  0  0  0  0  0  0  1  0  0
  -28.6645   -6.5233   28.8942 C   0  0  1  0  0  0  0  0  0  0  0  0
  -31.2325   -6.4473   26.1069 C   0  0  2  0  0  0  0  0  0  0  0  0
  -31.4270  -14.9236   29.6674 C   0  0  1  0  0  0  0  0  0  0  0  0
  -28.5671   -5.3568   29.9175 C   0  0  0  0  0  0  0  0  0  0  0  0
  -32.7132  -13.5724   23.9064 N   0  0  0  0  0  0  0  0  0  0  0  0
  -25.9383  -11.6094   20.5340 N   0  0  0  0  0  0  0  0  0  0  0  0
  -26.2805  -12.9013   20.3925 N   0  0  0  0  0  0  0  0  0  0  0  0
  -26.9505   -8.2888   28.6312 N   0  0  0  0  0  0  0  0  0  0  0  0
  -30.0900  -12.6391   20.4377 N   0  0  0  0  0  0  0  0  0  0  0  0
  -25.4052  -15.1020   20.4290 N   0  0  0  0  0  0  0  0  0  0  0  0
  -21.7898  -12.5288   21.2675 N   0  0  0  0  0  0  0  0  0  0  0  0
  -30.6802  -12.9103   22.7050 N   0  0  0  0  0  0  0  0  0  0  0  0
  -23.4655   -8.9086   29.5070 N   0  0  0  0  0  0  0  0  0  0  0  0
  -29.4661   -6.2178   27.7142 N   0  0  0  0  0  0  0  0  0  0  0  0
  -31.8134   -7.5735   25.3226 N   0  3  0  0  0  0  0  0  0  0  0  0
  -31.4420  -14.8286   28.1810 N   0  3  0  0  0  0  0  0  0  0  0  0
  -22.5149  -14.6859   20.9852 O   0  0  0  0  0  0  0  0  0  0  0  0
  -25.3866   -8.2620   30.6533 O   0  0  0  0  0  0  0  0  0  0  0  0
  -26.6028   -6.1446   27.7841 O   0  0  0  0  0  0  0  0  0  0  0  0
  -30.9888   -7.9452   27.9869 O   0  0  0  0  0  0  0  0  0  0  0  0
  -32.2382  -13.2616   21.0225 O   0  0  0  0  0  0  0  0  0  0  0  0
  -21.7131   -6.9691   21.6134 O   0  0  0  0  0  0  0  0  0  0  0  0
  -28.7661  -13.9196   30.3781 O   0  0  0  0  0  0  0  0  0  1  0  0
  -16.8545   -6.4757   19.0533 F   0  0  0  0  0  0  0  0  0  0  0  0
  -21.2506   -4.9042   19.8345 F   0  0  0  0  0  0  0  0  0  0  0  0
  -30.6386  -13.0568   25.3600 S   0  0  0  0  0  0  0  0  0  0  0  0
  1  2  1  0  0  0  0
  1  5  2  0  0  0  0
  2  6  2  0  0  0  0
  3  8  2  0  0  0  0
  3 16  1  0  0  0  0
  4  9  1  0  0  0  0
  4 16  2  0  0  0  0
  5 18  1  0  0  0  0
  6 20  1  0  0  0  0
  7 10  2  0  0  0  0
  7 19  1  0  0  0  0
  8 22  1  0  0  0  0
  9 22  2  0  0  0  0
 10 23  1  0  0  0  0
 11 12  2  0  0  0  0
 11 24  1  0  0  0  0
 12 25  1  0  0  0  0
 13 21  1  0  0  0  0
 13 23  2  0  0  0  0
 14 25  2  0  0  0  0
 14 26  1  0  0  0  0
 15 28  2  0  0  0  0
 15 61  1  0  0  0  0
 16 27  1  0  0  0  0
 17 27  1  0  0  0  0
 17 29  2  0  0  0  0
 17 31  1  0  0  0  0
 18 20  2  0  0  0  0
 18 36  1  0  0  0  0
 19 21  2  0  0  0  0
 19 37  1  0  0  0  0
 20 45  1  0  0  0  0
 21 38  1  0  0  0  0
 22 78  1  0  0  0  0
 23 79  1  0  0  0  0
 24 26  2  0  0  0  0
 24 78  1  0  0  0  0
 25 80  1  0  0  0  0
 26 81  1  0  0  0  0
 27 62  2  0  0  0  0
 28 54  1  0  0  0  0
 28 82  1  0  0  0  0
 29 63  1  0  0  0  0
 29 66  1  0  0  0  0
 30 61  2  0  0  0  0
 30 68  1  0  0  0  0
 30 82  1  0  0  0  0
 31 67  1  0  0  0  0
 31 73  2  0  0  0  0
 32 46  1  0  0  0  0
 32 69  1  0  0  0  0
 32 74  2  0  0  0  0
 33 57  1  0  0  0  0
 33 64  1  0  0  0  0
 33 75  2  0  0  0  0
 34 58  1  0  0  0  0
 34 70  1  0  0  0  0
 34 76  2  0  0  0  0
 35 65  1  0  0  0  0
 35 68  1  0  0  0  0
 35 77  2  0  0  0  0
 36 39  1  0  0  0  0
 37 46  1  0  0  0  0
 38 64  1  0  0  0  0
 39 41  1  0  0  0  0
 40 42  1  0  0  0  0
 40 43  1  0  0  0  0
 41 45  1  0  0  0  0
 42 47  1  0  0  0  0
 43 65  1  0  0  0  0
 44 47  1  0  0  0  0
 44 65  1  0  0  0  0
 45 69  1  0  0  0  0
 46 64  1  0  0  0  0
 47 63  1  0  0  0  0
 48 58  1  0  0  0  0
 49 59  1  0  0  0  0
 50 60  1  0  0  0  0
 51 60  1  0  0  0  0
 52 60  1  0  0  0  0
 53 71  1  0  0  0  0
 54 72  1  0  0  0  0
 55 56  1  0  0  0  0
 55 59  1  0  0  0  0
 56 79  1  0  0  0  0
 57 60  1  0  0  0  0
 57 70  1  0  0  0  0
 58 71  1  0  0  0  0
 59 72  1  0  0  0  0
 62 63  1  0  0  0  0
M  CHG  2  71   1  72   1
M  ISO  4  35 100  56 101  68 100  79 101
M  END
> <Batch ID>
0196

> <Smiles>
CNC(C)C(=O)NC(C(=O)N1Cc2cc([101O:1][101CH2:1]CC(C)NCc3cnc([100NH:0][100C:0](=O)N4CCCC(n5nc(-c6ccc(Oc7ccc(F)cc7F)cc6)c(C(N)=O)c5N)C4)s3)ccc2CC1C(=O)NC1CCCc2ccccc21)C(C)(C)C

> <Shape>
0.119

> <Color>
0.170

> <Negative vol penalty>
0.000

$$$$

  -OEChem-04052305393D

 83 91  0     1  0  0  0  0  0999 V2000
  -21.5573  -12.6479   19.7077 C   0  0  0  0  0  0  0  0  0  0  0  0
  -21.6051  -13.8626   20.3841 C   0  0  0  0  0  0  0  0  0  0  0  0
  -30.1841  -28.2844   21.5164 C   0  0  0  0  0  0  0  0  0  0  0  0
  -29.0008  -26.2255   21.9611 C   0  0  0  0  0  0  0  0  0  0  0  0
  -22.7185  -11.8923   19.5510 C   0  0  0  0  0  0  0  0  0  0  0  0
  -22.8142  -14.3220   20.9052 C   0  0  0  0  0  0  0  0  0  0  0  0
  -23.6012  -19.2323   19.9490 C   0  0  0  0  0  0  0  0  0  0  0  0
  -31.2525  -27.8384   22.2944 C   0  0  0  0  0  0  0  0  0  0  0  0
  -30.0692  -25.7795   22.7391 C   0  0  0  0  0  0  0  0  0  0  0  0
  -22.9178  -20.1530   20.7421 C   0  0  0  0  0  0  0  0  0  0  0  0
  -31.2629  -26.2922   25.8605 C   0  0  0  0  0  0  0  0  0  0  0  0
  -30.9679  -25.7040   27.0903 C   0  0  0  0  0  0  0  0  0  0  0  0
  -24.9050  -20.4734   22.0717 C   0  0  0  0  0  0  0  0  0  0  0  0
  -32.0364  -23.6606   26.3692 C   0  0  0  0  0  0  0  0  0  0  0  0
  -29.0582  -27.4780   21.3498 C   0  0  0  0  0  0  0  0  0  0  0  0
  -27.7696  -27.7456   19.1645 C   0  0  0  0  0  0  0  0  0  0  0  0
  -23.9443  -12.3473   20.0621 C   0  0  0  0  0  0  0  0  0  0  0  0
  -24.9407  -18.9166   20.2183 C   0  0  0  0  0  0  0  0  0  0  0  0
  -23.9927  -13.5712   20.7564 C   0  0  0  0  0  0  0  0  0  0  0  0
  -25.6039  -19.5503   21.2789 C   0  0  0  0  0  0  0  0  0  0  0  0
  -31.1950  -26.5860   22.9057 C   0  0  0  0  0  0  0  0  0  0  0  0
  -23.5688  -20.7715   21.8055 C   0  0  0  0  0  0  0  0  0  0  0  0
  -31.9446  -25.5647   24.8849 C   0  0  0  0  0  0  0  0  0  0  0  0
  -31.3547  -24.3882   27.3447 C   0  0  0  0  0  0  0  0  0  0  0  0
  -32.3314  -24.2489   25.1394 C   0  0  0  0  0  0  0  0  0  0  0  0
  -27.9540  -27.9383   20.5467 C   0  0  0  0  0  0  0  0  0  0  0  0
  -26.5780  -28.3695   18.8867 C   0  0  0  0  0  0  0  0  0  0  0  0
  -20.6087  -26.1358   22.6653 C   0  0  0  0  0  0  0  0  0  0  0  0
  -20.2768  -24.1459   21.6819 C   0  0  0  0  0  0  0  0  0  0  0  0
  -21.3192  -24.2569   23.6664 C   0  0  0  0  0  0  0  0  0  0  0  0
  -28.6012  -27.0634   18.2164 C   0  0  0  0  0  0  0  0  0  0  0  0
  -26.5015  -16.2698   21.0320 C   0  0  0  0  0  0  0  0  0  0  0  0
  -29.1113  -18.1589   20.6540 C   0  0  0  0  0  0  0  0  0  0  0  0
  -30.4277  -21.3073   20.6148 C   0  0  0  0  0  0  0  0  0  0  0  0
  -21.7835  -29.6754   22.2272 C   0  0  0  0  0  0  0  0  0  0  0  0
  -25.1638  -11.4732   19.9091 C   0  0  0  0  0  0  0  0  0  0  0  0
  -25.6716  -17.9413   19.3369 C   0  0  0  0  0  0  0  0  0  0  0  0
  -27.0473  -19.2613   21.5974 C   0  0  0  0  0  0  0  0  0  0  0  0
  -26.4766  -12.2091   20.1649 C   0  0  0  0  0  0  0  0  0  0  0  0
  -23.7946  -31.9620   20.3823 C   0  0  0  0  0  0  0  0  0  0  0  0
  -26.3810  -13.0445   21.4377 C   0  0  0  0  0  0  0  0  0  0  0  0
  -25.0720  -31.1727   20.0905 C   0  0  0  0  0  0  0  0  0  0  0  0
  -23.2300  -31.6319   21.7623 C   0  0  0  0  0  0  0  0  0  0  0  0
  -24.2873  -29.4061   21.7222 C   0  0  0  0  0  0  0  0  0  0  0  0
  -25.2900  -14.1150   21.3144 C   0  0  1  0  0  0  0  0  0  0  0  0
  -26.8825  -17.3115   20.0183 C   0  0  1  0  0  0  0  0  0  0  0  0
  -24.8632  -29.6636   20.3192 C   0  0  2  0  0  0  0  0  0  0  0  0
  -32.5980  -22.5314   20.3166 C   0  0  0  0  0  0  0  0  0  0  0  0
  -22.3457  -21.8121   26.2725 C   0  0  0  0  0  0  0  0  0  0  0  0
  -29.9581  -17.3382   23.4681 C   0  0  0  0  0  0  0  0  0  0  0  0
  -31.5545  -19.2668   23.4749 C   0  0  0  0  0  0  0  0  0  0  0  0
  -31.8225  -17.4341   21.8039 C   0  0  0  0  0  0  0  0  0  0  0  0
  -29.4138  -22.7651   18.2471 C   0  0  0  0  0  0  0  0  0  0  0  0
  -20.4624  -27.6194   22.6592 C   0  0  0  0  0  0  0  0  0  0  0  0
  -23.3080  -21.7738   23.9463 C   0  0  0  0  0  0  0  0  0  1  0  0
  -29.9110  -19.0699   21.5537 C   0  0  1  0  0  0  0  0  0  0  0  0
  -31.3497  -22.0014   19.6285 C   0  0  2  0  0  0  0  0  0  0  0  0
  -22.1237  -22.1929   24.8146 C   0  0  2  0  0  0  0  0  0  0  0  0
  -30.7837  -18.2815   22.5706 C   0  0  0  0  0  0  0  0  0  0  0  0
  -26.9592  -28.6307   21.1080 N   0  0  0  0  0  0  0  0  0  0  0  0
  -20.1102  -25.4761   21.6071 N   0  0  0  0  0  0  0  0  0  0  0  0
  -21.2246  -25.5949   23.7289 N   0  0  0  0  0  0  0  0  0  0  0  0
  -20.8699  -23.4675   22.6775 N   0  0  0  0  0  0  0  0  0  0  0  0
  -26.1383  -28.8785   20.0732 N   0  0  0  0  0  0  0  0  0  0  0  0
  -27.7170  -18.2957   20.7105 N   0  0  0  0  0  0  0  0  0  0  0  0
  -23.0542  -30.1856   21.9141 N   0  0  0  0  0  0  0  0  0  0  0  0
  -25.8739  -28.5269   17.7457 N   0  0  0  0  0  0  0  0  0  0  0  0
  -19.7787  -23.3832   20.6031 N   0  0  0  0  0  0  0  0  0  0  0  0
  -29.7911  -26.4785   18.6705 N   0  0  0  0  0  0  0  0  0  0  0  0
  -21.9428  -23.6283   24.7283 N   0  0  0  0  0  0  0  0  0  0  0  0
  -25.7597  -15.2254   20.5139 N   0  0  0  0  0  0  0  0  0  0  0  0
  -30.6695  -19.9510   20.6723 N   0  0  0  0  0  0  0  0  0  0  0  0
  -21.7029  -28.2934   22.3469 N   0  0  0  0  0  0  0  0  0  0  0  0
  -30.6482  -23.1458   18.9809 N   0  3  0  0  0  0  0  0  0  0  0  0
  -28.3061  -26.9894   16.9994 O   0  0  0  0  0  0  0  0  0  0  0  0
  -26.8557  -16.4030   22.1975 O   0  0  0  0  0  0  0  0  0  0  0  0
  -29.7021  -17.3605   19.9225 O   0  0  0  0  0  0  0  0  0  0  0  0
  -29.5806  -21.9087   21.2714 O   0  0  0  0  0  0  0  0  0  0  0  0
  -20.7930  -30.3976   22.3830 O   0  0  0  0  0  0  0  0  0  0  0  0
  -32.2375  -26.1504   23.6648 O   0  0  0  0  0  0  0  0  0  0  0  0
  -22.9040  -21.6700   22.5817 O   0  0  0  0  0  0  0  0  0  1  0  0
  -31.0726  -23.8240   28.5263 F   0  0  0  0  0  0  0  0  0  0  0  0
  -32.9877  -23.5453   24.2066 F   0  0  0  0  0  0  0  0  0  0  0  0
  1  2  1  0  0  0  0
  1  5  2  0  0  0  0
  2  6  2  0  0  0  0
  3  8  2  0  0  0  0
  3 15  1  0  0  0  0
  4  9  1  0  0  0  0
  4 15  2  0  0  0  0
  5 17  1  0  0  0  0
  6 19  1  0  0  0  0
  7 10  2  0  0  0  0
  7 18  1  0  0  0  0
  8 21  1  0  0  0  0
  9 21  2  0  0  0  0
 10 22  1  0  0  0  0
 11 12  2  0  0  0  0
 11 23  1  0  0  0  0
 12 24  1  0  0  0  0
 13 20  1  0  0  0  0
 13 22  2  0  0  0  0
 14 24  2  0  0  0  0
 14 25  1  0  0  0  0
 15 26  1  0  0  0  0
 16 26  1  0  0  0  0
 16 27  2  0  0  0  0
 16 31  1  0  0  0  0
 17 19  2  0  0  0  0
 17 36  1  0  0  0  0
 18 20  2  0  0  0  0
 18 37  1  0  0  0  0
 19 45  1  0  0  0  0
 20 38  1  0  0  0  0
 21 80  1  0  0  0  0
 22 81  1  0  0  0  0
 23 25  2  0  0  0  0
 23 80  1  0  0  0  0
 24 82  1  0  0  0  0
 25 83  1  0  0  0  0
 26 60  2  0  0  0  0
 27 64  1  0  0  0  0
 27 67  1  0  0  0  0
 28 54  1  0  0  0  0
 28 61  2  0  0  0  0
 28 62  1  0  0  0  0
 29 61  1  0  0  0  0
 29 63  2  0  0  0  0
 29 68  1  0  0  0  0
 30 62  2  0  0  0  0
 30 63  1  0  0  0  0
 30 70  1  0  0  0  0
 31 69  1  0  0  0  0
 31 75  2  0  0  0  0
 32 46  1  0  0  0  0
 32 71  1  0  0  0  0
 32 76  2  0  0  0  0
 33 56  1  0  0  0  0
 33 65  1  0  0  0  0
 33 77  2  0  0  0  0
 34 57  1  0  0  0  0
 34 72  1  0  0  0  0
 34 78  2  0  0  0  0
 35 66  1  0  0  0  0
 35 73  1  0  0  0  0
 35 79  2  0  0  0  0
 36 39  1  0  0  0  0
 37 46  1  0  0  0  0
 38 65  1  0  0  0  0
 39 41  1  0  0  0  0
 40 42  1  0  0  0  0
 40 43  1  0  0  0  0
 41 45  1  0  0  0  0
 42 47  1  0  0  0  0
 43 66  1  0  0  0  0
 44 47  1  0  0  0  0
 44 66  1  0  0  0  0
 45 71  1  0  0  0  0
 46 65  1  0  0  0  0
 47 64  1  0  0  0  0
 48 57  1  0  0  0  0
 49 58  1  0  0  0  0
 50 59  1  0  0  0  0
 51 59  1  0  0  0  0
 52 59  1  0  0  0  0
 53 74  1  0  0  0  0
 54 73  1  0  0  0  0
 55 58  1  0  0  0  0
 55 81  1  0  0  0  0
 56 59  1  0  0  0  0
 56 72  1  0  0  0  0
 57 74  1  0  0  0  0
 58 70  1  0  0  0  0
 60 64  1  0  0  0  0
M  CHG  1  74   1
M  ISO  4  35 100  55 101  73 100  81 101
M  END
> <Batch ID>
0196

> <Smiles>
CNC(C)C(=O)NC(C(=O)N1Cc2cc([101O:1][101CH2:1]C(C)Nc3nc(N)nc(C[100NH:0][100C:0](=O)N4CCCC(n5nc(-c6ccc(Oc7ccc(F)cc7F)cc6)c(C(N)=O)c5N)C4)n3)ccc2CC1C(=O)NC1CCCc2ccccc21)C(C)(C)C

> <Shape>
0.217

> <Color>
0.063

> <Negative vol penalty>
0.000

$$$$

  -OEChem-04052305393D

 83 91  0     1  0  0  0  0  0999 V2000
  -16.6025  -29.5705   22.9814 C   0  0  0  0  0  0  0  0  0  0  0  0
  -17.7461  -30.0025   22.3174 C   0  0  0  0  0  0  0  0  0  0  0  0
  -26.3255  -12.8904   21.5990 C   0  0  0  0  0  0  0  0  0  0  0  0
  -25.7087  -13.8207   19.4563 C   0  0  0  0  0  0  0  0  0  0  0  0
  -16.6801  -28.5100   23.8832 C   0  0  0  0  0  0  0  0  0  0  0  0
  -18.9683  -29.3748   22.5556 C   0  0  0  0  0  0  0  0  0  0  0  0
  -25.0763  -27.6123   19.2536 C   0  0  0  0  0  0  0  0  0  0  0  0
  -25.0869  -12.2539   21.6791 C   0  0  0  0  0  0  0  0  0  0  0  0
  -24.4702  -13.1841   19.5364 C   0  0  0  0  0  0  0  0  0  0  0  0
  -26.4567  -27.7377   19.4035 C   0  0  0  0  0  0  0  0  0  0  0  0
  -22.2273  -10.0916   22.2808 C   0  0  0  0  0  0  0  0  0  0  0  0
  -22.2083   -8.7594   22.6937 C   0  0  0  0  0  0  0  0  0  0  0  0
  -26.4559  -25.8644   20.9232 C   0  0  0  0  0  0  0  0  0  0  0  0
  -23.5995   -8.1566   20.8126 C   0  0  0  0  0  0  0  0  0  0  0  0
  -28.4045  -22.2080   16.2012 C   0  0  0  0  0  0  0  0  0  0  0  0
  -26.6363  -13.6739   20.4876 C   0  0  0  0  0  0  0  0  0  0  0  0
  -29.0997  -13.8206   19.8412 C   0  0  0  0  0  0  0  0  0  0  0  0
  -17.9021  -27.8627   24.1254 C   0  0  0  0  0  0  0  0  0  0  0  0
  -24.3726  -26.6171   19.9471 C   0  0  0  0  0  0  0  0  0  0  0  0
  -19.0626  -28.3055   23.4625 C   0  0  0  0  0  0  0  0  0  0  0  0
  -25.0670  -25.7267   20.7784 C   0  0  0  0  0  0  0  0  0  0  0  0
  -28.9144  -23.4763   16.3900 C   0  0  0  0  0  0  0  0  0  0  0  0
  -24.1593  -12.4007   20.6478 C   0  0  0  0  0  0  0  0  0  0  0  0
  -27.1463  -26.8656   20.2406 C   0  0  0  0  0  0  0  0  0  0  0  0
  -22.9323  -10.4563   21.1338 C   0  0  0  0  0  0  0  0  0  0  0  0
  -22.8945   -7.7919   21.9596 C   0  0  0  0  0  0  0  0  0  0  0  0
  -23.6184   -9.4888   20.3997 C   0  0  0  0  0  0  0  0  0  0  0  0
  -27.9153  -14.3322   20.4045 C   0  0  0  0  0  0  0  0  0  0  0  0
  -29.4615  -23.7208   17.6331 C   0  0  0  0  0  0  0  0  0  0  0  0
  -30.0219  -14.8243   20.0106 C   0  0  0  0  0  0  0  0  0  0  0  0
  -28.9825  -21.6062   18.3156 C   0  0  0  0  0  0  0  0  0  0  0  0
  -29.3444  -12.5516   19.2203 C   0  0  0  0  0  0  0  0  0  0  0  0
  -22.0653  -26.6113   22.1335 C   0  0  0  0  0  0  0  0  0  0  0  0
  -22.1591  -23.4037   21.6594 C   0  0  0  0  0  0  0  0  0  0  0  0
  -23.9424  -20.6754   20.6480 C   0  0  0  0  0  0  0  0  0  0  0  0
  -29.5418  -20.7493   20.6177 C   0  0  0  0  0  0  0  0  0  0  0  0
  -17.9456  -26.7517   25.1444 C   0  0  0  0  0  0  0  0  0  0  0  0
  -22.8874  -26.4780   19.7539 C   0  0  0  0  0  0  0  0  0  0  0  0
  -24.3610  -24.6285   21.5294 C   0  0  0  0  0  0  0  0  0  0  0  0
  -19.2073  -25.8966   25.0597 C   0  0  0  0  0  0  0  0  0  0  0  0
  -31.0762  -18.4919   22.9039 C   0  0  0  0  0  0  0  0  0  0  0  0
  -20.4452  -26.7811   24.9492 C   0  0  0  0  0  0  0  0  0  0  0  0
  -30.5523  -17.1218   22.4673 C   0  0  0  0  0  0  0  0  0  0  0  0
  -30.0123  -19.5786   22.7584 C   0  0  0  0  0  0  0  0  0  0  0  0
  -28.8677  -18.2958   20.9939 C   0  0  0  0  0  0  0  0  0  0  0  0
  -20.4019  -27.6340   23.6755 C   0  0  1  0  0  0  0  0  0  0  0  0
  -22.2001  -25.7536   20.9072 C   0  0  1  0  0  0  0  0  0  0  0  0
  -29.9240  -17.1807   21.0612 C   0  0  2  0  0  0  0  0  0  0  0  0
  -23.7653  -18.1834   20.4111 C   0  0  0  0  0  0  0  0  0  0  0  0
  -31.9994  -24.7714   19.2156 C   0  0  0  0  0  0  0  0  0  0  0  0
  -22.5103  -23.0944   24.6746 C   0  0  0  0  0  0  0  0  0  0  0  0
  -23.2674  -20.7417   24.2748 C   0  0  0  0  0  0  0  0  0  0  0  0
  -20.9595  -21.4341   23.6292 C   0  0  0  0  0  0  0  0  0  0  0  0
  -24.3619  -20.8075   17.7213 C   0  0  0  0  0  0  0  0  0  0  0  0
  -30.6191  -26.8776   19.2785 C   0  0  0  0  0  0  0  0  0  0  0  0
  -29.2263  -27.4995   19.2774 C   0  0  0  0  0  0  0  0  0  1  0  0
  -22.9260  -22.2549   22.2687 C   0  0  1  0  0  0  0  0  0  0  0  0
  -23.5872  -19.5269   19.7211 C   0  0  2  0  0  0  0  0  0  0  0  0
  -30.5903  -25.3516   19.1470 C   0  0  1  0  0  0  0  0  0  0  0  0
  -22.4291  -21.9031   23.6993 C   0  0  0  0  0  0  0  0  0  0  0  0
  -28.4220  -21.2447   17.1458 N   0  0  0  0  0  0  0  0  0  0  0  0
  -28.0683  -15.5650   20.8951 N   0  0  0  0  0  0  0  0  0  0  0  0
  -29.5123  -22.8055   18.6230 N   0  0  0  0  0  0  0  0  0  0  0  0
  -29.3597  -15.8365   20.6408 N   0  0  0  0  0  0  0  0  0  0  0  0
  -22.9077  -24.5373   21.3125 N   0  0  0  0  0  0  0  0  0  0  0  0
  -29.4652  -19.5776   21.4000 N   0  0  0  0  0  0  0  0  0  0  0  0
  -28.8671  -24.4334   15.3679 N   0  0  0  0  0  0  0  0  0  0  0  0
  -31.3266  -14.9309   19.6806 N   0  0  0  0  0  0  0  0  0  0  0  0
  -28.2861  -11.6374   19.1289 N   0  0  0  0  0  0  0  0  0  0  0  0
  -29.9899  -24.9744   17.8845 N   0  0  0  0  0  0  0  0  0  0  0  0
  -29.0183  -20.6193   19.3317 N   0  0  0  0  0  0  0  0  0  0  0  0
  -20.7584  -26.8371   22.5213 N   0  0  0  0  0  0  0  0  0  0  0  0
  -22.8352  -21.1531   21.3168 N   0  0  0  0  0  0  0  0  0  0  0  0
  -24.4549  -19.5517   18.5096 N   0  3  0  0  0  0  0  0  0  0  0  0
  -30.4725  -12.2314   18.7750 O   0  0  0  0  0  0  0  0  0  0  0  0
  -23.0726  -27.0356   22.6877 O   0  0  0  0  0  0  0  0  0  0  0  0
  -20.9418  -23.2963   21.4908 O   0  0  0  0  0  0  0  0  0  0  0  0
  -25.0881  -21.1033   20.7697 O   0  0  0  0  0  0  0  0  0  0  0  0
  -30.0600  -21.7834   21.0468 O   0  0  0  0  0  0  0  0  0  0  0  0
  -22.9507  -11.7794   20.7256 O   0  0  0  0  0  0  0  0  0  0  0  0
  -28.4936  -26.9862   20.3892 O   0  0  0  0  0  0  0  0  0  1  0  0
  -22.8775   -6.5129   22.3571 F   0  0  0  0  0  0  0  0  0  0  0  0
  -24.2984   -9.8334   19.2976 F   0  0  0  0  0  0  0  0  0  0  0  0
  1  2  1  0  0  0  0
  1  5  2  0  0  0  0
  2  6  2  0  0  0  0
  3  8  2  0  0  0  0
  3 16  1  0  0  0  0
  4  9  1  0  0  0  0
  4 16  2  0  0  0  0
  5 18  1  0  0  0  0
  6 20  1  0  0  0  0
  7 10  2  0  0  0  0
  7 19  1  0  0  0  0
  8 23  1  0  0  0  0
  9 23  2  0  0  0  0
 10 24  1  0  0  0  0
 11 12  2  0  0  0  0
 11 25  1  0  0  0  0
 12 26  1  0  0  0  0
 13 21  1  0  0  0  0
 13 24  2  0  0  0  0
 14 26  2  0  0  0  0
 14 27  1  0  0  0  0
 15 22  1  0  0  0  0
 15 61  2  0  0  0  0
 16 28  1  0  0  0  0
 17 28  1  0  0  0  0
 17 30  2  0  0  0  0
 17 32  1  0  0  0  0
 18 20  2  0  0  0  0
 18 37  1  0  0  0  0
 19 21  2  0  0  0  0
 19 38  1  0  0  0  0
 20 46  1  0  0  0  0
 21 39  1  0  0  0  0
 22 29  2  0  0  0  0
 22 67  1  0  0  0  0
 23 80  1  0  0  0  0
 24 81  1  0  0  0  0
 25 27  2  0  0  0  0
 25 80  1  0  0  0  0
 26 82  1  0  0  0  0
 27 83  1  0  0  0  0
 28 62  2  0  0  0  0
 29 63  1  0  0  0  0
 29 70  1  0  0  0  0
 30 64  1  0  0  0  0
 30 68  1  0  0  0  0
 31 61  1  0  0  0  0
 31 63  2  0  0  0  0
 31 71  1  0  0  0  0
 32 69  1  0  0  0  0
 32 75  2  0  0  0  0
 33 47  1  0  0  0  0
 33 72  1  0  0  0  0
 33 76  2  0  0  0  0
 34 57  1  0  0  0  0
 34 65  1  0  0  0  0
 34 77  2  0  0  0  0
 35 58  1  0  0  0  0
 35 73  1  0  0  0  0
 35 78  2  0  0  0  0
 36 66  1  0  0  0  0
 36 71  1  0  0  0  0
 36 79  2  0  0  0  0
 37 40  1  0  0  0  0
 38 47  1  0  0  0  0
 39 65  1  0  0  0  0
 40 42  1  0  0  0  0
 41 43  1  0  0  0  0
 41 44  1  0  0  0  0
 42 46  1  0  0  0  0
 43 48  1  0  0  0  0
 44 66  1  0  0  0  0
 45 48  1  0  0  0  0
 45 66  1  0  0  0  0
 46 72  1  0  0  0  0
 47 65  1  0  0  0  0
 48 64  1  0  0  0  0
 49 58  1  0  0  0  0
 50 59  1  0  0  0  0
 51 60  1  0  0  0  0
 52 60  1  0  0  0  0
 53 60  1  0  0  0  0
 54 74  1  0  0  0  0
 55 56  1  0  0  0  0
 55 59  1  0  0  0  0
 56 81  1  0  0  0  0
 57 60  1  0  0  0  0
 57 73  1  0  0  0  0
 58 74  1  0  0  0  0
 59 70  1  0  0  0  0
 62 64  1  0  0  0  0
M  CHG  1  74   1
M  ISO  4  36 100  56 101  71 100  81 101
M  END
> <Batch ID>
0196

> <Smiles>
CNC(C)C(=O)NC(C(=O)N1Cc2cc([101O:1][101CH2:1]CC(C)Nc3nc([100NH:0][100C:0](=O)N4CCCC(n5nc(-c6ccc(Oc7ccc(F)cc7F)cc6)c(C(N)=O)c5N)C4)ncc3N)ccc2CC1C(=O)NC1CCCc2ccccc21)C(C)(C)C

> <Shape>
0.279

> <Color>
0.088

> <Negative vol penalty>
0.000

$$$$

  -OEChem-04052305393D

 83 91  0     1  0  0  0  0  0999 V2000
  -18.2590  -32.8546   20.8685 C   0  0  0  0  0  0  0  0  0  0  0  0
  -19.5770  -32.7202   20.4438 C   0  0  0  0  0  0  0  0  0  0  0  0
  -22.9378  -12.9809   19.8121 C   0  0  0  0  0  0  0  0  0  0  0  0
  -22.2752  -14.7711   21.2930 C   0  0  0  0  0  0  0  0  0  0  0  0
  -17.8414  -32.2387   22.0475 C   0  0  0  0  0  0  0  0  0  0  0  0
  -20.4784  -31.9704   21.1986 C   0  0  0  0  0  0  0  0  0  0  0  0
  -25.0734  -28.5184   19.0831 C   0  0  0  0  0  0  0  0  0  0  0  0
  -21.9242  -12.1758   20.3317 C   0  0  0  0  0  0  0  0  0  0  0  0
  -21.2615  -13.9660   21.8126 C   0  0  0  0  0  0  0  0  0  0  0  0
  -26.4413  -28.7546   18.9532 C   0  0  0  0  0  0  0  0  0  0  0  0
  -19.7385   -9.5247   21.5224 C   0  0  0  0  0  0  0  0  0  0  0  0
  -20.0548   -8.2030   21.8367 C   0  0  0  0  0  0  0  0  0  0  0  0
  -26.8260  -27.6519   21.0640 C   0  0  0  0  0  0  0  0  0  0  0  0
  -21.7186   -8.9751   23.4092 C   0  0  0  0  0  0  0  0  0  0  0  0
  -31.2352  -22.6300   19.6650 C   0  0  0  0  0  0  0  0  0  0  0  0
  -23.1134  -14.2785   20.2928 C   0  0  0  0  0  0  0  0  0  0  0  0
  -24.0722  -15.9866   18.6585 C   0  0  0  0  0  0  0  0  0  0  0  0
  -18.7358  -31.4730   22.8121 C   0  0  0  0  0  0  0  0  0  0  0  0
  -24.5695  -27.8556   20.2115 C   0  0  0  0  0  0  0  0  0  0  0  0
  -20.0728  -31.3447   22.3897 C   0  0  0  0  0  0  0  0  0  0  0  0
  -25.4516  -27.4062   21.2045 C   0  0  0  0  0  0  0  0  0  0  0  0
  -21.0860  -12.6684   21.3319 C   0  0  0  0  0  0  0  0  0  0  0  0
  -27.3175  -28.3239   19.9451 C   0  0  0  0  0  0  0  0  0  0  0  0
  -20.4123  -10.5716   22.1515 C   0  0  0  0  0  0  0  0  0  0  0  0
  -21.0448   -7.9282   22.7801 C   0  0  0  0  0  0  0  0  0  0  0  0
  -21.4023  -10.2968   23.0949 C   0  0  0  0  0  0  0  0  0  0  0  0
  -24.1606  -15.1105   19.7568 C   0  0  0  0  0  0  0  0  0  0  0  0
  -30.3618  -23.5057   19.0727 C   0  0  0  0  0  0  0  0  0  0  0  0
  -25.3265  -16.5367   18.5561 C   0  0  0  0  0  0  0  0  0  0  0  0
  -29.5576  -21.1292   19.8463 C   0  0  0  0  0  0  0  0  0  0  0  0
  -22.9559  -16.2773   17.8069 C   0  0  0  0  0  0  0  0  0  0  0  0
  -22.5698  -28.6265   22.5589 C   0  0  0  0  0  0  0  0  0  0  0  0
  -22.9340  -25.5064   23.3681 C   0  0  0  0  0  0  0  0  0  0  0  0
  -24.8477  -22.6837   23.2372 C   0  0  0  0  0  0  0  0  0  0  0  0
  -29.8372  -18.8429   20.8667 C   0  0  0  0  0  0  0  0  0  0  0  0
  -18.2503  -30.8651   24.1041 C   0  0  0  0  0  0  0  0  0  0  0  0
  -23.0942  -27.5848   20.3238 C   0  0  0  0  0  0  0  0  0  0  0  0
  -24.9634  -26.6721   22.4257 C   0  0  0  0  0  0  0  0  0  0  0  0
  -19.1726  -29.7783   24.6504 C   0  0  0  0  0  0  0  0  0  0  0  0
  -29.6678  -15.2865   20.8392 C   0  0  0  0  0  0  0  0  0  0  0  0
  -20.6257  -30.2403   24.6079 C   0  0  0  0  0  0  0  0  0  0  0  0
  -28.2127  -14.9957   20.4648 C   0  0  0  0  0  0  0  0  0  0  0  0
  -29.7874  -16.5161   21.7378 C   0  0  0  0  0  0  0  0  0  0  0  0
  -27.6833  -17.4372   20.8469 C   0  0  0  0  0  0  0  0  0  0  0  0
  -21.0741  -30.5192   23.1681 C   0  0  1  0  0  0  0  0  0  0  0  0
  -22.6366  -27.3551   21.7609 C   0  0  1  0  0  0  0  0  0  0  0  0
  -27.5182  -16.2457   19.8895 C   0  0  2  0  0  0  0  0  0  0  0  0
  -24.9007  -20.3014   24.0241 C   0  0  0  0  0  0  0  0  0  0  0  0
  -29.8115  -25.3717   16.5758 C   0  0  0  0  0  0  0  0  0  0  0  0
  -23.6931  -26.4507   26.1684 C   0  0  0  0  0  0  0  0  0  0  0  0
  -24.6328  -24.1719   26.6066 C   0  0  0  0  0  0  0  0  0  0  0  0
  -22.2027  -24.4432   26.1127 C   0  0  0  0  0  0  0  0  0  0  0  0
  -24.8784  -21.6470   20.4653 C   0  0  0  0  0  0  0  0  0  0  0  0
  -30.8425  -27.5417   19.6457 C   0  0  0  0  0  0  0  0  0  0  0  0
  -30.6244  -27.1380   18.1808 C   0  0  0  0  0  0  0  0  0  0  0  0
  -29.5338  -27.6072   20.4250 C   0  0  0  0  0  0  0  0  0  1  0  0
  -23.8863  -24.7345   24.2492 C   0  0  1  0  0  0  0  0  0  0  0  0
  -24.4990  -21.2450   22.9011 C   0  0  2  0  0  0  0  0  0  0  0  0
  -29.9882  -25.7477   18.0436 C   0  0  2  0  0  0  0  0  0  0  0  0
  -23.6130  -24.9656   25.7623 C   0  0  0  0  0  0  0  0  0  0  0  0
  -30.8501  -21.4101   20.0693 N   0  0  0  0  0  0  0  0  0  0  0  0
  -25.3752  -15.1011   20.3124 N   0  0  0  0  0  0  0  0  0  0  0  0
  -29.0747  -23.1678   18.8750 N   0  0  0  0  0  0  0  0  0  0  0  0
  -28.6553  -21.9478   19.2705 N   0  0  0  0  0  0  0  0  0  0  0  0
  -26.0615  -15.9780   19.5601 N   0  0  0  0  0  0  0  0  0  0  0  0
  -23.5116  -26.4370   22.4928 N   0  0  0  0  0  0  0  0  0  0  0  0
  -29.1102  -17.6619   21.1266 N   0  0  0  0  0  0  0  0  0  0  0  0
  -25.8615  -17.4388   17.7062 N   0  0  0  0  0  0  0  0  0  0  0  0
  -21.7405  -15.6237   18.0520 N   0  0  0  0  0  0  0  0  0  0  0  0
  -30.8226  -24.7490   18.6786 N   0  0  0  0  0  0  0  0  0  0  0  0
  -29.0963  -19.8529   20.2538 N   0  0  0  0  0  0  0  0  0  0  0  0
  -21.3545  -29.2790   22.4770 N   0  0  0  0  0  0  0  0  0  0  0  0
  -23.7904  -23.3402   23.8308 N   0  0  0  0  0  0  0  0  0  0  0  0
  -25.1995  -20.8194   21.6565 N   0  3  0  0  0  0  0  0  0  0  0  0
  -23.0384  -17.0802   16.8467 O   0  0  0  0  0  0  0  0  0  0  0  0
  -23.5479  -28.9878   23.2027 O   0  0  0  0  0  0  0  0  0  0  0  0
  -21.7229  -25.2864   23.4482 O   0  0  0  0  0  0  0  0  0  0  0  0
  -25.9492  -23.1749   23.0004 O   0  0  0  0  0  0  0  0  0  0  0  0
  -31.0360  -18.9406   21.1409 O   0  0  0  0  0  0  0  0  0  0  0  0
  -20.0966  -11.8832   21.8390 O   0  0  0  0  0  0  0  0  0  0  0  0
  -28.6530  -28.5538   19.8212 O   0  0  0  0  0  0  0  0  0  1  0  0
  -21.3473   -6.6590   23.0829 F   0  0  0  0  0  0  0  0  0  0  0  0
  -22.0522  -11.2983   23.7035 F   0  0  0  0  0  0  0  0  0  0  0  0
  1  2  1  0  0  0  0
  1  5  2  0  0  0  0
  2  6  2  0  0  0  0
  3  8  2  0  0  0  0
  3 16  1  0  0  0  0
  4  9  1  0  0  0  0
  4 16  2  0  0  0  0
  5 18  1  0  0  0  0
  6 20  1  0  0  0  0
  7 10  2  0  0  0  0
  7 19  1  0  0  0  0
  8 22  1  0  0  0  0
  9 22  2  0  0  0  0
 10 23  1  0  0  0  0
 11 12  2  0  0  0  0
 11 24  1  0  0  0  0
 12 25  1  0  0  0  0
 13 21  1  0  0  0  0
 13 23  2  0  0  0  0
 14 25  2  0  0  0  0
 14 26  1  0  0  0  0
 15 28  1  0  0  0  0
 15 61  2  0  0  0  0
 16 27  1  0  0  0  0
 17 27  1  0  0  0  0
 17 29  2  0  0  0  0
 17 31  1  0  0  0  0
 18 20  2  0  0  0  0
 18 36  1  0  0  0  0
 19 21  2  0  0  0  0
 19 37  1  0  0  0  0
 20 45  1  0  0  0  0
 21 38  1  0  0  0  0
 22 80  1  0  0  0  0
 23 81  1  0  0  0  0
 24 26  2  0  0  0  0
 24 80  1  0  0  0  0
 25 82  1  0  0  0  0
 26 83  1  0  0  0  0
 27 62  2  0  0  0  0
 28 63  2  0  0  0  0
 28 70  1  0  0  0  0
 29 65  1  0  0  0  0
 29 68  1  0  0  0  0
 30 61  1  0  0  0  0
 30 64  2  0  0  0  0
 30 71  1  0  0  0  0
 31 69  1  0  0  0  0
 31 75  2  0  0  0  0
 32 46  1  0  0  0  0
 32 72  1  0  0  0  0
 32 76  2  0  0  0  0
 33 57  1  0  0  0  0
 33 66  1  0  0  0  0
 33 77  2  0  0  0  0
 34 58  1  0  0  0  0
 34 73  1  0  0  0  0
 34 78  2  0  0  0  0
 35 67  1  0  0  0  0
 35 71  1  0  0  0  0
 35 79  2  0  0  0  0
 36 39  1  0  0  0  0
 37 46  1  0  0  0  0
 38 66  1  0  0  0  0
 39 41  1  0  0  0  0
 40 42  1  0  0  0  0
 40 43  1  0  0  0  0
 41 45  1  0  0  0  0
 42 47  1  0  0  0  0
 43 67  1  0  0  0  0
 44 47  1  0  0  0  0
 44 67  1  0  0  0  0
 45 72  1  0  0  0  0
 46 66  1  0  0  0  0
 47 65  1  0  0  0  0
 48 58  1  0  0  0  0
 49 59  1  0  0  0  0
 50 60  1  0  0  0  0
 51 60  1  0  0  0  0
 52 60  1  0  0  0  0
 53 74  1  0  0  0  0
 54 55  1  0  0  0  0
 54 56  1  0  0  0  0
 55 59  1  0  0  0  0
 56 81  1  0  0  0  0
 57 60  1  0  0  0  0
 57 73  1  0  0  0  0
 58 74  1  0  0  0  0
 59 70  1  0  0  0  0
 62 65  1  0  0  0  0
 63 64  1  0  0  0  0
M  CHG  1  74   1
M  ISO  4  35 100  56 101  71 100  81 101
M  END
> <Batch ID>
0196

> <Smiles>
CNC(C)C(=O)NC(C(=O)N1Cc2cc([101O:1][101CH2:1]CCC(C)Nc3cnc([100NH:0][100C:0](=O)N4CCCC(n5nc(-c6ccc(Oc7ccc(F)cc7F)cc6)c(C(N)=O)c5N)C4)nn3)ccc2CC1C(=O)NC1CCCc2ccccc21)C(C)(C)C

> <Shape>
0.215

> <Color>
0.099

> <Negative vol penalty>
0.000

$$$$

  -OEChem-04052305393D

 82 90  0     1  0  0  0  0  0999 V2000
  -15.9714  -26.7304   22.6990 C   0  0  0  0  0  0  0  0  0  0  0  0
  -17.1404  -26.4281   22.0079 C   0  0  0  0  0  0  0  0  0  0  0  0
  -23.0597   -9.8469   19.9596 C   0  0  0  0  0  0  0  0  0  0  0  0
  -23.8242   -9.8793   22.2512 C   0  0  0  0  0  0  0  0  0  0  0  0
  -15.9392  -26.6303   24.0893 C   0  0  0  0  0  0  0  0  0  0  0  0
  -18.2782  -26.0266   22.7069 C   0  0  0  0  0  0  0  0  0  0  0  0
  -22.4912  -21.9798   20.8685 C   0  0  0  0  0  0  0  0  0  0  0  0
  -22.3166   -8.6965   20.2237 C   0  0  0  0  0  0  0  0  0  0  0  0
  -23.0810   -8.7288   22.5154 C   0  0  0  0  0  0  0  0  0  0  0  0
  -23.7471  -22.1338   20.2830 C   0  0  0  0  0  0  0  0  0  0  0  0
  -19.8542   -7.9373   23.1331 C   0  0  0  0  0  0  0  0  0  0  0  0
  -19.0996   -7.9101   24.3059 C   0  0  0  0  0  0  0  0  0  0  0  0
  -24.7768  -21.9443   22.4563 C   0  0  0  0  0  0  0  0  0  0  0  0
  -20.3428   -5.9811   25.0612 C   0  0  0  0  0  0  0  0  0  0  0  0
  -30.1805  -19.9599   19.0630 C   0  0  0  0  0  0  0  0  0  0  0  0
  -23.8136  -10.4383   20.9733 C   0  0  0  0  0  0  0  0  0  0  0  0
  -24.1548  -12.9620   20.8248 C   0  0  0  0  0  0  0  0  0  0  0  0
  -17.0743  -26.2181   24.8049 C   0  0  0  0  0  0  0  0  0  0  0  0
  -22.3677  -21.8176   22.2559 C   0  0  0  0  0  0  0  0  0  0  0  0
  -18.2615  -25.9222   24.1082 C   0  0  0  0  0  0  0  0  0  0  0  0
  -23.5184  -21.7860   23.0566 C   0  0  0  0  0  0  0  0  0  0  0  0
  -22.3272   -8.1375   21.5016 C   0  0  0  0  0  0  0  0  0  0  0  0
  -24.8900  -22.1190   21.0773 C   0  0  0  0  0  0  0  0  0  0  0  0
  -20.8531   -6.9863   22.9243 C   0  0  0  0  0  0  0  0  0  0  0  0
  -19.3439   -6.9321   25.2699 C   0  0  0  0  0  0  0  0  0  0  0  0
  -21.0974   -6.0082   23.8883 C   0  0  0  0  0  0  0  0  0  0  0  0
  -24.5820  -11.6264   20.7009 C   0  0  0  0  0  0  0  0  0  0  0  0
  -31.3752  -19.2741   19.1458 C   0  0  0  0  0  0  0  0  0  0  0  0
  -29.2032  -19.5662   19.9542 C   0  0  0  0  0  0  0  0  0  0  0  0
  -25.2461  -13.7076   20.4510 C   0  0  0  0  0  0  0  0  0  0  0  0
  -30.5776  -17.9883   20.8421 C   0  0  0  0  0  0  0  0  0  0  0  0
  -22.8851  -13.4822   21.2405 C   0  0  0  0  0  0  0  0  0  0  0  0
  -20.9791  -23.4659   24.5922 C   0  0  0  0  0  0  0  0  0  0  0  0
  -21.8554  -20.9104   26.3878 C   0  0  0  0  0  0  0  0  0  0  0  0
  -23.9454  -18.2457   26.8092 C   0  0  0  0  0  0  0  0  0  0  0  0
  -30.7300  -14.7295   20.6171 C   0  0  0  0  0  0  0  0  0  0  0  0
  -17.0054  -26.1703   26.3108 C   0  0  0  0  0  0  0  0  0  0  0  0
  -21.0076  -21.6260   22.8689 C   0  0  0  0  0  0  0  0  0  0  0  0
  -23.4412  -21.5945   24.5485 C   0  0  0  0  0  0  0  0  0  0  0  0
  -18.1433  -25.3768   26.9478 C   0  0  0  0  0  0  0  0  0  0  0  0
  -29.5880  -12.3186   18.2590 C   0  0  0  0  0  0  0  0  0  0  0  0
  -19.4808  -25.7719   26.3300 C   0  0  0  0  0  0  0  0  0  0  0  0
  -28.1515  -12.0295   18.6981 C   0  0  0  0  0  0  0  0  0  0  0  0
  -30.5075  -12.5528   19.4556 C   0  0  0  0  0  0  0  0  0  0  0  0
  -28.6085  -13.2988   20.8379 C   0  0  0  0  0  0  0  0  0  0  0  0
  -19.5090  -25.4593   24.8290 C   0  0  1  0  0  0  0  0  0  0  0  0
  -20.9648  -21.9828   24.3515 C   0  0  1  0  0  0  0  0  0  0  0  0
  -27.6320  -13.1112   19.6642 C   0  0  2  0  0  0  0  0  0  0  0  0
  -24.4423  -16.3629   28.3921 C   0  0  0  0  0  0  0  0  0  0  0  0
  -23.2162  -22.8711   28.2889 C   0  0  0  0  0  0  0  0  0  0  0  0
  -24.4635  -20.9386   29.2777 C   0  0  0  0  0  0  0  0  0  0  0  0
  -21.9741  -21.0163   29.4165 C   0  0  0  0  0  0  0  0  0  0  0  0
  -23.3599  -16.2042   24.7480 C   0  0  0  0  0  0  0  0  0  0  0  0
  -30.7980  -16.8935   21.8301 C   0  0  0  0  0  0  0  0  0  0  0  0
  -27.6986  -21.2997   18.9761 C   0  0  0  0  0  0  0  0  0  0  0  0
  -26.2758  -21.7961   19.1717 C   0  0  0  0  0  0  0  0  0  1  0  0
  -23.0771  -20.5377   27.1924 C   0  0  1  0  0  0  0  0  0  0  0  0
  -23.6691  -16.7937   27.1554 C   0  0  2  0  0  0  0  0  0  0  0  0
  -23.1844  -21.3465   28.5160 C   0  0  0  0  0  0  0  0  0  0  0  0
  -25.8460  -11.5261   20.2811 N   0  0  0  0  0  0  0  0  0  0  0  0
  -31.6090  -18.2792   20.0266 N   0  0  0  0  0  0  0  0  0  0  0  0
  -29.3682  -18.5804   20.8605 N   0  0  0  0  0  0  0  0  0  0  0  0
  -26.2225  -12.8083   20.1379 N   0  0  0  0  0  0  0  0  0  0  0  0
  -22.0883  -21.4177   25.1016 N   0  0  0  0  0  0  0  0  0  0  0  0
  -29.9586  -13.5909   20.3313 N   0  0  0  0  0  0  0  0  0  0  0  0
  -32.4052  -19.6474   18.2480 N   0  0  0  0  0  0  0  0  0  0  0  0
  -25.4561  -15.0382   20.3629 N   0  0  0  0  0  0  0  0  0  0  0  0
  -21.8740  -12.5767   21.5898 N   0  0  0  0  0  0  0  0  0  0  0  0
  -27.9887  -20.2301   19.9033 N   0  0  0  0  0  0  0  0  0  0  0  0
  -19.7246  -24.0449   24.6112 N   0  0  0  0  0  0  0  0  0  0  0  0
  -23.0178  -19.0920   27.3787 N   0  0  0  0  0  0  0  0  0  0  0  0
  -30.1324  -15.6674   21.4501 N   0  0  0  0  0  0  0  0  0  0  0  0
  -24.0616  -15.9075   26.0234 N   0  3  0  0  0  0  0  0  0  0  0  0
  -22.6487  -14.7134   21.2848 O   0  0  0  0  0  0  0  0  0  0  0  0
  -22.0490  -24.0420   24.7506 O   0  0  0  0  0  0  0  0  0  0  0  0
  -20.7355  -20.7505   26.8795 O   0  0  0  0  0  0  0  0  0  0  0  0
  -24.8919  -18.5945   26.1070 O   0  0  0  0  0  0  0  0  0  0  0  0
  -31.8650  -14.9001   20.1593 O   0  0  0  0  0  0  0  0  0  0  0  0
  -21.6019   -7.0150   21.7598 O   0  0  0  0  0  0  0  0  0  0  0  0
  -26.1170  -22.2697   20.5085 O   0  0  0  0  0  0  0  0  0  1  0  0
  -18.6203   -6.9071   26.3968 F   0  0  0  0  0  0  0  0  0  0  0  0
  -22.0565   -5.0927   23.6938 F   0  0  0  0  0  0  0  0  0  0  0  0
  1  2  1  0  0  0  0
  1  5  2  0  0  0  0
  2  6  2  0  0  0  0
  3  8  2  0  0  0  0
  3 16  1  0  0  0  0
  4  9  1  0  0  0  0
  4 16  2  0  0  0  0
  5 18  1  0  0  0  0
  6 20  1  0  0  0  0
  7 10  2  0  0  0  0
  7 19  1  0  0  0  0
  8 22  1  0  0  0  0
  9 22  2  0  0  0  0
 10 23  1  0  0  0  0
 11 12  2  0  0  0  0
 11 24  1  0  0  0  0
 12 25  1  0  0  0  0
 13 21  1  0  0  0  0
 13 23  2  0  0  0  0
 14 25  2  0  0  0  0
 14 26  1  0  0  0  0
 15 28  2  0  0  0  0
 15 29  1  0  0  0  0
 16 27  1  0  0  0  0
 17 27  1  0  0  0  0
 17 30  2  0  0  0  0
 17 32  1  0  0  0  0
 18 20  2  0  0  0  0
 18 37  1  0  0  0  0
 19 21  2  0  0  0  0
 19 38  1  0  0  0  0
 20 46  1  0  0  0  0
 21 39  1  0  0  0  0
 22 79  1  0  0  0  0
 23 80  1  0  0  0  0
 24 26  2  0  0  0  0
 24 79  1  0  0  0  0
 25 81  1  0  0  0  0
 26 82  1  0  0  0  0
 27 60  2  0  0  0  0
 28 61  1  0  0  0  0
 28 66  1  0  0  0  0
 29 62  2  0  0  0  0
 29 69  1  0  0  0  0
 30 63  1  0  0  0  0
 30 67  1  0  0  0  0
 31 54  1  0  0  0  0
 31 61  2  0  0  0  0
 31 62  1  0  0  0  0
 32 68  1  0  0  0  0
 32 74  2  0  0  0  0
 33 47  1  0  0  0  0
 33 70  1  0  0  0  0
 33 75  2  0  0  0  0
 34 57  1  0  0  0  0
 34 64  1  0  0  0  0
 34 76  2  0  0  0  0
 35 58  1  0  0  0  0
 35 71  1  0  0  0  0
 35 77  2  0  0  0  0
 36 65  1  0  0  0  0
 36 72  1  0  0  0  0
 36 78  2  0  0  0  0
 37 40  1  0  0  0  0
 38 47  1  0  0  0  0
 39 64  1  0  0  0  0
 40 42  1  0  0  0  0
 41 43  1  0  0  0  0
 41 44  1  0  0  0  0
 42 46  1  0  0  0  0
 43 48  1  0  0  0  0
 44 65  1  0  0  0  0
 45 48  1  0  0  0  0
 45 65  1  0  0  0  0
 46 70  1  0  0  0  0
 47 64  1  0  0  0  0
 48 63  1  0  0  0  0
 49 58  1  0  0  0  0
 50 59  1  0  0  0  0
 51 59  1  0  0  0  0
 52 59  1  0  0  0  0
 53 73  1  0  0  0  0
 54 72  1  0  0  0  0
 55 56  1  0  0  0  0
 55 69  1  0  0  0  0
 56 80  1  0  0  0  0
 57 59  1  0  0  0  0
 57 71  1  0  0  0  0
 58 73  1  0  0  0  0
 60 63  1  0  0  0  0
M  CHG  1  73   1
M  ISO  4  36 100  56 101  72 100  80 101
M  END
> <Batch ID>
0196

> <Smiles>
CNC(C)C(=O)NC(C(=O)N1Cc2cc([101O:1][101CH2:1]CNc3cc(N)nc(C[100NH:0][100C:0](=O)N4CCCC(n5nc(-c6ccc(Oc7ccc(F)cc7F)cc6)c(C(N)=O)c5N)C4)n3)ccc2CC1C(=O)NC1CCCc2ccccc21)C(C)(C)C

> <Shape>
0.216

> <Color>
0.185

> <Negative vol penalty>
0.000

$$$$

  -OEChem-04052305393D

 84 93  0     1  0  0  0  0  0999 V2000
  -38.5747  -32.2085   24.1718 C   0  0  0  0  0  0  0  0  0  0  0  0
  -37.5866  -31.2378   24.3015 C   0  0  0  0  0  0  0  0  0  0  0  0
  -23.0765   -9.8661   19.9427 C   0  0  0  0  0  0  0  0  0  0  0  0
  -23.8366   -9.8749   22.2360 C   0  0  0  0  0  0  0  0  0  0  0  0
  -38.8277  -32.7819   22.9263 C   0  0  0  0  0  0  0  0  0  0  0  0
  -36.8503  -30.8406   23.1860 C   0  0  0  0  0  0  0  0  0  0  0  0
  -36.3318  -25.8119   22.8901 C   0  0  0  0  0  0  0  0  0  0  0  0
  -22.3334   -8.7127   20.1935 C   0  0  0  0  0  0  0  0  0  0  0  0
  -23.0934   -8.7215   22.4868 C   0  0  0  0  0  0  0  0  0  0  0  0
  -35.3805  -25.2199   23.7198 C   0  0  0  0  0  0  0  0  0  0  0  0
  -19.8658   -7.9222   23.0901 C   0  0  0  0  0  0  0  0  0  0  0  0
  -19.1090   -7.8825   24.2611 C   0  0  0  0  0  0  0  0  0  0  0  0
  -33.8382  -25.1169   21.8678 C   0  0  0  0  0  0  0  0  0  0  0  0
  -20.3516   -5.9463   24.9986 C   0  0  0  0  0  0  0  0  0  0  0  0
  -23.8282  -10.4472   20.9640 C   0  0  0  0  0  0  0  0  0  0  0  0
  -24.1685  -12.9725   20.8424 C   0  0  0  0  0  0  0  0  0  0  0  0
  -38.1007  -32.3847   21.7931 C   0  0  0  0  0  0  0  0  0  0  0  0
  -36.0391  -26.0711   21.5434 C   0  0  0  0  0  0  0  0  0  0  0  0
  -37.0929  -31.4102   21.9244 C   0  0  0  0  0  0  0  0  0  0  0  0
  -34.7884  -25.7098   21.0225 C   0  0  0  0  0  0  0  0  0  0  0  0
  -22.3418   -8.1404   21.4655 C   0  0  0  0  0  0  0  0  0  0  0  0
  -34.1324  -24.8750   23.2094 C   0  0  0  0  0  0  0  0  0  0  0  0
  -20.8655   -6.9738   22.8733 C   0  0  0  0  0  0  0  0  0  0  0  0
  -19.3519   -6.8946   25.2154 C   0  0  0  0  0  0  0  0  0  0  0  0
  -21.1084   -5.9859   23.8276 C   0  0  0  0  0  0  0  0  0  0  0  0
  -24.5966  -11.6384   20.7055 C   0  0  0  0  0  0  0  0  0  0  0  0
  -25.2602  -13.7224   20.4786 C   0  0  0  0  0  0  0  0  0  0  0  0
  -30.7825  -19.0599   22.9425 C   0  0  0  0  0  0  0  0  0  0  0  0
  -30.5702  -16.9529   21.9022 C   0  0  0  0  0  0  0  0  0  0  0  0
  -22.8978  -13.4878   21.2611 C   0  0  0  0  0  0  0  0  0  0  0  0
  -35.8517  -28.6907   19.7527 C   0  0  0  0  0  0  0  0  0  0  0  0
  -35.4508  -26.5485   17.3501 C   0  0  0  0  0  0  0  0  0  0  0  0
  -34.4951  -23.4157   16.3912 C   0  0  0  0  0  0  0  0  0  0  0  0
  -30.7259  -14.7712   20.6522 C   0  0  0  0  0  0  0  0  0  0  0  0
  -38.3777  -33.0670   20.4769 C   0  0  0  0  0  0  0  0  0  0  0  0
  -37.0856  -26.6858   20.6549 C   0  0  0  0  0  0  0  0  0  0  0  0
  -34.4317  -25.9484   19.5788 C   0  0  0  0  0  0  0  0  0  0  0  0
  -37.8088  -32.3212   19.2726 C   0  0  0  0  0  0  0  0  0  0  0  0
  -29.6126  -12.3554   18.2854 C   0  0  0  0  0  0  0  0  0  0  0  0
  -36.3687  -31.8953   19.5399 C   0  0  0  0  0  0  0  0  0  0  0  0
  -28.1731  -12.0633   18.7153 C   0  0  0  0  0  0  0  0  0  0  0  0
  -31.9170  -20.9000   24.2814 C   0  0  0  0  0  0  0  0  0  0  0  0
  -30.5277  -12.5854   19.4868 C   0  0  0  0  0  0  0  0  0  0  0  0
  -28.6205  -13.3096   20.8679 C   0  0  0  0  0  0  0  0  0  0  0  0
  -29.6687  -22.9488   23.9321 C   0  0  0  0  0  0  0  0  0  0  0  0
  -36.2898  -30.9352   20.7330 C   0  0  1  0  0  0  0  0  0  0  0  0
  -30.5913  -20.3426   23.7318 C   0  0  1  0  0  0  0  0  0  0  0  0
  -36.4976  -27.3738   19.4268 C   0  0  1  0  0  0  0  0  0  0  0  0
  -31.0495  -23.3209   24.4902 C   0  0  1  0  0  0  0  0  0  0  0  0
  -27.6476  -13.1351   19.6903 C   0  0  2  0  0  0  0  0  0  0  0  0
  -31.7494  -22.1334   25.1764 C   0  0  1  0  0  0  0  0  0  0  0  0
  -34.2424  -21.9699   14.3557 C   0  0  0  0  0  0  0  0  0  0  0  0
  -32.9092  -28.0589   16.5957 C   0  0  0  0  0  0  0  0  0  0  0  0
  -32.2220  -26.0786   15.2267 C   0  0  0  0  0  0  0  0  0  0  0  0
  -34.3037  -27.3275   14.6528 C   0  0  0  0  0  0  0  0  0  0  0  0
  -36.4483  -21.4394   17.4100 C   0  0  0  0  0  0  0  0  0  0  0  0
  -31.9440  -23.9702   23.4283 C   0  0  0  0  0  0  0  0  0  1  0  0
  -34.2645  -25.8646   16.7144 C   0  0  1  0  0  0  0  0  0  0  0  0
  -35.1617  -22.3903   15.4919 C   0  0  2  0  0  0  0  0  0  0  0  0
  -33.4306  -26.8295   15.8251 C   0  0  0  0  0  0  0  0  0  0  0  0
  -25.8614  -11.5431   20.2872 N   0  0  0  0  0  0  0  0  0  0  0  0
  -31.8534  -18.7514   22.2427 N   0  0  0  0  0  0  0  0  0  0  0  0
  -31.7285  -17.5160   21.6316 N   0  0  0  0  0  0  0  0  0  0  0  0
  -26.2376  -12.8268   20.1580 N   0  0  0  0  0  0  0  0  0  0  0  0
  -35.4864  -26.5577   18.7517 N   0  0  0  0  0  0  0  0  0  0  0  0
  -29.9682  -13.6164   20.3637 N   0  0  0  0  0  0  0  0  0  0  0  0
  -25.4699  -15.0540   20.4048 N   0  0  0  0  0  0  0  0  0  0  0  0
  -21.8864  -12.5783   21.5991 N   0  0  0  0  0  0  0  0  0  0  0  0
  -30.0781  -15.6963   21.4702 N   0  0  0  0  0  0  0  0  0  0  0  0
  -36.7046  -29.6056   20.3401 N   0  0  0  0  0  0  0  0  0  0  0  0
  -34.7939  -24.7051   16.0046 N   0  0  0  0  0  0  0  0  0  0  0  0
  -35.5280  -21.1758   16.2740 N   0  3  0  0  0  0  0  0  0  0  0  0
  -22.6608  -14.7184   21.3177 O   0  0  0  0  0  0  0  0  0  0  0  0
  -34.6675  -28.8644   19.4894 O   0  0  0  0  0  0  0  0  0  0  0  0
  -36.3176  -27.0496   16.6296 O   0  0  0  0  0  0  0  0  0  0  0  0
  -33.7779  -23.1041   17.3393 O   0  0  0  0  0  0  0  0  0  0  0  0
  -31.8548  -14.9403   20.1844 O   0  0  0  0  0  0  0  0  0  0  0  0
  -31.0062  -21.7464   26.3344 O   0  0  0  0  0  0  0  0  0  0  0  0
  -21.6165   -7.0150   21.7106 O   0  0  0  0  0  0  0  0  0  0  0  0
  -33.2018  -24.2977   24.0173 O   0  0  0  0  0  0  0  0  0  1  0  0
  -18.6260   -6.8576   26.3405 F   0  0  0  0  0  0  0  0  0  0  0  0
  -22.0682   -5.0728   23.6254 F   0  0  0  0  0  0  0  0  0  0  0  0
  -29.5414  -17.8763   22.9172 S   0  0  0  0  0  0  0  0  0  0  0  0
  -29.7068  -21.5899   22.7258 S   0  0  0  0  0  0  0  0  0  0  0  0
  1  2  1  0  0  0  0
  1  5  2  0  0  0  0
  2  6  2  0  0  0  0
  3  8  2  0  0  0  0
  3 15  1  0  0  0  0
  4  9  1  0  0  0  0
  4 15  2  0  0  0  0
  5 17  1  0  0  0  0
  6 19  1  0  0  0  0
  7 10  2  0  0  0  0
  7 18  1  0  0  0  0
  8 21  1  0  0  0  0
  9 21  2  0  0  0  0
 10 22  1  0  0  0  0
 11 12  2  0  0  0  0
 11 23  1  0  0  0  0
 12 24  1  0  0  0  0
 13 20  1  0  0  0  0
 13 22  2  0  0  0  0
 14 24  2  0  0  0  0
 14 25  1  0  0  0  0
 15 26  1  0  0  0  0
 16 26  1  0  0  0  0
 16 27  2  0  0  0  0
 16 30  1  0  0  0  0
 17 19  2  0  0  0  0
 17 35  1  0  0  0  0
 18 20  2  0  0  0  0
 18 36  1  0  0  0  0
 19 46  1  0  0  0  0
 20 37  1  0  0  0  0
 21 79  1  0  0  0  0
 22 80  1  0  0  0  0
 23 25  2  0  0  0  0
 23 79  1  0  0  0  0
 24 81  1  0  0  0  0
 25 82  1  0  0  0  0
 26 61  2  0  0  0  0
 27 64  1  0  0  0  0
 27 67  1  0  0  0  0
 28 47  1  0  0  0  0
 28 62  2  0  0  0  0
 28 83  1  0  0  0  0
 29 63  2  0  0  0  0
 29 69  1  0  0  0  0
 29 83  1  0  0  0  0
 30 68  1  0  0  0  0
 30 73  2  0  0  0  0
 31 48  1  0  0  0  0
 31 70  1  0  0  0  0
 31 74  2  0  0  0  0
 32 58  1  0  0  0  0
 32 65  1  0  0  0  0
 32 75  2  0  0  0  0
 33 59  1  0  0  0  0
 33 71  1  0  0  0  0
 33 76  2  0  0  0  0
 34 66  1  0  0  0  0
 34 69  1  0  0  0  0
 34 77  2  0  0  0  0
 35 38  1  0  0  0  0
 36 48  1  0  0  0  0
 37 65  1  0  0  0  0
 38 40  1  0  0  0  0
 39 41  1  0  0  0  0
 39 43  1  0  0  0  0
 40 46  1  0  0  0  0
 41 50  1  0  0  0  0
 42 47  1  0  0  0  0
 42 51  1  0  0  0  0
 43 66  1  0  0  0  0
 44 50  1  0  0  0  0
 44 66  1  0  0  0  0
 45 49  1  0  0  0  0
 45 84  1  0  0  0  0
 46 70  1  0  0  0  0
 47 84  1  0  0  0  0
 48 65  1  0  0  0  0
 49 51  1  0  0  0  0
 49 57  1  0  0  0  0
 50 64  1  0  0  0  0
 51 78  1  0  0  0  0
 52 59  1  0  0  0  0
 53 60  1  0  0  0  0
 54 60  1  0  0  0  0
 55 60  1  0  0  0  0
 56 72  1  0  0  0  0
 57 80  1  0  0  0  0
 58 60  1  0  0  0  0
 58 71  1  0  0  0  0
 59 72  1  0  0  0  0
 61 64  1  0  0  0  0
 62 63  1  0  0  0  0
M  CHG  1  72   1
M  ISO  4  34 100  57 101  69 100  80 101
M  END
> <Batch ID>
0196

> <Smiles>
CNC(C)C(=O)NC(C(=O)N1Cc2cc([101O:1][101CH2:1]C3CSC(c4nnc([100NH:0][100C:0](=O)N5CCCC(n6nc(-c7ccc(Oc8ccc(F)cc8F)cc7)c(C(N)=O)c6N)C5)s4)CC3O)ccc2CC1C(=O)NC1CCCc2ccccc21)C(C)(C)C

> <Shape>
0.170

> <Color>
0.179

> <Negative vol penalty>
0.000

$$$$

  -OEChem-04052305393D

 89 97  0     1  0  0  0  0  0999 V2000
  -29.3449  -34.3191   20.5846 C   0  0  0  0  0  0  0  0  0  0  0  0
  -30.0499  -33.1907   20.9907 C   0  0  0  0  0  0  0  0  0  0  0  0
  -22.9885   -9.8905   19.9968 C   0  0  0  0  0  0  0  0  0  0  0  0
  -23.7033   -9.9670   22.3034 C   0  0  0  0  0  0  0  0  0  0  0  0
  -27.9715  -34.2376   20.3582 C   0  0  0  0  0  0  0  0  0  0  0  0
  -29.3817  -31.9802   21.1718 C   0  0  0  0  0  0  0  0  0  0  0  0
  -31.5636  -26.3678   20.0558 C   0  0  0  0  0  0  0  0  0  0  0  0
  -22.2154   -8.7631   20.2738 C   0  0  0  0  0  0  0  0  0  0  0  0
  -22.9301   -8.8396   22.5804 C   0  0  0  0  0  0  0  0  0  0  0  0
  -32.1178  -25.3946   20.8861 C   0  0  0  0  0  0  0  0  0  0  0  0
  -23.1607   -5.4939   22.1515 C   0  0  0  0  0  0  0  0  0  0  0  0
  -23.7399   -4.4834   22.9191 C   0  0  0  0  0  0  0  0  0  0  0  0
  -29.9629  -24.3245   21.0604 C   0  0  0  0  0  0  0  0  0  0  0  0
  -29.8105  -17.7099   22.6432 C   0  0  0  0  0  0  0  0  0  0  0  0
  -22.0095   -4.7555   24.5831 C   0  0  0  0  0  0  0  0  0  0  0  0
  -32.3720  -18.4186   21.9237 C   0  0  0  0  0  0  0  0  0  0  0  0
  -23.7325  -10.4925   21.0117 C   0  0  0  0  0  0  0  0  0  0  0  0
  -24.1306  -13.0038   20.8059 C   0  0  0  0  0  0  0  0  0  0  0  0
  -27.2878  -33.0233   20.5273 C   0  0  0  0  0  0  0  0  0  0  0  0
  -30.2002  -26.3327   19.7297 C   0  0  0  0  0  0  0  0  0  0  0  0
  -27.9977  -31.8827   20.9488 C   0  0  0  0  0  0  0  0  0  0  0  0
  -29.3943  -25.2970   20.2236 C   0  0  0  0  0  0  0  0  0  0  0  0
  -30.3272  -18.9356   23.0521 C   0  0  0  0  0  0  0  0  0  0  0  0
  -31.6213  -19.2980   22.6909 C   0  0  0  0  0  0  0  0  0  0  0  0
  -22.1861   -8.2376   21.5656 C   0  0  0  0  0  0  0  0  0  0  0  0
  -31.3169  -24.3744   21.3909 C   0  0  0  0  0  0  0  0  0  0  0  0
  -22.0059   -6.1352   22.5998 C   0  0  0  0  0  0  0  0  0  0  0  0
  -23.1643   -4.1142   24.1348 C   0  0  0  0  0  0  0  0  0  0  0  0
  -21.4303   -5.7660   23.8155 C   0  0  0  0  0  0  0  0  0  0  0  0
  -24.5318  -11.6568   20.7261 C   0  0  0  0  0  0  0  0  0  0  0  0
  -25.2455  -13.7165   20.4377 C   0  0  0  0  0  0  0  0  0  0  0  0
  -30.6070  -16.8708   21.8771 C   0  0  0  0  0  0  0  0  0  0  0  0
  -22.8635  -13.5610   21.1796 C   0  0  0  0  0  0  0  0  0  0  0  0
  -27.7282  -28.2722   20.2108 C   0  0  0  0  0  0  0  0  0  0  0  0
  -26.1828  -26.1346   18.3228 C   0  0  0  0  0  0  0  0  0  0  0  0
  -33.4587  -21.0175   22.7966 C   0  0  0  0  0  0  0  0  0  0  0  0
  -26.0028  -22.9576   17.0895 C   0  0  0  0  0  0  0  0  0  0  0  0
  -30.7283  -14.6547   20.6852 C   0  0  0  0  0  0  0  0  0  0  0  0
  -25.7947  -32.9954   20.3164 C   0  0  0  0  0  0  0  0  0  0  0  0
  -29.6233  -27.3747   18.8111 C   0  0  0  0  0  0  0  0  0  0  0  0
  -27.9292  -25.2028   19.8871 C   0  0  0  0  0  0  0  0  0  0  0  0
  -25.2267  -31.5862   20.1688 C   0  0  0  0  0  0  0  0  0  0  0  0
  -29.6091  -12.1781   18.3850 C   0  0  0  0  0  0  0  0  0  0  0  0
  -25.7886  -30.6682   21.2497 C   0  0  0  0  0  0  0  0  0  0  0  0
  -28.1554  -11.9325   18.7956 C   0  0  0  0  0  0  0  0  0  0  0  0
  -30.5052  -12.4324   19.5958 C   0  0  0  0  0  0  0  0  0  0  0  0
  -28.5875  -13.2470   20.9104 C   0  0  0  0  0  0  0  0  0  0  0  0
  -27.3126  -30.5459   21.1321 C   0  0  1  0  0  0  0  0  0  0  0  0
  -28.1133  -27.5331   18.9606 C   0  0  1  0  0  0  0  0  0  0  0  0
  -27.6345  -13.0502   19.7202 C   0  0  2  0  0  0  0  0  0  0  0  0
  -24.6070  -21.4994   15.5986 C   0  0  0  0  0  0  0  0  0  0  0  0
  -26.4943  -22.9956   24.0547 C   0  0  0  0  0  0  0  0  0  0  0  0
  -26.5518  -21.2279   22.2853 C   0  0  0  0  0  0  0  0  0  0  0  0
  -28.2508  -18.4739   25.3851 C   0  0  0  0  0  0  0  0  0  0  0  0
  -24.0843  -25.8959   20.5249 C   0  0  0  0  0  0  0  0  0  0  0  0
  -23.2767  -23.7935   19.4312 C   0  0  0  0  0  0  0  0  0  0  0  0
  -23.1572  -25.9615   18.2031 C   0  0  0  0  0  0  0  0  0  0  0  0
  -28.2603  -22.4970   15.2320 C   0  0  0  0  0  0  0  0  0  0  0  0
  -33.6603  -22.3952   23.4173 C   0  0  0  0  0  0  0  0  0  0  0  0
  -27.4284  -20.7349   24.6335 C   0  0  0  0  0  0  0  0  0  0  0  0
  -33.2476  -23.5324   22.4951 C   0  0  0  0  0  0  0  0  0  1  0  0
  -25.4057  -24.8627   18.5622 C   0  0  1  0  0  0  0  0  0  0  0  0
  -25.8035  -22.4346   15.6784 C   0  0  2  0  0  0  0  0  0  0  0  0
  -27.2660  -21.7873   23.5163 C   0  0  0  0  0  0  0  0  0  0  0  0
  -28.1893  -19.4643   24.2248 C   0  0  1  0  0  0  0  0  0  0  0  0
  -24.0082  -25.1310   19.1885 C   0  0  0  0  0  0  0  0  0  0  0  0
  -25.8023  -11.5193   20.3374 N   0  0  0  0  0  0  0  0  0  0  0  0
  -26.2091  -12.7892   20.1697 N   0  0  0  0  0  0  0  0  0  0  0  0
  -31.8498  -17.2446   21.5434 N   0  3  0  0  0  0  0  0  0  0  0  0
  -27.4105  -26.2488   18.9902 N   0  0  0  0  0  0  0  0  0  0  0  0
  -29.9513  -13.5065   20.4232 N   0  0  0  0  0  0  0  0  0  0  0  0
  -25.4857  -15.0397   20.3201 N   0  0  0  0  0  0  0  0  0  0  0  0
  -21.8259  -12.6861   21.5294 N   0  0  0  0  0  0  0  0  0  0  0  0
  -32.1855  -20.5342   23.0862 N   0  0  0  0  0  0  0  0  0  0  0  0
  -29.5223  -19.7961   23.8315 N   0  0  0  0  0  0  0  0  0  0  0  0
  -30.0850  -15.6227   21.4557 N   0  0  0  0  0  0  0  0  0  0  0  0
  -27.6658  -29.6440   20.0567 N   0  0  0  0  0  0  0  0  0  0  0  0
  -25.3628  -24.1636   17.2824 N   0  0  0  0  0  0  0  0  0  0  0  0
  -27.0128  -21.6902   15.2263 N   0  3  0  0  0  0  0  0  0  0  0  0
  -22.6526  -14.7975   21.1869 O   0  0  0  0  0  0  0  0  0  0  0  0
  -27.5029  -27.6444   21.2388 O   0  0  0  0  0  0  0  0  0  0  0  0
  -25.7210  -26.9920   17.5657 O   0  0  0  0  0  0  0  0  0  0  0  0
  -34.3349  -20.4615   22.1428 O   0  0  0  0  0  0  0  0  0  0  0  0
  -26.6573  -22.3546   17.9372 O   0  0  0  0  0  0  0  0  0  0  0  0
  -31.8697  -14.7825   20.2348 O   0  0  0  0  0  0  0  0  0  0  0  0
  -21.4316   -7.1376   21.8362 O   0  0  0  0  0  0  0  0  0  0  0  0
  -31.8552  -23.4237   22.2022 O   0  0  0  0  0  0  0  0  0  1  0  0
  -23.7197   -3.1428   24.8710 F   0  0  0  0  0  0  0  0  0  0  0  0
  -20.3202   -6.3776   24.2508 F   0  0  0  0  0  0  0  0  0  0  0  0
  1  2  1  0  0  0  0
  1  5  2  0  0  0  0
  2  6  2  0  0  0  0
  3  8  2  0  0  0  0
  3 17  1  0  0  0  0
  4  9  1  0  0  0  0
  4 17  2  0  0  0  0
  5 19  1  0  0  0  0
  6 21  1  0  0  0  0
  7 10  2  0  0  0  0
  7 20  1  0  0  0  0
  8 25  1  0  0  0  0
  9 25  2  0  0  0  0
 10 26  1  0  0  0  0
 11 12  2  0  0  0  0
 11 27  1  0  0  0  0
 12 28  1  0  0  0  0
 13 22  1  0  0  0  0
 13 26  2  0  0  0  0
 14 23  1  0  0  0  0
 14 32  2  0  0  0  0
 15 28  2  0  0  0  0
 15 29  1  0  0  0  0
 16 24  1  0  0  0  0
 16 69  2  0  0  0  0
 17 30  1  0  0  0  0
 18 30  1  0  0  0  0
 18 31  2  0  0  0  0
 18 33  1  0  0  0  0
 19 21  2  0  0  0  0
 19 39  1  0  0  0  0
 20 22  2  0  0  0  0
 20 40  1  0  0  0  0
 21 48  1  0  0  0  0
 22 41  1  0  0  0  0
 23 24  2  0  0  0  0
 23 75  1  0  0  0  0
 24 74  1  0  0  0  0
 25 86  1  0  0  0  0
 26 87  1  0  0  0  0
 27 29  2  0  0  0  0
 27 86  1  0  0  0  0
 28 88  1  0  0  0  0
 29 89  1  0  0  0  0
 30 67  2  0  0  0  0
 31 68  1  0  0  0  0
 31 72  1  0  0  0  0
 32 69  1  0  0  0  0
 32 76  1  0  0  0  0
 33 73  1  0  0  0  0
 33 80  2  0  0  0  0
 34 49  1  0  0  0  0
 34 77  1  0  0  0  0
 34 81  2  0  0  0  0
 35 62  1  0  0  0  0
 35 70  1  0  0  0  0
 35 82  2  0  0  0  0
 36 59  1  0  0  0  0
 36 74  1  0  0  0  0
 36 83  2  0  0  0  0
 37 63  1  0  0  0  0
 37 78  1  0  0  0  0
 37 84  2  0  0  0  0
 38 71  1  0  0  0  0
 38 76  1  0  0  0  0
 38 85  2  0  0  0  0
 39 42  1  0  0  0  0
 40 49  1  0  0  0  0
 41 70  1  0  0  0  0
 42 44  1  0  0  0  0
 43 45  1  0  0  0  0
 43 46  1  0  0  0  0
 44 48  1  0  0  0  0
 45 50  1  0  0  0  0
 46 71  1  0  0  0  0
 47 50  1  0  0  0  0
 47 71  1  0  0  0  0
 48 77  1  0  0  0  0
 49 70  1  0  0  0  0
 50 68  1  0  0  0  0
 51 63  1  0  0  0  0
 52 64  1  0  0  0  0
 53 64  1  0  0  0  0
 54 65  1  0  0  0  0
 55 66  1  0  0  0  0
 56 66  1  0  0  0  0
 57 66  1  0  0  0  0
 58 79  1  0  0  0  0
 59 61  1  0  0  0  0
 60 64  1  0  0  0  0
 60 65  1  0  0  0  0
 61 87  1  0  0  0  0
 62 66  1  0  0  0  0
 62 78  1  0  0  0  0
 63 79  1  0  0  0  0
 65 75  1  0  0  0  0
 67 68  1  0  0  0  0
M  CHG  2  69   1  79   1
M  ISO  4  38 100  61 101  76 100  87 101
M  END
> <Batch ID>
0196

> <Smiles>
CNC(C)C(=O)NC(C(=O)N1Cc2cc([101O:1][101CH2:1]CC(=O)Nc3cnc([100NH:0][100C:0](=O)N4CCCC(n5nc(-c6ccc(Oc7ccc(F)cc7F)cc6)c(C(N)=O)c5N)C4)cc3NC(C)CC(C)C)ccc2CC1C(=O)NC1CCCc2ccccc21)C(C)(C)C

> <Shape>
0.262

> <Color>
0.187

> <Negative vol penalty>
0.000

$$$$

  -OEChem-04052305393D

 81 89  0     1  0  0  0  0  0999 V2000
  -28.7078  -32.6700   22.5319 C   0  0  0  0  0  0  0  0  0  0  0  0
  -28.6928  -31.3383   22.1295 C   0  0  0  0  0  0  0  0  0  0  0  0
  -23.0873   -9.9684   19.8746 C   0  0  0  0  0  0  0  0  0  0  0  0
  -24.0492   -9.6977   22.0743 C   0  0  0  0  0  0  0  0  0  0  0  0
  -27.6129  -33.2046   23.2097 C   0  0  0  0  0  0  0  0  0  0  0  0
  -27.5832  -30.5402   22.4057 C   0  0  0  0  0  0  0  0  0  0  0  0
  -26.1710  -27.7347   18.4334 C   0  0  0  0  0  0  0  0  0  0  0  0
  -22.4318   -8.7447   20.0106 C   0  0  0  0  0  0  0  0  0  0  0  0
  -23.3936   -8.4740   22.2104 C   0  0  0  0  0  0  0  0  0  0  0  0
  -26.9190  -26.5892   18.1647 C   0  0  0  0  0  0  0  0  0  0  0  0
  -20.2803   -7.3865   22.9484 C   0  0  0  0  0  0  0  0  0  0  0  0
  -19.6351   -7.1297   24.1581 C   0  0  0  0  0  0  0  0  0  0  0  0
  -25.2341  -25.2428   19.2450 C   0  0  0  0  0  0  0  0  0  0  0  0
  -21.0398   -5.1932   24.4961 C   0  0  0  0  0  0  0  0  0  0  0  0
  -31.0015  -19.0501   20.5351 C   0  0  0  0  0  0  0  0  0  0  0  0
  -23.8960  -10.4449   20.9064 C   0  0  0  0  0  0  0  0  0  0  0  0
  -24.0899  -12.9783   21.1344 C   0  0  0  0  0  0  0  0  0  0  0  0
  -26.4854  -32.4152   23.4859 C   0  0  0  0  0  0  0  0  0  0  0  0
  -24.9521  -27.6438   19.1206 C   0  0  0  0  0  0  0  0  0  0  0  0
  -26.4728  -31.0644   23.0891 C   0  0  0  0  0  0  0  0  0  0  0  0
  -24.4712  -26.3883   19.5189 C   0  0  0  0  0  0  0  0  0  0  0  0
  -22.5849   -7.9975   21.1785 C   0  0  0  0  0  0  0  0  0  0  0  0
  -26.4520  -25.3434   18.5730 C   0  0  0  0  0  0  0  0  0  0  0  0
  -21.3052   -6.5467   22.5125 C   0  0  0  0  0  0  0  0  0  0  0  0
  -20.0148   -6.0330   24.9320 C   0  0  0  0  0  0  0  0  0  0  0  0
  -21.6849   -5.4501   23.2864 C   0  0  0  0  0  0  0  0  0  0  0  0
  -24.5739  -11.7086   20.7663 C   0  0  0  0  0  0  0  0  0  0  0  0
  -30.2434  -18.3454   21.4466 C   0  0  0  0  0  0  0  0  0  0  0  0
  -25.1032  -13.8426   20.7986 C   0  0  0  0  0  0  0  0  0  0  0  0
  -29.1797  -20.2691   20.4613 C   0  0  0  0  0  0  0  0  0  0  0  0
  -22.8365  -13.3438   21.7269 C   0  0  0  0  0  0  0  0  0  0  0  0
  -23.8432  -28.7677   21.8794 C   0  0  0  0  0  0  0  0  0  0  0  0
  -21.0518  -27.4912   20.8301 C   0  0  0  0  0  0  0  0  0  0  0  0
  -28.3371  -22.3186   19.2683 C   0  0  0  0  0  0  0  0  0  0  0  0
  -19.4762  -25.2115   18.8383 C   0  0  0  0  0  0  0  0  0  0  0  0
  -30.5191  -15.1847   20.6894 C   0  0  0  0  0  0  0  0  0  0  0  0
  -25.3454  -33.0245   24.2628 C   0  0  0  0  0  0  0  0  0  0  0  0
  -24.1442  -28.8859   19.3792 C   0  0  0  0  0  0  0  0  0  0  0  0
  -23.1590  -26.2345   20.2419 C   0  0  0  0  0  0  0  0  0  0  0  0
  -24.0542  -32.2137   24.1863 C   0  0  0  0  0  0  0  0  0  0  0  0
  -29.3005  -13.0959   18.0763 C   0  0  0  0  0  0  0  0  0  0  0  0
  -24.3382  -30.7339   24.4233 C   0  0  0  0  0  0  0  0  0  0  0  0
  -27.9257  -12.6489   18.5763 C   0  0  0  0  0  0  0  0  0  0  0  0
  -30.3089  -13.2029   19.2180 C   0  0  0  0  0  0  0  0  0  0  0  0
  -28.5034  -13.6009   20.8476 C   0  0  0  0  0  0  0  0  0  0  0  0
  -25.2774  -30.1734   23.3484 C   0  0  1  0  0  0  0  0  0  0  0  0
  -23.1653  -28.7314   20.5390 C   0  0  1  0  0  0  0  0  0  0  0  0
  -27.4379  -13.5324   19.7402 C   0  0  2  0  0  0  0  0  0  0  0  0
  -17.1898  -24.3798   18.2236 C   0  0  0  0  0  0  0  0  0  0  0  0
  -20.8918  -25.9820   23.4771 C   0  0  0  0  0  0  0  0  0  0  0  0
  -19.1640  -24.4935   22.4440 C   0  0  0  0  0  0  0  0  0  0  0  0
  -18.7191  -26.9360   22.6872 C   0  0  0  0  0  0  0  0  0  0  0  0
  -19.8347  -25.9740   16.0013 C   0  0  0  0  0  0  0  0  0  0  0  0
  -30.5807  -17.1360   22.2217 C   0  0  0  0  0  0  0  0  0  0  0  0
  -27.0638  -23.1433   19.2374 C   0  0  0  0  0  0  0  0  0  1  0  0
  -20.3791  -26.1452   20.9519 C   0  0  1  0  0  0  0  0  0  0  0  0
  -18.3090  -25.3496   17.8777 C   0  0  2  0  0  0  0  0  0  0  0  0
  -19.8142  -25.8919   22.3782 C   0  0  0  0  0  0  0  0  0  0  0  0
  -30.3931  -20.1532   19.9688 N   0  0  0  0  0  0  0  0  0  0  0  0
  -25.7992  -11.7574   20.2370 N   0  0  0  0  0  0  0  0  0  0  0  0
  -26.0937  -13.0683   20.2700 N   0  0  0  0  0  0  0  0  0  0  0  0
  -22.4086  -27.4792   20.4770 N   0  0  0  0  0  0  0  0  0  0  0  0
  -29.7861  -14.0556   20.2884 N   0  0  0  0  0  0  0  0  0  0  0  0
  -25.2345  -15.1818   20.9067 N   0  0  0  0  0  0  0  0  0  0  0  0
  -21.9092  -12.3308   22.0069 N   0  0  0  0  0  0  0  0  0  0  0  0
  -28.2124  -21.2559   20.1566 N   0  0  0  0  0  0  0  0  0  0  0  0
  -24.5515  -29.9294   22.1204 N   0  0  0  0  0  0  0  0  0  0  0  0
  -19.3760  -26.0930   19.8939 N   0  0  0  0  0  0  0  0  0  0  0  0
  -29.9493  -15.9419   21.7056 N   0  0  0  0  0  0  0  0  0  0  0  0
  -18.7523  -25.0768   16.4812 N   0  3  0  0  0  0  0  0  0  0  0  0
  -22.5408  -14.5352   21.9849 O   0  0  0  0  0  0  0  0  0  0  0  0
  -23.7307  -27.8130   22.6395 O   0  0  0  0  0  0  0  0  0  0  0  0
  -20.3957  -28.5158   21.0336 O   0  0  0  0  0  0  0  0  0  0  0  0
  -29.3074  -22.6087   18.5761 O   0  0  0  0  0  0  0  0  0  0  0  0
  -20.3840  -24.4000   18.6712 O   0  0  0  0  0  0  0  0  0  0  0  0
  -31.5985  -15.4979   20.1760 O   0  0  0  0  0  0  0  0  0  0  0  0
  -21.9453   -6.8035   21.3117 O   0  0  0  0  0  0  0  0  0  0  0  0
  -27.1805  -24.2238   18.3126 O   0  0  0  0  0  0  0  0  0  1  0  0
  -19.3962   -5.7874   26.0943 F   0  0  0  0  0  0  0  0  0  0  0  0
  -22.6696   -4.6404   22.8734 F   0  0  0  0  0  0  0  0  0  0  0  0
  -28.7052  -19.0862   21.6105 S   0  0  0  0  0  0  0  0  0  0  0  0
  1  2  1  0  0  0  0
  1  5  2  0  0  0  0
  2  6  2  0  0  0  0
  3  8  2  0  0  0  0
  3 16  1  0  0  0  0
  4  9  1  0  0  0  0
  4 16  2  0  0  0  0
  5 18  1  0  0  0  0
  6 20  1  0  0  0  0
  7 10  2  0  0  0  0
  7 19  1  0  0  0  0
  8 22  1  0  0  0  0
  9 22  2  0  0  0  0
 10 23  1  0  0  0  0
 11 12  2  0  0  0  0
 11 24  1  0  0  0  0
 12 25  1  0  0  0  0
 13 21  1  0  0  0  0
 13 23  2  0  0  0  0
 14 25  2  0  0  0  0
 14 26  1  0  0  0  0
 15 28  2  0  0  0  0
 15 59  1  0  0  0  0
 16 27  1  0  0  0  0
 17 27  1  0  0  0  0
 17 29  2  0  0  0  0
 17 31  1  0  0  0  0
 18 20  2  0  0  0  0
 18 37  1  0  0  0  0
 19 21  2  0  0  0  0
 19 38  1  0  0  0  0
 20 46  1  0  0  0  0
 21 39  1  0  0  0  0
 22 77  1  0  0  0  0
 23 78  1  0  0  0  0
 24 26  2  0  0  0  0
 24 77  1  0  0  0  0
 25 79  1  0  0  0  0
 26 80  1  0  0  0  0
 27 60  2  0  0  0  0
 28 54  1  0  0  0  0
 28 81  1  0  0  0  0
 29 61  1  0  0  0  0
 29 64  1  0  0  0  0
 30 59  2  0  0  0  0
 30 66  1  0  0  0  0
 30 81  1  0  0  0  0
 31 65  1  0  0  0  0
 31 71  2  0  0  0  0
 32 47  1  0  0  0  0
 32 67  1  0  0  0  0
 32 72  2  0  0  0  0
 33 56  1  0  0  0  0
 33 62  1  0  0  0  0
 33 73  2  0  0  0  0
 34 55  1  0  0  0  0
 34 66  1  0  0  0  0
 34 74  2  0  0  0  0
 35 57  1  0  0  0  0
 35 68  1  0  0  0  0
 35 75  2  0  0  0  0
 36 63  1  0  0  0  0
 36 69  1  0  0  0  0
 36 76  2  0  0  0  0
 37 40  1  0  0  0  0
 38 47  1  0  0  0  0
 39 62  1  0  0  0  0
 40 42  1  0  0  0  0
 41 43  1  0  0  0  0
 41 44  1  0  0  0  0
 42 46  1  0  0  0  0
 43 48  1  0  0  0  0
 44 63  1  0  0  0  0
 45 48  1  0  0  0  0
 45 63  1  0  0  0  0
 46 67  1  0  0  0  0
 47 62  1  0  0  0  0
 48 61  1  0  0  0  0
 49 57  1  0  0  0  0
 50 58  1  0  0  0  0
 51 58  1  0  0  0  0
 52 58  1  0  0  0  0
 53 70  1  0  0  0  0
 54 69  1  0  0  0  0
 55 78  1  0  0  0  0
 56 58  1  0  0  0  0
 56 68  1  0  0  0  0
 57 70  1  0  0  0  0
 60 61  1  0  0  0  0
M  CHG  1  70   1
M  ISO  4  36 100  55 101  69 100  78 101
M  END
> <Batch ID>
0196

> <Smiles>
CNC(C)C(=O)NC(C(=O)N1Cc2cc([101O:1][101CH2:1]C(=O)Nc3ncc(C[100NH:0][100C:0](=O)N4CCCC(n5nc(-c6ccc(Oc7ccc(F)cc7F)cc6)c(C(N)=O)c5N)C4)s3)ccc2CC1C(=O)NC1CCCc2ccccc21)C(C)(C)C

> <Shape>
0.359

> <Color>
0.181

> <Negative vol penalty>
0.000

$$$$

  -OEChem-04052305393D

 82 90  0     1  0  0  0  0  0999 V2000
  -28.4641  -21.6369   27.9480 C   0  0  0  0  0  0  0  0  0  0  0  0
  -28.5890  -22.0993   26.6419 C   0  0  0  0  0  0  0  0  0  0  0  0
  -24.4351   -9.6528   21.0707 C   0  0  0  0  0  0  0  0  0  0  0  0
  -25.0569  -10.4843   23.2522 C   0  0  0  0  0  0  0  0  0  0  0  0
  -27.2028  -21.5402   28.5344 C   0  0  0  0  0  0  0  0  0  0  0  0
  -27.4526  -22.4644   25.9210 C   0  0  0  0  0  0  0  0  0  0  0  0
  -28.0549  -26.8284   23.4234 C   0  0  0  0  0  0  0  0  0  0  0  0
  -24.2006   -8.3915   21.6182 C   0  0  0  0  0  0  0  0  0  0  0  0
  -24.8224   -9.2230   23.7998 C   0  0  0  0  0  0  0  0  0  0  0  0
  -28.7856  -26.7872   22.2368 C   0  0  0  0  0  0  0  0  0  0  0  0
  -21.7637   -6.8601   23.3928 C   0  0  0  0  0  0  0  0  0  0  0  0
  -20.5978   -6.1951   23.0131 C   0  0  0  0  0  0  0  0  0  0  0  0
  -26.7282  -26.7779   20.9773 C   0  0  0  0  0  0  0  0  0  0  0  0
  -21.9224   -4.3796   22.1262 C   0  0  0  0  0  0  0  0  0  0  0  0
  -27.4356  -20.0254   21.5714 C   0  0  0  0  0  0  0  0  0  0  0  0
  -24.8633  -10.6992   21.8877 C   0  0  0  0  0  0  0  0  0  0  0  0
  -24.1817  -13.0549   21.1850 C   0  0  0  0  0  0  0  0  0  0  0  0
  -26.0512  -21.9134   27.8236 C   0  0  0  0  0  0  0  0  0  0  0  0
  -26.6529  -26.8336   23.3962 C   0  0  0  0  0  0  0  0  0  0  0  0
  -26.1746  -22.3713   26.4980 C   0  0  0  0  0  0  0  0  0  0  0  0
  -25.9821  -26.8217   22.1649 C   0  0  0  0  0  0  0  0  0  0  0  0
  -24.3943   -8.1766   22.9828 C   0  0  0  0  0  0  0  0  0  0  0  0
  -28.1223  -26.7591   21.0135 C   0  0  0  0  0  0  0  0  0  0  0  0
  -23.0089   -6.2849   23.1392 C   0  0  0  0  0  0  0  0  0  0  0  0
  -20.6772   -4.9548   22.3798 C   0  0  0  0  0  0  0  0  0  0  0  0
  -23.0882   -5.0446   22.5059 C   0  0  0  0  0  0  0  0  0  0  0  0
  -25.1062  -12.0022   21.3226 C   0  0  0  0  0  0  0  0  0  0  0  0
  -28.4523  -19.3512   20.9279 C   0  0  0  0  0  0  0  0  0  0  0  0
  -24.8992  -14.0671   20.5957 C   0  0  0  0  0  0  0  0  0  0  0  0
  -29.1656  -21.4012   20.6139 C   0  0  0  0  0  0  0  0  0  0  0  0
  -22.7982  -13.1128   21.5569 C   0  0  0  0  0  0  0  0  0  0  0  0
  -24.3811  -24.8886   24.4732 C   0  0  0  0  0  0  0  0  0  0  0  0
  -22.4142  -27.2648   23.4696 C   0  0  0  0  0  0  0  0  0  0  0  0
  -21.9228  -29.9457   21.4158 C   0  0  0  0  0  0  0  0  0  0  0  0
  -29.4969  -17.1812   20.1891 C   0  0  0  0  0  0  0  0  0  0  0  0
  -24.7052  -21.7467   28.4833 C   0  0  0  0  0  0  0  0  0  0  0  0
  -25.8795  -26.9051   24.6843 C   0  0  0  0  0  0  0  0  0  0  0  0
  -24.4785  -26.8464   22.0807 C   0  0  0  0  0  0  0  0  0  0  0  0
  -23.5840  -22.5079   27.7806 C   0  0  0  0  0  0  0  0  0  0  0  0
  -29.5045  -14.0494   18.4952 C   0  0  0  0  0  0  0  0  0  0  0  0
  -23.6473  -22.2805   26.2735 C   0  0  0  0  0  0  0  0  0  0  0  0
  -28.2849  -13.3242   19.0684 C   0  0  0  0  0  0  0  0  0  0  0  0
  -30.2157  -14.8884   19.5554 C   0  0  0  0  0  0  0  0  0  0  0  0
  -28.1348  -15.1040   20.8565 C   0  0  0  0  0  0  0  0  0  0  0  0
  -24.9677  -22.8003   25.6921 C   0  0  1  0  0  0  0  0  0  0  0  0
  -24.4505  -26.3875   24.5528 C   0  0  1  0  0  0  0  0  0  0  0  0
  -27.3480  -14.2974   19.8106 C   0  0  2  0  0  0  0  0  0  0  0  0
  -20.2008  -31.6624   20.7953 C   0  0  0  0  0  0  0  0  0  0  0  0
  -31.3584  -23.9842   17.6866 C   0  0  0  0  0  0  0  0  0  0  0  0
  -20.9032  -25.1621   21.8554 C   0  0  0  0  0  0  0  0  0  0  0  0
  -19.8431  -27.0216   20.5567 C   0  0  0  0  0  0  0  0  0  0  0  0
  -19.4471  -26.8341   23.0124 C   0  0  0  0  0  0  0  0  0  0  0  0
  -23.6662  -32.1758   22.2797 C   0  0  0  0  0  0  0  0  0  0  0  0
  -30.0136  -22.5561   20.1689 C   0  0  0  0  0  0  0  0  0  0  0  0
  -29.3270  -25.4751   17.8623 C   0  0  0  0  0  0  0  0  0  0  0  0
  -28.2273  -26.0571   18.7437 C   0  0  0  0  0  0  0  0  0  1  0  0
  -21.7088  -27.5940   22.1762 C   0  0  1  0  0  0  0  0  0  0  0  0
  -21.3877  -31.3397   21.6896 C   0  0  2  0  0  0  0  0  0  0  0  0
  -30.2317  -24.4756   18.5857 C   0  0  1  0  0  0  0  0  0  0  0  0
  -20.5039  -26.6505   21.9015 C   0  0  0  0  0  0  0  0  0  0  0  0
  -26.3183  -12.3164   20.8578 N   0  0  0  0  0  0  0  0  0  0  0  0
  -29.4449  -20.1386   20.3779 N   0  0  0  0  0  0  0  0  0  0  0  0
  -26.1605  -13.5779   20.4224 N   0  0  0  0  0  0  0  0  0  0  0  0
  -23.7668  -26.9100   23.3680 N   0  0  0  0  0  0  0  0  0  0  0  0
  -29.2669  -15.7893   20.2133 N   0  0  0  0  0  0  0  0  0  0  0  0
  -24.5678  -15.3188   20.2138 N   0  0  0  0  0  0  0  0  0  0  0  0
  -22.2185  -11.9839   22.1516 N   0  0  0  0  0  0  0  0  0  0  0  0
  -28.5107  -17.9397   20.8188 N   0  0  0  0  0  0  0  0  0  0  0  0
  -24.9306  -24.2413   25.5634 N   0  0  0  0  0  0  0  0  0  0  0  0
  -21.3557  -29.0075   22.2521 N   0  0  0  0  0  0  0  0  0  0  0  0
  -22.4485  -32.3583   21.4486 N   0  3  0  0  0  0  0  0  0  0  0  0
  -29.4364  -23.2913   19.0138 N   0  3  0  0  0  0  0  0  0  0  0  0
  -22.0927  -14.1296   21.3524 O   0  0  0  0  0  0  0  0  0  0  0  0
  -23.8659  -24.3587   23.4958 O   0  0  0  0  0  0  0  0  0  0  0  0
  -21.7900  -27.3273   24.5317 O   0  0  0  0  0  0  0  0  0  0  0  0
  -22.7575  -29.7119   20.5445 O   0  0  0  0  0  0  0  0  0  0  0  0
  -30.4814  -17.6665   19.6257 O   0  0  0  0  0  0  0  0  0  0  0  0
  -24.1653   -6.9461   23.5175 O   0  0  0  0  0  0  0  0  0  0  0  0
  -28.8331  -26.7183   19.8538 O   0  0  0  0  0  0  0  0  0  1  0  0
  -19.5575   -4.3156   22.0166 F   0  0  0  0  0  0  0  0  0  0  0  0
  -24.2816   -4.4865   22.2606 F   0  0  0  0  0  0  0  0  0  0  0  0
  -27.7250  -21.7140   21.4925 S   0  0  0  0  0  0  0  0  0  0  0  0
  1  2  1  0  0  0  0
  1  5  2  0  0  0  0
  2  6  2  0  0  0  0
  3  8  2  0  0  0  0
  3 16  1  0  0  0  0
  4  9  1  0  0  0  0
  4 16  2  0  0  0  0
  5 18  1  0  0  0  0
  6 20  1  0  0  0  0
  7 10  2  0  0  0  0
  7 19  1  0  0  0  0
  8 22  1  0  0  0  0
  9 22  2  0  0  0  0
 10 23  1  0  0  0  0
 11 12  2  0  0  0  0
 11 24  1  0  0  0  0
 12 25  1  0  0  0  0
 13 21  1  0  0  0  0
 13 23  2  0  0  0  0
 14 25  2  0  0  0  0
 14 26  1  0  0  0  0
 15 28  2  0  0  0  0
 15 82  1  0  0  0  0
 16 27  1  0  0  0  0
 17 27  1  0  0  0  0
 17 29  2  0  0  0  0
 17 31  1  0  0  0  0
 18 20  2  0  0  0  0
 18 36  1  0  0  0  0
 19 21  2  0  0  0  0
 19 37  1  0  0  0  0
 20 45  1  0  0  0  0
 21 38  1  0  0  0  0
 22 78  1  0  0  0  0
 23 79  1  0  0  0  0
 24 26  2  0  0  0  0
 24 78  1  0  0  0  0
 25 80  1  0  0  0  0
 26 81  1  0  0  0  0
 27 61  2  0  0  0  0
 28 62  1  0  0  0  0
 28 68  1  0  0  0  0
 29 63  1  0  0  0  0
 29 66  1  0  0  0  0
 30 54  1  0  0  0  0
 30 62  2  0  0  0  0
 30 82  1  0  0  0  0
 31 67  1  0  0  0  0
 31 73  2  0  0  0  0
 32 46  1  0  0  0  0
 32 69  1  0  0  0  0
 32 74  2  0  0  0  0
 33 57  1  0  0  0  0
 33 64  1  0  0  0  0
 33 75  2  0  0  0  0
 34 58  1  0  0  0  0
 34 70  1  0  0  0  0
 34 76  2  0  0  0  0
 35 65  1  0  0  0  0
 35 68  1  0  0  0  0
 35 77  2  0  0  0  0
 36 39  1  0  0  0  0
 37 46  1  0  0  0  0
 38 64  1  0  0  0  0
 39 41  1  0  0  0  0
 40 42  1  0  0  0  0
 40 43  1  0  0  0  0
 41 45  1  0  0  0  0
 42 47  1  0  0  0  0
 43 65  1  0  0  0  0
 44 47  1  0  0  0  0
 44 65  1  0  0  0  0
 45 69  1  0  0  0  0
 46 64  1  0  0  0  0
 47 63  1  0  0  0  0
 48 58  1  0  0  0  0
 49 59  1  0  0  0  0
 50 60  1  0  0  0  0
 51 60  1  0  0  0  0
 52 60  1  0  0  0  0
 53 71  1  0  0  0  0
 54 72  1  0  0  0  0
 55 56  1  0  0  0  0
 55 59  1  0  0  0  0
 56 79  1  0  0  0  0
 57 60  1  0  0  0  0
 57 70  1  0  0  0  0
 58 71  1  0  0  0  0
 59 72  1  0  0  0  0
 61 63  1  0  0  0  0
M  CHG  2  71   1  72   1
M  ISO  4  35 100  56 101  68 100  79 101
M  END
> <Batch ID>
0196

> <Smiles>
CNC(C)C(=O)NC(C(=O)N1Cc2cc([101O:1][101CH2:1]CC(C)NCc3nc([100NH:0][100C:0](=O)N4CCCC(n5nc(-c6ccc(Oc7ccc(F)cc7F)cc6)c(C(N)=O)c5N)C4)cs3)ccc2CC1C(=O)NC1CCCc2ccccc21)C(C)(C)C

> <Shape>
0.278

> <Color>
0.140

> <Negative vol penalty>
0.000

$$$$

  -OEChem-04052305393D

 88 96  0     1  0  0  0  0  0999 V2000
  -21.7770  -30.6901   14.3949 C   0  0  0  0  0  0  0  0  0  0  0  0
  -22.9700  -30.2545   14.9627 C   0  0  0  0  0  0  0  0  0  0  0  0
  -23.9159  -10.4327   22.3812 C   0  0  0  0  0  0  0  0  0  0  0  0
  -23.8830   -9.2977   20.2487 C   0  0  0  0  0  0  0  0  0  0  0  0
  -21.0669  -31.7355   14.9838 C   0  0  0  0  0  0  0  0  0  0  0  0
  -23.4541  -30.8648   16.1193 C   0  0  0  0  0  0  0  0  0  0  0  0
  -25.0885  -27.5134   19.5459 C   0  0  0  0  0  0  0  0  0  0  0  0
  -22.7259   -9.7982   22.7373 C   0  0  0  0  0  0  0  0  0  0  0  0
  -22.6930   -8.6631   20.6048 C   0  0  0  0  0  0  0  0  0  0  0  0
  -26.3423  -26.9428   19.3309 C   0  0  0  0  0  0  0  0  0  0  0  0
  -21.7637   -6.7583   23.8625 C   0  0  0  0  0  0  0  0  0  0  0  0
  -21.6786   -6.2112   25.1427 C   0  0  0  0  0  0  0  0  0  0  0  0
  -27.3078  -28.4807   20.9189 C   0  0  0  0  0  0  0  0  0  0  0  0
  -19.8023   -7.6518   25.6338 C   0  0  0  0  0  0  0  0  0  0  0  0
  -29.5288  -21.6425   17.4781 C   0  0  0  0  0  0  0  0  0  0  0  0
  -24.4945  -10.1825   21.1369 C   0  0  0  0  0  0  0  0  0  0  0  0
  -27.0341  -10.3761   20.9936 C   0  0  0  0  0  0  0  0  0  0  0  0
  -21.5376  -32.3524   16.1536 C   0  0  0  0  0  0  0  0  0  0  0  0
  -24.9366  -28.5808   20.4425 C   0  0  0  0  0  0  0  0  0  0  0  0
  -22.7503  -31.9203   16.7236 C   0  0  0  0  0  0  0  0  0  0  0  0
  -26.0506  -29.0613   21.1455 C   0  0  0  0  0  0  0  0  0  0  0  0
  -22.1144   -8.9134   21.8491 C   0  0  0  0  0  0  0  0  0  0  0  0
  -27.4527  -27.4284   20.0152 C   0  0  0  0  0  0  0  0  0  0  0  0
  -20.8680   -7.7523   23.4679 C   0  0  0  0  0  0  0  0  0  0  0  0
  -20.6980   -6.6579   26.0284 C   0  0  0  0  0  0  0  0  0  0  0  0
  -19.8874   -8.1990   24.3536 C   0  0  0  0  0  0  0  0  0  0  0  0
  -25.7235  -10.8380   20.7682 C   0  0  0  0  0  0  0  0  0  0  0  0
  -27.8389  -11.3530   20.4603 C   0  0  0  0  0  0  0  0  0  0  0  0
  -30.6375  -22.3098   17.9553 C   0  0  0  0  0  0  0  0  0  0  0  0
  -30.2454  -20.1242   18.8891 C   0  0  0  0  0  0  0  0  0  0  0  0
  -27.4838   -9.1717   21.6283 C   0  0  0  0  0  0  0  0  0  0  0  0
  -30.3061  -18.8550   19.6534 C   0  0  0  0  0  0  0  0  0  0  0  0
  -23.9898  -31.6047   20.1902 C   0  0  0  0  0  0  0  0  0  0  0  0
  -24.2431  -31.5456   23.4236 C   0  0  0  0  0  0  0  0  0  0  0  0
  -25.6430  -30.1284   26.1946 C   0  0  0  0  0  0  0  0  0  0  0  0
  -29.0849  -16.7056   20.0230 C   0  0  0  0  0  0  0  0  0  0  0  0
  -20.7594  -33.5101   16.7273 C   0  0  0  0  0  0  0  0  0  0  0  0
  -23.5728  -29.1677   20.6833 C   0  0  0  0  0  0  0  0  0  0  0  0
  -25.9373  -30.1921   22.1340 C   0  0  0  0  0  0  0  0  0  0  0  0
  -21.1489  -33.8541   18.1626 C   0  0  0  0  0  0  0  0  0  0  0  0
  -26.7470  -15.3044   17.5314 C   0  0  0  0  0  0  0  0  0  0  0  0
  -22.6667  -33.9034   18.3067 C   0  0  0  0  0  0  0  0  0  0  0  0
  -26.3379  -14.0025   18.2128 C   0  0  0  0  0  0  0  0  0  0  0  0
  -27.0130  -16.4227   18.5384 C   0  0  0  0  0  0  0  0  0  0  0  0
  -27.5936  -14.7427   20.2722 C   0  0  0  0  0  0  0  0  0  0  0  0
  -23.2952  -32.5405   17.9919 C   0  0  1  0  0  0  0  0  0  0  0  0
  -23.6228  -30.5891   21.2350 C   0  0  1  0  0  0  0  0  0  0  0  0
  -27.3745  -13.5980   19.2719 C   0  0  1  0  0  0  0  0  0  0  0  0
  -28.4931  -24.5370   14.1678 C   0  0  0  0  0  0  0  0  0  0  0  0
  -25.6863  -30.3193   28.6964 C   0  0  0  0  0  0  0  0  0  0  0  0
  -32.3209  -26.1353   16.6068 C   0  0  0  0  0  0  0  0  0  0  0  0
  -26.0391  -34.0023   23.2026 C   0  0  0  0  0  0  0  0  0  0  0  0
  -26.7969  -33.5732   25.5500 C   0  0  0  0  0  0  0  0  0  0  0  0
  -24.3977  -34.0762   25.0880 C   0  0  0  0  0  0  0  0  0  0  0  0
  -24.5800  -27.3878   26.5380 C   0  0  0  0  0  0  0  0  0  0  0  0
  -30.0113  -24.5173   14.0356 C   0  0  0  0  0  0  0  0  0  0  0  0
  -30.4195  -26.4279   18.2131 C   0  0  0  0  0  0  0  0  0  0  0  0
  -28.9296  -26.3208   18.5159 C   0  0  0  0  0  0  0  0  0  1  0  0
  -25.3452  -31.8310   24.4150 C   0  0  1  0  0  0  0  0  0  0  0  0
  -25.0316  -29.6487   27.4987 C   0  0  2  0  0  0  0  0  0  0  0  0
  -30.8214  -25.8822   16.8240 C   0  0  2  0  0  0  0  0  0  0  0  0
  -30.4228  -24.3973   16.6056 C   0  0  1  0  0  0  0  0  0  0  0  0
  -30.7382  -23.8319   15.2014 C   0  0  1  0  0  0  0  0  0  0  0  0
  -25.6475  -33.3506   24.5439 C   0  0  0  0  0  0  0  0  0  0  0  0
  -29.3026  -20.3890   18.0121 N   0  0  0  0  0  0  0  0  0  0  0  0
  -25.6929  -12.0167   20.1408 N   0  0  0  0  0  0  0  0  0  0  0  0
  -31.2399  -18.6072   20.5139 N   0  0  0  0  0  0  0  0  0  0  0  0
  -26.9943  -12.3038   19.9674 N   0  0  0  0  0  0  0  0  0  0  0  0
  -24.5836  -30.7368   22.3301 N   0  0  0  0  0  0  0  0  0  0  0  0
  -27.9459  -15.9949   19.5930 N   0  0  0  0  0  0  0  0  0  0  0  0
  -29.1795  -11.4829   20.3697 N   0  0  0  0  0  0  0  0  0  0  0  0
  -26.5236   -8.2770   22.1201 N   0  0  0  0  0  0  0  0  0  0  0  0
  -31.0887  -23.5622   17.5943 N   0  0  0  0  0  0  0  0  0  0  0  0
  -29.2835  -17.9419   19.3883 N   0  0  0  0  0  0  0  0  0  0  0  0
  -23.1287  -31.6368   19.1099 N   0  0  0  0  0  0  0  0  0  0  0  0
  -24.9453  -31.1932   25.6646 N   0  0  0  0  0  0  0  0  0  0  0  0
  -25.1973  -28.1741   27.6369 N   0  3  0  0  0  0  0  0  0  0  0  0
  -28.7012   -8.9048   21.7700 O   0  0  0  0  0  0  0  0  0  0  0  0
  -24.9799  -32.3081   20.3528 O   0  0  0  0  0  0  0  0  0  0  0  0
  -23.1195  -32.0170   23.6161 O   0  0  0  0  0  0  0  0  0  0  0  0
  -26.6419  -29.6127   25.6978 O   0  0  0  0  0  0  0  0  0  0  0  0
  -29.8325  -16.2946   20.9154 O   0  0  0  0  0  0  0  0  0  0  0  0
  -30.3775  -22.4452   15.1717 O   0  0  0  0  0  0  0  0  0  0  0  0
  -20.9533   -8.2940   22.1963 O   0  0  0  0  0  0  0  0  0  0  0  0
  -28.6862  -26.8700   19.8053 O   0  0  0  0  0  0  0  0  0  1  0  0
  -20.6154   -6.1313   27.2572 F   0  0  0  0  0  0  0  0  0  0  0  0
  -19.0234   -9.1527   23.9798 F   0  0  0  0  0  0  0  0  0  0  0  0
  -31.4356  -21.3384   19.1218 S   0  0  0  0  0  0  0  0  0  0  0  0
  1  2  1  0  0  0  0
  1  5  2  0  0  0  0
  2  6  2  0  0  0  0
  3  8  2  0  0  0  0
  3 16  1  0  0  0  0
  4  9  1  0  0  0  0
  4 16  2  0  0  0  0
  5 18  1  0  0  0  0
  6 20  1  0  0  0  0
  7 10  2  0  0  0  0
  7 19  1  0  0  0  0
  8 22  1  0  0  0  0
  9 22  2  0  0  0  0
 10 23  1  0  0  0  0
 11 12  2  0  0  0  0
 11 24  1  0  0  0  0
 12 25  1  0  0  0  0
 13 21  1  0  0  0  0
 13 23  2  0  0  0  0
 14 25  2  0  0  0  0
 14 26  1  0  0  0  0
 15 29  2  0  0  0  0
 15 65  1  0  0  0  0
 16 27  1  0  0  0  0
 17 27  1  0  0  0  0
 17 28  2  0  0  0  0
 17 31  1  0  0  0  0
 18 20  2  0  0  0  0
 18 37  1  0  0  0  0
 19 21  2  0  0  0  0
 19 38  1  0  0  0  0
 20 46  1  0  0  0  0
 21 39  1  0  0  0  0
 22 84  1  0  0  0  0
 23 85  1  0  0  0  0
 24 26  2  0  0  0  0
 24 84  1  0  0  0  0
 25 86  1  0  0  0  0
 26 87  1  0  0  0  0
 27 66  2  0  0  0  0
 28 68  1  0  0  0  0
 28 71  1  0  0  0  0
 29 73  1  0  0  0  0
 29 88  1  0  0  0  0
 30 32  1  0  0  0  0
 30 65  2  0  0  0  0
 30 88  1  0  0  0  0
 31 72  1  0  0  0  0
 31 78  2  0  0  0  0
 32 67  2  0  0  0  0
 32 74  1  0  0  0  0
 33 47  1  0  0  0  0
 33 75  1  0  0  0  0
 33 79  2  0  0  0  0
 34 59  1  0  0  0  0
 34 69  1  0  0  0  0
 34 80  2  0  0  0  0
 35 60  1  0  0  0  0
 35 76  1  0  0  0  0
 35 81  2  0  0  0  0
 36 70  1  0  0  0  0
 36 74  1  0  0  0  0
 36 82  2  0  0  0  0
 37 40  1  0  0  0  0
 38 47  1  0  0  0  0
 39 69  1  0  0  0  0
 40 42  1  0  0  0  0
 41 43  1  0  0  0  0
 41 44  1  0  0  0  0
 42 46  1  0  0  0  0
 43 48  1  0  0  0  0
 44 70  1  0  0  0  0
 45 48  1  0  0  0  0
 45 70  1  0  0  0  0
 46 75  1  0  0  0  0
 47 69  1  0  0  0  0
 48 68  1  0  0  0  0
 49 56  1  0  0  0  0
 50 60  1  0  0  0  0
 51 61  1  0  0  0  0
 52 64  1  0  0  0  0
 53 64  1  0  0  0  0
 54 64  1  0  0  0  0
 55 77  1  0  0  0  0
 56 63  1  0  0  0  0
 57 58  1  0  0  0  0
 57 61  1  0  0  0  0
 58 85  1  0  0  0  0
 59 64  1  0  0  0  0
 59 76  1  0  0  0  0
 60 77  1  0  0  0  0
 61 62  1  0  0  0  0
 62 63  1  0  0  0  0
 62 73  1  0  0  0  0
 63 83  1  0  0  0  0
 66 68  1  0  0  0  0
M  CHG  1  77   1
M  ISO  4  36 100  58 101  74 100  85 101
M  END
> <Batch ID>
0196

> <Smiles>
CCC(=O)C(Nc1cnc(C(N)[100NH:0][100C:0](=O)N2CCCC(n3nc(-c4ccc(Oc5ccc(F)cc5F)cc4)c(C(N)=O)c3N)C2)s1)C(C)C[101CH2:1][101O:1]c1ccc2c(c1)CN(C(=O)C(NC(=O)C(C)NC)C(C)(C)C)C(C(=O)NC1CCCc3ccccc31)C2

> <Shape>
0.274

> <Color>
0.089

> <Negative vol penalty>
0.000

$$$$

  -OEChem-04052305393D

 81 89  0     1  0  0  0  0  0999 V2000
  -22.3463  -20.2250   23.5054 C   0  0  0  0  0  0  0  0  0  0  0  0
  -23.6805  -20.5511   23.2843 C   0  0  0  0  0  0  0  0  0  0  0  0
  -25.1060  -13.4231   21.7409 C   0  0  0  0  0  0  0  0  0  0  0  0
  -26.2609  -12.9144   19.6807 C   0  0  0  0  0  0  0  0  0  0  0  0
  -21.3378  -21.0732   23.0499 C   0  0  0  0  0  0  0  0  0  0  0  0
  -24.0071  -21.7252   22.6066 C   0  0  0  0  0  0  0  0  0  0  0  0
  -28.8528  -25.3319   23.6149 C   0  0  0  0  0  0  0  0  0  0  0  0
  -24.6513  -12.1064   21.8112 C   0  0  0  0  0  0  0  0  0  0  0  0
  -25.8062  -11.5976   19.7510 C   0  0  0  0  0  0  0  0  0  0  0  0
  -30.0906  -25.4384   22.9823 C   0  0  0  0  0  0  0  0  0  0  0  0
  -25.8823   -9.0913   22.7205 C   0  0  0  0  0  0  0  0  0  0  0  0
  -25.9678   -8.4408   23.9514 C   0  0  0  0  0  0  0  0  0  0  0  0
  -29.2435  -27.2581   21.6443 C   0  0  0  0  0  0  0  0  0  0  0  0
  -23.5714   -8.1341   23.9558 C   0  0  0  0  0  0  0  0  0  0  0  0
  -25.9107  -13.8272   20.6756 C   0  0  0  0  0  0  0  0  0  0  0  0
  -27.5725  -15.7056   21.1423 C   0  0  0  0  0  0  0  0  0  0  0  0
  -21.6524  -22.2631   22.3747 C   0  0  0  0  0  0  0  0  0  0  0  0
  -27.7959  -26.1820   23.2587 C   0  0  0  0  0  0  0  0  0  0  0  0
  -23.0019  -22.5894   22.1404 C   0  0  0  0  0  0  0  0  0  0  0  0
  -27.9940  -27.1621   22.2757 C   0  0  0  0  0  0  0  0  0  0  0  0
  -25.0015  -11.1936   20.8163 C   0  0  0  0  0  0  0  0  0  0  0  0
  -30.2853  -26.3997   21.9948 C   0  0  0  0  0  0  0  0  0  0  0  0
  -24.6413   -9.2632   22.1072 C   0  0  0  0  0  0  0  0  0  0  0  0
  -24.8124   -7.9622   24.5690 C   0  0  0  0  0  0  0  0  0  0  0  0
  -23.4859   -8.7846   22.7248 C   0  0  0  0  0  0  0  0  0  0  0  0
  -26.3802  -15.1874   20.6021 C   0  0  0  0  0  0  0  0  0  0  0  0
  -32.8932  -25.8075   19.5469 C   0  0  0  0  0  0  0  0  0  0  0  0
  -31.6962  -25.7541   20.2298 C   0  0  0  0  0  0  0  0  0  1  0  0
  -27.5538  -17.0362   20.8022 C   0  0  0  0  0  0  0  0  0  0  0  0
  -31.2208  -24.3421   18.6206 C   0  0  0  0  0  0  0  0  0  0  0  0
  -28.6047  -15.0433   21.8850 C   0  0  0  0  0  0  0  0  0  0  0  0
  -24.8950  -25.7606   22.0294 C   0  0  0  0  0  0  0  0  0  0  0  0
  -24.6245  -28.9459   22.5801 C   0  0  0  0  0  0  0  0  0  0  0  0
  -29.2858  -22.9050   17.8901 C   0  0  0  0  0  0  0  0  0  0  0  0
  -26.1783  -31.9530   23.0159 C   0  0  0  0  0  0  0  0  0  0  0  0
  -26.6770  -21.0943   17.0728 C   0  0  0  0  0  0  0  0  0  0  0  0
  -20.5269  -23.1247   21.8595 C   0  0  0  0  0  0  0  0  0  0  0  0
  -26.4748  -26.0719   23.9693 C   0  0  0  0  0  0  0  0  0  0  0  0
  -26.8978  -28.1123   21.8710 C   0  0  0  0  0  0  0  0  0  0  0  0
  -20.9656  -24.5365   21.4792 C   0  0  0  0  0  0  0  0  0  0  0  0
  -23.8500  -19.8886   18.8704 C   0  0  0  0  0  0  0  0  0  0  0  0
  -22.2401  -24.4922   20.6422 C   0  0  0  0  0  0  0  0  0  0  0  0
  -24.3528  -18.5983   19.5201 C   0  0  0  0  0  0  0  0  0  0  0  0
  -24.4490  -20.0911   17.4803 C   0  0  0  0  0  0  0  0  0  0  0  0
  -26.4245  -18.7434   18.0760 C   0  0  0  0  0  0  0  0  0  0  0  0
  -23.3967  -23.8665   21.4310 C   0  0  1  0  0  0  0  0  0  0  0  0
  -25.3141  -26.6500   23.1656 C   0  0  1  0  0  0  0  0  0  0  0  0
  -25.8914  -18.5240   19.5022 C   0  0  2  0  0  0  0  0  0  0  0  0
  -34.1171  -26.5855   19.8269 C   0  0  0  0  0  0  0  0  0  0  0  0
  -25.6914  -34.3831   23.4092 C   0  0  0  0  0  0  0  0  0  0  0  0
  -23.8264  -29.2574   19.6516 C   0  0  0  0  0  0  0  0  0  0  0  0
  -24.2800  -31.7107   19.8613 C   0  0  0  0  0  0  0  0  0  0  0  0
  -22.4985  -30.6505   21.2486 C   0  0  0  0  0  0  0  0  0  0  0  0
  -27.6252  -31.9444   25.5976 C   0  0  0  0  0  0  0  0  0  0  0  0
  -28.9752  -21.9685   16.7368 C   0  0  0  0  0  0  0  0  0  0  0  0
  -24.9259  -30.1967   21.7905 C   0  0  1  0  0  0  0  0  0  0  0  0
  -25.9925  -33.0411   24.0580 C   0  0  2  0  0  0  0  0  0  0  0  0
  -23.9030  -30.4348   20.6440 C   0  0  0  0  0  0  0  0  0  0  0  0
  -25.6567  -16.1134   19.9673 N   0  0  0  0  0  0  0  0  0  0  0  0
  -30.7358  -24.9145   19.7001 N   0  0  0  0  0  0  0  0  0  0  0  0
  -26.3963  -17.2268   20.1064 N   0  0  0  0  0  0  0  0  0  0  0  0
  -25.6223  -27.9609   22.5905 N   0  0  0  0  0  0  0  0  0  0  0  0
  -25.9107  -20.0107   17.5329 N   0  0  0  0  0  0  0  0  0  0  0  0
  -28.4146  -18.0500   21.0336 N   0  0  0  0  0  0  0  0  0  0  0  0
  -28.4658  -13.6733   22.1463 N   0  0  0  0  0  0  0  0  0  0  0  0
  -30.5966  -23.4437   17.7963 N   0  0  0  0  0  0  0  0  0  0  0  0
  -23.9413  -24.8213   22.3723 N   0  0  0  0  0  0  0  0  0  0  0  0
  -25.0000  -31.2839   22.7605 N   0  0  0  0  0  0  0  0  0  0  0  0
  -28.0547  -20.9385   17.1641 N   0  0  0  0  0  0  0  0  0  0  0  0
  -27.2253  -33.1840   24.8831 N   0  3  0  0  0  0  0  0  0  0  0  0
  -29.6122  -15.6519   22.3186 O   0  0  0  0  0  0  0  0  0  0  0  0
  -25.3986  -25.9161   20.9230 O   0  0  0  0  0  0  0  0  0  0  0  0
  -23.5465  -28.8494   23.1718 O   0  0  0  0  0  0  0  0  0  0  0  0
  -28.4610  -23.1651   18.7603 O   0  0  0  0  0  0  0  0  0  0  0  0
  -27.2596  -31.7223   22.4792 O   0  0  0  0  0  0  0  0  0  0  0  0
  -26.1707  -22.1263   16.6195 O   0  0  0  0  0  0  0  0  0  0  0  0
  -24.5582   -9.9085   20.8848 O   0  0  0  0  0  0  0  0  0  0  0  0
  -31.4923  -26.5053   21.3753 O   0  0  0  0  0  0  0  0  0  1  0  0
  -24.8948   -7.3362   25.7504 F   0  0  0  0  0  0  0  0  0  0  0  0
  -22.2910   -8.9458   22.1400 F   0  0  0  0  0  0  0  0  0  0  0  0
  -32.8246  -24.7689   18.1840 S   0  0  0  0  0  0  0  0  0  0  0  0
  1  2  1  0  0  0  0
  1  5  2  0  0  0  0
  2  6  2  0  0  0  0
  3  8  2  0  0  0  0
  3 15  1  0  0  0  0
  4  9  1  0  0  0  0
  4 15  2  0  0  0  0
  5 17  1  0  0  0  0
  6 19  1  0  0  0  0
  7 10  2  0  0  0  0
  7 18  1  0  0  0  0
  8 21  1  0  0  0  0
  9 21  2  0  0  0  0
 10 22  1  0  0  0  0
 11 12  2  0  0  0  0
 11 23  1  0  0  0  0
 12 24  1  0  0  0  0
 13 20  1  0  0  0  0
 13 22  2  0  0  0  0
 14 24  2  0  0  0  0
 14 25  1  0  0  0  0
 15 26  1  0  0  0  0
 16 26  1  0  0  0  0
 16 29  2  0  0  0  0
 16 31  1  0  0  0  0
 17 19  2  0  0  0  0
 17 37  1  0  0  0  0
 18 20  2  0  0  0  0
 18 38  1  0  0  0  0
 19 46  1  0  0  0  0
 20 39  1  0  0  0  0
 21 77  1  0  0  0  0
 22 78  1  0  0  0  0
 23 25  2  0  0  0  0
 23 77  1  0  0  0  0
 24 79  1  0  0  0  0
 25 80  1  0  0  0  0
 26 59  2  0  0  0  0
 27 28  2  0  0  0  0
 27 49  1  0  0  0  0
 27 81  1  0  0  0  0
 28 60  1  0  0  0  0
 28 78  1  0  0  0  0
 29 61  1  0  0  0  0
 29 64  1  0  0  0  0
 30 60  2  0  0  0  0
 30 66  1  0  0  0  0
 30 81  1  0  0  0  0
 31 65  1  0  0  0  0
 31 71  2  0  0  0  0
 32 47  1  0  0  0  0
 32 67  1  0  0  0  0
 32 72  2  0  0  0  0
 33 56  1  0  0  0  0
 33 62  1  0  0  0  0
 33 73  2  0  0  0  0
 34 55  1  0  0  0  0
 34 66  1  0  0  0  0
 34 74  2  0  0  0  0
 35 57  1  0  0  0  0
 35 68  1  0  0  0  0
 35 75  2  0  0  0  0
 36 63  1  0  0  0  0
 36 69  1  0  0  0  0
 36 76  2  0  0  0  0
 37 40  1  0  0  0  0
 38 47  1  0  0  0  0
 39 62  1  0  0  0  0
 40 42  1  0  0  0  0
 41 43  1  0  0  0  0
 41 44  1  0  0  0  0
 42 46  1  0  0  0  0
 43 48  1  0  0  0  0
 44 63  1  0  0  0  0
 45 48  1  0  0  0  0
 45 63  1  0  0  0  0
 46 67  1  0  0  0  0
 47 62  1  0  0  0  0
 48 61  1  0  0  0  0
 50 57  1  0  0  0  0
 51 58  1  0  0  0  0
 52 58  1  0  0  0  0
 53 58  1  0  0  0  0
 54 70  1  0  0  0  0
 55 69  1  0  0  0  0
 56 58  1  0  0  0  0
 56 68  1  0  0  0  0
 57 70  1  0  0  0  0
 59 61  1  0  0  0  0
M  CHG  1  70   1
M  ISO  4  28 101  36 100  69 100  78 101
M  END
> <Batch ID>
0196

> <Smiles>
CNC(C)C(=O)NC(C(=O)N1Cc2cc([101O:1][101c:1]3nc(NC(=O)C[100NH:0][100C:0](=O)N4CCCC(n5nc(-c6ccc(Oc7ccc(F)cc7F)cc6)c(C(N)=O)c5N)C4)sc3C)ccc2CC1C(=O)NC1CCCc2ccccc21)C(C)(C)C

> <Shape>
0.210

> <Color>
0.071

> <Negative vol penalty>
0.000

$$$$

  -OEChem-04052305393D

 82 90  0     1  0  0  0  0  0999 V2000
  -20.7970  -34.7043   23.3192 C   0  0  0  0  0  0  0  0  0  0  0  0
  -22.0122  -34.1734   22.8987 C   0  0  0  0  0  0  0  0  0  0  0  0
  -24.6158  -12.3756   21.4571 C   0  0  0  0  0  0  0  0  0  0  0  0
  -24.5169  -12.6662   19.0607 C   0  0  0  0  0  0  0  0  0  0  0  0
  -19.8556  -33.8829   23.9380 C   0  0  0  0  0  0  0  0  0  0  0  0
  -22.2872  -32.8209   23.0978 C   0  0  0  0  0  0  0  0  0  0  0  0
  -25.5085  -29.1379   19.4148 C   0  0  0  0  0  0  0  0  0  0  0  0
  -23.7112  -11.3178   21.3662 C   0  0  0  0  0  0  0  0  0  0  0  0
  -23.6123  -11.6083   18.9697 C   0  0  0  0  0  0  0  0  0  0  0  0
  -26.8329  -28.7037   19.4478 C   0  0  0  0  0  0  0  0  0  0  0  0
  -23.7815   -8.0462   20.5149 C   0  0  0  0  0  0  0  0  0  0  0  0
  -24.0617   -6.8893   21.2419 C   0  0  0  0  0  0  0  0  0  0  0  0
  -26.1355  -26.6800   20.5603 C   0  0  0  0  0  0  0  0  0  0  0  0
  -21.9868   -7.1475   22.4525 C   0  0  0  0  0  0  0  0  0  0  0  0
  -25.0186  -13.0498   20.3043 C   0  0  0  0  0  0  0  0  0  0  0  0
  -27.3569  -14.0694   20.3306 C   0  0  0  0  0  0  0  0  0  0  0  0
  -20.1152  -32.5176   24.1361 C   0  0  0  0  0  0  0  0  0  0  0  0
  -24.4872  -28.3500   19.9651 C   0  0  0  0  0  0  0  0  0  0  0  0
  -21.3488  -31.9808   23.7210 C   0  0  0  0  0  0  0  0  0  0  0  0
  -24.7986  -27.1053   20.5307 C   0  0  0  0  0  0  0  0  0  0  0  0
  -23.2094  -10.9341   20.1225 C   0  0  0  0  0  0  0  0  0  0  0  0
  -27.1470  -27.4759   20.0231 C   0  0  0  0  0  0  0  0  0  0  0  0
  -22.6040   -8.7538   20.7566 C   0  0  0  0  0  0  0  0  0  0  0  0
  -23.1644   -6.4399   22.2107 C   0  0  0  0  0  0  0  0  0  0  0  0
  -21.7066   -8.3045   21.7254 C   0  0  0  0  0  0  0  0  0  0  0  0
  -25.9526  -14.1430   20.3977 C   0  0  0  0  0  0  0  0  0  0  0  0
  -27.7759  -15.3699   20.4701 C   0  0  0  0  0  0  0  0  0  0  0  0
  -29.5428  -20.9853   18.0200 C   0  0  0  0  0  0  0  0  0  0  0  0
  -30.6207  -22.8682   17.6503 C   0  0  0  0  0  0  0  0  0  0  0  0
  -28.2065  -12.9276   20.1575 C   0  0  0  0  0  0  0  0  0  0  0  0
  -22.3925  -28.7220   22.3267 C   0  0  0  0  0  0  0  0  0  0  0  0
  -21.2351  -25.9003   21.2221 C   0  0  0  0  0  0  0  0  0  0  0  0
  -21.8123  -22.9997   19.5191 C   0  0  0  0  0  0  0  0  0  0  0  0
  -27.3484  -20.7837   19.2408 C   0  0  0  0  0  0  0  0  0  0  0  0
  -19.0860  -31.6794   24.8522 C   0  0  0  0  0  0  0  0  0  0  0  0
  -23.0602  -28.8206   19.8976 C   0  0  0  0  0  0  0  0  0  0  0  0
  -23.7364  -26.2127   21.1169 C   0  0  0  0  0  0  0  0  0  0  0  0
  -19.3027  -30.1773   24.6883 C   0  0  0  0  0  0  0  0  0  0  0  0
  -25.2184  -19.5296   21.8034 C   0  0  0  0  0  0  0  0  0  0  0  0
  -20.7674  -29.8207   24.9217 C   0  0  0  0  0  0  0  0  0  0  0  0
  -25.3350  -18.0104   21.6606 C   0  0  0  0  0  0  0  0  0  0  0  0
  -25.2471  -20.2307   20.4464 C   0  0  0  0  0  0  0  0  0  0  0  0
  -26.5056  -18.3626   19.4487 C   0  0  0  0  0  0  0  0  0  0  0  0
  -21.6739  -30.5133   23.8970 C   0  0  1  0  0  0  0  0  0  0  0  0
  -22.1660  -28.1692   20.9481 C   0  0  1  0  0  0  0  0  0  0  0  0
  -26.5466  -17.6173   20.7928 C   0  0  2  0  0  0  0  0  0  0  0  0
  -21.2975  -20.8048   18.4169 C   0  0  0  0  0  0  0  0  0  0  0  0
  -21.4899  -24.8256   24.0664 C   0  0  0  0  0  0  0  0  0  0  0  0
  -21.2752  -22.5109   23.1366 C   0  0  0  0  0  0  0  0  0  0  0  0
  -19.4020  -24.1372   22.8742 C   0  0  0  0  0  0  0  0  0  0  0  0
  -21.1596  -24.3117   16.9478 C   0  0  0  0  0  0  0  0  0  0  0  0
  -29.7546  -25.0799   18.4145 C   0  0  0  0  0  0  0  0  0  0  0  0
  -29.2943  -27.4850   19.0010 C   0  0  0  0  0  0  0  0  0  1  0  0
  -21.5101  -24.4447   21.5128 C   0  0  1  0  0  0  0  0  0  0  0  0
  -21.0266  -22.3012   18.4239 C   0  0  2  0  0  0  0  0  0  0  0  0
  -30.3718  -26.4311   18.7701 C   0  0  1  0  0  0  0  0  0  0  0  0
  -20.9398  -23.9971   22.8883 C   0  0  0  0  0  0  0  0  0  0  0  0
  -25.5092  -15.3915   20.5669 N   0  0  0  0  0  0  0  0  0  0  0  0
  -29.5440  -22.3038   18.1875 N   0  0  0  0  0  0  0  0  0  0  0  0
  -30.4921  -20.2704   17.3927 N   0  0  0  0  0  0  0  0  0  0  0  0
  -31.6103  -22.2239   17.0091 N   0  0  0  0  0  0  0  0  0  0  0  0
  -31.5051  -20.9289   16.9039 N   0  0  0  0  0  0  0  0  0  0  0  0
  -26.6414  -16.1144   20.6073 N   0  0  0  0  0  0  0  0  0  0  0  0
  -22.3568  -26.7198   21.0326 N   0  0  0  0  0  0  0  0  0  0  0  0
  -26.4243  -19.8130   19.6818 N   0  0  0  0  0  0  0  0  0  0  0  0
  -29.0005  -15.9379   20.4877 N   0  0  0  0  0  0  0  0  0  0  0  0
  -27.6113  -11.6651   20.0297 N   0  0  0  0  0  0  0  0  0  0  0  0
  -28.4445  -20.2653   18.5520 N   0  0  0  0  0  0  0  0  0  0  0  0
  -30.7344  -24.2439   17.7576 N   0  0  0  0  0  0  0  0  0  0  0  0
  -21.6162  -29.8256   22.6249 N   0  0  0  0  0  0  0  0  0  0  0  0
  -20.9859  -23.6952   20.3762 N   0  0  0  0  0  0  0  0  0  0  0  0
  -21.3964  -22.8520   17.0894 N   0  3  0  0  0  0  0  0  0  0  0  0
  -29.4571  -13.0219   20.1338 O   0  0  0  0  0  0  0  0  0  0  0  0
  -23.2100  -28.1861   23.0658 O   0  0  0  0  0  0  0  0  0  0  0  0
  -20.0679  -26.2942   21.1581 O   0  0  0  0  0  0  0  0  0  0  0  0
  -23.0362  -22.9318   19.6077 O   0  0  0  0  0  0  0  0  0  0  0  0
  -27.1937  -21.9837   19.4817 O   0  0  0  0  0  0  0  0  0  0  0  0
  -31.1181  -26.2995   19.9817 O   0  0  0  0  0  0  0  0  0  0  0  0
  -22.3268   -9.9018   20.0334 O   0  0  0  0  0  0  0  0  0  0  0  0
  -28.4390  -27.0499   20.0572 O   0  0  0  0  0  0  0  0  0  1  0  0
  -23.4329   -5.3281   22.9078 F   0  0  0  0  0  0  0  0  0  0  0  0
  -20.5732   -8.9794   21.9613 F   0  0  0  0  0  0  0  0  0  0  0  0
  1  2  1  0  0  0  0
  1  5  2  0  0  0  0
  2  6  2  0  0  0  0
  3  8  2  0  0  0  0
  3 15  1  0  0  0  0
  4  9  1  0  0  0  0
  4 15  2  0  0  0  0
  5 17  1  0  0  0  0
  6 19  1  0  0  0  0
  7 10  2  0  0  0  0
  7 18  1  0  0  0  0
  8 21  1  0  0  0  0
  9 21  2  0  0  0  0
 10 22  1  0  0  0  0
 11 12  2  0  0  0  0
 11 23  1  0  0  0  0
 12 24  1  0  0  0  0
 13 20  1  0  0  0  0
 13 22  2  0  0  0  0
 14 24  2  0  0  0  0
 14 25  1  0  0  0  0
 15 26  1  0  0  0  0
 16 26  1  0  0  0  0
 16 27  2  0  0  0  0
 16 30  1  0  0  0  0
 17 19  2  0  0  0  0
 17 35  1  0  0  0  0
 18 20  2  0  0  0  0
 18 36  1  0  0  0  0
 19 44  1  0  0  0  0
 20 37  1  0  0  0  0
 21 79  1  0  0  0  0
 22 80  1  0  0  0  0
 23 25  2  0  0  0  0
 23 79  1  0  0  0  0
 24 81  1  0  0  0  0
 25 82  1  0  0  0  0
 26 58  2  0  0  0  0
 27 63  1  0  0  0  0
 27 66  1  0  0  0  0
 28 59  1  0  0  0  0
 28 60  2  0  0  0  0
 28 68  1  0  0  0  0
 29 59  2  0  0  0  0
 29 61  1  0  0  0  0
 29 69  1  0  0  0  0
 30 67  1  0  0  0  0
 30 73  2  0  0  0  0
 31 45  1  0  0  0  0
 31 70  1  0  0  0  0
 31 74  2  0  0  0  0
 32 54  1  0  0  0  0
 32 64  1  0  0  0  0
 32 75  2  0  0  0  0
 33 55  1  0  0  0  0
 33 71  1  0  0  0  0
 33 76  2  0  0  0  0
 34 65  1  0  0  0  0
 34 68  1  0  0  0  0
 34 77  2  0  0  0  0
 35 38  1  0  0  0  0
 36 45  1  0  0  0  0
 37 64  1  0  0  0  0
 38 40  1  0  0  0  0
 39 41  1  0  0  0  0
 39 42  1  0  0  0  0
 40 44  1  0  0  0  0
 41 46  1  0  0  0  0
 42 65  1  0  0  0  0
 43 46  1  0  0  0  0
 43 65  1  0  0  0  0
 44 70  1  0  0  0  0
 45 64  1  0  0  0  0
 46 63  1  0  0  0  0
 47 55  1  0  0  0  0
 48 57  1  0  0  0  0
 49 57  1  0  0  0  0
 50 57  1  0  0  0  0
 51 72  1  0  0  0  0
 52 56  1  0  0  0  0
 52 69  1  0  0  0  0
 53 56  1  0  0  0  0
 53 80  1  0  0  0  0
 54 57  1  0  0  0  0
 54 71  1  0  0  0  0
 55 72  1  0  0  0  0
 56 78  1  0  0  0  0
 58 63  1  0  0  0  0
 60 62  1  0  0  0  0
 61 62  2  0  0  0  0
M  CHG  1  72   1
M  ISO  4  34 100  53 101  68 100  80 101
M  END
> <Batch ID>
0196

> <Smiles>
CNC(C)C(=O)NC(C(=O)N1Cc2cc([101O:1][101CH2:1]C(O)CNc3nnnc([100NH:0][100C:0](=O)N4CCCC(n5nc(-c6ccc(Oc7ccc(F)cc7F)cc6)c(C(N)=O)c5N)C4)n3)ccc2CC1C(=O)NC1CCCc2ccccc21)C(C)(C)C

> <Shape>
0.246

> <Color>
0.083

> <Negative vol penalty>
0.000

$$$$

  -OEChem-04052305393D

 84 92  0     1  0  0  0  0  0999 V2000
  -30.5532  -23.3635   26.5280 C   0  0  0  0  0  0  0  0  0  0  0  0
  -30.5142  -24.0848   25.3391 C   0  0  0  0  0  0  0  0  0  0  0  0
  -26.3869  -12.8266   21.5944 C   0  0  0  0  0  0  0  0  0  0  0  0
  -25.7390  -13.8769   19.5174 C   0  0  0  0  0  0  0  0  0  0  0  0
  -29.5328  -22.4624   26.8292 C   0  0  0  0  0  0  0  0  0  0  0  0
  -29.4552  -23.9045   24.4500 C   0  0  0  0  0  0  0  0  0  0  0  0
  -26.8822  -28.1616   20.8775 C   0  0  0  0  0  0  0  0  0  0  0  0
  -25.1639  -12.1573   21.6374 C   0  0  0  0  0  0  0  0  0  0  0  0
  -24.5160  -13.2076   19.5604 C   0  0  0  0  0  0  0  0  0  0  0  0
  -27.0523  -28.4846   19.5319 C   0  0  0  0  0  0  0  0  0  0  0  0
  -23.7545   -9.4481   20.1858 C   0  0  0  0  0  0  0  0  0  0  0  0
  -23.7691   -8.0914   20.5093 C   0  0  0  0  0  0  0  0  0  0  0  0
  -25.1442  -27.1199   18.9694 C   0  0  0  0  0  0  0  0  0  0  0  0
  -22.3728   -8.5344   22.4305 C   0  0  0  0  0  0  0  0  0  0  0  0
  -29.2149  -23.9555   18.2286 C   0  0  0  0  0  0  0  0  0  0  0  0
  -28.2633  -21.5324   17.6367 C   0  0  0  0  0  0  0  0  0  0  0  0
  -26.6744  -13.6865   20.5344 C   0  0  0  0  0  0  0  0  0  0  0  0
  -29.1308  -13.9320   19.8913 C   0  0  0  0  0  0  0  0  0  0  0  0
  -28.4558  -22.2781   25.9479 C   0  0  0  0  0  0  0  0  0  0  0  0
  -25.8467  -27.3052   21.2785 C   0  0  0  0  0  0  0  0  0  0  0  0
  -28.4201  -22.9991   24.7390 C   0  0  0  0  0  0  0  0  0  0  0  0
  -24.9616  -26.7897   20.3210 C   0  0  0  0  0  0  0  0  0  0  0  0
  -24.2284  -12.3477   20.6204 C   0  0  0  0  0  0  0  0  0  0  0  0
  -26.1850  -27.9614   18.5773 C   0  0  0  0  0  0  0  0  0  0  0  0
  -23.0492  -10.3480   20.9848 C   0  0  0  0  0  0  0  0  0  0  0  0
  -23.0782   -7.6345   21.6316 C   0  0  0  0  0  0  0  0  0  0  0  0
  -22.3583   -9.8911   22.1071 C   0  0  0  0  0  0  0  0  0  0  0  0
  -27.9374  -14.3786   20.4897 C   0  0  0  0  0  0  0  0  0  0  0  0
  -28.6532  -23.6934   16.9984 C   0  0  0  0  0  0  0  0  0  0  0  0
  -28.8256  -21.7941   18.8667 C   0  0  0  0  0  0  0  0  0  0  0  0
  -30.0302  -14.9442   20.1217 C   0  0  0  0  0  0  0  0  0  0  0  0
  -29.4022  -12.7113   19.1899 C   0  0  0  0  0  0  0  0  0  0  0  0
  -28.5467  -24.7275   15.9498 C   0  0  0  0  0  0  0  0  0  0  0  0
  -25.7081  -24.4674   22.7039 C   0  0  0  0  0  0  0  0  0  0  0  0
  -22.5179  -25.0550   22.6975 C   0  0  0  0  0  0  0  0  0  0  0  0
  -19.8786  -26.7043   21.2973 C   0  0  0  0  0  0  0  0  0  0  0  0
  -29.4150  -20.8055   21.1075 C   0  0  0  0  0  0  0  0  0  0  0  0
  -27.4004  -21.2581   26.2947 C   0  0  0  0  0  0  0  0  0  0  0  0
  -25.6605  -26.9879   22.7370 C   0  0  0  0  0  0  0  0  0  0  0  0
  -23.8217  -25.8820   20.7021 C   0  0  0  0  0  0  0  0  0  0  0  0
  -26.1217  -21.4013   25.4733 C   0  0  0  0  0  0  0  0  0  0  0  0
  -31.0118  -18.4435   23.2403 C   0  0  0  0  0  0  0  0  0  0  0  0
  -26.4536  -21.5761   23.9948 C   0  0  0  0  0  0  0  0  0  0  0  0
  -30.5180  -17.0921   22.7186 C   0  0  0  0  0  0  0  0  0  0  0  0
  -29.9223  -19.5119   23.1677 C   0  0  0  0  0  0  0  0  0  0  0  0
  -28.7999  -18.3178   21.3283 C   0  0  0  0  0  0  0  0  0  0  0  0
  -27.2753  -22.8495   23.7606 C   0  0  1  0  0  0  0  0  0  0  0  0
  -24.8851  -25.6954   22.9730 C   0  0  1  0  0  0  0  0  0  0  0  0
  -29.8821  -17.2258   21.3210 C   0  0  2  0  0  0  0  0  0  0  0  0
  -17.3883  -26.9526   21.4826 C   0  0  0  0  0  0  0  0  0  0  0  0
  -22.1492  -22.3502   21.3344 C   0  0  0  0  0  0  0  0  0  0  0  0
  -19.8347  -23.0635   20.7002 C   0  0  0  0  0  0  0  0  0  0  0  0
  -20.4611  -22.8640   23.1066 C   0  0  0  0  0  0  0  0  0  0  0  0
  -20.0951  -29.5934   21.9015 C   0  0  0  0  0  0  0  0  0  0  0  0
  -28.3013  -27.1179   15.3818 C   0  0  0  0  0  0  0  0  0  0  0  0
  -25.9408  -27.2973   16.3068 C   0  0  0  0  0  0  0  0  0  1  0  0
  -21.3825  -24.7818   21.7409 C   0  0  1  0  0  0  0  0  0  0  0  0
  -18.7408  -27.4948   21.9179 C   0  0  2  0  0  0  0  0  0  0  0  0
  -26.8328  -27.3831   15.0725 C   0  0  2  0  0  0  0  0  0  0  0  0
  -20.9794  -23.2804   21.7128 C   0  0  0  0  0  0  0  0  0  0  0  0
  -28.1671  -22.4773   16.6805 N   0  0  0  0  0  0  0  0  0  0  0  0
  -29.3115  -23.0104   19.1847 N   0  0  0  0  0  0  0  0  0  0  0  0
  -28.0639  -15.5809   21.0576 N   0  0  0  0  0  0  0  0  0  0  0  0
  -29.3474  -15.8983   20.8173 N   0  0  0  0  0  0  0  0  0  0  0  0
  -23.6850  -25.5961   22.1398 N   0  0  0  0  0  0  0  0  0  0  0  0
  -29.3692  -19.5848   21.8136 N   0  0  0  0  0  0  0  0  0  0  0  0
  -31.3305  -15.1023   19.7952 N   0  0  0  0  0  0  0  0  0  0  0  0
  -28.3650  -11.7801   19.0434 N   0  0  0  0  0  0  0  0  0  0  0  0
  -28.5850  -24.3366   14.6759 N   0  0  0  0  0  0  0  0  0  0  0  0
  -28.8889  -20.7455   19.8175 N   0  0  0  0  0  0  0  0  0  0  0  0
  -26.4206  -24.0167   23.7987 N   0  0  0  0  0  0  0  0  0  0  0  0
  -20.3011  -25.6837   22.1226 N   0  0  0  0  0  0  0  0  0  0  0  0
  -28.4195  -26.0049   16.3276 N   0  3  0  0  0  0  0  0  0  0  0  0
  -18.8249  -28.9270   21.5148 N   0  3  0  0  0  0  0  0  0  0  0  0
  -30.5354  -12.4467   18.7216 O   0  0  0  0  0  0  0  0  0  0  0  0
  -25.6963  -23.9652   21.5862 O   0  0  0  0  0  0  0  0  0  0  0  0
  -22.3721  -24.8044   23.8964 O   0  0  0  0  0  0  0  0  0  0  0  0
  -20.3433  -26.9638   20.1895 O   0  0  0  0  0  0  0  0  0  0  0  0
  -29.9110  -21.8220   21.6003 O   0  0  0  0  0  0  0  0  0  0  0  0
  -26.3699  -26.4322   14.1137 O   0  0  0  0  0  0  0  0  0  0  0  0
  -23.0350  -11.6946   20.6619 O   0  0  0  0  0  0  0  0  0  0  0  0
  -26.3491  -28.2745   17.2632 O   0  0  0  0  0  0  0  0  0  1  0  0
  -23.0910   -6.3313   21.9412 F   0  0  0  0  0  0  0  0  0  0  0  0
  -21.6779  -10.7508   22.8778 F   0  0  0  0  0  0  0  0  0  0  0  0
  1  2  1  0  0  0  0
  1  5  2  0  0  0  0
  2  6  2  0  0  0  0
  3  8  2  0  0  0  0
  3 17  1  0  0  0  0
  4  9  1  0  0  0  0
  4 17  2  0  0  0  0
  5 19  1  0  0  0  0
  6 21  1  0  0  0  0
  7 10  2  0  0  0  0
  7 20  1  0  0  0  0
  8 23  1  0  0  0  0
  9 23  2  0  0  0  0
 10 24  1  0  0  0  0
 11 12  2  0  0  0  0
 11 25  1  0  0  0  0
 12 26  1  0  0  0  0
 13 22  1  0  0  0  0
 13 24  2  0  0  0  0
 14 26  2  0  0  0  0
 14 27  1  0  0  0  0
 15 29  1  0  0  0  0
 15 62  2  0  0  0  0
 16 30  2  0  0  0  0
 16 61  1  0  0  0  0
 17 28  1  0  0  0  0
 18 28  1  0  0  0  0
 18 31  2  0  0  0  0
 18 32  1  0  0  0  0
 19 21  2  0  0  0  0
 19 38  1  0  0  0  0
 20 22  2  0  0  0  0
 20 39  1  0  0  0  0
 21 47  1  0  0  0  0
 22 40  1  0  0  0  0
 23 81  1  0  0  0  0
 24 82  1  0  0  0  0
 25 27  2  0  0  0  0
 25 81  1  0  0  0  0
 26 83  1  0  0  0  0
 27 84  1  0  0  0  0
 28 63  2  0  0  0  0
 29 33  1  0  0  0  0
 29 61  2  0  0  0  0
 30 62  1  0  0  0  0
 30 70  1  0  0  0  0
 31 64  1  0  0  0  0
 31 67  1  0  0  0  0
 32 68  1  0  0  0  0
 32 75  2  0  0  0  0
 33 69  1  0  0  0  0
 33 73  2  0  0  0  0
 34 48  1  0  0  0  0
 34 71  1  0  0  0  0
 34 76  2  0  0  0  0
 35 57  1  0  0  0  0
 35 65  1  0  0  0  0
 35 77  2  0  0  0  0
 36 58  1  0  0  0  0
 36 72  1  0  0  0  0
 36 78  2  0  0  0  0
 37 66  1  0  0  0  0
 37 70  1  0  0  0  0
 37 79  2  0  0  0  0
 38 41  1  0  0  0  0
 39 48  1  0  0  0  0
 40 65  1  0  0  0  0
 41 43  1  0  0  0  0
 42 44  1  0  0  0  0
 42 45  1  0  0  0  0
 43 47  1  0  0  0  0
 44 49  1  0  0  0  0
 45 66  1  0  0  0  0
 46 49  1  0  0  0  0
 46 66  1  0  0  0  0
 47 71  1  0  0  0  0
 48 65  1  0  0  0  0
 49 64  1  0  0  0  0
 50 58  1  0  0  0  0
 51 60  1  0  0  0  0
 52 60  1  0  0  0  0
 53 60  1  0  0  0  0
 54 74  1  0  0  0  0
 55 59  1  0  0  0  0
 55 73  1  0  0  0  0
 56 59  1  0  0  0  0
 56 82  1  0  0  0  0
 57 60  1  0  0  0  0
 57 72  1  0  0  0  0
 58 74  1  0  0  0  0
 59 80  1  0  0  0  0
 63 64  1  0  0  0  0
M  CHG  2  73   1  74   1
M  ISO  4  37 100  56 101  70 100  82 101
M  END
> <Batch ID>
0196

> <Smiles>
CNC(C)C(=O)NC(C(=O)N1Cc2cc([101O:1][101CH2:1]C(O)CNC(=N)c3cnc([100NH:0][100C:0](=O)N4CCCC(n5nc(-c6ccc(Oc7ccc(F)cc7F)cc6)c(C(N)=O)c5N)C4)cn3)ccc2CC1C(=O)NC1CCCc2ccccc21)C(C)(C)C

> <Shape>
0.225

> <Color>
0.068

> <Negative vol penalty>
0.000

$$$$

  -OEChem-04052305393D

 84 92  0     1  0  0  0  0  0999 V2000
  -29.2329  -31.6241   27.6888 C   0  0  0  0  0  0  0  0  0  0  0  0
  -28.6423  -30.7082   26.8241 C   0  0  0  0  0  0  0  0  0  0  0  0
  -24.6868   -9.5857   21.7983 C   0  0  0  0  0  0  0  0  0  0  0  0
  -24.2622  -11.0859   23.6438 C   0  0  0  0  0  0  0  0  0  0  0  0
  -28.5860  -32.8246   27.9789 C   0  0  0  0  0  0  0  0  0  0  0  0
  -27.4037  -30.9919   26.2498 C   0  0  0  0  0  0  0  0  0  0  0  0
  -27.2600  -29.9048   21.3059 C   0  0  0  0  0  0  0  0  0  0  0  0
  -24.3500   -8.4985   22.6045 C   0  0  0  0  0  0  0  0  0  0  0  0
  -23.9253   -9.9987   24.4501 C   0  0  0  0  0  0  0  0  0  0  0  0
  -27.1087  -28.5646   20.9528 C   0  0  0  0  0  0  0  0  0  0  0  0
  -23.2542   -5.3583   24.0721 C   0  0  0  0  0  0  0  0  0  0  0  0
  -22.4190   -4.3822   23.5288 C   0  0  0  0  0  0  0  0  0  0  0  0
  -24.7581  -28.9394   20.5613 C   0  0  0  0  0  0  0  0  0  0  0  0
  -20.6945   -6.0417   23.1982 C   0  0  0  0  0  0  0  0  0  0  0  0
  -26.2780  -19.9944   19.9416 C   0  0  0  0  0  0  0  0  0  0  0  0
  -24.6430  -10.8794   22.3179 C   0  0  0  0  0  0  0  0  0  0  0  0
  -24.1262  -12.7589   20.6723 C   0  0  0  0  0  0  0  0  0  0  0  0
  -27.3433  -33.1274   27.4003 C   0  0  0  0  0  0  0  0  0  0  0  0
  -26.1575  -30.7713   21.2998 C   0  0  0  0  0  0  0  0  0  0  0  0
  -26.7389  -32.1970   26.5334 C   0  0  0  0  0  0  0  0  0  0  0  0
  -24.8986  -30.2907   20.9122 C   0  0  0  0  0  0  0  0  0  0  0  0
  -23.9692   -8.7049   23.9304 C   0  0  0  0  0  0  0  0  0  0  0  0
  -25.8571  -28.0810   20.5832 C   0  0  0  0  0  0  0  0  0  0  0  0
  -22.8095   -6.6762   24.1785 C   0  0  0  0  0  0  0  0  0  0  0  0
  -21.1391   -4.7239   23.0918 C   0  0  0  0  0  0  0  0  0  0  0  0
  -21.5297   -7.0179   23.7415 C   0  0  0  0  0  0  0  0  0  0  0  0
  -24.9914  -12.0029   21.4857 C   0  0  0  0  0  0  0  0  0  0  0  0
  -27.0435  -22.0234   19.2161 C   0  0  0  0  0  0  0  0  0  0  0  0
  -27.5676  -19.5102   19.9482 C   0  0  0  0  0  0  0  0  0  0  0  0
  -28.3332  -21.5396   19.2234 C   0  0  0  0  0  0  0  0  0  0  0  0
  -24.9377  -13.7032   20.0925 C   0  0  0  0  0  0  0  0  0  0  0  0
  -22.7150  -12.6201   20.4598 C   0  0  0  0  0  0  0  0  0  0  0  0
  -24.6464  -32.4941   23.5026 C   0  0  0  0  0  0  0  0  0  0  0  0
  -23.0015  -33.6117   20.9398 C   0  0  0  0  0  0  0  0  0  0  0  0
  -21.9346  -33.1075   17.7376 C   0  0  0  0  0  0  0  0  0  0  0  0
  -29.0031  -17.4940   20.4182 C   0  0  0  0  0  0  0  0  0  0  0  0
  -26.6602  -34.4170   27.7809 C   0  0  0  0  0  0  0  0  0  0  0  0
  -26.3426  -32.2205   21.6576 C   0  0  0  0  0  0  0  0  0  0  0  0
  -23.6872  -31.1847   20.8697 C   0  0  0  0  0  0  0  0  0  0  0  0
  -25.5245  -34.8061   26.8380 C   0  0  0  0  0  0  0  0  0  0  0  0
  -29.9832  -14.0975   19.9938 C   0  0  0  0  0  0  0  0  0  0  0  0
  -24.6263  -33.6049   26.5600 C   0  0  0  0  0  0  0  0  0  0  0  0
  -28.7007  -13.3119   20.2772 C   0  0  0  0  0  0  0  0  0  0  0  0
  -30.1100  -15.3217   20.8987 C   0  0  0  0  0  0  0  0  0  0  0  0
  -27.6651  -15.4334   21.1793 C   0  0  0  0  0  0  0  0  0  0  0  0
  -25.4077  -32.4794   25.8713 C   0  0  1  0  0  0  0  0  0  0  0  0
  -25.0510  -32.8935   22.1117 C   0  0  1  0  0  0  0  0  0  0  0  0
  -27.4610  -14.2274   20.2479 C   0  0  2  0  0  0  0  0  0  0  0  0
  -26.4268  -23.5702   17.3134 C   0  0  0  0  0  0  0  0  0  0  0  0
  -20.5754  -34.1815   15.9220 C   0  0  0  0  0  0  0  0  0  0  0  0
  -24.6446  -24.4885   21.7583 C   0  0  0  0  0  0  0  0  0  0  0  0
  -20.4390  -32.8444   22.4077 C   0  0  0  0  0  0  0  0  0  0  0  0
  -19.2164  -33.0408   20.2317 C   0  0  0  0  0  0  0  0  0  0  0  0
  -20.3400  -35.0397   21.2139 C   0  0  0  0  0  0  0  0  0  0  0  0
  -24.2544  -33.2119   15.9028 C   0  0  0  0  0  0  0  0  0  0  0  0
  -26.5846  -25.8334   20.8569 C   0  0  0  0  0  0  0  0  0  1  0  0
  -26.7279  -23.4430   18.8047 C   0  0  1  0  0  0  0  0  0  0  0  0
  -21.7476  -33.1951   20.2098 C   0  0  1  0  0  0  0  0  0  0  0  0
  -21.9654  -34.0037   16.5127 C   0  0  2  0  0  0  0  0  0  0  0  0
  -25.9248  -24.4615   20.9392 C   0  0  2  0  0  0  0  0  0  0  0  0
  -20.4580  -33.5125   21.0183 C   0  0  0  0  0  0  0  0  0  0  0  0
  -25.9928  -21.2597   19.5753 N   0  0  0  0  0  0  0  0  0  0  0  0
  -26.2557  -12.4299   21.4302 N   0  0  0  0  0  0  0  0  0  0  0  0
  -28.6184  -20.2741   19.5893 N   0  0  0  0  0  0  0  0  0  0  0  0
  -26.1909  -13.4645   20.5748 N   0  0  0  0  0  0  0  0  0  0  0  0
  -23.9180  -32.5923   21.2344 N   0  0  0  0  0  0  0  0  0  0  0  0
  -28.9010  -16.1441   20.8160 N   0  0  0  0  0  0  0  0  0  0  0  0
  -29.3928  -22.3905   18.8370 N   0  0  0  0  0  0  0  0  0  0  0  0
  -24.6945  -14.7061   19.2222 N   0  0  0  0  0  0  0  0  0  0  0  0
  -22.0353  -11.5967   21.1344 N   0  0  0  0  0  0  0  0  0  0  0  0
  -27.7840  -18.1671   20.3444 N   0  0  0  0  0  0  0  0  0  0  0  0
  -25.5935  -32.7787   24.4676 N   0  0  0  0  0  0  0  0  0  0  0  0
  -21.8051  -33.8366   18.9007 N   0  0  0  0  0  0  0  0  0  0  0  0
  -22.8500  -33.4193   15.4654 N   0  3  0  0  0  0  0  0  0  0  0  0
  -25.5833  -24.0167   19.5570 N   0  3  0  0  0  0  0  0  0  0  0  0
  -22.0787  -13.3707   19.6819 O   0  0  0  0  0  0  0  0  0  0  0  0
  -23.5550  -31.9680   23.6867 O   0  0  0  0  0  0  0  0  0  0  0  0
  -23.1653  -34.7990   21.2315 O   0  0  0  0  0  0  0  0  0  0  0  0
  -22.0135  -31.8829   17.6691 O   0  0  0  0  0  0  0  0  0  0  0  0
  -30.0889  -18.0070   20.1355 O   0  0  0  0  0  0  0  0  0  0  0  0
  -23.6402   -7.6443   24.7174 O   0  0  0  0  0  0  0  0  0  0  0  0
  -25.7065  -26.7731   20.2387 O   0  0  0  0  0  0  0  0  0  1  0  0
  -20.3378   -3.7867   22.5687 F   0  0  0  0  0  0  0  0  0  0  0  0
  -21.0975   -8.2825   23.8401 F   0  0  0  0  0  0  0  0  0  0  0  0
  1  2  1  0  0  0  0
  1  5  2  0  0  0  0
  2  6  2  0  0  0  0
  3  8  2  0  0  0  0
  3 16  1  0  0  0  0
  4  9  1  0  0  0  0
  4 16  2  0  0  0  0
  5 18  1  0  0  0  0
  6 20  1  0  0  0  0
  7 10  2  0  0  0  0
  7 19  1  0  0  0  0
  8 22  1  0  0  0  0
  9 22  2  0  0  0  0
 10 23  1  0  0  0  0
 11 12  2  0  0  0  0
 11 24  1  0  0  0  0
 12 25  1  0  0  0  0
 13 21  1  0  0  0  0
 13 23  2  0  0  0  0
 14 25  2  0  0  0  0
 14 26  1  0  0  0  0
 15 29  1  0  0  0  0
 15 62  2  0  0  0  0
 16 27  1  0  0  0  0
 17 27  1  0  0  0  0
 17 31  2  0  0  0  0
 17 32  1  0  0  0  0
 18 20  2  0  0  0  0
 18 37  1  0  0  0  0
 19 21  2  0  0  0  0
 19 38  1  0  0  0  0
 20 46  1  0  0  0  0
 21 39  1  0  0  0  0
 22 81  1  0  0  0  0
 23 82  1  0  0  0  0
 24 26  2  0  0  0  0
 24 81  1  0  0  0  0
 25 83  1  0  0  0  0
 26 84  1  0  0  0  0
 27 63  2  0  0  0  0
 28 30  2  0  0  0  0
 28 57  1  0  0  0  0
 28 62  1  0  0  0  0
 29 64  2  0  0  0  0
 29 71  1  0  0  0  0
 30 64  1  0  0  0  0
 30 68  1  0  0  0  0
 31 65  1  0  0  0  0
 31 69  1  0  0  0  0
 32 70  1  0  0  0  0
 32 76  2  0  0  0  0
 33 47  1  0  0  0  0
 33 72  1  0  0  0  0
 33 77  2  0  0  0  0
 34 58  1  0  0  0  0
 34 66  1  0  0  0  0
 34 78  2  0  0  0  0
 35 59  1  0  0  0  0
 35 73  1  0  0  0  0
 35 79  2  0  0  0  0
 36 67  1  0  0  0  0
 36 71  1  0  0  0  0
 36 80  2  0  0  0  0
 37 40  1  0  0  0  0
 38 47  1  0  0  0  0
 39 66  1  0  0  0  0
 40 42  1  0  0  0  0
 41 43  1  0  0  0  0
 41 44  1  0  0  0  0
 42 46  1  0  0  0  0
 43 48  1  0  0  0  0
 44 67  1  0  0  0  0
 45 48  1  0  0  0  0
 45 67  1  0  0  0  0
 46 72  1  0  0  0  0
 47 66  1  0  0  0  0
 48 65  1  0  0  0  0
 49 57  1  0  0  0  0
 50 59  1  0  0  0  0
 51 60  1  0  0  0  0
 52 61  1  0  0  0  0
 53 61  1  0  0  0  0
 54 61  1  0  0  0  0
 55 74  1  0  0  0  0
 56 60  1  0  0  0  0
 56 82  1  0  0  0  0
 57 75  1  0  0  0  0
 58 61  1  0  0  0  0
 58 73  1  0  0  0  0
 59 74  1  0  0  0  0
 60 75  1  0  0  0  0
 63 65  1  0  0  0  0
M  CHG  2  74   1  75   1
M  ISO  4  36 100  56 101  71 100  82 101
M  END
> <Batch ID>
0196

> <Smiles>
CNC(C)C(=O)NC(C(=O)N1Cc2cc([101O:1][101CH2:1]C(C)NC(C)c3ncc([100NH:0][100C:0](=O)N4CCCC(n5nc(-c6ccc(Oc7ccc(F)cc7F)cc6)c(C(N)=O)c5N)C4)nc3N)ccc2CC1C(=O)NC1CCCc2ccccc21)C(C)(C)C

> <Shape>
0.262

> <Color>
0.106

> <Negative vol penalty>
0.000

$$$$

  -OEChem-04052305393D

 84 92  0     1  0  0  0  0  0999 V2000
  -16.5279  -29.1559   23.9609 C   0  0  0  0  0  0  0  0  0  0  0  0
  -17.0040  -28.6851   22.7415 C   0  0  0  0  0  0  0  0  0  0  0  0
  -26.5324  -12.2958   21.1654 C   0  0  0  0  0  0  0  0  0  0  0  0
  -25.4326  -13.4950   19.3795 C   0  0  0  0  0  0  0  0  0  0  0  0
  -17.2494  -30.1193   24.6646 C   0  0  0  0  0  0  0  0  0  0  0  0
  -18.2014  -29.1783   22.2244 C   0  0  0  0  0  0  0  0  0  0  0  0
  -22.3538  -26.0810   18.9579 C   0  0  0  0  0  0  0  0  0  0  0  0
  -25.3401  -11.6321   21.4540 C   0  0  0  0  0  0  0  0  0  0  0  0
  -24.2402  -12.8313   19.6681 C   0  0  0  0  0  0  0  0  0  0  0  0
  -22.5967  -25.9972   17.5876 C   0  0  0  0  0  0  0  0  0  0  0  0
  -23.5652   -9.0412   20.2013 C   0  0  0  0  0  0  0  0  0  0  0  0
  -23.6258   -7.6648   20.4191 C   0  0  0  0  0  0  0  0  0  0  0  0
  -24.2933  -27.7000   17.7902 C   0  0  0  0  0  0  0  0  0  0  0  0
  -22.7373   -7.9778   22.6439 C   0  0  0  0  0  0  0  0  0  0  0  0
  -27.6084  -21.2511   17.4730 C   0  0  0  0  0  0  0  0  0  0  0  0
  -26.5787  -13.2274   20.1281 C   0  0  0  0  0  0  0  0  0  0  0  0
  -28.8163  -13.5041   18.9348 C   0  0  0  0  0  0  0  0  0  0  0  0
  -18.4611  -30.6175   24.1606 C   0  0  0  0  0  0  0  0  0  0  0  0
  -23.0725  -26.9843   19.7542 C   0  0  0  0  0  0  0  0  0  0  0  0
  -18.9391  -30.1503   22.9214 C   0  0  0  0  0  0  0  0  0  0  0  0
  -24.0595  -27.7915   19.1708 C   0  0  0  0  0  0  0  0  0  0  0  0
  -24.1940  -11.8998   20.7054 C   0  0  0  0  0  0  0  0  0  0  0  0
  -23.5645  -26.8088   17.0031 C   0  0  0  0  0  0  0  0  0  0  0  0
  -23.0907   -9.8859   21.2048 C   0  0  0  0  0  0  0  0  0  0  0  0
  -23.2118   -7.1331   21.6404 C   0  0  0  0  0  0  0  0  0  0  0  0
  -22.6767   -9.3542   22.4260 C   0  0  0  0  0  0  0  0  0  0  0  0
  -27.8100  -13.9137   19.8299 C   0  0  0  0  0  0  0  0  0  0  0  0
  -28.7287  -23.6199   17.9839 C   0  0  0  0  0  0  0  0  0  0  0  0
  -27.8847  -23.4499   16.9086 C   0  0  0  0  0  0  0  0  0  0  0  0
  -28.4530  -21.4208   18.5479 C   0  0  0  0  0  0  0  0  0  0  0  0
  -29.7672  -14.4922   19.0115 C   0  0  0  0  0  0  0  0  0  0  0  0
  -28.8854  -12.3349   18.1078 C   0  0  0  0  0  0  0  0  0  0  0  0
  -22.3068  -29.4922   21.5507 C   0  0  0  0  0  0  0  0  0  0  0  0
  -25.4445  -29.3747   22.3651 C   0  0  0  0  0  0  0  0  0  0  0  0
  -28.6151  -28.4106   21.5500 C   0  0  0  0  0  0  0  0  0  0  0  0
  -29.5365  -20.2719   20.5106 C   0  0  0  0  0  0  0  0  0  0  0  0
  -19.1819  -31.6928   24.9345 C   0  0  0  0  0  0  0  0  0  0  0  0
  -22.8172  -27.0436   21.2353 C   0  0  0  0  0  0  0  0  0  0  0  0
  -24.8727  -28.7632   19.9851 C   0  0  0  0  0  0  0  0  0  0  0  0
  -20.6312  -31.8900   24.4977 C   0  0  0  0  0  0  0  0  0  0  0  0
  -31.5414  -17.7551   22.0348 C   0  0  0  0  0  0  0  0  0  0  0  0
  -20.7266  -31.9523   22.9766 C   0  0  0  0  0  0  0  0  0  0  0  0
  -30.9073  -16.4471   21.5560 C   0  0  0  0  0  0  0  0  0  0  0  0
  -30.4903  -18.8321   22.2973 C   0  0  0  0  0  0  0  0  0  0  0  0
  -28.9358  -17.7783   20.7029 C   0  0  0  0  0  0  0  0  0  0  0  0
  -20.2465  -30.6427   22.3396 C   0  0  1  0  0  0  0  0  0  0  0  0
  -23.2495  -28.3648   21.8637 C   0  0  1  0  0  0  0  0  0  0  0  0
  -29.9603  -16.6835   20.3632 C   0  0  2  0  0  0  0  0  0  0  0  0
  -29.3586  -24.9388   18.2764 C   0  0  0  0  0  0  0  0  0  0  0  0
  -31.0774  -28.0221   21.8388 C   0  0  0  0  0  0  0  0  0  0  0  0
  -26.9030  -25.3882   12.9934 C   0  0  0  0  0  0  0  0  0  0  0  0
  -25.6337  -32.3127   21.5637 C   0  0  0  0  0  0  0  0  0  0  0  0
  -28.1248  -32.0674   21.5167 C   0  0  0  0  0  0  0  0  0  0  0  0
  -26.8790  -31.7181   23.6494 C   0  0  0  0  0  0  0  0  0  0  0  0
  -28.1714  -25.7389   22.7433 C   0  0  0  0  0  0  0  0  0  0  0  0
  -27.5602  -24.5844   15.9820 C   0  0  0  0  0  0  0  0  0  0  0  0
  -24.5273  -25.3386   13.8500 C   0  0  0  0  0  0  0  0  0  0  0  0
  -23.5832  -25.4656   15.0405 C   0  0  0  0  0  0  0  0  0  1  0  0
  -26.7142  -29.9818   21.8190 C   0  0  1  0  0  0  0  0  0  0  0  0
  -29.6843  -27.6866   22.3482 C   0  0  2  0  0  0  0  0  0  0  0  0
  -26.0073  -25.4423   14.2238 C   0  0  1  0  0  0  0  0  0  0  0  0
  -26.8214  -31.5032   22.1212 C   0  0  0  0  0  0  0  0  0  0  0  0
  -27.3091  -22.2625   16.6340 N   0  0  0  0  0  0  0  0  0  0  0  0
  -28.0950  -15.0718   20.4313 N   0  0  0  0  0  0  0  0  0  0  0  0
  -29.0283  -22.6083   18.8226 N   0  0  0  0  0  0  0  0  0  0  0  0
  -29.2913  -15.3982   19.9131 N   0  0  0  0  0  0  0  0  0  0  0  0
  -24.5817  -28.7888   21.4281 N   0  0  0  0  0  0  0  0  0  0  0  0
  -29.6326  -19.0043   21.1228 N   0  0  0  0  0  0  0  0  0  0  0  0
  -30.9557  -14.6657   18.3952 N   0  0  0  0  0  0  0  0  0  0  0  0
  -27.8224  -11.4224   18.1507 N   0  0  0  0  0  0  0  0  0  0  0  0
  -28.7172  -20.3068   19.3827 N   0  0  0  0  0  0  0  0  0  0  0  0
  -21.2668  -29.6225   22.4513 N   0  0  0  0  0  0  0  0  0  0  0  0
  -27.8118  -29.1866   22.3587 N   0  0  0  0  0  0  0  0  0  0  0  0
  -29.4918  -26.2119   22.2535 N   0  3  0  0  0  0  0  0  0  0  0  0
  -26.3841  -24.3107   15.1160 N   0  3  0  0  0  0  0  0  0  0  0  0
  -29.8683  -12.0979   17.3654 O   0  0  0  0  0  0  0  0  0  0  0  0
  -22.5088  -30.1930   20.5660 O   0  0  0  0  0  0  0  0  0  0  0  0
  -25.2296  -29.4125   23.5792 O   0  0  0  0  0  0  0  0  0  0  0  0
  -28.5059  -28.3018   20.3307 O   0  0  0  0  0  0  0  0  0  0  0  0
  -30.1582  -21.2479   20.9383 O   0  0  0  0  0  0  0  0  0  0  0  0
  -23.0304  -11.2521   20.9866 O   0  0  0  0  0  0  0  0  0  0  0  0
  -23.8031  -26.7294   15.6657 O   0  0  0  0  0  0  0  0  0  1  0  0
  -23.2686   -5.8112   21.8489 F   0  0  0  0  0  0  0  0  0  0  0  0
  -22.2188  -10.1607   23.3934 F   0  0  0  0  0  0  0  0  0  0  0  0
  1  2  1  0  0  0  0
  1  5  2  0  0  0  0
  2  6  2  0  0  0  0
  3  8  2  0  0  0  0
  3 16  1  0  0  0  0
  4  9  1  0  0  0  0
  4 16  2  0  0  0  0
  5 18  1  0  0  0  0
  6 20  1  0  0  0  0
  7 10  2  0  0  0  0
  7 19  1  0  0  0  0
  8 22  1  0  0  0  0
  9 22  2  0  0  0  0
 10 23  1  0  0  0  0
 11 12  2  0  0  0  0
 11 24  1  0  0  0  0
 12 25  1  0  0  0  0
 13 21  1  0  0  0  0
 13 23  2  0  0  0  0
 14 25  2  0  0  0  0
 14 26  1  0  0  0  0
 15 30  1  0  0  0  0
 15 63  2  0  0  0  0
 16 27  1  0  0  0  0
 17 27  1  0  0  0  0
 17 31  2  0  0  0  0
 17 32  1  0  0  0  0
 18 20  2  0  0  0  0
 18 37  1  0  0  0  0
 19 21  2  0  0  0  0
 19 38  1  0  0  0  0
 20 46  1  0  0  0  0
 21 39  1  0  0  0  0
 22 81  1  0  0  0  0
 23 82  1  0  0  0  0
 24 26  2  0  0  0  0
 24 81  1  0  0  0  0
 25 83  1  0  0  0  0
 26 84  1  0  0  0  0
 27 64  2  0  0  0  0
 28 29  2  0  0  0  0
 28 49  1  0  0  0  0
 28 65  1  0  0  0  0
 29 56  1  0  0  0  0
 29 63  1  0  0  0  0
 30 65  2  0  0  0  0
 30 71  1  0  0  0  0
 31 66  1  0  0  0  0
 31 69  1  0  0  0  0
 32 70  1  0  0  0  0
 32 76  2  0  0  0  0
 33 47  1  0  0  0  0
 33 72  1  0  0  0  0
 33 77  2  0  0  0  0
 34 59  1  0  0  0  0
 34 67  1  0  0  0  0
 34 78  2  0  0  0  0
 35 60  1  0  0  0  0
 35 73  1  0  0  0  0
 35 79  2  0  0  0  0
 36 68  1  0  0  0  0
 36 71  1  0  0  0  0
 36 80  2  0  0  0  0
 37 40  1  0  0  0  0
 38 47  1  0  0  0  0
 39 67  1  0  0  0  0
 40 42  1  0  0  0  0
 41 43  1  0  0  0  0
 41 44  1  0  0  0  0
 42 46  1  0  0  0  0
 43 48  1  0  0  0  0
 44 68  1  0  0  0  0
 45 48  1  0  0  0  0
 45 68  1  0  0  0  0
 46 72  1  0  0  0  0
 47 67  1  0  0  0  0
 48 66  1  0  0  0  0
 50 60  1  0  0  0  0
 51 61  1  0  0  0  0
 52 62  1  0  0  0  0
 53 62  1  0  0  0  0
 54 62  1  0  0  0  0
 55 74  1  0  0  0  0
 56 75  1  0  0  0  0
 57 58  1  0  0  0  0
 57 61  1  0  0  0  0
 58 82  1  0  0  0  0
 59 62  1  0  0  0  0
 59 73  1  0  0  0  0
 60 74  1  0  0  0  0
 61 75  1  0  0  0  0
 64 66  1  0  0  0  0
M  CHG  2  74   1  75   1
M  ISO  4  36 100  58 101  71 100  82 101
M  END
> <Batch ID>
0196

> <Smiles>
CNC(C)C(=O)NC(C(=O)N1Cc2cc([101O:1][101CH2:1]CC(C)NCc3ncc([100NH:0][100C:0](=O)N4CCCC(n5nc(-c6ccc(Oc7ccc(F)cc7F)cc6)c(C(N)=O)c5N)C4)nc3C)ccc2CC1C(=O)NC1CCCc2ccccc21)C(C)(C)C

> <Shape>
0.308

> <Color>
0.084

> <Negative vol penalty>
0.000

$$$$

  -OEChem-04052305393D

 83 91  0     1  0  0  0  0  0999 V2000
  -28.5549  -10.8569   20.6054 C   0  0  0  0  0  0  0  0  0  0  0  0
  -28.8802  -12.1147   20.1079 C   0  0  0  0  0  0  0  0  0  0  0  0
  -24.6500  -26.8569   21.5759 C   0  0  0  0  0  0  0  0  0  0  0  0
  -24.8526  -28.3159   19.6609 C   0  0  0  0  0  0  0  0  0  0  0  0
  -27.2262  -10.5426   20.8878 C   0  0  0  0  0  0  0  0  0  0  0  0
  -27.8769  -13.0586   19.8914 C   0  0  0  0  0  0  0  0  0  0  0  0
  -29.1399  -17.6603   21.5866 C   0  0  0  0  0  0  0  0  0  0  0  0
  -23.4989  -27.5373   21.9726 C   0  0  0  0  0  0  0  0  0  0  0  0
  -23.7014  -28.9964   20.0576 C   0  0  0  0  0  0  0  0  0  0  0  0
  -30.0084  -18.4132   20.7976 C   0  0  0  0  0  0  0  0  0  0  0  0
  -20.3035  -28.6604   23.2930 C   0  0  0  0  0  0  0  0  0  0  0  0
  -19.2080  -27.8990   23.7001 C   0  0  0  0  0  0  0  0  0  0  0  0
  -28.1320  -19.6544   19.9272 C   0  0  0  0  0  0  0  0  0  0  0  0
  -19.1314  -26.8469   21.5265 C   0  0  0  0  0  0  0  0  0  0  0  0
  -34.1770  -22.4287   14.7707 C   0  0  0  0  0  0  0  0  0  0  0  0
  -25.3269  -27.2462   20.4201 C   0  0  0  0  0  0  0  0  0  0  0  0
  -26.5920  -25.4222   19.1631 C   0  0  0  0  0  0  0  0  0  0  0  0
  -26.2072  -11.4863   20.6837 C   0  0  0  0  0  0  0  0  0  0  0  0
  -27.7575  -17.8918   21.5436 C   0  0  0  0  0  0  0  0  0  0  0  0
  -26.5331  -12.7560   20.1700 C   0  0  0  0  0  0  0  0  0  0  0  0
  -27.2483  -18.9047   20.7185 C   0  0  0  0  0  0  0  0  0  0  0  0
  -34.3388  -23.7903   14.9264 C   0  0  0  0  0  0  0  0  0  0  0  0
  -23.0245  -28.6071   21.2135 C   0  0  0  0  0  0  0  0  0  0  0  0
  -29.5043  -19.4085   19.9656 C   0  0  0  0  0  0  0  0  0  0  0  0
  -20.8129  -28.5151   22.0026 C   0  0  0  0  0  0  0  0  0  0  0  0
  -18.6219  -26.9923   22.8169 C   0  0  0  0  0  0  0  0  0  0  0  0
  -20.2269  -27.6084   21.1194 C   0  0  0  0  0  0  0  0  0  0  0  0
  -26.5165  -26.5440   20.0101 C   0  0  0  0  0  0  0  0  0  0  0  0
  -33.7168  -24.3434   16.0270 C   0  0  0  0  0  0  0  0  0  0  0  0
  -27.9338  -25.1385   19.0878 C   0  0  0  0  0  0  0  0  0  0  0  0
  -32.9072  -22.3136   16.6526 C   0  0  0  0  0  0  0  0  0  0  0  0
  -25.5431  -24.7010   18.5032 C   0  0  0  0  0  0  0  0  0  0  0  0
  -25.2184  -16.1647   20.7227 C   0  0  0  0  0  0  0  0  0  0  0  0
  -23.5922  -18.7438   21.8300 C   0  0  0  0  0  0  0  0  0  0  0  0
  -23.5818  -22.0871   22.5150 C   0  0  0  0  0  0  0  0  0  0  0  0
  -33.2320  -26.7909   18.5018 C   0  0  0  0  0  0  0  0  0  0  0  0
  -24.7798  -11.0844   20.9589 C   0  0  0  0  0  0  0  0  0  0  0  0
  -26.8365  -17.0889   22.4208 C   0  0  0  0  0  0  0  0  0  0  0  0
  -25.7743  -19.2065   20.6510 C   0  0  0  0  0  0  0  0  0  0  0  0
  -23.8213  -12.2686   21.0551 C   0  0  0  0  0  0  0  0  0  0  0  0
  -31.8317  -26.9228   21.7727 C   0  0  0  0  0  0  0  0  0  0  0  0
  -24.0552  -13.2397   19.9022 C   0  0  0  0  0  0  0  0  0  0  0  0
  -30.3305  -26.7498   21.5351 C   0  0  0  0  0  0  0  0  0  0  0  0
  -32.4877  -27.7431   20.6642 C   0  0  0  0  0  0  0  0  0  0  0  0
  -30.7410  -27.0727   19.0600 C   0  0  0  0  0  0  0  0  0  0  0  0
  -25.4759  -13.8152   19.9452 C   0  0  1  0  0  0  0  0  0  0  0  0
  -25.3983  -17.0643   21.9127 C   0  0  1  0  0  0  0  0  0  0  0  0
  -30.0455  -26.2048   20.1227 C   0  0  2  0  0  0  0  0  0  0  0  0
  -22.0962  -23.9167   23.3768 C   0  0  0  0  0  0  0  0  0  0  0  0
  -22.1313  -18.8155   19.1522 C   0  0  0  0  0  0  0  0  0  0  0  0
  -21.3971  -21.1469   19.6943 C   0  0  0  0  0  0  0  0  0  0  0  0
  -20.6812  -19.2470   21.1436 C   0  0  0  0  0  0  0  0  0  0  0  0
  -25.3773  -22.6246   24.8055 C   0  0  0  0  0  0  0  0  0  0  0  0
  -33.8208  -25.8083   16.3002 C   0  0  0  0  0  0  0  0  0  0  0  0
  -31.9786  -20.1256   17.4116 C   0  0  0  0  0  0  0  0  0  0  0  0
  -23.0842  -20.0290   21.2223 C   0  0  1  0  0  0  0  0  0  0  0  0
  -23.1311  -22.8630   23.7394 C   0  0  2  0  0  0  0  0  0  0  0  0
  -31.5573  -19.5231   18.7440 C   0  0  2  0  0  0  0  0  0  1  0  0
  -21.8511  -19.8028   20.3027 C   0  0  0  0  0  0  0  0  0  0  0  0
  -33.4652  -21.6567   15.6179 N   0  0  0  0  0  0  0  0  0  0  0  0
  -27.7149  -26.9456   20.4421 N   0  0  0  0  0  0  0  0  0  0  0  0
  -32.9903  -23.6321   16.9139 N   0  0  0  0  0  0  0  0  0  0  0  0
  -28.5561  -26.0711   19.8643 N   0  0  0  0  0  0  0  0  0  0  0  0
  -24.9137  -18.3900   21.5229 N   0  0  0  0  0  0  0  0  0  0  0  0
  -32.1799  -27.1725   19.3506 N   0  0  0  0  0  0  0  0  0  0  0  0
  -35.0898  -24.5435   14.0163 N   0  0  0  0  0  0  0  0  0  0  0  0
  -28.6302  -24.1847   18.4338 N   0  0  0  0  0  0  0  0  0  0  0  0
  -24.2206  -25.1266   18.6885 N   0  0  0  0  0  0  0  0  0  0  0  0
  -32.1688  -21.5520   17.5432 N   0  0  0  0  0  0  0  0  0  0  0  0
  -25.5721  -14.8490   20.9535 N   0  0  0  0  0  0  0  0  0  0  0  0
  -22.8399  -20.9386   22.3364 N   0  0  0  0  0  0  0  0  0  0  0  0
  -32.8528  -26.2532   17.2780 N   0  0  0  0  0  0  0  0  0  0  0  0
  -24.2927  -23.5450   24.3771 N   0  3  0  0  0  0  0  0  0  0  0  0
  -25.7704  -23.6986   17.7841 O   0  0  0  0  0  0  0  0  0  0  0  0
  -24.7891  -16.6296   19.6733 O   0  0  0  0  0  0  0  0  0  0  0  0
  -22.8464  -18.0820   22.5562 O   0  0  0  0  0  0  0  0  0  0  0  0
  -24.4979  -22.4641   21.7875 O   0  0  0  0  0  0  0  0  0  0  0  0
  -34.4212  -26.9149   18.8140 O   0  0  0  0  0  0  0  0  0  0  0  0
  -21.9011  -29.2711   21.6002 O   0  0  0  0  0  0  0  0  0  0  0  0
  -30.3498  -20.1445   19.1940 O   0  0  0  0  0  0  0  0  0  1  0  0
  -17.5709  -26.2601   23.2085 F   0  0  0  0  0  0  0  0  0  0  0  0
  -20.7127  -27.4635   19.8789 F   0  0  0  0  0  0  0  0  0  0  0  0
  -32.5355  -19.7532   19.6603 F   0  0  0  0  0  0  0  0  0  0  0  0
  1  2  1  0  0  0  0
  1  5  2  0  0  0  0
  2  6  2  0  0  0  0
  3  8  2  0  0  0  0
  3 16  1  0  0  0  0
  4  9  1  0  0  0  0
  4 16  2  0  0  0  0
  5 18  1  0  0  0  0
  6 20  1  0  0  0  0
  7 10  2  0  0  0  0
  7 19  1  0  0  0  0
  8 23  1  0  0  0  0
  9 23  2  0  0  0  0
 10 24  1  0  0  0  0
 11 12  2  0  0  0  0
 11 25  1  0  0  0  0
 12 26  1  0  0  0  0
 13 21  1  0  0  0  0
 13 24  2  0  0  0  0
 14 26  2  0  0  0  0
 14 27  1  0  0  0  0
 15 22  1  0  0  0  0
 15 60  2  0  0  0  0
 16 28  1  0  0  0  0
 17 28  1  0  0  0  0
 17 30  2  0  0  0  0
 17 32  1  0  0  0  0
 18 20  2  0  0  0  0
 18 37  1  0  0  0  0
 19 21  2  0  0  0  0
 19 38  1  0  0  0  0
 20 46  1  0  0  0  0
 21 39  1  0  0  0  0
 22 29  2  0  0  0  0
 22 66  1  0  0  0  0
 23 79  1  0  0  0  0
 24 80  1  0  0  0  0
 25 27  2  0  0  0  0
 25 79  1  0  0  0  0
 26 81  1  0  0  0  0
 27 82  1  0  0  0  0
 28 61  2  0  0  0  0
 29 54  1  0  0  0  0
 29 62  1  0  0  0  0
 30 63  1  0  0  0  0
 30 67  1  0  0  0  0
 31 60  1  0  0  0  0
 31 62  2  0  0  0  0
 31 69  1  0  0  0  0
 32 68  1  0  0  0  0
 32 74  2  0  0  0  0
 33 47  1  0  0  0  0
 33 70  1  0  0  0  0
 33 75  2  0  0  0  0
 34 56  1  0  0  0  0
 34 64  1  0  0  0  0
 34 76  2  0  0  0  0
 35 57  1  0  0  0  0
 35 71  1  0  0  0  0
 35 77  2  0  0  0  0
 36 65  1  0  0  0  0
 36 72  1  0  0  0  0
 36 78  2  0  0  0  0
 37 40  1  0  0  0  0
 38 47  1  0  0  0  0
 39 64  1  0  0  0  0
 40 42  1  0  0  0  0
 41 43  1  0  0  0  0
 41 44  1  0  0  0  0
 42 46  1  0  0  0  0
 43 48  1  0  0  0  0
 44 65  1  0  0  0  0
 45 48  1  0  0  0  0
 45 65  1  0  0  0  0
 46 70  1  0  0  0  0
 47 64  1  0  0  0  0
 48 63  1  0  0  0  0
 49 57  1  0  0  0  0
 50 59  1  0  0  0  0
 51 59  1  0  0  0  0
 52 59  1  0  0  0  0
 53 73  1  0  0  0  0
 54 72  1  0  0  0  0
 55 58  1  0  0  0  0
 55 69  1  0  0  0  0
 56 59  1  0  0  0  0
 56 71  1  0  0  0  0
 57 73  1  0  0  0  0
 58 80  1  0  0  0  0
 58 83  1  0  0  0  0
 61 63  1  0  0  0  0
M  CHG  1  73   1
M  ISO  4  36 100  58 101  72 100  80 101
M  END
> <Batch ID>
0196

> <Smiles>
CNC(C)C(=O)NC(C(=O)N1Cc2cc([101O:1][101CH:1](F)CNc3ncc(N)c(C[100NH:0][100C:0](=O)N4CCCC(n5nc(-c6ccc(Oc7ccc(F)cc7F)cc6)c(C(N)=O)c5N)C4)n3)ccc2CC1C(=O)NC1CCCc2ccccc21)C(C)(C)C

> <Shape>
0.211

> <Color>
0.061

> <Negative vol penalty>
0.000

$$$$

  -OEChem-04052305393D

 82 90  0     1  0  0  0  0  0999 V2000
  -18.6994  -29.0634   22.4215 C   0  0  0  0  0  0  0  0  0  0  0  0
  -20.0887  -29.0568   22.4743 C   0  0  0  0  0  0  0  0  0  0  0  0
  -30.7464  -22.6259   18.5809 C   0  0  0  0  0  0  0  0  0  0  0  0
  -29.4042  -22.8021   20.5820 C   0  0  0  0  0  0  0  0  0  0  0  0
  -17.9959  -27.8658   22.5303 C   0  0  0  0  0  0  0  0  0  0  0  0
  -20.7753  -27.8513   22.6240 C   0  0  0  0  0  0  0  0  0  0  0  0
  -27.0188  -22.9897   23.4028 C   0  0  0  0  0  0  0  0  0  0  0  0
  -30.9808  -24.0004   18.6170 C   0  0  0  0  0  0  0  0  0  0  0  0
  -29.6386  -24.1767   20.6181 C   0  0  0  0  0  0  0  0  0  0  0  0
  -27.3900  -21.7148   23.8279 C   0  0  0  0  0  0  0  0  0  0  0  0
  -29.5865  -27.7869   21.0351 C   0  0  0  0  0  0  0  0  0  0  0  0
  -28.4996  -28.6235   21.2883 C   0  0  0  0  0  0  0  0  0  0  0  0
  -25.7718  -20.7483   22.3223 C   0  0  0  0  0  0  0  0  0  0  0  0
  -27.3915  -27.7816   19.3133 C   0  0  0  0  0  0  0  0  0  0  0  0
  -22.3855  -13.3446   22.8360 C   0  0  0  0  0  0  0  0  0  0  0  0
  -29.9580  -22.0267   19.5634 C   0  0  0  0  0  0  0  0  0  0  0  0
  -30.4855  -19.5966   20.1323 C   0  0  0  0  0  0  0  0  0  0  0  0
  -18.6745  -26.6469   22.6939 C   0  0  0  0  0  0  0  0  0  0  0  0
  -26.0120  -23.1541   22.4406 C   0  0  0  0  0  0  0  0  0  0  0  0
  -20.0840  -26.6294   22.7115 C   0  0  0  0  0  0  0  0  0  0  0  0
  -25.3915  -22.0262   21.8849 C   0  0  0  0  0  0  0  0  0  0  0  0
  -30.4269  -24.7758   19.6356 C   0  0  0  0  0  0  0  0  0  0  0  0
  -26.7645  -20.5940   23.2898 C   0  0  0  0  0  0  0  0  0  0  0  0
  -29.5760  -26.9477   19.9209 C   0  0  0  0  0  0  0  0  0  0  0  0
  -27.4020  -28.6208   20.4275 C   0  0  0  0  0  0  0  0  0  0  0  0
  -28.4785  -26.9450   19.0601 C   0  0  0  0  0  0  0  0  0  0  0  0
  -29.7151  -20.6070   19.5263 C   0  0  0  0  0  0  0  0  0  0  0  0
  -24.3592  -13.8524   22.0259 C   0  0  0  0  0  0  0  0  0  0  0  0
  -29.8407  -18.4293   19.8036 C   0  0  0  0  0  0  0  0  0  0  0  0
  -24.4031  -14.6167   23.1731 C   0  0  0  0  0  0  0  0  0  0  0  0
  -31.6775  -19.7036   20.9219 C   0  0  0  0  0  0  0  0  0  0  0  0
  -23.1567  -24.5503   22.3977 C   0  0  0  0  0  0  0  0  0  0  0  0
  -23.2703  -23.8016   19.2435 C   0  0  0  0  0  0  0  0  0  0  0  0
  -24.5424  -21.8080   16.7830 C   0  0  0  0  0  0  0  0  0  0  0  0
  -25.1540  -15.4553   19.2238 C   0  0  0  0  0  0  0  0  0  0  0  0
  -17.8635  -25.3794   22.7987 C   0  0  0  0  0  0  0  0  0  0  0  0
  -25.6418  -24.5350   21.9732 C   0  0  0  0  0  0  0  0  0  0  0  0
  -24.3191  -22.1479   20.8344 C   0  0  0  0  0  0  0  0  0  0  0  0
  -18.6506  -24.2177   23.3964 C   0  0  0  0  0  0  0  0  0  0  0  0
  -26.1093  -17.5459   16.5047 C   0  0  0  0  0  0  0  0  0  0  0  0
  -19.9917  -24.0811   22.6911 C   0  0  0  0  0  0  0  0  0  0  0  0
  -27.1910  -18.4489   17.1000 C   0  0  0  0  0  0  0  0  0  0  0  0
  -25.0061  -17.2442   17.5166 C   0  0  0  0  0  0  0  0  0  0  0  0
  -26.5595  -17.5980   19.3969 C   0  0  0  0  0  0  0  0  0  0  0  0
  -20.8510  -25.3337   22.9045 C   0  0  1  0  0  0  0  0  0  0  0  0
  -24.2452  -24.6050   21.3633 C   0  0  1  0  0  0  0  0  0  0  0  0
  -27.7222  -17.8846   18.4314 C   0  0  2  0  0  0  0  0  0  0  0  0
  -24.4192  -21.4118   14.3081 C   0  0  0  0  0  0  0  0  0  0  0  0
  -25.6420  -15.2687   26.0172 C   0  0  0  0  0  0  0  0  0  0  0  0
  -20.5684  -22.4295   19.6001 C   0  0  0  0  0  0  0  0  0  0  0  0
  -20.9472  -21.2696   17.4140 C   0  0  0  0  0  0  0  0  0  0  0  0
  -20.7937  -23.7582   17.4934 C   0  0  0  0  0  0  0  0  0  0  0  0
  -27.4194  -22.4039   16.4271 C   0  0  0  0  0  0  0  0  0  0  0  0
  -25.4228  -13.7478   21.0046 C   0  0  0  0  0  0  0  0  0  0  0  0
  -26.3879  -17.3430   24.7981 C   0  0  0  0  0  0  0  0  0  0  0  0
  -26.1172  -18.3380   23.6741 C   0  0  0  0  0  0  0  0  0  1  0  0
  -22.8527  -22.6135   18.4110 C   0  0  1  0  0  0  0  0  0  0  0  0
  -25.1450  -22.1387   15.4295 C   0  0  2  0  0  0  0  0  0  0  0  0
  -25.3673  -16.2014   24.8418 C   0  0  1  0  0  0  0  0  0  0  0  0
  -21.3093  -22.5151   18.2508 C   0  0  0  0  0  0  0  0  0  0  0  0
  -23.2032  -13.1220   21.8311 N   0  0  0  0  0  0  0  0  0  0  0  0
  -28.6614  -20.1239   18.8627 N   0  0  0  0  0  0  0  0  0  0  0  0
  -28.7652  -18.7971   19.0497 N   0  0  0  0  0  0  0  0  0  0  0  0
  -23.9877  -23.5196   20.4147 N   0  0  0  0  0  0  0  0  0  0  0  0
  -25.5763  -16.7107   18.7560 N   0  0  0  0  0  0  0  0  0  0  0  0
  -30.0943  -17.1344   20.0887 N   0  0  0  0  0  0  0  0  0  0  0  0
  -32.2066  -20.9787   21.1635 N   0  0  0  0  0  0  0  0  0  0  0  0
  -25.4265  -15.4365   23.6137 N   0  0  0  0  0  0  0  0  0  0  0  0
  -22.0188  -25.2554   22.0548 N   0  0  0  0  0  0  0  0  0  0  0  0
  -23.5786  -22.7231   17.1503 N   0  0  0  0  0  0  0  0  0  0  0  0
  -25.7491  -15.0211   20.4019 N   0  0  0  0  0  0  0  0  0  0  0  0
  -26.5819  -21.7451   15.3920 N   0  3  0  0  0  0  0  0  0  0  0  0
  -32.2655  -18.6970   21.3852 O   0  0  0  0  0  0  0  0  0  0  0  0
  -23.3354  -23.9142   23.4297 O   0  0  0  0  0  0  0  0  0  0  0  0
  -22.9771  -24.9384   18.8648 O   0  0  0  0  0  0  0  0  0  0  0  0
  -24.8892  -20.8332   17.4463 O   0  0  0  0  0  0  0  0  0  0  0  0
  -24.3131  -14.7698   18.6323 O   0  0  0  0  0  0  0  0  0  0  0  0
  -30.6556  -26.1171   19.6713 O   0  0  0  0  0  0  0  0  0  0  0  0
  -27.1244  -19.3485   23.7034 O   0  0  0  0  0  0  0  0  0  1  0  0
  -26.3576  -29.4232   20.6716 F   0  0  0  0  0  0  0  0  0  0  0  0
  -28.4622  -26.1401   17.9888 F   0  0  0  0  0  0  0  0  0  0  0  0
  -22.9422  -14.4221   24.0502 S   0  0  0  0  0  0  0  0  0  0  0  0
  1  2  1  0  0  0  0
  1  5  2  0  0  0  0
  2  6  2  0  0  0  0
  3  8  2  0  0  0  0
  3 16  1  0  0  0  0
  4  9  1  0  0  0  0
  4 16  2  0  0  0  0
  5 18  1  0  0  0  0
  6 20  1  0  0  0  0
  7 10  2  0  0  0  0
  7 19  1  0  0  0  0
  8 22  1  0  0  0  0
  9 22  2  0  0  0  0
 10 23  1  0  0  0  0
 11 12  2  0  0  0  0
 11 24  1  0  0  0  0
 12 25  1  0  0  0  0
 13 21  1  0  0  0  0
 13 23  2  0  0  0  0
 14 25  2  0  0  0  0
 14 26  1  0  0  0  0
 15 61  2  0  0  0  0
 15 82  1  0  0  0  0
 16 27  1  0  0  0  0
 17 27  1  0  0  0  0
 17 29  2  0  0  0  0
 17 31  1  0  0  0  0
 18 20  2  0  0  0  0
 18 36  1  0  0  0  0
 19 21  2  0  0  0  0
 19 37  1  0  0  0  0
 20 45  1  0  0  0  0
 21 38  1  0  0  0  0
 22 78  1  0  0  0  0
 23 79  1  0  0  0  0
 24 26  2  0  0  0  0
 24 78  1  0  0  0  0
 25 80  1  0  0  0  0
 26 81  1  0  0  0  0
 27 62  2  0  0  0  0
 28 30  2  0  0  0  0
 28 54  1  0  0  0  0
 28 61  1  0  0  0  0
 29 63  1  0  0  0  0
 29 66  1  0  0  0  0
 30 68  1  0  0  0  0
 30 82  1  0  0  0  0
 31 67  1  0  0  0  0
 31 73  2  0  0  0  0
 32 46  1  0  0  0  0
 32 69  1  0  0  0  0
 32 74  2  0  0  0  0
 33 57  1  0  0  0  0
 33 64  1  0  0  0  0
 33 75  2  0  0  0  0
 34 58  1  0  0  0  0
 34 70  1  0  0  0  0
 34 76  2  0  0  0  0
 35 65  1  0  0  0  0
 35 71  1  0  0  0  0
 35 77  2  0  0  0  0
 36 39  1  0  0  0  0
 37 46  1  0  0  0  0
 38 64  1  0  0  0  0
 39 41  1  0  0  0  0
 40 42  1  0  0  0  0
 40 43  1  0  0  0  0
 41 45  1  0  0  0  0
 42 47  1  0  0  0  0
 43 65  1  0  0  0  0
 44 47  1  0  0  0  0
 44 65  1  0  0  0  0
 45 69  1  0  0  0  0
 46 64  1  0  0  0  0
 47 63  1  0  0  0  0
 48 58  1  0  0  0  0
 49 59  1  0  0  0  0
 50 60  1  0  0  0  0
 51 60  1  0  0  0  0
 52 60  1  0  0  0  0
 53 72  1  0  0  0  0
 54 71  1  0  0  0  0
 55 56  1  0  0  0  0
 55 59  1  0  0  0  0
 56 79  1  0  0  0  0
 57 60  1  0  0  0  0
 57 70  1  0  0  0  0
 58 72  1  0  0  0  0
 59 68  1  0  0  0  0
 62 63  1  0  0  0  0
M  CHG  1  72   1
M  ISO  4  35 100  56 101  71 100  79 101
M  END
> <Batch ID>
0196

> <Smiles>
CNC(C)C(=O)NC(C(=O)N1Cc2cc([101O:1][101CH2:1]CC(C)Nc3scnc3C[100NH:0][100C:0](=O)N3CCCC(n4nc(-c5ccc(Oc6ccc(F)cc6F)cc5)c(C(N)=O)c4N)C3)ccc2CC1C(=O)NC1CCCc2ccccc21)C(C)(C)C

> <Shape>
0.183

> <Color>
0.061

> <Negative vol penalty>
0.000

$$$$

  -OEChem-04052305393D

 82 90  0     1  0  0  0  0  0999 V2000
  -18.1337  -32.8881   23.5205 C   0  0  0  0  0  0  0  0  0  0  0  0
  -19.3108  -33.0008   22.7877 C   0  0  0  0  0  0  0  0  0  0  0  0
  -24.8326  -15.2882   20.3282 C   0  0  0  0  0  0  0  0  0  0  0  0
  -26.8311  -15.1196   21.6753 C   0  0  0  0  0  0  0  0  0  0  0  0
  -17.9604  -31.8193   24.3990 C   0  0  0  0  0  0  0  0  0  0  0  0
  -20.3159  -32.0453   22.9338 C   0  0  0  0  0  0  0  0  0  0  0  0
  -25.4597  -28.7381   19.2027 C   0  0  0  0  0  0  0  0  0  0  0  0
  -24.8146  -13.9012   20.1814 C   0  0  0  0  0  0  0  0  0  0  0  0
  -26.8131  -13.7326   21.5286 C   0  0  0  0  0  0  0  0  0  0  0  0
  -26.8251  -28.4628   19.2613 C   0  0  0  0  0  0  0  0  0  0  0  0
  -24.0375  -10.3760   19.7521 C   0  0  0  0  0  0  0  0  0  0  0  0
  -22.8160   -9.7225   19.9145 C   0  0  0  0  0  0  0  0  0  0  0  0
  -26.3828  -26.6164   20.7494 C   0  0  0  0  0  0  0  0  0  0  0  0
  -22.6689  -10.5594   22.1762 C   0  0  0  0  0  0  0  0  0  0  0  0
  -29.7125  -26.7161   24.0633 C   0  0  0  0  0  0  0  0  0  0  0  0
  -25.8409  -15.8974   21.0751 C   0  0  0  0  0  0  0  0  0  0  0  0
  -25.2414  -18.0863   22.2400 C   0  0  0  0  0  0  0  0  0  0  0  0
  -18.9599  -30.8451   24.5487 C   0  0  0  0  0  0  0  0  0  0  0  0
  -24.5449  -27.9601   19.9268 C   0  0  0  0  0  0  0  0  0  0  0  0
  -20.1564  -30.9633   23.8161 C   0  0  0  0  0  0  0  0  0  0  0  0
  -25.0060  -26.8823   20.6962 C   0  0  0  0  0  0  0  0  0  0  0  0
  -25.8048  -13.1234   20.7816 C   0  0  0  0  0  0  0  0  0  0  0  0
  -27.2872  -27.4036   20.0370 C   0  0  0  0  0  0  0  0  0  0  0  0
  -24.5748  -11.1211   20.8018 C   0  0  0  0  0  0  0  0  0  0  0  0
  -22.1317   -9.8142   21.1265 C   0  0  0  0  0  0  0  0  0  0  0  0
  -23.8905  -11.2128   22.0138 C   0  0  0  0  0  0  0  0  0  0  0  0
  -25.8604  -17.3302   21.2267 C   0  0  0  0  0  0  0  0  0  0  0  0
  -29.2041  -25.5453   24.5879 C   0  0  0  0  0  0  0  0  0  0  0  0
  -29.9675  -26.7014   22.7072 C   0  0  0  0  0  0  0  0  0  0  0  0
  -25.5562  -19.3886   21.9374 C   0  0  0  0  0  0  0  0  0  0  0  0
  -29.2495  -24.5508   22.5444 C   0  0  0  0  0  0  0  0  0  0  0  0
  -24.4525  -17.6505   23.3550 C   0  0  0  0  0  0  0  0  0  0  0  0
  -22.4673  -28.5342   22.2630 C   0  0  0  0  0  0  0  0  0  0  0  0
  -21.6158  -25.4489   21.7356 C   0  0  0  0  0  0  0  0  0  0  0  0
  -22.4849  -22.3629   20.5658 C   0  0  0  0  0  0  0  0  0  0  0  0
  -29.2220  -23.2761   20.3717 C   0  0  0  0  0  0  0  0  0  0  0  0
  -18.7467  -29.7336   25.5457 C   0  0  0  0  0  0  0  0  0  0  0  0
  -23.0728  -28.2535   19.8318 C   0  0  0  0  0  0  0  0  0  0  0  0
  -24.0632  -26.0042   21.4763 C   0  0  0  0  0  0  0  0  0  0  0  0
  -19.7055  -28.5598   25.3636 C   0  0  0  0  0  0  0  0  0  0  0  0
  -27.6540  -21.3921   17.7893 C   0  0  0  0  0  0  0  0  0  0  0  0
  -21.1349  -29.0610   25.1835 C   0  0  0  0  0  0  0  0  0  0  0  0
  -26.9966  -20.2296   18.5367 C   0  0  0  0  0  0  0  0  0  0  0  0
  -28.9990  -21.7739   18.4048 C   0  0  0  0  0  0  0  0  0  0  0  0
  -28.3097  -20.8817   20.5952 C   0  0  0  0  0  0  0  0  0  0  0  0
  -21.2596  -29.9335   23.9286 C   0  0  1  0  0  0  0  0  0  0  0  0
  -22.2784  -27.7149   21.0177 C   0  0  1  0  0  0  0  0  0  0  0  0
  -26.9222  -20.5037   20.0516 C   0  0  2  0  0  0  0  0  0  0  0  0
  -28.8967  -25.4651   26.0455 C   0  0  0  0  0  0  0  0  0  0  0  0
  -21.5921  -20.0323   20.3038 C   0  0  0  0  0  0  0  0  0  0  0  0
  -31.7848  -29.1299   20.5572 C   0  0  0  0  0  0  0  0  0  0  0  0
  -22.0452  -24.9521   24.7153 C   0  0  0  0  0  0  0  0  0  0  0  0
  -22.0762  -22.4961   24.2303 C   0  0  0  0  0  0  0  0  0  0  0  0
  -20.0262  -23.8344   23.7517 C   0  0  0  0  0  0  0  0  0  0  0  0
  -22.7477  -22.4689   17.6198 C   0  0  0  0  0  0  0  0  0  0  0  0
  -29.5134  -28.2347   19.9427 C   0  0  0  0  0  0  0  0  0  1  0  0
  -22.0594  -24.1103   22.2746 C   0  0  1  0  0  0  0  0  0  0  0  0
  -21.7625  -21.3936   19.6476 C   0  0  2  0  0  0  0  0  0  0  0  0
  -30.7953  -27.9858   20.7347 C   0  0  2  0  0  0  0  0  0  0  0  0
  -21.5699  -23.8658   23.7299 C   0  0  0  0  0  0  0  0  0  0  0  0
  -26.5186  -18.0889   20.3462 N   0  0  0  0  0  0  0  0  0  0  0  0
  -28.9595  -24.4395   23.8547 N   0  0  0  0  0  0  0  0  0  0  0  0
  -29.7473  -25.6321   21.9145 N   0  0  0  0  0  0  0  0  0  0  0  0
  -26.3148  -19.3354   20.8052 N   0  0  0  0  0  0  0  0  0  0  0  0
  -22.6337  -26.3353   21.3562 N   0  0  0  0  0  0  0  0  0  0  0  0
  -28.8503  -22.0230   19.8403 N   0  0  0  0  0  0  0  0  0  0  0  0
  -25.2552  -20.5626   22.5321 N   0  0  0  0  0  0  0  0  0  0  0  0
  -24.2264  -16.2769   23.5173 N   0  0  0  0  0  0  0  0  0  0  0  0
  -30.4779  -27.8559   22.1428 N   0  0  0  0  0  0  0  0  0  0  0  0
  -29.0052  -23.4082   21.7428 N   0  0  0  0  0  0  0  0  0  0  0  0
  -21.3045  -29.1074   22.7411 N   0  0  0  0  0  0  0  0  0  0  0  0
  -21.6017  -23.1117   21.3145 N   0  0  0  0  0  0  0  0  0  0  0  0
  -22.5268  -21.2125   18.3811 N   0  3  0  0  0  0  0  0  0  0  0  0
  -23.9489  -18.4566   24.1737 O   0  0  0  0  0  0  0  0  0  0  0  0
  -23.5851  -28.6373   22.7546 O   0  0  0  0  0  0  0  0  0  0  0  0
  -20.4105  -25.6960   21.6476 O   0  0  0  0  0  0  0  0  0  0  0  0
  -23.7101  -22.4449   20.6166 O   0  0  0  0  0  0  0  0  0  0  0  0
  -29.6724  -24.1759   19.6578 O   0  0  0  0  0  0  0  0  0  0  0  0
  -25.7873  -11.7700   20.6388 O   0  0  0  0  0  0  0  0  0  0  0  0
  -28.6195  -27.1330   20.0965 O   0  0  0  0  0  0  0  0  0  1  0  0
  -20.9579   -9.1879   21.2817 F   0  0  0  0  0  0  0  0  0  0  0  0
  -24.4011  -11.9281   23.0254 F   0  0  0  0  0  0  0  0  0  0  0  0
  1  2  1  0  0  0  0
  1  5  2  0  0  0  0
  2  6  2  0  0  0  0
  3  8  2  0  0  0  0
  3 16  1  0  0  0  0
  4  9  1  0  0  0  0
  4 16  2  0  0  0  0
  5 18  1  0  0  0  0
  6 20  1  0  0  0  0
  7 10  2  0  0  0  0
  7 19  1  0  0  0  0
  8 22  1  0  0  0  0
  9 22  2  0  0  0  0
 10 23  1  0  0  0  0
 11 12  2  0  0  0  0
 11 24  1  0  0  0  0
 12 25  1  0  0  0  0
 13 21  1  0  0  0  0
 13 23  2  0  0  0  0
 14 25  2  0  0  0  0
 14 26  1  0  0  0  0
 15 28  2  0  0  0  0
 15 29  1  0  0  0  0
 16 27  1  0  0  0  0
 17 27  1  0  0  0  0
 17 30  2  0  0  0  0
 17 32  1  0  0  0  0
 18 20  2  0  0  0  0
 18 37  1  0  0  0  0
 19 21  2  0  0  0  0
 19 38  1  0  0  0  0
 20 46  1  0  0  0  0
 21 39  1  0  0  0  0
 22 79  1  0  0  0  0
 23 80  1  0  0  0  0
 24 26  2  0  0  0  0
 24 79  1  0  0  0  0
 25 81  1  0  0  0  0
 26 82  1  0  0  0  0
 27 61  2  0  0  0  0
 28 49  1  0  0  0  0
 28 62  1  0  0  0  0
 29 63  2  0  0  0  0
 29 69  1  0  0  0  0
 30 64  1  0  0  0  0
 30 67  1  0  0  0  0
 31 62  2  0  0  0  0
 31 63  1  0  0  0  0
 31 70  1  0  0  0  0
 32 68  1  0  0  0  0
 32 74  2  0  0  0  0
 33 47  1  0  0  0  0
 33 71  1  0  0  0  0
 33 75  2  0  0  0  0
 34 57  1  0  0  0  0
 34 65  1  0  0  0  0
 34 76  2  0  0  0  0
 35 58  1  0  0  0  0
 35 72  1  0  0  0  0
 35 77  2  0  0  0  0
 36 66  1  0  0  0  0
 36 70  1  0  0  0  0
 36 78  2  0  0  0  0
 37 40  1  0  0  0  0
 38 47  1  0  0  0  0
 39 65  1  0  0  0  0
 40 42  1  0  0  0  0
 41 43  1  0  0  0  0
 41 44  1  0  0  0  0
 42 46  1  0  0  0  0
 43 48  1  0  0  0  0
 44 66  1  0  0  0  0
 45 48  1  0  0  0  0
 45 66  1  0  0  0  0
 46 71  1  0  0  0  0
 47 65  1  0  0  0  0
 48 64  1  0  0  0  0
 50 58  1  0  0  0  0
 51 59  1  0  0  0  0
 52 60  1  0  0  0  0
 53 60  1  0  0  0  0
 54 60  1  0  0  0  0
 55 73  1  0  0  0  0
 56 59  1  0  0  0  0
 56 80  1  0  0  0  0
 57 60  1  0  0  0  0
 57 72  1  0  0  0  0
 58 73  1  0  0  0  0
 59 69  1  0  0  0  0
 61 64  1  0  0  0  0
M  CHG  1  73   1
M  ISO  4  36 100  56 101  70 100  80 101
M  END
> <Batch ID>
0196

> <Smiles>
CNC(C)C(=O)NC(C(=O)N1Cc2cc([101O:1][101CH2:1]C(C)Nc3cc(C)nc([100NH:0][100C:0](=O)N4CCCC(n5nc(-c6ccc(Oc7ccc(F)cc7F)cc6)c(C(N)=O)c5N)C4)n3)ccc2CC1C(=O)NC1CCCc2ccccc21)C(C)(C)C

> <Shape>
0.199

> <Color>
0.083

> <Negative vol penalty>
0.000

$$$$

  -OEChem-04052305393D

 82 90  0     1  0  0  0  0  0999 V2000
  -28.1655  -37.0670   19.5617 C   0  0  0  0  0  0  0  0  0  0  0  0
  -28.9697  -35.9374   19.6740 C   0  0  0  0  0  0  0  0  0  0  0  0
  -24.2171   -9.3202   21.4553 C   0  0  0  0  0  0  0  0  0  0  0  0
  -24.7546  -10.3813   23.5582 C   0  0  0  0  0  0  0  0  0  0  0  0
  -26.8802  -37.0628   20.1020 C   0  0  0  0  0  0  0  0  0  0  0  0
  -28.4894  -34.8031   20.3276 C   0  0  0  0  0  0  0  0  0  0  0  0
  -28.9378  -27.6555   20.1640 C   0  0  0  0  0  0  0  0  0  0  0  0
  -23.8331   -8.1651   22.1362 C   0  0  0  0  0  0  0  0  0  0  0  0
  -24.3706   -9.2262   24.2392 C   0  0  0  0  0  0  0  0  0  0  0  0
  -29.2083  -26.5738   21.0011 C   0  0  0  0  0  0  0  0  0  0  0  0
  -21.1500   -7.0798   23.8844 C   0  0  0  0  0  0  0  0  0  0  0  0
  -19.9594   -6.4647   23.4975 C   0  0  0  0  0  0  0  0  0  0  0  0
  -26.9428  -26.6536   21.8261 C   0  0  0  0  0  0  0  0  0  0  0  0
  -21.1764   -4.4487   22.9575 C   0  0  0  0  0  0  0  0  0  0  0  0
  -24.6779  -10.4284   22.1662 C   0  0  0  0  0  0  0  0  0  0  0  0
  -24.2604  -12.7168   21.1192 C   0  0  0  0  0  0  0  0  0  0  0  0
  -26.3804  -35.9246   20.7541 C   0  0  0  0  0  0  0  0  0  0  0  0
  -27.6689  -28.2523   20.1597 C   0  0  0  0  0  0  0  0  0  0  0  0
  -27.1967  -34.7841   20.8783 C   0  0  0  0  0  0  0  0  0  0  0  0
  -26.6581  -27.7411   20.9862 C   0  0  0  0  0  0  0  0  0  0  0  0
  -23.9098   -8.1180   23.5282 C   0  0  0  0  0  0  0  0  0  0  0  0
  -28.2116  -26.0746   21.8344 C   0  0  0  0  0  0  0  0  0  0  0  0
  -22.3539   -6.3793   23.8078 C   0  0  0  0  0  0  0  0  0  0  0  0
  -19.9726   -5.1492   23.0340 C   0  0  0  0  0  0  0  0  0  0  0  0
  -22.3671   -5.0638   23.3444 C   0  0  0  0  0  0  0  0  0  0  0  0
  -25.0753  -11.6217   21.4633 C   0  0  0  0  0  0  0  0  0  0  0  0
  -25.1050  -13.5821   20.4677 C   0  0  0  0  0  0  0  0  0  0  0  0
  -31.3825  -17.0199   22.5894 C   0  0  0  0  0  0  0  0  0  0  0  0
  -30.5089  -19.2108   22.6510 C   0  0  0  0  0  0  0  0  0  0  0  0
  -22.8647  -12.9327   21.3665 C   0  0  0  0  0  0  0  0  0  0  0  0
  -26.5488  -31.1465   20.8471 C   0  0  0  0  0  0  0  0  0  0  0  0
  -23.7653  -29.9073   19.7340 C   0  0  0  0  0  0  0  0  0  0  0  0
  -21.8672  -27.1384   19.1201 C   0  0  0  0  0  0  0  0  0  0  0  0
  -31.0315  -14.4134   20.6590 C   0  0  0  0  0  0  0  0  0  0  0  0
  -25.0021  -35.9837   21.3636 C   0  0  0  0  0  0  0  0  0  0  0  0
  -27.3854  -29.4014   19.2314 C   0  0  0  0  0  0  0  0  0  0  0  0
  -25.2733  -28.3332   21.0043 C   0  0  0  0  0  0  0  0  0  0  0  0
  -24.4310  -34.6117   21.7126 C   0  0  0  0  0  0  0  0  0  0  0  0
  -29.0697  -13.6397   17.7903 C   0  0  0  0  0  0  0  0  0  0  0  0
  -25.4729  -33.7696   22.4420 C   0  0  0  0  0  0  0  0  0  0  0  0
  -27.7500  -13.1336   18.3753 C   0  0  0  0  0  0  0  0  0  0  0  0
  -30.2650  -13.2064   18.6362 C   0  0  0  0  0  0  0  0  0  0  0  0
  -28.8531  -13.0529   20.6503 C   0  0  0  0  0  0  0  0  0  0  0  0
  -26.7023  -33.5259   21.5584 C   0  0  1  0  0  0  0  0  0  0  0  0
  -26.2074  -30.2586   19.6841 C   0  0  1  0  0  0  0  0  0  0  0  0
  -27.6142  -13.5120   19.8625 C   0  0  2  0  0  0  0  0  0  0  0  0
  -19.6211  -26.4449   18.2417 C   0  0  0  0  0  0  0  0  0  0  0  0
  -22.4726  -30.7827   22.3556 C   0  0  0  0  0  0  0  0  0  0  0  0
  -20.5526  -29.2623   21.8356 C   0  0  0  0  0  0  0  0  0  0  0  0
  -21.0729  -31.1744   20.3203 C   0  0  0  0  0  0  0  0  0  0  0  0
  -23.0809  -25.5872   16.9111 C   0  0  0  0  0  0  0  0  0  0  0  0
  -31.6594  -15.5793   22.7580 C   0  0  0  0  0  0  0  0  0  0  0  0
  -30.1130  -21.6514   22.3156 C   0  0  0  0  0  0  0  0  0  0  0  0
  -29.4481  -24.0776   22.2070 C   0  0  0  0  0  0  0  0  0  1  0  0
  -22.6048  -29.1632   20.3491 C   0  0  1  0  0  0  0  0  0  0  0  0
  -21.0784  -26.7089   17.8963 C   0  0  2  0  0  0  0  0  0  0  0  0
  -29.1146  -22.7071   22.7864 C   0  0  1  0  0  0  0  0  0  0  0  0
  -21.7023  -30.0855   21.2165 C   0  0  0  0  0  0  0  0  0  0  0  0
  -26.3405  -11.7747   21.0633 N   0  0  0  0  0  0  0  0  0  0  0  0
  -32.1050  -17.8534   21.8717 N   0  0  0  0  0  0  0  0  0  0  0  0
  -31.5931  -19.1387   21.9086 N   0  0  0  0  0  0  0  0  0  0  0  0
  -26.3268  -12.9761   20.4611 N   0  0  0  0  0  0  0  0  0  0  0  0
  -25.0472  -29.4593   20.0833 N   0  0  0  0  0  0  0  0  0  0  0  0
  -30.0741  -13.5965   20.0352 N   0  0  0  0  0  0  0  0  0  0  0  0
  -24.9143  -14.7945   19.9055 N   0  0  0  0  0  0  0  0  0  0  0  0
  -22.1460  -11.9419   22.0493 N   0  0  0  0  0  0  0  0  0  0  0  0
  -29.7744  -20.3626   22.8768 N   0  0  0  0  0  0  0  0  0  0  0  0
  -26.4250  -32.4965   20.5796 N   0  0  0  0  0  0  0  0  0  0  0  0
  -21.9075  -28.5109   19.2461 N   0  0  0  0  0  0  0  0  0  0  0  0
  -30.7708  -14.7415   21.9839 N   0  0  0  0  0  0  0  0  0  0  0  0
  -21.6573  -25.4636   17.3176 N   0  3  0  0  0  0  0  0  0  0  0  0
  -22.2687  -13.9661   20.9786 O   0  0  0  0  0  0  0  0  0  0  0  0
  -26.8973  -30.6440   21.9091 O   0  0  0  0  0  0  0  0  0  0  0  0
  -23.5427  -30.8467   18.9662 O   0  0  0  0  0  0  0  0  0  0  0  0
  -22.3918  -26.3364   19.8896 O   0  0  0  0  0  0  0  0  0  0  0  0
  -32.0408  -14.8246   20.0768 O   0  0  0  0  0  0  0  0  0  0  0  0
  -27.8075  -22.3495   22.3324 O   0  0  0  0  0  0  0  0  0  0  0  0
  -23.5350   -6.9911   24.1931 O   0  0  0  0  0  0  0  0  0  0  0  0
  -28.4731  -25.0193   22.6529 O   0  0  0  0  0  0  0  0  0  1  0  0
  -18.8290   -4.5581   22.6639 F   0  0  0  0  0  0  0  0  0  0  0  0
  -23.5203   -4.3854   23.2697 F   0  0  0  0  0  0  0  0  0  0  0  0
  -30.0251  -17.7275   23.3631 S   0  0  0  0  0  0  0  0  0  0  0  0
  1  2  1  0  0  0  0
  1  5  2  0  0  0  0
  2  6  2  0  0  0  0
  3  8  2  0  0  0  0
  3 15  1  0  0  0  0
  4  9  1  0  0  0  0
  4 15  2  0  0  0  0
  5 17  1  0  0  0  0
  6 19  1  0  0  0  0
  7 10  2  0  0  0  0
  7 18  1  0  0  0  0
  8 21  1  0  0  0  0
  9 21  2  0  0  0  0
 10 22  1  0  0  0  0
 11 12  2  0  0  0  0
 11 23  1  0  0  0  0
 12 24  1  0  0  0  0
 13 20  1  0  0  0  0
 13 22  2  0  0  0  0
 14 24  2  0  0  0  0
 14 25  1  0  0  0  0
 15 26  1  0  0  0  0
 16 26  1  0  0  0  0
 16 27  2  0  0  0  0
 16 30  1  0  0  0  0
 17 19  2  0  0  0  0
 17 35  1  0  0  0  0
 18 20  2  0  0  0  0
 18 36  1  0  0  0  0
 19 44  1  0  0  0  0
 20 37  1  0  0  0  0
 21 78  1  0  0  0  0
 22 79  1  0  0  0  0
 23 25  2  0  0  0  0
 23 78  1  0  0  0  0
 24 80  1  0  0  0  0
 25 81  1  0  0  0  0
 26 59  2  0  0  0  0
 27 62  1  0  0  0  0
 27 65  1  0  0  0  0
 28 52  1  0  0  0  0
 28 60  2  0  0  0  0
 28 82  1  0  0  0  0
 29 61  2  0  0  0  0
 29 67  1  0  0  0  0
 29 82  1  0  0  0  0
 30 66  1  0  0  0  0
 30 72  2  0  0  0  0
 31 45  1  0  0  0  0
 31 68  1  0  0  0  0
 31 73  2  0  0  0  0
 32 55  1  0  0  0  0
 32 63  1  0  0  0  0
 32 74  2  0  0  0  0
 33 56  1  0  0  0  0
 33 69  1  0  0  0  0
 33 75  2  0  0  0  0
 34 64  1  0  0  0  0
 34 70  1  0  0  0  0
 34 76  2  0  0  0  0
 35 38  1  0  0  0  0
 36 45  1  0  0  0  0
 37 63  1  0  0  0  0
 38 40  1  0  0  0  0
 39 41  1  0  0  0  0
 39 42  1  0  0  0  0
 40 44  1  0  0  0  0
 41 46  1  0  0  0  0
 42 64  1  0  0  0  0
 43 46  1  0  0  0  0
 43 64  1  0  0  0  0
 44 68  1  0  0  0  0
 45 63  1  0  0  0  0
 46 62  1  0  0  0  0
 47 56  1  0  0  0  0
 48 58  1  0  0  0  0
 49 58  1  0  0  0  0
 50 58  1  0  0  0  0
 51 71  1  0  0  0  0
 52 70  1  0  0  0  0
 53 57  1  0  0  0  0
 53 67  1  0  0  0  0
 54 57  1  0  0  0  0
 54 79  1  0  0  0  0
 55 58  1  0  0  0  0
 55 69  1  0  0  0  0
 56 71  1  0  0  0  0
 57 77  1  0  0  0  0
 59 62  1  0  0  0  0
 60 61  1  0  0  0  0
M  CHG  1  71   1
M  ISO  4  34 100  54 101  70 100  79 101
M  END
> <Batch ID>
0196

> <Smiles>
CNC(C)C(=O)NC(C(=O)N1Cc2cc([101O:1][101CH2:1]C(O)CNc3nnc(C[100NH:0][100C:0](=O)N4CCCC(n5nc(-c6ccc(Oc7ccc(F)cc7F)cc6)c(C(N)=O)c5N)C4)s3)ccc2CC1C(=O)NC1CCCc2ccccc21)C(C)(C)C

> <Shape>
0.275

> <Color>
0.121

> <Negative vol penalty>
0.000

$$$$

  -OEChem-04052305393D

 82 90  0     1  0  0  0  0  0999 V2000
  -18.4750  -33.0480   20.5604 C   0  0  0  0  0  0  0  0  0  0  0  0
  -19.8447  -32.9304   20.3473 C   0  0  0  0  0  0  0  0  0  0  0  0
  -26.3405  -13.3162   21.7428 C   0  0  0  0  0  0  0  0  0  0  0  0
  -25.1255  -14.7820   20.2553 C   0  0  0  0  0  0  0  0  0  0  0  0
  -17.8644  -32.3196   21.5805 C   0  0  0  0  0  0  0  0  0  0  0  0
  -20.6049  -32.0852   21.1549 C   0  0  0  0  0  0  0  0  0  0  0  0
  -25.4744  -28.7774   19.4663 C   0  0  0  0  0  0  0  0  0  0  0  0
  -25.2041  -12.5203   21.8868 C   0  0  0  0  0  0  0  0  0  0  0  0
  -23.9891  -13.9861   20.3993 C   0  0  0  0  0  0  0  0  0  0  0  0
  -26.8457  -28.9960   19.5906 C   0  0  0  0  0  0  0  0  0  0  0  0
  -22.7283   -9.9011   22.3613 C   0  0  0  0  0  0  0  0  0  0  0  0
  -22.8914   -8.5179   22.2852 C   0  0  0  0  0  0  0  0  0  0  0  0
  -26.8690  -27.6672   21.6038 C   0  0  0  0  0  0  0  0  0  0  0  0
  -23.7602   -8.7437   20.0422 C   0  0  0  0  0  0  0  0  0  0  0  0
  -26.3012  -14.4471   20.9271 C   0  0  0  0  0  0  0  0  0  0  0  0
  -28.4913  -15.1344   19.8142 C   0  0  0  0  0  0  0  0  0  0  0  0
  -18.6158  -31.4577   22.3948 C   0  0  0  0  0  0  0  0  0  0  0  0
  -24.7869  -28.0097   20.4174 C   0  0  0  0  0  0  0  0  0  0  0  0
  -20.0039  -31.3457   22.1877 C   0  0  0  0  0  0  0  0  0  0  0  0
  -25.4894  -27.4382   21.4879 C   0  0  0  0  0  0  0  0  0  0  0  0
  -24.0284  -12.8552   21.2150 C   0  0  0  0  0  0  0  0  0  0  0  0
  -27.5427  -28.4433   20.6611 C   0  0  0  0  0  0  0  0  0  0  0  0
  -23.0811  -10.7056   21.2778 C   0  0  0  0  0  0  0  0  0  0  0  0
  -23.4074   -7.9392   21.1257 C   0  0  0  0  0  0  0  0  0  0  0  0
  -23.5971  -10.1269   20.1182 C   0  0  0  0  0  0  0  0  0  0  0  0
  -27.4746  -15.2699   20.7784 C   0  0  0  0  0  0  0  0  0  0  0  0
  -29.3703  -16.1512   20.0968 C   0  0  0  0  0  0  0  0  0  0  0  0
  -29.4018  -22.8416   19.7126 C   0  0  0  0  0  0  0  0  0  0  0  0
  -30.0255  -24.7537   19.1541 C   0  0  0  0  0  0  0  0  0  0  0  0
  -28.6288  -14.1752   18.7574 C   0  0  0  0  0  0  0  0  0  0  0  0
  -22.4271  -28.5707   22.4717 C   0  0  0  0  0  0  0  0  0  0  0  0
  -22.6390  -25.3751   22.9870 C   0  0  0  0  0  0  0  0  0  0  0  0
  -24.5366  -22.5410   22.8691 C   0  0  0  0  0  0  0  0  0  0  0  0
  -29.4382  -21.6308   21.9214 C   0  0  0  0  0  0  0  0  0  0  0  0
  -17.9193  -30.7268   23.5153 C   0  0  0  0  0  0  0  0  0  0  0  0
  -23.3125  -27.7610   20.2544 C   0  0  0  0  0  0  0  0  0  0  0  0
  -24.8016  -26.5895   22.5248 C   0  0  0  0  0  0  0  0  0  0  0  0
  -18.7335  -29.5682   24.0854 C   0  0  0  0  0  0  0  0  0  0  0  0
  -30.3149  -18.9357   24.0766 C   0  0  0  0  0  0  0  0  0  0  0  0
  -20.1752  -30.0002   24.3339 C   0  0  0  0  0  0  0  0  0  0  0  0
  -29.7719  -17.7014   23.3528 C   0  0  0  0  0  0  0  0  0  0  0  0
  -29.3924  -20.1420   23.9105 C   0  0  0  0  0  0  0  0  0  0  0  0
  -28.5031  -19.2379   21.7984 C   0  0  0  0  0  0  0  0  0  0  0  0
  -20.8582  -30.4204   23.0268 C   0  0  1  0  0  0  0  0  0  0  0  0
  -22.6209  -27.3901   21.5627 C   0  0  1  0  0  0  0  0  0  0  0  0
  -29.4307  -18.0147   21.8828 C   0  0  2  0  0  0  0  0  0  0  0  0
  -24.4483  -20.0880   23.3912 C   0  0  0  0  0  0  0  0  0  0  0  0
  -32.4867  -26.3297   20.3820 C   0  0  0  0  0  0  0  0  0  0  0  0
  -22.9246  -25.9999   25.9599 C   0  0  0  0  0  0  0  0  0  0  0  0
  -23.7691  -23.6674   26.2978 C   0  0  0  0  0  0  0  0  0  0  0  0
  -21.4564  -24.0428   25.4416 C   0  0  0  0  0  0  0  0  0  0  0  0
  -29.3836  -24.5590   16.7175 C   0  0  0  0  0  0  0  0  0  0  0  0
  -25.0247  -21.8041   20.0447 C   0  0  0  0  0  0  0  0  0  0  0  0
  -31.0362  -28.3018   19.7885 C   0  0  0  0  0  0  0  0  0  0  0  0
  -29.6240  -28.8396   19.5807 C   0  0  0  0  0  0  0  0  0  1  0  0
  -23.4281  -24.4934   23.9245 C   0  0  1  0  0  0  0  0  0  0  0  0
  -24.2431  -21.1541   22.3262 C   0  0  2  0  0  0  0  0  0  0  0  0
  -31.0613  -26.8069   20.1223 C   0  0  1  0  0  0  0  0  0  0  0  0
  -22.9075  -24.5684   25.3876 C   0  0  0  0  0  0  0  0  0  0  0  0
  -27.6870  -16.2921   21.6115 N   0  0  0  0  0  0  0  0  0  0  0  0
  -29.9664  -23.9798   20.2129 N   0  0  0  0  0  0  0  0  0  0  0  0
  -29.1079  -22.8625   18.4108 N   0  0  0  0  0  0  0  0  0  0  0  0
  -28.8473  -16.8082   21.1716 N   0  0  0  0  0  0  0  0  0  0  0  0
  -29.5167  -24.0963   18.0777 N   0  0  0  0  0  0  0  0  0  0  0  0
  -23.3580  -26.3805   22.3252 N   0  0  0  0  0  0  0  0  0  0  0  0
  -29.1165  -20.3812   22.4922 N   0  0  0  0  0  0  0  0  0  0  0  0
  -30.5320  -16.5385   19.5285 N   0  0  0  0  0  0  0  0  0  0  0  0
  -27.6348  -13.1985   18.6081 N   0  0  0  0  0  0  0  0  0  0  0  0
  -29.1608  -21.7307   20.5585 N   0  0  0  0  0  0  0  0  0  0  0  0
  -30.5055  -26.0445   19.0237 N   0  0  0  0  0  0  0  0  0  0  0  0
  -21.2450  -29.2547   22.2612 N   0  0  0  0  0  0  0  0  0  0  0  0
  -23.3978  -23.1538   23.3475 N   0  0  0  0  0  0  0  0  0  0  0  0
  -25.1395  -20.8478   21.1757 N   0  3  0  0  0  0  0  0  0  0  0  0
  -29.6126  -14.1739   17.9792 O   0  0  0  0  0  0  0  0  0  0  0  0
  -23.2857  -28.8401   23.3035 O   0  0  0  0  0  0  0  0  0  0  0  0
  -21.4306  -25.1744   22.8416 O   0  0  0  0  0  0  0  0  0  0  0  0
  -25.6641  -23.0302   22.8722 O   0  0  0  0  0  0  0  0  0  0  0  0
  -29.9491  -22.5358   22.5863 O   0  0  0  0  0  0  0  0  0  0  0  0
  -22.9194  -12.0787   21.3551 O   0  0  0  0  0  0  0  0  0  0  0  0
  -28.8811  -28.6558   20.7852 O   0  0  0  0  0  0  0  0  0  1  0  0
  -23.5653   -6.6110   21.0534 F   0  0  0  0  0  0  0  0  0  0  0  0
  -23.9389  -10.8947   19.0745 F   0  0  0  0  0  0  0  0  0  0  0  0
  1  2  1  0  0  0  0
  1  5  2  0  0  0  0
  2  6  2  0  0  0  0
  3  8  2  0  0  0  0
  3 15  1  0  0  0  0
  4  9  1  0  0  0  0
  4 15  2  0  0  0  0
  5 17  1  0  0  0  0
  6 19  1  0  0  0  0
  7 10  2  0  0  0  0
  7 18  1  0  0  0  0
  8 21  1  0  0  0  0
  9 21  2  0  0  0  0
 10 22  1  0  0  0  0
 11 12  2  0  0  0  0
 11 23  1  0  0  0  0
 12 24  1  0  0  0  0
 13 20  1  0  0  0  0
 13 22  2  0  0  0  0
 14 24  2  0  0  0  0
 14 25  1  0  0  0  0
 15 26  1  0  0  0  0
 16 26  1  0  0  0  0
 16 27  2  0  0  0  0
 16 30  1  0  0  0  0
 17 19  2  0  0  0  0
 17 35  1  0  0  0  0
 18 20  2  0  0  0  0
 18 36  1  0  0  0  0
 19 44  1  0  0  0  0
 20 37  1  0  0  0  0
 21 79  1  0  0  0  0
 22 80  1  0  0  0  0
 23 25  2  0  0  0  0
 23 79  1  0  0  0  0
 24 81  1  0  0  0  0
 25 82  1  0  0  0  0
 26 60  2  0  0  0  0
 27 63  1  0  0  0  0
 27 67  1  0  0  0  0
 28 61  1  0  0  0  0
 28 62  2  0  0  0  0
 28 69  1  0  0  0  0
 29 61  2  0  0  0  0
 29 64  1  0  0  0  0
 29 70  1  0  0  0  0
 30 68  1  0  0  0  0
 30 74  2  0  0  0  0
 31 45  1  0  0  0  0
 31 71  1  0  0  0  0
 31 75  2  0  0  0  0
 32 56  1  0  0  0  0
 32 65  1  0  0  0  0
 32 76  2  0  0  0  0
 33 57  1  0  0  0  0
 33 72  1  0  0  0  0
 33 77  2  0  0  0  0
 34 66  1  0  0  0  0
 34 69  1  0  0  0  0
 34 78  2  0  0  0  0
 35 38  1  0  0  0  0
 36 45  1  0  0  0  0
 37 65  1  0  0  0  0
 38 40  1  0  0  0  0
 39 41  1  0  0  0  0
 39 42  1  0  0  0  0
 40 44  1  0  0  0  0
 41 46  1  0  0  0  0
 42 66  1  0  0  0  0
 43 46  1  0  0  0  0
 43 66  1  0  0  0  0
 44 71  1  0  0  0  0
 45 65  1  0  0  0  0
 46 63  1  0  0  0  0
 47 57  1  0  0  0  0
 48 58  1  0  0  0  0
 49 59  1  0  0  0  0
 50 59  1  0  0  0  0
 51 59  1  0  0  0  0
 52 64  1  0  0  0  0
 53 73  1  0  0  0  0
 54 55  1  0  0  0  0
 54 58  1  0  0  0  0
 55 80  1  0  0  0  0
 56 59  1  0  0  0  0
 56 72  1  0  0  0  0
 57 73  1  0  0  0  0
 58 70  1  0  0  0  0
 60 63  1  0  0  0  0
 62 64  1  0  0  0  0
M  CHG  1  73   1
M  ISO  4  34 100  55 101  69 100  80 101
M  END
> <Batch ID>
0196

> <Smiles>
CNC(C)C(=O)NC(C(=O)N1Cc2cc([101O:1][101CH2:1]CC(C)Nc3nc([100NH:0][100C:0](=O)N4CCCC(n5nc(-c6ccc(Oc7ccc(F)cc7F)cc6)c(C(N)=O)c5N)C4)nn3C)ccc2CC1C(=O)NC1CCCc2ccccc21)C(C)(C)C

> <Shape>
0.254

> <Color>
0.100

> <Negative vol penalty>
0.000

$$$$

  -OEChem-04052305393D

 83 91  0     1  0  0  0  0  0999 V2000
  -26.0534  -30.6468   24.9791 C   0  0  0  0  0  0  0  0  0  0  0  0
  -26.5213  -29.8441   23.9437 C   0  0  0  0  0  0  0  0  0  0  0  0
  -23.0629   -9.8107   20.0554 C   0  0  0  0  0  0  0  0  0  0  0  0
  -23.7807   -9.9694   22.3569 C   0  0  0  0  0  0  0  0  0  0  0  0
  -26.8013  -30.7809   26.1482 C   0  0  0  0  0  0  0  0  0  0  0  0
  -27.7379  -29.1758   24.0763 C   0  0  0  0  0  0  0  0  0  0  0  0
  -27.4895  -24.3619   22.5237 C   0  0  0  0  0  0  0  0  0  0  0  0
  -22.3008   -8.6859   20.3706 C   0  0  0  0  0  0  0  0  0  0  0  0
  -23.0185   -8.8445   22.6721 C   0  0  0  0  0  0  0  0  0  0  0  0
  -27.5223  -24.1339   21.1487 C   0  0  0  0  0  0  0  0  0  0  0  0
  -19.7705   -8.1255   23.2668 C   0  0  0  0  0  0  0  0  0  0  0  0
  -18.9918   -8.1754   24.4230 C   0  0  0  0  0  0  0  0  0  0  0  0
  -29.8640  -23.5756   21.3033 C   0  0  0  0  0  0  0  0  0  0  0  0
  -20.1960   -6.2807   25.3159 C   0  0  0  0  0  0  0  0  0  0  0  0
  -31.0758  -19.4300   18.7395 C   0  0  0  0  0  0  0  0  0  0  0  0
  -23.8030  -10.4525   21.0485 C   0  0  0  0  0  0  0  0  0  0  0  0
  -24.1774  -12.9593   20.7599 C   0  0  0  0  0  0  0  0  0  0  0  0
  -28.0231  -30.1062   26.2990 C   0  0  0  0  0  0  0  0  0  0  0  0
  -28.6482  -24.2088   23.2984 C   0  0  0  0  0  0  0  0  0  0  0  0
  -28.5035  -29.3020   25.2479 C   0  0  0  0  0  0  0  0  0  0  0  0
  -29.8426  -23.7998   22.6883 C   0  0  0  0  0  0  0  0  0  0  0  0
  -29.5723  -18.6776   20.3444 C   0  0  0  0  0  0  0  0  0  0  0  0
  -29.8038  -19.5620   19.2516 C   0  0  0  0  0  0  0  0  0  0  0  0
  -22.2785   -8.2028   21.6790 C   0  0  0  0  0  0  0  0  0  0  0  0
  -28.7103  -23.7435   20.5378 C   0  0  0  0  0  0  0  0  0  0  0  0
  -20.7619   -7.1531   23.1351 C   0  0  0  0  0  0  0  0  0  0  0  0
  -19.2045   -7.2531   25.4475 C   0  0  0  0  0  0  0  0  0  0  0  0
  -20.9747   -6.2308   24.1597 C   0  0  0  0  0  0  0  0  0  0  0  0
  -24.5910  -11.6141   20.7234 C   0  0  0  0  0  0  0  0  0  0  0  0
  -30.6763  -17.9030   20.6259 C   0  0  0  0  0  0  0  0  0  0  0  0
  -25.2850  -13.6698   20.3663 C   0  0  0  0  0  0  0  0  0  0  0  0
  -22.9058  -13.5167   21.1176 C   0  0  0  0  0  0  0  0  0  0  0  0
  -30.4150  -26.1434   25.0983 C   0  0  0  0  0  0  0  0  0  0  0  0
  -31.9691  -23.3948   25.8415 C   0  0  0  0  0  0  0  0  0  0  0  0
  -32.7919  -20.2024   24.9594 C   0  0  0  0  0  0  0  0  0  0  0  0
  -30.7763  -14.6404   20.5882 C   0  0  0  0  0  0  0  0  0  0  0  0
  -28.8190  -30.3195   27.5622 C   0  0  0  0  0  0  0  0  0  0  0  0
  -28.5899  -24.4327   24.7847 C   0  0  0  0  0  0  0  0  0  0  0  0
  -31.1094  -23.6017   23.4785 C   0  0  0  0  0  0  0  0  0  0  0  0
  -29.9173  -29.2805   27.7728 C   0  0  0  0  0  0  0  0  0  0  0  0
  -29.6539  -12.1077   18.3516 C   0  0  0  0  0  0  0  0  0  0  0  0
  -30.7083  -29.0713   26.4854 C   0  0  0  0  0  0  0  0  0  0  0  0
  -28.2053  -11.8604   18.7763 C   0  0  0  0  0  0  0  0  0  0  0  0
  -30.5515  -12.4018   19.5515 C   0  0  0  0  0  0  0  0  0  0  0  0
  -28.6336  -13.2482   20.8474 C   0  0  0  0  0  0  0  0  0  0  0  0
  -29.8066  -28.5414   25.3639 C   0  0  1  0  0  0  0  0  0  0  0  0
  -29.9523  -24.7452   25.3958 C   0  0  1  0  0  0  0  0  0  0  0  0
  -27.6791  -13.0024   19.6663 C   0  0  2  0  0  0  0  0  0  0  0  0
  -28.2939  -18.5958   21.0953 C   0  0  0  0  0  0  0  0  0  0  0  0
  -33.7531  -17.8962   25.1939 C   0  0  0  0  0  0  0  0  0  0  0  0
  -34.5586  -24.7839   25.0199 C   0  0  0  0  0  0  0  0  0  0  0  0
  -35.6514  -22.5337   24.9173 C   0  0  0  0  0  0  0  0  0  0  0  0
  -34.7376  -23.3771   27.0798 C   0  0  0  0  0  0  0  0  0  0  0  0
  -30.3027  -19.1629   26.1770 C   0  0  0  0  0  0  0  0  0  0  0  0
  -30.8454  -16.8711   21.6737 C   0  0  0  0  0  0  0  0  0  0  0  0
  -29.1288  -21.3437   17.6405 C   0  0  0  0  0  0  0  0  0  0  0  0
  -27.5428  -23.0575   18.5827 C   0  0  0  0  0  0  0  0  0  1  0  0
  -33.1414  -22.6396   25.2632 C   0  0  1  0  0  0  0  0  0  0  0  0
  -32.7472  -18.8993   25.7368 C   0  0  2  0  0  0  0  0  0  0  0  0
  -27.9012  -22.2104   17.3666 C   0  0  1  0  0  0  0  0  0  0  0  0
  -34.4990  -23.3391   25.5546 C   0  0  0  0  0  0  0  0  0  0  0  0
  -25.8620  -11.4757   20.3370 N   0  0  0  0  0  0  0  0  0  0  0  0
  -26.2567  -12.7431   20.1270 N   0  0  0  0  0  0  0  0  0  0  0  0
  -31.0030  -23.8391   24.9276 N   0  0  0  0  0  0  0  0  0  0  0  0
  -29.9972  -13.4954   20.3532 N   0  0  0  0  0  0  0  0  0  0  0  0
  -25.5128  -14.9906   20.2050 N   0  0  0  0  0  0  0  0  0  0  0  0
  -21.8770  -12.6442   21.4978 N   0  0  0  0  0  0  0  0  0  0  0  0
  -28.8712  -20.4549   18.7513 N   0  0  0  0  0  0  0  0  0  0  0  0
  -29.5538  -27.1278   25.5440 N   0  0  0  0  0  0  0  0  0  0  0  0
  -33.0466  -21.2793   25.7819 N   0  0  0  0  0  0  0  0  0  0  0  0
  -30.1731  -15.6320   21.3520 N   0  0  0  0  0  0  0  0  0  0  0  0
  -31.3881  -18.2934   25.6546 N   0  3  0  0  0  0  0  0  0  0  0  0
  -22.6834  -14.7508   21.0847 O   0  0  0  0  0  0  0  0  0  0  0  0
  -31.4757  -26.3164   24.5094 O   0  0  0  0  0  0  0  0  0  0  0  0
  -31.9091  -23.5775   27.0599 O   0  0  0  0  0  0  0  0  0  0  0  0
  -32.6219  -20.2588   23.7435 O   0  0  0  0  0  0  0  0  0  0  0  0
  -31.9224  -14.7716   20.1453 O   0  0  0  0  0  0  0  0  0  0  0  0
  -28.1893  -23.1004   16.2863 O   0  0  0  0  0  0  0  0  0  0  0  0
  -21.5347   -7.1053   21.9870 O   0  0  0  0  0  0  0  0  0  0  0  0
  -28.7453  -23.5209   19.1957 O   0  0  0  0  0  0  0  0  0  1  0  0
  -18.4577   -7.3021   26.5584 F   0  0  0  0  0  0  0  0  0  0  0  0
  -21.9264   -5.2951   24.0394 F   0  0  0  0  0  0  0  0  0  0  0  0
  -31.9848  -18.2435   19.5751 S   0  0  0  0  0  0  0  0  0  0  0  0
  1  2  1  0  0  0  0
  1  5  2  0  0  0  0
  2  6  2  0  0  0  0
  3  8  2  0  0  0  0
  3 16  1  0  0  0  0
  4  9  1  0  0  0  0
  4 16  2  0  0  0  0
  5 18  1  0  0  0  0
  6 20  1  0  0  0  0
  7 10  2  0  0  0  0
  7 19  1  0  0  0  0
  8 24  1  0  0  0  0
  9 24  2  0  0  0  0
 10 25  1  0  0  0  0
 11 12  2  0  0  0  0
 11 26  1  0  0  0  0
 12 27  1  0  0  0  0
 13 21  1  0  0  0  0
 13 25  2  0  0  0  0
 14 27  2  0  0  0  0
 14 28  1  0  0  0  0
 15 23  2  0  0  0  0
 15 83  1  0  0  0  0
 16 29  1  0  0  0  0
 17 29  1  0  0  0  0
 17 31  2  0  0  0  0
 17 32  1  0  0  0  0
 18 20  2  0  0  0  0
 18 37  1  0  0  0  0
 19 21  2  0  0  0  0
 19 38  1  0  0  0  0
 20 46  1  0  0  0  0
 21 39  1  0  0  0  0
 22 23  1  0  0  0  0
 22 30  2  0  0  0  0
 22 49  1  0  0  0  0
 23 68  1  0  0  0  0
 24 79  1  0  0  0  0
 25 80  1  0  0  0  0
 26 28  2  0  0  0  0
 26 79  1  0  0  0  0
 27 81  1  0  0  0  0
 28 82  1  0  0  0  0
 29 62  2  0  0  0  0
 30 55  1  0  0  0  0
 30 83  1  0  0  0  0
 31 63  1  0  0  0  0
 31 66  1  0  0  0  0
 32 67  1  0  0  0  0
 32 73  2  0  0  0  0
 33 47  1  0  0  0  0
 33 69  1  0  0  0  0
 33 74  2  0  0  0  0
 34 58  1  0  0  0  0
 34 64  1  0  0  0  0
 34 75  2  0  0  0  0
 35 59  1  0  0  0  0
 35 70  1  0  0  0  0
 35 76  2  0  0  0  0
 36 65  1  0  0  0  0
 36 71  1  0  0  0  0
 36 77  2  0  0  0  0
 37 40  1  0  0  0  0
 38 47  1  0  0  0  0
 39 64  1  0  0  0  0
 40 42  1  0  0  0  0
 41 43  1  0  0  0  0
 41 44  1  0  0  0  0
 42 46  1  0  0  0  0
 43 48  1  0  0  0  0
 44 65  1  0  0  0  0
 45 48  1  0  0  0  0
 45 65  1  0  0  0  0
 46 69  1  0  0  0  0
 47 64  1  0  0  0  0
 48 63  1  0  0  0  0
 50 59  1  0  0  0  0
 51 61  1  0  0  0  0
 52 61  1  0  0  0  0
 53 61  1  0  0  0  0
 54 72  1  0  0  0  0
 55 71  1  0  0  0  0
 56 60  1  0  0  0  0
 56 68  1  0  0  0  0
 57 60  1  0  0  0  0
 57 80  1  0  0  0  0
 58 61  1  0  0  0  0
 58 70  1  0  0  0  0
 59 72  1  0  0  0  0
 60 78  1  0  0  0  0
 62 63  1  0  0  0  0
M  CHG  1  72   1
M  ISO  4  36 100  57 101  71 100  80 101
M  END
> <Batch ID>
0196

> <Smiles>
CNC(C)C(=O)NC(C(=O)N1Cc2cc([101O:1][101CH2:1]C(O)CNc3csc(C[100NH:0][100C:0](=O)N4CCCC(n5nc(-c6ccc(Oc7ccc(F)cc7F)cc6)c(C(N)=O)c5N)C4)c3C)ccc2CC1C(=O)NC1CCCc2ccccc21)C(C)(C)C

> <Shape>
0.242

> <Color>
0.197

> <Negative vol penalty>
0.000

$$$$

  -OEChem-04052305393D

 83 91  0     1  0  0  0  0  0999 V2000
  -30.0980  -21.1942   21.8291 C   0  0  0  0  0  0  0  0  0  0  0  0
  -28.7133  -21.3228   21.8682 C   0  0  0  0  0  0  0  0  0  0  0  0
  -29.5652  -26.0001   18.4303 C   0  0  0  0  0  0  0  0  0  0  0  0
  -29.7430  -25.6663   20.8166 C   0  0  0  0  0  0  0  0  0  0  0  0
  -30.6763  -20.0711   21.2389 C   0  0  0  0  0  0  0  0  0  0  0  0
  -27.9061  -20.3288   21.3161 C   0  0  0  0  0  0  0  0  0  0  0  0
  -24.0093  -19.1054   24.3100 C   0  0  0  0  0  0  0  0  0  0  0  0
  -30.9117  -25.6669   18.2834 C   0  0  0  0  0  0  0  0  0  0  0  0
  -31.0894  -25.3330   20.6697 C   0  0  0  0  0  0  0  0  0  0  0  0
  -22.9188  -19.9739   24.3226 C   0  0  0  0  0  0  0  0  0  0  0  0
  -34.2106  -24.5538   17.2378 C   0  0  0  0  0  0  0  0  0  0  0  0
  -34.5538  -23.6814   16.2050 C   0  0  0  0  0  0  0  0  0  0  0  0
  -21.7407  -18.5070   22.8129 C   0  0  0  0  0  0  0  0  0  0  0  0
  -33.1317  -21.9821   17.1678 C   0  0  0  0  0  0  0  0  0  0  0  0
  -20.1023  -27.0486   23.2138 C   0  0  0  0  0  0  0  0  0  0  0  0
  -18.1722  -28.3255   21.8521 C   0  0  0  0  0  0  0  0  0  0  0  0
  -28.9809  -25.9999   19.6969 C   0  0  0  0  0  0  0  0  0  0  0  0
  -26.4881  -25.4696   19.8093 C   0  0  0  0  0  0  0  0  0  0  0  0
  -29.8755  -19.0582   20.6880 C   0  0  0  0  0  0  0  0  0  0  0  0
  -23.9779  -17.9345   23.5389 C   0  0  0  0  0  0  0  0  0  0  0  0
  -28.4742  -19.1917   20.7169 C   0  0  0  0  0  0  0  0  0  0  0  0
  -22.8311  -17.6239   22.7943 C   0  0  0  0  0  0  0  0  0  0  0  0
  -31.6738  -25.3333   19.4031 C   0  0  0  0  0  0  0  0  0  0  0  0
  -21.7854  -19.6763   23.5717 C   0  0  0  0  0  0  0  0  0  0  0  0
  -33.3280  -24.1403   18.2357 C   0  0  0  0  0  0  0  0  0  0  0  0
  -34.0143  -22.3956   16.1700 C   0  0  0  0  0  0  0  0  0  0  0  0
  -32.7885  -22.8545   18.2007 C   0  0  0  0  0  0  0  0  0  0  0  0
  -27.5902  -26.3446   19.8494 C   0  0  0  0  0  0  0  0  0  0  0  0
  -20.0240  -28.4256   23.1666 C   0  0  0  0  0  0  0  0  0  0  0  0
  -19.1239  -26.3708   22.5156 C   0  0  0  0  0  0  0  0  0  0  0  0
  -25.3977  -26.2815   20.0049 C   0  0  0  0  0  0  0  0  0  0  0  0
  -26.4532  -24.0498   19.6128 C   0  0  0  0  0  0  0  0  0  0  0  0
  -25.6750  -16.8101   21.0978 C   0  0  0  0  0  0  0  0  0  0  0  0
  -23.8790  -14.1521   21.5791 C   0  0  0  0  0  0  0  0  0  0  0  0
  -20.9977  -12.7827   22.7916 C   0  0  0  0  0  0  0  0  0  0  0  0
  -22.8573  -30.4512   22.7078 C   0  0  0  0  0  0  0  0  0  0  0  0
  -30.5471  -17.8853   20.0186 C   0  0  0  0  0  0  0  0  0  0  0  0
  -25.1520  -16.9946   23.5571 C   0  0  0  0  0  0  0  0  0  0  0  0
  -22.7392  -16.3695   21.9658 C   0  0  0  0  0  0  0  0  0  0  0  0
  -29.6145  -16.6986   19.7901 C   0  0  0  0  0  0  0  0  0  0  0  0
  -25.0063  -31.3246   20.0067 C   0  0  0  0  0  0  0  0  0  0  0  0
  -28.2900  -17.1672   19.1961 C   0  0  0  0  0  0  0  0  0  0  0  0
  -25.7830  -30.0371   19.7262 C   0  0  0  0  0  0  0  0  0  0  0  0
  -24.7423  -31.5107   21.4993 C   0  0  0  0  0  0  0  0  0  0  0  0
  -24.8638  -29.0787   21.8792 C   0  0  0  0  0  0  0  0  0  0  0  0
  -27.5645  -18.1230   20.1508 C   0  0  1  0  0  0  0  0  0  0  0  0
  -25.2110  -16.0884   22.3313 C   0  0  1  0  0  0  0  0  0  0  0  0
  -25.1053  -28.8191   20.3823 C   0  0  2  0  0  0  0  0  0  0  0  0
  -19.7969  -10.5897   23.0059 C   0  0  0  0  0  0  0  0  0  0  0  0
  -23.1235  -14.2799   18.6256 C   0  0  0  0  0  0  0  0  0  0  0  0
  -21.2403  -12.7031   19.1108 C   0  0  0  0  0  0  0  0  0  0  0  0
  -23.5983  -11.9788   19.4823 C   0  0  0  0  0  0  0  0  0  0  0  0
  -21.0080  -12.9337   25.7473 C   0  0  0  0  0  0  0  0  0  0  0  0
  -21.0392  -29.2449   23.8905 C   0  0  0  0  0  0  0  0  0  0  0  0
  -20.1736  -24.2289   23.2480 C   0  0  0  0  0  0  0  0  0  0  0  0
  -20.9933  -21.9088   23.7822 C   0  0  0  0  0  0  0  0  0  1  0  0
  -22.5515  -13.6510   21.0635 C   0  0  1  0  0  0  0  0  0  0  0  0
  -20.7509  -11.5699   23.6705 C   0  0  2  0  0  0  0  0  0  0  0  0
  -19.9452  -22.7328   23.0422 C   0  0  1  0  0  0  0  0  0  0  0  0
  -22.6306  -13.1779   19.5845 C   0  0  0  0  0  0  0  0  0  0  0  0
  -19.0688  -29.0994   22.4930 N   0  0  0  0  0  0  0  0  0  0  0  0
  -18.1401  -26.9796   21.8215 N   0  0  0  0  0  0  0  0  0  0  0  0
  -27.2326  -27.6151   20.0543 N   0  0  0  0  0  0  0  0  0  0  0  0
  -25.8936  -27.5444   20.1446 N   0  0  0  0  0  0  0  0  0  0  0  0
  -23.9156  -15.4854   22.0113 N   0  0  0  0  0  0  0  0  0  0  0  0
  -24.0969  -30.3213   22.0602 N   0  0  0  0  0  0  0  0  0  0  0  0
  -24.0727  -26.0313   20.0694 N   0  0  0  0  0  0  0  0  0  0  0  0
  -27.6652  -23.3710   19.4269 N   0  0  0  0  0  0  0  0  0  0  0  0
  -19.1675  -24.9870   22.5385 N   0  0  0  0  0  0  0  0  0  0  0  0
  -26.9266  -17.3832   21.2186 N   0  0  0  0  0  0  0  0  0  0  0  0
  -22.1136  -12.6199   21.9981 N   0  0  0  0  0  0  0  0  0  0  0  0
  -22.3120  -29.2738   23.2049 N   0  0  0  0  0  0  0  0  0  0  0  0
  -20.1632  -11.9866   24.9751 N   0  3  0  0  0  0  0  0  0  0  0  0
  -25.3778  -23.4045   19.5861 O   0  0  0  0  0  0  0  0  0  0  0  0
  -24.9517  -16.8432   20.1091 O   0  0  0  0  0  0  0  0  0  0  0  0
  -24.8459  -13.3866   21.6042 O   0  0  0  0  0  0  0  0  0  0  0  0
  -20.2711  -13.7738   22.8047 O   0  0  0  0  0  0  0  0  0  0  0  0
  -22.2767  -31.5353   22.8289 O   0  0  0  0  0  0  0  0  0  0  0  0
  -18.6639  -22.3791   23.5671 O   0  0  0  0  0  0  0  0  0  0  0  0
  -32.9876  -25.0078   19.2600 O   0  0  0  0  0  0  0  0  0  0  0  0
  -20.7198  -20.5227   23.5816 O   0  0  0  0  0  0  0  0  0  1  0  0
  -34.3428  -21.5585   15.1772 F   0  0  0  0  0  0  0  0  0  0  0  0
  -31.9391  -22.4520   19.1558 F   0  0  0  0  0  0  0  0  0  0  0  0
  1  2  1  0  0  0  0
  1  5  2  0  0  0  0
  2  6  2  0  0  0  0
  3  8  2  0  0  0  0
  3 17  1  0  0  0  0
  4  9  1  0  0  0  0
  4 17  2  0  0  0  0
  5 19  1  0  0  0  0
  6 21  1  0  0  0  0
  7 10  2  0  0  0  0
  7 20  1  0  0  0  0
  8 23  1  0  0  0  0
  9 23  2  0  0  0  0
 10 24  1  0  0  0  0
 11 12  2  0  0  0  0
 11 25  1  0  0  0  0
 12 26  1  0  0  0  0
 13 22  1  0  0  0  0
 13 24  2  0  0  0  0
 14 26  2  0  0  0  0
 14 27  1  0  0  0  0
 15 29  2  0  0  0  0
 15 30  1  0  0  0  0
 16 61  2  0  0  0  0
 16 62  1  0  0  0  0
 17 28  1  0  0  0  0
 18 28  1  0  0  0  0
 18 31  2  0  0  0  0
 18 32  1  0  0  0  0
 19 21  2  0  0  0  0
 19 37  1  0  0  0  0
 20 22  2  0  0  0  0
 20 38  1  0  0  0  0
 21 46  1  0  0  0  0
 22 39  1  0  0  0  0
 23 80  1  0  0  0  0
 24 81  1  0  0  0  0
 25 27  2  0  0  0  0
 25 80  1  0  0  0  0
 26 82  1  0  0  0  0
 27 83  1  0  0  0  0
 28 63  2  0  0  0  0
 29 54  1  0  0  0  0
 29 61  1  0  0  0  0
 30 62  2  0  0  0  0
 30 69  1  0  0  0  0
 31 64  1  0  0  0  0
 31 67  1  0  0  0  0
 32 68  1  0  0  0  0
 32 74  2  0  0  0  0
 33 47  1  0  0  0  0
 33 70  1  0  0  0  0
 33 75  2  0  0  0  0
 34 57  1  0  0  0  0
 34 65  1  0  0  0  0
 34 76  2  0  0  0  0
 35 58  1  0  0  0  0
 35 71  1  0  0  0  0
 35 77  2  0  0  0  0
 36 66  1  0  0  0  0
 36 72  1  0  0  0  0
 36 78  2  0  0  0  0
 37 40  1  0  0  0  0
 38 47  1  0  0  0  0
 39 65  1  0  0  0  0
 40 42  1  0  0  0  0
 41 43  1  0  0  0  0
 41 44  1  0  0  0  0
 42 46  1  0  0  0  0
 43 48  1  0  0  0  0
 44 66  1  0  0  0  0
 45 48  1  0  0  0  0
 45 66  1  0  0  0  0
 46 70  1  0  0  0  0
 47 65  1  0  0  0  0
 48 64  1  0  0  0  0
 49 58  1  0  0  0  0
 50 60  1  0  0  0  0
 51 60  1  0  0  0  0
 52 60  1  0  0  0  0
 53 73  1  0  0  0  0
 54 72  1  0  0  0  0
 55 59  1  0  0  0  0
 55 69  1  0  0  0  0
 56 59  1  0  0  0  0
 56 81  1  0  0  0  0
 57 60  1  0  0  0  0
 57 71  1  0  0  0  0
 58 73  1  0  0  0  0
 59 79  1  0  0  0  0
 63 64  1  0  0  0  0
M  CHG  1  73   1
M  ISO  4  36 100  56 101  72 100  81 101
M  END
> <Batch ID>
0196

> <Smiles>
CNC(C)C(=O)NC(C(=O)N1Cc2cc([101O:1][101CH2:1]C(O)CNc3cc(C[100NH:0][100C:0](=O)N4CCCC(n5nc(-c6ccc(Oc7ccc(F)cc7F)cc6)c(C(N)=O)c5N)C4)ncn3)ccc2CC1C(=O)NC1CCCc2ccccc21)C(C)(C)C

> <Shape>
0.220

> <Color>
0.061

> <Negative vol penalty>
0.000

$$$$

  -OEChem-04052305393D

 84 92  0     1  0  0  0  0  0999 V2000
  -23.2971   -8.0865   21.7753 C   0  0  0  0  0  0  0  0  0  0  0  0
  -22.8742   -8.7100   20.6058 C   0  0  0  0  0  0  0  0  0  0  0  0
  -24.7215  -31.3774   22.5421 C   0  0  0  0  0  0  0  0  0  0  0  0
  -26.6537  -31.2741   21.0955 C   0  0  0  0  0  0  0  0  0  0  0  0
  -23.4401   -8.8284   22.9471 C   0  0  0  0  0  0  0  0  0  0  0  0
  -22.5931  -10.0758   20.6076 C   0  0  0  0  0  0  0  0  0  0  0  0
  -25.5300  -15.7925   16.1668 C   0  0  0  0  0  0  0  0  0  0  0  0
  -25.0254  -32.7026   22.8536 C   0  0  0  0  0  0  0  0  0  0  0  0
  -26.9577  -32.5994   21.4069 C   0  0  0  0  0  0  0  0  0  0  0  0
  -26.0906  -16.9114   15.5504 C   0  0  0  0  0  0  0  0  0  0  0  0
  -24.6725  -35.7430   21.4168 C   0  0  0  0  0  0  0  0  0  0  0  0
  -23.6272  -36.6665   21.4107 C   0  0  0  0  0  0  0  0  0  0  0  0
  -25.5146  -18.2691   17.4669 C   0  0  0  0  0  0  0  0  0  0  0  0
  -24.0415  -37.1511   23.7411 C   0  0  0  0  0  0  0  0  0  0  0  0
  -25.5357  -30.6631   21.6631 C   0  0  0  0  0  0  0  0  0  0  0  0
  -24.4099  -28.8326   20.2886 C   0  0  0  0  0  0  0  0  0  0  0  0
  -23.1699  -10.2059   22.9609 C   0  0  0  0  0  0  0  0  0  0  0  0
  -24.9727  -15.9045   17.4436 C   0  0  0  0  0  0  0  0  0  0  0  0
  -22.7314  -10.8367   21.7809 C   0  0  0  0  0  0  0  0  0  0  0  0
  -24.9628  -17.1491   18.0945 C   0  0  0  0  0  0  0  0  0  0  0  0
  -26.1435  -33.3136   22.2859 C   0  0  0  0  0  0  0  0  0  0  0  0
  -26.0826  -18.1467   16.1988 C   0  0  0  0  0  0  0  0  0  0  0  0
  -25.4023  -35.5235   22.5851 C   0  0  0  0  0  0  0  0  0  0  0  0
  -23.3117  -37.3706   22.5727 C   0  0  0  0  0  0  0  0  0  0  0  0
  -25.0868  -36.2275   23.7472 C   0  0  0  0  0  0  0  0  0  0  0  0
  -25.2225  -29.2940   21.3414 C   0  0  0  0  0  0  0  0  0  0  0  0
  -29.9883  -22.5030   20.2489 C   0  0  0  0  0  0  0  0  0  0  0  0
  -29.7486  -22.9512   18.9754 C   0  0  0  0  0  0  0  0  0  0  0  0
  -24.4307  -27.4649   20.4127 C   0  0  0  0  0  0  0  0  0  0  0  0
  -29.3717  -20.8201   18.3304 C   0  0  0  0  0  0  0  0  0  0  0  0
  -23.6997  -29.5740   19.2878 C   0  0  0  0  0  0  0  0  0  0  0  0
  -23.2657  -14.1824   20.3065 C   0  0  0  0  0  0  0  0  0  0  0  0
  -25.3014  -16.1282   21.5231 C   0  0  0  0  0  0  0  0  0  0  0  0
  -27.9434  -18.0772   22.4497 C   0  0  0  0  0  0  0  0  0  0  0  0
  -28.3568  -23.6505   22.8392 C   0  0  0  0  0  0  0  0  0  0  0  0
  -23.2936  -10.9569   24.2630 C   0  0  0  0  0  0  0  0  0  0  0  0
  -24.3028  -14.7394   18.1200 C   0  0  0  0  0  0  0  0  0  0  0  0
  -24.3213  -17.2299   19.4528 C   0  0  0  0  0  0  0  0  0  0  0  0
  -23.3356  -12.4730   24.0901 C   0  0  0  0  0  0  0  0  0  0  0  0
  -24.9171  -24.0092   23.6857 C   0  0  0  0  0  0  0  0  0  0  0  0
  -22.2427  -12.9313   23.1298 C   0  0  0  0  0  0  0  0  0  0  0  0
  -24.5320  -25.3626   23.0859 C   0  0  0  0  0  0  0  0  0  0  0  0
  -26.3426  -24.0196   24.2333 C   0  0  0  0  0  0  0  0  0  0  0  0
  -26.9862  -25.8163   22.6740 C   0  0  0  0  0  0  0  0  0  0  0  0
  -22.4406  -12.3211   21.7369 C   0  0  1  0  0  0  0  0  0  0  0  0
  -24.4944  -14.7366   19.6473 C   0  0  1  0  0  0  0  0  0  0  0  0
  -25.5767  -25.8383   22.0584 C   0  0  2  0  0  0  0  0  0  0  0  0
  -29.1688  -18.8986   24.4798 C   0  0  0  0  0  0  0  0  0  0  0  0
  -28.1441  -19.2731   13.7516 C   0  0  0  0  0  0  0  0  0  0  0  0
  -23.0467  -18.1056   22.0795 C   0  0  0  0  0  0  0  0  0  0  0  0
  -24.6656  -19.4651   23.4208 C   0  0  0  0  0  0  0  0  0  0  0  0
  -24.1128  -17.1363   24.1236 C   0  0  0  0  0  0  0  0  0  0  0  0
  -29.6040  -24.8830   17.4028 C   0  0  0  0  0  0  0  0  0  0  0  0
  -30.4647  -16.7853   21.5934 C   0  0  0  0  0  0  0  0  0  0  0  0
  -30.3415  -23.4217   21.3669 C   0  0  0  0  0  0  0  0  0  0  0  0
  -28.7779  -20.2829   15.9673 C   0  0  0  0  0  0  0  0  0  0  0  0
  -25.5577  -17.5049   22.0819 C   0  0  1  0  0  0  0  0  0  0  0  0
  -29.0954  -17.8246   23.4055 C   0  0  2  0  0  0  0  0  0  0  0  0
  -28.0221  -19.1578   15.2640 C   0  0  1  0  0  0  0  0  0  1  0  0
  -24.3511  -18.0467   22.8993 C   0  0  0  0  0  0  0  0  0  0  0  0
  -25.7230  -28.3001   22.0801 N   0  0  0  0  0  0  0  0  0  0  0  0
  -29.9135  -21.1925   20.5441 N   0  0  0  0  0  0  0  0  0  0  0  0
  -29.4317  -22.1127   17.9772 N   0  0  0  0  0  0  0  0  0  0  0  0
  -29.5971  -20.3227   19.5624 N   0  0  0  0  0  0  0  0  0  0  0  0
  -25.2235  -27.2005   21.4906 N   0  0  0  0  0  0  0  0  0  0  0  0
  -24.7031  -16.0599   20.2591 N   0  0  0  0  0  0  0  0  0  0  0  0
  -27.2841  -24.4785   23.2091 N   0  0  0  0  0  0  0  0  0  0  0  0
  -23.8481  -26.4746   19.7040 N   0  0  0  0  0  0  0  0  0  0  0  0
  -23.7865  -30.9728   19.3052 N   0  0  0  0  0  0  0  0  0  0  0  0
  -29.8368  -24.3346   18.7015 N   0  0  0  0  0  0  0  0  0  0  0  0
  -29.0481  -19.9106   17.3375 N   0  0  0  0  0  0  0  0  0  0  0  0
  -23.4865  -13.0212   21.0224 N   0  0  0  0  0  0  0  0  0  0  0  0
  -26.8003  -17.4126   22.8408 N   0  0  0  0  0  0  0  0  0  0  0  0
  -29.1981  -24.1587   21.8570 N   0  0  0  0  0  0  0  0  0  0  0  0
  -30.3889  -17.8109   22.6655 N   0  3  0  0  0  0  0  0  0  0  0  0
  -22.9953  -29.0135   18.4142 O   0  0  0  0  0  0  0  0  0  0  0  0
  -22.1956  -14.7653   20.1773 O   0  0  0  0  0  0  0  0  0  0  0  0
  -25.6170  -15.1384   22.1895 O   0  0  0  0  0  0  0  0  0  0  0  0
  -28.0462  -18.7953   21.4577 O   0  0  0  0  0  0  0  0  0  0  0  0
  -28.5473  -22.5383   23.3429 O   0  0  0  0  0  0  0  0  0  0  0  0
  -26.4403  -34.6068   22.5894 O   0  0  0  0  0  0  0  0  0  0  0  0
  -26.6357  -19.2340   15.5932 O   0  0  0  0  0  0  0  0  0  1  0  0
  -22.3089  -38.2585   22.5663 F   0  0  0  0  0  0  0  0  0  0  0  0
  -25.7851  -36.0217   24.8723 F   0  0  0  0  0  0  0  0  0  0  0  0
  1  2  1  0  0  0  0
  1  5  2  0  0  0  0
  2  6  2  0  0  0  0
  3  8  2  0  0  0  0
  3 15  1  0  0  0  0
  4  9  1  0  0  0  0
  4 15  2  0  0  0  0
  5 17  1  0  0  0  0
  6 19  1  0  0  0  0
  7 10  2  0  0  0  0
  7 18  1  0  0  0  0
  8 21  1  0  0  0  0
  9 21  2  0  0  0  0
 10 22  1  0  0  0  0
 11 12  2  0  0  0  0
 11 23  1  0  0  0  0
 12 24  1  0  0  0  0
 13 20  1  0  0  0  0
 13 22  2  0  0  0  0
 14 24  2  0  0  0  0
 14 25  1  0  0  0  0
 15 26  1  0  0  0  0
 16 26  1  0  0  0  0
 16 29  2  0  0  0  0
 16 31  1  0  0  0  0
 17 19  2  0  0  0  0
 17 36  1  0  0  0  0
 18 20  2  0  0  0  0
 18 37  1  0  0  0  0
 19 45  1  0  0  0  0
 20 38  1  0  0  0  0
 21 81  1  0  0  0  0
 22 82  1  0  0  0  0
 23 25  2  0  0  0  0
 23 81  1  0  0  0  0
 24 83  1  0  0  0  0
 25 84  1  0  0  0  0
 26 61  2  0  0  0  0
 27 28  2  0  0  0  0
 27 55  1  0  0  0  0
 27 62  1  0  0  0  0
 28 63  1  0  0  0  0
 28 70  1  0  0  0  0
 29 65  1  0  0  0  0
 29 68  1  0  0  0  0
 30 63  2  0  0  0  0
 30 64  1  0  0  0  0
 30 71  1  0  0  0  0
 31 69  1  0  0  0  0
 31 76  2  0  0  0  0
 32 46  1  0  0  0  0
 32 72  1  0  0  0  0
 32 77  2  0  0  0  0
 33 57  1  0  0  0  0
 33 66  1  0  0  0  0
 33 78  2  0  0  0  0
 34 58  1  0  0  0  0
 34 73  1  0  0  0  0
 34 79  2  0  0  0  0
 35 67  1  0  0  0  0
 35 74  1  0  0  0  0
 35 80  2  0  0  0  0
 36 39  1  0  0  0  0
 37 46  1  0  0  0  0
 38 66  1  0  0  0  0
 39 41  1  0  0  0  0
 40 42  1  0  0  0  0
 40 43  1  0  0  0  0
 41 45  1  0  0  0  0
 42 47  1  0  0  0  0
 43 67  1  0  0  0  0
 44 47  1  0  0  0  0
 44 67  1  0  0  0  0
 45 72  1  0  0  0  0
 46 66  1  0  0  0  0
 47 65  1  0  0  0  0
 48 58  1  0  0  0  0
 49 59  1  0  0  0  0
 50 60  1  0  0  0  0
 51 60  1  0  0  0  0
 52 60  1  0  0  0  0
 53 70  1  0  0  0  0
 54 75  1  0  0  0  0
 55 74  1  0  0  0  0
 56 59  1  0  0  0  0
 56 71  1  0  0  0  0
 57 60  1  0  0  0  0
 57 73  1  0  0  0  0
 58 75  1  0  0  0  0
 59 82  1  0  0  0  0
 61 65  1  0  0  0  0
 62 64  2  0  0  0  0
M  CHG  1  75   1
M  ISO  4  35 100  59 101  74 100  82 101
M  END
> <Batch ID>
0196

> <Smiles>
CNc1nc(NC[101CH:1](C)[101O:1]c2ccc3c(c2)CN(C(=O)C(NC(=O)C(C)NC)C(C)(C)C)C(C(=O)NC2CCCc4ccccc42)C3)nnc1C[100NH:0][100C:0](=O)N1CCCC(n2nc(-c3ccc(Oc4ccc(F)cc4F)cc3)c(C(N)=O)c2N)C1

> <Shape>
0.224

> <Color>
0.068

> <Negative vol penalty>
0.000

$$$$

  -OEChem-04052305393D

 83 91  0     1  0  0  0  0  0999 V2000
  -21.5604  -12.6190   19.7152 C   0  0  0  0  0  0  0  0  0  0  0  0
  -21.5995  -13.8376   20.3851 C   0  0  0  0  0  0  0  0  0  0  0  0
  -30.1146  -28.2474   21.4936 C   0  0  0  0  0  0  0  0  0  0  0  0
  -28.9136  -26.1901   21.8965 C   0  0  0  0  0  0  0  0  0  0  0  0
  -22.7267  -11.8702   19.5640 C   0  0  0  0  0  0  0  0  0  0  0  0
  -22.8049  -14.3076   20.9053 C   0  0  0  0  0  0  0  0  0  0  0  0
  -23.5613  -19.2178   19.9238 C   0  0  0  0  0  0  0  0  0  0  0  0
  -31.1802  -27.7755   22.2601 C   0  0  0  0  0  0  0  0  0  0  0  0
  -29.9792  -25.7182   22.6630 C   0  0  0  0  0  0  0  0  0  0  0  0
  -22.8709  -20.1382   20.7112 C   0  0  0  0  0  0  0  0  0  0  0  0
  -31.1823  -26.1538   25.7925 C   0  0  0  0  0  0  0  0  0  0  0  0
  -30.8839  -25.5423   27.0101 C   0  0  0  0  0  0  0  0  0  0  0  0
  -24.8542  -20.4786   22.0416 C   0  0  0  0  0  0  0  0  0  0  0  0
  -31.9330  -23.5052   26.2440 C   0  0  0  0  0  0  0  0  0  0  0  0
  -20.0250  -25.4490   21.5414 C   0  0  0  0  0  0  0  0  0  0  0  0
  -28.9813  -27.4547   21.3119 C   0  0  0  0  0  0  0  0  0  0  0  0
  -27.6918  -27.7802   19.1350 C   0  0  0  0  0  0  0  0  0  0  0  0
  -23.9488  -12.3358   20.0742 C   0  0  0  0  0  0  0  0  0  0  0  0
  -24.9024  -18.9122   20.1966 C   0  0  0  0  0  0  0  0  0  0  0  0
  -23.9884  -13.5637   20.7620 C   0  0  0  0  0  0  0  0  0  0  0  0
  -25.5601  -19.5558   21.2546 C   0  0  0  0  0  0  0  0  0  0  0  0
  -31.1125  -26.5109   22.8448 C   0  0  0  0  0  0  0  0  0  0  0  0
  -23.5165  -20.7666   21.7720 C   0  0  0  0  0  0  0  0  0  0  0  0
  -31.8559  -25.4411   24.8006 C   0  0  0  0  0  0  0  0  0  0  0  0
  -31.2593  -24.2180   27.2358 C   0  0  0  0  0  0  0  0  0  0  0  0
  -32.2313  -24.1168   25.0263 C   0  0  0  0  0  0  0  0  0  0  0  0
  -27.8800  -27.9419   20.5207 C   0  0  0  0  0  0  0  0  0  0  0  0
  -20.5236  -26.1595   22.6143 C   0  0  0  0  0  0  0  0  0  0  0  0
  -20.1928  -24.0807   21.6017 C   0  0  0  0  0  0  0  0  0  0  0  0
  -26.5054  -28.4205   18.8726 C   0  0  0  0  0  0  0  0  0  0  0  0
  -21.2419  -24.2472   23.6114 C   0  0  0  0  0  0  0  0  0  0  0  0
  -28.5157  -27.1109   18.1711 C   0  0  0  0  0  0  0  0  0  0  0  0
  -26.4794  -16.2800   21.0264 C   0  0  0  0  0  0  0  0  0  0  0  0
  -29.0773  -18.1839   20.6416 C   0  0  0  0  0  0  0  0  0  0  0  0
  -30.3734  -21.3405   20.5872 C   0  0  0  0  0  0  0  0  0  0  0  0
  -21.7280  -29.6979   22.2484 C   0  0  0  0  0  0  0  0  0  0  0  0
  -25.1742  -11.4689   19.9274 C   0  0  0  0  0  0  0  0  0  0  0  0
  -25.6408  -17.9370   19.3213 C   0  0  0  0  0  0  0  0  0  0  0  0
  -27.0050  -19.2779   21.5765 C   0  0  0  0  0  0  0  0  0  0  0  0
  -26.4819  -12.2146   20.1810 C   0  0  0  0  0  0  0  0  0  0  0  0
  -23.7566  -32.0052   20.4490 C   0  0  0  0  0  0  0  0  0  0  0  0
  -26.3792  -13.0561   21.4491 C   0  0  0  0  0  0  0  0  0  0  0  0
  -25.0264  -31.2109   20.1383 C   0  0  0  0  0  0  0  0  0  0  0  0
  -23.1912  -31.6509   21.8226 C   0  0  0  0  0  0  0  0  0  0  0  0
  -24.2285  -29.4171   21.7334 C   0  0  0  0  0  0  0  0  0  0  0  0
  -25.2815  -14.1189   21.3187 C   0  0  1  0  0  0  0  0  0  0  0  0
  -26.8549  -17.3186   20.0077 C   0  0  1  0  0  0  0  0  0  0  0  0
  -24.8045  -29.6992   20.3352 C   0  0  2  0  0  0  0  0  0  0  0  0
  -32.5360  -22.5771   20.2853 C   0  0  0  0  0  0  0  0  0  0  0  0
  -22.2808  -21.8231   26.2318 C   0  0  0  0  0  0  0  0  0  0  0  0
  -29.9257  -17.3837   23.4611 C   0  0  0  0  0  0  0  0  0  0  0  0
  -31.5096  -19.3227   23.4597 C   0  0  0  0  0  0  0  0  0  0  0  0
  -31.7916  -17.4829   21.7989 C   0  0  0  0  0  0  0  0  0  0  0  0
  -29.3531  -22.7790   18.2106 C   0  0  0  0  0  0  0  0  0  0  0  0
  -20.3892  -27.6451   22.6389 C   0  0  0  0  0  0  0  0  0  0  0  0
  -23.2464  -21.7786   23.9072 C   0  0  0  0  0  0  0  0  0  1  0  0
  -29.8699  -19.1049   21.5374 C   0  0  1  0  0  0  0  0  0  0  0  0
  -31.2920  -22.0353   19.5984 C   0  0  2  0  0  0  0  0  0  0  0  0
  -22.0582  -22.1947   24.7717 C   0  0  2  0  0  0  0  0  0  0  0  0
  -30.7464  -18.3275   22.5597 C   0  0  0  0  0  0  0  0  0  0  0  0
  -26.8924  -28.6311   21.0983 N   0  0  0  0  0  0  0  0  0  0  0  0
  -21.1400  -25.5887   23.6700 N   0  0  0  0  0  0  0  0  0  0  0  0
  -20.7989  -23.4441   22.6253 N   0  0  0  0  0  0  0  0  0  0  0  0
  -26.0721  -28.9081   20.0704 N   0  0  0  0  0  0  0  0  0  0  0  0
  -27.6821  -18.3120   20.6956 N   0  0  0  0  0  0  0  0  0  0  0  0
  -23.0028  -30.2033   21.9440 N   0  0  0  0  0  0  0  0  0  0  0  0
  -19.6950  -23.3142   20.5196 N   0  0  0  0  0  0  0  0  0  0  0  0
  -25.8009  -28.6084   17.7365 N   0  0  0  0  0  0  0  0  0  0  0  0
  -29.7011  -26.5059   18.6106 N   0  0  0  0  0  0  0  0  0  0  0  0
  -21.8682  -23.6283   24.6775 N   0  0  0  0  0  0  0  0  0  0  0  0
  -25.7450  -15.2280   20.5129 N   0  0  0  0  0  0  0  0  0  0  0  0
  -30.6238  -19.9861   20.6523 N   0  0  0  0  0  0  0  0  0  0  0  0
  -21.6352  -28.3145   22.3388 N   0  0  0  0  0  0  0  0  0  0  0  0
  -30.5840  -23.1716   18.9439 N   0  3  0  0  0  0  0  0  0  0  0  0
  -28.2181  -27.0654   16.9534 O   0  0  0  0  0  0  0  0  0  0  0  0
  -26.8311  -16.4217   22.1917 O   0  0  0  0  0  0  0  0  0  0  0  0
  -29.6743  -17.3854   19.9152 O   0  0  0  0  0  0  0  0  0  0  0  0
  -29.5215  -21.9399   21.2396 O   0  0  0  0  0  0  0  0  0  0  0  0
  -20.7443  -30.4255   22.4212 O   0  0  0  0  0  0  0  0  0  0  0  0
  -32.1521  -26.0499   23.5926 O   0  0  0  0  0  0  0  0  0  0  0  0
  -22.8448  -21.6649   22.5426 O   0  0  0  0  0  0  0  0  0  1  0  0
  -30.9740  -23.6313   28.4057 F   0  0  0  0  0  0  0  0  0  0  0  0
  -32.8798  -23.4274   24.0777 F   0  0  0  0  0  0  0  0  0  0  0  0
  1  2  1  0  0  0  0
  1  5  2  0  0  0  0
  2  6  2  0  0  0  0
  3  8  2  0  0  0  0
  3 16  1  0  0  0  0
  4  9  1  0  0  0  0
  4 16  2  0  0  0  0
  5 18  1  0  0  0  0
  6 20  1  0  0  0  0
  7 10  2  0  0  0  0
  7 19  1  0  0  0  0
  8 22  1  0  0  0  0
  9 22  2  0  0  0  0
 10 23  1  0  0  0  0
 11 12  2  0  0  0  0
 11 24  1  0  0  0  0
 12 25  1  0  0  0  0
 13 21  1  0  0  0  0
 13 23  2  0  0  0  0
 14 25  2  0  0  0  0
 14 26  1  0  0  0  0
 15 28  2  0  0  0  0
 15 29  1  0  0  0  0
 16 27  1  0  0  0  0
 17 27  1  0  0  0  0
 17 30  2  0  0  0  0
 17 32  1  0  0  0  0
 18 20  2  0  0  0  0
 18 37  1  0  0  0  0
 19 21  2  0  0  0  0
 19 38  1  0  0  0  0
 20 46  1  0  0  0  0
 21 39  1  0  0  0  0
 22 80  1  0  0  0  0
 23 81  1  0  0  0  0
 24 26  2  0  0  0  0
 24 80  1  0  0  0  0
 25 82  1  0  0  0  0
 26 83  1  0  0  0  0
 27 61  2  0  0  0  0
 28 55  1  0  0  0  0
 28 62  1  0  0  0  0
 29 63  2  0  0  0  0
 29 67  1  0  0  0  0
 30 64  1  0  0  0  0
 30 68  1  0  0  0  0
 31 62  2  0  0  0  0
 31 63  1  0  0  0  0
 31 70  1  0  0  0  0
 32 69  1  0  0  0  0
 32 75  2  0  0  0  0
 33 47  1  0  0  0  0
 33 71  1  0  0  0  0
 33 76  2  0  0  0  0
 34 57  1  0  0  0  0
 34 65  1  0  0  0  0
 34 77  2  0  0  0  0
 35 58  1  0  0  0  0
 35 72  1  0  0  0  0
 35 78  2  0  0  0  0
 36 66  1  0  0  0  0
 36 73  1  0  0  0  0
 36 79  2  0  0  0  0
 37 40  1  0  0  0  0
 38 47  1  0  0  0  0
 39 65  1  0  0  0  0
 40 42  1  0  0  0  0
 41 43  1  0  0  0  0
 41 44  1  0  0  0  0
 42 46  1  0  0  0  0
 43 48  1  0  0  0  0
 44 66  1  0  0  0  0
 45 48  1  0  0  0  0
 45 66  1  0  0  0  0
 46 71  1  0  0  0  0
 47 65  1  0  0  0  0
 48 64  1  0  0  0  0
 49 58  1  0  0  0  0
 50 59  1  0  0  0  0
 51 60  1  0  0  0  0
 52 60  1  0  0  0  0
 53 60  1  0  0  0  0
 54 74  1  0  0  0  0
 55 73  1  0  0  0  0
 56 59  1  0  0  0  0
 56 81  1  0  0  0  0
 57 60  1  0  0  0  0
 57 72  1  0  0  0  0
 58 74  1  0  0  0  0
 59 70  1  0  0  0  0
 61 64  1  0  0  0  0
M  CHG  1  74   1
M  ISO  4  36 100  56 101  73 100  81 101
M  END
> <Batch ID>
0196

> <Smiles>
CNC(C)C(=O)NC(C(=O)N1Cc2cc([101O:1][101CH2:1]C(C)Nc3nc(N)cc(C[100NH:0][100C:0](=O)N4CCCC(n5nc(-c6ccc(Oc7ccc(F)cc7F)cc6)c(C(N)=O)c5N)C4)n3)ccc2CC1C(=O)NC1CCCc2ccccc21)C(C)(C)C

> <Shape>
0.218

> <Color>
0.065

> <Negative vol penalty>
0.000

$$$$

  -OEChem-04052305393D

 83 91  0     1  0  0  0  0  0999 V2000
  -30.8417  -33.4357   28.3868 C   0  0  0  0  0  0  0  0  0  0  0  0
  -31.1141  -32.6573   27.2665 C   0  0  0  0  0  0  0  0  0  0  0  0
  -23.9011   -9.7257   21.7204 C   0  0  0  0  0  0  0  0  0  0  0  0
  -24.5258  -10.9452   23.7103 C   0  0  0  0  0  0  0  0  0  0  0  0
  -29.6109  -33.3208   29.0316 C   0  0  0  0  0  0  0  0  0  0  0  0
  -30.1561  -31.7626   26.7909 C   0  0  0  0  0  0  0  0  0  0  0  0
  -29.0920  -30.2706   20.9473 C   0  0  0  0  0  0  0  0  0  0  0  0
  -23.4145   -8.6847   22.5110 C   0  0  0  0  0  0  0  0  0  0  0  0
  -24.0391   -9.9042   24.5010 C   0  0  0  0  0  0  0  0  0  0  0  0
  -29.4919  -29.1857   20.1684 C   0  0  0  0  0  0  0  0  0  0  0  0
  -20.6416   -8.0247   24.3299 C   0  0  0  0  0  0  0  0  0  0  0  0
  -19.4020   -7.4805   23.9941 C   0  0  0  0  0  0  0  0  0  0  0  0
  -27.3995  -28.0825   20.6413 C   0  0  0  0  0  0  0  0  0  0  0  0
  -20.4365   -5.3204   23.6762 C   0  0  0  0  0  0  0  0  0  0  0  0
  -24.4568  -10.8559   22.3200 C   0  0  0  0  0  0  0  0  0  0  0  0
  -24.2464  -13.0529   21.0407 C   0  0  0  0  0  0  0  0  0  0  0  0
  -28.6337  -32.4312   28.5579 C   0  0  0  0  0  0  0  0  0  0  0  0
  -27.8451  -30.2649   21.5890 C   0  0  0  0  0  0  0  0  0  0  0  0
  -28.9116  -31.6347   27.4307 C   0  0  0  0  0  0  0  0  0  0  0  0
  -26.9849  -29.1697   21.4257 C   0  0  0  0  0  0  0  0  0  0  0  0
  -23.4835   -8.7740   23.9013 C   0  0  0  0  0  0  0  0  0  0  0  0
  -28.6469  -28.0901   20.0177 C   0  0  0  0  0  0  0  0  0  0  0  0
  -21.7787   -7.2168   24.3388 C   0  0  0  0  0  0  0  0  0  0  0  0
  -19.2994   -6.1284   23.6672 C   0  0  0  0  0  0  0  0  0  0  0  0
  -21.6761   -5.8647   24.0119 C   0  0  0  0  0  0  0  0  0  0  0  0
  -24.9602  -11.9313   21.5037 C   0  0  0  0  0  0  0  0  0  0  0  0
  -30.8355  -20.0514   19.0243 C   0  0  0  0  0  0  0  0  0  0  0  0
  -29.8656  -20.9332   19.4269 C   0  0  0  0  0  0  0  0  0  0  0  0
  -25.1660  -13.7691   20.3141 C   0  0  0  0  0  0  0  0  0  0  0  0
  -29.5701  -18.3521   19.8059 C   0  0  0  0  0  0  0  0  0  0  0  0
  -22.8748  -13.4150   21.2488 C   0  0  0  0  0  0  0  0  0  0  0  0
  -26.8795  -30.3705   24.6155 C   0  0  0  0  0  0  0  0  0  0  0  0
  -23.9385  -30.5748   23.2623 C   0  0  0  0  0  0  0  0  0  0  0  0
  -21.9430  -29.9638   20.5620 C   0  0  0  0  0  0  0  0  0  0  0  0
  -30.2579  -15.9317   19.6827 C   0  0  0  0  0  0  0  0  0  0  0  0
  -27.3359  -32.3075   29.3163 C   0  0  0  0  0  0  0  0  0  0  0  0
  -27.4173  -31.4546   22.4039 C   0  0  0  0  0  0  0  0  0  0  0  0
  -25.6277  -29.1232   22.0770 C   0  0  0  0  0  0  0  0  0  0  0  0
  -26.2332  -31.6073   28.5263 C   0  0  0  0  0  0  0  0  0  0  0  0
  -29.8152  -12.5254   18.7457 C   0  0  0  0  0  0  0  0  0  0  0  0
  -26.7708  -30.3413   27.8666 C   0  0  0  0  0  0  0  0  0  0  0  0
  -28.4540  -12.1594   19.3416 C   0  0  0  0  0  0  0  0  0  0  0  0
  -30.5975  -13.4702   19.6563 C   0  0  0  0  0  0  0  0  0  0  0  0
  -28.5120  -14.3151   20.6594 C   0  0  0  0  0  0  0  0  0  0  0  0
  -27.8886  -30.6707   26.8699 C   0  0  1  0  0  0  0  0  0  0  0  0
  -26.3395  -31.1195   23.4302 C   0  0  1  0  0  0  0  0  0  0  0  0
  -27.6603  -13.4166   19.7479 C   0  0  2  0  0  0  0  0  0  0  0  0
  -19.5754  -30.2081   19.7667 C   0  0  0  0  0  0  0  0  0  0  0  0
  -23.1146  -28.2010   24.9932 C   0  0  0  0  0  0  0  0  0  0  0  0
  -21.1229  -27.8976   23.5069 C   0  0  0  0  0  0  0  0  0  0  0  0
  -21.3938  -30.0065   24.8114 C   0  0  0  0  0  0  0  0  0  0  0  0
  -22.7535  -31.7238   18.3250 C   0  0  0  0  0  0  0  0  0  0  0  0
  -29.0557  -23.2855   19.6168 C   0  0  0  0  0  0  0  0  0  0  0  0
  -28.5273  -25.7475   19.6257 C   0  0  0  0  0  0  0  0  0  1  0  0
  -22.8931  -29.5790   22.8211 C   0  0  1  0  0  0  0  0  0  0  0  0
  -20.9552  -30.8455   19.8194 C   0  0  2  0  0  0  0  0  0  0  0  0
  -29.5370  -24.6796   19.2192 C   0  0  1  0  0  0  0  0  0  0  0  0
  -22.1574  -28.9208   24.0223 C   0  0  0  0  0  0  0  0  0  0  0  0
  -26.2348  -11.9305   21.1047 N   0  0  0  0  0  0  0  0  0  0  0  0
  -30.7093  -18.7281   19.2060 N   0  0  0  0  0  0  0  0  0  0  0  0
  -28.7421  -20.4966   20.0246 N   0  0  0  0  0  0  0  0  0  0  0  0
  -28.5845  -19.1713   20.2223 N   0  0  0  0  0  0  0  0  0  0  0  0
  -26.3293  -13.0604   20.3832 N   0  0  0  0  0  0  0  0  0  0  0  0
  -25.2575  -30.3078   22.8690 N   0  0  0  0  0  0  0  0  0  0  0  0
  -29.7844  -14.6400   19.9960 N   0  0  0  0  0  0  0  0  0  0  0  0
  -32.0063  -20.5366   18.3986 N   0  0  0  0  0  0  0  0  0  0  0  0
  -25.0850  -14.9296   19.6292 N   0  0  0  0  0  0  0  0  0  0  0  0
  -22.0695  -12.5665   22.0207 N   0  0  0  0  0  0  0  0  0  0  0  0
  -30.0298  -22.2927   19.2222 N   0  0  0  0  0  0  0  0  0  0  0  0
  -29.3847  -16.9642   20.0233 N   0  0  0  0  0  0  0  0  0  0  0  0
  -27.3314  -31.1841   25.6369 N   0  0  0  0  0  0  0  0  0  0  0  0
  -22.0143  -30.2910   21.8996 N   0  0  0  0  0  0  0  0  0  0  0  0
  -21.4184  -31.0796   18.4225 N   0  3  0  0  0  0  0  0  0  0  0  0
  -22.3739  -14.4517   20.7509 O   0  0  0  0  0  0  0  0  0  0  0  0
  -26.8843  -29.1451   24.6049 O   0  0  0  0  0  0  0  0  0  0  0  0
  -23.5962  -31.5572   23.9252 O   0  0  0  0  0  0  0  0  0  0  0  0
  -22.5841  -29.0715   20.0114 O   0  0  0  0  0  0  0  0  0  0  0  0
  -31.3451  -16.1072   19.1267 O   0  0  0  0  0  0  0  0  0  0  0  0
  -30.7638  -24.9610   19.8960 O   0  0  0  0  0  0  0  0  0  0  0  0
  -23.0085   -7.7585   24.6732 O   0  0  0  0  0  0  0  0  0  0  0  0
  -29.0351  -27.0295   19.2585 O   0  0  0  0  0  0  0  0  0  1  0  0
  -18.1087   -5.6056   23.3463 F   0  0  0  0  0  0  0  0  0  0  0  0
  -22.7648   -5.0833   24.0199 F   0  0  0  0  0  0  0  0  0  0  0  0
  1  2  1  0  0  0  0
  1  5  2  0  0  0  0
  2  6  2  0  0  0  0
  3  8  2  0  0  0  0
  3 15  1  0  0  0  0
  4  9  1  0  0  0  0
  4 15  2  0  0  0  0
  5 17  1  0  0  0  0
  6 19  1  0  0  0  0
  7 10  2  0  0  0  0
  7 18  1  0  0  0  0
  8 21  1  0  0  0  0
  9 21  2  0  0  0  0
 10 22  1  0  0  0  0
 11 12  2  0  0  0  0
 11 23  1  0  0  0  0
 12 24  1  0  0  0  0
 13 20  1  0  0  0  0
 13 22  2  0  0  0  0
 14 24  2  0  0  0  0
 14 25  1  0  0  0  0
 15 26  1  0  0  0  0
 16 26  1  0  0  0  0
 16 29  2  0  0  0  0
 16 31  1  0  0  0  0
 17 19  2  0  0  0  0
 17 36  1  0  0  0  0
 18 20  2  0  0  0  0
 18 37  1  0  0  0  0
 19 45  1  0  0  0  0
 20 38  1  0  0  0  0
 21 80  1  0  0  0  0
 22 81  1  0  0  0  0
 23 25  2  0  0  0  0
 23 80  1  0  0  0  0
 24 82  1  0  0  0  0
 25 83  1  0  0  0  0
 26 59  2  0  0  0  0
 27 28  2  0  0  0  0
 27 60  1  0  0  0  0
 27 66  1  0  0  0  0
 28 61  1  0  0  0  0
 28 69  1  0  0  0  0
 29 63  1  0  0  0  0
 29 67  1  0  0  0  0
 30 60  2  0  0  0  0
 30 62  1  0  0  0  0
 30 70  1  0  0  0  0
 31 68  1  0  0  0  0
 31 74  2  0  0  0  0
 32 46  1  0  0  0  0
 32 71  1  0  0  0  0
 32 75  2  0  0  0  0
 33 55  1  0  0  0  0
 33 64  1  0  0  0  0
 33 76  2  0  0  0  0
 34 56  1  0  0  0  0
 34 72  1  0  0  0  0
 34 77  2  0  0  0  0
 35 65  1  0  0  0  0
 35 70  1  0  0  0  0
 35 78  2  0  0  0  0
 36 39  1  0  0  0  0
 37 46  1  0  0  0  0
 38 64  1  0  0  0  0
 39 41  1  0  0  0  0
 40 42  1  0  0  0  0
 40 43  1  0  0  0  0
 41 45  1  0  0  0  0
 42 47  1  0  0  0  0
 43 65  1  0  0  0  0
 44 47  1  0  0  0  0
 44 65  1  0  0  0  0
 45 71  1  0  0  0  0
 46 64  1  0  0  0  0
 47 63  1  0  0  0  0
 48 56  1  0  0  0  0
 49 58  1  0  0  0  0
 50 58  1  0  0  0  0
 51 58  1  0  0  0  0
 52 73  1  0  0  0  0
 53 57  1  0  0  0  0
 53 69  1  0  0  0  0
 54 57  1  0  0  0  0
 54 81  1  0  0  0  0
 55 58  1  0  0  0  0
 55 72  1  0  0  0  0
 56 73  1  0  0  0  0
 57 79  1  0  0  0  0
 59 63  1  0  0  0  0
 61 62  2  0  0  0  0
M  CHG  1  73   1
M  ISO  4  35 100  54 101  70 100  81 101
M  END
> <Batch ID>
0196

> <Smiles>
CNC(C)C(=O)NC(C(=O)N1Cc2cc([101O:1][101CH2:1]C(O)CNc3nnc([100NH:0][100C:0](=O)N4CCCC(n5nc(-c6ccc(Oc7ccc(F)cc7F)cc6)c(C(N)=O)c5N)C4)nc3N)ccc2CC1C(=O)NC1CCCc2ccccc21)C(C)(C)C

> <Shape>
0.322

> <Color>
0.150

> <Negative vol penalty>
0.000

$$$$

  -OEChem-04052305393D

 83 91  0     1  0  0  0  0  0999 V2000
  -19.7770  -34.2127   23.3568 C   0  0  0  0  0  0  0  0  0  0  0  0
  -21.0744  -33.9062   22.9588 C   0  0  0  0  0  0  0  0  0  0  0  0
  -27.1417  -12.9095   21.0339 C   0  0  0  0  0  0  0  0  0  0  0  0
  -27.0669  -13.2458   18.6426 C   0  0  0  0  0  0  0  0  0  0  0  0
  -18.9701  -33.2250   23.9199 C   0  0  0  0  0  0  0  0  0  0  0  0
  -21.5660  -32.6119   23.1249 C   0  0  0  0  0  0  0  0  0  0  0  0
  -25.4520  -29.6481   19.4344 C   0  0  0  0  0  0  0  0  0  0  0  0
  -26.4153  -11.7274   20.8904 C   0  0  0  0  0  0  0  0  0  0  0  0
  -26.3406  -12.0637   18.4991 C   0  0  0  0  0  0  0  0  0  0  0  0
  -26.8290  -29.4388   19.4959 C   0  0  0  0  0  0  0  0  0  0  0  0
  -23.1925  -10.8270   20.4133 C   0  0  0  0  0  0  0  0  0  0  0  0
  -22.1365  -10.6048   21.2970 C   0  0  0  0  0  0  0  0  0  0  0  0
  -26.4504  -27.2892   20.5230 C   0  0  0  0  0  0  0  0  0  0  0  0
  -23.2115   -8.5854   22.0739 C   0  0  0  0  0  0  0  0  0  0  0  0
  -31.8729  -21.7469   17.3146 C   0  0  0  0  0  0  0  0  0  0  0  0
  -27.4674  -13.6688   19.9101 C   0  0  0  0  0  0  0  0  0  0  0  0
  -29.6172  -15.0365   20.0344 C   0  0  0  0  0  0  0  0  0  0  0  0
  -19.4487  -31.9156   24.0841 C   0  0  0  0  0  0  0  0  0  0  0  0
  -24.5626  -28.6825   19.9275 C   0  0  0  0  0  0  0  0  0  0  0  0
  -20.7651  -31.6061   23.6920 C   0  0  0  0  0  0  0  0  0  0  0  0
  -25.0625  -27.4875   20.4642 C   0  0  0  0  0  0  0  0  0  0  0  0
  -26.0148  -11.3045   19.6230 C   0  0  0  0  0  0  0  0  0  0  0  0
  -27.3285  -28.2605   20.0429 C   0  0  0  0  0  0  0  0  0  0  0  0
  -24.2581   -9.9284   20.3598 C   0  0  0  0  0  0  0  0  0  0  0  0
  -22.1460   -9.4840   22.1273 C   0  0  0  0  0  0  0  0  0  0  0  0
  -24.2676   -8.8077   21.1901 C   0  0  0  0  0  0  0  0  0  0  0  0
  -28.2172  -14.8903   20.0578 C   0  0  0  0  0  0  0  0  0  0  0  0
  -30.7669  -22.2670   17.9500 C   0  0  0  0  0  0  0  0  0  0  0  0
  -32.6898  -23.8604   17.0061 C   0  0  0  0  0  0  0  0  0  0  0  0
  -31.5835  -24.3807   17.6408 C   0  0  0  0  0  0  0  0  0  0  0  0
  -29.8250  -16.3819   20.2163 C   0  0  0  0  0  0  0  0  0  0  0  0
  -30.6385  -14.0448   19.8634 C   0  0  0  0  0  0  0  0  0  0  0  0
  -22.3743  -28.6175   22.2320 C   0  0  0  0  0  0  0  0  0  0  0  0
  -21.7334  -25.6838   21.0050 C   0  0  0  0  0  0  0  0  0  0  0  0
  -22.8310  -22.9817   19.2328 C   0  0  0  0  0  0  0  0  0  0  0  0
  -28.5967  -21.6957   19.0946 C   0  0  0  0  0  0  0  0  0  0  0  0
  -18.5556  -30.8932   24.7412 C   0  0  0  0  0  0  0  0  0  0  0  0
  -23.0793  -28.9118   19.8294 C   0  0  0  0  0  0  0  0  0  0  0  0
  -24.1494  -26.4107   20.9888 C   0  0  0  0  0  0  0  0  0  0  0  0
  -19.0243  -29.4547   24.5382 C   0  0  0  0  0  0  0  0  0  0  0  0
  -26.6154  -20.0587   21.5587 C   0  0  0  0  0  0  0  0  0  0  0  0
  -20.5213  -29.3381   24.8068 C   0  0  0  0  0  0  0  0  0  0  0  0
  -26.9707  -18.5801   21.3860 C   0  0  0  0  0  0  0  0  0  0  0  0
  -26.5734  -20.7921   20.2193 C   0  0  0  0  0  0  0  0  0  0  0  0
  -28.1347  -19.1686   19.2213 C   0  0  0  0  0  0  0  0  0  0  0  0
  -21.3259  -30.2076   23.8330 C   0  0  1  0  0  0  0  0  0  0  0  0
  -22.2793  -28.0840   20.8305 C   0  0  1  0  0  0  0  0  0  0  0  0
  -28.2528  -18.4027   20.5491 C   0  0  2  0  0  0  0  0  0  0  0  0
  -22.0933  -20.7225   18.4272 C   0  0  0  0  0  0  0  0  0  0  0  0
  -22.0897  -24.5658   23.8216 C   0  0  0  0  0  0  0  0  0  0  0  0
  -22.2888  -22.2822   22.8148 C   0  0  0  0  0  0  0  0  0  0  0  0
  -20.1779  -23.5833   22.5434 C   0  0  0  0  0  0  0  0  0  0  0  0
  -23.1881  -23.7480   16.3966 C   0  0  0  0  0  0  0  0  0  0  0  0
  -30.3407  -26.3894   18.4447 C   0  0  0  0  0  0  0  0  0  0  0  0
  -29.4701  -28.6623   19.0900 C   0  0  0  0  0  0  0  0  0  1  0  0
  -22.2399  -24.2846   21.2595 C   0  0  1  0  0  0  0  0  0  0  0  0
  -22.2019  -22.2019   18.0924 C   0  0  2  0  0  0  0  0  0  0  0  0
  -30.7141  -27.8107   18.8610 C   0  0  1  0  0  0  0  0  0  0  0  0
  -21.7166  -23.6999   22.6018 C   0  0  0  0  0  0  0  0  0  0  0  0
  -32.8543  -22.5342   16.8313 N   0  0  0  0  0  0  0  0  0  0  0  0
  -27.5806  -16.0502   20.2403 N   0  0  0  0  0  0  0  0  0  0  0  0
  -30.6023  -23.5933   18.1244 N   0  0  0  0  0  0  0  0  0  0  0  0
  -28.5852  -16.9381   20.3334 N   0  0  0  0  0  0  0  0  0  0  0  0
  -22.7071  -26.6844   20.8765 N   0  0  0  0  0  0  0  0  0  0  0  0
  -27.8224  -20.5823   19.4839 N   0  0  0  0  0  0  0  0  0  0  0  0
  -33.6902  -24.7317   16.5180 N   0  0  0  0  0  0  0  0  0  0  0  0
  -30.9454  -17.1317   20.2860 N   0  0  0  0  0  0  0  0  0  0  0  0
  -30.2505  -12.7094   19.6885 N   0  0  0  0  0  0  0  0  0  0  0  0
  -29.7792  -21.3717   18.4302 N   0  0  0  0  0  0  0  0  0  0  0  0
  -31.4631  -25.7516   17.7938 N   0  0  0  0  0  0  0  0  0  0  0  0
  -21.4171  -29.5656   22.5392 N   0  0  0  0  0  0  0  0  0  0  0  0
  -21.8781  -23.4995   20.0843 N   0  0  0  0  0  0  0  0  0  0  0  0
  -23.0191  -22.3449   16.8544 N   0  3  0  0  0  0  0  0  0  0  0  0
  -31.8594  -14.3320   19.8821 O   0  0  0  0  0  0  0  0  0  0  0  0
  -23.2502  -28.1987   22.9798 O   0  0  0  0  0  0  0  0  0  0  0  0
  -20.5189  -25.8805   20.9163 O   0  0  0  0  0  0  0  0  0  0  0  0
  -24.0464  -23.1148   19.3580 O   0  0  0  0  0  0  0  0  0  0  0  0
  -28.2507  -22.8504   19.3570 O   0  0  0  0  0  0  0  0  0  0  0  0
  -31.4401  -27.7619   20.0911 O   0  0  0  0  0  0  0  0  0  0  0  0
  -25.3062  -10.1509   19.4825 O   0  0  0  0  0  0  0  0  0  0  0  0
  -28.6722  -28.0540   20.1047 O   0  0  0  0  0  0  0  0  0  1  0  0
  -21.1325   -9.2716   22.9770 F   0  0  0  0  0  0  0  0  0  0  0  0
  -25.2891   -7.9415   21.1441 F   0  0  0  0  0  0  0  0  0  0  0  0
  1  2  1  0  0  0  0
  1  5  2  0  0  0  0
  2  6  2  0  0  0  0
  3  8  2  0  0  0  0
  3 16  1  0  0  0  0
  4  9  1  0  0  0  0
  4 16  2  0  0  0  0
  5 18  1  0  0  0  0
  6 20  1  0  0  0  0
  7 10  2  0  0  0  0
  7 19  1  0  0  0  0
  8 22  1  0  0  0  0
  9 22  2  0  0  0  0
 10 23  1  0  0  0  0
 11 12  2  0  0  0  0
 11 24  1  0  0  0  0
 12 25  1  0  0  0  0
 13 21  1  0  0  0  0
 13 23  2  0  0  0  0
 14 25  2  0  0  0  0
 14 26  1  0  0  0  0
 15 28  1  0  0  0  0
 15 60  2  0  0  0  0
 16 27  1  0  0  0  0
 17 27  1  0  0  0  0
 17 31  2  0  0  0  0
 17 32  1  0  0  0  0
 18 20  2  0  0  0  0
 18 37  1  0  0  0  0
 19 21  2  0  0  0  0
 19 38  1  0  0  0  0
 20 46  1  0  0  0  0
 21 39  1  0  0  0  0
 22 80  1  0  0  0  0
 23 81  1  0  0  0  0
 24 26  2  0  0  0  0
 24 80  1  0  0  0  0
 25 82  1  0  0  0  0
 26 83  1  0  0  0  0
 27 61  2  0  0  0  0
 28 62  2  0  0  0  0
 28 69  1  0  0  0  0
 29 30  2  0  0  0  0
 29 60  1  0  0  0  0
 29 66  1  0  0  0  0
 30 62  1  0  0  0  0
 30 70  1  0  0  0  0
 31 63  1  0  0  0  0
 31 67  1  0  0  0  0
 32 68  1  0  0  0  0
 32 74  2  0  0  0  0
 33 47  1  0  0  0  0
 33 71  1  0  0  0  0
 33 75  2  0  0  0  0
 34 56  1  0  0  0  0
 34 64  1  0  0  0  0
 34 76  2  0  0  0  0
 35 57  1  0  0  0  0
 35 72  1  0  0  0  0
 35 77  2  0  0  0  0
 36 65  1  0  0  0  0
 36 69  1  0  0  0  0
 36 78  2  0  0  0  0
 37 40  1  0  0  0  0
 38 47  1  0  0  0  0
 39 64  1  0  0  0  0
 40 42  1  0  0  0  0
 41 43  1  0  0  0  0
 41 44  1  0  0  0  0
 42 46  1  0  0  0  0
 43 48  1  0  0  0  0
 44 65  1  0  0  0  0
 45 48  1  0  0  0  0
 45 65  1  0  0  0  0
 46 71  1  0  0  0  0
 47 64  1  0  0  0  0
 48 63  1  0  0  0  0
 49 57  1  0  0  0  0
 50 59  1  0  0  0  0
 51 59  1  0  0  0  0
 52 59  1  0  0  0  0
 53 73  1  0  0  0  0
 54 58  1  0  0  0  0
 54 70  1  0  0  0  0
 55 58  1  0  0  0  0
 55 81  1  0  0  0  0
 56 59  1  0  0  0  0
 56 72  1  0  0  0  0
 57 73  1  0  0  0  0
 58 79  1  0  0  0  0
 61 63  1  0  0  0  0
M  CHG  1  73   1
M  ISO  4  36 100  55 101  69 100  81 101
M  END
> <Batch ID>
0196

> <Smiles>
CNC(C)C(=O)NC(C(=O)N1Cc2cc([101O:1][101CH2:1]C(O)CNc3nc([100NH:0][100C:0](=O)N4CCCC(n5nc(-c6ccc(Oc7ccc(F)cc7F)cc6)c(C(N)=O)c5N)C4)cnc3N)ccc2CC1C(=O)NC1CCCc2ccccc21)C(C)(C)C

> <Shape>
0.250

> <Color>
0.095

> <Negative vol penalty>
0.000

$$$$

  -OEChem-04052305393D

 82 90  0     1  0  0  0  0  0999 V2000
  -32.1056  -15.3839   19.2703 C   0  0  0  0  0  0  0  0  0  0  0  0
  -31.1660  -16.4074   19.2004 C   0  0  0  0  0  0  0  0  0  0  0  0
  -28.7444  -25.7399   19.5924 C   0  0  0  0  0  0  0  0  0  0  0  0
  -26.5649  -24.7247   19.3548 C   0  0  0  0  0  0  0  0  0  0  0  0
  -31.6880  -14.0676   19.4623 C   0  0  0  0  0  0  0  0  0  0  0  0
  -29.8079  -16.1150   19.3214 C   0  0  0  0  0  0  0  0  0  0  0  0
  -25.5120  -19.5988   21.9509 C   0  0  0  0  0  0  0  0  0  0  0  0
  -29.3382  -24.4792   19.5321 C   0  0  0  0  0  0  0  0  0  0  0  0
  -27.1587  -23.4640   19.2945 C   0  0  0  0  0  0  0  0  0  0  0  0
  -24.5697  -20.4820   21.4259 C   0  0  0  0  0  0  0  0  0  0  0  0
  -28.7790  -21.5828   17.0018 C   0  0  0  0  0  0  0  0  0  0  0  0
  -28.3284  -20.7023   16.0184 C   0  0  0  0  0  0  0  0  0  0  0  0
  -22.9134  -18.7286   21.4650 C   0  0  0  0  0  0  0  0  0  0  0  0
  -27.6742  -19.1266   17.7291 C   0  0  0  0  0  0  0  0  0  0  0  0
  -18.4825  -28.1556   22.8902 C   0  0  0  0  0  0  0  0  0  0  0  0
  -27.3577  -25.8627   19.5038 C   0  0  0  0  0  0  0  0  0  0  0  0
  -26.4607  -28.0240   18.4880 C   0  0  0  0  0  0  0  0  0  0  0  0
  -30.3248  -13.7601   19.5954 C   0  0  0  0  0  0  0  0  0  0  0  0
  -25.1645  -18.2686   22.2272 C   0  0  0  0  0  0  0  0  0  0  0  0
  -29.3716  -14.7932   19.5141 C   0  0  0  0  0  0  0  0  0  0  0  0
  -23.8525  -17.8312   21.9959 C   0  0  0  0  0  0  0  0  0  0  0  0
  -28.5454  -23.3413   19.3831 C   0  0  0  0  0  0  0  0  0  0  0  0
  -23.2710  -20.0462   21.1801 C   0  0  0  0  0  0  0  0  0  0  0  0
  -28.6774  -21.2353   18.3489 C   0  0  0  0  0  0  0  0  0  0  0  0
  -27.7759  -19.4742   16.3821 C   0  0  0  0  0  0  0  0  0  0  0  0
  -28.1249  -20.0072   18.7125 C   0  0  0  0  0  0  0  0  0  0  0  0
  -26.7437  -27.1646   19.5666 C   0  0  0  0  0  0  0  0  0  0  0  0
  -19.8219  -28.0393   23.1977 C   0  0  0  0  0  0  0  0  0  0  0  0
  -25.8830  -29.1261   19.0696 C   0  0  0  0  0  0  0  0  0  0  0  0
  -19.5966  -26.2101   22.0089 C   0  0  0  0  0  0  0  0  0  0  0  0
  -26.6987  -27.8423   17.0859 C   0  0  0  0  0  0  0  0  0  0  0  0
  -26.1291  -15.4316   21.1670 C   0  0  0  0  0  0  0  0  0  0  0  0
  -24.1607  -14.3267   23.4965 C   0  0  0  0  0  0  0  0  0  0  0  0
  -21.4657  -14.8798   25.5159 C   0  0  0  0  0  0  0  0  0  0  0  0
  -22.8955  -29.9373   24.1947 C   0  0  0  0  0  0  0  0  0  0  0  0
  -29.9184  -12.3164   19.7544 C   0  0  0  0  0  0  0  0  0  0  0  0
  -26.1855  -17.3356   22.8184 C   0  0  0  0  0  0  0  0  0  0  0  0
  -23.4234  -16.4186   22.2943 C   0  0  0  0  0  0  0  0  0  0  0  0
  -28.4849  -12.1380   20.2480 C   0  0  0  0  0  0  0  0  0  0  0  0
  -25.8524  -31.6233   23.1505 C   0  0  0  0  0  0  0  0  0  0  0  0
  -27.5351  -13.0407   19.4672 C   0  0  0  0  0  0  0  0  0  0  0  0
  -26.3906  -30.7493   22.0162 C   0  0  0  0  0  0  0  0  0  0  0  0
  -25.2227  -30.7837   24.2597 C   0  0  0  0  0  0  0  0  0  0  0  0
  -24.7222  -28.9651   22.6735 C   0  0  0  0  0  0  0  0  0  0  0  0
  -27.8910  -14.5191   19.6656 C   0  0  1  0  0  0  0  0  0  0  0  0
  -25.8593  -15.8645   22.5803 C   0  0  1  0  0  0  0  0  0  0  0  0
  -25.3169  -29.7700   21.5052 C   0  0  2  0  0  0  0  0  0  0  0  0
  -20.0734  -13.7773   27.2889 C   0  0  0  0  0  0  0  0  0  0  0  0
  -22.7988  -12.6220   21.3636 C   0  0  0  0  0  0  0  0  0  0  0  0
  -20.8837  -12.2994   22.9437 C   0  0  0  0  0  0  0  0  0  0  0  0
  -23.1547  -11.4661   23.5526 C   0  0  0  0  0  0  0  0  0  0  0  0
  -22.1424  -16.9629   27.5062 C   0  0  0  0  0  0  0  0  0  0  0  0
  -20.6077  -28.9945   24.0039 C   0  0  0  0  0  0  0  0  0  0  0  0
  -21.2163  -24.4227   21.3708 C   0  0  0  0  0  0  0  0  0  0  0  0
  -22.4962  -22.2870   20.9950 C   0  0  0  0  0  0  0  0  0  1  0  0
  -22.7001  -13.9530   23.5738 C   0  0  1  0  0  0  0  0  0  0  0  0
  -21.2661  -14.6778   27.0071 C   0  0  2  0  0  0  0  0  0  0  0  0
  -21.1207  -22.9451   20.9956 C   0  0  1  0  0  0  0  0  0  0  0  0
  -22.3926  -12.6113   22.8509 C   0  0  0  0  0  0  0  0  0  0  0  0
  -26.3761  -27.6768   20.7441 N   0  0  0  0  0  0  0  0  0  0  0  0
  -20.4623  -26.9241   22.6936 N   0  0  0  0  0  0  0  0  0  0  0  0
  -25.8564  -28.8700   20.4089 N   0  0  0  0  0  0  0  0  0  0  0  0
  -24.4595  -15.5426   22.8655 N   0  0  0  0  0  0  0  0  0  0  0  0
  -24.2120  -29.8776   23.7088 N   0  0  0  0  0  0  0  0  0  0  0  0
  -25.4004  -30.2796   18.5608 N   0  0  0  0  0  0  0  0  0  0  0  0
  -27.3011  -26.6508   16.6594 N   0  0  0  0  0  0  0  0  0  0  0  0
  -19.9008  -25.0224   21.3655 N   0  0  0  0  0  0  0  0  0  0  0  0
  -27.4188  -14.9843   20.9521 N   0  0  0  0  0  0  0  0  0  0  0  0
  -22.3507  -13.9624   24.9902 N   0  0  0  0  0  0  0  0  0  0  0  0
  -21.9991  -29.0484   23.6141 N   0  0  0  0  0  0  0  0  0  0  0  0
  -21.0361  -15.9870   27.6809 N   0  3  0  0  0  0  0  0  0  0  0  0
  -26.4015  -28.7177   16.2381 O   0  0  0  0  0  0  0  0  0  0  0  0
  -25.2332  -15.4970   20.3335 O   0  0  0  0  0  0  0  0  0  0  0  0
  -25.0048  -13.5711   23.9846 O   0  0  0  0  0  0  0  0  0  0  0  0
  -20.8910  -15.7607   24.8802 O   0  0  0  0  0  0  0  0  0  0  0  0
  -22.5436  -30.7282   25.0766 O   0  0  0  0  0  0  0  0  0  0  0  0
  -20.3154  -22.2685   21.9631 O   0  0  0  0  0  0  0  0  0  0  0  0
  -29.1245  -22.1110   19.3240 O   0  0  0  0  0  0  0  0  0  0  0  0
  -22.3494  -20.9060   20.6670 O   0  0  0  0  0  0  0  0  0  1  0  0
  -27.3418  -18.6293   15.4377 F   0  0  0  0  0  0  0  0  0  0  0  0
  -28.0236  -19.6683   20.0051 F   0  0  0  0  0  0  0  0  0  0  0  0
  -17.9949  -26.8211   21.9297 S   0  0  0  0  0  0  0  0  0  0  0  0
  1  2  1  0  0  0  0
  1  5  2  0  0  0  0
  2  6  2  0  0  0  0
  3  8  2  0  0  0  0
  3 16  1  0  0  0  0
  4  9  1  0  0  0  0
  4 16  2  0  0  0  0
  5 18  1  0  0  0  0
  6 20  1  0  0  0  0
  7 10  2  0  0  0  0
  7 19  1  0  0  0  0
  8 22  1  0  0  0  0
  9 22  2  0  0  0  0
 10 23  1  0  0  0  0
 11 12  2  0  0  0  0
 11 24  1  0  0  0  0
 12 25  1  0  0  0  0
 13 21  1  0  0  0  0
 13 23  2  0  0  0  0
 14 25  2  0  0  0  0
 14 26  1  0  0  0  0
 15 28  2  0  0  0  0
 15 82  1  0  0  0  0
 16 27  1  0  0  0  0
 17 27  1  0  0  0  0
 17 29  2  0  0  0  0
 17 31  1  0  0  0  0
 18 20  2  0  0  0  0
 18 36  1  0  0  0  0
 19 21  2  0  0  0  0
 19 37  1  0  0  0  0
 20 45  1  0  0  0  0
 21 38  1  0  0  0  0
 22 78  1  0  0  0  0
 23 79  1  0  0  0  0
 24 26  2  0  0  0  0
 24 78  1  0  0  0  0
 25 80  1  0  0  0  0
 26 81  1  0  0  0  0
 27 60  2  0  0  0  0
 28 53  1  0  0  0  0
 28 61  1  0  0  0  0
 29 62  1  0  0  0  0
 29 65  1  0  0  0  0
 30 61  2  0  0  0  0
 30 67  1  0  0  0  0
 30 82  1  0  0  0  0
 31 66  1  0  0  0  0
 31 72  2  0  0  0  0
 32 46  1  0  0  0  0
 32 68  1  0  0  0  0
 32 73  2  0  0  0  0
 33 56  1  0  0  0  0
 33 63  1  0  0  0  0
 33 74  2  0  0  0  0
 34 57  1  0  0  0  0
 34 69  1  0  0  0  0
 34 75  2  0  0  0  0
 35 64  1  0  0  0  0
 35 70  1  0  0  0  0
 35 76  2  0  0  0  0
 36 39  1  0  0  0  0
 37 46  1  0  0  0  0
 38 63  1  0  0  0  0
 39 41  1  0  0  0  0
 40 42  1  0  0  0  0
 40 43  1  0  0  0  0
 41 45  1  0  0  0  0
 42 47  1  0  0  0  0
 43 64  1  0  0  0  0
 44 47  1  0  0  0  0
 44 64  1  0  0  0  0
 45 68  1  0  0  0  0
 46 63  1  0  0  0  0
 47 62  1  0  0  0  0
 48 57  1  0  0  0  0
 49 59  1  0  0  0  0
 50 59  1  0  0  0  0
 51 59  1  0  0  0  0
 52 71  1  0  0  0  0
 53 70  1  0  0  0  0
 54 58  1  0  0  0  0
 54 67  1  0  0  0  0
 55 58  1  0  0  0  0
 55 79  1  0  0  0  0
 56 59  1  0  0  0  0
 56 69  1  0  0  0  0
 57 71  1  0  0  0  0
 58 77  1  0  0  0  0
 60 62  1  0  0  0  0
M  CHG  1  71   1
M  ISO  4  35 100  55 101  70 100  79 101
M  END
> <Batch ID>
0196

> <Smiles>
CNC(C)C(=O)NC(C(=O)N1Cc2cc([101O:1][101CH2:1]C(O)CNc3nc(C[100NH:0][100C:0](=O)N4CCCC(n5nc(-c6ccc(Oc7ccc(F)cc7F)cc6)c(C(N)=O)c5N)C4)cs3)ccc2CC1C(=O)NC1CCCc2ccccc21)C(C)(C)C

> <Shape>
0.216

> <Color>
0.068

> <Negative vol penalty>
0.000

$$$$

  -OEChem-04052305393D

 85 93  0     1  0  0  0  0  0999 V2000
  -30.1590  -35.7795   24.0035 C   0  0  0  0  0  0  0  0  0  0  0  0
  -30.1667  -34.4567   23.5725 C   0  0  0  0  0  0  0  0  0  0  0  0
  -23.4650   -9.8376   22.0041 C   0  0  0  0  0  0  0  0  0  0  0  0
  -24.9887   -7.9964   21.6506 C   0  0  0  0  0  0  0  0  0  0  0  0
  -28.9979  -36.3275   24.5472 C   0  0  0  0  0  0  0  0  0  0  0  0
  -29.0137  -33.6809   23.6860 C   0  0  0  0  0  0  0  0  0  0  0  0
  -27.1177  -29.3179   19.8291 C   0  0  0  0  0  0  0  0  0  0  0  0
  -22.3825   -8.9751   21.8311 C   0  0  0  0  0  0  0  0  0  0  0  0
  -23.9063   -7.1338   21.4777 C   0  0  0  0  0  0  0  0  0  0  0  0
  -27.2250  -27.9282   19.8591 C   0  0  0  0  0  0  0  0  0  0  0  0
  -21.6845   -5.5043   23.4345 C   0  0  0  0  0  0  0  0  0  0  0  0
  -21.7300   -4.2712   24.0849 C   0  0  0  0  0  0  0  0  0  0  0  0
  -29.3058  -20.2413   22.7324 C   0  0  0  0  0  0  0  0  0  0  0  0
  -25.0168  -27.7845   20.8195 C   0  0  0  0  0  0  0  0  0  0  0  0
  -21.5896   -3.1419   21.9537 C   0  0  0  0  0  0  0  0  0  0  0  0
  -29.7710  -19.1741   23.4733 C   0  0  0  0  0  0  0  0  0  0  0  0
  -24.7681   -9.3483   21.9138 C   0  0  0  0  0  0  0  0  0  0  0  0
  -26.5423  -10.5496   23.2982 C   0  0  0  0  0  0  0  0  0  0  0  0
  -27.8272  -35.5608   24.6586 C   0  0  0  0  0  0  0  0  0  0  0  0
  -25.9616  -29.9530   20.3050 C   0  0  0  0  0  0  0  0  0  0  0  0
  -27.8363  -34.2187   24.2330 C   0  0  0  0  0  0  0  0  0  0  0  0
  -24.8963  -29.1822   20.7921 C   0  0  0  0  0  0  0  0  0  0  0  0
  -22.6031   -7.6232   21.5679 C   0  0  0  0  0  0  0  0  0  0  0  0
  -26.1756  -27.1614   20.3570 C   0  0  0  0  0  0  0  0  0  0  0  0
  -21.5914   -5.5562   22.0436 C   0  0  0  0  0  0  0  0  0  0  0  0
  -21.6826   -3.0900   23.3445 C   0  0  0  0  0  0  0  0  0  0  0  0
  -21.5440   -4.3750   21.3033 C   0  0  0  0  0  0  0  0  0  0  0  0
  -25.8867  -10.2389   22.0918 C   0  0  0  0  0  0  0  0  0  0  0  0
  -28.8453  -19.9350   21.4682 C   0  0  0  0  0  0  0  0  0  0  0  0
  -27.5283  -11.4342   22.9352 C   0  0  0  0  0  0  0  0  0  0  0  0
  -29.3140  -17.7322   21.7765 C   0  0  0  0  0  0  0  0  0  0  0  0
  -26.2833  -10.0805   24.6281 C   0  0  0  0  0  0  0  0  0  0  0  0
  -25.3347  -32.0116   22.6445 C   0  0  0  0  0  0  0  0  0  0  0  0
  -22.3688  -32.0019   21.3307 C   0  0  0  0  0  0  0  0  0  0  0  0
  -20.0389  -30.3655   19.4490 C   0  0  0  0  0  0  0  0  0  0  0  0
  -28.8390  -16.0895   19.9678 C   0  0  0  0  0  0  0  0  0  0  0  0
  -26.6102  -36.1826   25.2965 C   0  0  0  0  0  0  0  0  0  0  0  0
  -25.8507  -31.4516   20.2411 C   0  0  0  0  0  0  0  0  0  0  0  0
  -23.6255  -29.8144   21.2961 C   0  0  0  0  0  0  0  0  0  0  0  0
  -25.3222  -35.4055   25.0367 C   0  0  0  0  0  0  0  0  0  0  0  0
  -29.2537  -12.7827   18.3856 C   0  0  0  0  0  0  0  0  0  0  0  0
  -25.5410  -33.9147   25.2746 C   0  0  0  0  0  0  0  0  0  0  0  0
  -28.4117  -11.8710   19.2766 C   0  0  0  0  0  0  0  0  0  0  0  0
  -28.7115  -14.2087   18.3606 C   0  0  0  0  0  0  0  0  0  0  0  0
  -27.7128  -13.9034   20.6055 C   0  0  0  0  0  0  0  0  0  0  0  0
  -26.5982  -33.3525   24.3166 C   0  0  1  0  0  0  0  0  0  0  0  0
  -24.8343  -32.0182   21.2277 C   0  0  1  0  0  0  0  0  0  0  0  0
  -28.2587  -12.4697   20.6855 C   0  0  1  0  0  0  0  0  0  0  0  0
  -17.6954  -30.5923   18.5808 C   0  0  0  0  0  0  0  0  0  0  0  0
  -21.2801  -31.3315   24.1011 C   0  0  0  0  0  0  0  0  0  0  0  0
  -19.1314  -30.6456   23.0143 C   0  0  0  0  0  0  0  0  0  0  0  0
  -19.9264  -33.0025   22.8245 C   0  0  0  0  0  0  0  0  0  0  0  0
  -30.0419  -15.3507   22.0116 C   0  0  0  0  0  0  0  0  0  0  0  0
  -20.9479  -30.2620   16.6344 C   0  0  0  0  0  0  0  0  0  0  0  0
  -25.8828  -20.5091   20.6033 C   0  0  0  0  0  0  0  0  0  0  0  0
  -28.3180  -21.0289   20.5871 C   0  0  0  0  0  0  0  0  0  0  0  0
  -26.6503  -22.8763   20.5061 C   0  0  0  0  0  0  0  0  0  0  0  0
  -27.5857  -25.2555   20.5445 C   0  0  0  0  0  0  0  0  0  1  0  0
  -21.1145  -31.1855   21.5287 C   0  0  1  0  0  0  0  0  0  0  0  0
  -19.1699  -30.8299   18.2942 C   0  0  2  0  0  0  0  0  0  0  0  0
  -27.4729  -23.9150   21.2635 C   0  0  1  0  0  0  0  0  0  0  0  0
  -20.3877  -31.5292   22.8595 C   0  0  0  0  0  0  0  0  0  0  0  0
  -29.7897  -17.9017   23.0248 N   0  0  0  0  0  0  0  0  0  0  0  0
  -26.4118  -10.8746   21.0410 N   0  0  0  0  0  0  0  0  0  0  0  0
  -28.8349  -18.6867   20.9562 N   0  0  0  0  0  0  0  0  0  0  0  0
  -27.4078  -11.5936   21.5860 N   0  0  0  0  0  0  0  0  0  0  0  0
  -23.5677  -31.2835   21.2187 N   0  0  0  0  0  0  0  0  0  0  0  0
  -28.5326  -14.7376   19.7133 N   0  0  0  0  0  0  0  0  0  0  0  0
  -28.4779  -12.0835   23.6416 N   0  0  0  0  0  0  0  0  0  0  0  0
  -25.2323   -9.1742   24.8240 N   0  0  0  0  0  0  0  0  0  0  0  0
  -26.0313  -33.1506   23.0005 N   0  0  0  0  0  0  0  0  0  0  0  0
  -20.3020  -31.3894   20.3343 N   0  0  0  0  0  0  0  0  0  0  0  0
  -29.3151  -16.3822   21.2642 N   0  0  0  0  0  0  0  0  0  0  0  0
  -19.5304  -30.0974   17.0474 N   0  3  0  0  0  0  0  0  0  0  0  0
  -26.9457  -21.5062   20.9943 N   0  3  1  0  0  0  0  0  0  0  0  0
  -26.9531  -10.4666   25.6158 O   0  0  0  0  0  0  0  0  0  0  0  0
  -25.1044  -31.0452   23.3620 O   0  0  0  0  0  0  0  0  0  0  0  0
  -22.2870  -33.2312   21.2702 O   0  0  0  0  0  0  0  0  0  0  0  0
  -20.4409  -29.2091   19.5571 O   0  0  0  0  0  0  0  0  0  0  0  0
  -28.7245  -16.9597   19.0964 O   0  0  0  0  0  0  0  0  0  0  0  0
  -26.8920  -24.1391   22.5491 O   0  0  0  0  0  0  0  0  0  0  0  0
  -21.5471   -6.7812   21.3993 O   0  0  0  0  0  0  0  0  0  0  0  0
  -26.2780  -25.8047   20.3880 O   0  0  0  0  0  0  0  0  0  1  0  0
  -21.7279   -1.9060   23.9692 F   0  0  0  0  0  0  0  0  0  0  0  0
  -21.4558   -4.4185   19.9668 F   0  0  0  0  0  0  0  0  0  0  0  0
  1  2  1  0  0  0  0
  1  5  2  0  0  0  0
  2  6  2  0  0  0  0
  3  8  2  0  0  0  0
  3 17  1  0  0  0  0
  4  9  1  0  0  0  0
  4 17  2  0  0  0  0
  5 19  1  0  0  0  0
  6 21  1  0  0  0  0
  7 10  2  0  0  0  0
  7 20  1  0  0  0  0
  8 23  1  0  0  0  0
  9 23  2  0  0  0  0
 10 24  1  0  0  0  0
 11 12  2  0  0  0  0
 11 25  1  0  0  0  0
 12 26  1  0  0  0  0
 13 16  2  0  0  0  0
 13 29  1  0  0  0  0
 14 22  1  0  0  0  0
 14 24  2  0  0  0  0
 15 26  2  0  0  0  0
 15 27  1  0  0  0  0
 16 63  1  0  0  0  0
 17 28  1  0  0  0  0
 18 28  1  0  0  0  0
 18 30  2  0  0  0  0
 18 32  1  0  0  0  0
 19 21  2  0  0  0  0
 19 37  1  0  0  0  0
 20 22  2  0  0  0  0
 20 38  1  0  0  0  0
 21 46  1  0  0  0  0
 22 39  1  0  0  0  0
 23 82  1  0  0  0  0
 24 83  1  0  0  0  0
 25 27  2  0  0  0  0
 25 82  1  0  0  0  0
 26 84  1  0  0  0  0
 27 85  1  0  0  0  0
 28 64  2  0  0  0  0
 29 56  1  0  0  0  0
 29 65  2  0  0  0  0
 30 66  1  0  0  0  0
 30 69  1  0  0  0  0
 31 63  2  0  0  0  0
 31 65  1  0  0  0  0
 31 73  1  0  0  0  0
 32 70  1  0  0  0  0
 32 76  2  0  0  0  0
 33 47  1  0  0  0  0
 33 71  1  0  0  0  0
 33 77  2  0  0  0  0
 34 59  1  0  0  0  0
 34 67  1  0  0  0  0
 34 78  2  0  0  0  0
 35 60  1  0  0  0  0
 35 72  1  0  0  0  0
 35 79  2  0  0  0  0
 36 68  1  0  0  0  0
 36 73  1  0  0  0  0
 36 80  2  0  0  0  0
 37 40  1  0  0  0  0
 38 47  1  0  0  0  0
 39 67  1  0  0  0  0
 40 42  1  0  0  0  0
 41 43  1  0  0  0  0
 41 44  1  0  0  0  0
 42 46  1  0  0  0  0
 43 48  1  0  0  0  0
 44 68  1  0  0  0  0
 45 48  1  0  0  0  0
 45 68  1  0  0  0  0
 46 71  1  0  0  0  0
 47 67  1  0  0  0  0
 48 66  1  0  0  0  0
 49 60  1  0  0  0  0
 50 62  1  0  0  0  0
 51 62  1  0  0  0  0
 52 62  1  0  0  0  0
 53 73  1  0  0  0  0
 54 74  1  0  0  0  0
 55 75  1  0  0  0  0
 56 75  1  0  0  0  0
 57 61  1  0  0  0  0
 57 75  1  0  0  0  0
 58 61  1  0  0  0  0
 58 83  1  0  0  0  0
 59 62  1  0  0  0  0
 59 72  1  0  0  0  0
 60 74  1  0  0  0  0
 61 81  1  0  0  0  0
 64 66  1  0  0  0  0
M  CHG  2  74   1  75   1
M  ISO  4  36 100  58 101  73 100  83 101
M  END
> <Batch ID>
0196

> <Smiles>
CNC(C)C(=O)NC(C(=O)N1Cc2cc([101O:1][101CH2:1]C(O)CN(C)Cc3ccnc([100N:0](C)[100C:0](=O)N4CCCC(n5nc(-c6ccc(Oc7ccc(F)cc7F)cc6)c(C(N)=O)c5N)C4)n3)ccc2CC1C(=O)NC1CCCc2ccccc21)C(C)(C)C

> <Shape>
0.278

> <Color>
0.076

> <Negative vol penalty>
0.000

$$$$

  -OEChem-04052305393D

 88 96  0     1  0  0  0  0  0999 V2000
  -28.8058  -37.3088   25.1859 C   0  0  0  0  0  0  0  0  0  0  0  0
  -29.2760  -36.2115   24.4717 C   0  0  0  0  0  0  0  0  0  0  0  0
  -24.6153   -9.0385   21.7727 C   0  0  0  0  0  0  0  0  0  0  0  0
  -22.7368  -10.3173   20.9524 C   0  0  0  0  0  0  0  0  0  0  0  0
  -27.6874  -37.1769   26.0079 C   0  0  0  0  0  0  0  0  0  0  0  0
  -28.6286  -34.9812   24.5799 C   0  0  0  0  0  0  0  0  0  0  0  0
  -27.9264  -30.7903   20.1697 C   0  0  0  0  0  0  0  0  0  0  0  0
  -23.7496   -8.2578   22.5385 C   0  0  0  0  0  0  0  0  0  0  0  0
  -21.8709   -9.5365   21.7182 C   0  0  0  0  0  0  0  0  0  0  0  0
  -28.6213  -29.6196   19.8690 C   0  0  0  0  0  0  0  0  0  0  0  0
  -21.6296   -5.6710   22.0416 C   0  0  0  0  0  0  0  0  0  0  0  0
  -21.8171   -4.2890   22.0253 C   0  0  0  0  0  0  0  0  0  0  0  0
  -26.9837  -28.3402   21.0941 C   0  0  0  0  0  0  0  0  0  0  0  0
  -22.1843   -4.3107   24.4132 C   0  0  0  0  0  0  0  0  0  0  0  0
  -23.4580  -20.6665   18.8614 C   0  0  0  0  0  0  0  0  0  0  0  0
  -24.1090  -10.0683   20.9796 C   0  0  0  0  0  0  0  0  0  0  0  0
  -25.4178  -10.6364   18.8650 C   0  0  0  0  0  0  0  0  0  0  0  0
  -27.0202  -35.9468   26.1187 C   0  0  0  0  0  0  0  0  0  0  0  0
  -26.7590  -30.7459   20.9453 C   0  0  0  0  0  0  0  0  0  0  0  0
  -27.5010  -34.8323   25.4051 C   0  0  0  0  0  0  0  0  0  0  0  0
  -26.2745  -29.5115   21.4010 C   0  0  0  0  0  0  0  0  0  0  0  0
  -22.3774   -8.5068   22.5113 C   0  0  0  0  0  0  0  0  0  0  0  0
  -28.1515  -28.3946   20.3336 C   0  0  0  0  0  0  0  0  0  0  0  0
  -21.7195   -6.3730   23.2436 C   0  0  0  0  0  0  0  0  0  0  0  0
  -22.0945   -3.6088   23.2111 C   0  0  0  0  0  0  0  0  0  0  0  0
  -21.9968   -5.6928   24.4294 C   0  0  0  0  0  0  0  0  0  0  0  0
  -25.0028  -10.8755   20.1888 C   0  0  0  0  0  0  0  0  0  0  0  0
  -24.7306  -20.7627   19.3797 C   0  0  0  0  0  0  0  0  0  0  0  0
  -23.4960  -18.4035   19.1882 C   0  0  0  0  0  0  0  0  0  0  0  0
  -24.7689  -18.4995   19.7058 C   0  0  0  0  0  0  0  0  0  0  0  0
  -26.2570  -11.6839   18.5737 C   0  0  0  0  0  0  0  0  0  0  0  0
  -25.0753   -9.5633   17.9779 C   0  0  0  0  0  0  0  0  0  0  0  0
  -25.8860  -31.9472   23.7557 C   0  0  0  0  0  0  0  0  0  0  0  0
  -22.9915  -30.7336   22.9363 C   0  0  0  0  0  0  0  0  0  0  0  0
  -21.2129  -28.4667   21.1075 C   0  0  0  0  0  0  0  0  0  0  0  0
  -26.7229  -17.2519   20.6916 C   0  0  0  0  0  0  0  0  0  0  0  0
  -25.8437  -35.8409   27.0564 C   0  0  0  0  0  0  0  0  0  0  0  0
  -26.0064  -32.0147   21.2384 C   0  0  0  0  0  0  0  0  0  0  0  0
  -25.0149  -29.4075   22.2203 C   0  0  0  0  0  0  0  0  0  0  0  0
  -24.9907  -34.5962   26.8254 C   0  0  0  0  0  0  0  0  0  0  0  0
  -29.2689  -14.7631   20.6669 C   0  0  0  0  0  0  0  0  0  0  0  0
  -25.8752  -33.3614   26.6853 C   0  0  0  0  0  0  0  0  0  0  0  0
  -28.5023  -13.4627   20.4149 C   0  0  0  0  0  0  0  0  0  0  0  0
  -28.4807  -15.7229   21.5563 C   0  0  0  0  0  0  0  0  0  0  0  0
  -26.3486  -14.7120   20.8481 C   0  0  0  0  0  0  0  0  0  0  0  0
  -26.8111  -33.4874   25.4770 C   0  0  1  0  0  0  0  0  0  0  0  0
  -25.1111  -31.9077   22.4690 C   0  0  1  0  0  0  0  0  0  0  0  0
  -27.0749  -13.7400   19.9040 C   0  0  2  0  0  0  0  0  0  0  0  0
  -18.8657  -27.6905   20.6763 C   0  0  0  0  0  0  0  0  0  0  0  0
  -27.3148  -23.9313   15.7719 C   0  0  0  0  0  0  0  0  0  0  0  0
  -25.0578  -24.8437   16.3578 C   0  0  0  0  0  0  0  0  0  0  0  0
  -22.9844  -29.2742   25.6158 C   0  0  0  0  0  0  0  0  0  0  0  0
  -21.1457  -27.8186   24.7392 C   0  0  0  0  0  0  0  0  0  0  0  0
  -20.7867  -30.2765   24.9680 C   0  0  0  0  0  0  0  0  0  0  0  0
  -21.3835  -29.1709   18.2380 C   0  0  0  0  0  0  0  0  0  0  0  0
  -25.4123  -22.0954   19.4817 C   0  0  0  0  0  0  0  0  0  0  0  0
  -27.9633  -23.8023   18.7953 C   0  0  0  0  0  0  0  0  0  0  0  0
  -28.0613  -26.0519   19.9342 C   0  0  0  0  0  0  0  0  0  1  0  0
  -22.2931  -29.4096   23.1319 C   0  0  1  0  0  0  0  0  0  0  0  0
  -19.9826  -28.6220   20.2318 C   0  0  2  0  0  0  0  0  0  0  0  0
  -26.4946  -24.6408   16.8539 C   0  0  0  0  0  0  0  0  0  0  0  0
  -26.5334  -23.9505   18.2405 C   0  0  1  0  0  0  0  0  0  0  0  0
  -28.7337  -25.1242   18.9252 C   0  0  1  0  0  0  0  0  0  0  0  0
  -21.8273  -29.1966   24.6000 C   0  0  0  0  0  0  0  0  0  0  0  0
  -22.8178  -19.4851   18.7564 N   0  0  0  0  0  0  0  0  0  0  0  0
  -25.5347  -11.9876   20.7029 N   0  0  0  0  0  0  0  0  0  0  0  0
  -25.4090  -19.6809   19.8111 N   0  0  0  0  0  0  0  0  0  0  0  0
  -26.2926  -12.4566   19.6970 N   0  0  0  0  0  0  0  0  0  0  0  0
  -24.3180  -30.6769   22.4858 N   0  0  0  0  0  0  0  0  0  0  0  0
  -27.1405  -15.9418   21.0078 N   0  0  0  0  0  0  0  0  0  0  0  0
  -22.8703  -17.1388   19.1010 N   0  0  0  0  0  0  0  0  0  0  0  0
  -26.9606  -12.0103   17.4688 N   0  0  0  0  0  0  0  0  0  0  0  0
  -24.1996   -8.5702   18.4375 N   0  0  0  0  0  0  0  0  0  0  0  0
  -25.4420  -17.3330   20.1464 N   0  0  0  0  0  0  0  0  0  0  0  0
  -26.0911  -33.2211   24.2502 N   0  0  0  0  0  0  0  0  0  0  0  0
  -21.2142  -29.3683   22.1508 N   0  0  0  0  0  0  0  0  0  0  0  0
  -20.3150  -28.3132   18.8122 N   0  3  0  0  0  0  0  0  0  0  0  0
  -25.8964  -22.6029   18.1729 N   0  3  0  0  0  0  0  0  0  0  0  0
  -25.5451   -9.4786   16.8179 O   0  0  0  0  0  0  0  0  0  0  0  0
  -26.2682  -30.8993   24.2632 O   0  0  0  0  0  0  0  0  0  0  0  0
  -22.3802  -31.7798   23.1676 O   0  0  0  0  0  0  0  0  0  0  0  0
  -22.0835  -27.6269   20.8901 O   0  0  0  0  0  0  0  0  0  0  0  0
  -27.4586  -18.2270   20.8647 O   0  0  0  0  0  0  0  0  0  0  0  0
  -30.0587  -24.8439   19.3754 O   0  0  0  0  0  0  0  0  0  0  0  0
  -21.5322   -7.7450   23.2582 O   0  0  0  0  0  0  0  0  0  0  0  0
  -28.8282  -27.2505   20.0421 O   0  0  0  0  0  0  0  0  0  1  0  0
  -22.2730   -2.2814   23.1956 F   0  0  0  0  0  0  0  0  0  0  0  0
  -22.0832   -6.3616   25.5875 F   0  0  0  0  0  0  0  0  0  0  0  0
  1  2  1  0  0  0  0
  1  5  2  0  0  0  0
  2  6  2  0  0  0  0
  3  8  2  0  0  0  0
  3 16  1  0  0  0  0
  4  9  1  0  0  0  0
  4 16  2  0  0  0  0
  5 18  1  0  0  0  0
  6 20  1  0  0  0  0
  7 10  2  0  0  0  0
  7 19  1  0  0  0  0
  8 22  1  0  0  0  0
  9 22  2  0  0  0  0
 10 23  1  0  0  0  0
 11 12  2  0  0  0  0
 11 24  1  0  0  0  0
 12 25  1  0  0  0  0
 13 21  1  0  0  0  0
 13 23  2  0  0  0  0
 14 25  2  0  0  0  0
 14 26  1  0  0  0  0
 15 28  1  0  0  0  0
 15 65  2  0  0  0  0
 16 27  1  0  0  0  0
 17 27  1  0  0  0  0
 17 31  2  0  0  0  0
 17 32  1  0  0  0  0
 18 20  2  0  0  0  0
 18 37  1  0  0  0  0
 19 21  2  0  0  0  0
 19 38  1  0  0  0  0
 20 46  1  0  0  0  0
 21 39  1  0  0  0  0
 22 85  1  0  0  0  0
 23 86  1  0  0  0  0
 24 26  2  0  0  0  0
 24 85  1  0  0  0  0
 25 87  1  0  0  0  0
 26 88  1  0  0  0  0
 27 66  2  0  0  0  0
 28 56  1  0  0  0  0
 28 67  2  0  0  0  0
 29 30  2  0  0  0  0
 29 65  1  0  0  0  0
 29 71  1  0  0  0  0
 30 67  1  0  0  0  0
 30 74  1  0  0  0  0
 31 68  1  0  0  0  0
 31 72  1  0  0  0  0
 32 73  1  0  0  0  0
 32 79  2  0  0  0  0
 33 47  1  0  0  0  0
 33 75  1  0  0  0  0
 33 80  2  0  0  0  0
 34 59  1  0  0  0  0
 34 69  1  0  0  0  0
 34 81  2  0  0  0  0
 35 60  1  0  0  0  0
 35 76  1  0  0  0  0
 35 82  2  0  0  0  0
 36 70  1  0  0  0  0
 36 74  1  0  0  0  0
 36 83  2  0  0  0  0
 37 40  1  0  0  0  0
 38 47  1  0  0  0  0
 39 69  1  0  0  0  0
 40 42  1  0  0  0  0
 41 43  1  0  0  0  0
 41 44  1  0  0  0  0
 42 46  1  0  0  0  0
 43 48  1  0  0  0  0
 44 70  1  0  0  0  0
 45 48  1  0  0  0  0
 45 70  1  0  0  0  0
 46 75  1  0  0  0  0
 47 69  1  0  0  0  0
 48 68  1  0  0  0  0
 49 60  1  0  0  0  0
 50 61  1  0  0  0  0
 51 61  1  0  0  0  0
 52 64  1  0  0  0  0
 53 64  1  0  0  0  0
 54 64  1  0  0  0  0
 55 77  1  0  0  0  0
 56 78  1  0  0  0  0
 57 62  1  0  0  0  0
 57 63  1  0  0  0  0
 58 63  1  0  0  0  0
 58 86  1  0  0  0  0
 59 64  1  0  0  0  0
 59 76  1  0  0  0  0
 60 77  1  0  0  0  0
 61 62  1  0  0  0  0
 62 78  1  0  0  0  0
 63 84  1  0  0  0  0
 66 68  1  0  0  0  0
M  CHG  2  77   1  78   1
M  ISO  4  36 100  58 101  74 100  86 101
M  END
> <Batch ID>
0196

> <Smiles>
CNC(C)C(=O)NC(C(=O)N1Cc2cc([101O:1][101CH2:1]C(O)CC(NCc3cnc(N)c([100NH:0][100C:0](=O)N4CCCC(n5nc(-c6ccc(Oc7ccc(F)cc7F)cc6)c(C(N)=O)c5N)C4)n3)C(C)C)ccc2CC1C(=O)NC1CCCc2ccccc21)C(C)(C)C

> <Shape>
0.287

> <Color>
0.091

> <Negative vol penalty>
0.000

$$$$

  -OEChem-04052305393D

 81 89  0     1  0  0  0  0  0999 V2000
  -26.1335  -10.9419   20.4188 C   0  0  0  0  0  0  0  0  0  0  0  0
  -26.8829  -12.0371   20.0012 C   0  0  0  0  0  0  0  0  0  0  0  0
  -19.6612  -28.8003   23.3785 C   0  0  0  0  0  0  0  0  0  0  0  0
  -20.7992  -26.8440   22.5329 C   0  0  0  0  0  0  0  0  0  0  0  0
  -24.7906  -11.1054   20.7561 C   0  0  0  0  0  0  0  0  0  0  0  0
  -26.2896  -13.2963   19.9197 C   0  0  0  0  0  0  0  0  0  0  0  0
  -28.9392  -18.6962   21.0713 C   0  0  0  0  0  0  0  0  0  0  0  0
  -18.4890  -28.3940   22.7410 C   0  0  0  0  0  0  0  0  0  0  0  0
  -19.6269  -26.4377   21.8953 C   0  0  0  0  0  0  0  0  0  0  0  0
  -29.4953  -19.6650   20.2372 C   0  0  0  0  0  0  0  0  0  0  0  0
  -16.8366  -24.6996   20.3427 C   0  0  0  0  0  0  0  0  0  0  0  0
  -16.4687  -23.3587   20.4531 C   0  0  0  0  0  0  0  0  0  0  0  0
  -27.4139  -20.8837   20.2749 C   0  0  0  0  0  0  0  0  0  0  0  0
  -16.3545  -23.5879   22.8555 C   0  0  0  0  0  0  0  0  0  0  0  0
  -28.9796  -27.0621   20.5403 C   0  0  0  0  0  0  0  0  0  0  0  0
  -20.8163  -28.0253   23.2745 C   0  0  0  0  0  0  0  0  0  0  0  0
  -22.4417  -28.1208   25.2383 C   0  0  0  0  0  0  0  0  0  0  0  0
  -24.1830  -12.3691   20.6879 C   0  0  0  0  0  0  0  0  0  0  0  0
  -27.6105  -18.8084   21.5054 C   0  0  0  0  0  0  0  0  0  0  0  0
  -24.9369  -13.4766   20.2551 C   0  0  0  0  0  0  0  0  0  0  0  0
  -26.8440  -19.9163   21.1166 C   0  0  0  0  0  0  0  0  0  0  0  0
  -18.4718  -27.2128   21.9994 C   0  0  0  0  0  0  0  0  0  0  0  0
  -28.7318  -20.7575   19.8364 C   0  0  0  0  0  0  0  0  0  0  0  0
  -16.9635  -25.4846   21.4887 C   0  0  0  0  0  0  0  0  0  0  0  0
  -16.2276  -22.8028   21.7095 C   0  0  0  0  0  0  0  0  0  0  0  0
  -16.7225  -24.9288   22.7451 C   0  0  0  0  0  0  0  0  0  0  0  0
  -22.0276  -28.4447   23.9324 C   0  0  0  0  0  0  0  0  0  0  0  0
  -28.9767  -28.4519   20.7505 C   0  0  0  0  0  0  0  0  0  0  0  0
  -23.6491  -28.7591   25.3840 C   0  0  0  0  0  0  0  0  0  0  0  0
  -30.2319  -26.8101   20.0459 C   0  0  0  0  0  0  0  0  0  0  0  0
  -21.7930  -27.3148   26.2309 C   0  0  0  0  0  0  0  0  0  0  0  0
  -24.9789  -17.0617   21.1485 C   0  0  0  0  0  0  0  0  0  0  0  0
  -23.7363  -19.2145   23.2327 C   0  0  0  0  0  0  0  0  0  0  0  0
  -23.8746  -22.3401   24.5959 C   0  0  0  0  0  0  0  0  0  0  0  0
  -27.8111  -30.5584   21.4924 C   0  0  0  0  0  0  0  0  0  0  0  0
  -22.7160  -12.4879   21.0174 C   0  0  0  0  0  0  0  0  0  0  0  0
  -27.0337  -17.7687   22.4267 C   0  0  0  0  0  0  0  0  0  0  0  0
  -25.4192  -20.0939   21.5714 C   0  0  0  0  0  0  0  0  0  0  0  0
  -22.2613  -13.9243   21.2628 C   0  0  0  0  0  0  0  0  0  0  0  0
  -26.0689  -32.5921   23.8388 C   0  0  0  0  0  0  0  0  0  0  0  0
  -22.8021  -14.8485   20.1764 C   0  0  0  0  0  0  0  0  0  0  0  0
  -24.8758  -31.7274   24.2525 C   0  0  0  0  0  0  0  0  0  0  0  0
  -26.4097  -32.4181   22.3598 C   0  0  0  0  0  0  0  0  0  0  0  0
  -25.4155  -30.1641   22.3415 C   0  0  0  0  0  0  0  0  0  0  0  0
  -24.3354  -14.8631   20.1775 C   0  0  1  0  0  0  0  0  0  0  0  0
  -25.5094  -17.7186   22.3914 C   0  0  1  0  0  0  0  0  0  0  0  0
  -25.0754  -30.2564   23.8380 C   0  0  2  0  0  0  0  0  0  0  0  0
  -22.7027  -23.8227   26.2469 C   0  0  0  0  0  0  0  0  0  0  0  0
  -21.4976  -19.6885   21.2143 C   0  0  0  0  0  0  0  0  0  0  0  0
  -20.9256  -21.7910   22.4475 C   0  0  0  0  0  0  0  0  0  0  0  0
  -20.7484  -19.5848   23.5981 C   0  0  0  0  0  0  0  0  0  0  0  0
  -26.2942  -22.5674   26.2849 C   0  0  0  0  0  0  0  0  0  0  0  0
  -30.2320  -24.3425   19.6763 C   0  0  0  0  0  0  0  0  0  0  0  0
  -30.6778  -21.9260   19.1266 C   0  0  0  0  0  0  0  0  0  1  0  0
  -23.0344  -20.5449   23.1040 C   0  0  1  0  0  0  0  0  0  0  0  0
  -23.8210  -22.8137   26.0372 C   0  0  2  0  0  0  0  0  0  0  0  0
  -30.9795  -23.3751   18.7606 C   0  0  1  0  0  0  0  0  0  0  0  0
  -21.5777  -20.3982   22.5807 C   0  0  0  0  0  0  0  0  0  0  0  0
  -22.9010  -29.2281   23.2940 N   0  0  0  0  0  0  0  0  0  0  0  0
  -30.1383  -29.0185   20.4123 N   0  0  0  0  0  0  0  0  0  0  0  0
  -23.8758  -29.4019   24.2026 N   0  0  0  0  0  0  0  0  0  0  0  0
  -24.8983  -19.0472   22.4662 N   0  0  0  0  0  0  0  0  0  0  0  0
  -26.5887  -30.9998   22.0415 N   0  0  0  0  0  0  0  0  0  0  0  0
  -24.5282  -28.8278   26.4061 N   0  0  0  0  0  0  0  0  0  0  0  0
  -20.5573  -26.7331   25.9161 N   0  0  0  0  0  0  0  0  0  0  0  0
  -27.8770  -29.1847   21.2617 N   0  0  0  0  0  0  0  0  0  0  0  0
  -30.8602  -25.6442   19.6422 N   0  0  0  0  0  0  0  0  0  0  0  0
  -24.8322  -15.6919   21.2549 N   0  0  0  0  0  0  0  0  0  0  0  0
  -23.1386  -21.1892   24.4088 N   0  0  0  0  0  0  0  0  0  0  0  0
  -25.1106  -23.4550   26.4200 N   0  3  0  0  0  0  0  0  0  0  0  0
  -22.2863  -27.1299   27.3693 O   0  0  0  0  0  0  0  0  0  0  0  0
  -24.7203  -17.7472   20.1662 O   0  0  0  0  0  0  0  0  0  0  0  0
  -23.2746  -18.3580   23.9909 O   0  0  0  0  0  0  0  0  0  0  0  0
  -24.5032  -22.9339   23.7226 O   0  0  0  0  0  0  0  0  0  0  0  0
  -28.7417  -31.3373   21.2703 O   0  0  0  0  0  0  0  0  0  0  0  0
  -30.9330  -27.9698   19.9649 O   0  0  0  0  0  0  0  0  0  0  0  0
  -30.5505  -23.5815   17.4131 O   0  0  0  0  0  0  0  0  0  0  0  0
  -17.3281  -26.8159   21.3773 O   0  0  0  0  0  0  0  0  0  0  0  0
  -29.2720  -21.7042   19.0217 O   0  0  0  0  0  0  0  0  0  1  0  0
  -15.8728  -21.5155   21.8153 F   0  0  0  0  0  0  0  0  0  0  0  0
  -16.8417  -25.6783   23.8495 F   0  0  0  0  0  0  0  0  0  0  0  0
  1  2  1  0  0  0  0
  1  5  2  0  0  0  0
  2  6  2  0  0  0  0
  3  8  2  0  0  0  0
  3 16  1  0  0  0  0
  4  9  1  0  0  0  0
  4 16  2  0  0  0  0
  5 18  1  0  0  0  0
  6 20  1  0  0  0  0
  7 10  2  0  0  0  0
  7 19  1  0  0  0  0
  8 22  1  0  0  0  0
  9 22  2  0  0  0  0
 10 23  1  0  0  0  0
 11 12  2  0  0  0  0
 11 24  1  0  0  0  0
 12 25  1  0  0  0  0
 13 21  1  0  0  0  0
 13 23  2  0  0  0  0
 14 25  2  0  0  0  0
 14 26  1  0  0  0  0
 15 28  1  0  0  0  0
 15 30  2  0  0  0  0
 16 27  1  0  0  0  0
 17 27  1  0  0  0  0
 17 29  2  0  0  0  0
 17 31  1  0  0  0  0
 18 20  2  0  0  0  0
 18 36  1  0  0  0  0
 19 21  2  0  0  0  0
 19 37  1  0  0  0  0
 20 45  1  0  0  0  0
 21 38  1  0  0  0  0
 22 78  1  0  0  0  0
 23 79  1  0  0  0  0
 24 26  2  0  0  0  0
 24 78  1  0  0  0  0
 25 80  1  0  0  0  0
 26 81  1  0  0  0  0
 27 59  2  0  0  0  0
 28 60  2  0  0  0  0
 28 66  1  0  0  0  0
 29 61  1  0  0  0  0
 29 64  1  0  0  0  0
 30 67  1  0  0  0  0
 30 76  1  0  0  0  0
 31 65  1  0  0  0  0
 31 71  2  0  0  0  0
 32 46  1  0  0  0  0
 32 68  1  0  0  0  0
 32 72  2  0  0  0  0
 33 55  1  0  0  0  0
 33 62  1  0  0  0  0
 33 73  2  0  0  0  0
 34 56  1  0  0  0  0
 34 69  1  0  0  0  0
 34 74  2  0  0  0  0
 35 63  1  0  0  0  0
 35 66  1  0  0  0  0
 35 75  2  0  0  0  0
 36 39  1  0  0  0  0
 37 46  1  0  0  0  0
 38 62  1  0  0  0  0
 39 41  1  0  0  0  0
 40 42  1  0  0  0  0
 40 43  1  0  0  0  0
 41 45  1  0  0  0  0
 42 47  1  0  0  0  0
 43 63  1  0  0  0  0
 44 47  1  0  0  0  0
 44 63  1  0  0  0  0
 45 68  1  0  0  0  0
 46 62  1  0  0  0  0
 47 61  1  0  0  0  0
 48 56  1  0  0  0  0
 49 58  1  0  0  0  0
 50 58  1  0  0  0  0
 51 58  1  0  0  0  0
 52 70  1  0  0  0  0
 53 57  1  0  0  0  0
 53 67  1  0  0  0  0
 54 57  1  0  0  0  0
 54 79  1  0  0  0  0
 55 58  1  0  0  0  0
 55 69  1  0  0  0  0
 56 70  1  0  0  0  0
 57 77  1  0  0  0  0
 59 61  1  0  0  0  0
 60 76  1  0  0  0  0
M  CHG  1  70   1
M  ISO  4  35 100  54 101  66 100  79 101
M  END
> <Batch ID>
0196

> <Smiles>
CNC(C)C(=O)NC(C(=O)N1Cc2cc([101O:1][101CH2:1]C(O)CNc3cc([100NH:0][100C:0](=O)N4CCCC(n5nc(-c6ccc(Oc7ccc(F)cc7F)cc6)c(C(N)=O)c5N)C4)no3)ccc2CC1C(=O)NC1CCCc2ccccc21)C(C)(C)C

> <Shape>
0.243

> <Color>
0.051

> <Negative vol penalty>
0.000

$$$$

  -OEChem-04052305393D

 84 92  0     1  0  0  0  0  0999 V2000
  -27.5445  -20.3888   14.9973 C   0  0  0  0  0  0  0  0  0  0  0  0
  -27.8285  -19.1154   15.4778 C   0  0  0  0  0  0  0  0  0  0  0  0
  -26.8091  -25.5055   20.0986 C   0  0  0  0  0  0  0  0  0  0  0  0
  -28.8526  -25.9137   21.3210 C   0  0  0  0  0  0  0  0  0  0  0  0
  -26.6122  -21.1867   15.6572 C   0  0  0  0  0  0  0  0  0  0  0  0
  -27.1716  -18.6350   16.6112 C   0  0  0  0  0  0  0  0  0  0  0  0
  -27.9452  -13.9282   17.8157 C   0  0  0  0  0  0  0  0  0  0  0  0
  -26.5972  -26.8801   19.9937 C   0  0  0  0  0  0  0  0  0  0  0  0
  -28.6408  -27.2884   21.2161 C   0  0  0  0  0  0  0  0  0  0  0  0
  -29.1515  -13.4747   18.3476 C   0  0  0  0  0  0  0  0  0  0  0  0
  -25.3332  -30.2786   19.7167 C   0  0  0  0  0  0  0  0  0  0  0  0
  -24.0498  -30.7600   19.9751 C   0  0  0  0  0  0  0  0  0  0  0  0
  -28.1443  -13.3827   20.5377 C   0  0  0  0  0  0  0  0  0  0  0  0
  -24.1649  -29.8642   22.2159 C   0  0  0  0  0  0  0  0  0  0  0  0
  -27.9368  -25.0223   20.7623 C   0  0  0  0  0  0  0  0  0  0  0  0
  -28.8589  -22.7790   19.9716 C   0  0  0  0  0  0  0  0  0  0  0  0
  -25.9532  -20.7198   16.8065 C   0  0  0  0  0  0  0  0  0  0  0  0
  -26.8305  -14.1230   18.6440 C   0  0  0  0  0  0  0  0  0  0  0  0
  -26.2099  -19.4160   17.2773 C   0  0  0  0  0  0  0  0  0  0  0  0
  -26.9242  -13.8362   20.0134 C   0  0  0  0  0  0  0  0  0  0  0  0
  -27.5130  -27.7716   20.5524 C   0  0  0  0  0  0  0  0  0  0  0  0
  -29.2520  -13.2047   19.7093 C   0  0  0  0  0  0  0  0  0  0  0  0
  -26.0324  -29.5898   20.7079 C   0  0  0  0  0  0  0  0  0  0  0  0
  -23.4657  -30.5529   21.2247 C   0  0  0  0  0  0  0  0  0  0  0  0
  -25.4482  -29.3826   21.9575 C   0  0  0  0  0  0  0  0  0  0  0  0
  -28.1559  -23.6023   20.8714 C   0  0  0  0  0  0  0  0  0  0  0  0
  -31.5649  -14.5317   24.2194 C   0  0  0  0  0  0  0  0  0  0  0  0
  -28.7811  -21.5233   20.5226 C   0  0  0  0  0  0  0  0  0  0  0  0
  -31.9708  -14.6612   22.9077 C   0  0  0  0  0  0  0  0  0  0  0  0
  -30.5557  -16.4207   23.7470 C   0  0  0  0  0  0  0  0  0  0  0  0
  -29.5229  -23.1189   18.7471 C   0  0  0  0  0  0  0  0  0  0  0  0
  -25.0463  -16.6265   19.4516 C   0  0  0  0  0  0  0  0  0  0  0  0
  -23.2546  -14.3740   20.9478 C   0  0  0  0  0  0  0  0  0  0  0  0
  -23.0930  -11.2781   22.3747 C   0  0  0  0  0  0  0  0  0  0  0  0
  -29.0765  -18.0999   24.9040 C   0  0  0  0  0  0  0  0  0  0  0  0
  -24.9477  -21.6223   17.4769 C   0  0  0  0  0  0  0  0  0  0  0  0
  -25.5288  -14.5871   18.0503 C   0  0  0  0  0  0  0  0  0  0  0  0
  -25.7511  -14.0096   20.9420 C   0  0  0  0  0  0  0  0  0  0  0  0
  -24.6359  -21.2038   18.9101 C   0  0  0  0  0  0  0  0  0  0  0  0
  -25.9837  -19.7791   24.3636 C   0  0  0  0  0  0  0  0  0  0  0  0
  -24.3175  -19.7170   18.9599 C   0  0  0  0  0  0  0  0  0  0  0  0
  -26.3309  -20.8557   23.3329 C   0  0  0  0  0  0  0  0  0  0  0  0
  -27.1198  -19.5618   25.3615 C   0  0  0  0  0  0  0  0  0  0  0  0
  -28.7789  -20.3683   23.7287 C   0  0  0  0  0  0  0  0  0  0  0  0
  -25.5303  -18.8840   18.5261 C   0  0  1  0  0  0  0  0  0  0  0  0
  -24.6050  -15.2410   19.0732 C   0  0  1  0  0  0  0  0  0  0  0  0
  -27.6907  -20.5768   22.6629 C   0  0  2  0  0  0  0  0  0  0  0  0
  -31.9165  -13.4281   25.1380 C   0  0  0  0  0  0  0  0  0  0  0  0
  -21.5033   -9.7293   23.5458 C   0  0  0  0  0  0  0  0  0  0  0  0
  -34.2415  -15.0991   20.7516 C   0  0  0  0  0  0  0  0  0  0  0  0
  -23.5052  -16.0428   23.4900 C   0  0  0  0  0  0  0  0  0  0  0  0
  -22.7507  -14.0431   24.7938 C   0  0  0  0  0  0  0  0  0  0  0  0
  -21.2344  -15.0702   23.1001 C   0  0  0  0  0  0  0  0  0  0  0  0
  -23.3739   -9.2135   20.2730 C   0  0  0  0  0  0  0  0  0  0  0  0
  -33.6187  -12.7347   20.1452 C   0  0  0  0  0  0  0  0  0  0  0  0
  -31.2698  -11.9911   19.3748 C   0  0  0  0  0  0  0  0  0  1  0  0
  -23.2484  -13.7536   22.3240 C   0  0  1  0  0  0  0  0  0  0  0  0
  -22.0985  -10.1432   22.2089 C   0  0  2  0  0  0  0  0  0  0  0  0
  -33.1432  -14.0406   20.7944 C   0  0  1  0  0  0  0  0  0  0  0  0
  -32.5632  -11.6179   20.0954 C   0  0  1  0  0  0  0  0  0  0  0  0
  -22.7075  -14.7259   23.4101 C   0  0  0  0  0  0  0  0  0  0  0  0
  -27.6674  -22.9265   21.9148 N   0  0  0  0  0  0  0  0  0  0  0  0
  -30.7537  -15.5399   24.7025 N   0  0  0  0  0  0  0  0  0  0  0  0
  -28.0639  -21.6652   21.6740 N   0  0  0  0  0  0  0  0  0  0  0  0
  -24.5019  -14.4717   20.3148 N   0  0  0  0  0  0  0  0  0  0  0  0
  -28.3754  -19.2987   24.6549 N   0  0  0  0  0  0  0  0  0  0  0  0
  -29.2569  -20.3226   20.1297 N   0  0  0  0  0  0  0  0  0  0  0  0
  -29.5063  -24.4559   18.3269 N   0  0  0  0  0  0  0  0  0  0  0  0
  -32.7780  -13.8085   22.1759 N   0  0  0  0  0  0  0  0  0  0  0  0
  -29.7880  -17.6100   23.8093 N   0  0  0  0  0  0  0  0  0  0  0  0
  -25.1278  -17.5019   18.3855 N   0  0  0  0  0  0  0  0  0  0  0  0
  -22.4954  -12.5094   22.2075 N   0  0  0  0  0  0  0  0  0  0  0  0
  -22.7642   -8.9556   21.6030 N   0  3  0  0  0  0  0  0  0  0  0  0
  -30.0994  -22.2596   18.0381 O   0  0  0  0  0  0  0  0  0  0  0  0
  -25.2929  -16.8829   20.6243 O   0  0  0  0  0  0  0  0  0  0  0  0
  -22.1911  -14.7515   20.4498 O   0  0  0  0  0  0  0  0  0  0  0  0
  -24.2804  -11.0912   22.6310 O   0  0  0  0  0  0  0  0  0  0  0  0
  -29.0258  -17.5340   25.9990 O   0  0  0  0  0  0  0  0  0  0  0  0
  -33.1298  -10.4964   19.4121 O   0  0  0  0  0  0  0  0  0  0  0  0
  -27.3067  -29.1131   20.4501 O   0  0  0  0  0  0  0  0  0  0  0  0
  -30.4285  -12.7626   20.2312 O   0  0  0  0  0  0  0  0  0  1  0  0
  -22.2339  -31.0166   21.4732 F   0  0  0  0  0  0  0  0  0  0  0  0
  -26.1155  -28.7227   22.9141 F   0  0  0  0  0  0  0  0  0  0  0  0
  -31.3145  -16.0990   22.2418 S   0  0  0  0  0  0  0  0  0  0  0  0
  1  2  1  0  0  0  0
  1  5  2  0  0  0  0
  2  6  2  0  0  0  0
  3  8  2  0  0  0  0
  3 15  1  0  0  0  0
  4  9  1  0  0  0  0
  4 15  2  0  0  0  0
  5 17  1  0  0  0  0
  6 19  1  0  0  0  0
  7 10  2  0  0  0  0
  7 18  1  0  0  0  0
  8 21  1  0  0  0  0
  9 21  2  0  0  0  0
 10 22  1  0  0  0  0
 11 12  2  0  0  0  0
 11 23  1  0  0  0  0
 12 24  1  0  0  0  0
 13 20  1  0  0  0  0
 13 22  2  0  0  0  0
 14 24  2  0  0  0  0
 14 25  1  0  0  0  0
 15 26  1  0  0  0  0
 16 26  1  0  0  0  0
 16 28  2  0  0  0  0
 16 31  1  0  0  0  0
 17 19  2  0  0  0  0
 17 36  1  0  0  0  0
 18 20  2  0  0  0  0
 18 37  1  0  0  0  0
 19 45  1  0  0  0  0
 20 38  1  0  0  0  0
 21 80  1  0  0  0  0
 22 81  1  0  0  0  0
 23 25  2  0  0  0  0
 23 80  1  0  0  0  0
 24 82  1  0  0  0  0
 25 83  1  0  0  0  0
 26 62  2  0  0  0  0
 27 29  2  0  0  0  0
 27 48  1  0  0  0  0
 27 63  1  0  0  0  0
 28 64  1  0  0  0  0
 28 67  1  0  0  0  0
 29 69  1  0  0  0  0
 29 84  1  0  0  0  0
 30 63  2  0  0  0  0
 30 70  1  0  0  0  0
 30 84  1  0  0  0  0
 31 68  1  0  0  0  0
 31 74  2  0  0  0  0
 32 46  1  0  0  0  0
 32 71  1  0  0  0  0
 32 75  2  0  0  0  0
 33 57  1  0  0  0  0
 33 65  1  0  0  0  0
 33 76  2  0  0  0  0
 34 58  1  0  0  0  0
 34 72  1  0  0  0  0
 34 77  2  0  0  0  0
 35 66  1  0  0  0  0
 35 70  1  0  0  0  0
 35 78  2  0  0  0  0
 36 39  1  0  0  0  0
 37 46  1  0  0  0  0
 38 65  1  0  0  0  0
 39 41  1  0  0  0  0
 40 42  1  0  0  0  0
 40 43  1  0  0  0  0
 41 45  1  0  0  0  0
 42 47  1  0  0  0  0
 43 66  1  0  0  0  0
 44 47  1  0  0  0  0
 44 66  1  0  0  0  0
 45 71  1  0  0  0  0
 46 65  1  0  0  0  0
 47 64  1  0  0  0  0
 49 58  1  0  0  0  0
 50 59  1  0  0  0  0
 51 61  1  0  0  0  0
 52 61  1  0  0  0  0
 53 61  1  0  0  0  0
 54 73  1  0  0  0  0
 55 59  1  0  0  0  0
 55 60  1  0  0  0  0
 56 60  1  0  0  0  0
 56 81  1  0  0  0  0
 57 61  1  0  0  0  0
 57 72  1  0  0  0  0
 58 73  1  0  0  0  0
 59 69  1  0  0  0  0
 60 79  1  0  0  0  0
 62 64  1  0  0  0  0
M  CHG  1  73   1
M  ISO  4  35 100  56 101  70 100  81 101
M  END
> <Batch ID>
0196

> <Smiles>
CNC(C)C(=O)NC(C(=O)N1Cc2cc([101O:1][101CH2:1]C(O)CC(C)Nc3sc([100NH:0][100C:0](=O)N4CCCC(n5nc(-c6ccc(Oc7ccc(F)cc7F)cc6)c(C(N)=O)c5N)C4)nc3C)ccc2CC1C(=O)NC1CCCc2ccccc21)C(C)(C)C

> <Shape>
0.228

> <Color>
0.071

> <Negative vol penalty>
0.000

$$$$

  -OEChem-04052305393D

 83 91  0     1  0  0  0  0  0999 V2000
  -23.1866  -27.1227   14.8914 C   0  0  0  0  0  0  0  0  0  0  0  0
  -23.6542  -25.8447   15.1803 C   0  0  0  0  0  0  0  0  0  0  0  0
  -27.0112  -26.0296   17.4646 C   0  0  0  0  0  0  0  0  0  0  0  0
  -26.5926  -25.4813   19.7801 C   0  0  0  0  0  0  0  0  0  0  0  0
  -22.2507  -27.7273   15.7295 C   0  0  0  0  0  0  0  0  0  0  0  0
  -23.1868  -25.1709   16.3082 C   0  0  0  0  0  0  0  0  0  0  0  0
  -22.2397  -19.1463   16.8683 C   0  0  0  0  0  0  0  0  0  0  0  0
  -26.0827  -27.0676   17.5426 C   0  0  0  0  0  0  0  0  0  0  0  0
  -25.6642  -26.5193   19.8580 C   0  0  0  0  0  0  0  0  0  0  0  0
  -23.0070  -18.1240   17.4248 C   0  0  0  0  0  0  0  0  0  0  0  0
  -25.7118  -29.8813   20.1978 C   0  0  0  0  0  0  0  0  0  0  0  0
  -25.7651  -30.7137   21.3157 C   0  0  0  0  0  0  0  0  0  0  0  0
  -28.4316  -12.5354   20.0086 C   0  0  0  0  0  0  0  0  0  0  0  0
  -21.7701  -18.3259   19.4860 C   0  0  0  0  0  0  0  0  0  0  0  0
  -23.5033  -30.0875   21.8896 C   0  0  0  0  0  0  0  0  0  0  0  0
  -27.1687  -12.0033   19.8464 C   0  0  0  0  0  0  0  0  0  0  0  0
  -27.2661  -25.2364   18.5834 C   0  0  0  0  0  0  0  0  0  0  0  0
  -29.6051  -24.2354   18.7700 C   0  0  0  0  0  0  0  0  0  0  0  0
  -21.7644  -27.0568   16.8629 C   0  0  0  0  0  0  0  0  0  0  0  0
  -21.2374  -19.7747   17.6213 C   0  0  0  0  0  0  0  0  0  0  0  0
  -22.2445  -25.7676   17.1629 C   0  0  0  0  0  0  0  0  0  0  0  0
  -20.9897  -19.3543   18.9358 C   0  0  0  0  0  0  0  0  0  0  0  0
  -25.4092  -27.3125   18.7393 C   0  0  0  0  0  0  0  0  0  0  0  0
  -22.7742  -17.7156   18.7348 C   0  0  0  0  0  0  0  0  0  0  0  0
  -24.5543  -29.1520   19.9257 C   0  0  0  0  0  0  0  0  0  0  0  0
  -24.6608  -30.8168   22.1617 C   0  0  0  0  0  0  0  0  0  0  0  0
  -23.4500  -29.2551   20.7716 C   0  0  0  0  0  0  0  0  0  0  0  0
  -28.2247  -24.1636   18.5033 C   0  0  0  0  0  0  0  0  0  0  0  0
  -28.4764  -13.8592   20.3959 C   0  0  0  0  0  0  0  0  0  0  0  0
  -30.0638  -22.9593   18.5516 C   0  0  0  0  0  0  0  0  0  0  0  0
  -26.2067  -13.9813   20.4200 C   0  0  0  0  0  0  0  0  0  0  0  0
  -30.4015  -25.3554   19.1787 C   0  0  0  0  0  0  0  0  0  0  0  0
  -20.7254  -22.7413   18.6415 C   0  0  0  0  0  0  0  0  0  0  0  0
  -17.8989  -21.4963   19.6332 C   0  0  0  0  0  0  0  0  0  0  0  0
  -16.1149  -18.7406   20.5660 C   0  0  0  0  0  0  0  0  0  0  0  0
  -29.5967  -17.5519   19.2509 C   0  0  0  0  0  0  0  0  0  0  0  0
  -20.7886  -27.7697   17.7651 C   0  0  0  0  0  0  0  0  0  0  0  0
  -20.4006  -20.8577   16.9975 C   0  0  0  0  0  0  0  0  0  0  0  0
  -19.9120  -19.9827   19.7796 C   0  0  0  0  0  0  0  0  0  0  0  0
  -20.0633  -26.8394   18.7341 C   0  0  0  0  0  0  0  0  0  0  0  0
  -27.7954  -18.9584   16.4447 C   0  0  0  0  0  0  0  0  0  0  0  0
  -21.0514  -25.8876   19.4008 C   0  0  0  0  0  0  0  0  0  0  0  0
  -27.8636  -20.4541   16.7584 C   0  0  0  0  0  0  0  0  0  0  0  0
  -27.6217  -18.1342   17.7169 C   0  0  0  0  0  0  0  0  0  0  0  0
  -28.7345  -19.8684   19.0688 C   0  0  0  0  0  0  0  0  0  0  0  0
  -21.7429  -24.9947   18.3634 C   0  0  1  0  0  0  0  0  0  0  0  0
  -19.7504  -21.7777   18.0262 C   0  0  1  0  0  0  0  0  0  0  0  0
  -28.9326  -20.7547   17.8257 C   0  0  2  0  0  0  0  0  0  0  0  0
  -13.8383  -18.0430   21.3584 C   0  0  0  0  0  0  0  0  0  0  0  0
  -25.3472  -16.1864   22.5372 C   0  0  0  0  0  0  0  0  0  0  0  0
  -18.5286  -22.6007   22.4069 C   0  0  0  0  0  0  0  0  0  0  0  0
  -16.7534  -21.0972   23.3322 C   0  0  0  0  0  0  0  0  0  0  0  0
  -16.1483  -22.8752   21.6905 C   0  0  0  0  0  0  0  0  0  0  0  0
  -15.7025  -16.9957   18.2113 C   0  0  0  0  0  0  0  0  0  0  0  0
  -29.7978  -14.5218   20.5964 C   0  0  0  0  0  0  0  0  0  0  0  0
  -30.3485  -15.1885   19.3302 C   0  0  0  0  0  0  0  0  0  0  0  0
  -23.7365  -16.7647   20.6908 C   0  0  0  0  0  0  0  0  0  1  0  0
  -17.4079  -20.8318   20.8966 C   0  0  1  0  0  0  0  0  0  0  0  0
  -14.7424  -18.2414   20.1517 C   0  0  2  0  0  0  0  0  0  0  0  0
  -25.0742  -16.1163   21.0405 C   0  0  2  0  0  0  0  0  0  0  0  0
  -17.2312  -21.8405   22.0666 C   0  0  0  0  0  0  0  0  0  0  0  0
  -26.0305  -12.7002   20.0443 N   0  0  0  0  0  0  0  0  0  0  0  0
  -27.8321  -22.9389   18.1428 N   0  0  0  0  0  0  0  0  0  0  0  0
  -27.3796  -14.6149   20.6111 N   0  0  0  0  0  0  0  0  0  0  0  0
  -28.9728  -22.2293   18.1814 N   0  0  0  0  0  0  0  0  0  0  0  0
  -19.1249  -21.0419   19.1270 N   0  0  0  0  0  0  0  0  0  0  0  0
  -28.6813  -18.4541   18.6839 N   0  0  0  0  0  0  0  0  0  0  0  0
  -31.2899  -22.4017   18.6419 N   0  0  0  0  0  0  0  0  0  0  0  0
  -29.7706  -26.5941   19.3573 N   0  0  0  0  0  0  0  0  0  0  0  0
  -25.0610  -14.7260   20.6319 N   0  0  0  0  0  0  0  0  0  0  0  0
  -20.8591  -23.9276   17.9457 N   0  0  0  0  0  0  0  0  0  0  0  0
  -16.1886  -20.1171   20.5346 N   0  0  0  0  0  0  0  0  0  0  0  0
  -29.4745  -16.2305   18.8389 N   0  0  0  0  0  0  0  0  0  0  0  0
  -14.8593  -16.9410   19.4332 N   0  3  0  0  0  0  0  0  0  0  0  0
  -31.6388  -25.2642   19.3638 O   0  0  0  0  0  0  0  0  0  0  0  0
  -21.3117  -22.4320   19.6722 O   0  0  0  0  0  0  0  0  0  0  0  0
  -17.2162  -22.3809   19.1105 O   0  0  0  0  0  0  0  0  0  0  0  0
  -17.0290  -17.9851   20.8889 O   0  0  0  0  0  0  0  0  0  0  0  0
  -30.4629  -17.8993   20.0609 O   0  0  0  0  0  0  0  0  0  0  0  0
  -24.5033  -28.3254   18.8158 O   0  0  0  0  0  0  0  0  0  0  0  0
  -23.5221  -16.7183   19.2807 O   0  0  0  0  0  0  0  0  0  1  0  0
  -24.7126  -31.6150   23.2361 F   0  0  0  0  0  0  0  0  0  0  0  0
  -22.3357  -28.5561   20.5160 F   0  0  0  0  0  0  0  0  0  0  0  0
  1  2  1  0  0  0  0
  1  5  2  0  0  0  0
  2  6  2  0  0  0  0
  3  8  2  0  0  0  0
  3 17  1  0  0  0  0
  4  9  1  0  0  0  0
  4 17  2  0  0  0  0
  5 19  1  0  0  0  0
  6 21  1  0  0  0  0
  7 10  2  0  0  0  0
  7 20  1  0  0  0  0
  8 23  1  0  0  0  0
  9 23  2  0  0  0  0
 10 24  1  0  0  0  0
 11 12  2  0  0  0  0
 11 25  1  0  0  0  0
 12 26  1  0  0  0  0
 13 16  1  0  0  0  0
 13 29  2  0  0  0  0
 14 22  1  0  0  0  0
 14 24  2  0  0  0  0
 15 26  2  0  0  0  0
 15 27  1  0  0  0  0
 16 62  2  0  0  0  0
 17 28  1  0  0  0  0
 18 28  1  0  0  0  0
 18 30  2  0  0  0  0
 18 32  1  0  0  0  0
 19 21  2  0  0  0  0
 19 37  1  0  0  0  0
 20 22  2  0  0  0  0
 20 38  1  0  0  0  0
 21 46  1  0  0  0  0
 22 39  1  0  0  0  0
 23 80  1  0  0  0  0
 24 81  1  0  0  0  0
 25 27  2  0  0  0  0
 25 80  1  0  0  0  0
 26 82  1  0  0  0  0
 27 83  1  0  0  0  0
 28 63  2  0  0  0  0
 29 55  1  0  0  0  0
 29 64  1  0  0  0  0
 30 65  1  0  0  0  0
 30 68  1  0  0  0  0
 31 62  1  0  0  0  0
 31 64  2  0  0  0  0
 31 70  1  0  0  0  0
 32 69  1  0  0  0  0
 32 75  2  0  0  0  0
 33 47  1  0  0  0  0
 33 71  1  0  0  0  0
 33 76  2  0  0  0  0
 34 58  1  0  0  0  0
 34 66  1  0  0  0  0
 34 77  2  0  0  0  0
 35 59  1  0  0  0  0
 35 72  1  0  0  0  0
 35 78  2  0  0  0  0
 36 67  1  0  0  0  0
 36 73  1  0  0  0  0
 36 79  2  0  0  0  0
 37 40  1  0  0  0  0
 38 47  1  0  0  0  0
 39 66  1  0  0  0  0
 40 42  1  0  0  0  0
 41 43  1  0  0  0  0
 41 44  1  0  0  0  0
 42 46  1  0  0  0  0
 43 48  1  0  0  0  0
 44 67  1  0  0  0  0
 45 48  1  0  0  0  0
 45 67  1  0  0  0  0
 46 71  1  0  0  0  0
 47 66  1  0  0  0  0
 48 65  1  0  0  0  0
 49 59  1  0  0  0  0
 50 60  1  0  0  0  0
 51 61  1  0  0  0  0
 52 61  1  0  0  0  0
 53 61  1  0  0  0  0
 54 74  1  0  0  0  0
 55 56  1  0  0  0  0
 56 73  1  0  0  0  0
 57 60  1  0  0  0  0
 57 81  1  0  0  0  0
 58 61  1  0  0  0  0
 58 72  1  0  0  0  0
 59 74  1  0  0  0  0
 60 70  1  0  0  0  0
 63 65  1  0  0  0  0
M  CHG  1  74   1
M  ISO  4  36 100  57 101  73 100  81 101
M  END
> <Batch ID>
0196

> <Smiles>
CNC(C)C(=O)NC(C(=O)N1Cc2cc([101O:1][101CH2:1]C(C)Nc3nccc(CC[100NH:0][100C:0](=O)N4CCCC(n5nc(-c6ccc(Oc7ccc(F)cc7F)cc6)c(C(N)=O)c5N)C4)n3)ccc2CC1C(=O)NC1CCCc2ccccc21)C(C)(C)C

> <Shape>
0.184

> <Color>
0.066

> <Negative vol penalty>
0.000

$$$$

  -OEChem-04052305393D

 83 91  0     1  0  0  0  0  0999 V2000
  -27.8976  -35.2807   16.3331 C   0  0  0  0  0  0  0  0  0  0  0  0
  -28.2908  -34.0261   16.7878 C   0  0  0  0  0  0  0  0  0  0  0  0
  -23.2106   -9.6145   20.3313 C   0  0  0  0  0  0  0  0  0  0  0  0
  -23.8260  -10.0966   22.6173 C   0  0  0  0  0  0  0  0  0  0  0  0
  -27.7255  -36.3267   17.2388 C   0  0  0  0  0  0  0  0  0  0  0  0
  -28.5133  -33.8170   18.1484 C   0  0  0  0  0  0  0  0  0  0  0  0
  -26.4469  -29.5044   19.8146 C   0  0  0  0  0  0  0  0  0  0  0  0
  -22.5174   -8.4813   20.7568 C   0  0  0  0  0  0  0  0  0  0  0  0
  -23.1328   -8.9634   23.0429 C   0  0  0  0  0  0  0  0  0  0  0  0
  -27.1262  -28.3209   19.5290 C   0  0  0  0  0  0  0  0  0  0  0  0
  -23.6403   -5.6221   23.1383 C   0  0  0  0  0  0  0  0  0  0  0  0
  -24.2659   -4.7905   24.0670 C   0  0  0  0  0  0  0  0  0  0  0  0
  -28.0394  -28.3134   21.7618 C   0  0  0  0  0  0  0  0  0  0  0  0
  -22.4555   -5.1654   25.6224 C   0  0  0  0  0  0  0  0  0  0  0  0
  -31.4111  -18.0246   21.0259 C   0  0  0  0  0  0  0  0  0  0  0  0
  -29.4337  -18.3969   21.9126 C   0  0  0  0  0  0  0  0  0  0  0  0
  -23.8649  -10.4221   21.2615 C   0  0  0  0  0  0  0  0  0  0  0  0
  -24.0738  -12.8981   20.6840 C   0  0  0  0  0  0  0  0  0  0  0  0
  -27.9367  -36.1278   18.6123 C   0  0  0  0  0  0  0  0  0  0  0  0
  -26.5676  -30.1082   21.0745 C   0  0  0  0  0  0  0  0  0  0  0  0
  -28.3452  -34.8617   19.0731 C   0  0  0  0  0  0  0  0  0  0  0  0
  -27.3585  -29.5032   22.0617 C   0  0  0  0  0  0  0  0  0  0  0  0
  -30.1816  -17.4068   21.3237 C   0  0  0  0  0  0  0  0  0  0  0  0
  -22.4785   -8.1558   22.1126 C   0  0  0  0  0  0  0  0  0  0  0  0
  -27.9249  -27.7268   20.5017 C   0  0  0  0  0  0  0  0  0  0  0  0
  -22.4223   -6.2255   23.4517 C   0  0  0  0  0  0  0  0  0  0  0  0
  -23.6735   -4.5621   25.3090 C   0  0  0  0  0  0  0  0  0  0  0  0
  -21.8299   -5.9971   24.6936 C   0  0  0  0  0  0  0  0  0  0  0  0
  -24.5816  -11.5924   20.8225 C   0  0  0  0  0  0  0  0  0  0  0  0
  -25.1433  -13.6373   20.2411 C   0  0  0  0  0  0  0  0  0  0  0  0
  -22.7534  -13.3980   20.9336 C   0  0  0  0  0  0  0  0  0  0  0  0
  -27.6653  -32.8987   22.1288 C   0  0  0  0  0  0  0  0  0  0  0  0
  -29.5378  -21.8792   21.4034 C   0  0  0  0  0  0  0  0  0  0  0  0
  -26.5070  -31.8396   24.9676 C   0  0  0  0  0  0  0  0  0  0  0  0
  -25.6121  -29.1909   26.9248 C   0  0  0  0  0  0  0  0  0  0  0  0
  -30.5222  -15.0543   20.4895 C   0  0  0  0  0  0  0  0  0  0  0  0
  -27.7839  -37.3011   19.5476 C   0  0  0  0  0  0  0  0  0  0  0  0
  -25.8071  -31.3705   21.3755 C   0  0  0  0  0  0  0  0  0  0  0  0
  -27.5052  -30.1004   23.4366 C   0  0  0  0  0  0  0  0  0  0  0  0
  -27.6767  -36.8992   21.0164 C   0  0  0  0  0  0  0  0  0  0  0  0
  -29.6909  -12.1750   18.5671 C   0  0  0  0  0  0  0  0  0  0  0  0
  -28.7470  -35.8708   21.3679 C   0  0  0  0  0  0  0  0  0  0  0  0
  -28.2458  -11.8742   18.9711 C   0  0  0  0  0  0  0  0  0  0  0  0
  -30.5161  -12.6824   19.7483 C   0  0  0  0  0  0  0  0  0  0  0  0
  -28.4905  -13.5236   20.8701 C   0  0  0  0  0  0  0  0  0  0  0  0
  -28.5722  -34.5891   20.5443 C   0  0  1  0  0  0  0  0  0  0  0  0
  -26.4109  -32.1723   22.5244 C   0  0  1  0  0  0  0  0  0  0  0  0
  -27.6033  -13.0713   19.6989 C   0  0  2  0  0  0  0  0  0  0  0  0
  -24.7366  -28.6376   29.2106 C   0  0  0  0  0  0  0  0  0  0  0  0
  -29.2665  -32.3791   26.1524 C   0  0  0  0  0  0  0  0  0  0  0  0
  -28.6271  -30.9564   28.1108 C   0  0  0  0  0  0  0  0  0  0  0  0
  -27.3533  -33.0441   27.6193 C   0  0  0  0  0  0  0  0  0  0  0  0
  -23.1768  -27.9286   25.8135 C   0  0  0  0  0  0  0  0  0  0  0  0
  -29.1160  -23.2524   21.9136 C   0  0  0  0  0  0  0  0  0  0  0  0
  -29.8642  -20.8581   22.4802 C   0  0  0  0  0  0  0  0  0  0  0  0
  -28.8266  -25.6821   21.3156 C   0  0  0  0  0  0  0  0  0  1  0  0
  -27.0640  -31.0325   26.1154 C   0  0  1  0  0  0  0  0  0  0  0  0
  -24.3735  -28.9311   27.7633 C   0  0  2  0  0  0  0  0  0  0  0  0
  -28.8389  -24.2499   20.7896 C   0  0  2  0  0  0  0  0  0  0  0  0
  -28.0767  -31.8425   26.9730 C   0  0  0  0  0  0  0  0  0  0  0  0
  -31.4462  -19.3077   21.3950 N   0  0  0  0  0  0  0  0  0  0  0  0
  -25.8732  -11.5040   20.4939 N   0  0  0  0  0  0  0  0  0  0  0  0
  -30.2294  -19.5044   21.9307 N   0  0  0  0  0  0  0  0  0  0  0  0
  -26.1860  -12.7635   20.1446 N   0  0  0  0  0  0  0  0  0  0  0  0
  -26.7468  -31.3385   23.6803 N   0  0  0  0  0  0  0  0  0  0  0  0
  -29.8481  -13.8191   20.3859 N   0  0  0  0  0  0  0  0  0  0  0  0
  -25.2841  -14.9430   19.9286 N   0  0  0  0  0  0  0  0  0  0  0  0
  -21.7742  -12.5027   21.3852 N   0  0  0  0  0  0  0  0  0  0  0  0
  -29.7756  -16.0705   21.0848 N   0  0  0  0  0  0  0  0  0  0  0  0
  -27.4959  -33.7853   21.0825 N   0  0  0  0  0  0  0  0  0  0  0  0
  -25.9129  -30.5351   26.8611 N   0  0  0  0  0  0  0  0  0  0  0  0
  -23.6173  -27.7662   27.2230 N   0  3  0  0  0  0  0  0  0  0  0  0
  -22.4465  -14.5997   20.7455 O   0  0  0  0  0  0  0  0  0  0  0  0
  -28.7093  -32.6727   22.7294 O   0  0  0  0  0  0  0  0  0  0  0  0
  -29.6115  -21.6187   20.2034 O   0  0  0  0  0  0  0  0  0  0  0  0
  -25.8760  -32.8727   25.2049 O   0  0  0  0  0  0  0  0  0  0  0  0
  -26.2511  -28.2912   26.3839 O   0  0  0  0  0  0  0  0  0  0  0  0
  -31.6670  -15.2072   20.0558 O   0  0  0  0  0  0  0  0  0  0  0  0
  -27.5523  -23.9577   20.2404 O   0  0  0  0  0  0  0  0  0  0  0  0
  -21.8020   -7.0503   22.5283 O   0  0  0  0  0  0  0  0  0  0  0  0
  -28.5896  -26.5719   20.2254 O   0  0  0  0  0  0  0  0  0  1  0  0
  -24.2736   -3.7622   26.2002 F   0  0  0  0  0  0  0  0  0  0  0  0
  -20.6592   -6.5730   24.9999 F   0  0  0  0  0  0  0  0  0  0  0  0
  1  2  1  0  0  0  0
  1  5  2  0  0  0  0
  2  6  2  0  0  0  0
  3  8  2  0  0  0  0
  3 17  1  0  0  0  0
  4  9  1  0  0  0  0
  4 17  2  0  0  0  0
  5 19  1  0  0  0  0
  6 21  1  0  0  0  0
  7 10  2  0  0  0  0
  7 20  1  0  0  0  0
  8 24  1  0  0  0  0
  9 24  2  0  0  0  0
 10 25  1  0  0  0  0
 11 12  2  0  0  0  0
 11 26  1  0  0  0  0
 12 27  1  0  0  0  0
 13 22  1  0  0  0  0
 13 25  2  0  0  0  0
 14 27  2  0  0  0  0
 14 28  1  0  0  0  0
 15 23  1  0  0  0  0
 15 61  2  0  0  0  0
 16 23  2  0  0  0  0
 16 63  1  0  0  0  0
 17 29  1  0  0  0  0
 18 29  1  0  0  0  0
 18 30  2  0  0  0  0
 18 31  1  0  0  0  0
 19 21  2  0  0  0  0
 19 37  1  0  0  0  0
 20 22  2  0  0  0  0
 20 38  1  0  0  0  0
 21 46  1  0  0  0  0
 22 39  1  0  0  0  0
 23 69  1  0  0  0  0
 24 80  1  0  0  0  0
 25 81  1  0  0  0  0
 26 28  2  0  0  0  0
 26 80  1  0  0  0  0
 27 82  1  0  0  0  0
 28 83  1  0  0  0  0
 29 62  2  0  0  0  0
 30 64  1  0  0  0  0
 30 67  1  0  0  0  0
 31 68  1  0  0  0  0
 31 73  2  0  0  0  0
 32 47  1  0  0  0  0
 32 70  1  0  0  0  0
 32 74  2  0  0  0  0
 33 54  1  0  0  0  0
 33 55  1  0  0  0  0
 33 75  2  0  0  0  0
 34 57  1  0  0  0  0
 34 65  1  0  0  0  0
 34 76  2  0  0  0  0
 35 58  1  0  0  0  0
 35 71  1  0  0  0  0
 35 77  2  0  0  0  0
 36 66  1  0  0  0  0
 36 69  1  0  0  0  0
 36 78  2  0  0  0  0
 37 40  1  0  0  0  0
 38 47  1  0  0  0  0
 39 65  1  0  0  0  0
 40 42  1  0  0  0  0
 41 43  1  0  0  0  0
 41 44  1  0  0  0  0
 42 46  1  0  0  0  0
 43 48  1  0  0  0  0
 44 66  1  0  0  0  0
 45 48  1  0  0  0  0
 45 66  1  0  0  0  0
 46 70  1  0  0  0  0
 47 65  1  0  0  0  0
 48 64  1  0  0  0  0
 49 58  1  0  0  0  0
 50 60  1  0  0  0  0
 51 60  1  0  0  0  0
 52 60  1  0  0  0  0
 53 72  1  0  0  0  0
 54 59  1  0  0  0  0
 55 63  1  0  0  0  0
 56 59  1  0  0  0  0
 56 81  1  0  0  0  0
 57 60  1  0  0  0  0
 57 71  1  0  0  0  0
 58 72  1  0  0  0  0
 59 79  1  0  0  0  0
 61 63  1  0  0  0  0
 62 64  1  0  0  0  0
M  CHG  1  72   1
M  ISO  4  36 100  56 101  69 100  81 101
M  END
> <Batch ID>
0196

> <Smiles>
CNC(C)C(=O)NC(C(=O)N1Cc2cc([101O:1][101CH2:1]C(O)CC(=O)Cn3cc([100NH:0][100C:0](=O)N4CCCC(n5nc(-c6ccc(Oc7ccc(F)cc7F)cc6)c(C(N)=O)c5N)C4)cn3)ccc2CC1C(=O)NC1CCCc2ccccc21)C(C)(C)C

> <Shape>
0.313

> <Color>
0.185

> <Negative vol penalty>
0.000

$$$$

  -OEChem-04052305393D

 81 89  0     1  0  0  0  0  0999 V2000
  -20.6233  -19.1452   17.3228 C   0  0  0  0  0  0  0  0  0  0  0  0
  -21.8203  -19.5019   17.9355 C   0  0  0  0  0  0  0  0  0  0  0  0
  -20.9365  -24.1485   20.9018 C   0  0  0  0  0  0  0  0  0  0  0  0
  -22.4152  -23.2145   22.5685 C   0  0  0  0  0  0  0  0  0  0  0  0
  -20.1571  -17.8345   17.4164 C   0  0  0  0  0  0  0  0  0  0  0  0
  -22.5513  -18.5482   18.6432 C   0  0  0  0  0  0  0  0  0  0  0  0
  -27.5038  -18.7312   17.6021 C   0  0  0  0  0  0  0  0  0  0  0  0
  -20.3635  -22.8919   20.7059 C   0  0  0  0  0  0  0  0  0  0  0  0
  -21.8422  -21.9579   22.3727 C   0  0  0  0  0  0  0  0  0  0  0  0
  -28.2457  -19.7419   18.2120 C   0  0  0  0  0  0  0  0  0  0  0  0
  -19.0319  -20.3305   23.3079 C   0  0  0  0  0  0  0  0  0  0  0  0
  -18.7098  -19.5832   24.4407 C   0  0  0  0  0  0  0  0  0  0  0  0
  -29.0274  -18.1646   19.8613 C   0  0  0  0  0  0  0  0  0  0  0  0
  -20.1997  -17.8285   23.7068 C   0  0  0  0  0  0  0  0  0  0  0  0
  -32.2253  -26.0141   21.1345 C   0  0  0  0  0  0  0  0  0  0  0  0
  -21.9624  -24.3097   21.8330 C   0  0  0  0  0  0  0  0  0  0  0  0
  -22.1465  -26.5950   22.9516 C   0  0  0  0  0  0  0  0  0  0  0  0
  -20.8875  -16.8621   18.1174 C   0  0  0  0  0  0  0  0  0  0  0  0
  -27.5095  -17.4299   18.1246 C   0  0  0  0  0  0  0  0  0  0  0  0
  -22.0937  -17.2237   18.7473 C   0  0  0  0  0  0  0  0  0  0  0  0
  -28.2867  -17.1386   19.2548 C   0  0  0  0  0  0  0  0  0  0  0  0
  -20.8163  -21.7966   21.4414 C   0  0  0  0  0  0  0  0  0  0  0  0
  -29.0054  -19.4593   19.3434 C   0  0  0  0  0  0  0  0  0  0  0  0
  -19.9379  -19.8269   22.3745 C   0  0  0  0  0  0  0  0  0  0  0  0
  -19.2937  -18.3322   24.6402 C   0  0  0  0  0  0  0  0  0  0  0  0
  -20.5218  -18.5759   22.5739 C   0  0  0  0  0  0  0  0  0  0  0  0
  -22.5551  -25.6074   22.0354 C   0  0  0  0  0  0  0  0  0  0  0  0
  -31.0139  -25.9011   21.7841 C   0  0  0  0  0  0  0  0  0  0  0  0
  -23.0256  -27.6316   22.7538 C   0  0  0  0  0  0  0  0  0  0  0  0
  -31.3889  -23.7723   21.4129 C   0  0  0  0  0  0  0  0  0  0  0  0
  -21.0688  -26.5770   23.8970 C   0  0  0  0  0  0  0  0  0  0  0  0
  -25.3029  -15.4900   19.3376 C   0  0  0  0  0  0  0  0  0  0  0  0
  -27.7439  -13.3537   19.3442 C   0  0  0  0  0  0  0  0  0  0  0  0
  -31.1115  -12.8026   19.3873 C   0  0  0  0  0  0  0  0  0  0  0  0
  -28.6145  -27.8873   20.6206 C   0  0  0  0  0  0  0  0  0  0  0  0
  -20.3196  -15.4695   18.2311 C   0  0  0  0  0  0  0  0  0  0  0  0
  -26.7250  -16.3448   17.4394 C   0  0  0  0  0  0  0  0  0  0  0  0
  -28.3429  -15.7532   19.8430 C   0  0  0  0  0  0  0  0  0  0  0  0
  -21.3419  -14.4298   18.6832 C   0  0  0  0  0  0  0  0  0  0  0  0
  -25.7664  -29.6240   19.3760 C   0  0  0  0  0  0  0  0  0  0  0  0
  -22.1404  -14.9492   19.8746 C   0  0  0  0  0  0  0  0  0  0  0  0
  -24.5836  -28.8806   19.9991 C   0  0  0  0  0  0  0  0  0  0  0  0
  -26.9026  -28.6713   19.0108 C   0  0  0  0  0  0  0  0  0  0  0  0
  -26.1838  -27.0659   20.7370 C   0  0  0  0  0  0  0  0  0  0  0  0
  -22.9275  -16.2117   19.5030 C   0  0  1  0  0  0  0  0  0  0  0  0
  -26.3979  -15.1723   18.3590 C   0  0  1  0  0  0  0  0  0  0  0  0
  -25.0356  -27.9918   21.1734 C   0  0  2  0  0  0  0  0  0  0  0  0
  -32.8042  -10.9504   19.4260 C   0  0  0  0  0  0  0  0  0  0  0  0
  -30.2516  -21.6444   23.4774 C   0  0  0  0  0  0  0  0  0  0  0  0
  -27.1604  -12.8855   22.3023 C   0  0  0  0  0  0  0  0  0  0  0  0
  -29.4070  -11.7987   22.5019 C   0  0  0  0  0  0  0  0  0  0  0  0
  -27.6759  -10.8136   21.0000 C   0  0  0  0  0  0  0  0  0  0  0  0
  -32.2787  -13.6587   16.8059 C   0  0  0  0  0  0  0  0  0  0  0  0
  -30.2109  -27.0218   22.3122 C   0  0  0  0  0  0  0  0  0  0  0  0
  -29.9335  -20.3372   21.3493 C   0  0  0  0  0  0  0  0  0  1  0  0
  -28.8215  -12.9647   20.3273 C   0  0  1  0  0  0  0  0  0  0  0  0
  -31.9944  -11.8942   18.5507 C   0  0  2  0  0  0  0  0  0  0  0  0
  -30.0718  -21.7270   21.9673 C   0  0  2  0  0  0  0  0  0  0  0  0
  -28.2638  -12.1423   21.5232 C   0  0  0  0  0  0  0  0  0  0  0  0
  -23.6114  -25.9829   21.3094 N   0  0  0  0  0  0  0  0  0  0  0  0
  -30.5325  -24.6164   21.9443 N   0  0  0  0  0  0  0  0  0  0  0  0
  -23.8741  -27.2181   21.7692 N   0  0  0  0  0  0  0  0  0  0  0  0
  -27.5535  -14.7278   19.1409 N   0  0  0  0  0  0  0  0  0  0  0  0
  -27.2851  -27.8586   20.1681 N   0  0  0  0  0  0  0  0  0  0  0  0
  -23.1479  -28.8474   23.3276 N   0  0  0  0  0  0  0  0  0  0  0  0
  -20.2628  -25.4327   23.9697 N   0  0  0  0  0  0  0  0  0  0  0  0
  -31.2208  -22.4000   21.3954 N   0  0  0  0  0  0  0  0  0  0  0  0
  -24.1114  -15.8648   18.7464 N   0  0  0  0  0  0  0  0  0  0  0  0
  -29.8489  -12.2746   19.5549 N   0  0  0  0  0  0  0  0  0  0  0  0
  -28.8907  -27.0929   21.7267 N   0  0  0  0  0  0  0  0  0  0  0  0
  -32.9404  -12.7030   17.7310 N   0  3  0  0  0  0  0  0  0  0  0  0
  -20.8175  -27.5534   24.6434 O   0  0  0  0  0  0  0  0  0  0  0  0
  -25.5222  -15.4002   20.5399 O   0  0  0  0  0  0  0  0  0  0  0  0
  -27.0997  -12.4707   18.7723 O   0  0  0  0  0  0  0  0  0  0  0  0
  -31.5040  -13.8718   19.8493 O   0  0  0  0  0  0  0  0  0  0  0  0
  -29.4892  -28.5744   20.0823 O   0  0  0  0  0  0  0  0  0  0  0  0
  -20.2573  -20.5704   21.2507 O   0  0  0  0  0  0  0  0  0  0  0  0
  -29.7299  -20.4441   19.9410 O   0  0  0  0  0  0  0  0  0  1  0  0
  -18.9854  -17.6153   25.7289 F   0  0  0  0  0  0  0  0  0  0  0  0
  -21.3938  -18.0873   21.6813 F   0  0  0  0  0  0  0  0  0  0  0  0
  -32.7949  -24.4547   20.7040 S   0  0  0  0  0  0  0  0  0  0  0  0
  1  2  1  0  0  0  0
  1  5  2  0  0  0  0
  2  6  2  0  0  0  0
  3  8  2  0  0  0  0
  3 16  1  0  0  0  0
  4  9  1  0  0  0  0
  4 16  2  0  0  0  0
  5 18  1  0  0  0  0
  6 20  1  0  0  0  0
  7 10  2  0  0  0  0
  7 19  1  0  0  0  0
  8 22  1  0  0  0  0
  9 22  2  0  0  0  0
 10 23  1  0  0  0  0
 11 12  2  0  0  0  0
 11 24  1  0  0  0  0
 12 25  1  0  0  0  0
 13 21  1  0  0  0  0
 13 23  2  0  0  0  0
 14 25  2  0  0  0  0
 14 26  1  0  0  0  0
 15 28  2  0  0  0  0
 15 81  1  0  0  0  0
 16 27  1  0  0  0  0
 17 27  1  0  0  0  0
 17 29  2  0  0  0  0
 17 31  1  0  0  0  0
 18 20  2  0  0  0  0
 18 36  1  0  0  0  0
 19 21  2  0  0  0  0
 19 37  1  0  0  0  0
 20 45  1  0  0  0  0
 21 38  1  0  0  0  0
 22 77  1  0  0  0  0
 23 78  1  0  0  0  0
 24 26  2  0  0  0  0
 24 77  1  0  0  0  0
 25 79  1  0  0  0  0
 26 80  1  0  0  0  0
 27 60  2  0  0  0  0
 28 54  1  0  0  0  0
 28 61  1  0  0  0  0
 29 62  1  0  0  0  0
 29 65  1  0  0  0  0
 30 61  2  0  0  0  0
 30 67  1  0  0  0  0
 30 81  1  0  0  0  0
 31 66  1  0  0  0  0
 31 72  2  0  0  0  0
 32 46  1  0  0  0  0
 32 68  1  0  0  0  0
 32 73  2  0  0  0  0
 33 56  1  0  0  0  0
 33 63  1  0  0  0  0
 33 74  2  0  0  0  0
 34 57  1  0  0  0  0
 34 69  1  0  0  0  0
 34 75  2  0  0  0  0
 35 64  1  0  0  0  0
 35 70  1  0  0  0  0
 35 76  2  0  0  0  0
 36 39  1  0  0  0  0
 37 46  1  0  0  0  0
 38 63  1  0  0  0  0
 39 41  1  0  0  0  0
 40 42  1  0  0  0  0
 40 43  1  0  0  0  0
 41 45  1  0  0  0  0
 42 47  1  0  0  0  0
 43 64  1  0  0  0  0
 44 47  1  0  0  0  0
 44 64  1  0  0  0  0
 45 68  1  0  0  0  0
 46 63  1  0  0  0  0
 47 62  1  0  0  0  0
 48 57  1  0  0  0  0
 49 58  1  0  0  0  0
 50 59  1  0  0  0  0
 51 59  1  0  0  0  0
 52 59  1  0  0  0  0
 53 71  1  0  0  0  0
 54 70  1  0  0  0  0
 55 58  1  0  0  0  0
 55 78  1  0  0  0  0
 56 59  1  0  0  0  0
 56 69  1  0  0  0  0
 57 71  1  0  0  0  0
 58 67  1  0  0  0  0
 60 62  1  0  0  0  0
M  CHG  1  71   1
M  ISO  4  35 100  55 101  70 100  78 101
M  END
> <Batch ID>
0196

> <Smiles>
CNC(C)C(=O)NC(C(=O)N1Cc2cc([101O:1][101CH2:1]C(C)Nc3nc(C[100NH:0][100C:0](=O)N4CCCC(n5nc(-c6ccc(Oc7ccc(F)cc7F)cc6)c(C(N)=O)c5N)C4)cs3)ccc2CC1C(=O)NC1CCCc2ccccc21)C(C)(C)C

> <Shape>
0.171

> <Color>
0.081

> <Negative vol penalty>
0.000

$$$$

  -OEChem-04052305393D

 83 91  0     1  0  0  0  0  0999 V2000
  -28.0567  -30.2217   23.1747 C   0  0  0  0  0  0  0  0  0  0  0  0
  -28.0187  -29.0937   23.9880 C   0  0  0  0  0  0  0  0  0  0  0  0
  -23.9159   -9.4933   19.8660 C   0  0  0  0  0  0  0  0  0  0  0  0
  -24.5229   -9.7017   22.1952 C   0  0  0  0  0  0  0  0  0  0  0  0
  -27.6911  -30.1247   21.8327 C   0  0  0  0  0  0  0  0  0  0  0  0
  -27.6140  -27.8681   23.4600 C   0  0  0  0  0  0  0  0  0  0  0  0
  -29.7190  -22.3246   24.9911 C   0  0  0  0  0  0  0  0  0  0  0  0
  -23.5154   -8.1758   20.0882 C   0  0  0  0  0  0  0  0  0  0  0  0
  -24.1223   -8.3842   22.4174 C   0  0  0  0  0  0  0  0  0  0  0  0
  -29.2278  -21.3375   25.8444 C   0  0  0  0  0  0  0  0  0  0  0  0
  -21.2232   -6.7051   22.8608 C   0  0  0  0  0  0  0  0  0  0  0  0
  -20.4484   -6.4470   23.9916 C   0  0  0  0  0  0  0  0  0  0  0  0
  -28.2037  -20.2288   23.9625 C   0  0  0  0  0  0  0  0  0  0  0  0
  -22.1456   -4.9342   24.8090 C   0  0  0  0  0  0  0  0  0  0  0  0
  -32.4522  -16.6297   25.0831 C   0  0  0  0  0  0  0  0  0  0  0  0
  -24.4198  -10.2562   20.9195 C   0  0  0  0  0  0  0  0  0  0  0  0
  -24.0417  -12.7759   20.7935 C   0  0  0  0  0  0  0  0  0  0  0  0
  -27.2910  -28.8954   21.2856 C   0  0  0  0  0  0  0  0  0  0  0  0
  -29.4466  -22.2770   23.6163 C   0  0  0  0  0  0  0  0  0  0  0  0
  -27.2415  -27.7549   22.1098 C   0  0  0  0  0  0  0  0  0  0  0  0
  -28.6948  -21.2151   23.0936 C   0  0  0  0  0  0  0  0  0  0  0  0
  -23.6185   -7.6213   21.3639 C   0  0  0  0  0  0  0  0  0  0  0  0
  -28.4676  -20.2910   25.3306 C   0  0  0  0  0  0  0  0  0  0  0  0
  -22.4591   -6.0778   22.7040 C   0  0  0  0  0  0  0  0  0  0  0  0
  -20.9096   -5.5615   24.9657 C   0  0  0  0  0  0  0  0  0  0  0  0
  -22.9204   -5.1923   23.6781 C   0  0  0  0  0  0  0  0  0  0  0  0
  -24.8343  -11.6170   20.6904 C   0  0  0  0  0  0  0  0  0  0  0  0
  -33.0518  -16.2288   23.9066 C   0  0  0  0  0  0  0  0  0  0  0  0
  -31.0939  -16.4020   25.1688 C   0  0  0  0  0  0  0  0  0  0  0  0
  -24.8956  -13.8049   20.4798 C   0  0  0  0  0  0  0  0  0  0  0  0
  -31.0662  -15.4813   23.0906 C   0  0  0  0  0  0  0  0  0  0  0  0
  -22.6574  -12.9102   21.1417 C   0  0  0  0  0  0  0  0  0  0  0  0
  -27.9149  -24.1627   21.5665 C   0  0  0  0  0  0  0  0  0  0  0  0
  -29.0523  -22.0544   19.3792 C   0  0  0  0  0  0  0  0  0  0  0  0
  -30.1988  -18.9107   18.7089 C   0  0  0  0  0  0  0  0  0  0  0  0
  -30.8287  -14.4316   20.8129 C   0  0  0  0  0  0  0  0  0  0  0  0
  -26.8597  -28.8496   19.8412 C   0  0  0  0  0  0  0  0  0  0  0  0
  -30.0063  -23.3350   22.7054 C   0  0  0  0  0  0  0  0  0  0  0  0
  -28.3913  -21.1071   21.6223 C   0  0  0  0  0  0  0  0  0  0  0  0
  -26.8016  -27.4363   19.2673 C   0  0  0  0  0  0  0  0  0  0  0  0
  -28.8125  -14.7655   17.8973 C   0  0  0  0  0  0  0  0  0  0  0  0
  -26.0844  -26.4974   20.2322 C   0  0  0  0  0  0  0  0  0  0  0  0
  -27.4893  -14.1069   18.2941 C   0  0  0  0  0  0  0  0  0  0  0  0
  -30.0122  -14.0361   18.4995 C   0  0  0  0  0  0  0  0  0  0  0  0
  -28.6297  -13.1802   20.3503 C   0  0  0  0  0  0  0  0  0  0  0  0
  -26.8318  -26.4027   21.5678 C   0  0  1  0  0  0  0  0  0  0  0  0
  -29.2347  -23.4651   21.3958 C   0  0  1  0  0  0  0  0  0  0  0  0
  -27.3893  -13.9181   19.8205 C   0  0  2  0  0  0  0  0  0  0  0  0
  -34.5178  -16.4337   23.7212 C   0  0  0  0  0  0  0  0  0  0  0  0
  -31.0163  -17.4729   16.8217 C   0  0  0  0  0  0  0  0  0  0  0  0
  -28.7716  -15.1599   26.9331 C   0  0  0  0  0  0  0  0  0  0  0  0
  -26.1838  -21.7207   18.3941 C   0  0  0  0  0  0  0  0  0  0  0  0
  -26.9070  -19.6373   17.2091 C   0  0  0  0  0  0  0  0  0  0  0  0
  -27.9026  -21.8366   16.5812 C   0  0  0  0  0  0  0  0  0  0  0  0
  -32.8433  -18.5384   19.9844 C   0  0  0  0  0  0  0  0  0  0  0  0
  -28.5670  -17.5578   27.6771 C   0  0  0  0  0  0  0  0  0  0  0  0
  -28.7548  -19.0305   27.3268 C   0  0  0  0  0  0  0  0  0  1  0  0
  -28.5511  -20.7641   18.7769 C   0  0  1  0  0  0  0  0  0  0  0  0
  -31.4137  -18.4244   17.9394 C   0  0  2  0  0  0  0  0  0  0  0  0
  -29.0362  -16.6161   26.5636 C   0  0  1  0  0  0  0  0  0  0  0  0
  -27.3900  -20.9925   17.7684 C   0  0  0  0  0  0  0  0  0  0  0  0
  -26.0948  -11.8841   20.3386 N   0  0  0  0  0  0  0  0  0  0  0  0
  -32.3866  -15.6492   22.8859 N   0  0  0  0  0  0  0  0  0  0  0  0
  -30.3667  -15.8280   24.1879 N   0  0  0  0  0  0  0  0  0  0  0  0
  -26.1007  -13.2225   20.2178 N   0  0  0  0  0  0  0  0  0  0  0  0
  -28.9554  -22.1694   20.7732 N   0  0  0  0  0  0  0  0  0  0  0  0
  -29.8497  -13.8977   19.9484 N   0  0  0  0  0  0  0  0  0  0  0  0
  -24.7257  -15.1421   20.4052 N   0  0  0  0  0  0  0  0  0  0  0  0
  -21.9267  -11.7507   21.4351 N   0  0  0  0  0  0  0  0  0  0  0  0
  -30.4552  -16.7898   26.3329 N   0  0  0  0  0  0  0  0  0  0  0  0
  -30.3348  -14.8752   22.0392 N   0  0  0  0  0  0  0  0  0  0  0  0
  -27.9847  -25.5371   21.4415 N   0  0  0  0  0  0  0  0  0  0  0  0
  -29.7177  -20.1005   18.2048 N   0  0  0  0  0  0  0  0  0  0  0  0
  -32.3533  -17.7123   18.8511 N   0  3  0  0  0  0  0  0  0  0  0  0
  -22.0812  -14.0239   21.1753 O   0  0  0  0  0  0  0  0  0  0  0  0
  -26.9075  -23.5027   21.7932 O   0  0  0  0  0  0  0  0  0  0  0  0
  -29.5192  -22.9253   18.6409 O   0  0  0  0  0  0  0  0  0  0  0  0
  -29.7220  -18.2947   19.6595 O   0  0  0  0  0  0  0  0  0  0  0  0
  -32.0132  -14.5160   20.4786 O   0  0  0  0  0  0  0  0  0  0  0  0
  -23.2275   -6.3358   21.5812 O   0  0  0  0  0  0  0  0  0  0  0  0
  -27.9863  -19.3266   26.1614 O   0  0  0  0  0  0  0  0  0  1  0  0
  -20.1662   -5.3148   26.0523 F   0  0  0  0  0  0  0  0  0  0  0  0
  -24.1074   -4.5876   23.5336 F   0  0  0  0  0  0  0  0  0  0  0  0
  1  2  1  0  0  0  0
  1  5  2  0  0  0  0
  2  6  2  0  0  0  0
  3  8  2  0  0  0  0
  3 16  1  0  0  0  0
  4  9  1  0  0  0  0
  4 16  2  0  0  0  0
  5 18  1  0  0  0  0
  6 20  1  0  0  0  0
  7 10  2  0  0  0  0
  7 19  1  0  0  0  0
  8 22  1  0  0  0  0
  9 22  2  0  0  0  0
 10 23  1  0  0  0  0
 11 12  2  0  0  0  0
 11 24  1  0  0  0  0
 12 25  1  0  0  0  0
 13 21  1  0  0  0  0
 13 23  2  0  0  0  0
 14 25  2  0  0  0  0
 14 26  1  0  0  0  0
 15 28  2  0  0  0  0
 15 29  1  0  0  0  0
 16 27  1  0  0  0  0
 17 27  1  0  0  0  0
 17 30  2  0  0  0  0
 17 32  1  0  0  0  0
 18 20  2  0  0  0  0
 18 37  1  0  0  0  0
 19 21  2  0  0  0  0
 19 38  1  0  0  0  0
 20 46  1  0  0  0  0
 21 39  1  0  0  0  0
 22 80  1  0  0  0  0
 23 81  1  0  0  0  0
 24 26  2  0  0  0  0
 24 80  1  0  0  0  0
 25 82  1  0  0  0  0
 26 83  1  0  0  0  0
 27 62  2  0  0  0  0
 28 49  1  0  0  0  0
 28 63  1  0  0  0  0
 29 64  2  0  0  0  0
 29 70  1  0  0  0  0
 30 65  1  0  0  0  0
 30 68  1  0  0  0  0
 31 63  2  0  0  0  0
 31 64  1  0  0  0  0
 31 71  1  0  0  0  0
 32 69  1  0  0  0  0
 32 75  2  0  0  0  0
 33 47  1  0  0  0  0
 33 72  1  0  0  0  0
 33 76  2  0  0  0  0
 34 58  1  0  0  0  0
 34 66  1  0  0  0  0
 34 77  2  0  0  0  0
 35 59  1  0  0  0  0
 35 73  1  0  0  0  0
 35 78  2  0  0  0  0
 36 67  1  0  0  0  0
 36 71  1  0  0  0  0
 36 79  2  0  0  0  0
 37 40  1  0  0  0  0
 38 47  1  0  0  0  0
 39 66  1  0  0  0  0
 40 42  1  0  0  0  0
 41 43  1  0  0  0  0
 41 44  1  0  0  0  0
 42 46  1  0  0  0  0
 43 48  1  0  0  0  0
 44 67  1  0  0  0  0
 45 48  1  0  0  0  0
 45 67  1  0  0  0  0
 46 72  1  0  0  0  0
 47 66  1  0  0  0  0
 48 65  1  0  0  0  0
 50 59  1  0  0  0  0
 51 60  1  0  0  0  0
 52 61  1  0  0  0  0
 53 61  1  0  0  0  0
 54 61  1  0  0  0  0
 55 74  1  0  0  0  0
 56 57  1  0  0  0  0
 56 60  1  0  0  0  0
 57 81  1  0  0  0  0
 58 61  1  0  0  0  0
 58 73  1  0  0  0  0
 59 74  1  0  0  0  0
 60 70  1  0  0  0  0
 62 65  1  0  0  0  0
M  CHG  1  74   1
M  ISO  4  36 100  57 101  71 100  81 101
M  END
> <Batch ID>
0196

> <Smiles>
CNC(C)C(=O)NC(C(=O)N1Cc2cc([101O:1][101CH2:1]CC(C)Nc3cc(C)nc([100NH:0][100C:0](=O)N4CCCC(n5nc(-c6ccc(Oc7ccc(F)cc7F)cc6)c(C(N)=O)c5N)C4)n3)ccc2CC1C(=O)NC1CCCc2ccccc21)C(C)(C)C

> <Shape>
0.245

> <Color>
0.148

> <Negative vol penalty>
0.000

$$$$

  -OEChem-04052305393D

 82 90  0     1  0  0  0  0  0999 V2000
  -30.7575  -24.8117   18.4921 C   0  0  0  0  0  0  0  0  0  0  0  0
  -29.3668  -24.8378   18.4649 C   0  0  0  0  0  0  0  0  0  0  0  0
  -27.7613  -18.1248   22.5092 C   0  0  0  0  0  0  0  0  0  0  0  0
  -27.3222  -19.8017   20.8262 C   0  0  0  0  0  0  0  0  0  0  0  0
  -31.4435  -25.3847   19.5621 C   0  0  0  0  0  0  0  0  0  0  0  0
  -28.6613  -25.4362   19.5083 C   0  0  0  0  0  0  0  0  0  0  0  0
  -23.3932  -28.5313   19.0914 C   0  0  0  0  0  0  0  0  0  0  0  0
  -28.8590  -17.6756   21.7752 C   0  0  0  0  0  0  0  0  0  0  0  0
  -28.4200  -19.3525   20.0922 C   0  0  0  0  0  0  0  0  0  0  0  0
  -22.0686  -28.1640   19.3245 C   0  0  0  0  0  0  0  0  0  0  0  0
  -29.4165  -15.7406   19.0606 C   0  0  0  0  0  0  0  0  0  0  0  0
  -29.5691  -14.3632   18.9016 C   0  0  0  0  0  0  0  0  0  0  0  0
  -22.2154  -29.0727   21.5543 C   0  0  0  0  0  0  0  0  0  0  0  0
  -31.7147  -14.4733   20.0067 C   0  0  0  0  0  0  0  0  0  0  0  0
  -26.9928  -19.1879   22.0347 C   0  0  0  0  0  0  0  0  0  0  0  0
  -25.8504  -20.6483   23.7866 C   0  0  0  0  0  0  0  0  0  0  0  0
  -30.7463  -25.9990   20.6144 C   0  0  0  0  0  0  0  0  0  0  0  0
  -24.1435  -29.1632   20.0935 C   0  0  0  0  0  0  0  0  0  0  0  0
  -29.3386  -26.0168   20.5940 C   0  0  0  0  0  0  0  0  0  0  0  0
  -23.5485  -29.4492   21.3305 C   0  0  0  0  0  0  0  0  0  0  0  0
  -29.1884  -18.2895   20.5668 C   0  0  0  0  0  0  0  0  0  0  0  0
  -21.4804  -28.4321   20.5570 C   0  0  0  0  0  0  0  0  0  0  0  0
  -30.4130  -16.4843   19.6926 C   0  0  0  0  0  0  0  0  0  0  0  0
  -30.7181  -13.7296   19.3747 C   0  0  0  0  0  0  0  0  0  0  0  0
  -31.5621  -15.8507   20.1657 C   0  0  0  0  0  0  0  0  0  0  0  0
  -25.8584  -19.6520   22.7921 C   0  0  0  0  0  0  0  0  0  0  0  0
  -24.5405  -20.7158   24.1944 C   0  0  0  0  0  0  0  0  0  0  0  0
  -18.2296  -22.2503   20.5432 C   0  0  0  0  0  0  0  0  0  0  0  0
  -16.5356  -23.2329   21.6393 C   0  0  0  0  0  0  0  0  0  0  0  0
  -18.4522  -24.3507   21.3020 C   0  0  0  0  0  0  0  0  0  0  0  0
  -26.9303  -21.4419   24.2963 C   0  0  0  0  0  0  0  0  0  0  0  0
  -26.7849  -28.4435   21.7087 C   0  0  0  0  0  0  0  0  0  0  0  0
  -26.4186  -31.4458   22.8812 C   0  0  0  0  0  0  0  0  0  0  0  0
  -24.3280  -34.0572   23.5569 C   0  0  0  0  0  0  0  0  0  0  0  0
  -19.3619  -19.3425   21.5211 C   0  0  0  0  0  0  0  0  0  0  0  0
  -31.5302  -26.5633   21.7727 C   0  0  0  0  0  0  0  0  0  0  0  0
  -25.5629  -29.5770   19.8171 C   0  0  0  0  0  0  0  0  0  0  0  0
  -24.3046  -30.1438   22.4324 C   0  0  0  0  0  0  0  0  0  0  0  0
  -30.7183  -27.5083   22.6548 C   0  0  0  0  0  0  0  0  0  0  0  0
  -20.5995  -18.0323   24.5917 C   0  0  0  0  0  0  0  0  0  0  0  0
  -29.3553  -26.9022   22.9734 C   0  0  0  0  0  0  0  0  0  0  0  0
  -22.0869  -18.3888   24.5684 C   0  0  0  0  0  0  0  0  0  0  0  0
  -20.0839  -17.6707   23.2005 C   0  0  0  0  0  0  0  0  0  0  0  0
  -21.8368  -19.0379   22.1363 C   0  0  0  0  0  0  0  0  0  0  0  0
  -28.5385  -26.6785   21.6950 C   0  0  1  0  0  0  0  0  0  0  0  0
  -26.3918  -29.7531   21.0857 C   0  0  1  0  0  0  0  0  0  0  0  0
  -22.3893  -19.4639   23.5073 C   0  0  2  0  0  0  0  0  0  0  0  0
  -24.3116  -36.3611   24.5513 C   0  0  0  0  0  0  0  0  0  0  0  0
  -26.5683  -30.2368   25.6787 C   0  0  0  0  0  0  0  0  0  0  0  0
  -25.6137  -32.3703   26.5760 C   0  0  0  0  0  0  0  0  0  0  0  0
  -27.8154  -32.3870   25.4034 C   0  0  0  0  0  0  0  0  0  0  0  0
  -23.4248  -35.2739   21.0147 C   0  0  0  0  0  0  0  0  0  0  0  0
  -18.7935  -21.0684   19.8307 C   0  0  0  0  0  0  0  0  0  0  0  0
  -18.7480  -26.6871   22.1264 C   0  0  0  0  0  0  0  0  0  0  0  0
  -19.8331  -27.7507   22.1312 C   0  0  0  0  0  0  0  0  0  1  0  0
  -25.6989  -32.0521   24.0616 C   0  0  1  0  0  0  0  0  0  0  0  0
  -24.4502  -35.5440   23.2762 C   0  0  2  0  0  0  0  0  0  0  0  0
  -26.4101  -31.7467   25.4100 C   0  0  0  0  0  0  0  0  0  0  0  0
  -24.6497  -19.1244   22.5810 N   0  0  0  0  0  0  0  0  0  0  0  0
  -16.9766  -22.1311   21.0114 N   0  0  0  0  0  0  0  0  0  0  0  0
  -19.0259  -23.3262   20.6506 N   0  0  0  0  0  0  0  0  0  0  0  0
  -17.2148  -24.3766   21.8226 N   0  0  0  0  0  0  0  0  0  0  0  0
  -23.8698  -19.7916   23.4486 N   0  0  0  0  0  0  0  0  0  0  0  0
  -25.6916  -30.5229   22.1159 N   0  0  0  0  0  0  0  0  0  0  0  0
  -20.4015  -18.7320   22.2419 N   0  0  0  0  0  0  0  0  0  0  0  0
  -23.9086  -21.4749   25.1147 N   0  0  0  0  0  0  0  0  0  0  0  0
  -15.2245  -23.1829   22.1610 N   0  0  0  0  0  0  0  0  0  0  0  0
  -28.2126  -21.2444   23.7661 N   0  0  0  0  0  0  0  0  0  0  0  0
  -19.2146  -25.4972   21.4522 N   0  0  0  0  0  0  0  0  0  0  0  0
  -27.9743  -27.9277   21.2306 N   0  0  0  0  0  0  0  0  0  0  0  0
  -25.5597  -33.4744   23.7682 N   0  0  0  0  0  0  0  0  0  0  0  0
  -19.7490  -20.3433   20.6383 N   0  0  0  0  0  0  0  0  0  0  0  0
  -23.3920  -35.9796   22.3216 N   0  3  0  0  0  0  0  0  0  0  0  0
  -26.7661  -22.2891   25.2067 O   0  0  0  0  0  0  0  0  0  0  0  0
  -26.0633  -27.9392   22.5611 O   0  0  0  0  0  0  0  0  0  0  0  0
  -27.5807  -31.7840   22.6426 O   0  0  0  0  0  0  0  0  0  0  0  0
  -23.2477  -33.4720   23.5895 O   0  0  0  0  0  0  0  0  0  0  0  0
  -18.1760  -19.0233   21.6583 O   0  0  0  0  0  0  0  0  0  0  0  0
  -30.2597  -17.8515   19.8504 O   0  0  0  0  0  0  0  0  0  0  0  0
  -20.1878  -28.0742   20.7874 O   0  0  0  0  0  0  0  0  0  1  0  0
  -30.8638  -12.4067   19.2233 F   0  0  0  0  0  0  0  0  0  0  0  0
  -32.5223  -16.5598   20.7748 F   0  0  0  0  0  0  0  0  0  0  0  0
  1  2  1  0  0  0  0
  1  5  2  0  0  0  0
  2  6  2  0  0  0  0
  3  8  2  0  0  0  0
  3 15  1  0  0  0  0
  4  9  1  0  0  0  0
  4 15  2  0  0  0  0
  5 17  1  0  0  0  0
  6 19  1  0  0  0  0
  7 10  2  0  0  0  0
  7 18  1  0  0  0  0
  8 21  1  0  0  0  0
  9 21  2  0  0  0  0
 10 22  1  0  0  0  0
 11 12  2  0  0  0  0
 11 23  1  0  0  0  0
 12 24  1  0  0  0  0
 13 20  1  0  0  0  0
 13 22  2  0  0  0  0
 14 24  2  0  0  0  0
 14 25  1  0  0  0  0
 15 26  1  0  0  0  0
 16 26  1  0  0  0  0
 16 27  2  0  0  0  0
 16 31  1  0  0  0  0
 17 19  2  0  0  0  0
 17 36  1  0  0  0  0
 18 20  2  0  0  0  0
 18 37  1  0  0  0  0
 19 45  1  0  0  0  0
 20 38  1  0  0  0  0
 21 79  1  0  0  0  0
 22 80  1  0  0  0  0
 23 25  2  0  0  0  0
 23 79  1  0  0  0  0
 24 81  1  0  0  0  0
 25 82  1  0  0  0  0
 26 59  2  0  0  0  0
 27 63  1  0  0  0  0
 27 66  1  0  0  0  0
 28 53  1  0  0  0  0
 28 60  2  0  0  0  0
 28 61  1  0  0  0  0
 29 60  1  0  0  0  0
 29 62  2  0  0  0  0
 29 67  1  0  0  0  0
 30 61  2  0  0  0  0
 30 62  1  0  0  0  0
 30 69  1  0  0  0  0
 31 68  1  0  0  0  0
 31 74  2  0  0  0  0
 32 46  1  0  0  0  0
 32 70  1  0  0  0  0
 32 75  2  0  0  0  0
 33 56  1  0  0  0  0
 33 64  1  0  0  0  0
 33 76  2  0  0  0  0
 34 57  1  0  0  0  0
 34 71  1  0  0  0  0
 34 77  2  0  0  0  0
 35 65  1  0  0  0  0
 35 72  1  0  0  0  0
 35 78  2  0  0  0  0
 36 39  1  0  0  0  0
 37 46  1  0  0  0  0
 38 64  1  0  0  0  0
 39 41  1  0  0  0  0
 40 42  1  0  0  0  0
 40 43  1  0  0  0  0
 41 45  1  0  0  0  0
 42 47  1  0  0  0  0
 43 65  1  0  0  0  0
 44 47  1  0  0  0  0
 44 65  1  0  0  0  0
 45 70  1  0  0  0  0
 46 64  1  0  0  0  0
 47 63  1  0  0  0  0
 48 57  1  0  0  0  0
 49 58  1  0  0  0  0
 50 58  1  0  0  0  0
 51 58  1  0  0  0  0
 52 73  1  0  0  0  0
 53 72  1  0  0  0  0
 54 55  1  0  0  0  0
 54 69  1  0  0  0  0
 55 80  1  0  0  0  0
 56 58  1  0  0  0  0
 56 71  1  0  0  0  0
 57 73  1  0  0  0  0
 59 63  1  0  0  0  0
M  CHG  1  73   1
M  ISO  4  35 100  55 101  72 100  80 101
M  END
> <Batch ID>
0196

> <Smiles>
CNC(C)C(=O)NC(C(=O)N1Cc2cc([101O:1][101CH2:1]CNc3nc(N)nc(C[100NH:0][100C:0](=O)N4CCCC(n5nc(-c6ccc(Oc7ccc(F)cc7F)cc6)c(C(N)=O)c5N)C4)n3)ccc2CC1C(=O)NC1CCCc2ccccc21)C(C)(C)C

> <Shape>
0.250

> <Color>
0.061

> <Negative vol penalty>
0.000

$$$$

  -OEChem-04052305393D

 81 89  0     1  0  0  0  0  0999 V2000
  -20.6233  -19.1452   17.3228 C   0  0  0  0  0  0  0  0  0  0  0  0
  -21.8203  -19.5019   17.9355 C   0  0  0  0  0  0  0  0  0  0  0  0
  -20.9365  -24.1485   20.9018 C   0  0  0  0  0  0  0  0  0  0  0  0
  -22.4152  -23.2145   22.5685 C   0  0  0  0  0  0  0  0  0  0  0  0
  -20.1571  -17.8345   17.4164 C   0  0  0  0  0  0  0  0  0  0  0  0
  -22.5513  -18.5482   18.6432 C   0  0  0  0  0  0  0  0  0  0  0  0
  -27.5038  -18.7312   17.6021 C   0  0  0  0  0  0  0  0  0  0  0  0
  -20.3635  -22.8919   20.7059 C   0  0  0  0  0  0  0  0  0  0  0  0
  -21.8422  -21.9579   22.3727 C   0  0  0  0  0  0  0  0  0  0  0  0
  -28.2457  -19.7419   18.2120 C   0  0  0  0  0  0  0  0  0  0  0  0
  -19.0319  -20.3305   23.3079 C   0  0  0  0  0  0  0  0  0  0  0  0
  -18.7098  -19.5832   24.4407 C   0  0  0  0  0  0  0  0  0  0  0  0
  -29.0274  -18.1646   19.8613 C   0  0  0  0  0  0  0  0  0  0  0  0
  -20.1997  -17.8285   23.7068 C   0  0  0  0  0  0  0  0  0  0  0  0
  -32.2253  -26.0141   21.1345 C   0  0  0  0  0  0  0  0  0  0  0  0
  -21.9624  -24.3097   21.8330 C   0  0  0  0  0  0  0  0  0  0  0  0
  -22.1465  -26.5950   22.9516 C   0  0  0  0  0  0  0  0  0  0  0  0
  -20.8875  -16.8621   18.1174 C   0  0  0  0  0  0  0  0  0  0  0  0
  -27.5095  -17.4299   18.1246 C   0  0  0  0  0  0  0  0  0  0  0  0
  -22.0937  -17.2237   18.7473 C   0  0  0  0  0  0  0  0  0  0  0  0
  -28.2867  -17.1386   19.2548 C   0  0  0  0  0  0  0  0  0  0  0  0
  -20.8163  -21.7966   21.4414 C   0  0  0  0  0  0  0  0  0  0  0  0
  -29.0054  -19.4593   19.3434 C   0  0  0  0  0  0  0  0  0  0  0  0
  -19.9379  -19.8269   22.3745 C   0  0  0  0  0  0  0  0  0  0  0  0
  -19.2937  -18.3322   24.6402 C   0  0  0  0  0  0  0  0  0  0  0  0
  -20.5218  -18.5759   22.5739 C   0  0  0  0  0  0  0  0  0  0  0  0
  -22.5551  -25.6074   22.0354 C   0  0  0  0  0  0  0  0  0  0  0  0
  -31.0139  -25.9011   21.7841 C   0  0  0  0  0  0  0  0  0  0  0  0
  -23.0256  -27.6316   22.7538 C   0  0  0  0  0  0  0  0  0  0  0  0
  -31.3889  -23.7723   21.4129 C   0  0  0  0  0  0  0  0  0  0  0  0
  -21.0688  -26.5770   23.8970 C   0  0  0  0  0  0  0  0  0  0  0  0
  -25.3029  -15.4900   19.3376 C   0  0  0  0  0  0  0  0  0  0  0  0
  -27.7439  -13.3537   19.3442 C   0  0  0  0  0  0  0  0  0  0  0  0
  -31.1115  -12.8026   19.3873 C   0  0  0  0  0  0  0  0  0  0  0  0
  -28.6145  -27.8873   20.6206 C   0  0  0  0  0  0  0  0  0  0  0  0
  -20.3196  -15.4695   18.2311 C   0  0  0  0  0  0  0  0  0  0  0  0
  -26.7250  -16.3448   17.4394 C   0  0  0  0  0  0  0  0  0  0  0  0
  -28.3429  -15.7532   19.8430 C   0  0  0  0  0  0  0  0  0  0  0  0
  -21.3419  -14.4298   18.6832 C   0  0  0  0  0  0  0  0  0  0  0  0
  -25.7664  -29.6240   19.3760 C   0  0  0  0  0  0  0  0  0  0  0  0
  -22.1404  -14.9492   19.8746 C   0  0  0  0  0  0  0  0  0  0  0  0
  -24.5836  -28.8806   19.9991 C   0  0  0  0  0  0  0  0  0  0  0  0
  -26.9026  -28.6713   19.0108 C   0  0  0  0  0  0  0  0  0  0  0  0
  -26.1838  -27.0659   20.7370 C   0  0  0  0  0  0  0  0  0  0  0  0
  -22.9275  -16.2117   19.5030 C   0  0  1  0  0  0  0  0  0  0  0  0
  -26.3979  -15.1723   18.3590 C   0  0  1  0  0  0  0  0  0  0  0  0
  -25.0356  -27.9918   21.1734 C   0  0  2  0  0  0  0  0  0  0  0  0
  -32.8042  -10.9504   19.4260 C   0  0  0  0  0  0  0  0  0  0  0  0
  -30.2516  -21.6444   23.4774 C   0  0  0  0  0  0  0  0  0  0  0  0
  -27.1604  -12.8855   22.3023 C   0  0  0  0  0  0  0  0  0  0  0  0
  -29.4070  -11.7987   22.5019 C   0  0  0  0  0  0  0  0  0  0  0  0
  -27.6759  -10.8136   21.0000 C   0  0  0  0  0  0  0  0  0  0  0  0
  -32.2787  -13.6587   16.8059 C   0  0  0  0  0  0  0  0  0  0  0  0
  -30.2109  -27.0218   22.3122 C   0  0  0  0  0  0  0  0  0  0  0  0
  -29.9335  -20.3372   21.3493 C   0  0  0  0  0  0  0  0  0  1  0  0
  -28.8215  -12.9647   20.3273 C   0  0  1  0  0  0  0  0  0  0  0  0
  -31.9944  -11.8942   18.5507 C   0  0  2  0  0  0  0  0  0  0  0  0
  -30.0718  -21.7270   21.9673 C   0  0  2  0  0  0  0  0  0  0  0  0
  -28.2638  -12.1423   21.5232 C   0  0  0  0  0  0  0  0  0  0  0  0
  -23.6114  -25.9829   21.3094 N   0  0  0  0  0  0  0  0  0  0  0  0
  -30.5325  -24.6164   21.9443 N   0  0  0  0  0  0  0  0  0  0  0  0
  -23.8741  -27.2181   21.7692 N   0  0  0  0  0  0  0  0  0  0  0  0
  -27.5535  -14.7278   19.1409 N   0  0  0  0  0  0  0  0  0  0  0  0
  -27.2851  -27.8586   20.1681 N   0  0  0  0  0  0  0  0  0  0  0  0
  -23.1479  -28.8474   23.3276 N   0  0  0  0  0  0  0  0  0  0  0  0
  -20.2628  -25.4327   23.9697 N   0  0  0  0  0  0  0  0  0  0  0  0
  -31.2208  -22.4000   21.3954 N   0  0  0  0  0  0  0  0  0  0  0  0
  -24.1114  -15.8648   18.7464 N   0  0  0  0  0  0  0  0  0  0  0  0
  -29.8489  -12.2746   19.5549 N   0  0  0  0  0  0  0  0  0  0  0  0
  -28.8907  -27.0929   21.7267 N   0  0  0  0  0  0  0  0  0  0  0  0
  -32.9404  -12.7030   17.7310 N   0  3  0  0  0  0  0  0  0  0  0  0
  -20.8175  -27.5534   24.6434 O   0  0  0  0  0  0  0  0  0  0  0  0
  -25.5222  -15.4002   20.5399 O   0  0  0  0  0  0  0  0  0  0  0  0
  -27.0997  -12.4707   18.7723 O   0  0  0  0  0  0  0  0  0  0  0  0
  -31.5040  -13.8718   19.8493 O   0  0  0  0  0  0  0  0  0  0  0  0
  -29.4892  -28.5744   20.0823 O   0  0  0  0  0  0  0  0  0  0  0  0
  -20.2573  -20.5704   21.2507 O   0  0  0  0  0  0  0  0  0  0  0  0
  -29.7299  -20.4441   19.9410 O   0  0  0  0  0  0  0  0  0  1  0  0
  -18.9854  -17.6153   25.7289 F   0  0  0  0  0  0  0  0  0  0  0  0
  -21.3938  -18.0873   21.6813 F   0  0  0  0  0  0  0  0  0  0  0  0
  -32.7949  -24.4547   20.7040 S   0  0  0  0  0  0  0  0  0  0  0  0
  1  2  1  0  0  0  0
  1  5  2  0  0  0  0
  2  6  2  0  0  0  0
  3  8  2  0  0  0  0
  3 16  1  0  0  0  0
  4  9  1  0  0  0  0
  4 16  2  0  0  0  0
  5 18  1  0  0  0  0
  6 20  1  0  0  0  0
  7 10  2  0  0  0  0
  7 19  1  0  0  0  0
  8 22  1  0  0  0  0
  9 22  2  0  0  0  0
 10 23  1  0  0  0  0
 11 12  2  0  0  0  0
 11 24  1  0  0  0  0
 12 25  1  0  0  0  0
 13 21  1  0  0  0  0
 13 23  2  0  0  0  0
 14 25  2  0  0  0  0
 14 26  1  0  0  0  0
 15 28  2  0  0  0  0
 15 81  1  0  0  0  0
 16 27  1  0  0  0  0
 17 27  1  0  0  0  0
 17 29  2  0  0  0  0
 17 31  1  0  0  0  0
 18 20  2  0  0  0  0
 18 36  1  0  0  0  0
 19 21  2  0  0  0  0
 19 37  1  0  0  0  0
 20 45  1  0  0  0  0
 21 38  1  0  0  0  0
 22 77  1  0  0  0  0
 23 78  1  0  0  0  0
 24 26  2  0  0  0  0
 24 77  1  0  0  0  0
 25 79  1  0  0  0  0
 26 80  1  0  0  0  0
 27 60  2  0  0  0  0
 28 54  1  0  0  0  0
 28 61  1  0  0  0  0
 29 62  1  0  0  0  0
 29 65  1  0  0  0  0
 30 61  2  0  0  0  0
 30 67  1  0  0  0  0
 30 81  1  0  0  0  0
 31 66  1  0  0  0  0
 31 72  2  0  0  0  0
 32 46  1  0  0  0  0
 32 68  1  0  0  0  0
 32 73  2  0  0  0  0
 33 56  1  0  0  0  0
 33 63  1  0  0  0  0
 33 74  2  0  0  0  0
 34 57  1  0  0  0  0
 34 69  1  0  0  0  0
 34 75  2  0  0  0  0
 35 64  1  0  0  0  0
 35 70  1  0  0  0  0
 35 76  2  0  0  0  0
 36 39  1  0  0  0  0
 37 46  1  0  0  0  0
 38 63  1  0  0  0  0
 39 41  1  0  0  0  0
 40 42  1  0  0  0  0
 40 43  1  0  0  0  0
 41 45  1  0  0  0  0
 42 47  1  0  0  0  0
 43 64  1  0  0  0  0
 44 47  1  0  0  0  0
 44 64  1  0  0  0  0
 45 68  1  0  0  0  0
 46 63  1  0  0  0  0
 47 62  1  0  0  0  0
 48 57  1  0  0  0  0
 49 58  1  0  0  0  0
 50 59  1  0  0  0  0
 51 59  1  0  0  0  0
 52 59  1  0  0  0  0
 53 71  1  0  0  0  0
 54 70  1  0  0  0  0
 55 58  1  0  0  0  0
 55 78  1  0  0  0  0
 56 59  1  0  0  0  0
 56 69  1  0  0  0  0
 57 71  1  0  0  0  0
 58 67  1  0  0  0  0
 60 62  1  0  0  0  0
M  CHG  1  71   1
M  ISO  4  35 100  55 101  70 100  78 101
M  END
> <Batch ID>
0196

> <Smiles>
CNC(C)C(=O)NC(C(=O)N1Cc2cc([101O:1][101CH2:1]C(C)Nc3nc(C[100NH:0][100C:0](=O)N4CCCC(n5nc(-c6ccc(Oc7ccc(F)cc7F)cc6)c(C(N)=O)c5N)C4)cs3)ccc2CC1C(=O)NC1CCCc2ccccc21)C(C)(C)C

> <Shape>
0.171

> <Color>
0.081

> <Negative vol penalty>
0.000

$$$$

  -OEChem-04052305393D

 82 90  0     1  0  0  0  0  0999 V2000
  -25.2770  -35.1233   24.5878 C   0  0  0  0  0  0  0  0  0  0  0  0
  -25.9539  -33.9881   24.1534 C   0  0  0  0  0  0  0  0  0  0  0  0
  -22.6545  -16.8894   25.1794 C   0  0  0  0  0  0  0  0  0  0  0  0
  -21.8804  -18.5299   23.5835 C   0  0  0  0  0  0  0  0  0  0  0  0
  -23.9520  -35.0245   25.0102 C   0  0  0  0  0  0  0  0  0  0  0  0
  -25.3063  -32.7532   24.1422 C   0  0  0  0  0  0  0  0  0  0  0  0
  -26.1345  -30.1640   19.8696 C   0  0  0  0  0  0  0  0  0  0  0  0
  -21.7093  -17.3398   26.1009 C   0  0  0  0  0  0  0  0  0  0  0  0
  -20.9351  -18.9803   24.5051 C   0  0  0  0  0  0  0  0  0  0  0  0
  -27.3616  -29.5136   19.7470 C   0  0  0  0  0  0  0  0  0  0  0  0
  -21.3620  -19.9249   28.2506 C   0  0  0  0  0  0  0  0  0  0  0  0
  -21.7818  -20.1177   29.5668 C   0  0  0  0  0  0  0  0  0  0  0  0
  -26.3133  -27.4318   20.3686 C   0  0  0  0  0  0  0  0  0  0  0  0
  -20.1618  -18.4920   30.3216 C   0  0  0  0  0  0  0  0  0  0  0  0
  -27.1904  -22.1613   18.0992 C   0  0  0  0  0  0  0  0  0  0  0  0
  -22.7401  -17.4845   23.9207 C   0  0  0  0  0  0  0  0  0  0  0  0
  -23.5505  -16.0060   22.0063 C   0  0  0  0  0  0  0  0  0  0  0  0
  -23.2848  -33.7894   24.9950 C   0  0  0  0  0  0  0  0  0  0  0  0
  -24.9879  -29.4541   20.2539 C   0  0  0  0  0  0  0  0  0  0  0  0
  -23.9715  -32.6376   24.5661 C   0  0  0  0  0  0  0  0  0  0  0  0
  -25.0724  -28.0750   20.4930 C   0  0  0  0  0  0  0  0  0  0  0  0
  -20.8496  -18.3852   25.7638 C   0  0  0  0  0  0  0  0  0  0  0  0
  -27.4517  -28.1478   19.9993 C   0  0  0  0  0  0  0  0  0  0  0  0
  -20.3421  -19.0157   27.9700 C   0  0  0  0  0  0  0  0  0  0  0  0
  -21.1817  -19.4012   30.6022 C   0  0  0  0  0  0  0  0  0  0  0  0
  -19.7420  -18.2992   29.0054 C   0  0  0  0  0  0  0  0  0  0  0  0
  -23.7167  -17.0201   22.9685 C   0  0  0  0  0  0  0  0  0  0  0  0
  -28.2439  -21.5244   18.7698 C   0  0  0  0  0  0  0  0  0  0  0  0
  -24.7597  -15.9467   21.3575 C   0  0  0  0  0  0  0  0  0  0  0  0
  -22.4055  -15.1905   21.7241 C   0  0  0  0  0  0  0  0  0  0  0  0
  -22.9806  -29.5974   22.7144 C   0  0  0  0  0  0  0  0  0  0  0  0
  -21.3492  -27.3699   21.0117 C   0  0  0  0  0  0  0  0  0  0  0  0
  -21.4142  -24.9138   18.6432 C   0  0  0  0  0  0  0  0  0  0  0  0
  -29.1334  -19.9274   20.5032 C   0  0  0  0  0  0  0  0  0  0  0  0
  -21.8672  -33.7238   25.5056 C   0  0  0  0  0  0  0  0  0  0  0  0
  -23.6664  -30.1653   20.3558 C   0  0  0  0  0  0  0  0  0  0  0  0
  -23.8670  -27.2634   20.8887 C   0  0  0  0  0  0  0  0  0  0  0  0
  -21.1356  -32.4441   25.1090 C   0  0  0  0  0  0  0  0  0  0  0  0
  -29.4298  -16.7398   22.0615 C   0  0  0  0  0  0  0  0  0  0  0  0
  -22.0174  -31.2251   25.3611 C   0  0  0  0  0  0  0  0  0  0  0  0
  -27.9828  -16.3549   22.3778 C   0  0  0  0  0  0  0  0  0  0  0  0
  -29.6712  -18.2372   22.2436 C   0  0  0  0  0  0  0  0  0  0  0  0
  -27.2911  -18.7243   21.8351 C   0  0  0  0  0  0  0  0  0  0  0  0
  -23.2955  -31.2846   24.5159 C   0  0  1  0  0  0  0  0  0  0  0  0
  -22.6666  -29.4426   21.2532 C   0  0  1  0  0  0  0  0  0  0  0  0
  -26.9831  -17.2359   21.6033 C   0  0  2  0  0  0  0  0  0  0  0  0
  -19.9326  -23.2467   17.4929 C   0  0  0  0  0  0  0  0  0  0  0  0
  -21.3975  -25.6107   23.5042 C   0  0  0  0  0  0  0  0  0  0  0  0
  -20.7827  -23.6629   22.0564 C   0  0  0  0  0  0  0  0  0  0  0  0
  -19.2265  -25.6016   22.2628 C   0  0  0  0  0  0  0  0  0  0  0  0
  -21.9180  -26.1232   15.9894 C   0  0  0  0  0  0  0  0  0  0  0  0
  -30.6846  -24.7107   17.2007 C   0  0  0  0  0  0  0  0  0  0  0  0
  -30.4836  -26.9208   18.4200 C   0  0  0  0  0  0  0  0  0  0  0  0
  -29.9928  -23.5464   16.4773 C   0  0  0  0  0  0  0  0  0  0  0  0
  -29.5718  -28.0347   18.9276 C   0  0  0  0  0  0  0  0  0  1  0  0
  -21.3621  -25.8623   20.9349 C   0  0  1  0  0  0  0  0  0  0  0  0
  -20.5229  -24.6474   17.4436 C   0  0  2  0  0  0  0  0  0  0  0  0
  -29.7185  -25.7871   17.7201 C   0  0  1  0  0  0  0  0  0  0  0  0
  -20.7155  -25.1998   22.1840 C   0  0  0  0  0  0  0  0  0  0  0  0
  -27.6786  -22.9892   17.1712 N   0  0  0  0  0  0  0  0  0  0  0  0
  -24.9355  -17.5657   22.9373 N   0  0  0  0  0  0  0  0  0  0  0  0
  -29.4130  -21.9396   18.2742 N   0  0  0  0  0  0  0  0  0  0  0  0
  -25.5461  -16.8919   21.9478 N   0  0  0  0  0  0  0  0  0  0  0  0
  -28.9985  -22.8039   17.3340 N   0  0  0  0  0  0  0  0  0  0  0  0
  -22.5987  -28.0054   20.9811 N   0  0  0  0  0  0  0  0  0  0  0  0
  -28.6897  -19.0085   21.4777 N   0  0  0  0  0  0  0  0  0  0  0  0
  -25.2164  -15.1788   20.3455 N   0  0  0  0  0  0  0  0  0  0  0  0
  -21.2446  -15.3823   22.4856 N   0  0  0  0  0  0  0  0  0  0  0  0
  -28.1094  -20.5785   19.8161 N   0  0  0  0  0  0  0  0  0  0  0  0
  -23.0139  -30.9095   23.1468 N   0  0  0  0  0  0  0  0  0  0  0  0
  -20.7194  -25.5124   19.6728 N   0  0  0  0  0  0  0  0  0  0  0  0
  -21.3004  -24.7855   16.1797 N   0  3  0  0  0  0  0  0  0  0  0  0
  -22.4170  -14.3063   20.8344 O   0  0  0  0  0  0  0  0  0  0  0  0
  -23.1766  -28.6003   23.3993 O   0  0  0  0  0  0  0  0  0  0  0  0
  -20.2700  -27.9624   21.0886 O   0  0  0  0  0  0  0  0  0  0  0  0
  -22.6066  -24.6169   18.6661 O   0  0  0  0  0  0  0  0  0  0  0  0
  -30.3330  -20.1024   20.2748 O   0  0  0  0  0  0  0  0  0  0  0  0
  -28.9658  -26.3202   16.6332 O   0  0  0  0  0  0  0  0  0  0  0  0
  -19.9270  -18.8248   26.6627 O   0  0  0  0  0  0  0  0  0  0  0  0
  -28.6483  -27.5106   19.8809 O   0  0  0  0  0  0  0  0  0  1  0  0
  -21.5860  -19.5853   31.8659 F   0  0  0  0  0  0  0  0  0  0  0  0
  -18.7625  -17.4235   28.7419 F   0  0  0  0  0  0  0  0  0  0  0  0
  1  2  1  0  0  0  0
  1  5  2  0  0  0  0
  2  6  2  0  0  0  0
  3  8  2  0  0  0  0
  3 16  1  0  0  0  0
  4  9  1  0  0  0  0
  4 16  2  0  0  0  0
  5 18  1  0  0  0  0
  6 20  1  0  0  0  0
  7 10  2  0  0  0  0
  7 19  1  0  0  0  0
  8 22  1  0  0  0  0
  9 22  2  0  0  0  0
 10 23  1  0  0  0  0
 11 12  2  0  0  0  0
 11 24  1  0  0  0  0
 12 25  1  0  0  0  0
 13 21  1  0  0  0  0
 13 23  2  0  0  0  0
 14 25  2  0  0  0  0
 14 26  1  0  0  0  0
 15 28  1  0  0  0  0
 15 60  2  0  0  0  0
 16 27  1  0  0  0  0
 17 27  1  0  0  0  0
 17 29  2  0  0  0  0
 17 30  1  0  0  0  0
 18 20  2  0  0  0  0
 18 35  1  0  0  0  0
 19 21  2  0  0  0  0
 19 36  1  0  0  0  0
 20 44  1  0  0  0  0
 21 37  1  0  0  0  0
 22 79  1  0  0  0  0
 23 80  1  0  0  0  0
 24 26  2  0  0  0  0
 24 79  1  0  0  0  0
 25 81  1  0  0  0  0
 26 82  1  0  0  0  0
 27 61  2  0  0  0  0
 28 62  2  0  0  0  0
 28 69  1  0  0  0  0
 29 63  1  0  0  0  0
 29 67  1  0  0  0  0
 30 68  1  0  0  0  0
 30 73  2  0  0  0  0
 31 45  1  0  0  0  0
 31 70  1  0  0  0  0
 31 74  2  0  0  0  0
 32 56  1  0  0  0  0
 32 65  1  0  0  0  0
 32 75  2  0  0  0  0
 33 57  1  0  0  0  0
 33 71  1  0  0  0  0
 33 76  2  0  0  0  0
 34 66  1  0  0  0  0
 34 69  1  0  0  0  0
 34 77  2  0  0  0  0
 35 38  1  0  0  0  0
 36 45  1  0  0  0  0
 37 65  1  0  0  0  0
 38 40  1  0  0  0  0
 39 41  1  0  0  0  0
 39 42  1  0  0  0  0
 40 44  1  0  0  0  0
 41 46  1  0  0  0  0
 42 66  1  0  0  0  0
 43 46  1  0  0  0  0
 43 66  1  0  0  0  0
 44 70  1  0  0  0  0
 45 65  1  0  0  0  0
 46 63  1  0  0  0  0
 47 57  1  0  0  0  0
 48 59  1  0  0  0  0
 49 59  1  0  0  0  0
 50 59  1  0  0  0  0
 51 72  1  0  0  0  0
 52 54  1  0  0  0  0
 52 58  1  0  0  0  0
 53 55  1  0  0  0  0
 53 58  1  0  0  0  0
 54 64  1  0  0  0  0
 55 80  1  0  0  0  0
 56 59  1  0  0  0  0
 56 71  1  0  0  0  0
 57 72  1  0  0  0  0
 58 78  1  0  0  0  0
 60 64  1  0  0  0  0
 61 63  1  0  0  0  0
 62 64  1  0  0  0  0
M  CHG  1  72   1
M  ISO  4  34 100  55 101  69 100  80 101
M  END
> <Batch ID>
0196

> <Smiles>
CNC(C)C(=O)NC(C(=O)N1Cc2cc([101O:1][101CH2:1]CC(O)CCn3ncc([100NH:0][100C:0](=O)N4CCCC(n5nc(-c6ccc(Oc7ccc(F)cc7F)cc6)c(C(N)=O)c5N)C4)n3)ccc2CC1C(=O)NC1CCCc2ccccc21)C(C)(C)C

> <Shape>
0.196

> <Color>
0.105

> <Negative vol penalty>
0.000

$$$$

  -OEChem-04052305393D

 93101  0     1  0  0  0  0  0999 V2000
  -25.8137  -37.4768   21.7322 C   0  0  0  0  0  0  0  0  0  0  0  0
  -26.6109  -36.5662   21.0462 C   0  0  0  0  0  0  0  0  0  0  0  0
  -23.4330   -9.4924   21.1473 C   0  0  0  0  0  0  0  0  0  0  0  0
  -24.0638  -10.3973   23.2968 C   0  0  0  0  0  0  0  0  0  0  0  0
  -25.2583  -37.1270   22.9623 C   0  0  0  0  0  0  0  0  0  0  0  0
  -26.8541  -35.3056   21.5904 C   0  0  0  0  0  0  0  0  0  0  0  0
  -27.5149  -30.0407   18.5326 C   0  0  0  0  0  0  0  0  0  0  0  0
  -22.8213   -8.4113   21.7818 C   0  0  0  0  0  0  0  0  0  0  0  0
  -23.4520   -9.3163   23.9314 C   0  0  0  0  0  0  0  0  0  0  0  0
  -28.6414  -29.3246   18.1305 C   0  0  0  0  0  0  0  0  0  0  0  0
  -19.9178   -7.7896   23.3992 C   0  0  0  0  0  0  0  0  0  0  0  0
  -18.6536   -7.4060   22.9518 C   0  0  0  0  0  0  0  0  0  0  0  0
  -28.4615  -27.9462   20.1020 C   0  0  0  0  0  0  0  0  0  0  0  0
  -19.5127   -5.2157   22.4026 C   0  0  0  0  0  0  0  0  0  0  0  0
  -31.3756  -19.3886   20.0206 C   0  0  0  0  0  0  0  0  0  0  0  0
  -24.0543  -10.4854   21.9047 C   0  0  0  0  0  0  0  0  0  0  0  0
  -24.0951  -12.8323   20.9057 C   0  0  0  0  0  0  0  0  0  0  0  0
  -25.4869  -35.8580   23.5173 C   0  0  0  0  0  0  0  0  0  0  0  0
  -26.8585  -29.7215   19.7299 C   0  0  0  0  0  0  0  0  0  0  0  0
  -26.3024  -34.9390   22.8297 C   0  0  0  0  0  0  0  0  0  0  0  0
  -27.3253  -28.6582   20.5158 C   0  0  0  0  0  0  0  0  0  0  0  0
  -30.5027  -20.3523   20.4828 C   0  0  0  0  0  0  0  0  0  0  0  0
  -22.8308   -8.3233   23.1739 C   0  0  0  0  0  0  0  0  0  0  0  0
  -29.1166  -28.2790   18.9167 C   0  0  0  0  0  0  0  0  0  0  0  0
  -20.9795   -6.8864   23.3482 C   0  0  0  0  0  0  0  0  0  0  0  0
  -18.4510   -6.1190   22.4535 C   0  0  0  0  0  0  0  0  0  0  0  0
  -20.7770   -5.5994   22.8499 C   0  0  0  0  0  0  0  0  0  0  0  0
  -24.6868  -11.6021   21.2497 C   0  0  0  0  0  0  0  0  0  0  0  0
  -29.3040  -19.8831   20.9797 C   0  0  0  0  0  0  0  0  0  0  0  0
  -25.1067  -13.5451   20.3097 C   0  0  0  0  0  0  0  0  0  0  0  0
  -29.9075  -17.7348   20.5466 C   0  0  0  0  0  0  0  0  0  0  0  0
  -22.7513  -13.2899   21.1069 C   0  0  0  0  0  0  0  0  0  0  0  0
  -26.2717  -31.2641   22.4466 C   0  0  0  0  0  0  0  0  0  0  0  0
  -24.5227  -28.6160   23.1181 C   0  0  0  0  0  0  0  0  0  0  0  0
  -23.9597  -25.2969   22.5584 C   0  0  0  0  0  0  0  0  0  0  0  0
  -30.3900  -15.2951   20.1448 C   0  0  0  0  0  0  0  0  0  0  0  0
  -24.9038  -35.5424   24.8720 C   0  0  0  0  0  0  0  0  0  0  0  0
  -25.6287  -30.4864   20.1362 C   0  0  0  0  0  0  0  0  0  0  0  0
  -26.6445  -28.2626   21.7997 C   0  0  0  0  0  0  0  0  0  0  0  0
  -24.9035  -34.0521   25.2028 C   0  0  0  0  0  0  0  0  0  0  0  0
  -29.7019  -12.0836   18.7702 C   0  0  0  0  0  0  0  0  0  0  0  0
  -26.2573  -33.4317   24.8721 C   0  0  0  0  0  0  0  0  0  0  0  0
  -28.2871  -11.7732   19.2644 C   0  0  0  0  0  0  0  0  0  0  0  0
  -30.5177  -12.8346   19.8209 C   0  0  0  0  0  0  0  0  0  0  0  0
  -28.4668  -13.7373   20.8447 C   0  0  0  0  0  0  0  0  0  0  0  0
  -26.5690  -33.5530   23.3756 C   0  0  1  0  0  0  0  0  0  0  0  0
  -25.3433  -30.4076   21.6328 C   0  0  1  0  0  0  0  0  0  0  0  0
  -27.5858  -13.0384   19.7963 C   0  0  2  0  0  0  0  0  0  0  0  0
  -32.8990  -22.7824   22.2649 C   0  0  0  0  0  0  0  0  0  0  0  0
  -28.5825  -21.1617   22.9872 C   0  0  0  0  0  0  0  0  0  0  0  0
  -22.4858  -23.3993   23.2825 C   0  0  0  0  0  0  0  0  0  0  0  0
  -24.5537  -20.2361   20.1642 C   0  0  0  0  0  0  0  0  0  0  0  0
  -26.6932  -19.7629   18.9665 C   0  0  0  0  0  0  0  0  0  0  0  0
  -26.1352  -22.0992   19.6108 C   0  0  0  0  0  0  0  0  0  0  0  0
  -26.1014  -28.3855   25.7190 C   0  0  0  0  0  0  0  0  0  0  0  0
  -25.2872  -26.0267   25.9227 C   0  0  0  0  0  0  0  0  0  0  0  0
  -23.6553  -27.9133   25.9381 C   0  0  0  0  0  0  0  0  0  0  0  0
  -22.8902  -24.9309   19.8232 C   0  0  0  0  0  0  0  0  0  0  0  0
  -33.1855  -22.0199   20.9772 C   0  0  0  0  0  0  0  0  0  0  0  0
  -31.0471  -25.4103   17.8734 C   0  0  0  0  0  0  0  0  0  0  0  0
  -26.7947  -20.3640   21.3945 C   0  0  0  0  0  0  0  0  0  0  0  0
  -31.9231  -23.6897   19.5602 C   0  0  0  0  0  0  0  0  0  0  0  0
  -30.2897  -26.2103   18.9245 C   0  0  0  0  0  0  0  0  0  1  0  0
  -28.2787  -20.8325   21.5076 C   0  0  2  0  0  0  0  0  0  0  0  0
  -24.8050  -27.2866   23.7753 C   0  0  1  0  0  0  0  0  0  0  0  0
  -22.6828  -24.5249   22.2790 C   0  0  2  0  0  0  0  0  0  0  0  0
  -32.0825  -22.2005   19.9223 C   0  0  2  0  0  0  0  0  0  0  0  0
  -31.2093  -23.9259   18.2183 C   0  0  2  0  0  0  0  0  0  0  0  0
  -26.0351  -20.6333   20.0603 C   0  0  0  0  0  0  0  0  0  0  0  0
  -24.9764  -27.4115   25.3156 C   0  0  0  0  0  0  0  0  0  0  0  0
  -31.1094  -18.0660   20.0375 N   0  0  0  0  0  0  0  0  0  0  0  0
  -25.9744  -11.5338   20.9012 N   0  0  0  0  0  0  0  0  0  0  0  0
  -28.9721  -18.5762   21.0268 N   0  0  0  0  0  0  0  0  0  0  0  0
  -26.2001  -12.7301   20.3319 N   0  0  0  0  0  0  0  0  0  0  0  0
  -25.4496  -29.0447   22.1575 N   0  0  0  0  0  0  0  0  0  0  0  0
  -29.7928  -14.0234   20.2750 N   0  0  0  0  0  0  0  0  0  0  0  0
  -25.1587  -14.7831   19.7741 N   0  0  0  0  0  0  0  0  0  0  0  0
  -21.8399  -12.4304   21.7353 N   0  0  0  0  0  0  0  0  0  0  0  0
  -30.8271  -21.6958   20.4418 N   0  0  0  0  0  0  0  0  0  0  0  0
  -29.5934  -16.3535   20.5803 N   0  0  0  0  0  0  0  0  0  0  0  0
  -25.8304  -32.5615   22.6235 N   0  0  0  0  0  0  0  0  0  0  0  0
  -23.7287  -26.3914   23.3645 N   0  0  0  0  0  0  0  0  0  0  0  0
  -22.7237  -23.9336   20.9116 N   0  3  0  0  0  0  0  0  0  0  0  0
  -22.3658  -14.4210   20.7255 O   0  0  0  0  0  0  0  0  0  0  0  0
  -27.3108  -30.7829   22.8830 O   0  0  0  0  0  0  0  0  0  0  0  0
  -23.5130  -29.2474   23.4399 O   0  0  0  0  0  0  0  0  0  0  0  0
  -25.0533  -24.9604   22.1097 O   0  0  0  0  0  0  0  0  0  0  0  0
  -31.5137  -15.4373   19.6559 O   0  0  0  0  0  0  0  0  0  0  0  0
  -31.9564  -23.3107   17.1676 O   0  0  0  0  0  0  0  0  0  0  0  0
  -22.2338   -7.2686   23.7935 O   0  0  0  0  0  0  0  0  0  0  0  0
  -30.2164  -27.5788   18.5268 O   0  0  0  0  0  0  0  0  0  1  0  0
  -17.2366   -5.7501   22.0254 F   0  0  0  0  0  0  0  0  0  0  0  0
  -21.7928   -4.7269   22.7996 F   0  0  0  0  0  0  0  0  0  0  0  0
  1  2  1  0  0  0  0
  1  5  2  0  0  0  0
  2  6  2  0  0  0  0
  3  8  2  0  0  0  0
  3 16  1  0  0  0  0
  4  9  1  0  0  0  0
  4 16  2  0  0  0  0
  5 18  1  0  0  0  0
  6 20  1  0  0  0  0
  7 10  2  0  0  0  0
  7 19  1  0  0  0  0
  8 23  1  0  0  0  0
  9 23  2  0  0  0  0
 10 24  1  0  0  0  0
 11 12  2  0  0  0  0
 11 25  1  0  0  0  0
 12 26  1  0  0  0  0
 13 21  1  0  0  0  0
 13 24  2  0  0  0  0
 14 26  2  0  0  0  0
 14 27  1  0  0  0  0
 15 22  1  0  0  0  0
 15 71  2  0  0  0  0
 16 28  1  0  0  0  0
 17 28  1  0  0  0  0
 17 30  2  0  0  0  0
 17 32  1  0  0  0  0
 18 20  2  0  0  0  0
 18 37  1  0  0  0  0
 19 21  2  0  0  0  0
 19 38  1  0  0  0  0
 20 46  1  0  0  0  0
 21 39  1  0  0  0  0
 22 29  2  0  0  0  0
 22 79  1  0  0  0  0
 23 90  1  0  0  0  0
 24 91  1  0  0  0  0
 25 27  2  0  0  0  0
 25 90  1  0  0  0  0
 26 92  1  0  0  0  0
 27 93  1  0  0  0  0
 28 72  2  0  0  0  0
 29 64  1  0  0  0  0
 29 73  1  0  0  0  0
 30 74  1  0  0  0  0
 30 77  1  0  0  0  0
 31 71  1  0  0  0  0
 31 73  2  0  0  0  0
 31 80  1  0  0  0  0
 32 78  1  0  0  0  0
 32 84  2  0  0  0  0
 33 47  1  0  0  0  0
 33 81  1  0  0  0  0
 33 85  2  0  0  0  0
 34 65  1  0  0  0  0
 34 75  1  0  0  0  0
 34 86  2  0  0  0  0
 35 66  1  0  0  0  0
 35 82  1  0  0  0  0
 35 87  2  0  0  0  0
 36 76  1  0  0  0  0
 36 80  1  0  0  0  0
 36 88  2  0  0  0  0
 37 40  1  0  0  0  0
 38 47  1  0  0  0  0
 39 75  1  0  0  0  0
 40 42  1  0  0  0  0
 41 43  1  0  0  0  0
 41 44  1  0  0  0  0
 42 46  1  0  0  0  0
 43 48  1  0  0  0  0
 44 76  1  0  0  0  0
 45 48  1  0  0  0  0
 45 76  1  0  0  0  0
 46 81  1  0  0  0  0
 47 75  1  0  0  0  0
 48 74  1  0  0  0  0
 49 59  1  0  0  0  0
 50 64  1  0  0  0  0
 51 66  1  0  0  0  0
 52 69  1  0  0  0  0
 53 69  1  0  0  0  0
 54 69  1  0  0  0  0
 55 70  1  0  0  0  0
 56 70  1  0  0  0  0
 57 70  1  0  0  0  0
 58 83  1  0  0  0  0
 59 67  1  0  0  0  0
 60 63  1  0  0  0  0
 60 68  1  0  0  0  0
 61 64  1  0  0  0  0
 61 69  1  0  0  0  0
 62 67  1  0  0  0  0
 62 68  1  0  0  0  0
 63 91  1  0  0  0  0
 65 70  1  0  0  0  0
 65 82  1  0  0  0  0
 66 83  1  0  0  0  0
 67 79  1  0  0  0  0
 68 89  1  0  0  0  0
 72 74  1  0  0  0  0
M  CHG  1  83   1
M  ISO  4  36 100  63 101  80 100  91 101
M  END
> <Batch ID>
0196

> <Smiles>
CCC(CC(O)C[101CH2:1][101O:1]c1ccc2c(c1)CN(C(=O)C(NC(=O)C(C)NC)C(C)(C)C)C(C(=O)NC1CCCc3ccccc31)C2)Nc1cnc([100NH:0][100C:0](=O)N2CCCC(n3nc(-c4ccc(Oc5ccc(F)cc5F)cc4)c(C(N)=O)c3N)C2)nc1C(C)CC(C)(C)C

> <Shape>
0.318

> <Color>
0.142

> <Negative vol penalty>
0.000

$$$$

  -OEChem-04052305393D

 83 91  0     1  0  0  0  0  0999 V2000
  -23.0501  -27.7090   15.1740 C   0  0  0  0  0  0  0  0  0  0  0  0
  -23.6122  -26.4629   15.4321 C   0  0  0  0  0  0  0  0  0  0  0  0
  -26.9518  -26.0828   17.4975 C   0  0  0  0  0  0  0  0  0  0  0  0
  -26.5975  -25.5620   19.8299 C   0  0  0  0  0  0  0  0  0  0  0  0
  -21.8954  -28.1047   15.8479 C   0  0  0  0  0  0  0  0  0  0  0  0
  -23.0205  -25.6121   16.3651 C   0  0  0  0  0  0  0  0  0  0  0  0
  -22.7697  -19.4975   16.1322 C   0  0  0  0  0  0  0  0  0  0  0  0
  -26.0222  -27.1188   17.5876 C   0  0  0  0  0  0  0  0  0  0  0  0
  -25.6679  -26.5981   19.9201 C   0  0  0  0  0  0  0  0  0  0  0  0
  -23.5364  -18.5035   16.7387 C   0  0  0  0  0  0  0  0  0  0  0  0
  -25.7132  -29.9641   20.2169 C   0  0  0  0  0  0  0  0  0  0  0  0
  -25.7936  -30.8105   21.3226 C   0  0  0  0  0  0  0  0  0  0  0  0
  -26.1538  -12.7503   20.2568 C   0  0  0  0  0  0  0  0  0  0  0  0
  -21.8974  -18.3222   18.4995 C   0  0  0  0  0  0  0  0  0  0  0  0
  -23.5502  -30.1846   21.9648 C   0  0  0  0  0  0  0  0  0  0  0  0
  -27.3376  -12.0415   20.2785 C   0  0  0  0  0  0  0  0  0  0  0  0
  -27.2394  -25.3043   18.6187 C   0  0  0  0  0  0  0  0  0  0  0  0
  -29.5859  -24.3129   18.7547 C   0  0  0  0  0  0  0  0  0  0  0  0
  -21.2838  -27.2544   16.7825 C   0  0  0  0  0  0  0  0  0  0  0  0
  -21.5645  -19.9197   16.7115 C   0  0  0  0  0  0  0  0  0  0  0  0
  -21.8573  -25.9973   17.0530 C   0  0  0  0  0  0  0  0  0  0  0  0
  -21.1160  -19.3199   17.8969 C   0  0  0  0  0  0  0  0  0  0  0  0
  -25.3803  -27.3765   18.7989 C   0  0  0  0  0  0  0  0  0  0  0  0
  -23.1017  -17.9177   17.9241 C   0  0  0  0  0  0  0  0  0  0  0  0
  -24.5513  -29.2280   19.9850 C   0  0  0  0  0  0  0  0  0  0  0  0
  -24.7121  -30.9207   22.1966 C   0  0  0  0  0  0  0  0  0  0  0  0
  -23.4698  -29.3382   20.8590 C   0  0  0  0  0  0  0  0  0  0  0  0
  -28.1991  -24.2336   18.5261 C   0  0  0  0  0  0  0  0  0  0  0  0
  -26.2747  -14.1185   20.3898 C   0  0  0  0  0  0  0  0  0  0  0  0
  -30.0430  -23.0356   18.5398 C   0  0  0  0  0  0  0  0  0  0  0  0
  -28.5370  -13.9548   20.5392 C   0  0  0  0  0  0  0  0  0  0  0  0
  -30.3892  -25.4403   19.1280 C   0  0  0  0  0  0  0  0  0  0  0  0
  -20.4790  -22.6699   17.8785 C   0  0  0  0  0  0  0  0  0  0  0  0
  -17.6971  -21.0195   18.1228 C   0  0  0  0  0  0  0  0  0  0  0  0
  -16.1355  -17.9965   18.3871 C   0  0  0  0  0  0  0  0  0  0  0  0
  -29.6133  -17.6360   19.3181 C   0  0  0  0  0  0  0  0  0  0  0  0
  -20.0635  -27.7450   17.5206 C   0  0  0  0  0  0  0  0  0  0  0  0
  -20.7358  -20.9743   16.0305 C   0  0  0  0  0  0  0  0  0  0  0  0
  -19.8194  -19.7233   18.5485 C   0  0  0  0  0  0  0  0  0  0  0  0
  -19.2863  -26.6326   18.2197 C   0  0  0  0  0  0  0  0  0  0  0  0
  -27.7325  -19.0019   16.5442 C   0  0  0  0  0  0  0  0  0  0  0  0
  -20.2363  -25.7185   18.9870 C   0  0  0  0  0  0  0  0  0  0  0  0
  -27.8040  -20.5016   16.8374 C   0  0  0  0  0  0  0  0  0  0  0  0
  -27.5958  -18.1930   17.8307 C   0  0  0  0  0  0  0  0  0  0  0  0
  -28.7386  -19.9473   19.1307 C   0  0  0  0  0  0  0  0  0  0  0  0
  -21.2307  -25.0362   18.0399 C   0  0  1  0  0  0  0  0  0  0  0  0
  -19.7797  -21.6887   16.9807 C   0  0  1  0  0  0  0  0  0  0  0  0
  -28.9002  -20.8187   17.8718 C   0  0  2  0  0  0  0  0  0  0  0  0
  -13.8565  -16.9691   18.6069 C   0  0  0  0  0  0  0  0  0  0  0  0
  -25.2444  -16.6715   21.9724 C   0  0  0  0  0  0  0  0  0  0  0  0
  -17.6120  -21.8427   21.0596 C   0  0  0  0  0  0  0  0  0  0  0  0
  -15.8980  -20.0575   21.4382 C   0  0  0  0  0  0  0  0  0  0  0  0
  -15.4075  -21.9452   19.8831 C   0  0  0  0  0  0  0  0  0  0  0  0
  -16.4310  -16.5139   15.8427 C   0  0  0  0  0  0  0  0  0  0  0  0
  -29.8605  -14.6235   20.6951 C   0  0  0  0  0  0  0  0  0  0  0  0
  -30.3750  -15.2761   19.4063 C   0  0  0  0  0  0  0  0  0  0  0  0
  -23.7692  -16.8465   19.9398 C   0  0  0  0  0  0  0  0  0  1  0  0
  -17.0542  -20.1589   19.1835 C   0  0  1  0  0  0  0  0  0  0  0  0
  -14.9498  -17.4070   17.6447 C   0  0  2  0  0  0  0  0  0  0  0  0
  -25.0828  -16.3076   20.5023 C   0  0  2  0  0  0  0  0  0  0  0  0
  -16.5183  -20.9946   20.3801 C   0  0  0  0  0  0  0  0  0  0  0  0
  -28.5514  -12.6136   20.4186 N   0  0  0  0  0  0  0  0  0  0  0  0
  -27.8012  -23.0033   18.1914 N   0  0  0  0  0  0  0  0  0  0  0  0
  -27.4548  -14.7564   20.5336 N   0  0  0  0  0  0  0  0  0  0  0  0
  -28.9449  -22.2977   18.2081 N   0  0  0  0  0  0  0  0  0  0  0  0
  -19.0478  -20.7631   17.8477 N   0  0  0  0  0  0  0  0  0  0  0  0
  -28.6799  -18.5282   18.7647 N   0  0  0  0  0  0  0  0  0  0  0  0
  -31.2729  -22.4830   18.6040 N   0  0  0  0  0  0  0  0  0  0  0  0
  -29.7592  -26.6793   19.3081 N   0  0  0  0  0  0  0  0  0  0  0  0
  -25.1107  -14.8646   20.3716 N   0  0  0  0  0  0  0  0  0  0  0  0
  -20.5940  -23.9388   17.3437 N   0  0  0  0  0  0  0  0  0  0  0  0
  -16.0349  -19.3667   18.5039 N   0  0  0  0  0  0  0  0  0  0  0  0
  -29.4846  -16.3092   18.9258 N   0  0  0  0  0  0  0  0  0  0  0  0
  -15.3753  -16.2226   16.8465 N   0  3  0  0  0  0  0  0  0  0  0  0
  -31.6314  -25.3553   19.2808 O   0  0  0  0  0  0  0  0  0  0  0  0
  -20.8829  -22.3032   18.9758 O   0  0  0  0  0  0  0  0  0  0  0  0
  -17.0237  -21.8824   17.5540 O   0  0  0  0  0  0  0  0  0  0  0  0
  -17.0567  -17.3098   18.8231 O   0  0  0  0  0  0  0  0  0  0  0  0
  -30.4998  -17.9960   20.1001 O   0  0  0  0  0  0  0  0  0  0  0  0
  -24.4733  -28.3875   18.8872 O   0  0  0  0  0  0  0  0  0  0  0  0
  -23.8485  -16.9477   18.5186 O   0  0  0  0  0  0  0  0  0  1  0  0
  -24.7900  -31.7324   23.2593 F   0  0  0  0  0  0  0  0  0  0  0  0
  -22.3514  -28.6326   20.6421 F   0  0  0  0  0  0  0  0  0  0  0  0
  1  2  1  0  0  0  0
  1  5  2  0  0  0  0
  2  6  2  0  0  0  0
  3  8  2  0  0  0  0
  3 17  1  0  0  0  0
  4  9  1  0  0  0  0
  4 17  2  0  0  0  0
  5 19  1  0  0  0  0
  6 21  1  0  0  0  0
  7 10  2  0  0  0  0
  7 20  1  0  0  0  0
  8 23  1  0  0  0  0
  9 23  2  0  0  0  0
 10 24  1  0  0  0  0
 11 12  2  0  0  0  0
 11 25  1  0  0  0  0
 12 26  1  0  0  0  0
 13 16  2  0  0  0  0
 13 29  1  0  0  0  0
 14 22  1  0  0  0  0
 14 24  2  0  0  0  0
 15 26  2  0  0  0  0
 15 27  1  0  0  0  0
 16 62  1  0  0  0  0
 17 28  1  0  0  0  0
 18 28  1  0  0  0  0
 18 30  2  0  0  0  0
 18 32  1  0  0  0  0
 19 21  2  0  0  0  0
 19 37  1  0  0  0  0
 20 22  2  0  0  0  0
 20 38  1  0  0  0  0
 21 46  1  0  0  0  0
 22 39  1  0  0  0  0
 23 80  1  0  0  0  0
 24 81  1  0  0  0  0
 25 27  2  0  0  0  0
 25 80  1  0  0  0  0
 26 82  1  0  0  0  0
 27 83  1  0  0  0  0
 28 63  2  0  0  0  0
 29 64  2  0  0  0  0
 29 70  1  0  0  0  0
 30 65  1  0  0  0  0
 30 68  1  0  0  0  0
 31 55  1  0  0  0  0
 31 62  2  0  0  0  0
 31 64  1  0  0  0  0
 32 69  1  0  0  0  0
 32 75  2  0  0  0  0
 33 47  1  0  0  0  0
 33 71  1  0  0  0  0
 33 76  2  0  0  0  0
 34 58  1  0  0  0  0
 34 66  1  0  0  0  0
 34 77  2  0  0  0  0
 35 59  1  0  0  0  0
 35 72  1  0  0  0  0
 35 78  2  0  0  0  0
 36 67  1  0  0  0  0
 36 73  1  0  0  0  0
 36 79  2  0  0  0  0
 37 40  1  0  0  0  0
 38 47  1  0  0  0  0
 39 66  1  0  0  0  0
 40 42  1  0  0  0  0
 41 43  1  0  0  0  0
 41 44  1  0  0  0  0
 42 46  1  0  0  0  0
 43 48  1  0  0  0  0
 44 67  1  0  0  0  0
 45 48  1  0  0  0  0
 45 67  1  0  0  0  0
 46 71  1  0  0  0  0
 47 66  1  0  0  0  0
 48 65  1  0  0  0  0
 49 59  1  0  0  0  0
 50 60  1  0  0  0  0
 51 61  1  0  0  0  0
 52 61  1  0  0  0  0
 53 61  1  0  0  0  0
 54 74  1  0  0  0  0
 55 56  1  0  0  0  0
 56 73  1  0  0  0  0
 57 60  1  0  0  0  0
 57 81  1  0  0  0  0
 58 61  1  0  0  0  0
 58 72  1  0  0  0  0
 59 74  1  0  0  0  0
 60 70  1  0  0  0  0
 63 65  1  0  0  0  0
M  CHG  1  74   1
M  ISO  4  36 100  57 101  73 100  81 101
M  END
> <Batch ID>
0196

> <Smiles>
CNC(C)C(=O)NC(C(=O)N1Cc2cc([101O:1][101CH2:1]C(C)Nc3ccnc(CC[100NH:0][100C:0](=O)N4CCCC(n5nc(-c6ccc(Oc7ccc(F)cc7F)cc6)c(C(N)=O)c5N)C4)n3)ccc2CC1C(=O)NC1CCCc2ccccc21)C(C)(C)C

> <Shape>
0.186

> <Color>
0.062

> <Negative vol penalty>
0.000

$$$$

  -OEChem-04052305393D

 83 91  0     1  0  0  0  0  0999 V2000
  -27.3662  -19.0137   17.2795 C   0  0  0  0  0  0  0  0  0  0  0  0
  -26.4341  -20.0449   17.2237 C   0  0  0  0  0  0  0  0  0  0  0  0
  -24.1926  -16.8316   23.0993 C   0  0  0  0  0  0  0  0  0  0  0  0
  -25.0939  -18.1943   21.3195 C   0  0  0  0  0  0  0  0  0  0  0  0
  -28.3384  -19.0076   18.2788 C   0  0  0  0  0  0  0  0  0  0  0  0
  -26.4730  -21.0703   18.1679 C   0  0  0  0  0  0  0  0  0  0  0  0
  -25.1552  -28.0777   18.8574 C   0  0  0  0  0  0  0  0  0  0  0  0
  -24.5498  -15.6798   22.3984 C   0  0  0  0  0  0  0  0  0  0  0  0
  -25.4512  -17.0425   20.6185 C   0  0  0  0  0  0  0  0  0  0  0  0
  -24.4444  -28.9658   19.6636 C   0  0  0  0  0  0  0  0  0  0  0  0
  -23.3557  -13.8726   19.8037 C   0  0  0  0  0  0  0  0  0  0  0  0
  -22.4161  -12.8446   19.7259 C   0  0  0  0  0  0  0  0  0  0  0  0
  -26.2179  -28.8930   21.2971 C   0  0  0  0  0  0  0  0  0  0  0  0
  -23.9584  -11.3510   20.8339 C   0  0  0  0  0  0  0  0  0  0  0  0
  -17.8165  -27.8902   22.5331 C   0  0  0  0  0  0  0  0  0  0  0  0
  -24.4646  -18.0889   22.5598 C   0  0  0  0  0  0  0  0  0  0  0  0
  -24.8779  -19.9829   24.2180 C   0  0  0  0  0  0  0  0  0  0  0  0
  -28.3953  -20.0385   19.2300 C   0  0  0  0  0  0  0  0  0  0  0  0
  -26.3998  -27.5813   19.2708 C   0  0  0  0  0  0  0  0  0  0  0  0
  -27.4461  -21.0773   19.1817 C   0  0  0  0  0  0  0  0  0  0  0  0
  -26.9437  -28.0007   20.4932 C   0  0  0  0  0  0  0  0  0  0  0  0
  -25.1791  -15.7853   21.1580 C   0  0  0  0  0  0  0  0  0  0  0  0
  -24.9744  -29.3713   20.8850 C   0  0  0  0  0  0  0  0  0  0  0  0
  -24.5966  -13.6397   20.3966 C   0  0  0  0  0  0  0  0  0  0  0  0
  -22.7174  -11.5838   20.2409 C   0  0  0  0  0  0  0  0  0  0  0  0
  -24.8980  -12.3790   20.9117 C   0  0  0  0  0  0  0  0  0  0  0  0
  -24.0953  -19.2791   23.2831 C   0  0  0  0  0  0  0  0  0  0  0  0
  -18.7277  -27.0393   21.9414 C   0  0  0  0  0  0  0  0  0  0  0  0
  -18.3490  -29.0182   23.1232 C   0  0  0  0  0  0  0  0  0  0  0  0
  -24.0811  -21.0291   24.6144 C   0  0  0  0  0  0  0  0  0  0  0  0
  -20.4535  -28.3966   22.5302 C   0  0  0  0  0  0  0  0  0  0  0  0
  -26.2063  -19.7150   24.6862 C   0  0  0  0  0  0  0  0  0  0  0  0
  -27.5580  -24.6947   19.9265 C   0  0  0  0  0  0  0  0  0  0  0  0
  -30.3599  -26.3072   20.1939 C   0  0  0  0  0  0  0  0  0  0  0  0
  -31.9549  -29.2666   20.7812 C   0  0  0  0  0  0  0  0  0  0  0  0
  -19.6607  -23.8531   21.9050 C   0  0  0  0  0  0  0  0  0  0  0  0
  -29.4351  -19.9640   20.3199 C   0  0  0  0  0  0  0  0  0  0  0  0
  -27.1662  -26.6448   18.3774 C   0  0  0  0  0  0  0  0  0  0  0  0
  -28.2853  -27.5128   20.9734 C   0  0  0  0  0  0  0  0  0  0  0  0
  -29.6401  -21.2848   21.0574 C   0  0  0  0  0  0  0  0  0  0  0  0
  -19.4814  -22.2428   25.1411 C   0  0  0  0  0  0  0  0  0  0  0  0
  -28.2959  -21.9042   21.4267 C   0  0  0  0  0  0  0  0  0  0  0  0
  -20.7320  -21.3622   25.1123 C   0  0  0  0  0  0  0  0  0  0  0  0
  -18.8159  -22.3028   23.7693 C   0  0  0  0  0  0  0  0  0  0  0  0
  -20.9635  -21.8762   22.6380 C   0  0  0  0  0  0  0  0  0  0  0  0
  -27.4712  -22.2204   20.1731 C   0  0  1  0  0  0  0  0  0  0  0  0
  -28.1901  -25.8028   19.1324 C   0  0  1  0  0  0  0  0  0  0  0  0
  -21.6949  -21.7930   23.9901 C   0  0  2  0  0  0  0  0  0  0  0  0
  -34.2499  -30.2636   20.9713 C   0  0  0  0  0  0  0  0  0  0  0  0
  -24.6099  -30.6904   23.9884 C   0  0  0  0  0  0  0  0  0  0  0  0
  -30.6714  -25.0568   22.9596 C   0  0  0  0  0  0  0  0  0  0  0  0
  -32.4201  -26.7762   23.4635 C   0  0  0  0  0  0  0  0  0  0  0  0
  -32.7757  -25.1437   21.6111 C   0  0  0  0  0  0  0  0  0  0  0  0
  -31.4684  -31.1094   18.5170 C   0  0  0  0  0  0  0  0  0  0  0  0
  -18.2466  -25.7930   21.2774 C   0  0  0  0  0  0  0  0  0  0  0  0
  -22.4051  -29.8283   23.1361 C   0  0  0  0  0  0  0  0  0  0  0  0
  -31.0893  -27.0043   21.3168 C   0  0  1  0  0  0  0  0  0  0  0  0
  -33.0818  -29.9672   20.0438 C   0  0  2  0  0  0  0  0  0  0  0  0
  -23.9231  -29.7829   22.9782 C   0  0  1  0  0  0  0  0  0  1  0  0
  -31.7129  -26.0031   22.3299 C   0  0  0  0  0  0  0  0  0  0  0  0
  -22.8935  -19.8315   23.0968 N   0  0  0  0  0  0  0  0  0  0  0  0
  -20.0582  -27.2624   21.9213 N   0  0  0  0  0  0  0  0  0  0  0  0
  -19.6675  -29.3039   23.1407 N   0  0  0  0  0  0  0  0  0  0  0  0
  -22.9150  -20.8934   23.9202 N   0  0  0  0  0  0  0  0  0  0  0  0
  -28.9933  -26.5935   20.0672 N   0  0  0  0  0  0  0  0  0  0  0  0
  -19.7813  -22.7372   22.7497 N   0  0  0  0  0  0  0  0  0  0  0  0
  -17.4470  -29.9181   23.7421 N   0  0  0  0  0  0  0  0  0  0  0  0
  -24.2712  -22.0426   25.4857 N   0  0  0  0  0  0  0  0  0  0  0  0
  -26.8825  -18.5988   24.1750 N   0  0  0  0  0  0  0  0  0  0  0  0
  -21.8134  -28.6580   22.5284 N   0  0  0  0  0  0  0  0  0  0  0  0
  -27.9556  -23.4287   19.5409 N   0  0  0  0  0  0  0  0  0  0  0  0
  -32.0565  -27.8949   20.6846 N   0  0  0  0  0  0  0  0  0  0  0  0
  -18.5086  -24.6121   22.0697 N   0  0  0  0  0  0  0  0  0  0  0  0
  -32.6016  -31.2545   19.4666 N   0  3  0  0  0  0  0  0  0  0  0  0
  -26.7706  -20.4345   25.5450 O   0  0  0  0  0  0  0  0  0  0  0  0
  -26.7693  -24.9682   20.8236 O   0  0  0  0  0  0  0  0  0  0  0  0
  -30.9815  -25.5426   19.4518 O   0  0  0  0  0  0  0  0  0  0  0  0
  -31.0748  -29.8753   21.3857 O   0  0  0  0  0  0  0  0  0  0  0  0
  -20.5194  -24.1542   21.0688 O   0  0  0  0  0  0  0  0  0  0  0  0
  -25.5281  -14.6616   20.4739 O   0  0  0  0  0  0  0  0  0  0  0  0
  -24.2824  -30.2375   21.6741 O   0  0  0  0  0  0  0  0  0  1  0  0
  -21.8144  -10.5972   20.1675 F   0  0  0  0  0  0  0  0  0  0  0  0
  -26.0880  -12.1496   21.4835 F   0  0  0  0  0  0  0  0  0  0  0  0
  1  2  1  0  0  0  0
  1  5  2  0  0  0  0
  2  6  2  0  0  0  0
  3  8  2  0  0  0  0
  3 16  1  0  0  0  0
  4  9  1  0  0  0  0
  4 16  2  0  0  0  0
  5 18  1  0  0  0  0
  6 20  1  0  0  0  0
  7 10  2  0  0  0  0
  7 19  1  0  0  0  0
  8 22  1  0  0  0  0
  9 22  2  0  0  0  0
 10 23  1  0  0  0  0
 11 12  2  0  0  0  0
 11 24  1  0  0  0  0
 12 25  1  0  0  0  0
 13 21  1  0  0  0  0
 13 23  2  0  0  0  0
 14 25  2  0  0  0  0
 14 26  1  0  0  0  0
 15 28  2  0  0  0  0
 15 29  1  0  0  0  0
 16 27  1  0  0  0  0
 17 27  1  0  0  0  0
 17 30  2  0  0  0  0
 17 32  1  0  0  0  0
 18 20  2  0  0  0  0
 18 37  1  0  0  0  0
 19 21  2  0  0  0  0
 19 38  1  0  0  0  0
 20 46  1  0  0  0  0
 21 39  1  0  0  0  0
 22 80  1  0  0  0  0
 23 81  1  0  0  0  0
 24 26  2  0  0  0  0
 24 80  1  0  0  0  0
 25 82  1  0  0  0  0
 26 83  1  0  0  0  0
 27 61  2  0  0  0  0
 28 55  1  0  0  0  0
 28 62  1  0  0  0  0
 29 63  2  0  0  0  0
 29 67  1  0  0  0  0
 30 64  1  0  0  0  0
 30 68  1  0  0  0  0
 31 62  2  0  0  0  0
 31 63  1  0  0  0  0
 31 70  1  0  0  0  0
 32 69  1  0  0  0  0
 32 75  2  0  0  0  0
 33 47  1  0  0  0  0
 33 71  1  0  0  0  0
 33 76  2  0  0  0  0
 34 57  1  0  0  0  0
 34 65  1  0  0  0  0
 34 77  2  0  0  0  0
 35 58  1  0  0  0  0
 35 72  1  0  0  0  0
 35 78  2  0  0  0  0
 36 66  1  0  0  0  0
 36 73  1  0  0  0  0
 36 79  2  0  0  0  0
 37 40  1  0  0  0  0
 38 47  1  0  0  0  0
 39 65  1  0  0  0  0
 40 42  1  0  0  0  0
 41 43  1  0  0  0  0
 41 44  1  0  0  0  0
 42 46  1  0  0  0  0
 43 48  1  0  0  0  0
 44 66  1  0  0  0  0
 45 48  1  0  0  0  0
 45 66  1  0  0  0  0
 46 71  1  0  0  0  0
 47 65  1  0  0  0  0
 48 64  1  0  0  0  0
 49 58  1  0  0  0  0
 50 59  1  0  0  0  0
 51 60  1  0  0  0  0
 52 60  1  0  0  0  0
 53 60  1  0  0  0  0
 54 74  1  0  0  0  0
 55 73  1  0  0  0  0
 56 59  1  0  0  0  0
 56 70  1  0  0  0  0
 57 60  1  0  0  0  0
 57 72  1  0  0  0  0
 58 74  1  0  0  0  0
 59 81  1  0  0  0  0
 61 64  1  0  0  0  0
M  CHG  1  74   1
M  ISO  4  36 100  59 101  73 100  81 101
M  END
> <Batch ID>
0196

> <Smiles>
CNC(C)C(=O)NC(C(=O)N1Cc2cc([101O:1][101CH:1](C)CNc3nc(N)cc(C[100NH:0][100C:0](=O)N4CCCC(n5nc(-c6ccc(Oc7ccc(F)cc7F)cc6)c(C(N)=O)c5N)C4)n3)ccc2CC1C(=O)NC1CCCc2ccccc21)C(C)(C)C

> <Shape>
0.236

> <Color>
0.070

> <Negative vol penalty>
0.000

$$$$

  -OEChem-04052305393D

 87 95  0     1  0  0  0  0  0999 V2000
  -17.3078  -30.2142   23.0544 C   0  0  0  0  0  0  0  0  0  0  0  0
  -18.6436  -30.4642   22.7571 C   0  0  0  0  0  0  0  0  0  0  0  0
  -25.7989  -13.3017   22.1754 C   0  0  0  0  0  0  0  0  0  0  0  0
  -26.3653  -13.8219   19.8851 C   0  0  0  0  0  0  0  0  0  0  0  0
  -16.9259  -28.9669   23.5464 C   0  0  0  0  0  0  0  0  0  0  0  0
  -19.5986  -29.4671   22.9527 C   0  0  0  0  0  0  0  0  0  0  0  0
  -24.5899  -28.4331   19.5580 C   0  0  0  0  0  0  0  0  0  0  0  0
  -24.7082  -12.5518   21.7354 C   0  0  0  0  0  0  0  0  0  0  0  0
  -25.2746  -13.0719   19.4450 C   0  0  0  0  0  0  0  0  0  0  0  0
  -25.9280  -28.7869   19.7256 C   0  0  0  0  0  0  0  0  0  0  0  0
  -24.1606   -9.4812   20.4299 C   0  0  0  0  0  0  0  0  0  0  0  0
  -23.9547   -8.2318   21.0149 C   0  0  0  0  0  0  0  0  0  0  0  0
  -26.3698  -26.6276   20.7061 C   0  0  0  0  0  0  0  0  0  0  0  0
  -21.7803   -8.9506   21.7846 C   0  0  0  0  0  0  0  0  0  0  0  0
  -29.8353  -21.3182   17.7729 C   0  0  0  0  0  0  0  0  0  0  0  0
  -29.9117  -23.0010   19.1861 C   0  0  0  0  0  0  0  0  0  0  0  0
  -26.6274  -13.9369   21.2502 C   0  0  0  0  0  0  0  0  0  0  0  0
  -29.0669  -14.2550   21.9249 C   0  0  0  0  0  0  0  0  0  0  0  0
  -17.8752  -27.9508   23.7390 C   0  0  0  0  0  0  0  0  0  0  0  0
  -24.1286  -27.1759   19.9739 C   0  0  0  0  0  0  0  0  0  0  0  0
  -19.2293  -28.2054   23.4490 C   0  0  0  0  0  0  0  0  0  0  0  0
  -25.0260  -26.2593   20.5404 C   0  0  0  0  0  0  0  0  0  0  0  0
  -29.6019  -21.6647   19.1172 C   0  0  0  0  0  0  0  0  0  0  0  0
  -24.4461  -12.4369   20.3702 C   0  0  0  0  0  0  0  0  0  0  0  0
  -26.8176  -27.8851   20.3023 C   0  0  0  0  0  0  0  0  0  0  0  0
  -23.1764  -10.4653   20.5224 C   0  0  0  0  0  0  0  0  0  0  0  0
  -22.7645   -7.9664   21.6922 C   0  0  0  0  0  0  0  0  0  0  0  0
  -21.9862  -10.2000   21.1997 C   0  0  0  0  0  0  0  0  0  0  0  0
  -27.7539  -14.7121   21.7042 C   0  0  0  0  0  0  0  0  0  0  0  0
  -29.7519  -15.3684   22.3463 C   0  0  0  0  0  0  0  0  0  0  0  0
  -29.6182  -12.9413   21.7633 C   0  0  0  0  0  0  0  0  0  0  0  0
  -21.9951  -26.1601   22.0999 C   0  0  0  0  0  0  0  0  0  0  0  0
  -22.6660  -23.2614   20.8078 C   0  0  0  0  0  0  0  0  0  0  0  0
  -29.6675  -25.4736   16.7477 C   0  0  0  0  0  0  0  0  0  0  0  0
  -24.8713  -21.2868   19.1094 C   0  0  0  0  0  0  0  0  0  0  0  0
  -28.9310  -21.2271   21.5057 C   0  0  0  0  0  0  0  0  0  0  0  0
  -17.4218  -26.6339   24.3177 C   0  0  0  0  0  0  0  0  0  0  0  0
  -22.6879  -26.7995   19.7618 C   0  0  0  0  0  0  0  0  0  0  0  0
  -24.5852  -24.8895   20.9850 C   0  0  0  0  0  0  0  0  0  0  0  0
  -18.4391  -25.5093   24.1427 C   0  0  0  0  0  0  0  0  0  0  0  0
  -29.0965  -19.5268   24.6296 C   0  0  0  0  0  0  0  0  0  0  0  0
  -19.8356  -25.9880   24.5267 C   0  0  0  0  0  0  0  0  0  0  0  0
  -28.8966  -18.0569   24.2533 C   0  0  0  0  0  0  0  0  0  0  0  0
  -28.2442  -20.4544   23.7654 C   0  0  0  0  0  0  0  0  0  0  0  0
  -28.1993  -18.8000   21.9406 C   0  0  0  0  0  0  0  0  0  0  0  0
  -20.2909  -27.1413   23.6244 C   0  0  1  0  0  0  0  0  0  0  0  0
  -22.2181  -25.6853   20.6919 C   0  0  1  0  0  0  0  0  0  0  0  0
  -29.0861  -17.8316   22.7404 C   0  0  2  0  0  0  0  0  0  0  0  0
  -32.1307  -27.8162   15.7065 C   0  0  0  0  0  0  0  0  0  0  0  0
  -25.1552  -18.9521   18.2341 C   0  0  0  0  0  0  0  0  0  0  0  0
  -29.9980  -26.7917   20.8671 C   0  0  0  0  0  0  0  0  0  0  0  0
  -23.2439  -22.2738   23.6363 C   0  0  0  0  0  0  0  0  0  0  0  0
  -24.4078  -20.2969   22.6335 C   0  0  0  0  0  0  0  0  0  0  0  0
  -21.9771  -20.6599   22.2063 C   0  0  0  0  0  0  0  0  0  0  0  0
  -27.7195  -25.1309   15.2068 C   0  0  0  0  0  0  0  0  0  0  0  0
  -25.0875  -22.2366   16.3147 C   0  0  0  0  0  0  0  0  0  0  0  0
  -30.7384  -24.7322   17.4842 C   0  0  0  0  0  0  0  0  0  0  0  0
  -31.3927  -28.5322   16.8298 C   0  0  0  0  0  0  0  0  0  0  0  0
  -29.8501  -28.3146   18.8206 C   0  0  0  0  0  0  0  0  0  0  0  0
  -23.6705  -22.1708   21.0920 C   0  0  1  0  0  0  0  0  0  0  0  0
  -24.6865  -20.3640   17.9183 C   0  0  2  0  0  0  0  0  0  0  0  0
  -30.6356  -27.5619   17.7424 C   0  0  1  0  0  0  0  0  0  0  0  0
  -29.0968  -27.4167   19.8105 C   0  0  2  0  0  0  0  0  0  1  0  0
  -23.3330  -21.3768   22.3855 C   0  0  0  0  0  0  0  0  0  0  0  0
  -30.2604  -22.3511   17.0405 N   0  0  0  0  0  0  0  0  0  0  0  0
  -27.6108  -16.0145   21.9640 N   0  0  0  0  0  0  0  0  0  0  0  0
  -30.2965  -23.3598   17.9278 N   0  0  0  0  0  0  0  0  0  0  0  0
  -28.8428  -16.3851   22.3525 N   0  0  0  0  0  0  0  0  0  0  0  0
  -23.1653  -24.5708   20.7621 N   0  0  0  0  0  0  0  0  0  0  0  0
  -28.4795  -20.1866   22.3449 N   0  0  0  0  0  0  0  0  0  0  0  0
  -31.0371  -15.5672   22.7085 N   0  0  0  0  0  0  0  0  0  0  0  0
  -28.7750  -11.9125   21.3219 N   0  0  0  0  0  0  0  0  0  0  0  0
  -29.1510  -20.8462   20.1824 N   0  0  0  0  0  0  0  0  0  0  0  0
  -20.7201  -26.6370   22.3375 N   0  0  0  0  0  0  0  0  0  0  0  0
  -29.6894  -26.7983   16.9257 N   0  0  0  0  0  0  0  0  0  0  0  0
  -23.7345  -21.3507   19.8871 N   0  0  0  0  0  0  0  0  0  0  0  0
  -28.8513  -24.6976   16.0246 N   0  3  0  0  0  0  0  0  0  0  0  0
  -25.4619  -20.8661   16.7488 N   0  3  0  0  0  0  0  0  0  0  0  0
  -30.8190  -12.6838   22.0190 O   0  0  0  0  0  0  0  0  0  0  0  0
  -22.9114  -26.0969   22.9112 O   0  0  0  0  0  0  0  0  0  0  0  0
  -21.4834  -22.9618   20.6257 O   0  0  0  0  0  0  0  0  0  0  0  0
  -25.9205  -21.8877   19.3300 O   0  0  0  0  0  0  0  0  0  0  0  0
  -29.1355  -22.3652   21.9357 O   0  0  0  0  0  0  0  0  0  0  0  0
  -23.3820  -11.7050   19.9404 O   0  0  0  0  0  0  0  0  0  0  0  0
  -28.1241  -28.2281   20.4676 O   0  0  0  0  0  0  0  0  0  1  0  0
  -22.5662   -6.7661   22.2526 F   0  0  0  0  0  0  0  0  0  0  0  0
  -21.0366  -11.1411   21.2908 F   0  0  0  0  0  0  0  0  0  0  0  0
  1  2  1  0  0  0  0
  1  5  2  0  0  0  0
  2  6  2  0  0  0  0
  3  8  2  0  0  0  0
  3 17  1  0  0  0  0
  4  9  1  0  0  0  0
  4 17  2  0  0  0  0
  5 19  1  0  0  0  0
  6 21  1  0  0  0  0
  7 10  2  0  0  0  0
  7 20  1  0  0  0  0
  8 24  1  0  0  0  0
  9 24  2  0  0  0  0
 10 25  1  0  0  0  0
 11 12  2  0  0  0  0
 11 26  1  0  0  0  0
 12 27  1  0  0  0  0
 13 22  1  0  0  0  0
 13 25  2  0  0  0  0
 14 27  2  0  0  0  0
 14 28  1  0  0  0  0
 15 23  1  0  0  0  0
 15 65  2  0  0  0  0
 16 23  2  0  0  0  0
 16 67  1  0  0  0  0
 17 29  1  0  0  0  0
 18 29  1  0  0  0  0
 18 30  2  0  0  0  0
 18 31  1  0  0  0  0
 19 21  2  0  0  0  0
 19 37  1  0  0  0  0
 20 22  2  0  0  0  0
 20 38  1  0  0  0  0
 21 46  1  0  0  0  0
 22 39  1  0  0  0  0
 23 73  1  0  0  0  0
 24 84  1  0  0  0  0
 25 85  1  0  0  0  0
 26 28  2  0  0  0  0
 26 84  1  0  0  0  0
 27 86  1  0  0  0  0
 28 87  1  0  0  0  0
 29 66  2  0  0  0  0
 30 68  1  0  0  0  0
 30 71  1  0  0  0  0
 31 72  1  0  0  0  0
 31 79  2  0  0  0  0
 32 47  1  0  0  0  0
 32 74  1  0  0  0  0
 32 80  2  0  0  0  0
 33 60  1  0  0  0  0
 33 69  1  0  0  0  0
 33 81  2  0  0  0  0
 34 57  1  0  0  0  0
 34 75  1  0  0  0  0
 34 77  2  0  0  0  0
 35 61  1  0  0  0  0
 35 76  1  0  0  0  0
 35 82  2  0  0  0  0
 36 70  1  0  0  0  0
 36 73  1  0  0  0  0
 36 83  2  0  0  0  0
 37 40  1  0  0  0  0
 38 47  1  0  0  0  0
 39 69  1  0  0  0  0
 40 42  1  0  0  0  0
 41 43  1  0  0  0  0
 41 44  1  0  0  0  0
 42 46  1  0  0  0  0
 43 48  1  0  0  0  0
 44 70  1  0  0  0  0
 45 48  1  0  0  0  0
 45 70  1  0  0  0  0
 46 74  1  0  0  0  0
 47 69  1  0  0  0  0
 48 68  1  0  0  0  0
 49 58  1  0  0  0  0
 50 61  1  0  0  0  0
 51 63  1  0  0  0  0
 52 64  1  0  0  0  0
 53 64  1  0  0  0  0
 54 64  1  0  0  0  0
 55 77  1  0  0  0  0
 56 78  1  0  0  0  0
 57 67  1  0  0  0  0
 58 62  1  0  0  0  0
 59 62  1  0  0  0  0
 59 63  1  0  0  0  0
 60 64  1  0  0  0  0
 60 76  1  0  0  0  0
 61 78  1  0  0  0  0
 62 75  1  0  0  0  0
 63 85  1  0  0  0  0
 65 67  1  0  0  0  0
 66 68  1  0  0  0  0
M  CHG  2  77   1  78   1
M  ISO  4  36 100  63 101  73 100  85 101
M  END
> <Batch ID>
0196

> <Smiles>
CCC(C[101CH:1](C)[101O:1]c1ccc2c(c1)CN(C(=O)C(NC(=O)C(C)NC)C(C)(C)C)C(C(=O)NC1CCCc3ccccc31)C2)NC(Cn1cc([100NH:0][100C:0](=O)N2CCCC(n3nc(-c4ccc(Oc5ccc(F)cc5F)cc4)c(C(N)=O)c3N)C2)cn1)=NC

> <Shape>
0.253

> <Color>
0.053

> <Negative vol penalty>
0.000

$$$$

  -OEChem-04052305393D

 84 92  0     1  0  0  0  0  0999 V2000
  -18.4451  -33.3609   21.3588 C   0  0  0  0  0  0  0  0  0  0  0  0
  -19.7367  -33.1820   20.8738 C   0  0  0  0  0  0  0  0  0  0  0  0
  -24.0362  -12.6850   19.8905 C   0  0  0  0  0  0  0  0  0  0  0  0
  -26.0286  -13.5714   20.9306 C   0  0  0  0  0  0  0  0  0  0  0  0
  -18.0311  -32.6808   22.5034 C   0  0  0  0  0  0  0  0  0  0  0  0
  -20.6154  -32.3236   21.5338 C   0  0  0  0  0  0  0  0  0  0  0  0
  -24.9111  -28.7805   18.9844 C   0  0  0  0  0  0  0  0  0  0  0  0
  -24.5141  -11.3884   20.0799 C   0  0  0  0  0  0  0  0  0  0  0  0
  -26.5065  -12.2748   21.1201 C   0  0  0  0  0  0  0  0  0  0  0  0
  -26.2857  -28.9446   18.8193 C   0  0  0  0  0  0  0  0  0  0  0  0
  -25.0454   -7.8322   20.6150 C   0  0  0  0  0  0  0  0  0  0  0  0
  -24.1541   -6.8777   21.1048 C   0  0  0  0  0  0  0  0  0  0  0  0
  -26.6738  -27.6599   20.8238 C   0  0  0  0  0  0  0  0  0  0  0  0
  -23.8344   -8.2006   23.1010 C   0  0  0  0  0  0  0  0  0  0  0  0
  -28.2135  -21.8003   18.9509 C   0  0  0  0  0  0  0  0  0  0  0  0
  -29.2482  -23.1508   16.8935 C   0  0  0  0  0  0  0  0  0  0  0  0
  -24.7934  -13.7766   20.3157 C   0  0  0  0  0  0  0  0  0  0  0  0
  -23.5044  -15.8672   21.0053 C   0  0  0  0  0  0  0  0  0  0  0  0
  -18.9020  -31.8062   23.1721 C   0  0  0  0  0  0  0  0  0  0  0  0
  -24.4063  -28.0628   20.0784 C   0  0  0  0  0  0  0  0  0  0  0  0
  -20.2130  -31.6322   22.6891 C   0  0  0  0  0  0  0  0  0  0  0  0
  -25.2925  -27.4859   20.9991 C   0  0  0  0  0  0  0  0  0  0  0  0
  -25.7492  -11.1833   20.6948 C   0  0  0  0  0  0  0  0  0  0  0  0
  -27.1672  -28.3867   19.7406 C   0  0  0  0  0  0  0  0  0  0  0  0
  -25.3313   -8.9710   21.3681 C   0  0  0  0  0  0  0  0  0  0  0  0
  -23.5486   -7.0619   22.3478 C   0  0  0  0  0  0  0  0  0  0  0  0
  -24.7257   -9.1552   22.6111 C   0  0  0  0  0  0  0  0  0  0  0  0
  -24.3006  -15.1163   20.1198 C   0  0  0  0  0  0  0  0  0  0  0  0
  -27.8537  -21.5059   17.6542 C   0  0  0  0  0  0  0  0  0  0  0  0
  -29.6076  -23.4459   18.1901 C   0  0  0  0  0  0  0  0  0  0  0  0
  -23.3094  -17.0642   20.3606 C   0  0  0  0  0  0  0  0  0  0  0  0
  -22.9875  -15.5143   22.2952 C   0  0  0  0  0  0  0  0  0  0  0  0
  -22.5407  -28.7657   22.5541 C   0  0  0  0  0  0  0  0  0  0  0  0
  -22.7380  -25.5760   23.1099 C   0  0  0  0  0  0  0  0  0  0  0  0
  -24.4670  -22.6636   22.6908 C   0  0  0  0  0  0  0  0  0  0  0  0
  -26.4264  -20.0186   16.2060 C   0  0  0  0  0  0  0  0  0  0  0  0
  -18.4246  -31.1294   24.4325 C   0  0  0  0  0  0  0  0  0  0  0  0
  -22.9218  -27.8721   20.2276 C   0  0  0  0  0  0  0  0  0  0  0  0
  -24.8021  -26.6892   22.1795 C   0  0  0  0  0  0  0  0  0  0  0  0
  -19.2960  -29.9505   24.8584 C   0  0  0  0  0  0  0  0  0  0  0  0
  -23.0381  -18.9510   15.9674 C   0  0  0  0  0  0  0  0  0  0  0  0
  -20.7727  -30.3275   24.7939 C   0  0  0  0  0  0  0  0  0  0  0  0
  -22.9032  -17.9192   17.0896 C   0  0  0  0  0  0  0  0  0  0  0  0
  -24.4099  -18.8851   15.2983 C   0  0  0  0  0  0  0  0  0  0  0  0
  -25.4181  -17.9408   17.3381 C   0  0  0  0  0  0  0  0  0  0  0  0
  -21.1874  -30.6906   23.3630 C   0  0  1  0  0  0  0  0  0  0  0  0
  -22.5007  -27.5587   21.6601 C   0  0  1  0  0  0  0  0  0  0  0  0
  -24.0762  -18.0127   18.0850 C   0  0  2  0  0  0  0  0  0  0  0  0
  -24.3990  -20.2283   23.2925 C   0  0  0  0  0  0  0  0  0  0  0  0
  -32.0056  -23.8555   20.2096 C   0  0  0  0  0  0  0  0  0  0  0  0
  -23.6507  -26.2526   25.9417 C   0  0  0  0  0  0  0  0  0  0  0  0
  -24.4615  -23.8948   26.1690 C   0  0  0  0  0  0  0  0  0  0  0  0
  -22.0374  -24.3474   25.7928 C   0  0  0  0  0  0  0  0  0  0  0  0
  -24.3374  -21.8460   19.8494 C   0  0  0  0  0  0  0  0  0  0  0  0
  -31.5812  -26.2764   19.6571 C   0  0  0  0  0  0  0  0  0  0  0  0
  -29.3500  -27.5047   20.0775 C   0  0  0  0  0  0  0  0  0  1  0  0
  -23.6704  -24.6827   23.8920 C   0  0  1  0  0  0  0  0  0  0  0  0
  -24.0181  -21.2786   22.2608 C   0  0  2  0  0  0  0  0  0  0  0  0
  -30.9760  -24.8681   19.7167 C   0  0  1  0  0  0  0  0  0  0  0  0
  -30.6049  -27.3795   19.2168 C   0  0  1  0  0  0  0  0  0  0  0  0
  -23.4645  -24.8110   25.4278 C   0  0  0  0  0  0  0  0  0  0  0  0
  -28.3648  -22.1755   16.6022 N   0  0  0  0  0  0  0  0  0  0  0  0
  -29.0967  -22.7759   19.2421 N   0  0  0  0  0  0  0  0  0  0  0  0
  -24.5912  -15.7805   18.9980 N   0  0  0  0  0  0  0  0  0  0  0  0
  -23.9744  -16.9614   19.1743 N   0  0  0  0  0  0  0  0  0  0  0  0
  -23.3417  -26.5361   22.2855 N   0  0  0  0  0  0  0  0  0  0  0  0
  -25.4718  -18.9841   16.3020 N   0  0  0  0  0  0  0  0  0  0  0  0
  -22.6356  -18.1842   20.6985 N   0  0  0  0  0  0  0  0  0  0  0  0
  -23.2834  -14.2443   22.8089 N   0  0  0  0  0  0  0  0  0  0  0  0
  -26.9166  -20.4664   17.4323 N   0  0  0  0  0  0  0  0  0  0  0  0
  -30.5208  -24.4632   18.4035 N   0  0  0  0  0  0  0  0  0  0  0  0
  -21.3662  -29.4936   22.5695 N   0  0  0  0  0  0  0  0  0  0  0  0
  -23.4737  -23.3334   23.3734 N   0  0  0  0  0  0  0  0  0  0  0  0
  -24.6474  -20.9105   20.9610 N   0  3  0  0  0  0  0  0  0  0  0  0
  -22.2704  -16.2957   22.9650 O   0  0  0  0  0  0  0  0  0  0  0  0
  -23.5610  -29.0171   23.1844 O   0  0  0  0  0  0  0  0  0  0  0  0
  -21.5191  -25.4226   23.2206 O   0  0  0  0  0  0  0  0  0  0  0  0
  -25.5880  -23.1055   22.4489 O   0  0  0  0  0  0  0  0  0  0  0  0
  -26.7626  -20.4925   15.1177 O   0  0  0  0  0  0  0  0  0  0  0  0
  -31.2919  -28.6329   19.2703 O   0  0  0  0  0  0  0  0  0  0  0  0
  -26.2158   -9.9181   20.8801 O   0  0  0  0  0  0  0  0  0  0  0  0
  -28.5094  -28.5460   19.5821 O   0  0  0  0  0  0  0  0  0  1  0  0
  -22.6915   -6.1459   22.8174 F   0  0  0  0  0  0  0  0  0  0  0  0
  -24.9955  -10.2477   23.3387 F   0  0  0  0  0  0  0  0  0  0  0  0
  1  2  1  0  0  0  0
  1  5  2  0  0  0  0
  2  6  2  0  0  0  0
  3  8  2  0  0  0  0
  3 17  1  0  0  0  0
  4  9  1  0  0  0  0
  4 17  2  0  0  0  0
  5 19  1  0  0  0  0
  6 21  1  0  0  0  0
  7 10  2  0  0  0  0
  7 20  1  0  0  0  0
  8 23  1  0  0  0  0
  9 23  2  0  0  0  0
 10 24  1  0  0  0  0
 11 12  2  0  0  0  0
 11 25  1  0  0  0  0
 12 26  1  0  0  0  0
 13 22  1  0  0  0  0
 13 24  2  0  0  0  0
 14 26  2  0  0  0  0
 14 27  1  0  0  0  0
 15 29  2  0  0  0  0
 15 63  1  0  0  0  0
 16 30  1  0  0  0  0
 16 62  2  0  0  0  0
 17 28  1  0  0  0  0
 18 28  1  0  0  0  0
 18 31  2  0  0  0  0
 18 32  1  0  0  0  0
 19 21  2  0  0  0  0
 19 37  1  0  0  0  0
 20 22  2  0  0  0  0
 20 38  1  0  0  0  0
 21 46  1  0  0  0  0
 22 39  1  0  0  0  0
 23 81  1  0  0  0  0
 24 82  1  0  0  0  0
 25 27  2  0  0  0  0
 25 81  1  0  0  0  0
 26 83  1  0  0  0  0
 27 84  1  0  0  0  0
 28 64  2  0  0  0  0
 29 62  1  0  0  0  0
 29 70  1  0  0  0  0
 30 63  2  0  0  0  0
 30 71  1  0  0  0  0
 31 65  1  0  0  0  0
 31 68  1  0  0  0  0
 32 69  1  0  0  0  0
 32 75  2  0  0  0  0
 33 47  1  0  0  0  0
 33 72  1  0  0  0  0
 33 76  2  0  0  0  0
 34 57  1  0  0  0  0
 34 66  1  0  0  0  0
 34 77  2  0  0  0  0
 35 58  1  0  0  0  0
 35 73  1  0  0  0  0
 35 78  2  0  0  0  0
 36 67  1  0  0  0  0
 36 70  1  0  0  0  0
 36 79  2  0  0  0  0
 37 40  1  0  0  0  0
 38 47  1  0  0  0  0
 39 66  1  0  0  0  0
 40 42  1  0  0  0  0
 41 43  1  0  0  0  0
 41 44  1  0  0  0  0
 42 46  1  0  0  0  0
 43 48  1  0  0  0  0
 44 67  1  0  0  0  0
 45 48  1  0  0  0  0
 45 67  1  0  0  0  0
 46 72  1  0  0  0  0
 47 66  1  0  0  0  0
 48 65  1  0  0  0  0
 49 58  1  0  0  0  0
 50 59  1  0  0  0  0
 51 61  1  0  0  0  0
 52 61  1  0  0  0  0
 53 61  1  0  0  0  0
 54 74  1  0  0  0  0
 55 59  1  0  0  0  0
 55 60  1  0  0  0  0
 56 60  1  0  0  0  0
 56 82  1  0  0  0  0
 57 61  1  0  0  0  0
 57 73  1  0  0  0  0
 58 74  1  0  0  0  0
 59 71  1  0  0  0  0
 60 80  1  0  0  0  0
 64 65  1  0  0  0  0
M  CHG  1  74   1
M  ISO  4  36 100  56 101  70 100  82 101
M  END
> <Batch ID>
0196

> <Smiles>
CNC(C)C(=O)NC(C(=O)N1Cc2cc([101O:1][101CH2:1]C(O)CC(C)Nc3cnc([100NH:0][100C:0](=O)N4CCCC(n5nc(-c6ccc(Oc7ccc(F)cc7F)cc6)c(C(N)=O)c5N)C4)cn3)ccc2CC1C(=O)NC1CCCc2ccccc21)C(C)(C)C

> <Shape>
0.183

> <Color>
0.087

> <Negative vol penalty>
0.000

$$$$

  -OEChem-04052305393D

 83 91  0     1  0  0  0  0  0999 V2000
  -21.9874  -11.1137   20.3736 C   0  0  0  0  0  0  0  0  0  0  0  0
  -21.6855  -12.3989   20.8125 C   0  0  0  0  0  0  0  0  0  0  0  0
  -29.9073  -28.3874   21.3045 C   0  0  0  0  0  0  0  0  0  0  0  0
  -28.4892  -26.4316   21.3322 C   0  0  0  0  0  0  0  0  0  0  0  0
  -23.3177  -10.7251   20.2208 C   0  0  0  0  0  0  0  0  0  0  0  0
  -22.7138  -13.2959   21.0997 C   0  0  0  0  0  0  0  0  0  0  0  0
  -21.8542  -17.9102   19.1987 C   0  0  0  0  0  0  0  0  0  0  0  0
  -30.9229  -27.6598   21.9247 C   0  0  0  0  0  0  0  0  0  0  0  0
  -29.5049  -25.7039   21.9523 C   0  0  0  0  0  0  0  0  0  0  0  0
  -20.9591  -18.7265   19.8888 C   0  0  0  0  0  0  0  0  0  0  0  0
  -31.5940  -23.4286   23.8676 C   0  0  0  0  0  0  0  0  0  0  0  0
  -31.2441  -22.6171   24.9468 C   0  0  0  0  0  0  0  0  0  0  0  0
  -22.8123  -19.8930   20.9007 C   0  0  0  0  0  0  0  0  0  0  0  0
  -17.9304  -27.0855   22.7665 C   0  0  0  0  0  0  0  0  0  0  0  0
  -20.2783  -27.1036   22.2279 C   0  0  0  0  0  0  0  0  0  0  0  0
  -30.4372  -24.5552   26.1426 C   0  0  0  0  0  0  0  0  0  0  0  0
  -28.6903  -27.7733   21.0083 C   0  0  0  0  0  0  0  0  0  0  0  0
  -27.4182  -28.6660   18.9854 C   0  0  0  0  0  0  0  0  0  0  0  0
  -24.3626  -11.6209   20.4971 C   0  0  0  0  0  0  0  0  0  0  0  0
  -23.2373  -18.0723   19.3632 C   0  0  0  0  0  0  0  0  0  0  0  0
  -24.0593  -12.9184   20.9517 C   0  0  0  0  0  0  0  0  0  0  0  0
  -23.7229  -19.0792   20.2097 C   0  0  0  0  0  0  0  0  0  0  0  0
  -19.0790  -26.4110   22.3640 C   0  0  0  0  0  0  0  0  0  0  0  0
  -30.7218  -26.3180   22.2485 C   0  0  0  0  0  0  0  0  0  0  0  0
  -21.4380  -19.7162   20.7422 C   0  0  0  0  0  0  0  0  0  0  0  0
  -31.3655  -24.8034   23.9259 C   0  0  0  0  0  0  0  0  0  0  0  0
  -30.6656  -23.1803   26.0843 C   0  0  0  0  0  0  0  0  0  0  0  0
  -30.7871  -25.3667   25.0634 C   0  0  0  0  0  0  0  0  0  0  0  0
  -27.6406  -28.5246   20.3683 C   0  0  0  0  0  0  0  0  0  0  0  0
  -26.3074  -29.4691   18.8967 C   0  0  0  0  0  0  0  0  0  0  0  0
  -18.0105  -28.4465   23.0248 C   0  0  0  0  0  0  0  0  0  0  0  0
  -20.2990  -28.4642   22.4997 C   0  0  0  0  0  0  0  0  0  0  0  0
  -28.1501  -28.1203   17.8799 C   0  0  0  0  0  0  0  0  0  0  0  0
  -25.5970  -16.2404   20.4494 C   0  0  0  0  0  0  0  0  0  0  0  0
  -27.4507  -18.7040   19.4410 C   0  0  0  0  0  0  0  0  0  0  0  0
  -27.6998  -22.0235   18.6890 C   0  0  0  0  0  0  0  0  0  0  0  0
  -21.7336  -30.5330   22.5916 C   0  0  0  0  0  0  0  0  0  0  0  0
  -25.7857  -11.1400   20.3622 C   0  0  0  0  0  0  0  0  0  0  0  0
  -24.1900  -17.2012   18.5911 C   0  0  0  0  0  0  0  0  0  0  0  0
  -25.1987  -19.3073   20.4053 C   0  0  0  0  0  0  0  0  0  0  0  0
  -26.8103  -12.2711   20.3290 C   0  0  0  0  0  0  0  0  0  0  0  0
  -23.9953  -32.9366   21.2556 C   0  0  0  0  0  0  0  0  0  0  0  0
  -26.5250  -13.2824   21.4348 C   0  0  0  0  0  0  0  0  0  0  0  0
  -25.1638  -32.0903   20.7451 C   0  0  0  0  0  0  0  0  0  0  0  0
  -23.4062  -32.3702   22.5464 C   0  0  0  0  0  0  0  0  0  0  0  0
  -24.1940  -30.1070   21.9752 C   0  0  0  0  0  0  0  0  0  0  0  0
  -25.1464  -13.9280   21.2497 C   0  0  1  0  0  0  0  0  0  0  0  0
  -25.5732  -17.1168   19.2291 C   0  0  1  0  0  0  0  0  0  0  0  0
  -24.7785  -30.6015   20.6420 C   0  0  2  0  0  0  0  0  0  0  0  0
  -29.3519  -23.7524   17.9280 C   0  0  0  0  0  0  0  0  0  0  0  0
  -28.6658  -18.7710   22.2391 C   0  0  0  0  0  0  0  0  0  0  0  0
  -29.5682  -21.0472   21.7171 C   0  0  0  0  0  0  0  0  0  0  0  0
  -30.3104  -19.0764   20.3800 C   0  0  0  0  0  0  0  0  0  0  0  0
  -26.1494  -22.5919   16.2329 C   0  0  0  0  0  0  0  0  0  0  0  0
  -20.1939  -24.1957   22.0897 C   0  0  0  0  0  0  0  0  0  0  0  0
  -21.0004  -21.8390   21.7210 C   0  0  0  0  0  0  0  0  0  1  0  0
  -27.9691  -19.9771   20.0651 C   0  0  1  0  0  0  0  0  0  0  0  0
  -28.2997  -22.7435   17.4947 C   0  0  2  0  0  0  0  0  0  0  0  0
  -19.7892  -22.7651   21.7394 C   0  0  1  0  0  0  0  0  0  0  0  0
  -29.1005  -19.7126   21.0983 C   0  0  0  0  0  0  0  0  0  0  0  0
  -26.7433  -29.1849   21.1050 N   0  0  0  0  0  0  0  0  0  0  0  0
  -25.9463  -29.7492   20.1817 N   0  0  0  0  0  0  0  0  0  0  0  0
  -19.1783  -29.0890   22.8857 N   0  3  0  0  0  0  0  0  0  0  0  0
  -26.0901  -18.4258   19.6333 N   0  0  0  0  0  0  0  0  0  0  0  0
  -23.0611  -30.9576   22.3723 N   0  0  0  0  0  0  0  0  0  0  0  0
  -25.6142  -29.9559   17.8455 N   0  0  0  0  0  0  0  0  0  0  0  0
  -16.8877  -29.1789   23.4340 N   0  0  0  0  0  0  0  0  0  0  0  0
  -29.2659  -27.3160   18.1492 N   0  0  0  0  0  0  0  0  0  0  0  0
  -19.0293  -25.0523   22.1020 N   0  0  0  0  0  0  0  0  0  0  0  0
  -21.5177  -29.1743   22.3638 N   0  0  0  0  0  0  0  0  0  0  0  0
  -25.1965  -14.9388   20.2152 N   0  0  0  0  0  0  0  0  0  0  0  0
  -28.3608  -20.8440   18.9590 N   0  0  0  0  0  0  0  0  0  0  0  0
  -27.2381  -23.4668   16.7391 N   0  3  0  0  0  0  0  0  0  0  0  0
  -27.8340  -28.3527   16.6884 O   0  0  0  0  0  0  0  0  0  0  0  0
  -25.9539  -16.7100   21.5235 O   0  0  0  0  0  0  0  0  0  0  0  0
  -28.2230  -17.9866   18.8002 O   0  0  0  0  0  0  0  0  0  0  0  0
  -26.7431  -22.4653   19.3215 O   0  0  0  0  0  0  0  0  0  0  0  0
  -20.8471  -31.3222   22.9284 O   0  0  0  0  0  0  0  0  0  0  0  0
  -18.8850  -22.2786   22.7334 O   0  0  0  0  0  0  0  0  0  0  0  0
  -31.7127  -25.6077   22.8534 O   0  0  0  0  0  0  0  0  0  0  0  0
  -20.5665  -20.5139   21.4174 O   0  0  0  0  0  0  0  0  0  1  0  0
  -30.3283  -22.4007   27.1199 F   0  0  0  0  0  0  0  0  0  0  0  0
  -30.5641  -26.6866   25.1248 F   0  0  0  0  0  0  0  0  0  0  0  0
  1  2  1  0  0  0  0
  1  5  2  0  0  0  0
  2  6  2  0  0  0  0
  3  8  2  0  0  0  0
  3 17  1  0  0  0  0
  4  9  1  0  0  0  0
  4 17  2  0  0  0  0
  5 19  1  0  0  0  0
  6 21  1  0  0  0  0
  7 10  2  0  0  0  0
  7 20  1  0  0  0  0
  8 24  1  0  0  0  0
  9 24  2  0  0  0  0
 10 25  1  0  0  0  0
 11 12  2  0  0  0  0
 11 26  1  0  0  0  0
 12 27  1  0  0  0  0
 13 22  1  0  0  0  0
 13 25  2  0  0  0  0
 14 23  1  0  0  0  0
 14 31  2  0  0  0  0
 15 23  2  0  0  0  0
 15 32  1  0  0  0  0
 16 27  2  0  0  0  0
 16 28  1  0  0  0  0
 17 29  1  0  0  0  0
 18 29  1  0  0  0  0
 18 30  2  0  0  0  0
 18 33  1  0  0  0  0
 19 21  2  0  0  0  0
 19 38  1  0  0  0  0
 20 22  2  0  0  0  0
 20 39  1  0  0  0  0
 21 47  1  0  0  0  0
 22 40  1  0  0  0  0
 23 69  1  0  0  0  0
 24 80  1  0  0  0  0
 25 81  1  0  0  0  0
 26 28  2  0  0  0  0
 26 80  1  0  0  0  0
 27 82  1  0  0  0  0
 28 83  1  0  0  0  0
 29 61  2  0  0  0  0
 30 62  1  0  0  0  0
 30 66  1  0  0  0  0
 31 63  1  0  0  0  0
 31 67  1  0  0  0  0
 32 63  2  0  0  0  0
 32 70  1  0  0  0  0
 33 68  1  0  0  0  0
 33 74  2  0  0  0  0
 34 48  1  0  0  0  0
 34 71  1  0  0  0  0
 34 75  2  0  0  0  0
 35 57  1  0  0  0  0
 35 64  1  0  0  0  0
 35 76  2  0  0  0  0
 36 58  1  0  0  0  0
 36 72  1  0  0  0  0
 36 77  2  0  0  0  0
 37 65  1  0  0  0  0
 37 70  1  0  0  0  0
 37 78  2  0  0  0  0
 38 41  1  0  0  0  0
 39 48  1  0  0  0  0
 40 64  1  0  0  0  0
 41 43  1  0  0  0  0
 42 44  1  0  0  0  0
 42 45  1  0  0  0  0
 43 47  1  0  0  0  0
 44 49  1  0  0  0  0
 45 65  1  0  0  0  0
 46 49  1  0  0  0  0
 46 65  1  0  0  0  0
 47 71  1  0  0  0  0
 48 64  1  0  0  0  0
 49 62  1  0  0  0  0
 50 58  1  0  0  0  0
 51 60  1  0  0  0  0
 52 60  1  0  0  0  0
 53 60  1  0  0  0  0
 54 73  1  0  0  0  0
 55 59  1  0  0  0  0
 55 69  1  0  0  0  0
 56 59  1  0  0  0  0
 56 81  1  0  0  0  0
 57 60  1  0  0  0  0
 57 72  1  0  0  0  0
 58 73  1  0  0  0  0
 59 79  1  0  0  0  0
 61 62  1  0  0  0  0
M  CHG  2  63   1  73   1
M  ISO  4  37 100  56 101  70 100  81 101
M  END
> <Batch ID>
0196

> <Smiles>
CNC(C)C(=O)NC(C(=O)N1Cc2cc([101O:1][101CH2:1]C(O)CNc3cc(N)nc([100NH:0][100C:0](=O)N4CCCC(n5nc(-c6ccc(Oc7ccc(F)cc7F)cc6)c(C(N)=O)c5N)C4)c3)ccc2CC1C(=O)NC1CCCc2ccccc21)C(C)(C)C

> <Shape>
0.241

> <Color>
0.072

> <Negative vol penalty>
0.000

$$$$

  -OEChem-04052305393D

 85 93  0     1  0  0  0  0  0999 V2000
  -16.2129  -19.6498   30.2582 C   0  0  0  0  0  0  0  0  0  0  0  0
  -16.9002  -20.0244   29.1081 C   0  0  0  0  0  0  0  0  0  0  0  0
  -23.0698   -9.8510   19.9062 C   0  0  0  0  0  0  0  0  0  0  0  0
  -23.8417   -9.8102   22.1952 C   0  0  0  0  0  0  0  0  0  0  0  0
  -16.9167  -19.3630   31.4271 C   0  0  0  0  0  0  0  0  0  0  0  0
  -18.2916  -20.1134   29.1266 C   0  0  0  0  0  0  0  0  0  0  0  0
  -22.1264  -18.7930   24.5378 C   0  0  0  0  0  0  0  0  0  0  0  0
  -22.3489   -8.6777   20.1283 C   0  0  0  0  0  0  0  0  0  0  0  0
  -23.1208   -8.6369   22.4174 C   0  0  0  0  0  0  0  0  0  0  0  0
  -22.7761  -19.5929   23.5988 C   0  0  0  0  0  0  0  0  0  0  0  0
  -20.0160   -5.8906   20.1938 C   0  0  0  0  0  0  0  0  0  0  0  0
  -18.7088   -5.8313   19.7108 C   0  0  0  0  0  0  0  0  0  0  0  0
  -24.7442  -19.6211   24.9935 C   0  0  0  0  0  0  0  0  0  0  0  0
  -18.1146   -7.7268   21.0860 C   0  0  0  0  0  0  0  0  0  0  0  0
  -29.2087  -18.7187   21.0710 C   0  0  0  0  0  0  0  0  0  0  0  0
  -23.8163  -10.4172   20.9396 C   0  0  0  0  0  0  0  0  0  0  0  0
  -24.1103  -12.9507   20.8866 C   0  0  0  0  0  0  0  0  0  0  0  0
  -18.3181  -19.4392   31.4573 C   0  0  0  0  0  0  0  0  0  0  0  0
  -22.7780  -18.4095   25.7188 C   0  0  0  0  0  0  0  0  0  0  0  0
  -19.0147  -19.8287   30.2974 C   0  0  0  0  0  0  0  0  0  0  0  0
  -24.1014  -18.8142   25.9447 C   0  0  0  0  0  0  0  0  0  0  0  0
  -22.3744   -8.0707   21.3839 C   0  0  0  0  0  0  0  0  0  0  0  0
  -24.0842  -20.0095   23.8279 C   0  0  0  0  0  0  0  0  0  0  0  0
  -20.3725   -6.8679   21.1231 C   0  0  0  0  0  0  0  0  0  0  0  0
  -17.7581   -6.7494   20.1568 C   0  0  0  0  0  0  0  0  0  0  0  0
  -19.4218   -7.7860   21.5691 C   0  0  0  0  0  0  0  0  0  0  0  0
  -24.5616  -11.6289   20.7106 C   0  0  0  0  0  0  0  0  0  0  0  0
  -30.4379  -18.0914   21.0770 C   0  0  0  0  0  0  0  0  0  0  0  0
  -29.0695  -19.7506   20.1654 C   0  0  0  0  0  0  0  0  0  0  0  0
  -25.1863  -13.7301   20.5385 C   0  0  0  0  0  0  0  0  0  0  0  0
  -31.1996  -19.4577   19.4277 C   0  0  0  0  0  0  0  0  0  0  0  0
  -22.8327  -13.4310   21.3255 C   0  0  0  0  0  0  0  0  0  0  0  0
  -22.2685  -18.8902   28.8193 C   0  0  0  0  0  0  0  0  0  0  0  0
  -24.7520  -16.8295   29.1488 C   0  0  0  0  0  0  0  0  0  0  0  0
  -27.5496  -15.4234   27.7913 C   0  0  0  0  0  0  0  0  0  0  0  0
  -30.6510  -14.8465   20.7278 C   0  0  0  0  0  0  0  0  0  0  0  0
  -19.0322  -19.1657   32.7573 C   0  0  0  0  0  0  0  0  0  0  0  0
  -22.0725  -17.5244   26.7093 C   0  0  0  0  0  0  0  0  0  0  0  0
  -24.8522  -18.4131   27.1872 C   0  0  0  0  0  0  0  0  0  0  0  0
  -20.5295  -18.9204   32.5898 C   0  0  0  0  0  0  0  0  0  0  0  0
  -29.5453  -12.5065   18.2827 C   0  0  0  0  0  0  0  0  0  0  0  0
  -21.1437  -19.9735   31.6730 C   0  0  0  0  0  0  0  0  0  0  0  0
  -28.1159  -12.1742   18.7144 C   0  0  0  0  0  0  0  0  0  0  0  0
  -30.4646  -12.7119   19.4846 C   0  0  0  0  0  0  0  0  0  0  0  0
  -28.5570  -13.3694   20.8998 C   0  0  0  0  0  0  0  0  0  0  0  0
  -20.5255  -19.9125   30.2710 C   0  0  1  0  0  0  0  0  0  0  0  0
  -22.6545  -17.6196   28.1163 C   0  0  1  0  0  0  0  0  0  0  0  0
  -27.5800  -13.2084   19.7226 C   0  0  2  0  0  0  0  0  0  0  0  0
  -29.3912  -13.8011   28.3147 C   0  0  0  0  0  0  0  0  0  0  0  0
  -26.0963  -18.9274   30.9099 C   0  0  0  0  0  0  0  0  0  0  0  0
  -28.2536  -17.6916   30.6150 C   0  0  0  0  0  0  0  0  0  0  0  0
  -26.3218  -16.5761   31.7314 C   0  0  0  0  0  0  0  0  0  0  0  0
  -33.5250  -19.2074   18.5587 C   0  0  0  0  0  0  0  0  0  0  0  0
  -26.7683  -13.6389   25.5633 C   0  0  0  0  0  0  0  0  0  0  0  0
  -30.6834  -16.9636   22.0223 C   0  0  0  0  0  0  0  0  0  0  0  0
  -26.7323  -20.0668   20.9795 C   0  0  0  0  0  0  0  0  0  0  0  0
  -24.3441  -20.6285   21.5464 C   0  0  0  0  0  0  0  0  0  1  0  0
  -26.2527  -16.9689   29.2348 C   0  0  1  0  0  0  0  0  0  0  0  0
  -28.0101  -13.9796   27.7035 C   0  0  2  0  0  0  0  0  0  0  0  0
  -25.5386  -20.9647   20.6602 C   0  0  1  0  0  0  0  0  0  0  0  0
  -26.7166  -17.5503   30.6001 C   0  0  0  0  0  0  0  0  0  0  0  0
  -25.8258  -11.5682   20.2837 N   0  0  0  0  0  0  0  0  0  0  0  0
  -31.4595  -18.4364   20.2661 N   0  0  0  0  0  0  0  0  0  0  0  0
  -30.0479  -20.1482   19.3257 N   0  0  0  0  0  0  0  0  0  0  0  0
  -26.1780  -12.8616   20.1885 N   0  0  0  0  0  0  0  0  0  0  0  0
  -24.1172  -17.5522   28.1286 N   0  0  0  0  0  0  0  0  0  0  0  0
  -29.8997  -13.7056   20.4009 N   0  0  0  0  0  0  0  0  0  0  0  0
  -25.3715  -15.0668   20.5006 N   0  0  0  0  0  0  0  0  0  0  0  0
  -21.8397  -12.4942   21.6429 N   0  0  0  0  0  0  0  0  0  0  0  0
  -27.8505  -20.4060   20.1282 N   0  0  0  0  0  0  0  0  0  0  0  0
  -32.2463  -19.8461   18.5634 N   0  0  0  0  0  0  0  0  0  0  0  0
  -21.0812  -18.8064   29.5212 N   0  0  0  0  0  0  0  0  0  0  0  0
  -26.8032  -15.6533   28.9276 N   0  0  0  0  0  0  0  0  0  0  0  0
  -30.0392  -15.7408   21.5976 N   0  0  0  0  0  0  0  0  0  0  0  0
  -28.0652  -13.5390   26.2809 N   0  3  0  0  0  0  0  0  0  0  0  0
  -22.5738  -14.6549   21.4174 O   0  0  0  0  0  0  0  0  0  0  0  0
  -22.9950  -19.8733   28.7327 O   0  0  0  0  0  0  0  0  0  0  0  0
  -24.1653  -16.1005   29.9525 O   0  0  0  0  0  0  0  0  0  0  0  0
  -27.8277  -16.2643   26.9391 O   0  0  0  0  0  0  0  0  0  0  0  0
  -31.7811  -15.0555   20.2736 O   0  0  0  0  0  0  0  0  0  0  0  0
  -25.8969  -22.3252   20.9111 O   0  0  0  0  0  0  0  0  0  0  0  0
  -21.6709   -6.9260   21.6011 O   0  0  0  0  0  0  0  0  0  0  0  0
  -24.7205  -20.7908   22.9132 O   0  0  0  0  0  0  0  0  0  1  0  0
  -16.5033   -6.6933   19.6917 F   0  0  0  0  0  0  0  0  0  0  0  0
  -19.7587   -8.7279   22.4608 F   0  0  0  0  0  0  0  0  0  0  0  0
  1  2  1  0  0  0  0
  1  5  2  0  0  0  0
  2  6  2  0  0  0  0
  3  8  2  0  0  0  0
  3 16  1  0  0  0  0
  4  9  1  0  0  0  0
  4 16  2  0  0  0  0
  5 18  1  0  0  0  0
  6 20  1  0  0  0  0
  7 10  2  0  0  0  0
  7 19  1  0  0  0  0
  8 22  1  0  0  0  0
  9 22  2  0  0  0  0
 10 23  1  0  0  0  0
 11 12  2  0  0  0  0
 11 24  1  0  0  0  0
 12 25  1  0  0  0  0
 13 21  1  0  0  0  0
 13 23  2  0  0  0  0
 14 25  2  0  0  0  0
 14 26  1  0  0  0  0
 15 28  1  0  0  0  0
 15 29  2  0  0  0  0
 16 27  1  0  0  0  0
 17 27  1  0  0  0  0
 17 30  2  0  0  0  0
 17 32  1  0  0  0  0
 18 20  2  0  0  0  0
 18 37  1  0  0  0  0
 19 21  2  0  0  0  0
 19 38  1  0  0  0  0
 20 46  1  0  0  0  0
 21 39  1  0  0  0  0
 22 82  1  0  0  0  0
 23 83  1  0  0  0  0
 24 26  2  0  0  0  0
 24 82  1  0  0  0  0
 25 84  1  0  0  0  0
 26 85  1  0  0  0  0
 27 62  2  0  0  0  0
 28 55  1  0  0  0  0
 28 63  2  0  0  0  0
 29 64  1  0  0  0  0
 29 70  1  0  0  0  0
 30 65  1  0  0  0  0
 30 68  1  0  0  0  0
 31 63  1  0  0  0  0
 31 64  2  0  0  0  0
 31 71  1  0  0  0  0
 32 69  1  0  0  0  0
 32 76  2  0  0  0  0
 33 47  1  0  0  0  0
 33 72  1  0  0  0  0
 33 77  2  0  0  0  0
 34 58  1  0  0  0  0
 34 66  1  0  0  0  0
 34 78  2  0  0  0  0
 35 59  1  0  0  0  0
 35 73  1  0  0  0  0
 35 79  2  0  0  0  0
 36 67  1  0  0  0  0
 36 74  1  0  0  0  0
 36 80  2  0  0  0  0
 37 40  1  0  0  0  0
 38 47  1  0  0  0  0
 39 66  1  0  0  0  0
 40 42  1  0  0  0  0
 41 43  1  0  0  0  0
 41 44  1  0  0  0  0
 42 46  1  0  0  0  0
 43 48  1  0  0  0  0
 44 67  1  0  0  0  0
 45 48  1  0  0  0  0
 45 67  1  0  0  0  0
 46 72  1  0  0  0  0
 47 66  1  0  0  0  0
 48 65  1  0  0  0  0
 49 59  1  0  0  0  0
 50 61  1  0  0  0  0
 51 61  1  0  0  0  0
 52 61  1  0  0  0  0
 53 71  1  0  0  0  0
 54 75  1  0  0  0  0
 55 74  1  0  0  0  0
 56 60  1  0  0  0  0
 56 70  1  0  0  0  0
 57 60  1  0  0  0  0
 57 83  1  0  0  0  0
 58 61  1  0  0  0  0
 58 73  1  0  0  0  0
 59 75  1  0  0  0  0
 60 81  1  0  0  0  0
 62 65  1  0  0  0  0
M  CHG  1  75   1
M  ISO  4  36 100  57 101  74 100  83 101
M  END
> <Batch ID>
0196

> <Smiles>
CNc1nc(C[100NH:0][100C:0](=O)N2CCCC(n3nc(-c4ccc(Oc5ccc(F)cc5F)cc4)c(C(N)=O)c3N)C2)cc(NCC(O)[101CH2:1][101O:1]c2ccc3c(c2)CN(C(=O)C(NC(=O)C(C)NC)C(C)(C)C)C(C(=O)NC2CCCc4ccccc42)C3)n1

> <Shape>
0.173

> <Color>
0.186

> <Negative vol penalty>
0.000

$$$$

  -OEChem-04052305393D

 83 91  0     1  0  0  0  0  0999 V2000
  -23.9803  -22.9045   17.8448 C   0  0  0  0  0  0  0  0  0  0  0  0
  -24.7482  -21.7860   17.5413 C   0  0  0  0  0  0  0  0  0  0  0  0
  -22.1159  -28.1912   22.1653 C   0  0  0  0  0  0  0  0  0  0  0  0
  -22.1476  -26.0879   23.3536 C   0  0  0  0  0  0  0  0  0  0  0  0
  -23.3125  -22.9764   19.0654 C   0  0  0  0  0  0  0  0  0  0  0  0
  -24.8390  -20.7338   18.4532 C   0  0  0  0  0  0  0  0  0  0  0  0
  -28.1334  -15.6110   18.2755 C   0  0  0  0  0  0  0  0  0  0  0  0
  -20.7222  -28.2020   22.2215 C   0  0  0  0  0  0  0  0  0  0  0  0
  -20.7539  -26.0987   23.4099 C   0  0  0  0  0  0  0  0  0  0  0  0
  -29.3870  -15.1783   18.7055 C   0  0  0  0  0  0  0  0  0  0  0  0
  -18.3266  -28.9344   24.4926 C   0  0  0  0  0  0  0  0  0  0  0  0
  -17.7016  -30.1288   24.8508 C   0  0  0  0  0  0  0  0  0  0  0  0
  -28.3785  -14.2470   20.6891 C   0  0  0  0  0  0  0  0  0  0  0  0
  -16.5443  -30.1593   22.7302 C   0  0  0  0  0  0  0  0  0  0  0  0
  -22.8286  -27.1340   22.7312 C   0  0  0  0  0  0  0  0  0  0  0  0
  -25.1618  -27.6671   23.6143 C   0  0  0  0  0  0  0  0  0  0  0  0
  -23.4057  -21.9296   19.9974 C   0  0  0  0  0  0  0  0  0  0  0  0
  -26.9924  -15.3741   19.0557 C   0  0  0  0  0  0  0  0  0  0  0  0
  -24.1531  -20.7771   19.6805 C   0  0  0  0  0  0  0  0  0  0  0  0
  -27.1112  -14.6755   20.2656 C   0  0  0  0  0  0  0  0  0  0  0  0
  -20.0412  -27.1558   22.8439 C   0  0  0  0  0  0  0  0  0  0  0  0
  -29.5101  -14.4987   19.9138 C   0  0  0  0  0  0  0  0  0  0  0  0
  -18.0606  -28.3525   23.2531 C   0  0  0  0  0  0  0  0  0  0  0  0
  -16.8105  -30.7412   23.9696 C   0  0  0  0  0  0  0  0  0  0  0  0
  -17.1694  -28.9648   22.3720 C   0  0  0  0  0  0  0  0  0  0  0  0
  -24.2682  -27.1220   22.6729 C   0  0  0  0  0  0  0  0  0  0  0  0
  -26.4072  -27.3958   23.1027 C   0  0  0  0  0  0  0  0  0  0  0  0
  -29.8169  -19.3476   20.4354 C   0  0  0  0  0  0  0  0  0  0  0  0
  -28.5352  -21.0752   20.7640 C   0  0  0  0  0  0  0  0  0  0  0  0
  -24.8902  -28.3569   24.8415 C   0  0  0  0  0  0  0  0  0  0  0  0
  -24.8488  -17.2150   20.5115 C   0  0  0  0  0  0  0  0  0  0  0  0
  -23.3916  -14.3783   21.1050 C   0  0  0  0  0  0  0  0  0  0  0  0
  -23.6717  -10.9957   21.4605 C   0  0  0  0  0  0  0  0  0  0  0  0
  -28.4694  -23.1886   19.3944 C   0  0  0  0  0  0  0  0  0  0  0  0
  -22.6560  -22.0561   21.3001 C   0  0  0  0  0  0  0  0  0  0  0  0
  -25.6436  -15.8239   18.5650 C   0  0  0  0  0  0  0  0  0  0  0  0
  -25.9144  -14.3781   21.1304 C   0  0  0  0  0  0  0  0  0  0  0  0
  -23.1668  -21.1023   22.3751 C   0  0  0  0  0  0  0  0  0  0  0  0
  -28.6795  -26.7140   18.9426 C   0  0  0  0  0  0  0  0  0  0  0  0
  -23.2699  -19.6925   21.8127 C   0  0  0  0  0  0  0  0  0  0  0  0
  -27.6578  -27.2686   19.9379 C   0  0  0  0  0  0  0  0  0  0  0  0
  -28.2030  -25.4081   18.3091 C   0  0  0  0  0  0  0  0  0  0  0  0
  -26.7764  -24.9217   20.2578 C   0  0  0  0  0  0  0  0  0  0  0  0
  -24.2912  -19.6339   20.6696 C   0  0  1  0  0  0  0  0  0  0  0  0
  -24.6213  -15.9800   19.6866 C   0  0  1  0  0  0  0  0  0  0  0  0
  -27.2406  -26.2027   20.9701 C   0  0  2  0  0  0  0  0  0  0  0  0
  -22.3142   -8.9507   21.9821 C   0  0  0  0  0  0  0  0  0  0  0  0
  -33.7584  -17.2349   20.2346 C   0  0  0  0  0  0  0  0  0  0  0  0
  -31.3912  -13.4239   22.5504 C   0  0  0  0  0  0  0  0  0  0  0  0
  -23.3630  -15.1530   24.0562 C   0  0  0  0  0  0  0  0  0  0  0  0
  -22.8965  -12.7562   24.6091 C   0  0  0  0  0  0  0  0  0  0  0  0
  -21.2654  -14.0598   23.2442 C   0  0  0  0  0  0  0  0  0  0  0  0
  -24.2791   -9.7801   18.8314 C   0  0  0  0  0  0  0  0  0  0  0  0
  -30.8367  -18.3950   19.8846 C   0  0  0  0  0  0  0  0  0  0  0  0
  -32.5201  -15.3373   21.3580 C   0  0  0  0  0  0  0  0  0  0  0  0
  -23.4607  -13.3514   22.2094 C   0  0  1  0  0  0  0  0  0  0  0  0
  -22.8577   -9.8515   20.8840 C   0  0  2  0  0  0  0  0  0  0  0  0
  -32.4174  -16.5300   20.3966 C   0  0  1  0  0  0  0  0  0  0  0  0
  -31.2013  -14.5864   21.5836 C   0  0  1  0  0  0  0  0  0  1  0  0
  -22.7694  -13.8372   23.5146 C   0  0  0  0  0  0  0  0  0  0  0  0
  -24.8929  -26.5479   21.6413 N   0  0  0  0  0  0  0  0  0  0  0  0
  -29.5279  -20.5395   19.9612 N   0  0  0  0  0  0  0  0  0  0  0  0
  -28.0534  -20.3913   21.8017 N   0  0  0  0  0  0  0  0  0  0  0  0
  -26.1923  -26.7309   21.9314 N   0  0  0  0  0  0  0  0  0  0  0  0
  -24.6181  -14.8439   20.6105 N   0  0  0  0  0  0  0  0  0  0  0  0
  -27.8290  -24.4449   19.3470 N   0  0  0  0  0  0  0  0  0  0  0  0
  -27.6542  -27.6636   23.5449 N   0  0  0  0  0  0  0  0  0  0  0  0
  -23.5541  -28.5502   25.2178 N   0  0  0  0  0  0  0  0  0  0  0  0
  -28.0548  -22.3693   20.4439 N   0  0  0  0  0  0  0  0  0  0  0  0
  -24.2083  -18.3401   20.0284 N   0  0  0  0  0  0  0  0  0  0  0  0
  -22.9010  -12.1217   21.6589 N   0  0  0  0  0  0  0  0  0  0  0  0
  -23.6985   -9.0257   19.9718 N   0  3  0  0  0  0  0  0  0  0  0  0
  -31.4400  -17.5224   20.9249 N   0  3  0  0  0  0  0  0  0  0  0  0
  -25.8052  -28.8034   25.5743 O   0  0  0  0  0  0  0  0  0  0  0  0
  -25.5520  -17.1516   21.5131 O   0  0  0  0  0  0  0  0  0  0  0  0
  -22.2899  -14.7483   20.6914 O   0  0  0  0  0  0  0  0  0  0  0  0
  -24.8706  -10.8991   21.7133 O   0  0  0  0  0  0  0  0  0  0  0  0
  -29.3423  -22.8740   18.5813 O   0  0  0  0  0  0  0  0  0  0  0  0
  -18.6813  -27.1662   22.8993 O   0  0  0  0  0  0  0  0  0  0  0  0
  -30.7327  -14.0758   20.3362 O   0  0  0  0  0  0  0  0  0  1  0  0
  -16.2092  -31.8874   24.3144 F   0  0  0  0  0  0  0  0  0  0  0  0
  -16.9089  -28.4099   21.1804 F   0  0  0  0  0  0  0  0  0  0  0  0
  -28.8837  -18.9383   21.8161 S   0  0  0  0  0  0  0  0  0  0  0  0
  1  2  1  0  0  0  0
  1  5  2  0  0  0  0
  2  6  2  0  0  0  0
  3  8  2  0  0  0  0
  3 15  1  0  0  0  0
  4  9  1  0  0  0  0
  4 15  2  0  0  0  0
  5 17  1  0  0  0  0
  6 19  1  0  0  0  0
  7 10  2  0  0  0  0
  7 18  1  0  0  0  0
  8 21  1  0  0  0  0
  9 21  2  0  0  0  0
 10 22  1  0  0  0  0
 11 12  2  0  0  0  0
 11 23  1  0  0  0  0
 12 24  1  0  0  0  0
 13 20  1  0  0  0  0
 13 22  2  0  0  0  0
 14 24  2  0  0  0  0
 14 25  1  0  0  0  0
 15 26  1  0  0  0  0
 16 26  1  0  0  0  0
 16 27  2  0  0  0  0
 16 30  1  0  0  0  0
 17 19  2  0  0  0  0
 17 35  1  0  0  0  0
 18 20  2  0  0  0  0
 18 36  1  0  0  0  0
 19 44  1  0  0  0  0
 20 37  1  0  0  0  0
 21 79  1  0  0  0  0
 22 80  1  0  0  0  0
 23 25  2  0  0  0  0
 23 79  1  0  0  0  0
 24 81  1  0  0  0  0
 25 82  1  0  0  0  0
 26 61  2  0  0  0  0
 27 64  1  0  0  0  0
 27 67  1  0  0  0  0
 28 54  1  0  0  0  0
 28 62  2  0  0  0  0
 28 83  1  0  0  0  0
 29 62  1  0  0  0  0
 29 63  2  0  0  0  0
 29 69  1  0  0  0  0
 30 68  1  0  0  0  0
 30 74  2  0  0  0  0
 31 45  1  0  0  0  0
 31 70  1  0  0  0  0
 31 75  2  0  0  0  0
 32 56  1  0  0  0  0
 32 65  1  0  0  0  0
 32 76  2  0  0  0  0
 33 57  1  0  0  0  0
 33 71  1  0  0  0  0
 33 77  2  0  0  0  0
 34 66  1  0  0  0  0
 34 69  1  0  0  0  0
 34 78  2  0  0  0  0
 35 38  1  0  0  0  0
 36 45  1  0  0  0  0
 37 65  1  0  0  0  0
 38 40  1  0  0  0  0
 39 41  1  0  0  0  0
 39 42  1  0  0  0  0
 40 44  1  0  0  0  0
 41 46  1  0  0  0  0
 42 66  1  0  0  0  0
 43 46  1  0  0  0  0
 43 66  1  0  0  0  0
 44 70  1  0  0  0  0
 45 65  1  0  0  0  0
 46 64  1  0  0  0  0
 47 57  1  0  0  0  0
 48 58  1  0  0  0  0
 49 59  1  0  0  0  0
 50 60  1  0  0  0  0
 51 60  1  0  0  0  0
 52 60  1  0  0  0  0
 53 72  1  0  0  0  0
 54 73  1  0  0  0  0
 55 58  1  0  0  0  0
 55 59  1  0  0  0  0
 56 60  1  0  0  0  0
 56 71  1  0  0  0  0
 57 72  1  0  0  0  0
 58 73  1  0  0  0  0
 59 80  1  0  0  0  0
 61 64  1  0  0  0  0
 63 83  1  0  0  0  0
M  CHG  2  72   1  73   1
M  ISO  4  34 100  59 101  69 100  80 101
M  END
> <Batch ID>
0196

> <Smiles>
CNC(C)C(=O)NC(C(=O)N1Cc2cc([101O:1][101CH:1](C)CC(C)NCc3nc([100NH:0][100C:0](=O)N4CCCC(n5nc(-c6ccc(Oc7ccc(F)cc7F)cc6)c(C(N)=O)c5N)C4)ns3)ccc2CC1C(=O)NC1CCCc2ccccc21)C(C)(C)C

> <Shape>
0.233

> <Color>
0.076

> <Negative vol penalty>
0.000

$$$$

  -OEChem-04052305393D

 89 97  0     1  0  0  0  0  0999 V2000
  -30.1453  -11.5431   19.6585 C   0  0  0  0  0  0  0  0  0  0  0  0
  -29.9119  -12.7874   19.0817 C   0  0  0  0  0  0  0  0  0  0  0  0
  -19.6617  -29.1236   23.0354 C   0  0  0  0  0  0  0  0  0  0  0  0
  -19.6953  -26.7574   22.5483 C   0  0  0  0  0  0  0  0  0  0  0  0
  -29.1209  -10.8898   20.3423 C   0  0  0  0  0  0  0  0  0  0  0  0
  -28.6534  -13.3786   19.1875 C   0  0  0  0  0  0  0  0  0  0  0  0
  -28.9097  -18.2901   20.3943 C   0  0  0  0  0  0  0  0  0  0  0  0
  -18.2813  -29.1450   22.8362 C   0  0  0  0  0  0  0  0  0  0  0  0
  -18.3149  -26.7788   22.3492 C   0  0  0  0  0  0  0  0  0  0  0  0
  -29.2342  -19.1809   19.3721 C   0  0  0  0  0  0  0  0  0  0  0  0
  -14.7993  -29.8947   22.1035 C   0  0  0  0  0  0  0  0  0  0  0  0
  -14.2685  -30.9358   21.3419 C   0  0  0  0  0  0  0  0  0  0  0  0
  -30.3209  -23.6810   23.8077 C   0  0  0  0  0  0  0  0  0  0  0  0
  -29.1912  -24.3362   23.3303 C   0  0  0  0  0  0  0  0  0  0  0  0
  -26.9008  -19.7423   19.1286 C   0  0  0  0  0  0  0  0  0  0  0  0
  -15.6098  -30.2405   19.4566 C   0  0  0  0  0  0  0  0  0  0  0  0
  -20.3687  -27.9298   22.8914 C   0  0  0  0  0  0  0  0  0  0  0  0
  -22.4761  -27.6679   24.3049 C   0  0  0  0  0  0  0  0  0  0  0  0
  -27.8520  -11.4776   20.4648 C   0  0  0  0  0  0  0  0  0  0  0  0
  -27.5748  -18.1104   20.7847 C   0  0  0  0  0  0  0  0  0  0  0  0
  -27.6107  -12.7319   19.8725 C   0  0  0  0  0  0  0  0  0  0  0  0
  -26.5622  -18.8506   20.1579 C   0  0  0  0  0  0  0  0  0  0  0  0
  -17.6079  -27.9726   22.4931 C   0  0  0  0  0  0  0  0  0  0  0  0
  -28.2295  -19.9050   18.7371 C   0  0  0  0  0  0  0  0  0  0  0  0
  -15.7354  -29.0266   21.5417 C   0  0  0  0  0  0  0  0  0  0  0  0
  -14.6737  -31.1087   20.0185 C   0  0  0  0  0  0  0  0  0  0  0  0
  -31.5301  -23.8113   23.1337 C   0  0  0  0  0  0  0  0  0  0  0  0
  -16.1407  -29.1994   20.2182 C   0  0  0  0  0  0  0  0  0  0  0  0
  -21.7947  -27.9072   23.0965 C   0  0  0  0  0  0  0  0  0  0  0  0
  -31.5567  -24.6021   21.9963 C   0  0  0  0  0  0  0  0  0  0  0  0
  -29.3226  -25.1037   22.1842 C   0  0  0  0  0  0  0  0  0  0  0  0
  -23.8059  -27.7544   23.9723 C   0  0  0  0  0  0  0  0  0  0  0  0
  -21.9537  -27.3920   25.6113 C   0  0  0  0  0  0  0  0  0  0  0  0
  -25.5535  -15.6574   20.8013 C   0  0  0  0  0  0  0  0  0  0  0  0
  -23.6298  -17.7561   22.3559 C   0  0  0  0  0  0  0  0  0  0  0  0
  -22.8130  -21.0059   23.0032 C   0  0  0  0  0  0  0  0  0  0  0  0
  -28.0647  -26.5851   20.5813 C   0  0  0  0  0  0  0  0  0  0  0  0
  -26.7625  -10.7119   21.1728 C   0  0  0  0  0  0  0  0  0  0  0  0
  -27.2441  -17.1655   21.9073 C   0  0  0  0  0  0  0  0  0  0  0  0
  -25.1159  -18.7092   20.5535 C   0  0  0  0  0  0  0  0  0  0  0  0
  -25.5649  -11.5752   21.5611 C   0  0  0  0  0  0  0  0  0  0  0  0
  -26.0419  -29.3908   19.7362 C   0  0  0  0  0  0  0  0  0  0  0  0
  -25.1406  -12.4569   20.3909 C   0  0  0  0  0  0  0  0  0  0  0  0
  -24.8127  -29.2352   20.6345 C   0  0  0  0  0  0  0  0  0  0  0  0
  -26.5588  -28.0403   19.2434 C   0  0  0  0  0  0  0  0  0  0  0  0
  -25.5867  -26.8960   21.1965 C   0  0  0  0  0  0  0  0  0  0  0  0
  -26.2661  -13.4169   19.9870 C   0  0  1  0  0  0  0  0  0  0  0  0
  -25.7979  -16.6809   21.8738 C   0  0  1  0  0  0  0  0  0  0  0  0
  -25.0688  -28.2250   21.7701 C   0  0  2  0  0  0  0  0  0  0  0  0
  -21.1703  -22.4069   24.2822 C   0  0  0  0  0  0  0  0  0  0  0  0
  -32.6985  -23.6996   14.7570 C   0  0  0  0  0  0  0  0  0  0  0  0
  -30.5127  -22.5819   14.3289 C   0  0  0  0  0  0  0  0  0  0  0  0
  -21.4893  -17.1480   20.2681 C   0  0  0  0  0  0  0  0  0  0  0  0
  -20.2805  -19.2120   21.0077 C   0  0  0  0  0  0  0  0  0  0  0  0
  -20.6372  -17.3353   22.6119 C   0  0  0  0  0  0  0  0  0  0  0  0
  -24.9571  -22.2534   24.6173 C   0  0  0  0  0  0  0  0  0  0  0  0
  -32.8490  -24.7681   21.2372 C   0  0  0  0  0  0  0  0  0  0  0  0
  -32.9527  -23.8849   19.9868 C   0  0  0  0  0  0  0  0  0  0  0  0
  -31.9103  -24.1550   18.9061 C   0  0  0  0  0  0  0  0  0  0  0  0
  -29.8240  -21.4010   17.8016 C   0  0  0  0  0  0  0  0  0  1  0  0
  -22.6005  -18.7771   21.9347 C   0  0  1  0  0  0  0  0  0  0  0  0
  -22.5339  -21.7341   24.3056 C   0  0  2  0  0  0  0  0  0  0  0  0
  -31.6156  -22.8003   15.3707 C   0  0  0  0  0  0  0  0  0  0  0  0
  -31.0539  -23.3895   16.6881 C   0  0  1  0  0  0  0  0  0  0  0  0
  -29.7192  -22.7887   17.1709 C   0  0  2  0  0  0  0  0  0  0  0  0
  -21.2788  -18.1195   21.4466 C   0  0  0  0  0  0  0  0  0  0  0  0
  -22.6233  -28.1292   22.0726 N   0  0  0  0  0  0  0  0  0  0  0  0
  -30.4803  -25.2540   21.5024 N   0  0  0  0  0  0  0  0  0  0  0  0
  -23.8389  -28.0299   22.6369 N   0  0  0  0  0  0  0  0  0  0  0  0
  -24.8424  -17.7681   21.6522 N   0  0  0  0  0  0  0  0  0  0  0  0
  -26.7827  -27.1368   20.3741 N   0  0  0  0  0  0  0  0  0  0  0  0
  -24.9385  -27.6211   24.6947 N   0  0  0  0  0  0  0  0  0  0  0  0
  -20.5630  -27.3388   25.7773 N   0  0  0  0  0  0  0  0  0  0  0  0
  -28.1654  -25.7670   21.7061 N   0  0  0  0  0  0  0  0  0  0  0  0
  -26.3402  -14.5268   20.9127 N   0  0  0  0  0  0  0  0  0  0  0  0
  -22.4352  -19.6813   23.0676 N   0  0  0  0  0  0  0  0  0  0  0  0
  -23.5692  -22.7785   24.5472 N   0  3  0  0  0  0  0  0  0  0  0  0
  -32.0719  -23.2118   17.7746 N   0  3  0  0  0  0  0  0  0  0  0  0
  -22.6978  -27.2146   26.6055 O   0  0  0  0  0  0  0  0  0  0  0  0
  -24.7123  -15.8764   19.9375 O   0  0  0  0  0  0  0  0  0  0  0  0
  -23.3702  -16.9815   23.2800 O   0  0  0  0  0  0  0  0  0  0  0  0
  -23.3125  -21.5578   22.0252 O   0  0  0  0  0  0  0  0  0  0  0  0
  -29.0108  -26.8428   19.8327 O   0  0  0  0  0  0  0  0  0  0  0  0
  -29.1554  -23.6880   18.1347 O   0  0  0  0  0  0  0  0  0  0  0  0
  -16.2609  -27.9930   22.2989 O   0  0  0  0  0  0  0  0  0  0  0  0
  -28.5434  -20.7746   17.7386 O   0  0  0  0  0  0  0  0  0  1  0  0
  -14.1627  -32.1075   19.2868 F   0  0  0  0  0  0  0  0  0  0  0  0
  -32.6276  -23.1873   23.5786 F   0  0  0  0  0  0  0  0  0  0  0  0
  -17.0388  -28.3679   19.6727 F   0  0  0  0  0  0  0  0  0  0  0  0
  1  2  1  0  0  0  0
  1  5  2  0  0  0  0
  2  6  2  0  0  0  0
  3  8  2  0  0  0  0
  3 17  1  0  0  0  0
  4  9  1  0  0  0  0
  4 17  2  0  0  0  0
  5 19  1  0  0  0  0
  6 21  1  0  0  0  0
  7 10  2  0  0  0  0
  7 20  1  0  0  0  0
  8 23  1  0  0  0  0
  9 23  2  0  0  0  0
 10 24  1  0  0  0  0
 11 12  2  0  0  0  0
 11 25  1  0  0  0  0
 12 26  1  0  0  0  0
 13 14  2  0  0  0  0
 13 27  1  0  0  0  0
 14 31  1  0  0  0  0
 15 22  1  0  0  0  0
 15 24  2  0  0  0  0
 16 26  2  0  0  0  0
 16 28  1  0  0  0  0
 17 29  1  0  0  0  0
 18 29  1  0  0  0  0
 18 32  2  0  0  0  0
 18 33  1  0  0  0  0
 19 21  2  0  0  0  0
 19 38  1  0  0  0  0
 20 22  2  0  0  0  0
 20 39  1  0  0  0  0
 21 47  1  0  0  0  0
 22 40  1  0  0  0  0
 23 85  1  0  0  0  0
 24 86  1  0  0  0  0
 25 28  2  0  0  0  0
 25 85  1  0  0  0  0
 26 87  1  0  0  0  0
 27 30  2  0  0  0  0
 27 88  1  0  0  0  0
 28 89  1  0  0  0  0
 29 67  2  0  0  0  0
 30 57  1  0  0  0  0
 30 68  1  0  0  0  0
 31 68  2  0  0  0  0
 31 74  1  0  0  0  0
 32 69  1  0  0  0  0
 32 72  1  0  0  0  0
 33 73  1  0  0  0  0
 33 79  2  0  0  0  0
 34 48  1  0  0  0  0
 34 75  1  0  0  0  0
 34 80  2  0  0  0  0
 35 61  1  0  0  0  0
 35 70  1  0  0  0  0
 35 81  2  0  0  0  0
 36 62  1  0  0  0  0
 36 76  1  0  0  0  0
 36 82  2  0  0  0  0
 37 71  1  0  0  0  0
 37 74  1  0  0  0  0
 37 83  2  0  0  0  0
 38 41  1  0  0  0  0
 39 48  1  0  0  0  0
 40 70  1  0  0  0  0
 41 43  1  0  0  0  0
 42 44  1  0  0  0  0
 42 45  1  0  0  0  0
 43 47  1  0  0  0  0
 44 49  1  0  0  0  0
 45 71  1  0  0  0  0
 46 49  1  0  0  0  0
 46 71  1  0  0  0  0
 47 75  1  0  0  0  0
 48 70  1  0  0  0  0
 49 69  1  0  0  0  0
 50 62  1  0  0  0  0
 51 63  1  0  0  0  0
 52 63  1  0  0  0  0
 53 66  1  0  0  0  0
 54 66  1  0  0  0  0
 55 66  1  0  0  0  0
 56 77  1  0  0  0  0
 57 58  1  0  0  0  0
 58 59  1  0  0  0  0
 59 78  1  0  0  0  0
 60 65  1  0  0  0  0
 60 86  1  0  0  0  0
 61 66  1  0  0  0  0
 61 76  1  0  0  0  0
 62 77  1  0  0  0  0
 63 64  1  0  0  0  0
 64 65  1  0  0  0  0
 64 78  1  0  0  0  0
 65 84  1  0  0  0  0
 67 69  1  0  0  0  0
M  CHG  2  77   1  78   1
M  ISO  4  37 100  60 101  74 100  86 101
M  END
> <Batch ID>
0196

> <Smiles>
CNC(C)C(=O)NC(C(=O)N1Cc2cc([101O:1][101CH2:1]C(O)C(NCCCc3nc([100NH:0][100C:0](=O)N4CCCC(n5nc(-c6ccc(Oc7ccc(F)cc7F)cc6)c(C(N)=O)c5N)C4)ccc3F)C(C)C)ccc2CC1C(=O)NC1CCCc2ccccc21)C(C)(C)C

> <Shape>
0.210

> <Color>
0.072

> <Negative vol penalty>
0.000

$$$$

  -OEChem-04052305393D

 85 93  0     1  0  0  0  0  0999 V2000
  -18.4920  -24.4342   24.0009 C   0  0  0  0  0  0  0  0  0  0  0  0
  -19.8778  -24.3767   23.8930 C   0  0  0  0  0  0  0  0  0  0  0  0
  -25.8907  -13.3496   21.6910 C   0  0  0  0  0  0  0  0  0  0  0  0
  -25.1464  -14.2216   19.5644 C   0  0  0  0  0  0  0  0  0  0  0  0
  -17.8075  -25.5724   23.5767 C   0  0  0  0  0  0  0  0  0  0  0  0
  -20.5798  -25.4571   23.3597 C   0  0  0  0  0  0  0  0  0  0  0  0
  -24.7030  -26.6185   26.0608 C   0  0  0  0  0  0  0  0  0  0  0  0
  -25.5862  -12.0561   21.2672 C   0  0  0  0  0  0  0  0  0  0  0  0
  -24.8420  -12.9281   19.1405 C   0  0  0  0  0  0  0  0  0  0  0  0
  -25.8265  -25.8116   25.8864 C   0  0  0  0  0  0  0  0  0  0  0  0
  -22.8297  -10.1286   20.9342 C   0  0  0  0  0  0  0  0  0  0  0  0
  -22.1477   -9.2993   21.8245 C   0  0  0  0  0  0  0  0  0  0  0  0
  -26.7787  -27.4665   24.4121 C   0  0  0  0  0  0  0  0  0  0  0  0
  -23.9837   -7.7298   21.7692 C   0  0  0  0  0  0  0  0  0  0  0  0
  -24.5000  -25.9348   19.9293 C   0  0  0  0  0  0  0  0  0  0  0  0
  -25.6707  -14.4324   20.8396 C   0  0  0  0  0  0  0  0  0  0  0  0
  -27.2088  -16.4472   21.1265 C   0  0  0  0  0  0  0  0  0  0  0  0
  -18.5023  -26.6711   23.0470 C   0  0  0  0  0  0  0  0  0  0  0  0
  -24.6039  -27.8526   25.4024 C   0  0  0  0  0  0  0  0  0  0  0  0
  -19.9039  -26.6105   22.9268 C   0  0  0  0  0  0  0  0  0  0  0  0
  -25.6541  -28.2883   24.5818 C   0  0  0  0  0  0  0  0  0  0  0  0
  -25.6816  -25.4181   19.4451 C   0  0  0  0  0  0  0  0  0  0  0  0
  -25.9687  -24.1344   19.9928 C   0  0  0  0  0  0  0  0  0  0  0  0
  -25.0619  -11.8453   19.9919 C   0  0  0  0  0  0  0  0  0  0  0  0
  -26.8633  -26.2342   25.0597 C   0  0  0  0  0  0  0  0  0  0  0  0
  -24.0887   -9.7584   20.4612 C   0  0  0  0  0  0  0  0  0  0  0  0
  -22.7246   -8.1000   22.2421 C   0  0  0  0  0  0  0  0  0  0  0  0
  -24.6657   -8.5591   20.8788 C   0  0  0  0  0  0  0  0  0  0  0  0
  -25.9845  -15.7689   21.2771 C   0  0  0  0  0  0  0  0  0  0  0  0
  -26.9945  -17.6749   21.7040 C   0  0  0  0  0  0  0  0  0  0  0  0
  -24.9955  -23.7190   20.8751 C   0  0  0  0  0  0  0  0  0  0  0  0
  -28.4306  -16.0070   20.5189 C   0  0  0  0  0  0  0  0  0  0  0  0
  -22.6190  -29.0954   23.2531 C   0  0  0  0  0  0  0  0  0  0  0  0
  -24.3351  -31.7927   23.8021 C   0  0  0  0  0  0  0  0  0  0  0  0
  -29.1429  -24.3371   20.8032 C   0  0  0  0  0  0  0  0  0  0  0  0
  -27.2613  -33.2018   24.8504 C   0  0  0  0  0  0  0  0  0  0  0  0
  -23.8426  -22.1928   22.5146 C   0  0  0  0  0  0  0  0  0  0  0  0
  -17.7149  -27.8608   22.5580 C   0  0  0  0  0  0  0  0  0  0  0  0
  -23.3972  -28.7233   25.6220 C   0  0  0  0  0  0  0  0  0  0  0  0
  -25.6055  -29.6139   23.8684 C   0  0  0  0  0  0  0  0  0  0  0  0
  -18.5659  -29.1111   22.3511 C   0  0  0  0  0  0  0  0  0  0  0  0
  -23.1588  -19.3522   24.5493 C   0  0  0  0  0  0  0  0  0  0  0  0
  -19.8425  -28.7680   21.5900 C   0  0  0  0  0  0  0  0  0  0  0  0
  -23.9337  -18.2225   23.8670 C   0  0  0  0  0  0  0  0  0  0  0  0
  -22.5606  -20.3237   23.5334 C   0  0  0  0  0  0  0  0  0  0  0  0
  -24.2902  -19.7411   21.8786 C   0  0  0  0  0  0  0  0  0  0  0  0
  -20.7030  -27.7719   22.3766 C   0  0  1  0  0  0  0  0  0  0  0  0
  -23.1737  -29.7294   24.4973 C   0  0  1  0  0  0  0  0  0  0  0  0
  -24.9659  -18.7731   22.8635 C   0  0  2  0  0  0  0  0  0  0  0  0
  -26.5447  -26.1252   18.4683 C   0  0  0  0  0  0  0  0  0  0  0  0
  -28.3793  -35.4284   25.1496 C   0  0  0  0  0  0  0  0  0  0  0  0
  -24.7911  -31.9658   20.7901 C   0  0  0  0  0  0  0  0  0  0  0  0
  -26.6421  -33.5921   21.2340 C   0  0  0  0  0  0  0  0  0  0  0  0
  -24.3044  -34.1540   21.8989 C   0  0  0  0  0  0  0  0  0  0  0  0
  -27.5586  -32.7911   27.7662 C   0  0  0  0  0  0  0  0  0  0  0  0
  -27.1879  -23.3283   19.6498 C   0  0  0  0  0  0  0  0  0  0  0  0
  -29.3004  -24.2023   23.3359 C   0  0  0  0  0  0  0  0  0  0  0  0
  -28.6383  -25.5445   23.6350 C   0  0  0  0  0  0  0  0  0  1  0  0
  -25.5797  -32.4074   23.2086 C   0  0  1  0  0  0  0  0  0  0  0  0
  -30.0530  -24.1361   22.0041 C   0  0  2  0  0  0  0  0  0  0  0  0
  -27.5423  -34.3440   25.8100 C   0  0  2  0  0  0  0  0  0  0  0  0
  -25.3297  -33.0039   21.7947 C   0  0  0  0  0  0  0  0  0  0  0  0
  -25.0608  -16.5045   21.9014 N   0  0  0  0  0  0  0  0  0  0  0  0
  -25.7051  -17.6578   22.1483 N   0  0  0  0  0  0  0  0  0  0  0  0
  -24.4018  -30.4265   24.1101 N   0  0  0  0  0  0  0  0  0  0  0  0
  -23.5974  -20.8073   22.6190 N   0  0  0  0  0  0  0  0  0  0  0  0
  -27.7851  -18.7565   21.8700 N   0  0  0  0  0  0  0  0  0  0  0  0
  -28.4787  -14.7167   19.9738 N   0  0  0  0  0  0  0  0  0  0  0  0
  -24.8732  -22.5315   21.6384 N   0  0  0  0  0  0  0  0  0  0  0  0
  -21.4128  -28.4479   23.4413 N   0  0  0  0  0  0  0  0  0  0  0  0
  -28.1689  -23.3546   20.7095 N   0  0  0  0  0  0  0  0  0  0  0  0
  -26.0644  -33.3741   24.1878 N   0  0  0  0  0  0  0  0  0  0  0  0
  -31.1569  -25.1369   21.9951 N   0  3  0  0  0  0  0  0  0  0  0  0
  -28.2776  -33.8461   27.0068 N   0  3  0  0  0  0  0  0  0  0  0  0
  -29.4546  -16.7303   20.4757 O   0  0  0  0  0  0  0  0  0  0  0  0
  -23.2387  -29.1880   22.2000 O   0  0  0  0  0  0  0  0  0  0  0  0
  -23.3428  -32.5004   23.9922 O   0  0  0  0  0  0  0  0  0  0  0  0
  -29.2781  -25.2717   20.0164 O   0  0  0  0  0  0  0  0  0  0  0  0
  -28.0287  -32.2536   24.7006 O   0  0  0  0  0  0  0  0  0  0  0  0
  -23.2049  -23.0164   23.1757 O   0  0  0  0  0  0  0  0  0  0  0  0
  -24.7649  -10.5831   19.5779 O   0  0  0  0  0  0  0  0  0  0  0  0
  -27.9608  -25.4483   24.8872 O   0  0  0  0  0  0  0  0  0  1  0  0
  -22.0702   -7.3045   23.0983 F   0  0  0  0  0  0  0  0  0  0  0  0
  -25.8754   -8.1987   20.4288 F   0  0  0  0  0  0  0  0  0  0  0  0
  -23.7422  -24.8742   21.0397 S   0  0  0  0  0  0  0  0  0  0  0  0
  1  2  1  0  0  0  0
  1  5  2  0  0  0  0
  2  6  2  0  0  0  0
  3  8  2  0  0  0  0
  3 16  1  0  0  0  0
  4  9  1  0  0  0  0
  4 16  2  0  0  0  0
  5 18  1  0  0  0  0
  6 20  1  0  0  0  0
  7 10  2  0  0  0  0
  7 19  1  0  0  0  0
  8 24  1  0  0  0  0
  9 24  2  0  0  0  0
 10 25  1  0  0  0  0
 11 12  2  0  0  0  0
 11 26  1  0  0  0  0
 12 27  1  0  0  0  0
 13 21  1  0  0  0  0
 13 25  2  0  0  0  0
 14 27  2  0  0  0  0
 14 28  1  0  0  0  0
 15 22  2  0  0  0  0
 15 85  1  0  0  0  0
 16 29  1  0  0  0  0
 17 29  1  0  0  0  0
 17 30  2  0  0  0  0
 17 32  1  0  0  0  0
 18 20  2  0  0  0  0
 18 38  1  0  0  0  0
 19 21  2  0  0  0  0
 19 39  1  0  0  0  0
 20 47  1  0  0  0  0
 21 40  1  0  0  0  0
 22 23  1  0  0  0  0
 22 50  1  0  0  0  0
 23 31  2  0  0  0  0
 23 56  1  0  0  0  0
 24 81  1  0  0  0  0
 25 82  1  0  0  0  0
 26 28  2  0  0  0  0
 26 81  1  0  0  0  0
 27 83  1  0  0  0  0
 28 84  1  0  0  0  0
 29 63  2  0  0  0  0
 30 64  1  0  0  0  0
 30 67  1  0  0  0  0
 31 69  1  0  0  0  0
 31 85  1  0  0  0  0
 32 68  1  0  0  0  0
 32 75  2  0  0  0  0
 33 48  1  0  0  0  0
 33 70  1  0  0  0  0
 33 76  2  0  0  0  0
 34 59  1  0  0  0  0
 34 65  1  0  0  0  0
 34 77  2  0  0  0  0
 35 60  1  0  0  0  0
 35 71  1  0  0  0  0
 35 78  2  0  0  0  0
 36 61  1  0  0  0  0
 36 72  1  0  0  0  0
 36 79  2  0  0  0  0
 37 66  1  0  0  0  0
 37 69  1  0  0  0  0
 37 80  2  0  0  0  0
 38 41  1  0  0  0  0
 39 48  1  0  0  0  0
 40 65  1  0  0  0  0
 41 43  1  0  0  0  0
 42 44  1  0  0  0  0
 42 45  1  0  0  0  0
 43 47  1  0  0  0  0
 44 49  1  0  0  0  0
 45 66  1  0  0  0  0
 46 49  1  0  0  0  0
 46 66  1  0  0  0  0
 47 70  1  0  0  0  0
 48 65  1  0  0  0  0
 49 64  1  0  0  0  0
 51 61  1  0  0  0  0
 52 62  1  0  0  0  0
 53 62  1  0  0  0  0
 54 62  1  0  0  0  0
 55 74  1  0  0  0  0
 56 71  1  0  0  0  0
 57 58  1  0  0  0  0
 57 60  1  0  0  0  0
 58 82  1  0  0  0  0
 59 62  1  0  0  0  0
 59 72  1  0  0  0  0
 60 73  1  0  0  0  0
 61 74  1  0  0  0  0
 63 64  1  0  0  0  0
M  CHG  2  73   1  74   1
M  ISO  4  37 100  58 101  69 100  82 101
M  END
> <Batch ID>
0196

> <Smiles>
CNC(C)C(=O)NC(C(=O)N1Cc2cc([101O:1][101CH2:1]CC(N)C(=O)NCc3c(C)csc3[100NH:0][100C:0](=O)N3CCCC(n4nc(-c5ccc(Oc6ccc(F)cc6F)cc5)c(C(N)=O)c4N)C3)ccc2CC1C(=O)NC1CCCc2ccccc21)C(C)(C)C

> <Shape>
0.220

> <Color>
0.087

> <Negative vol penalty>
0.000

$$$$

  -OEChem-04052305393D

 83 91  0     1  0  0  0  0  0999 V2000
  -25.9489  -17.8648   35.8372 C   0  0  0  0  0  0  0  0  0  0  0  0
  -26.1481  -18.1216   34.4845 C   0  0  0  0  0  0  0  0  0  0  0  0
  -23.0001   -9.8919   19.9821 C   0  0  0  0  0  0  0  0  0  0  0  0
  -23.7259   -9.9454   22.2859 C   0  0  0  0  0  0  0  0  0  0  0  0
  -25.3394  -16.6765   36.2376 C   0  0  0  0  0  0  0  0  0  0  0  0
  -25.7389  -17.1896   33.5314 C   0  0  0  0  0  0  0  0  0  0  0  0
  -23.3334  -19.3340   29.6250 C   0  0  0  0  0  0  0  0  0  0  0  0
  -22.2343   -8.7573   20.2496 C   0  0  0  0  0  0  0  0  0  0  0  0
  -22.9599   -8.8107   22.5535 C   0  0  0  0  0  0  0  0  0  0  0  0
  -24.1196  -19.9637   28.6611 C   0  0  0  0  0  0  0  0  0  0  0  0
  -23.2059   -5.4715   22.0846 C   0  0  0  0  0  0  0  0  0  0  0  0
  -23.7941   -4.4553   22.8374 C   0  0  0  0  0  0  0  0  0  0  0  0
  -23.9213  -18.0240   27.2408 C   0  0  0  0  0  0  0  0  0  0  0  0
  -22.0705   -4.6988   24.5129 C   0  0  0  0  0  0  0  0  0  0  0  0
  -32.2733  -18.4195   21.8736 C   0  0  0  0  0  0  0  0  0  0  0  0
  -23.7460  -10.4859   21.0002 C   0  0  0  0  0  0  0  0  0  0  0  0
  -24.1300  -13.0016   20.8218 C   0  0  0  0  0  0  0  0  0  0  0  0
  -24.9138  -15.7338   35.2885 C   0  0  0  0  0  0  0  0  0  0  0  0
  -22.8434  -18.0381   29.4082 C   0  0  0  0  0  0  0  0  0  0  0  0
  -25.1244  -15.9869   33.9195 C   0  0  0  0  0  0  0  0  0  0  0  0
  -23.1270  -17.3810   28.2024 C   0  0  0  0  0  0  0  0  0  0  0  0
  -31.5396  -19.2883   22.6554 C   0  0  0  0  0  0  0  0  0  0  0  0
  -22.2141   -8.2167   21.5353 C   0  0  0  0  0  0  0  0  0  0  0  0
  -24.4161  -19.3076   27.4700 C   0  0  0  0  0  0  0  0  0  0  0  0
  -22.0500   -6.1014   22.5458 C   0  0  0  0  0  0  0  0  0  0  0  0
  -23.2264   -4.0689   24.0516 C   0  0  0  0  0  0  0  0  0  0  0  0
  -21.4823   -5.7151   23.7600 C   0  0  0  0  0  0  0  0  0  0  0  0
  -24.5378  -11.6577   20.7243 C   0  0  0  0  0  0  0  0  0  0  0  0
  -30.2806  -18.8512   23.0133 C   0  0  0  0  0  0  0  0  0  0  0  0
  -25.2393  -13.7244   20.4565 C   0  0  0  0  0  0  0  0  0  0  0  0
  -30.5801  -16.9029   21.8814 C   0  0  0  0  0  0  0  0  0  0  0  0
  -22.8618  -13.5477   21.2082 C   0  0  0  0  0  0  0  0  0  0  0  0
  -23.2206  -15.2279   30.8450 C   0  0  0  0  0  0  0  0  0  0  0  0
  -20.9495  -14.2814   28.7311 C   0  0  0  0  0  0  0  0  0  0  0  0
  -19.3822  -14.7883   25.7423 C   0  0  0  0  0  0  0  0  0  0  0  0
  -30.7183  -14.6885   20.6882 C   0  0  0  0  0  0  0  0  0  0  0  0
  -24.3025  -14.4424   35.7715 C   0  0  0  0  0  0  0  0  0  0  0  0
  -21.9745  -17.3830   30.4466 C   0  0  0  0  0  0  0  0  0  0  0  0
  -22.6084  -15.9970   27.9125 C   0  0  0  0  0  0  0  0  0  0  0  0
  -23.5592  -13.6750   34.6811 C   0  0  0  0  0  0  0  0  0  0  0  0
  -29.6007  -12.2329   18.3648 C   0  0  0  0  0  0  0  0  0  0  0  0
  -24.3980  -13.6084   33.4088 C   0  0  0  0  0  0  0  0  0  0  0  0
  -28.1503  -11.9749   18.7795 C   0  0  0  0  0  0  0  0  0  0  0  0
  -30.5014  -12.4779   19.5741 C   0  0  0  0  0  0  0  0  0  0  0  0
  -28.5860  -13.2670   20.9074 C   0  0  0  0  0  0  0  0  0  0  0  0
  -24.6719  -15.0117   32.8545 C   0  0  1  0  0  0  0  0  0  0  0  0
  -21.9564  -15.8615   30.3371 C   0  0  1  0  0  0  0  0  0  0  0  0
  -27.6281  -13.0791   19.7196 C   0  0  2  0  0  0  0  0  0  0  0  0
  -17.5913  -13.8287   24.2694 C   0  0  0  0  0  0  0  0  0  0  0  0
  -22.8460  -12.0456   27.8859 C   0  0  0  0  0  0  0  0  0  0  0  0
  -21.4518  -11.7350   25.8298 C   0  0  0  0  0  0  0  0  0  0  0  0
  -20.4487  -11.3613   28.0829 C   0  0  0  0  0  0  0  0  0  0  0  0
  -17.7728  -17.2678   25.8867 C   0  0  0  0  0  0  0  0  0  0  0  0
  -29.3848  -19.7141   23.8658 C   0  0  0  0  0  0  0  0  0  0  0  0
  -28.1379  -18.9856   24.3876 C   0  0  0  0  0  0  0  0  0  0  0  0
  -25.9840  -19.0803   25.6964 C   0  0  0  0  0  0  0  0  0  1  0  0
  -20.9608  -13.7198   27.3299 C   0  0  1  0  0  0  0  0  0  0  0  0
  -17.9109  -14.8279   25.3704 C   0  0  2  0  0  0  0  0  0  0  0  0
  -27.2274  -19.8531   25.2650 C   0  0  2  0  0  0  0  0  0  0  0  0
  -21.4384  -12.2407   27.2881 C   0  0  0  0  0  0  0  0  0  0  0  0
  -31.8229  -17.2145   21.4669 N   0  0  0  0  0  0  0  0  0  0  0  0
  -25.8070  -11.5315   20.3279 N   0  0  0  0  0  0  0  0  0  0  0  0
  -29.7670  -17.6600   22.6425 N   0  0  0  0  0  0  0  0  0  0  0  0
  -26.2063  -12.8053   20.1731 N   0  0  0  0  0  0  0  0  0  0  0  0
  -21.7683  -15.3960   28.9615 N   0  0  0  0  0  0  0  0  0  0  0  0
  -29.9460  -13.5393   20.4166 N   0  0  0  0  0  0  0  0  0  0  0  0
  -32.0572  -20.5279   23.0490 N   0  0  0  0  0  0  0  0  0  0  0  0
  -25.4720  -15.0501   20.3532 N   0  0  0  0  0  0  0  0  0  0  0  0
  -21.8306  -12.6633   21.5528 N   0  0  0  0  0  0  0  0  0  0  0  0
  -30.0737  -15.6441   21.4730 N   0  0  0  0  0  0  0  0  0  0  0  0
  -23.5049  -15.5195   32.1655 N   0  0  0  0  0  0  0  0  0  0  0  0
  -19.6199  -13.9301   26.7950 N   0  0  0  0  0  0  0  0  0  0  0  0
  -17.5335  -16.1887   24.8941 N   0  3  0  0  0  0  0  0  0  0  0  0
  -22.6445  -14.7829   21.2309 O   0  0  0  0  0  0  0  0  0  0  0  0
  -23.8879  -14.5252   30.0950 O   0  0  0  0  0  0  0  0  0  0  0  0
  -20.2349  -13.7551   29.5878 O   0  0  0  0  0  0  0  0  0  0  0  0
  -20.2357  -15.4494   25.1550 O   0  0  0  0  0  0  0  0  0  0  0  0
  -31.8568  -14.8276   20.2338 O   0  0  0  0  0  0  0  0  0  0  0  0
  -26.8188  -20.9974   24.5164 O   0  0  0  0  0  0  0  0  0  0  0  0
  -21.4667   -7.1096   21.7968 O   0  0  0  0  0  0  0  0  0  0  0  0
  -25.1838  -19.9197   26.5278 O   0  0  0  0  0  0  0  0  0  1  0  0
  -23.7906   -3.0920   24.7737 F   0  0  0  0  0  0  0  0  0  0  0  0
  -20.3712   -6.3158   24.2077 F   0  0  0  0  0  0  0  0  0  0  0  0
  1  2  1  0  0  0  0
  1  5  2  0  0  0  0
  2  6  2  0  0  0  0
  3  8  2  0  0  0  0
  3 16  1  0  0  0  0
  4  9  1  0  0  0  0
  4 16  2  0  0  0  0
  5 18  1  0  0  0  0
  6 20  1  0  0  0  0
  7 10  2  0  0  0  0
  7 19  1  0  0  0  0
  8 23  1  0  0  0  0
  9 23  2  0  0  0  0
 10 24  1  0  0  0  0
 11 12  2  0  0  0  0
 11 25  1  0  0  0  0
 12 26  1  0  0  0  0
 13 21  1  0  0  0  0
 13 24  2  0  0  0  0
 14 26  2  0  0  0  0
 14 27  1  0  0  0  0
 15 22  1  0  0  0  0
 15 61  2  0  0  0  0
 16 28  1  0  0  0  0
 17 28  1  0  0  0  0
 17 30  2  0  0  0  0
 17 32  1  0  0  0  0
 18 20  2  0  0  0  0
 18 37  1  0  0  0  0
 19 21  2  0  0  0  0
 19 38  1  0  0  0  0
 20 46  1  0  0  0  0
 21 39  1  0  0  0  0
 22 29  2  0  0  0  0
 22 67  1  0  0  0  0
 23 80  1  0  0  0  0
 24 81  1  0  0  0  0
 25 27  2  0  0  0  0
 25 80  1  0  0  0  0
 26 82  1  0  0  0  0
 27 83  1  0  0  0  0
 28 62  2  0  0  0  0
 29 54  1  0  0  0  0
 29 63  1  0  0  0  0
 30 64  1  0  0  0  0
 30 68  1  0  0  0  0
 31 61  1  0  0  0  0
 31 63  2  0  0  0  0
 31 70  1  0  0  0  0
 32 69  1  0  0  0  0
 32 74  2  0  0  0  0
 33 47  1  0  0  0  0
 33 71  1  0  0  0  0
 33 75  2  0  0  0  0
 34 57  1  0  0  0  0
 34 65  1  0  0  0  0
 34 76  2  0  0  0  0
 35 58  1  0  0  0  0
 35 72  1  0  0  0  0
 35 77  2  0  0  0  0
 36 66  1  0  0  0  0
 36 70  1  0  0  0  0
 36 78  2  0  0  0  0
 37 40  1  0  0  0  0
 38 47  1  0  0  0  0
 39 65  1  0  0  0  0
 40 42  1  0  0  0  0
 41 43  1  0  0  0  0
 41 44  1  0  0  0  0
 42 46  1  0  0  0  0
 43 48  1  0  0  0  0
 44 66  1  0  0  0  0
 45 48  1  0  0  0  0
 45 66  1  0  0  0  0
 46 71  1  0  0  0  0
 47 65  1  0  0  0  0
 48 64  1  0  0  0  0
 49 58  1  0  0  0  0
 50 60  1  0  0  0  0
 51 60  1  0  0  0  0
 52 60  1  0  0  0  0
 53 73  1  0  0  0  0
 54 55  1  0  0  0  0
 55 59  1  0  0  0  0
 56 59  1  0  0  0  0
 56 81  1  0  0  0  0
 57 60  1  0  0  0  0
 57 72  1  0  0  0  0
 58 73  1  0  0  0  0
 59 79  1  0  0  0  0
 62 64  1  0  0  0  0
M  CHG  1  73   1
M  ISO  4  36 100  56 101  70 100  81 101
M  END
> <Batch ID>
0196

> <Smiles>
CNC(C)C(=O)NC(C(=O)N1Cc2cc([101O:1][101CH2:1]C(O)CCc3nc([100NH:0][100C:0](=O)N4CCCC(n5nc(-c6ccc(Oc7ccc(F)cc7F)cc6)c(C(N)=O)c5N)C4)ncc3N)ccc2CC1C(=O)NC1CCCc2ccccc21)C(C)(C)C

> <Shape>
0.177

> <Color>
0.182

> <Negative vol penalty>
0.000

$$$$

  -OEChem-04052305393D

 83 91  0     1  0  0  0  0  0999 V2000
  -22.0497  -24.7657   11.5288 C   0  0  0  0  0  0  0  0  0  0  0  0
  -23.0473  -24.7999   12.4979 C   0  0  0  0  0  0  0  0  0  0  0  0
  -22.9048  -10.1206   20.2743 C   0  0  0  0  0  0  0  0  0  0  0  0
  -23.7426  -10.2634   22.5359 C   0  0  0  0  0  0  0  0  0  0  0  0
  -21.0445  -25.7318   11.5304 C   0  0  0  0  0  0  0  0  0  0  0  0
  -23.0409  -25.8010   13.4685 C   0  0  0  0  0  0  0  0  0  0  0  0
  -23.9573  -24.0081   18.1150 C   0  0  0  0  0  0  0  0  0  0  0  0
  -22.0843   -9.0554   20.6455 C   0  0  0  0  0  0  0  0  0  0  0  0
  -22.9221   -9.1982   22.9071 C   0  0  0  0  0  0  0  0  0  0  0  0
  -25.2825  -23.7164   18.4350 C   0  0  0  0  0  0  0  0  0  0  0  0
  -19.6655   -8.7126   23.6682 C   0  0  0  0  0  0  0  0  0  0  0  0
  -18.9490   -8.8328   24.8589 C   0  0  0  0  0  0  0  0  0  0  0  0
  -25.4537  -25.8148   19.6126 C   0  0  0  0  0  0  0  0  0  0  0  0
  -20.0639   -6.8733   25.7275 C   0  0  0  0  0  0  0  0  0  0  0  0
  -30.3807  -17.3595   18.4330 C   0  0  0  0  0  0  0  0  0  0  0  0
  -23.7340  -10.7245   21.2195 C   0  0  0  0  0  0  0  0  0  0  0  0
  -24.2632  -13.1952   20.8684 C   0  0  0  0  0  0  0  0  0  0  0  0
  -21.0203  -26.7397   12.5073 C   0  0  0  0  0  0  0  0  0  0  0  0
  -23.3726  -25.2123   18.5328 C   0  0  0  0  0  0  0  0  0  0  0  0
  -22.0351  -26.7824   13.4823 C   0  0  0  0  0  0  0  0  0  0  0  0
  -24.1201  -26.1182   19.2987 C   0  0  0  0  0  0  0  0  0  0  0  0
  -22.0929   -8.5943   21.9619 C   0  0  0  0  0  0  0  0  0  0  0  0
  -26.0319  -24.6211   19.1814 C   0  0  0  0  0  0  0  0  0  0  0  0
  -20.5811   -7.6727   23.5071 C   0  0  0  0  0  0  0  0  0  0  0  0
  -19.1483   -7.9132   25.8886 C   0  0  0  0  0  0  0  0  0  0  0  0
  -20.7803   -6.7531   24.5368 C   0  0  0  0  0  0  0  0  0  0  0  0
  -24.5823  -11.8245   20.8365 C   0  0  0  0  0  0  0  0  0  0  0  0
  -29.8349  -17.3334   19.6993 C   0  0  0  0  0  0  0  0  0  0  0  0
  -25.3960  -13.8222   20.4100 C   0  0  0  0  0  0  0  0  0  0  0  0
  -29.9189  -19.5072   19.4211 C   0  0  0  0  0  0  0  0  0  0  0  0
  -23.0512  -13.8438   21.2760 C   0  0  0  0  0  0  0  0  0  0  0  0
  -22.1289  -27.7346   17.0513 C   0  0  0  0  0  0  0  0  0  0  0  0
  -21.3373  -28.6267   20.0678 C   0  0  0  0  0  0  0  0  0  0  0  0
  -21.9640  -28.4000   23.4149 C   0  0  0  0  0  0  0  0  0  0  0  0
  -31.0582  -14.1397   20.8048 C   0  0  0  0  0  0  0  0  0  0  0  0
  -19.9401  -27.7900   12.4401 C   0  0  0  0  0  0  0  0  0  0  0  0
  -21.9338  -25.5000   18.2022 C   0  0  0  0  0  0  0  0  0  0  0  0
  -23.5329  -27.4158   19.7887 C   0  0  0  0  0  0  0  0  0  0  0  0
  -19.7943  -28.5971   13.7276 C   0  0  0  0  0  0  0  0  0  0  0  0
  -29.5482  -11.9674   18.2159 C   0  0  0  0  0  0  0  0  0  0  0  0
  -21.1615  -29.0442   14.2351 C   0  0  0  0  0  0  0  0  0  0  0  0
  -28.1152  -11.7978   18.7177 C   0  0  0  0  0  0  0  0  0  0  0  0
  -30.5256  -12.2093   19.3621 C   0  0  0  0  0  0  0  0  0  0  0  0
  -28.7194  -13.1810   20.7432 C   0  0  0  0  0  0  0  0  0  0  0  0
  -22.0484  -27.8380   14.5666 C   0  0  1  0  0  0  0  0  0  0  0  0
  -21.5975  -26.9875   18.2417 C   0  0  1  0  0  0  0  0  0  0  0  0
  -27.7024  -12.9819   19.6093 C   0  0  2  0  0  0  0  0  0  0  0  0
  -21.1743  -29.2743   25.6306 C   0  0  0  0  0  0  0  0  0  0  0  0
  -30.3237  -21.3339   21.9800 C   0  0  0  0  0  0  0  0  0  0  0  0
  -22.7330  -31.2830   19.5145 C   0  0  0  0  0  0  0  0  0  0  0  0
  -22.7514  -31.7076   21.9818 C   0  0  0  0  0  0  0  0  0  0  0  0
  -20.5811  -31.4777   20.7737 C   0  0  0  0  0  0  0  0  0  0  0  0
  -31.6793  -16.3771   21.6342 C   0  0  0  0  0  0  0  0  0  0  0  0
  -21.2564  -25.6876   24.3639 C   0  0  0  0  0  0  0  0  0  0  0  0
  -29.5164  -16.1190   20.4761 C   0  0  0  0  0  0  0  0  0  0  0  0
  -28.7906  -22.8486   20.6760 C   0  0  0  0  0  0  0  0  0  0  0  0
  -27.6728  -22.9631   19.6443 C   0  0  0  0  0  0  0  0  0  1  0  0
  -22.0094  -29.4272   21.1571 C   0  0  1  0  0  0  0  0  0  0  0  0
  -21.0430  -28.1651   24.5985 C   0  0  2  0  0  0  0  0  0  0  0  0
  -29.2511  -21.4045   20.8976 C   0  0  1  0  0  0  0  0  0  0  0  0
  -22.0307  -30.9504   20.8460 C   0  0  0  0  0  0  0  0  0  0  0  0
  -25.8208  -11.5935   20.3928 N   0  0  0  0  0  0  0  0  0  0  0  0
  -29.5697  -18.5640   20.2676 N   0  0  0  0  0  0  0  0  0  0  0  0
  -26.2898  -12.8276   20.1416 N   0  0  0  0  0  0  0  0  0  0  0  0
  -22.1241  -27.6545   19.4343 N   0  0  0  0  0  0  0  0  0  0  0  0
  -30.0869  -13.3118   20.2183 N   0  0  0  0  0  0  0  0  0  0  0  0
  -25.7047  -15.1217   20.2143 N   0  0  0  0  0  0  0  0  0  0  0  0
  -21.9852  -13.0496   21.7202 N   0  0  0  0  0  0  0  0  0  0  0  0
  -29.7908  -20.8623   19.6681 N   0  0  0  0  0  0  0  0  0  0  0  0
  -21.6649  -27.2630   15.8381 N   0  0  0  0  0  0  0  0  0  0  0  0
  -21.3267  -29.0804   22.3989 N   0  0  0  0  0  0  0  0  0  0  0  0
  -30.7024  -15.4766   21.0386 N   0  0  0  0  0  0  0  0  0  0  0  0
  -21.3676  -26.8687   25.2580 N   0  3  0  0  0  0  0  0  0  0  0  0
  -22.9117  -15.0896   21.2315 O   0  0  0  0  0  0  0  0  0  0  0  0
  -22.9015  -28.6705   17.2209 O   0  0  0  0  0  0  0  0  0  0  0  0
  -20.1555  -28.8509   19.7942 O   0  0  0  0  0  0  0  0  0  0  0  0
  -23.1331  -28.0214   23.3951 O   0  0  0  0  0  0  0  0  0  0  0  0
  -32.1827  -13.7108   21.0937 O   0  0  0  0  0  0  0  0  0  0  0  0
  -21.2921   -7.5551   22.3246 O   0  0  0  0  0  0  0  0  0  0  0  0
  -27.3258  -24.3391   19.4946 O   0  0  0  0  0  0  0  0  0  1  0  0
  -18.4613   -8.0297   27.0326 F   0  0  0  0  0  0  0  0  0  0  0  0
  -21.6595   -5.7526   24.3883 F   0  0  0  0  0  0  0  0  0  0  0  0
  -30.5724  -18.9855   17.9225 S   0  0  0  0  0  0  0  0  0  0  0  0
  1  2  1  0  0  0  0
  1  5  2  0  0  0  0
  2  6  2  0  0  0  0
  3  8  2  0  0  0  0
  3 16  1  0  0  0  0
  4  9  1  0  0  0  0
  4 16  2  0  0  0  0
  5 18  1  0  0  0  0
  6 20  1  0  0  0  0
  7 10  2  0  0  0  0
  7 19  1  0  0  0  0
  8 22  1  0  0  0  0
  9 22  2  0  0  0  0
 10 23  1  0  0  0  0
 11 12  2  0  0  0  0
 11 24  1  0  0  0  0
 12 25  1  0  0  0  0
 13 21  1  0  0  0  0
 13 23  2  0  0  0  0
 14 25  2  0  0  0  0
 14 26  1  0  0  0  0
 15 28  2  0  0  0  0
 15 83  1  0  0  0  0
 16 27  1  0  0  0  0
 17 27  1  0  0  0  0
 17 29  2  0  0  0  0
 17 31  1  0  0  0  0
 18 20  2  0  0  0  0
 18 36  1  0  0  0  0
 19 21  2  0  0  0  0
 19 37  1  0  0  0  0
 20 45  1  0  0  0  0
 21 38  1  0  0  0  0
 22 79  1  0  0  0  0
 23 80  1  0  0  0  0
 24 26  2  0  0  0  0
 24 79  1  0  0  0  0
 25 81  1  0  0  0  0
 26 82  1  0  0  0  0
 27 62  2  0  0  0  0
 28 55  1  0  0  0  0
 28 63  1  0  0  0  0
 29 64  1  0  0  0  0
 29 67  1  0  0  0  0
 30 63  2  0  0  0  0
 30 69  1  0  0  0  0
 30 83  1  0  0  0  0
 31 68  1  0  0  0  0
 31 74  2  0  0  0  0
 32 46  1  0  0  0  0
 32 70  1  0  0  0  0
 32 75  2  0  0  0  0
 33 58  1  0  0  0  0
 33 65  1  0  0  0  0
 33 76  2  0  0  0  0
 34 59  1  0  0  0  0
 34 71  1  0  0  0  0
 34 77  2  0  0  0  0
 35 66  1  0  0  0  0
 35 72  1  0  0  0  0
 35 78  2  0  0  0  0
 36 39  1  0  0  0  0
 37 46  1  0  0  0  0
 38 65  1  0  0  0  0
 39 41  1  0  0  0  0
 40 42  1  0  0  0  0
 40 43  1  0  0  0  0
 41 45  1  0  0  0  0
 42 47  1  0  0  0  0
 43 66  1  0  0  0  0
 44 47  1  0  0  0  0
 44 66  1  0  0  0  0
 45 70  1  0  0  0  0
 46 65  1  0  0  0  0
 47 64  1  0  0  0  0
 48 59  1  0  0  0  0
 49 60  1  0  0  0  0
 50 61  1  0  0  0  0
 51 61  1  0  0  0  0
 52 61  1  0  0  0  0
 53 72  1  0  0  0  0
 54 73  1  0  0  0  0
 55 72  1  0  0  0  0
 56 57  1  0  0  0  0
 56 60  1  0  0  0  0
 57 80  1  0  0  0  0
 58 61  1  0  0  0  0
 58 71  1  0  0  0  0
 59 73  1  0  0  0  0
 60 69  1  0  0  0  0
 62 64  1  0  0  0  0
M  CHG  1  73   1
M  ISO  4  35 100  57 101  72 100  80 101
M  END
> <Batch ID>
0196

> <Smiles>
CNC(C)C(=O)NC(C(=O)N1Cc2cc([101O:1][101CH2:1]CC(C)Nc3nc(C[100N:0](C)[100C:0](=O)N4CCCC(n5nc(-c6ccc(Oc7ccc(F)cc7F)cc6)c(C(N)=O)c5N)C4)cs3)ccc2CC1C(=O)NC1CCCc2ccccc21)C(C)(C)C

> <Shape>
0.262

> <Color>
0.186

> <Negative vol penalty>
0.000

$$$$

  -OEChem-04052305393D

 81 89  0     1  0  0  0  0  0999 V2000
  -21.5287  -13.0641   19.5269 C   0  0  0  0  0  0  0  0  0  0  0  0
  -21.6017  -14.4169   19.8431 C   0  0  0  0  0  0  0  0  0  0  0  0
  -29.8227  -26.8035   22.3411 C   0  0  0  0  0  0  0  0  0  0  0  0
  -28.1723  -25.0897   22.7605 C   0  0  0  0  0  0  0  0  0  0  0  0
  -22.6180  -12.2309   19.7781 C   0  0  0  0  0  0  0  0  0  0  0  0
  -22.7639  -14.9371   20.4117 C   0  0  0  0  0  0  0  0  0  0  0  0
  -24.1721  -19.3153   18.2919 C   0  0  0  0  0  0  0  0  0  0  0  0
  -30.6844  -26.1975   23.2553 C   0  0  0  0  0  0  0  0  0  0  0  0
  -29.0340  -24.4836   23.6748 C   0  0  0  0  0  0  0  0  0  0  0  0
  -23.4788  -20.4616   18.6779 C   0  0  0  0  0  0  0  0  0  0  0  0
  -31.0447  -26.0426   26.6125 C   0  0  0  0  0  0  0  0  0  0  0  0
  -31.7003  -26.8658   27.5279 C   0  0  0  0  0  0  0  0  0  0  0  0
  -18.7571  -26.3712   23.0261 C   0  0  0  0  0  0  0  0  0  0  0  0
  -25.2771  -21.0364   20.1796 C   0  0  0  0  0  0  0  0  0  0  0  0
  -33.8326  -26.1282   26.6642 C   0  0  0  0  0  0  0  0  0  0  0  0
  -18.6684  -24.9954   23.0862 C   0  0  0  0  0  0  0  0  0  0  0  0
  -28.5666  -26.2496   22.0937 C   0  0  0  0  0  0  0  0  0  0  0  0
  -27.5873  -26.6223   19.7678 C   0  0  0  0  0  0  0  0  0  0  0  0
  -23.7975  -12.7430   20.3411 C   0  0  0  0  0  0  0  0  0  0  0  0
  -25.4203  -19.0147   18.8559 C   0  0  0  0  0  0  0  0  0  0  0  0
  -23.8695  -14.1097   20.6718 C   0  0  0  0  0  0  0  0  0  0  0  0
  -25.9854  -19.8869   19.7972 C   0  0  0  0  0  0  0  0  0  0  0  0
  -30.2900  -25.0375   23.9222 C   0  0  0  0  0  0  0  0  0  0  0  0
  -24.0299  -21.3209   19.6240 C   0  0  0  0  0  0  0  0  0  0  0  0
  -31.7830  -25.2620   25.7229 C   0  0  0  0  0  0  0  0  0  0  0  0
  -33.0942  -26.9087   27.5537 C   0  0  0  0  0  0  0  0  0  0  0  0
  -33.1770  -25.3049   25.7488 C   0  0  0  0  0  0  0  0  0  0  0  0
  -27.6759  -26.8755   21.1498 C   0  0  0  0  0  0  0  0  0  0  0  0
  -19.9453  -26.8720   22.5345 C   0  0  0  0  0  0  0  0  0  0  0  0
  -26.5976  -27.4664   19.3269 C   0  0  0  0  0  0  0  0  0  0  0  0
  -20.7654  -24.7728   22.2375 C   0  0  0  0  0  0  0  0  0  0  0  0
  -28.3330  -25.7060   18.9554 C   0  0  0  0  0  0  0  0  0  0  0  0
  -26.5728  -16.6278   20.6104 C   0  0  0  0  0  0  0  0  0  0  0  0
  -29.3873  -18.1788   20.1682 C   0  0  0  0  0  0  0  0  0  0  0  0
  -31.0073  -21.1044   19.4875 C   0  0  0  0  0  0  0  0  0  0  0  0
  -21.9166  -30.0303   22.0409 C   0  0  0  0  0  0  0  0  0  0  0  0
  -24.9318  -11.7942   20.6378 C   0  0  0  0  0  0  0  0  0  0  0  0
  -26.1676  -17.7881   18.4092 C   0  0  0  0  0  0  0  0  0  0  0  0
  -27.3316  -19.6201   20.4176 C   0  0  0  0  0  0  0  0  0  0  0  0
  -26.2619  -12.4971   20.8966 C   0  0  0  0  0  0  0  0  0  0  0  0
  -24.5558  -31.6797   20.3116 C   0  0  0  0  0  0  0  0  0  0  0  0
  -26.0700  -13.6659   21.8578 C   0  0  0  0  0  0  0  0  0  0  0  0
  -25.6467  -30.6127   20.2056 C   0  0  0  0  0  0  0  0  0  0  0  0
  -23.8014  -31.5860   21.6360 C   0  0  0  0  0  0  0  0  0  0  0  0
  -24.3337  -29.1876   21.8317 C   0  0  0  0  0  0  0  0  0  0  0  0
  -25.1218  -14.7162   21.2668 C   0  0  1  0  0  0  0  0  0  0  0  0
  -27.1985  -17.3123   19.4281 C   0  0  1  0  0  0  0  0  0  0  0  0
  -25.0851  -29.2065   20.4895 C   0  0  2  0  0  0  0  0  0  0  0  0
  -33.3105  -22.0670   19.2301 C   0  0  0  0  0  0  0  0  0  0  0  0
  -29.7349  -18.1516   23.1994 C   0  0  0  0  0  0  0  0  0  0  0  0
  -31.5006  -19.9079   22.9428 C   0  0  0  0  0  0  0  0  0  0  0  0
  -31.8185  -17.6614   21.9060 C   0  0  0  0  0  0  0  0  0  0  0  0
  -30.4957  -21.8781   16.6771 C   0  0  0  0  0  0  0  0  0  0  0  0
  -20.1343  -28.3482   22.4323 C   0  0  0  0  0  0  0  0  0  0  0  0
  -23.0579  -24.4376   21.3114 C   0  0  0  0  0  0  0  0  0  0  0  0
  -23.9787  -23.2761   20.9769 C   0  0  0  0  0  0  0  0  0  1  0  0
  -30.1379  -19.2625   20.9038 C   0  0  1  0  0  0  0  0  0  0  0  0
  -32.1264  -21.4337   18.5161 C   0  0  2  0  0  0  0  0  0  0  0  0
  -30.7717  -18.7502   22.2279 C   0  0  0  0  0  0  0  0  0  0  0  0
  -19.6569  -24.1629   22.6988 N   0  0  0  0  0  0  0  0  0  0  0  0
  -26.8115  -27.8076   21.5597 N   0  0  0  0  0  0  0  0  0  0  0  0
  -20.9743  -26.0988   22.1299 N   0  0  0  0  0  0  0  0  0  0  0  0
  -26.1704  -28.1475   20.4285 N   0  0  0  0  0  0  0  0  0  0  0  0
  -28.0204  -18.4047   19.9529 N   0  0  0  0  0  0  0  0  0  0  0  0
  -23.2933  -30.2278   21.8440 N   0  0  0  0  0  0  0  0  0  0  0  0
  -26.0598  -27.6850   18.1081 N   0  0  0  0  0  0  0  0  0  0  0  0
  -29.3127  -24.9137   19.5690 N   0  0  0  0  0  0  0  0  0  0  0  0
  -21.8013  -23.9484   21.8307 N   0  0  0  0  0  0  0  0  0  0  0  0
  -25.8112  -15.5225   20.2824 N   0  0  0  0  0  0  0  0  0  0  0  0
  -31.0999  -19.8099   19.9535 N   0  0  0  0  0  0  0  0  0  0  0  0
  -21.5183  -28.7118   22.2241 N   0  0  0  0  0  0  0  0  0  0  0  0
  -31.6443  -22.3825   17.4729 N   0  3  0  0  0  0  0  0  0  0  0  0
  -28.1476  -25.6050   17.7189 O   0  0  0  0  0  0  0  0  0  0  0  0
  -26.7680  -17.0689   21.7369 O   0  0  0  0  0  0  0  0  0  0  0  0
  -29.9931  -17.1722   19.7919 O   0  0  0  0  0  0  0  0  0  0  0  0
  -30.1401  -21.9155   19.8044 O   0  0  0  0  0  0  0  0  0  0  0  0
  -21.1021  -30.9595   22.0473 O   0  0  0  0  0  0  0  0  0  0  0  0
  -31.1307  -24.4458   24.8142 O   0  0  0  0  0  0  0  0  0  0  0  0
  -23.3550  -22.4401   20.0030 O   0  0  0  0  0  0  0  0  0  1  0  0
  -33.7237  -27.7005   28.4318 F   0  0  0  0  0  0  0  0  0  0  0  0
  -33.8917  -24.5582   24.8958 F   0  0  0  0  0  0  0  0  0  0  0  0
  1  2  1  0  0  0  0
  1  5  2  0  0  0  0
  2  6  2  0  0  0  0
  3  8  2  0  0  0  0
  3 17  1  0  0  0  0
  4  9  1  0  0  0  0
  4 17  2  0  0  0  0
  5 19  1  0  0  0  0
  6 21  1  0  0  0  0
  7 10  2  0  0  0  0
  7 20  1  0  0  0  0
  8 23  1  0  0  0  0
  9 23  2  0  0  0  0
 10 24  1  0  0  0  0
 11 12  2  0  0  0  0
 11 25  1  0  0  0  0
 12 26  1  0  0  0  0
 13 16  1  0  0  0  0
 13 29  2  0  0  0  0
 14 22  1  0  0  0  0
 14 24  2  0  0  0  0
 15 26  2  0  0  0  0
 15 27  1  0  0  0  0
 16 60  2  0  0  0  0
 17 28  1  0  0  0  0
 18 28  1  0  0  0  0
 18 30  2  0  0  0  0
 18 32  1  0  0  0  0
 19 21  2  0  0  0  0
 19 37  1  0  0  0  0
 20 22  2  0  0  0  0
 20 38  1  0  0  0  0
 21 46  1  0  0  0  0
 22 39  1  0  0  0  0
 23 78  1  0  0  0  0
 24 79  1  0  0  0  0
 25 27  2  0  0  0  0
 25 78  1  0  0  0  0
 26 80  1  0  0  0  0
 27 81  1  0  0  0  0
 28 61  2  0  0  0  0
 29 54  1  0  0  0  0
 29 62  1  0  0  0  0
 30 63  1  0  0  0  0
 30 66  1  0  0  0  0
 31 60  1  0  0  0  0
 31 62  2  0  0  0  0
 31 68  1  0  0  0  0
 32 67  1  0  0  0  0
 32 73  2  0  0  0  0
 33 47  1  0  0  0  0
 33 69  1  0  0  0  0
 33 74  2  0  0  0  0
 34 57  1  0  0  0  0
 34 64  1  0  0  0  0
 34 75  2  0  0  0  0
 35 58  1  0  0  0  0
 35 70  1  0  0  0  0
 35 76  2  0  0  0  0
 36 65  1  0  0  0  0
 36 71  1  0  0  0  0
 36 77  2  0  0  0  0
 37 40  1  0  0  0  0
 38 47  1  0  0  0  0
 39 64  1  0  0  0  0
 40 42  1  0  0  0  0
 41 43  1  0  0  0  0
 41 44  1  0  0  0  0
 42 46  1  0  0  0  0
 43 48  1  0  0  0  0
 44 65  1  0  0  0  0
 45 48  1  0  0  0  0
 45 65  1  0  0  0  0
 46 69  1  0  0  0  0
 47 64  1  0  0  0  0
 48 63  1  0  0  0  0
 49 58  1  0  0  0  0
 50 59  1  0  0  0  0
 51 59  1  0  0  0  0
 52 59  1  0  0  0  0
 53 72  1  0  0  0  0
 54 71  1  0  0  0  0
 55 56  1  0  0  0  0
 55 68  1  0  0  0  0
 56 79  1  0  0  0  0
 57 59  1  0  0  0  0
 57 70  1  0  0  0  0
 58 72  1  0  0  0  0
 61 63  1  0  0  0  0
M  CHG  1  72   1
M  ISO  4  36 100  56 101  71 100  79 101
M  END
> <Batch ID>
0196

> <Smiles>
CNC(C)C(=O)NC(C(=O)N1Cc2cc([101O:1][101CH2:1]CNc3nccc(C[100NH:0][100C:0](=O)N4CCCC(n5nc(-c6ccc(Oc7ccc(F)cc7F)cc6)c(C(N)=O)c5N)C4)n3)ccc2CC1C(=O)NC1CCCc2ccccc21)C(C)(C)C

> <Shape>
0.208

> <Color>
0.071

> <Negative vol penalty>
0.000

$$$$

  -OEChem-04052305393D

 82 90  0     1  0  0  0  0  0999 V2000
  -32.1056  -15.3839   19.2703 C   0  0  0  0  0  0  0  0  0  0  0  0
  -31.1660  -16.4074   19.2004 C   0  0  0  0  0  0  0  0  0  0  0  0
  -28.7444  -25.7399   19.5924 C   0  0  0  0  0  0  0  0  0  0  0  0
  -26.5649  -24.7247   19.3548 C   0  0  0  0  0  0  0  0  0  0  0  0
  -31.6880  -14.0676   19.4623 C   0  0  0  0  0  0  0  0  0  0  0  0
  -29.8079  -16.1150   19.3214 C   0  0  0  0  0  0  0  0  0  0  0  0
  -25.5120  -19.5988   21.9509 C   0  0  0  0  0  0  0  0  0  0  0  0
  -29.3382  -24.4792   19.5321 C   0  0  0  0  0  0  0  0  0  0  0  0
  -27.1587  -23.4640   19.2945 C   0  0  0  0  0  0  0  0  0  0  0  0
  -24.5697  -20.4820   21.4259 C   0  0  0  0  0  0  0  0  0  0  0  0
  -28.7790  -21.5828   17.0018 C   0  0  0  0  0  0  0  0  0  0  0  0
  -28.3284  -20.7023   16.0184 C   0  0  0  0  0  0  0  0  0  0  0  0
  -22.9134  -18.7286   21.4650 C   0  0  0  0  0  0  0  0  0  0  0  0
  -27.6742  -19.1266   17.7291 C   0  0  0  0  0  0  0  0  0  0  0  0
  -18.4825  -28.1556   22.8902 C   0  0  0  0  0  0  0  0  0  0  0  0
  -27.3577  -25.8627   19.5038 C   0  0  0  0  0  0  0  0  0  0  0  0
  -26.4607  -28.0240   18.4880 C   0  0  0  0  0  0  0  0  0  0  0  0
  -30.3248  -13.7601   19.5954 C   0  0  0  0  0  0  0  0  0  0  0  0
  -25.1645  -18.2686   22.2272 C   0  0  0  0  0  0  0  0  0  0  0  0
  -29.3716  -14.7932   19.5141 C   0  0  0  0  0  0  0  0  0  0  0  0
  -23.8525  -17.8312   21.9959 C   0  0  0  0  0  0  0  0  0  0  0  0
  -28.5454  -23.3413   19.3831 C   0  0  0  0  0  0  0  0  0  0  0  0
  -23.2710  -20.0462   21.1801 C   0  0  0  0  0  0  0  0  0  0  0  0
  -28.6774  -21.2353   18.3489 C   0  0  0  0  0  0  0  0  0  0  0  0
  -27.7759  -19.4742   16.3821 C   0  0  0  0  0  0  0  0  0  0  0  0
  -28.1249  -20.0072   18.7125 C   0  0  0  0  0  0  0  0  0  0  0  0
  -26.7437  -27.1646   19.5666 C   0  0  0  0  0  0  0  0  0  0  0  0
  -19.8219  -28.0393   23.1977 C   0  0  0  0  0  0  0  0  0  0  0  0
  -25.8830  -29.1261   19.0696 C   0  0  0  0  0  0  0  0  0  0  0  0
  -19.5966  -26.2101   22.0089 C   0  0  0  0  0  0  0  0  0  0  0  0
  -26.6987  -27.8423   17.0859 C   0  0  0  0  0  0  0  0  0  0  0  0
  -26.1291  -15.4316   21.1670 C   0  0  0  0  0  0  0  0  0  0  0  0
  -24.1607  -14.3267   23.4965 C   0  0  0  0  0  0  0  0  0  0  0  0
  -21.4657  -14.8798   25.5159 C   0  0  0  0  0  0  0  0  0  0  0  0
  -22.8955  -29.9373   24.1947 C   0  0  0  0  0  0  0  0  0  0  0  0
  -29.9184  -12.3164   19.7544 C   0  0  0  0  0  0  0  0  0  0  0  0
  -26.1855  -17.3356   22.8184 C   0  0  0  0  0  0  0  0  0  0  0  0
  -23.4234  -16.4186   22.2943 C   0  0  0  0  0  0  0  0  0  0  0  0
  -28.4849  -12.1380   20.2480 C   0  0  0  0  0  0  0  0  0  0  0  0
  -25.8524  -31.6233   23.1505 C   0  0  0  0  0  0  0  0  0  0  0  0
  -27.5351  -13.0407   19.4672 C   0  0  0  0  0  0  0  0  0  0  0  0
  -26.3906  -30.7493   22.0162 C   0  0  0  0  0  0  0  0  0  0  0  0
  -25.2227  -30.7837   24.2597 C   0  0  0  0  0  0  0  0  0  0  0  0
  -24.7222  -28.9651   22.6735 C   0  0  0  0  0  0  0  0  0  0  0  0
  -27.8910  -14.5191   19.6656 C   0  0  1  0  0  0  0  0  0  0  0  0
  -25.8593  -15.8645   22.5803 C   0  0  1  0  0  0  0  0  0  0  0  0
  -25.3169  -29.7700   21.5052 C   0  0  2  0  0  0  0  0  0  0  0  0
  -20.0734  -13.7773   27.2889 C   0  0  0  0  0  0  0  0  0  0  0  0
  -22.7988  -12.6220   21.3636 C   0  0  0  0  0  0  0  0  0  0  0  0
  -20.8837  -12.2994   22.9437 C   0  0  0  0  0  0  0  0  0  0  0  0
  -23.1547  -11.4661   23.5526 C   0  0  0  0  0  0  0  0  0  0  0  0
  -22.1424  -16.9629   27.5062 C   0  0  0  0  0  0  0  0  0  0  0  0
  -20.6077  -28.9945   24.0039 C   0  0  0  0  0  0  0  0  0  0  0  0
  -21.2163  -24.4227   21.3708 C   0  0  0  0  0  0  0  0  0  0  0  0
  -22.4962  -22.2870   20.9950 C   0  0  0  0  0  0  0  0  0  1  0  0
  -22.7001  -13.9530   23.5738 C   0  0  1  0  0  0  0  0  0  0  0  0
  -21.2661  -14.6778   27.0071 C   0  0  2  0  0  0  0  0  0  0  0  0
  -21.1207  -22.9451   20.9956 C   0  0  1  0  0  0  0  0  0  0  0  0
  -22.3926  -12.6113   22.8509 C   0  0  0  0  0  0  0  0  0  0  0  0
  -26.3761  -27.6768   20.7441 N   0  0  0  0  0  0  0  0  0  0  0  0
  -20.4623  -26.9241   22.6936 N   0  0  0  0  0  0  0  0  0  0  0  0
  -25.8564  -28.8700   20.4089 N   0  0  0  0  0  0  0  0  0  0  0  0
  -24.4595  -15.5426   22.8655 N   0  0  0  0  0  0  0  0  0  0  0  0
  -24.2120  -29.8776   23.7088 N   0  0  0  0  0  0  0  0  0  0  0  0
  -25.4004  -30.2796   18.5608 N   0  0  0  0  0  0  0  0  0  0  0  0
  -27.3011  -26.6508   16.6594 N   0  0  0  0  0  0  0  0  0  0  0  0
  -19.9008  -25.0224   21.3655 N   0  0  0  0  0  0  0  0  0  0  0  0
  -27.4188  -14.9843   20.9521 N   0  0  0  0  0  0  0  0  0  0  0  0
  -22.3507  -13.9624   24.9902 N   0  0  0  0  0  0  0  0  0  0  0  0
  -21.9991  -29.0484   23.6141 N   0  0  0  0  0  0  0  0  0  0  0  0
  -21.0361  -15.9870   27.6809 N   0  3  0  0  0  0  0  0  0  0  0  0
  -26.4015  -28.7177   16.2381 O   0  0  0  0  0  0  0  0  0  0  0  0
  -25.2332  -15.4970   20.3335 O   0  0  0  0  0  0  0  0  0  0  0  0
  -25.0048  -13.5711   23.9846 O   0  0  0  0  0  0  0  0  0  0  0  0
  -20.8910  -15.7607   24.8802 O   0  0  0  0  0  0  0  0  0  0  0  0
  -22.5436  -30.7282   25.0766 O   0  0  0  0  0  0  0  0  0  0  0  0
  -20.3154  -22.2685   21.9631 O   0  0  0  0  0  0  0  0  0  0  0  0
  -29.1245  -22.1110   19.3240 O   0  0  0  0  0  0  0  0  0  0  0  0
  -22.3494  -20.9060   20.6670 O   0  0  0  0  0  0  0  0  0  1  0  0
  -27.3418  -18.6293   15.4377 F   0  0  0  0  0  0  0  0  0  0  0  0
  -28.0236  -19.6683   20.0051 F   0  0  0  0  0  0  0  0  0  0  0  0
  -17.9949  -26.8211   21.9297 S   0  0  0  0  0  0  0  0  0  0  0  0
  1  2  1  0  0  0  0
  1  5  2  0  0  0  0
  2  6  2  0  0  0  0
  3  8  2  0  0  0  0
  3 16  1  0  0  0  0
  4  9  1  0  0  0  0
  4 16  2  0  0  0  0
  5 18  1  0  0  0  0
  6 20  1  0  0  0  0
  7 10  2  0  0  0  0
  7 19  1  0  0  0  0
  8 22  1  0  0  0  0
  9 22  2  0  0  0  0
 10 23  1  0  0  0  0
 11 12  2  0  0  0  0
 11 24  1  0  0  0  0
 12 25  1  0  0  0  0
 13 21  1  0  0  0  0
 13 23  2  0  0  0  0
 14 25  2  0  0  0  0
 14 26  1  0  0  0  0
 15 28  2  0  0  0  0
 15 82  1  0  0  0  0
 16 27  1  0  0  0  0
 17 27  1  0  0  0  0
 17 29  2  0  0  0  0
 17 31  1  0  0  0  0
 18 20  2  0  0  0  0
 18 36  1  0  0  0  0
 19 21  2  0  0  0  0
 19 37  1  0  0  0  0
 20 45  1  0  0  0  0
 21 38  1  0  0  0  0
 22 78  1  0  0  0  0
 23 79  1  0  0  0  0
 24 26  2  0  0  0  0
 24 78  1  0  0  0  0
 25 80  1  0  0  0  0
 26 81  1  0  0  0  0
 27 60  2  0  0  0  0
 28 53  1  0  0  0  0
 28 61  1  0  0  0  0
 29 62  1  0  0  0  0
 29 65  1  0  0  0  0
 30 61  2  0  0  0  0
 30 67  1  0  0  0  0
 30 82  1  0  0  0  0
 31 66  1  0  0  0  0
 31 72  2  0  0  0  0
 32 46  1  0  0  0  0
 32 68  1  0  0  0  0
 32 73  2  0  0  0  0
 33 56  1  0  0  0  0
 33 63  1  0  0  0  0
 33 74  2  0  0  0  0
 34 57  1  0  0  0  0
 34 69  1  0  0  0  0
 34 75  2  0  0  0  0
 35 64  1  0  0  0  0
 35 70  1  0  0  0  0
 35 76  2  0  0  0  0
 36 39  1  0  0  0  0
 37 46  1  0  0  0  0
 38 63  1  0  0  0  0
 39 41  1  0  0  0  0
 40 42  1  0  0  0  0
 40 43  1  0  0  0  0
 41 45  1  0  0  0  0
 42 47  1  0  0  0  0
 43 64  1  0  0  0  0
 44 47  1  0  0  0  0
 44 64  1  0  0  0  0
 45 68  1  0  0  0  0
 46 63  1  0  0  0  0
 47 62  1  0  0  0  0
 48 57  1  0  0  0  0
 49 59  1  0  0  0  0
 50 59  1  0  0  0  0
 51 59  1  0  0  0  0
 52 71  1  0  0  0  0
 53 70  1  0  0  0  0
 54 58  1  0  0  0  0
 54 67  1  0  0  0  0
 55 58  1  0  0  0  0
 55 79  1  0  0  0  0
 56 59  1  0  0  0  0
 56 69  1  0  0  0  0
 57 71  1  0  0  0  0
 58 77  1  0  0  0  0
 60 62  1  0  0  0  0
M  CHG  1  71   1
M  ISO  4  35 100  55 101  70 100  79 101
M  END
> <Batch ID>
0196

> <Smiles>
CNC(C)C(=O)NC(C(=O)N1Cc2cc([101O:1][101CH2:1]C(O)CNc3nc(C[100NH:0][100C:0](=O)N4CCCC(n5nc(-c6ccc(Oc7ccc(F)cc7F)cc6)c(C(N)=O)c5N)C4)cs3)ccc2CC1C(=O)NC1CCCc2ccccc21)C(C)(C)C

> <Shape>
0.216

> <Color>
0.068

> <Negative vol penalty>
0.000

$$$$

  -OEChem-04052305393D

 84 92  0     1  0  0  0  0  0999 V2000
  -25.8658  -18.1930   14.1003 C   0  0  0  0  0  0  0  0  0  0  0  0
  -26.8459  -17.9269   15.0510 C   0  0  0  0  0  0  0  0  0  0  0  0
  -24.6399  -30.7192   21.0268 C   0  0  0  0  0  0  0  0  0  0  0  0
  -25.0476  -29.7308   23.1933 C   0  0  0  0  0  0  0  0  0  0  0  0
  -24.5214  -17.9964   14.4129 C   0  0  0  0  0  0  0  0  0  0  0  0
  -26.4821  -17.4652   16.3155 C   0  0  0  0  0  0  0  0  0  0  0  0
  -29.3779  -13.6194   17.8868 C   0  0  0  0  0  0  0  0  0  0  0  0
  -23.9791  -31.7850   21.6373 C   0  0  0  0  0  0  0  0  0  0  0  0
  -24.3868  -30.7967   23.8039 C   0  0  0  0  0  0  0  0  0  0  0  0
  -30.6454  -13.9347   18.3746 C   0  0  0  0  0  0  0  0  0  0  0  0
  -23.1221  -33.4391   25.9572 C   0  0  0  0  0  0  0  0  0  0  0  0
  -23.7157  -34.0127   27.0815 C   0  0  0  0  0  0  0  0  0  0  0  0
  -29.8164  -13.7478   20.6323 C   0  0  0  0  0  0  0  0  0  0  0  0
  -25.6632  -34.5744   25.7667 C   0  0  0  0  0  0  0  0  0  0  0  0
  -29.9953  -21.6136   19.6165 C   0  0  0  0  0  0  0  0  0  0  0  0
  -25.1741  -29.6920   21.8048 C   0  0  0  0  0  0  0  0  0  0  0  0
  -27.2290  -28.4998   20.8752 C   0  0  0  0  0  0  0  0  0  0  0  0
  -24.1414  -17.5229   15.6786 C   0  0  0  0  0  0  0  0  0  0  0  0
  -28.3157  -13.3762   18.7695 C   0  0  0  0  0  0  0  0  0  0  0  0
  -25.1312  -17.2634   16.6458 C   0  0  0  0  0  0  0  0  0  0  0  0
  -28.5370  -13.4271   20.1532 C   0  0  0  0  0  0  0  0  0  0  0  0
  -23.8525  -31.8238   23.0259 C   0  0  0  0  0  0  0  0  0  0  0  0
  -30.8641  -14.0017   19.7475 C   0  0  0  0  0  0  0  0  0  0  0  0
  -23.7990  -33.4330   24.7376 C   0  0  0  0  0  0  0  0  0  0  0  0
  -24.9863  -34.5804   26.9863 C   0  0  0  0  0  0  0  0  0  0  0  0
  -25.0696  -34.0007   24.6423 C   0  0  0  0  0  0  0  0  0  0  0  0
  -25.8564  -28.5904   21.1746 C   0  0  0  0  0  0  0  0  0  0  0  0
  -30.7657  -19.4663   19.4580 C   0  0  0  0  0  0  0  0  0  0  0  0
  -28.7107  -21.1413   19.7718 C   0  0  0  0  0  0  0  0  0  0  0  0
  -29.4812  -18.9938   19.6140 C   0  0  0  0  0  0  0  0  0  0  0  0
  -27.3714  -27.2669   20.2869 C   0  0  0  0  0  0  0  0  0  0  0  0
  -28.2811  -29.4456   21.1082 C   0  0  0  0  0  0  0  0  0  0  0  0
  -25.5042  -14.7497   19.3282 C   0  0  0  0  0  0  0  0  0  0  0  0
  -25.0994  -12.2156   21.3123 C   0  0  0  0  0  0  0  0  0  0  0  0
  -26.5274   -9.7700   23.2167 C   0  0  0  0  0  0  0  0  0  0  0  0
  -26.3032  -21.8054   20.1019 C   0  0  0  0  0  0  0  0  0  0  0  0
  -22.6727  -17.3709   15.9861 C   0  0  0  0  0  0  0  0  0  0  0  0
  -26.9609  -13.0112   18.2277 C   0  0  0  0  0  0  0  0  0  0  0  0
  -27.4350  -13.1546   21.1431 C   0  0  0  0  0  0  0  0  0  0  0  0
  -22.3942  -16.5225   17.2241 C   0  0  0  0  0  0  0  0  0  0  0  0
  -23.8911  -23.9799   18.6423 C   0  0  0  0  0  0  0  0  0  0  0  0
  -23.3006  -16.9451   18.3759 C   0  0  0  0  0  0  0  0  0  0  0  0
  -24.3003  -25.3658   19.1463 C   0  0  0  0  0  0  0  0  0  0  0  0
  -24.1097  -22.9031   19.7036 C   0  0  0  0  0  0  0  0  0  0  0  0
  -25.8699  -24.2480   20.7815 C   0  0  0  0  0  0  0  0  0  0  0  0
  -24.7777  -16.7377   18.0202 C   0  0  1  0  0  0  0  0  0  0  0  0
  -25.8292  -13.2873   19.2127 C   0  0  1  0  0  0  0  0  0  0  0  0
  -25.7288  -25.3559   19.7249 C   0  0  2  0  0  0  0  0  0  0  0  0
  -25.9403   -7.8743   24.7525 C   0  0  0  0  0  0  0  0  0  0  0  0
  -34.7651  -17.6885   20.4035 C   0  0  0  0  0  0  0  0  0  0  0  0
  -24.4582  -14.2127   23.5283 C   0  0  0  0  0  0  0  0  0  0  0  0
  -24.8192  -12.3767   25.1918 C   0  0  0  0  0  0  0  0  0  0  0  0
  -22.9976  -12.1828   23.4986 C   0  0  0  0  0  0  0  0  0  0  0  0
  -27.8258   -7.7829   21.4491 C   0  0  0  0  0  0  0  0  0  0  0  0
  -31.9325  -18.5400   19.2804 C   0  0  0  0  0  0  0  0  0  0  0  0
  -33.4129  -15.8599   21.5026 C   0  0  0  0  0  0  0  0  0  0  0  0
  -32.1602  -14.9910   21.4787 C   0  0  0  0  0  0  0  0  0  1  0  0
  -25.4041  -11.9351   22.7641 C   0  0  1  0  0  0  0  0  0  0  0  0
  -26.2478   -8.2815   23.3200 C   0  0  2  0  0  0  0  0  0  0  0  0
  -33.4616  -16.9013   20.3828 C   0  0  1  0  0  0  0  0  0  0  0  0
  -24.4403  -12.6839   23.7273 C   0  0  0  0  0  0  0  0  0  0  0  0
  -31.0459  -20.7845   19.4568 N   0  0  0  0  0  0  0  0  0  0  0  0
  -25.1755  -27.5018   20.8067 N   0  0  0  0  0  0  0  0  0  0  0  0
  -28.4306  -19.8229   19.7734 N   0  0  0  0  0  0  0  0  0  0  0  0
  -26.1241  -26.7156   20.2700 N   0  0  0  0  0  0  0  0  0  0  0  0
  -26.1265  -12.8080   20.5640 N   0  0  0  0  0  0  0  0  0  0  0  0
  -25.4857  -22.9511   20.2025 N   0  0  0  0  0  0  0  0  0  0  0  0
  -29.2520  -17.5998   19.6078 N   0  0  0  0  0  0  0  0  0  0  0  0
  -28.4408  -26.6115   19.7875 N   0  0  0  0  0  0  0  0  0  0  0  0
  -27.9607  -30.6635   21.7232 N   0  0  0  0  0  0  0  0  0  0  0  0
  -27.6601  -22.0784   19.9322 N   0  0  0  0  0  0  0  0  0  0  0  0
  -25.1338  -15.3397   18.1348 N   0  0  0  0  0  0  0  0  0  0  0  0
  -25.3878  -10.4838   22.9115 N   0  0  0  0  0  0  0  0  0  0  0  0
  -27.4268   -7.4993   22.8517 N   0  3  0  0  0  0  0  0  0  0  0  0
  -32.3393  -17.8676   20.5415 N   0  3  0  0  0  0  0  0  0  0  0  0
  -29.4674  -29.2241   20.7657 O   0  0  0  0  0  0  0  0  0  0  0  0
  -25.5821  -15.3017   20.4195 O   0  0  0  0  0  0  0  0  0  0  0  0
  -23.9934  -11.9135   20.8572 O   0  0  0  0  0  0  0  0  0  0  0  0
  -27.6442  -10.2518   23.3931 O   0  0  0  0  0  0  0  0  0  0  0  0
  -25.8308  -20.6663   20.1346 O   0  0  0  0  0  0  0  0  0  0  0  0
  -23.2080  -32.8639   23.6221 O   0  0  0  0  0  0  0  0  0  0  0  0
  -32.1001  -14.3099   20.2262 O   0  0  0  0  0  0  0  0  0  1  0  0
  -25.5556  -35.1325   28.0657 F   0  0  0  0  0  0  0  0  0  0  0  0
  -25.7243  -33.9990   23.4731 F   0  0  0  0  0  0  0  0  0  0  0  0
  1  2  1  0  0  0  0
  1  5  2  0  0  0  0
  2  6  2  0  0  0  0
  3  8  2  0  0  0  0
  3 16  1  0  0  0  0
  4  9  1  0  0  0  0
  4 16  2  0  0  0  0
  5 18  1  0  0  0  0
  6 20  1  0  0  0  0
  7 10  2  0  0  0  0
  7 19  1  0  0  0  0
  8 22  1  0  0  0  0
  9 22  2  0  0  0  0
 10 23  1  0  0  0  0
 11 12  2  0  0  0  0
 11 24  1  0  0  0  0
 12 25  1  0  0  0  0
 13 21  1  0  0  0  0
 13 23  2  0  0  0  0
 14 25  2  0  0  0  0
 14 26  1  0  0  0  0
 15 29  1  0  0  0  0
 15 62  2  0  0  0  0
 16 27  1  0  0  0  0
 17 27  1  0  0  0  0
 17 31  2  0  0  0  0
 17 32  1  0  0  0  0
 18 20  2  0  0  0  0
 18 37  1  0  0  0  0
 19 21  2  0  0  0  0
 19 38  1  0  0  0  0
 20 46  1  0  0  0  0
 21 39  1  0  0  0  0
 22 81  1  0  0  0  0
 23 82  1  0  0  0  0
 24 26  2  0  0  0  0
 24 81  1  0  0  0  0
 25 83  1  0  0  0  0
 26 84  1  0  0  0  0
 27 63  2  0  0  0  0
 28 30  2  0  0  0  0
 28 55  1  0  0  0  0
 28 62  1  0  0  0  0
 29 64  2  0  0  0  0
 29 71  1  0  0  0  0
 30 64  1  0  0  0  0
 30 68  1  0  0  0  0
 31 65  1  0  0  0  0
 31 69  1  0  0  0  0
 32 70  1  0  0  0  0
 32 76  2  0  0  0  0
 33 47  1  0  0  0  0
 33 72  1  0  0  0  0
 33 77  2  0  0  0  0
 34 58  1  0  0  0  0
 34 66  1  0  0  0  0
 34 78  2  0  0  0  0
 35 59  1  0  0  0  0
 35 73  1  0  0  0  0
 35 79  2  0  0  0  0
 36 67  1  0  0  0  0
 36 71  1  0  0  0  0
 36 80  2  0  0  0  0
 37 40  1  0  0  0  0
 38 47  1  0  0  0  0
 39 66  1  0  0  0  0
 40 42  1  0  0  0  0
 41 43  1  0  0  0  0
 41 44  1  0  0  0  0
 42 46  1  0  0  0  0
 43 48  1  0  0  0  0
 44 67  1  0  0  0  0
 45 48  1  0  0  0  0
 45 67  1  0  0  0  0
 46 72  1  0  0  0  0
 47 66  1  0  0  0  0
 48 65  1  0  0  0  0
 49 59  1  0  0  0  0
 50 60  1  0  0  0  0
 51 61  1  0  0  0  0
 52 61  1  0  0  0  0
 53 61  1  0  0  0  0
 54 74  1  0  0  0  0
 55 75  1  0  0  0  0
 56 57  1  0  0  0  0
 56 60  1  0  0  0  0
 57 82  1  0  0  0  0
 58 61  1  0  0  0  0
 58 73  1  0  0  0  0
 59 74  1  0  0  0  0
 60 75  1  0  0  0  0
 63 65  1  0  0  0  0
M  CHG  2  74   1  75   1
M  ISO  4  36 100  57 101  71 100  82 101
M  END
> <Batch ID>
0196

> <Smiles>
CNC(C)C(=O)NC(C(=O)N1Cc2cc([101O:1][101CH2:1]CC(C)NCc3ncc([100NH:0][100C:0](=O)N4CCCC(n5nc(-c6ccc(Oc7ccc(F)cc7F)cc6)c(C(N)=O)c5N)C4)nc3N)ccc2CC1C(=O)NC1CCCc2ccccc21)C(C)(C)C

> <Shape>
0.222

> <Color>
0.085

> <Negative vol penalty>
0.000

$$$$

  -OEChem-04052305393D

 83 91  0     1  0  0  0  0  0999 V2000
  -19.1432  -28.8576   23.4331 C   0  0  0  0  0  0  0  0  0  0  0  0
  -20.4191  -28.3182   23.3038 C   0  0  0  0  0  0  0  0  0  0  0  0
  -26.7596  -14.9265   21.8951 C   0  0  0  0  0  0  0  0  0  0  0  0
  -26.5921  -14.0907   19.6344 C   0  0  0  0  0  0  0  0  0  0  0  0
  -18.0851  -28.3264   22.6968 C   0  0  0  0  0  0  0  0  0  0  0  0
  -20.6373  -27.2465   22.4389 C   0  0  0  0  0  0  0  0  0  0  0  0
  -24.8013  -27.8424   19.6191 C   0  0  0  0  0  0  0  0  0  0  0  0
  -25.9078  -13.9125   22.3331 C   0  0  0  0  0  0  0  0  0  0  0  0
  -25.7403  -13.0767   20.0724 C   0  0  0  0  0  0  0  0  0  0  0  0
  -26.0273  -27.5880   20.2322 C   0  0  0  0  0  0  0  0  0  0  0  0
  -26.0197  -10.0915   21.6317 C   0  0  0  0  0  0  0  0  0  0  0  0
  -26.2542   -8.8006   21.1582 C   0  0  0  0  0  0  0  0  0  0  0  0
  -26.0860  -25.4099   19.1970 C   0  0  0  0  0  0  0  0  0  0  0  0
  -24.0460   -8.7585   20.1790 C   0  0  0  0  0  0  0  0  0  0  0  0
  -31.4113  -24.4318   15.9385 C   0  0  0  0  0  0  0  0  0  0  0  0
  -27.1017  -15.0156   20.5457 C   0  0  0  0  0  0  0  0  0  0  0  0
  -29.3854  -16.0160   20.0058 C   0  0  0  0  0  0  0  0  0  0  0  0
  -18.2924  -27.2538   21.8152 C   0  0  0  0  0  0  0  0  0  0  0  0
  -24.2022  -26.8767   18.7976 C   0  0  0  0  0  0  0  0  0  0  0  0
  -19.5808  -26.6995   21.6911 C   0  0  0  0  0  0  0  0  0  0  0  0
  -24.8536  -25.6556   18.5725 C   0  0  0  0  0  0  0  0  0  0  0  0
  -25.3982  -12.9876   21.4218 C   0  0  0  0  0  0  0  0  0  0  0  0
  -26.6685  -26.3704   20.0235 C   0  0  0  0  0  0  0  0  0  0  0  0
  -24.7982  -10.7159   21.3788 C   0  0  0  0  0  0  0  0  0  0  0  0
  -25.2674   -8.1341   20.4319 C   0  0  0  0  0  0  0  0  0  0  0  0
  -23.8114  -10.0494   20.6525 C   0  0  0  0  0  0  0  0  0  0  0  0
  -27.9811  -16.0632   20.0926 C   0  0  0  0  0  0  0  0  0  0  0  0
  -31.7730  -23.1337   16.2320 C   0  0  0  0  0  0  0  0  0  0  0  0
  -29.7411  -17.2513   19.5218 C   0  0  0  0  0  0  0  0  0  0  0  0
  -31.1575  -24.5031   18.1157 C   0  0  0  0  0  0  0  0  0  0  0  0
  -30.4965  -26.1845   19.5159 C   0  0  0  0  0  0  0  0  0  0  0  0
  -30.2876  -14.9509   20.3332 C   0  0  0  0  0  0  0  0  0  0  0  0
  -21.4849  -25.2299   18.8862 C   0  0  0  0  0  0  0  0  0  0  0  0
  -22.4569  -24.2181   15.9615 C   0  0  0  0  0  0  0  0  0  0  0  0
  -25.0352  -23.6787   13.7916 C   0  0  0  0  0  0  0  0  0  0  0  0
  -28.9824  -21.4911   15.9731 C   0  0  0  0  0  0  0  0  0  0  0  0
  -17.1085  -26.6826   21.0758 C   0  0  0  0  0  0  0  0  0  0  0  0
  -22.8923  -27.1770   18.1221 C   0  0  0  0  0  0  0  0  0  0  0  0
  -24.2624  -24.5934   17.6833 C   0  0  0  0  0  0  0  0  0  0  0  0
  -17.4974  -25.7896   19.9004 C   0  0  0  0  0  0  0  0  0  0  0  0
  -27.0114  -21.4696   18.9381 C   0  0  0  0  0  0  0  0  0  0  0  0
  -18.5918  -24.8104   20.3131 C   0  0  0  0  0  0  0  0  0  0  0  0
  -27.1989  -20.0560   19.4917 C   0  0  0  0  0  0  0  0  0  0  0  0
  -26.9659  -21.4765   17.4117 C   0  0  0  0  0  0  0  0  0  0  0  0
  -28.2992  -19.4064   17.3086 C   0  0  0  0  0  0  0  0  0  0  0  0
  -19.8623  -25.5527   20.7446 C   0  0  1  0  0  0  0  0  0  0  0  0
  -22.1272  -25.9210   17.7168 C   0  0  1  0  0  0  0  0  0  0  0  0
  -28.4073  -19.3551   18.8422 C   0  0  2  0  0  0  0  0  0  0  0  0
  -31.1148  -27.9460   21.1230 C   0  0  0  0  0  0  0  0  0  0  0  0
  -25.5226  -22.8082   11.4890 C   0  0  0  0  0  0  0  0  0  0  0  0
  -22.0930  -21.3605   16.9674 C   0  0  0  0  0  0  0  0  0  0  0  0
  -23.4644  -20.5763   15.0251 C   0  0  0  0  0  0  0  0  0  0  0  0
  -21.3004  -21.7518   14.6279 C   0  0  0  0  0  0  0  0  0  0  0  0
  -26.1411  -26.2805   12.9162 C   0  0  0  0  0  0  0  0  0  0  0  0
  -32.1959  -22.0437   15.3317 C   0  0  0  0  0  0  0  0  0  0  0  0
  -31.0368  -21.3558   14.5873 C   0  0  0  0  0  0  0  0  0  0  0  0
  -28.7122  -27.2391   20.8747 C   0  0  0  0  0  0  0  0  0  1  0  0
  -30.1680  -26.7800   20.8667 C   0  0  1  0  0  0  0  0  0  0  0  0
  -23.2943  -23.0704   15.4511 C   0  0  1  0  0  0  0  0  0  0  0  0
  -25.2113  -24.0383   12.3273 C   0  0  2  0  0  0  0  0  0  0  0  0
  -22.5485  -21.7088   15.5362 C   0  0  0  0  0  0  0  0  0  0  0  0
  -31.0576  -25.2184   17.0173 N   0  0  0  0  0  0  0  0  0  0  0  0
  -27.4790  -17.2356   19.6958 N   0  0  0  0  0  0  0  0  0  0  0  0
  -30.8812  -24.9537   19.4173 N   0  0  0  0  0  0  0  0  0  0  0  0
  -28.5738  -17.9366   19.3551 N   0  0  0  0  0  0  0  0  0  0  0  0
  -22.9769  -24.9320   17.0504 N   0  0  0  0  0  0  0  0  0  0  0  0
  -28.1405  -20.7982   16.8586 N   0  0  0  0  0  0  0  0  0  0  0  0
  -30.9355  -17.8072   19.2271 N   0  0  0  0  0  0  0  0  0  0  0  0
  -29.7543  -13.7488   20.8179 N   0  0  0  0  0  0  0  0  0  0  0  0
  -20.5929  -26.0199   19.5860 N   0  0  0  0  0  0  0  0  0  0  0  0
  -23.7135  -23.4388   14.1032 N   0  0  0  0  0  0  0  0  0  0  0  0
  -30.0766  -20.7769   15.5004 N   0  0  0  0  0  0  0  0  0  0  0  0
  -26.3268  -25.0130   12.1639 N   0  3  0  0  0  0  0  0  0  0  0  0
  -31.5310  -15.0676   20.2154 O   0  0  0  0  0  0  0  0  0  0  0  0
  -21.7758  -24.0656   19.1343 O   0  0  0  0  0  0  0  0  0  0  0  0
  -21.3843  -24.4763   15.4096 O   0  0  0  0  0  0  0  0  0  0  0  0
  -25.9763  -23.6132   14.5794 O   0  0  0  0  0  0  0  0  0  0  0  0
  -28.7774  -22.6614   15.6335 O   0  0  0  0  0  0  0  0  0  0  0  0
  -24.5672  -11.9978   21.8489 O   0  0  0  0  0  0  0  0  0  0  0  0
  -27.8649  -26.1192   20.6213 O   0  0  0  0  0  0  0  0  0  1  0  0
  -25.4934   -6.8950   19.9760 F   0  0  0  0  0  0  0  0  0  0  0  0
  -22.6364  -10.6446   20.4054 F   0  0  0  0  0  0  0  0  0  0  0  0
  -31.6716  -22.8770   17.9247 S   0  0  0  0  0  0  0  0  0  0  0  0
  1  2  1  0  0  0  0
  1  5  2  0  0  0  0
  2  6  2  0  0  0  0
  3  8  2  0  0  0  0
  3 16  1  0  0  0  0
  4  9  1  0  0  0  0
  4 16  2  0  0  0  0
  5 18  1  0  0  0  0
  6 20  1  0  0  0  0
  7 10  2  0  0  0  0
  7 19  1  0  0  0  0
  8 22  1  0  0  0  0
  9 22  2  0  0  0  0
 10 23  1  0  0  0  0
 11 12  2  0  0  0  0
 11 24  1  0  0  0  0
 12 25  1  0  0  0  0
 13 21  1  0  0  0  0
 13 23  2  0  0  0  0
 14 25  2  0  0  0  0
 14 26  1  0  0  0  0
 15 28  2  0  0  0  0
 15 62  1  0  0  0  0
 16 27  1  0  0  0  0
 17 27  1  0  0  0  0
 17 29  2  0  0  0  0
 17 32  1  0  0  0  0
 18 20  2  0  0  0  0
 18 37  1  0  0  0  0
 19 21  2  0  0  0  0
 19 38  1  0  0  0  0
 20 46  1  0  0  0  0
 21 39  1  0  0  0  0
 22 79  1  0  0  0  0
 23 80  1  0  0  0  0
 24 26  2  0  0  0  0
 24 79  1  0  0  0  0
 25 81  1  0  0  0  0
 26 82  1  0  0  0  0
 27 63  2  0  0  0  0
 28 55  1  0  0  0  0
 28 83  1  0  0  0  0
 29 65  1  0  0  0  0
 29 68  1  0  0  0  0
 30 62  2  0  0  0  0
 30 64  1  0  0  0  0
 30 83  1  0  0  0  0
 31 58  1  0  0  0  0
 31 64  2  0  0  0  0
 32 69  1  0  0  0  0
 32 74  2  0  0  0  0
 33 47  1  0  0  0  0
 33 70  1  0  0  0  0
 33 75  2  0  0  0  0
 34 59  1  0  0  0  0
 34 66  1  0  0  0  0
 34 76  2  0  0  0  0
 35 60  1  0  0  0  0
 35 71  1  0  0  0  0
 35 77  2  0  0  0  0
 36 67  1  0  0  0  0
 36 72  1  0  0  0  0
 36 78  2  0  0  0  0
 37 40  1  0  0  0  0
 38 47  1  0  0  0  0
 39 66  1  0  0  0  0
 40 42  1  0  0  0  0
 41 43  1  0  0  0  0
 41 44  1  0  0  0  0
 42 46  1  0  0  0  0
 43 48  1  0  0  0  0
 44 67  1  0  0  0  0
 45 48  1  0  0  0  0
 45 67  1  0  0  0  0
 46 70  1  0  0  0  0
 47 66  1  0  0  0  0
 48 65  1  0  0  0  0
 49 58  1  0  0  0  0
 50 60  1  0  0  0  0
 51 61  1  0  0  0  0
 52 61  1  0  0  0  0
 53 61  1  0  0  0  0
 54 73  1  0  0  0  0
 55 56  1  0  0  0  0
 56 72  1  0  0  0  0
 57 58  1  0  0  0  0
 57 80  1  0  0  0  0
 59 61  1  0  0  0  0
 59 71  1  0  0  0  0
 60 73  1  0  0  0  0
 63 65  1  0  0  0  0
M  CHG  1  73   1
M  ISO  4  36 100  57 101  72 100  80 101
M  END
> <Batch ID>
0196

> <Smiles>
CNC(C)C(=O)NC(C(=O)N1Cc2cc([101O:1][101CH2:1]C(C)=CNc3ncc(CC[100NH:0][100C:0](=O)N4CCCC(n5nc(-c6ccc(Oc7ccc(F)cc7F)cc6)c(C(N)=O)c5N)C4)s3)ccc2CC1C(=O)NC1CCCc2ccccc21)C(C)(C)C

> <Shape>
0.220

> <Color>
0.066

> <Negative vol penalty>
0.000

$$$$

  -OEChem-04052305393D

 87 95  0     1  0  0  0  0  0999 V2000
  -22.3955  -22.5246   22.9814 C   0  0  0  0  0  0  0  0  0  0  0  0
  -23.7397  -22.2404   23.1995 C   0  0  0  0  0  0  0  0  0  0  0  0
  -23.1009   -9.8400   19.9986 C   0  0  0  0  0  0  0  0  0  0  0  0
  -23.8250   -9.9491   22.3009 C   0  0  0  0  0  0  0  0  0  0  0  0
  -22.0320  -23.5032   22.0572 C   0  0  0  0  0  0  0  0  0  0  0  0
  -24.7214  -22.9339   22.4925 C   0  0  0  0  0  0  0  0  0  0  0  0
  -30.2570  -24.5789   24.5313 C   0  0  0  0  0  0  0  0  0  0  0  0
  -22.3617   -8.6926   20.2854 C   0  0  0  0  0  0  0  0  0  0  0  0
  -23.0857   -8.8016   22.5878 C   0  0  0  0  0  0  0  0  0  0  0  0
  -31.5210  -24.0116   24.3748 C   0  0  0  0  0  0  0  0  0  0  0  0
  -22.9534   -5.3938   20.7242 C   0  0  0  0  0  0  0  0  0  0  0  0
  -23.0423   -4.3263   19.8308 C   0  0  0  0  0  0  0  0  0  0  0  0
  -31.9565  -25.5052   22.5313 C   0  0  0  0  0  0  0  0  0  0  0  0
  -20.6624   -4.4584   19.4362 C   0  0  0  0  0  0  0  0  0  0  0  0
  -29.7862  -17.9736   22.5578 C   0  0  0  0  0  0  0  0  0  0  0  0
  -23.8327  -10.4683   21.0063 C   0  0  0  0  0  0  0  0  0  0  0  0
  -24.1580  -12.9888   20.7855 C   0  0  0  0  0  0  0  0  0  0  0  0
  -23.0100  -24.2157   21.3455 C   0  0  0  0  0  0  0  0  0  0  0  0
  -29.8284  -25.6079   23.6805 C   0  0  0  0  0  0  0  0  0  0  0  0
  -24.3707  -23.9220   21.5568 C   0  0  0  0  0  0  0  0  0  0  0  0
  -30.6877  -26.0856   22.6807 C   0  0  0  0  0  0  0  0  0  0  0  0
  -22.3540   -8.1734   21.5800 C   0  0  0  0  0  0  0  0  0  0  0  0
  -32.3698  -24.4728   23.3729 C   0  0  0  0  0  0  0  0  0  0  0  0
  -21.7190   -5.9936   20.9737 C   0  0  0  0  0  0  0  0  0  0  0  0
  -21.8968   -3.8587   19.1868 C   0  0  0  0  0  0  0  0  0  0  0  0
  -20.5735   -5.5259   20.3296 C   0  0  0  0  0  0  0  0  0  0  0  0
  -24.5970  -11.6534   20.7105 C   0  0  0  0  0  0  0  0  0  0  0  0
  -30.5154  -17.0567   21.7772 C   0  0  0  0  0  0  0  0  0  0  0  0
  -30.6207  -19.0572   22.6838 C   0  0  0  0  0  0  0  0  0  0  0  0
  -25.2503  -13.7310   20.4078 C   0  0  0  0  0  0  0  0  0  0  0  0
  -22.8775  -13.5117   21.1630 C   0  0  0  0  0  0  0  0  0  0  0  0
  -27.4606  -25.9479   21.5873 C   0  0  0  0  0  0  0  0  0  0  0  0
  -28.5425  -29.0028   21.4492 C   0  0  0  0  0  0  0  0  0  0  0  0
  -31.1319  -31.1820   21.8885 C   0  0  0  0  0  0  0  0  0  0  0  0
  -30.7053  -14.8263   20.6216 C   0  0  0  0  0  0  0  0  0  0  0  0
  -22.5674  -25.2314   20.3222 C   0  0  0  0  0  0  0  0  0  0  0  0
  -28.4724  -26.2275   23.8795 C   0  0  0  0  0  0  0  0  0  0  0  0
  -30.2830  -27.2020   21.7541 C   0  0  0  0  0  0  0  0  0  0  0  0
  -23.6794  -26.1826   19.8876 C   0  0  0  0  0  0  0  0  0  0  0  0
  -29.6455  -12.3064   18.3403 C   0  0  0  0  0  0  0  0  0  0  0  0
  -24.9567  -25.4066   19.5824 C   0  0  0  0  0  0  0  0  0  0  0  0
  -28.2015  -12.0217   18.7598 C   0  0  0  0  0  0  0  0  0  0  0  0
  -30.5401  -12.5927   19.5451 C   0  0  0  0  0  0  0  0  0  0  0  0
  -28.6066  -13.3594   20.8653 C   0  0  0  0  0  0  0  0  0  0  0  0
  -25.4655  -24.6700   20.8275 C   0  0  1  0  0  0  0  0  0  0  0  0
  -27.9421  -26.9194   22.6275 C   0  0  1  0  0  0  0  0  0  0  0  0
  -27.6535  -13.1291   19.6812 C   0  0  2  0  0  0  0  0  0  0  0  0
  -31.7241  -33.6097   21.6583 C   0  0  0  0  0  0  0  0  0  0  0  0
  -28.7278  -28.6681   18.4221 C   0  0  0  0  0  0  0  0  0  0  0  0
  -30.1803  -30.7062   18.3556 C   0  0  0  0  0  0  0  0  0  0  0  0
  -27.8302  -30.8778   19.1742 C   0  0  0  0  0  0  0  0  0  0  0  0
  -37.5215  -20.8784   23.8071 C   0  0  0  0  0  0  0  0  0  0  0  0
  -35.7235  -20.5316   25.4806 C   0  0  0  0  0  0  0  0  0  0  0  0
  -36.5942  -18.5971   24.1534 C   0  0  0  0  0  0  0  0  0  0  0  0
  -29.2921  -20.6539   24.0661 C   0  0  0  0  0  0  0  0  0  0  0  0
  -31.7253  -31.4307   24.7773 C   0  0  0  0  0  0  0  0  0  0  0  0
  -33.8594  -19.5818   23.0861 C   0  0  0  0  0  0  0  0  0  0  0  0
  -34.8552  -21.9320   22.7380 C   0  0  0  0  0  0  0  0  0  0  0  0
  -32.9873  -19.5889   21.8233 C   0  0  0  0  0  0  0  0  0  0  0  0
  -33.7501  -22.5477   23.5847 C   0  0  0  0  0  0  0  0  0  1  0  0
  -29.5653  -29.7382   20.6174 C   0  0  1  0  0  0  0  0  0  0  0  0
  -31.2099  -32.5250   22.5920 C   0  0  2  0  0  0  0  0  0  0  0  0
  -35.1572  -20.4262   22.9595 C   0  0  1  0  0  0  0  0  0  0  0  0
  -29.0831  -29.9752   19.1584 C   0  0  0  0  0  0  0  0  0  0  0  0
  -36.2166  -20.0899   24.0871 C   0  0  0  0  0  0  0  0  0  0  0  0
  -25.8689  -11.5501   20.3160 N   0  0  0  0  0  0  0  0  0  0  0  0
  -31.7204  -17.5177   21.4315 N   0  0  0  0  0  0  0  0  0  0  0  0
  -26.2385  -12.8301   20.1396 N   0  0  0  0  0  0  0  0  0  0  0  0
  -31.7548  -18.7361   21.9975 N   0  0  0  0  0  0  0  0  0  0  0  0
  -28.9449  -27.7711   21.9846 N   0  0  0  0  0  0  0  0  0  0  0  0
  -29.9600  -13.6550   20.3696 N   0  0  0  0  0  0  0  0  0  0  0  0
  -25.4521  -15.0599   20.2821 N   0  0  0  0  0  0  0  0  0  0  0  0
  -21.8671  -12.6095   21.5227 N   0  0  0  0  0  0  0  0  0  0  0  0
  -30.0385  -15.7797   21.3903 N   0  0  0  0  0  0  0  0  0  0  0  0
  -30.4794  -20.2409   23.3149 N   0  0  0  0  0  0  0  0  0  0  0  0
  -26.1324  -25.5913   21.7224 N   0  0  0  0  0  0  0  0  0  0  0  0
  -29.8830  -30.9605   21.3477 N   0  0  0  0  0  0  0  0  0  0  0  0
  -32.1247  -32.4426   23.7656 N   0  3  0  0  0  0  0  0  0  0  0  0
  -22.6315  -14.7418   21.1649 O   0  0  0  0  0  0  0  0  0  0  0  0
  -28.2363  -25.5523   20.7250 O   0  0  0  0  0  0  0  0  0  0  0  0
  -27.4299  -29.5062   21.6236 O   0  0  0  0  0  0  0  0  0  0  0  0
  -32.0847  -30.4086   21.8220 O   0  0  0  0  0  0  0  0  0  0  0  0
  -31.8403  -14.9842   20.1645 O   0  0  0  0  0  0  0  0  0  0  0  0
  -21.6325   -7.0538   21.8603 O   0  0  0  0  0  0  0  0  0  0  0  0
  -33.6113  -23.9170   23.2166 O   0  0  0  0  0  0  0  0  0  1  0  0
  -21.9826   -2.8346   18.3277 F   0  0  0  0  0  0  0  0  0  0  0  0
  -19.3850   -6.0988   20.5643 F   0  0  0  0  0  0  0  0  0  0  0  0
  1  2  1  0  0  0  0
  1  5  2  0  0  0  0
  2  6  2  0  0  0  0
  3  8  2  0  0  0  0
  3 16  1  0  0  0  0
  4  9  1  0  0  0  0
  4 16  2  0  0  0  0
  5 18  1  0  0  0  0
  6 20  1  0  0  0  0
  7 10  2  0  0  0  0
  7 19  1  0  0  0  0
  8 22  1  0  0  0  0
  9 22  2  0  0  0  0
 10 23  1  0  0  0  0
 11 12  2  0  0  0  0
 11 24  1  0  0  0  0
 12 25  1  0  0  0  0
 13 21  1  0  0  0  0
 13 23  2  0  0  0  0
 14 25  2  0  0  0  0
 14 26  1  0  0  0  0
 15 28  1  0  0  0  0
 15 29  2  0  0  0  0
 16 27  1  0  0  0  0
 17 27  1  0  0  0  0
 17 30  2  0  0  0  0
 17 31  1  0  0  0  0
 18 20  2  0  0  0  0
 18 36  1  0  0  0  0
 19 21  2  0  0  0  0
 19 37  1  0  0  0  0
 20 45  1  0  0  0  0
 21 38  1  0  0  0  0
 22 84  1  0  0  0  0
 23 85  1  0  0  0  0
 24 26  2  0  0  0  0
 24 84  1  0  0  0  0
 25 86  1  0  0  0  0
 26 87  1  0  0  0  0
 27 66  2  0  0  0  0
 28 67  2  0  0  0  0
 28 74  1  0  0  0  0
 29 69  1  0  0  0  0
 29 75  1  0  0  0  0
 30 68  1  0  0  0  0
 30 72  1  0  0  0  0
 31 73  1  0  0  0  0
 31 79  2  0  0  0  0
 32 46  1  0  0  0  0
 32 76  1  0  0  0  0
 32 80  2  0  0  0  0
 33 61  1  0  0  0  0
 33 70  1  0  0  0  0
 33 81  2  0  0  0  0
 34 62  1  0  0  0  0
 34 77  1  0  0  0  0
 34 82  2  0  0  0  0
 35 71  1  0  0  0  0
 35 74  1  0  0  0  0
 35 83  2  0  0  0  0
 36 39  1  0  0  0  0
 37 46  1  0  0  0  0
 38 70  1  0  0  0  0
 39 41  1  0  0  0  0
 40 42  1  0  0  0  0
 40 43  1  0  0  0  0
 41 45  1  0  0  0  0
 42 47  1  0  0  0  0
 43 71  1  0  0  0  0
 44 47  1  0  0  0  0
 44 71  1  0  0  0  0
 45 76  1  0  0  0  0
 46 70  1  0  0  0  0
 47 68  1  0  0  0  0
 48 62  1  0  0  0  0
 49 64  1  0  0  0  0
 50 64  1  0  0  0  0
 51 64  1  0  0  0  0
 52 65  1  0  0  0  0
 53 65  1  0  0  0  0
 54 65  1  0  0  0  0
 55 75  1  0  0  0  0
 56 78  1  0  0  0  0
 57 59  1  0  0  0  0
 57 63  1  0  0  0  0
 58 60  1  0  0  0  0
 58 63  1  0  0  0  0
 59 69  1  0  0  0  0
 60 85  1  0  0  0  0
 61 64  1  0  0  0  0
 61 77  1  0  0  0  0
 62 78  1  0  0  0  0
 63 65  1  0  0  0  0
 66 68  1  0  0  0  0
 67 69  1  0  0  0  0
M  CHG  1  78   1
M  ISO  4  35 100  60 101  74 100  85 101
M  END
> <Batch ID>
0196

> <Smiles>
CNc1cc([100NH:0][100C:0](=O)N2CCCC(n3nc(-c4ccc(Oc5ccc(F)cc5F)cc4)c(C(N)=O)c3N)C2)nn1CCC(C[101CH2:1][101O:1]c1ccc2c(c1)CN(C(=O)C(NC(=O)C(C)NC)C(C)(C)C)C(C(=O)NC1CCCc3ccccc31)C2)C(C)(C)C

> <Shape>
0.187

> <Color>
0.186

> <Negative vol penalty>
0.000

$$$$

  -OEChem-04052305393D

 89 97  0     1  0  0  0  0  0999 V2000
  -25.7318  -20.3733   15.9291 C   0  0  0  0  0  0  0  0  0  0  0  0
  -25.1169  -21.4854   16.4953 C   0  0  0  0  0  0  0  0  0  0  0  0
  -25.5666  -14.6148   20.4159 C   0  0  0  0  0  0  0  0  0  0  0  0
  -24.2613  -14.0877   22.3794 C   0  0  0  0  0  0  0  0  0  0  0  0
  -26.9610  -19.9334   16.4183 C   0  0  0  0  0  0  0  0  0  0  0  0
  -25.7304  -22.1576   17.5518 C   0  0  0  0  0  0  0  0  0  0  0  0
  -25.5807  -28.1773   18.6681 C   0  0  0  0  0  0  0  0  0  0  0  0
  -25.7845  -13.2548   20.1957 C   0  0  0  0  0  0  0  0  0  0  0  0
  -24.4792  -12.7277   22.1592 C   0  0  0  0  0  0  0  0  0  0  0  0
  -24.8071  -28.9523   19.5310 C   0  0  0  0  0  0  0  0  0  0  0  0
  -24.3905   -9.1017   21.9101 C   0  0  0  0  0  0  0  0  0  0  0  0
  -23.2987   -8.2416   22.0287 C   0  0  0  0  0  0  0  0  0  0  0  0
  -26.5728  -28.8761   21.1728 C   0  0  0  0  0  0  0  0  0  0  0  0
  -22.1624   -9.4412   20.2661 C   0  0  0  0  0  0  0  0  0  0  0  0
  -24.8050  -15.0313   21.5078 C   0  0  0  0  0  0  0  0  0  0  0  0
  -23.5194  -17.2185   21.2414 C   0  0  0  0  0  0  0  0  0  0  0  0
  -27.5945  -20.6062   17.4750 C   0  0  0  0  0  0  0  0  0  0  0  0
  -26.8540  -27.7360   19.0560 C   0  0  0  0  0  0  0  0  0  0  0  0
  -26.9686  -21.7254   18.0565 C   0  0  0  0  0  0  0  0  0  0  0  0
  -27.3617  -28.0977   20.3119 C   0  0  0  0  0  0  0  0  0  0  0  0
  -25.2408  -12.3113   21.0673 C   0  0  0  0  0  0  0  0  0  0  0  0
  -25.3019  -29.2994   20.7847 C   0  0  0  0  0  0  0  0  0  0  0  0
  -24.3681  -10.1316   20.9696 C   0  0  0  0  0  0  0  0  0  0  0  0
  -22.1847   -8.4114   21.2066 C   0  0  0  0  0  0  0  0  0  0  0  0
  -23.2541  -10.3013   20.1476 C   0  0  0  0  0  0  0  0  0  0  0  0
  -24.5800  -16.4361   21.7361 C   0  0  0  0  0  0  0  0  0  0  0  0
  -23.7591  -18.4759   21.7393 C   0  0  0  0  0  0  0  0  0  0  0  0
  -22.8229  -25.3132   23.1269 C   0  0  0  0  0  0  0  0  0  0  0  0
  -22.5002  -26.1735   24.1027 C   0  0  0  0  0  0  0  0  0  0  0  0
  -22.5634  -25.4203   25.4024 C   0  0  0  0  0  0  0  0  0  0  0  0
  -22.4162  -16.8423   20.4065 C   0  0  0  0  0  0  0  0  0  0  0  0
  -28.2017  -24.8926   19.5059 C   0  0  0  0  0  0  0  0  0  0  0  0
  -30.8864  -26.6651   19.9221 C   0  0  0  0  0  0  0  0  0  0  0  0
  -32.2739  -29.6723   20.7456 C   0  0  0  0  0  0  0  0  0  0  0  0
  -25.1912  -21.8695   25.9157 C   0  0  0  0  0  0  0  0  0  0  0  0
  -28.9003  -20.0651   18.0011 C   0  0  0  0  0  0  0  0  0  0  0  0
  -27.6868  -26.9231   18.1031 C   0  0  0  0  0  0  0  0  0  0  0  0
  -28.7307  -27.6663   20.7681 C   0  0  0  0  0  0  0  0  0  0  0  0
  -29.6625  -21.0571   18.8758 C   0  0  0  0  0  0  0  0  0  0  0  0
  -27.8291  -20.3757   24.0689 C   0  0  0  0  0  0  0  0  0  0  0  0
  -28.7249  -21.7050   19.8897 C   0  0  0  0  0  0  0  0  0  0  0  0
  -27.1336  -19.2807   23.2575 C   0  0  0  0  0  0  0  0  0  0  0  0
  -27.2186  -20.5203   25.4613 C   0  0  0  0  0  0  0  0  0  0  0  0
  -25.0641  -19.6261   24.6699 C   0  0  0  0  0  0  0  0  0  0  0  0
  -27.6145  -22.4958   19.1876 C   0  0  1  0  0  0  0  0  0  0  0  0
  -28.7614  -26.0973   18.8036 C   0  0  1  0  0  0  0  0  0  0  0  0
  -25.6059  -19.4812   23.2376 C   0  0  2  0  0  0  0  0  0  0  0  0
  -19.9221  -25.5750   28.2402 C   0  0  0  0  0  0  0  0  0  0  0  0
  -34.4951  -30.8042   21.0335 C   0  0  0  0  0  0  0  0  0  0  0  0
  -23.7943  -25.2593   28.2148 C   0  0  0  0  0  0  0  0  0  0  0  0
  -20.7985  -27.8489   22.1110 C   0  0  0  0  0  0  0  0  0  0  0  0
  -31.2673  -25.2336   22.5897 C   0  0  0  0  0  0  0  0  0  0  0  0
  -32.8928  -27.0238   23.2388 C   0  0  0  0  0  0  0  0  0  0  0  0
  -33.3680  -25.5632   21.2733 C   0  0  0  0  0  0  0  0  0  0  0  0
  -31.6755  -31.6435   18.6207 C   0  0  0  0  0  0  0  0  0  0  0  0
  -21.3585  -25.6326   28.7432 C   0  0  0  0  0  0  0  0  0  0  0  0
  -22.1635  -29.7128   23.1154 C   0  0  0  0  0  0  0  0  0  0  0  0
  -24.7398  -29.8516   23.0286 C   0  0  0  0  0  0  0  0  0  1  0  0
  -23.0593  -23.1103   26.2735 C   0  0  0  0  0  0  0  0  0  0  0  0
  -31.5610  -27.3230   21.1016 C   0  0  1  0  0  0  0  0  0  0  0  0
  -33.3546  -30.5006   20.0744 C   0  0  2  0  0  0  0  0  0  0  0  0
  -22.3670  -25.1649   27.6907 C   0  0  1  0  0  0  0  0  0  0  0  0
  -22.0974  -28.2076   22.8271 C   0  0  1  0  0  0  0  0  0  0  0  0
  -23.4607  -30.1828   23.7938 C   0  0  1  0  0  0  0  0  0  0  0  0
  -32.2457  -26.2926   22.0433 C   0  0  0  0  0  0  0  0  0  0  0  0
  -25.4302  -17.1377   22.4903 N   0  0  0  0  0  0  0  0  0  0  0  0
  -22.2615  -26.0139   26.5163 N   0  0  0  0  0  0  0  0  0  0  0  0
  -24.9043  -18.3742   22.4731 N   0  0  0  0  0  0  0  0  0  0  0  0
  -22.9613  -24.1012   25.2358 N   0  0  0  0  0  0  0  0  0  0  0  0
  -29.5042  -26.8676   19.8031 N   0  0  0  0  0  0  0  0  0  0  0  0
  -25.7694  -20.7125   25.3676 N   0  0  0  0  0  0  0  0  0  0  0  0
  -23.1000  -19.6477   21.6165 N   0  0  0  0  0  0  0  0  0  0  0  0
  -22.3216  -15.5091   19.9848 N   0  0  0  0  0  0  0  0  0  0  0  0
  -22.1663  -27.4579   24.0636 N   0  0  0  0  0  0  0  0  0  0  0  0
  -28.1215  -23.7649   18.7114 N   0  0  0  0  0  0  0  0  0  0  0  0
  -32.4688  -28.3217   20.5478 N   0  0  0  0  0  0  0  0  0  0  0  0
  -23.8123  -21.9773   25.7746 N   0  0  0  0  0  0  0  0  0  0  0  0
  -32.7912  -31.7926   19.5902 N   0  3  0  0  0  0  0  0  0  0  0  0
  -21.5492  -17.6678   20.0316 O   0  0  0  0  0  0  0  0  0  0  0  0
  -27.8689  -24.9794   20.6821 O   0  0  0  0  0  0  0  0  0  0  0  0
  -31.5623  -26.0020   19.1314 O   0  0  0  0  0  0  0  0  0  0  0  0
  -31.3514  -30.1732   21.3849 O   0  0  0  0  0  0  0  0  0  0  0  0
  -25.8561  -22.7444   26.4806 O   0  0  0  0  0  0  0  0  0  0  0  0
  -23.4003  -31.6045   23.9389 O   0  0  0  0  0  0  0  0  0  0  0  0
  -25.4531  -10.9841   20.8526 O   0  0  0  0  0  0  0  0  0  0  0  0
  -24.5486  -30.0552   21.6292 O   0  0  0  0  0  0  0  0  0  1  0  0
  -21.1370   -7.5845   21.3195 F   0  0  0  0  0  0  0  0  0  0  0  0
  -23.2273  -11.2882   19.2414 F   0  0  0  0  0  0  0  0  0  0  0  0
  -23.1925  -23.6922   23.6332 S   0  0  0  0  0  0  0  0  0  0  0  0
  1  2  1  0  0  0  0
  1  5  2  0  0  0  0
  2  6  2  0  0  0  0
  3  8  2  0  0  0  0
  3 15  1  0  0  0  0
  4  9  1  0  0  0  0
  4 15  2  0  0  0  0
  5 17  1  0  0  0  0
  6 19  1  0  0  0  0
  7 10  2  0  0  0  0
  7 18  1  0  0  0  0
  8 21  1  0  0  0  0
  9 21  2  0  0  0  0
 10 22  1  0  0  0  0
 11 12  2  0  0  0  0
 11 23  1  0  0  0  0
 12 24  1  0  0  0  0
 13 20  1  0  0  0  0
 13 22  2  0  0  0  0
 14 24  2  0  0  0  0
 14 25  1  0  0  0  0
 15 26  1  0  0  0  0
 16 26  1  0  0  0  0
 16 27  2  0  0  0  0
 16 31  1  0  0  0  0
 17 19  2  0  0  0  0
 17 36  1  0  0  0  0
 18 20  2  0  0  0  0
 18 37  1  0  0  0  0
 19 45  1  0  0  0  0
 20 38  1  0  0  0  0
 21 85  1  0  0  0  0
 22 86  1  0  0  0  0
 23 25  2  0  0  0  0
 23 85  1  0  0  0  0
 24 87  1  0  0  0  0
 25 88  1  0  0  0  0
 26 66  2  0  0  0  0
 27 68  1  0  0  0  0
 27 72  1  0  0  0  0
 28 29  2  0  0  0  0
 28 89  1  0  0  0  0
 29 30  1  0  0  0  0
 29 74  1  0  0  0  0
 30 67  2  0  0  0  0
 30 69  1  0  0  0  0
 31 73  1  0  0  0  0
 31 79  2  0  0  0  0
 32 46  1  0  0  0  0
 32 75  1  0  0  0  0
 32 80  2  0  0  0  0
 33 60  1  0  0  0  0
 33 70  1  0  0  0  0
 33 81  2  0  0  0  0
 34 61  1  0  0  0  0
 34 76  1  0  0  0  0
 34 82  2  0  0  0  0
 35 71  1  0  0  0  0
 35 77  1  0  0  0  0
 35 83  2  0  0  0  0
 36 39  1  0  0  0  0
 37 46  1  0  0  0  0
 38 70  1  0  0  0  0
 39 41  1  0  0  0  0
 40 42  1  0  0  0  0
 40 43  1  0  0  0  0
 41 45  1  0  0  0  0
 42 47  1  0  0  0  0
 43 71  1  0  0  0  0
 44 47  1  0  0  0  0
 44 71  1  0  0  0  0
 45 75  1  0  0  0  0
 46 70  1  0  0  0  0
 47 68  1  0  0  0  0
 48 56  1  0  0  0  0
 49 61  1  0  0  0  0
 50 62  1  0  0  0  0
 51 63  1  0  0  0  0
 52 65  1  0  0  0  0
 53 65  1  0  0  0  0
 54 65  1  0  0  0  0
 55 78  1  0  0  0  0
 56 62  1  0  0  0  0
 57 63  1  0  0  0  0
 57 64  1  0  0  0  0
 58 64  1  0  0  0  0
 58 86  1  0  0  0  0
 59 69  1  0  0  0  0
 59 77  1  0  0  0  0
 60 65  1  0  0  0  0
 60 76  1  0  0  0  0
 61 78  1  0  0  0  0
 62 67  1  0  0  0  0
 63 74  1  0  0  0  0
 64 84  1  0  0  0  0
 66 68  1  0  0  0  0
 69 89  1  0  0  0  0
M  CHG  1  78   1
M  ISO  4  35 100  58 101  77 100  86 101
M  END
> <Batch ID>
0196

> <Smiles>
CCC(C)N=c1c(NC(C)CC(O)[101CH2:1][101O:1]c2ccc3c(c2)CN(C(=O)C(NC(=O)C(C)NC)C(C)(C)C)C(C(=O)NC2CCCc4ccccc42)C3)csn1C[100NH:0][100C:0](=O)N1CCCC(n2nc(-c3ccc(Oc4ccc(F)cc4F)cc3)c(C(N)=O)c2N)C1

> <Shape>
0.192

> <Color>
0.066

> <Negative vol penalty>
0.000

$$$$

  -OEChem-04052305393D

 83 91  0     1  0  0  0  0  0999 V2000
  -20.8506  -34.8612   22.5502 C   0  0  0  0  0  0  0  0  0  0  0  0
  -22.0417  -34.2716   22.1390 C   0  0  0  0  0  0  0  0  0  0  0  0
  -23.0381  -10.1885   22.5757 C   0  0  0  0  0  0  0  0  0  0  0  0
  -24.3278   -9.6760   20.5981 C   0  0  0  0  0  0  0  0  0  0  0  0
  -19.9622  -34.1481   23.3541 C   0  0  0  0  0  0  0  0  0  0  0  0
  -22.3456  -32.9688   22.5325 C   0  0  0  0  0  0  0  0  0  0  0  0
  -25.3606  -28.7483   19.2763 C   0  0  0  0  0  0  0  0  0  0  0  0
  -22.3169   -9.0059   22.4119 C   0  0  0  0  0  0  0  0  0  0  0  0
  -23.6066   -8.4933   20.4342 C   0  0  0  0  0  0  0  0  0  0  0  0
  -26.6895  -28.3268   19.2890 C   0  0  0  0  0  0  0  0  0  0  0  0
  -22.7682   -5.7093   23.0132 C   0  0  0  0  0  0  0  0  0  0  0  0
  -22.5530   -4.9195   24.1426 C   0  0  0  0  0  0  0  0  0  0  0  0
  -26.0920  -26.5064   20.7546 C   0  0  0  0  0  0  0  0  0  0  0  0
  -20.1661   -5.1526   23.8507 C   0  0  0  0  0  0  0  0  0  0  0  0
  -30.5089  -17.4553   19.7075 C   0  0  0  0  0  0  0  0  0  0  0  0
  -24.0435  -10.5236   21.6688 C   0  0  0  0  0  0  0  0  0  0  0  0
  -25.9790  -11.9213   22.5676 C   0  0  0  0  0  0  0  0  0  0  0  0
  -20.2510  -32.8326   23.7497 C   0  0  0  0  0  0  0  0  0  0  0  0
  -24.3877  -28.0572   20.0127 C   0  0  0  0  0  0  0  0  0  0  0  0
  -21.4609  -32.2380   23.3436 C   0  0  0  0  0  0  0  0  0  0  0  0
  -24.7510  -26.9196   20.7476 C   0  0  0  0  0  0  0  0  0  0  0  0
  -22.6011   -8.1583   21.3412 C   0  0  0  0  0  0  0  0  0  0  0  0
  -27.0559  -27.2074   20.0305 C   0  0  0  0  0  0  0  0  0  0  0  0
  -21.6824   -6.2208   22.3026 C   0  0  0  0  0  0  0  0  0  0  0  0
  -21.2520   -4.6411   24.5613 C   0  0  0  0  0  0  0  0  0  0  0  0
  -20.3813   -5.9424   22.7213 C   0  0  0  0  0  0  0  0  0  0  0  0
  -24.7885  -11.7453   21.8371 C   0  0  0  0  0  0  0  0  0  0  0  0
  -29.2817  -18.0220   19.4339 C   0  0  0  0  0  0  0  0  0  0  0  0
  -26.2801  -13.2530   22.4179 C   0  0  0  0  0  0  0  0  0  0  0  0
  -30.5445  -19.7774   19.0679 C   0  0  0  0  0  0  0  0  0  0  0  0
  -26.7443  -10.9663   23.3147 C   0  0  0  0  0  0  0  0  0  0  0  0
  -22.4496  -28.7995   22.4203 C   0  0  0  0  0  0  0  0  0  0  0  0
  -21.2560  -25.8357   21.8607 C   0  0  0  0  0  0  0  0  0  0  0  0
  -21.7545  -22.7007   20.6076 C   0  0  0  0  0  0  0  0  0  0  0  0
  -26.7779  -17.8086   19.2554 C   0  0  0  0  0  0  0  0  0  0  0  0
  -19.2818  -32.1183   24.6581 C   0  0  0  0  0  0  0  0  0  0  0  0
  -22.9537  -28.5089   19.9673 C   0  0  0  0  0  0  0  0  0  0  0  0
  -23.7409  -26.1308   21.5389 C   0  0  0  0  0  0  0  0  0  0  0  0
  -19.5055  -30.6097   24.7219 C   0  0  0  0  0  0  0  0  0  0  0  0
  -23.5346  -17.0574   20.5178 C   0  0  0  0  0  0  0  0  0  0  0  0
  -20.9866  -30.2971   24.9101 C   0  0  0  0  0  0  0  0  0  0  0  0
  -23.6696  -15.6229   21.0337 C   0  0  0  0  0  0  0  0  0  0  0  0
  -24.3495  -17.2815   19.2452 C   0  0  0  0  0  0  0  0  0  0  0  0
  -25.8998  -15.4666   19.8551 C   0  0  0  0  0  0  0  0  0  0  0  0
  -21.8147  -30.8180   23.7293 C   0  0  1  0  0  0  0  0  0  0  0  0
  -22.1390  -28.0327   21.1660 C   0  0  1  0  0  0  0  0  0  0  0  0
  -25.1483  -15.2105   21.1717 C   0  0  2  0  0  0  0  0  0  0  0  0
  -20.6086  -20.4856   20.3287 C   0  0  0  0  0  0  0  0  0  0  0  0
  -21.7117  -25.2305   24.8164 C   0  0  0  0  0  0  0  0  0  0  0  0
  -21.4641  -22.7966   24.2846 C   0  0  0  0  0  0  0  0  0  0  0  0
  -19.5579  -24.3572   23.8927 C   0  0  0  0  0  0  0  0  0  0  0  0
  -21.9455  -22.8423   17.6576 C   0  0  0  0  0  0  0  0  0  0  0  0
  -30.2002  -25.9800   18.7480 C   0  0  0  0  0  0  0  0  0  0  0  0
  -29.5838  -24.5834   18.6407 C   0  0  0  0  0  0  0  0  0  0  0  0
  -30.0003  -22.1107   18.3713 C   0  0  0  0  0  0  0  0  0  0  0  0
  -29.1306  -27.0558   18.8778 C   0  0  0  0  0  0  0  0  0  1  0  0
  -21.5674  -24.4458   22.3609 C   0  0  1  0  0  0  0  0  0  0  0  0
  -20.9066  -21.8348   19.6934 C   0  0  2  0  0  0  0  0  0  0  0  0
  -30.6497  -23.4854   18.5391 C   0  0  1  0  0  0  0  0  0  0  0  0
  -21.0949  -24.2233   23.8254 C   0  0  0  0  0  0  0  0  0  0  0  0
  -24.3624  -12.8750   21.2659 N   0  0  0  0  0  0  0  0  0  0  0  0
  -29.3001  -19.3536   19.0674 N   0  0  0  0  0  0  0  0  0  0  0  0
  -25.2901  -13.7735   21.6375 N   0  0  0  0  0  0  0  0  0  0  0  0
  -22.3527  -26.6159   21.4678 N   0  0  0  0  0  0  0  0  0  0  0  0
  -25.7405  -16.8727   19.4521 N   0  0  0  0  0  0  0  0  0  0  0  0
  -27.2925  -14.0178   22.8790 N   0  0  0  0  0  0  0  0  0  0  0  0
  -26.2927   -9.6405   23.3648 N   0  0  0  0  0  0  0  0  0  0  0  0
  -28.0563  -17.3150   19.5135 N   0  0  0  0  0  0  0  0  0  0  0  0
  -30.9291  -21.0683   18.7474 N   0  0  0  0  0  0  0  0  0  0  0  0
  -21.6814  -29.9355   22.5901 N   0  0  0  0  0  0  0  0  0  0  0  0
  -20.9783  -23.5233   21.3963 N   0  0  0  0  0  0  0  0  0  0  0  0
  -21.6116  -21.6005   18.4014 N   0  3  0  0  0  0  0  0  0  0  0  0
  -27.7885  -11.2830   23.9335 O   0  0  0  0  0  0  0  0  0  0  0  0
  -23.3207  -28.3900   23.1787 O   0  0  0  0  0  0  0  0  0  0  0  0
  -20.0824  -26.2126   21.8134 O   0  0  0  0  0  0  0  0  0  0  0  0
  -22.9823  -22.6496   20.6234 O   0  0  0  0  0  0  0  0  0  0  0  0
  -26.5470  -18.9706   18.9115 O   0  0  0  0  0  0  0  0  0  0  0  0
  -31.4701  -23.7585   17.4040 O   0  0  0  0  0  0  0  0  0  0  0  0
  -21.8977   -7.0041   21.1811 O   0  0  0  0  0  0  0  0  0  0  0  0
  -28.3524  -26.7943   20.0450 O   0  0  0  0  0  0  0  0  0  1  0  0
  -21.0454   -3.8814   25.6450 F   0  0  0  0  0  0  0  0  0  0  0  0
  -19.3341   -6.4300   22.0421 F   0  0  0  0  0  0  0  0  0  0  0  0
  -31.7433  -18.6275   19.4987 S   0  0  0  0  0  0  0  0  0  0  0  0
  1  2  1  0  0  0  0
  1  5  2  0  0  0  0
  2  6  2  0  0  0  0
  3  8  2  0  0  0  0
  3 16  1  0  0  0  0
  4  9  1  0  0  0  0
  4 16  2  0  0  0  0
  5 18  1  0  0  0  0
  6 20  1  0  0  0  0
  7 10  2  0  0  0  0
  7 19  1  0  0  0  0
  8 22  1  0  0  0  0
  9 22  2  0  0  0  0
 10 23  1  0  0  0  0
 11 12  2  0  0  0  0
 11 24  1  0  0  0  0
 12 25  1  0  0  0  0
 13 21  1  0  0  0  0
 13 23  2  0  0  0  0
 14 25  2  0  0  0  0
 14 26  1  0  0  0  0
 15 28  2  0  0  0  0
 15 83  1  0  0  0  0
 16 27  1  0  0  0  0
 17 27  1  0  0  0  0
 17 29  2  0  0  0  0
 17 31  1  0  0  0  0
 18 20  2  0  0  0  0
 18 36  1  0  0  0  0
 19 21  2  0  0  0  0
 19 37  1  0  0  0  0
 20 45  1  0  0  0  0
 21 38  1  0  0  0  0
 22 79  1  0  0  0  0
 23 80  1  0  0  0  0
 24 26  2  0  0  0  0
 24 79  1  0  0  0  0
 25 81  1  0  0  0  0
 26 82  1  0  0  0  0
 27 61  2  0  0  0  0
 28 62  1  0  0  0  0
 28 68  1  0  0  0  0
 29 63  1  0  0  0  0
 29 66  1  0  0  0  0
 30 62  2  0  0  0  0
 30 69  1  0  0  0  0
 30 83  1  0  0  0  0
 31 67  1  0  0  0  0
 31 73  2  0  0  0  0
 32 46  1  0  0  0  0
 32 70  1  0  0  0  0
 32 74  2  0  0  0  0
 33 57  1  0  0  0  0
 33 64  1  0  0  0  0
 33 75  2  0  0  0  0
 34 58  1  0  0  0  0
 34 71  1  0  0  0  0
 34 76  2  0  0  0  0
 35 65  1  0  0  0  0
 35 68  1  0  0  0  0
 35 77  2  0  0  0  0
 36 39  1  0  0  0  0
 37 46  1  0  0  0  0
 38 64  1  0  0  0  0
 39 41  1  0  0  0  0
 40 42  1  0  0  0  0
 40 43  1  0  0  0  0
 41 45  1  0  0  0  0
 42 47  1  0  0  0  0
 43 65  1  0  0  0  0
 44 47  1  0  0  0  0
 44 65  1  0  0  0  0
 45 70  1  0  0  0  0
 46 64  1  0  0  0  0
 47 63  1  0  0  0  0
 48 58  1  0  0  0  0
 49 60  1  0  0  0  0
 50 60  1  0  0  0  0
 51 60  1  0  0  0  0
 52 72  1  0  0  0  0
 53 54  1  0  0  0  0
 53 56  1  0  0  0  0
 54 59  1  0  0  0  0
 55 59  1  0  0  0  0
 55 69  1  0  0  0  0
 56 80  1  0  0  0  0
 57 60  1  0  0  0  0
 57 71  1  0  0  0  0
 58 72  1  0  0  0  0
 59 78  1  0  0  0  0
 61 63  1  0  0  0  0
M  CHG  1  72   1
M  ISO  4  35 100  56 101  68 100  80 101
M  END
> <Batch ID>
0196

> <Smiles>
CNC(C)C(=O)NC(C(=O)N1Cc2cc([101O:1][101CH2:1]CCC(O)CNc3nc([100NH:0][100C:0](=O)N4CCCC(n5nc(-c6ccc(Oc7ccc(F)cc7F)cc6)c(C(N)=O)c5N)C4)cs3)ccc2CC1C(=O)NC1CCCc2ccccc21)C(C)(C)C

> <Shape>
0.231

> <Color>
0.116

> <Negative vol penalty>
0.000

$$$$

  -OEChem-04052305393D

 86 94  0     1  0  0  0  0  0999 V2000
  -30.5267  -25.1553   17.6321 C   0  0  0  0  0  0  0  0  0  0  0  0
  -29.1520  -25.0473   17.8163 C   0  0  0  0  0  0  0  0  0  0  0  0
  -25.3032  -14.1310   20.7163 C   0  0  0  0  0  0  0  0  0  0  0  0
  -26.8548  -14.6710   22.4878 C   0  0  0  0  0  0  0  0  0  0  0  0
  -31.3097  -25.7931   18.5933 C   0  0  0  0  0  0  0  0  0  0  0  0
  -28.5597  -25.5761   18.9626 C   0  0  0  0  0  0  0  0  0  0  0  0
  -23.0184  -28.1485   19.3909 C   0  0  0  0  0  0  0  0  0  0  0  0
  -26.3341  -13.5255   19.9979 C   0  0  0  0  0  0  0  0  0  0  0  0
  -27.8858  -14.0654   21.7694 C   0  0  0  0  0  0  0  0  0  0  0  0
  -21.7859  -27.6556   19.8171 C   0  0  0  0  0  0  0  0  0  0  0  0
  -28.0073  -10.5875   20.0390 C   0  0  0  0  0  0  0  0  0  0  0  0
  -27.7487   -9.3478   19.4544 C   0  0  0  0  0  0  0  0  0  0  0  0
  -22.1829  -28.5767   22.0110 C   0  0  0  0  0  0  0  0  0  0  0  0
  -28.2246  -10.2762   17.2752 C   0  0  0  0  0  0  0  0  0  0  0  0
  -22.5032  -20.8323   19.9195 C   0  0  0  0  0  0  0  0  0  0  0  0
  -23.2043  -20.8598   21.1000 C   0  0  0  0  0  0  0  0  0  0  0  0
  -25.5636  -14.7038   21.9612 C   0  0  0  0  0  0  0  0  0  0  0  0
  -23.3128  -14.7264   23.1618 C   0  0  0  0  0  0  0  0  0  0  0  0
  -30.7254  -26.3385   19.7474 C   0  0  0  0  0  0  0  0  0  0  0  0
  -23.8487  -28.8510   20.2762 C   0  0  0  0  0  0  0  0  0  0  0  0
  -29.3358  -26.2206   19.9409 C   0  0  0  0  0  0  0  0  0  0  0  0
  -23.4244  -29.0797   21.5929 C   0  0  0  0  0  0  0  0  0  0  0  0
  -27.6254  -13.4926   20.5244 C   0  0  0  0  0  0  0  0  0  0  0  0
  -21.3692  -27.8672   21.1281 C   0  0  0  0  0  0  0  0  0  0  0  0
  -28.3744  -11.6716   19.2418 C   0  0  0  0  0  0  0  0  0  0  0  0
  -27.8574   -9.1921   18.0725 C   0  0  0  0  0  0  0  0  0  0  0  0
  -28.4831  -11.5160   17.8599 C   0  0  0  0  0  0  0  0  0  0  0  0
  -24.4992  -15.3300   22.7036 C   0  0  0  0  0  0  0  0  0  0  0  0
  -22.6401  -15.7362   23.8053 C   0  0  0  0  0  0  0  0  0  0  0  0
  -21.1766  -21.6543   21.3591 C   0  0  0  0  0  0  0  0  0  0  0  0
  -22.8595  -13.3737   23.0186 C   0  0  0  0  0  0  0  0  0  0  0  0
  -20.0190  -22.4392   21.8329 C   0  0  0  0  0  0  0  0  0  0  0  0
  -26.7616  -28.3911   21.4625 C   0  0  0  0  0  0  0  0  0  0  0  0
  -26.2932  -31.3454   22.7175 C   0  0  0  0  0  0  0  0  0  0  0  0
  -24.0902  -33.7439   23.7377 C   0  0  0  0  0  0  0  0  0  0  0  0
  -22.6745  -21.6174   23.3864 C   0  0  0  0  0  0  0  0  0  0  0  0
  -31.6189  -26.9770   20.7811 C   0  0  0  0  0  0  0  0  0  0  0  0
  -25.1635  -29.3993   19.7935 C   0  0  0  0  0  0  0  0  0  0  0  0
  -24.2696  -29.8452   22.5768 C   0  0  0  0  0  0  0  0  0  0  0  0
  -30.8643  -27.8404   21.7887 C   0  0  0  0  0  0  0  0  0  0  0  0
  -23.3316  -19.7826   26.2240 C   0  0  0  0  0  0  0  0  0  0  0  0
  -29.6297  -27.1062   22.3020 C   0  0  0  0  0  0  0  0  0  0  0  0
  -23.5982  -18.3704   25.7060 C   0  0  0  0  0  0  0  0  0  0  0  0
  -23.9688  -20.8254   25.3136 C   0  0  0  0  0  0  0  0  0  0  0  0
  -23.7772  -19.3270   23.3541 C   0  0  0  0  0  0  0  0  0  0  0  0
  -28.6531  -26.8033   21.1593 C   0  0  1  0  0  0  0  0  0  0  0  0
  -26.1551  -29.6560   20.9241 C   0  0  1  0  0  0  0  0  0  0  0  0
  -23.1523  -18.2296   24.2405 C   0  0  1  0  0  0  0  0  0  0  0  0
  -24.0056  -36.0367   24.7542 C   0  0  0  0  0  0  0  0  0  0  0  0
  -15.7391  -23.6023   18.3099 C   0  0  0  0  0  0  0  0  0  0  0  0
  -17.2375  -21.9231   19.4096 C   0  0  0  0  0  0  0  0  0  0  0  0
  -15.4309  -23.0414   20.7211 C   0  0  0  0  0  0  0  0  0  0  0  0
  -26.9815  -30.1596   25.4434 C   0  0  0  0  0  0  0  0  0  0  0  0
  -25.9754  -32.1922   26.5039 C   0  0  0  0  0  0  0  0  0  0  0  0
  -27.9612  -32.4197   25.0114 C   0  0  0  0  0  0  0  0  0  0  0  0
  -22.6988  -34.8650   21.3784 C   0  0  0  0  0  0  0  0  0  0  0  0
  -18.8187  -25.4299   21.9127 C   0  0  0  0  0  0  0  0  0  0  0  0
  -17.4447  -24.3788   20.0666 C   0  0  0  0  0  0  0  0  0  0  0  0
  -19.6888  -26.1969   20.9227 C   0  0  0  0  0  0  0  0  0  1  0  0
  -25.7070  -31.8808   24.0015 C   0  0  1  0  0  0  0  0  0  0  0  0
  -24.0258  -35.2353   23.4618 C   0  0  2  0  0  0  0  0  0  0  0  0
  -18.2797  -24.1182   21.3309 C   0  0  1  0  0  0  0  0  0  0  0  0
  -16.4797  -23.2473   19.6081 C   0  0  0  0  0  0  0  0  0  0  0  0
  -26.6410  -31.6470   25.2223 C   0  0  0  0  0  0  0  0  0  0  0  0
  -21.2427  -21.3294   20.0873 N   0  0  0  0  0  0  0  0  0  0  0  0
  -24.5784  -16.6232   23.0283 N   0  0  0  0  0  0  0  0  0  0  0  0
  -22.3648  -21.4418   22.0293 N   0  0  0  0  0  0  0  0  0  0  0  0
  -23.4333  -16.8404   23.6973 N   0  0  0  0  0  0  0  0  0  0  0  0
  -25.5496  -30.3559   22.0589 N   0  0  0  0  0  0  0  0  0  0  0  0
  -23.5320  -20.6616   23.9279 N   0  0  0  0  0  0  0  0  0  0  0  0
  -21.4533  -15.7785   24.4472 N   0  0  0  0  0  0  0  0  0  0  0  0
  -22.0881  -13.0428   21.8962 N   0  0  0  0  0  0  0  0  0  0  0  0
  -19.6146  -22.2652   23.0911 N   0  0  0  0  0  0  0  0  0  0  0  0
  -27.9082  -27.9917   20.8027 N   0  0  0  0  0  0  0  0  0  0  0  0
  -25.3896  -33.2828   23.7518 N   0  0  0  0  0  0  0  0  0  0  0  0
  -19.4336  -23.2823   20.9768 N   0  3  0  0  0  0  0  0  0  0  0  0
  -22.7980  -35.5658   22.6846 N   0  3  0  0  0  0  0  0  0  0  0  0
  -23.1167  -12.4885   23.8694 O   0  0  0  0  0  0  0  0  0  0  0  0
  -26.2296  -27.8205   22.4075 O   0  0  0  0  0  0  0  0  0  0  0  0
  -27.3678  -31.7938   22.3101 O   0  0  0  0  0  0  0  0  0  0  0  0
  -23.0883  -33.0574   23.9257 O   0  0  0  0  0  0  0  0  0  0  0  0
  -22.2264  -22.6108   23.9460 O   0  0  0  0  0  0  0  0  0  0  0  0
  -28.6315  -12.9016   19.8238 O   0  0  0  0  0  0  0  0  0  0  0  0
  -20.1584  -27.3831   21.5498 O   0  0  0  0  0  0  0  0  0  1  0  0
  -27.6106   -8.0011   17.5113 F   0  0  0  0  0  0  0  0  0  0  0  0
  -28.8365  -12.5535   17.0889 F   0  0  0  0  0  0  0  0  0  0  0  0
  1  2  1  0  0  0  0
  1  5  2  0  0  0  0
  2  6  2  0  0  0  0
  3  8  2  0  0  0  0
  3 17  1  0  0  0  0
  4  9  1  0  0  0  0
  4 17  2  0  0  0  0
  5 19  1  0  0  0  0
  6 21  1  0  0  0  0
  7 10  2  0  0  0  0
  7 20  1  0  0  0  0
  8 23  1  0  0  0  0
  9 23  2  0  0  0  0
 10 24  1  0  0  0  0
 11 12  2  0  0  0  0
 11 25  1  0  0  0  0
 12 26  1  0  0  0  0
 13 22  1  0  0  0  0
 13 24  2  0  0  0  0
 14 26  2  0  0  0  0
 14 27  1  0  0  0  0
 15 16  2  0  0  0  0
 15 65  1  0  0  0  0
 16 67  1  0  0  0  0
 17 28  1  0  0  0  0
 18 28  1  0  0  0  0
 18 29  2  0  0  0  0
 18 31  1  0  0  0  0
 19 21  2  0  0  0  0
 19 37  1  0  0  0  0
 20 22  2  0  0  0  0
 20 38  1  0  0  0  0
 21 46  1  0  0  0  0
 22 39  1  0  0  0  0
 23 83  1  0  0  0  0
 24 84  1  0  0  0  0
 25 27  2  0  0  0  0
 25 83  1  0  0  0  0
 26 85  1  0  0  0  0
 27 86  1  0  0  0  0
 28 66  2  0  0  0  0
 29 68  1  0  0  0  0
 29 71  1  0  0  0  0
 30 32  1  0  0  0  0
 30 65  2  0  0  0  0
 30 67  1  0  0  0  0
 31 72  1  0  0  0  0
 31 78  2  0  0  0  0
 32 73  1  0  0  0  0
 32 76  2  0  0  0  0
 33 47  1  0  0  0  0
 33 74  1  0  0  0  0
 33 79  2  0  0  0  0
 34 60  1  0  0  0  0
 34 69  1  0  0  0  0
 34 80  2  0  0  0  0
 35 61  1  0  0  0  0
 35 75  1  0  0  0  0
 35 81  2  0  0  0  0
 36 67  1  0  0  0  0
 36 70  1  0  0  0  0
 36 82  2  0  0  0  0
 37 40  1  0  0  0  0
 38 47  1  0  0  0  0
 39 69  1  0  0  0  0
 40 42  1  0  0  0  0
 41 43  1  0  0  0  0
 41 44  1  0  0  0  0
 42 46  1  0  0  0  0
 43 48  1  0  0  0  0
 44 70  1  0  0  0  0
 45 48  1  0  0  0  0
 45 70  1  0  0  0  0
 46 74  1  0  0  0  0
 47 69  1  0  0  0  0
 48 68  1  0  0  0  0
 49 61  1  0  0  0  0
 50 63  1  0  0  0  0
 51 63  1  0  0  0  0
 52 63  1  0  0  0  0
 53 64  1  0  0  0  0
 54 64  1  0  0  0  0
 55 64  1  0  0  0  0
 56 77  1  0  0  0  0
 57 59  1  0  0  0  0
 57 62  1  0  0  0  0
 58 62  1  0  0  0  0
 58 63  1  0  0  0  0
 59 84  1  0  0  0  0
 60 64  1  0  0  0  0
 60 75  1  0  0  0  0
 61 77  1  0  0  0  0
 62 76  1  0  0  0  0
 66 68  1  0  0  0  0
M  CHG  2  76   1  77   1
M  ISO  4  36 100  59 101  67 100  84 101
M  END
> <Batch ID>
0196

> <Smiles>
CNC(C)C(=O)NC(C(=O)N1Cc2cc([101O:1][101CH2:1]CC(CC(C)(C)C)NC(=N)c3ncc[100n:0]3[100C:0](=O)N3CCCC(n4nc(-c5ccc(Oc6ccc(F)cc6F)cc5)c(C(N)=O)c4N)C3)ccc2CC1C(=O)NC1CCCc2ccccc21)C(C)(C)C

> <Shape>
0.250

> <Color>
0.061

> <Negative vol penalty>
0.000

$$$$

  -OEChem-04052305393D

 82 90  0     1  0  0  0  0  0999 V2000
  -28.2233  -25.9999   33.3482 C   0  0  0  0  0  0  0  0  0  0  0  0
  -28.8850  -24.7761   33.3564 C   0  0  0  0  0  0  0  0  0  0  0  0
  -23.1897   -9.8193   19.9323 C   0  0  0  0  0  0  0  0  0  0  0  0
  -23.5702   -9.9994   22.3114 C   0  0  0  0  0  0  0  0  0  0  0  0
  -27.1118  -26.1844   32.5270 C   0  0  0  0  0  0  0  0  0  0  0  0
  -28.4349  -23.7359   32.5443 C   0  0  0  0  0  0  0  0  0  0  0  0
  -31.8639  -19.5088   29.7372 C   0  0  0  0  0  0  0  0  0  0  0  0
  -22.4237   -8.6725   20.1416 C   0  0  0  0  0  0  0  0  0  0  0  0
  -22.8041   -8.8526   22.5207 C   0  0  0  0  0  0  0  0  0  0  0  0
  -32.1852  -18.1925   30.0656 C   0  0  0  0  0  0  0  0  0  0  0  0
  -23.2053   -5.5060   22.2558 C   0  0  0  0  0  0  0  0  0  0  0  0
  -23.7045   -4.5446   23.1344 C   0  0  0  0  0  0  0  0  0  0  0  0
  -30.3902  -17.4092   28.6572 C   0  0  0  0  0  0  0  0  0  0  0  0
  -21.7492   -4.8043   24.5296 C   0  0  0  0  0  0  0  0  0  0  0  0
  -32.9151  -13.6131   25.4707 C   0  0  0  0  0  0  0  0  0  0  0  0
  -23.7630  -10.4827   21.0172 C   0  0  0  0  0  0  0  0  0  0  0  0
  -24.1013  -12.9994   20.7735 C   0  0  0  0  0  0  0  0  0  0  0  0
  -26.6536  -25.1490   31.6972 C   0  0  0  0  0  0  0  0  0  0  0  0
  -30.7945  -19.7861   28.8735 C   0  0  0  0  0  0  0  0  0  0  0  0
  -27.3153  -23.9063   31.7122 C   0  0  0  0  0  0  0  0  0  0  0  0
  -30.0589  -18.7298   28.3174 C   0  0  0  0  0  0  0  0  0  0  0  0
  -22.2309   -8.1892   21.4358 C   0  0  0  0  0  0  0  0  0  0  0  0
  -31.4466  -17.1426   29.5278 C   0  0  0  0  0  0  0  0  0  0  0  0
  -21.9780   -6.1167   22.5141 C   0  0  0  0  0  0  0  0  0  0  0  0
  -22.9765   -4.1937   24.2713 C   0  0  0  0  0  0  0  0  0  0  0  0
  -21.2500   -5.7657   23.6510 C   0  0  0  0  0  0  0  0  0  0  0  0
  -24.5548  -11.6670   20.8016 C   0  0  0  0  0  0  0  0  0  0  0  0
  -31.8911  -13.4279   26.3759 C   0  0  0  0  0  0  0  0  0  0  0  0
  -25.2322  -13.7422   20.5372 C   0  0  0  0  0  0  0  0  0  0  0  0
  -31.3220  -13.0779   24.0616 C   0  0  0  0  0  0  0  0  0  0  0  0
  -22.7762  -13.5192   20.9456 C   0  0  0  0  0  0  0  0  0  0  0  0
  -32.0028  -13.5863   27.8398 C   0  0  0  0  0  0  0  0  0  0  0  0
  -28.0417  -21.3524   29.1427 C   0  0  0  0  0  0  0  0  0  0  0  0
  -27.8482  -20.7719   25.9571 C   0  0  0  0  0  0  0  0  0  0  0  0
  -28.7831  -18.8427   23.3017 C   0  0  0  0  0  0  0  0  0  0  0  0
  -31.0377  -12.7818   21.5761 C   0  0  0  0  0  0  0  0  0  0  0  0
  -25.4193  -25.3804   30.8619 C   0  0  0  0  0  0  0  0  0  0  0  0
  -30.4775  -21.2103   28.5081 C   0  0  0  0  0  0  0  0  0  0  0  0
  -28.9143  -18.9733   27.3692 C   0  0  0  0  0  0  0  0  0  0  0  0
  -25.2322  -24.3485   29.7527 C   0  0  0  0  0  0  0  0  0  0  0  0
  -29.5222  -13.4639   18.4272 C   0  0  0  0  0  0  0  0  0  0  0  0
  -25.4453  -22.9383   30.2939 C   0  0  0  0  0  0  0  0  0  0  0  0
  -28.0344  -13.2077   18.6778 C   0  0  0  0  0  0  0  0  0  0  0  0
  -30.4041  -12.4788   19.1924 C   0  0  0  0  0  0  0  0  0  0  0  0
  -28.6459  -12.1369   20.8839 C   0  0  0  0  0  0  0  0  0  0  0  0
  -26.8722  -22.7617   30.8270 C   0  0  1  0  0  0  0  0  0  0  0  0
  -29.0432  -21.3978   28.0234 C   0  0  1  0  0  0  0  0  0  0  0  0
  -27.7193  -13.1455   20.1853 C   0  0  2  0  0  0  0  0  0  0  0  0
  -28.4325  -18.5907   20.8296 C   0  0  0  0  0  0  0  0  0  0  0  0
  -34.8696  -13.7590   30.0748 C   0  0  0  0  0  0  0  0  0  0  0  0
  -25.1014  -19.5481   26.4739 C   0  0  0  0  0  0  0  0  0  0  0  0
  -25.2242  -18.4887   24.2087 C   0  0  0  0  0  0  0  0  0  0  0  0
  -25.2392  -20.9739   24.4239 C   0  0  0  0  0  0  0  0  0  0  0  0
  -31.6539  -19.2824   22.7323 C   0  0  0  0  0  0  0  0  0  0  0  0
  -33.1243  -15.5742   30.1455 C   0  0  0  0  0  0  0  0  0  1  0  0
  -27.2879  -19.6585   25.1054 C   0  0  1  0  0  0  0  0  0  0  0  0
  -29.2931  -19.2100   21.9198 C   0  0  2  0  0  0  0  0  0  0  0  0
  -33.4229  -14.1249   29.7866 C   0  0  1  0  0  0  0  0  0  0  0  0
  -25.7335  -19.6624   25.0723 C   0  0  0  0  0  0  0  0  0  0  0  0
  -32.5907  -13.4125   24.1432 N   0  0  0  0  0  0  0  0  0  0  0  0
  -25.8712  -11.5661   20.5992 N   0  0  0  0  0  0  0  0  0  0  0  0
  -26.2545  -12.8445   20.4416 N   0  0  0  0  0  0  0  0  0  0  0  0
  -28.6392  -20.3835   27.0476 N   0  0  0  0  0  0  0  0  0  0  0  0
  -30.0517  -12.4771   20.6139 N   0  0  0  0  0  0  0  0  0  0  0  0
  -25.4419  -15.0691   20.4040 N   0  0  0  0  0  0  0  0  0  0  0  0
  -21.7298  -12.6168   21.1805 N   0  0  0  0  0  0  0  0  0  0  0  0
  -30.9153  -13.3701   28.5798 N   0  0  0  0  0  0  0  0  0  0  0  0
  -30.5781  -12.7813   22.8927 N   0  0  0  0  0  0  0  0  0  0  0  0
  -27.8015  -22.5786   29.7327 N   0  0  0  0  0  0  0  0  0  0  0  0
  -27.9138  -19.7929   23.7944 N   0  0  0  0  0  0  0  0  0  0  0  0
  -33.1864  -13.9402   28.3474 N   0  3  0  0  0  0  0  0  0  0  0  0
  -30.6936  -18.7330   21.7409 N   0  3  0  0  0  0  0  0  0  0  0  0
  -22.5248  -14.7462   20.8763 O   0  0  0  0  0  0  0  0  0  0  0  0
  -27.5241  -20.2842   29.4473 O   0  0  0  0  0  0  0  0  0  0  0  0
  -27.5993  -21.9433   25.6614 O   0  0  0  0  0  0  0  0  0  0  0  0
  -29.1192  -17.8139   23.8840 O   0  0  0  0  0  0  0  0  0  0  0  0
  -32.1974  -13.0521   21.2537 O   0  0  0  0  0  0  0  0  0  0  0  0
  -21.4833   -7.0704   21.6404 O   0  0  0  0  0  0  0  0  0  0  0  0
  -31.7577  -15.8569   29.8472 O   0  0  0  0  0  0  0  0  0  1  0  0
  -23.4554   -3.2694   25.1142 F   0  0  0  0  0  0  0  0  0  0  0  0
  -20.0698   -6.3480   23.9038 F   0  0  0  0  0  0  0  0  0  0  0  0
  -30.4590  -12.9863   25.5421 S   0  0  0  0  0  0  0  0  0  0  0  0
  1  2  1  0  0  0  0
  1  5  2  0  0  0  0
  2  6  2  0  0  0  0
  3  8  2  0  0  0  0
  3 16  1  0  0  0  0
  4  9  1  0  0  0  0
  4 16  2  0  0  0  0
  5 18  1  0  0  0  0
  6 20  1  0  0  0  0
  7 10  2  0  0  0  0
  7 19  1  0  0  0  0
  8 22  1  0  0  0  0
  9 22  2  0  0  0  0
 10 23  1  0  0  0  0
 11 12  2  0  0  0  0
 11 24  1  0  0  0  0
 12 25  1  0  0  0  0
 13 21  1  0  0  0  0
 13 23  2  0  0  0  0
 14 25  2  0  0  0  0
 14 26  1  0  0  0  0
 15 28  2  0  0  0  0
 15 60  1  0  0  0  0
 16 27  1  0  0  0  0
 17 27  1  0  0  0  0
 17 29  2  0  0  0  0
 17 31  1  0  0  0  0
 18 20  2  0  0  0  0
 18 37  1  0  0  0  0
 19 21  2  0  0  0  0
 19 38  1  0  0  0  0
 20 46  1  0  0  0  0
 21 39  1  0  0  0  0
 22 78  1  0  0  0  0
 23 79  1  0  0  0  0
 24 26  2  0  0  0  0
 24 78  1  0  0  0  0
 25 80  1  0  0  0  0
 26 81  1  0  0  0  0
 27 61  2  0  0  0  0
 28 32  1  0  0  0  0
 28 82  1  0  0  0  0
 29 62  1  0  0  0  0
 29 65  1  0  0  0  0
 30 60  2  0  0  0  0
 30 68  1  0  0  0  0
 30 82  1  0  0  0  0
 31 66  1  0  0  0  0
 31 73  2  0  0  0  0
 32 67  1  0  0  0  0
 32 71  2  0  0  0  0
 33 47  1  0  0  0  0
 33 69  1  0  0  0  0
 33 74  2  0  0  0  0
 34 56  1  0  0  0  0
 34 63  1  0  0  0  0
 34 75  2  0  0  0  0
 35 57  1  0  0  0  0
 35 70  1  0  0  0  0
 35 76  2  0  0  0  0
 36 64  1  0  0  0  0
 36 68  1  0  0  0  0
 36 77  2  0  0  0  0
 37 40  1  0  0  0  0
 38 47  1  0  0  0  0
 39 63  1  0  0  0  0
 40 42  1  0  0  0  0
 41 43  1  0  0  0  0
 41 44  1  0  0  0  0
 42 46  1  0  0  0  0
 43 48  1  0  0  0  0
 44 64  1  0  0  0  0
 45 48  1  0  0  0  0
 45 64  1  0  0  0  0
 46 69  1  0  0  0  0
 47 63  1  0  0  0  0
 48 62  1  0  0  0  0
 49 57  1  0  0  0  0
 50 58  1  0  0  0  0
 51 59  1  0  0  0  0
 52 59  1  0  0  0  0
 53 59  1  0  0  0  0
 54 72  1  0  0  0  0
 55 58  1  0  0  0  0
 55 79  1  0  0  0  0
 56 59  1  0  0  0  0
 56 70  1  0  0  0  0
 57 72  1  0  0  0  0
 58 71  1  0  0  0  0
 61 62  1  0  0  0  0
M  CHG  2  71   1  72   1
M  ISO  4  36 100  55 101  68 100  79 101
M  END
> <Batch ID>
0196

> <Smiles>
CNC(C)C(=O)NC(C(=O)N1Cc2cc([101O:1][101CH2:1]C(C)NC(=N)c3cnc([100NH:0][100C:0](=O)N4CCCC(n5nc(-c6ccc(Oc7ccc(F)cc7F)cc6)c(C(N)=O)c5N)C4)s3)ccc2CC1C(=O)NC1CCCc2ccccc21)C(C)(C)C

> <Shape>
0.157

> <Color>
0.175

> <Negative vol penalty>
0.000

$$$$

  -OEChem-04052305393D

 83 91  0     1  0  0  0  0  0999 V2000
  -17.1736  -30.4049   21.2958 C   0  0  0  0  0  0  0  0  0  0  0  0
  -18.3871  -30.3957   20.6156 C   0  0  0  0  0  0  0  0  0  0  0  0
  -26.5756  -12.7821   21.7688 C   0  0  0  0  0  0  0  0  0  0  0  0
  -25.9774  -14.1304   19.8553 C   0  0  0  0  0  0  0  0  0  0  0  0
  -17.1390  -30.1254   22.6613 C   0  0  0  0  0  0  0  0  0  0  0  0
  -19.5670  -30.1081   21.3008 C   0  0  0  0  0  0  0  0  0  0  0  0
  -24.4432  -27.1022   19.1344 C   0  0  0  0  0  0  0  0  0  0  0  0
  -25.3045  -12.2078   21.7615 C   0  0  0  0  0  0  0  0  0  0  0  0
  -24.7063  -13.5560   19.8479 C   0  0  0  0  0  0  0  0  0  0  0  0
  -25.6618  -27.5403   18.6179 C   0  0  0  0  0  0  0  0  0  0  0  0
  -23.6613   -9.8168   20.0248 C   0  0  0  0  0  0  0  0  0  0  0  0
  -23.5743   -8.4331   20.1778 C   0  0  0  0  0  0  0  0  0  0  0  0
  -26.6771  -27.2547   20.7874 C   0  0  0  0  0  0  0  0  0  0  0  0
  -29.0562  -21.7225   18.8640 C   0  0  0  0  0  0  0  0  0  0  0  0
  -22.2502   -8.7373   22.1756 C   0  0  0  0  0  0  0  0  0  0  0  0
  -30.2383  -24.0087   19.7706 C   0  0  0  0  0  0  0  0  0  0  0  0
  -26.9120  -13.7434   20.8157 C   0  0  0  0  0  0  0  0  0  0  0  0
  -29.3689  -13.8796   20.1425 C   0  0  0  0  0  0  0  0  0  0  0  0
  -18.3179  -29.8248   23.3616 C   0  0  0  0  0  0  0  0  0  0  0  0
  -24.3296  -26.7469   20.4862 C   0  0  0  0  0  0  0  0  0  0  0  0
  -19.5484  -29.8257   22.6772 C   0  0  0  0  0  0  0  0  0  0  0  0
  -25.4566  -26.8100   21.3180 C   0  0  0  0  0  0  0  0  0  0  0  0
  -29.0537  -22.8568   18.0599 C   0  0  0  0  0  0  0  0  0  0  0  0
  -29.6539  -24.0258   18.5145 C   0  0  0  0  0  0  0  0  0  0  0  0
  -24.3698  -12.5947   20.8011 C   0  0  0  0  0  0  0  0  0  0  0  0
  -26.7783  -27.6194   19.4451 C   0  0  0  0  0  0  0  0  0  0  0  0
  -23.0428  -10.6608   20.9472 C   0  0  0  0  0  0  0  0  0  0  0  0
  -22.8687   -7.8934   21.2532 C   0  0  0  0  0  0  0  0  0  0  0  0
  -22.3373  -10.1211   22.0226 C   0  0  0  0  0  0  0  0  0  0  0  0
  -28.2247  -14.3375   20.8230 C   0  0  0  0  0  0  0  0  0  0  0  0
  -29.6676  -21.8084   20.1045 C   0  0  0  0  0  0  0  0  0  0  0  0
  -30.3490  -14.7836   20.4720 C   0  0  0  0  0  0  0  0  0  0  0  0
  -29.5311  -12.7392   19.2888 C   0  0  0  0  0  0  0  0  0  0  0  0
  -22.6428  -27.8257   22.9550 C   0  0  0  0  0  0  0  0  0  0  0  0
  -23.9223  -25.2497   24.4549 C   0  0  0  0  0  0  0  0  0  0  0  0
  -26.4357  -22.9473   24.6223 C   0  0  0  0  0  0  0  0  0  0  0  0
  -30.2152  -20.5052   22.1897 C   0  0  0  0  0  0  0  0  0  0  0  0
  -18.2365  -29.5756   24.8469 C   0  0  0  0  0  0  0  0  0  0  0  0
  -23.0144  -26.2508   21.0217 C   0  0  0  0  0  0  0  0  0  0  0  0
  -25.3922  -26.4207   22.7716 C   0  0  0  0  0  0  0  0  0  0  0  0
  -19.4852  -28.9128   25.4226 C   0  0  0  0  0  0  0  0  0  0  0  0
  -31.6566  -17.7802   23.9712 C   0  0  0  0  0  0  0  0  0  0  0  0
  -20.7430  -29.6045   24.9065 C   0  0  0  0  0  0  0  0  0  0  0  0
  -31.0489  -16.5463   23.3001 C   0  0  0  0  0  0  0  0  0  0  0  0
  -30.6537  -18.9292   24.0602 C   0  0  0  0  0  0  0  0  0  0  0  0
  -29.4095  -18.0636   22.1180 C   0  0  0  0  0  0  0  0  0  0  0  0
  -20.8466  -29.4940   23.3805 C   0  0  1  0  0  0  0  0  0  0  0  0
  -22.8890  -26.4044   22.5343 C   0  0  1  0  0  0  0  0  0  0  0  0
  -30.4019  -16.9018   21.9472 C   0  0  2  0  0  0  0  0  0  0  0  0
  -28.4038  -22.7932   16.7166 C   0  0  0  0  0  0  0  0  0  0  0  0
  -27.2281  -20.9911   25.9799 C   0  0  0  0  0  0  0  0  0  0  0  0
  -31.7988  -26.3050   18.0111 C   0  0  0  0  0  0  0  0  0  0  0  0
  -24.8954  -27.1562   26.6294 C   0  0  0  0  0  0  0  0  0  0  0  0
  -26.4440  -25.3542   27.4188 C   0  0  0  0  0  0  0  0  0  0  0  0
  -23.9769  -24.9896   27.4761 C   0  0  0  0  0  0  0  0  0  0  0  0
  -26.2424  -21.1138   22.3071 C   0  0  0  0  0  0  0  0  0  0  0  0
  -29.7281  -27.5908   17.3753 C   0  0  0  0  0  0  0  0  0  0  0  0
  -28.2266  -27.7808   17.5656 C   0  0  0  0  0  0  0  0  0  1  0  0
  -25.1783  -24.9911   25.2515 C   0  0  1  0  0  0  0  0  0  0  0  0
  -26.4100  -21.4375   24.7782 C   0  0  2  0  0  0  0  0  0  0  0  0
  -30.2873  -26.4165   18.1846 C   0  0  1  0  0  0  0  0  0  0  0  0
  -25.1247  -25.6320   26.6670 C   0  0  0  0  0  0  0  0  0  0  0  0
  -30.2607  -22.9263   20.5802 N   0  0  0  0  0  0  0  0  0  0  0  0
  -28.4553  -15.4461   21.5315 N   0  0  0  0  0  0  0  0  0  0  0  0
  -29.7556  -15.6924   21.2979 N   0  0  0  0  0  0  0  0  0  0  0  0
  -24.0824  -25.9480   23.2496 N   0  0  0  0  0  0  0  0  0  0  0  0
  -30.0852  -19.2128   22.7406 N   0  0  0  0  0  0  0  0  0  0  0  0
  -31.6520  -14.8818   20.1329 N   0  0  0  0  0  0  0  0  0  0  0  0
  -28.4213  -11.9154   19.0562 N   0  0  0  0  0  0  0  0  0  0  0  0
  -29.6740  -25.1787   17.7503 N   0  0  0  0  0  0  0  0  0  0  0  0
  -29.6641  -20.6473   20.9166 N   0  0  0  0  0  0  0  0  0  0  0  0
  -21.3069  -28.1759   22.9993 N   0  0  0  0  0  0  0  0  0  0  0  0
  -25.3674  -23.5446   25.2573 N   0  0  0  0  0  0  0  0  0  0  0  0
  -26.9664  -20.7816   23.5611 N   0  3  0  0  0  0  0  0  0  0  0  0
  -30.6318  -12.4497   18.7614 O   0  0  0  0  0  0  0  0  0  0  0  0
  -23.5945  -28.5505   23.2211 O   0  0  0  0  0  0  0  0  0  0  0  0
  -22.8399  -24.8408   24.8826 O   0  0  0  0  0  0  0  0  0  0  0  0
  -27.3176  -23.5380   24.0027 O   0  0  0  0  0  0  0  0  0  0  0  0
  -30.7981  -21.4113   22.7907 O   0  0  0  0  0  0  0  0  0  0  0  0
  -23.1295  -12.0343   20.7935 O   0  0  0  0  0  0  0  0  0  0  0  0
  -27.9688  -28.0473   18.9436 O   0  0  0  0  0  0  0  0  0  1  0  0
  -22.7839   -6.5646   21.3991 F   0  0  0  0  0  0  0  0  0  0  0  0
  -21.7400  -10.9268   22.9114 F   0  0  0  0  0  0  0  0  0  0  0  0
  1  2  1  0  0  0  0
  1  5  2  0  0  0  0
  2  6  2  0  0  0  0
  3  8  2  0  0  0  0
  3 17  1  0  0  0  0
  4  9  1  0  0  0  0
  4 17  2  0  0  0  0
  5 19  1  0  0  0  0
  6 21  1  0  0  0  0
  7 10  2  0  0  0  0
  7 20  1  0  0  0  0
  8 25  1  0  0  0  0
  9 25  2  0  0  0  0
 10 26  1  0  0  0  0
 11 12  2  0  0  0  0
 11 27  1  0  0  0  0
 12 28  1  0  0  0  0
 13 22  1  0  0  0  0
 13 26  2  0  0  0  0
 14 23  1  0  0  0  0
 14 31  2  0  0  0  0
 15 28  2  0  0  0  0
 15 29  1  0  0  0  0
 16 24  1  0  0  0  0
 16 63  2  0  0  0  0
 17 30  1  0  0  0  0
 18 30  1  0  0  0  0
 18 32  2  0  0  0  0
 18 33  1  0  0  0  0
 19 21  2  0  0  0  0
 19 38  1  0  0  0  0
 20 22  2  0  0  0  0
 20 39  1  0  0  0  0
 21 47  1  0  0  0  0
 22 40  1  0  0  0  0
 23 24  2  0  0  0  0
 23 50  1  0  0  0  0
 24 70  1  0  0  0  0
 25 80  1  0  0  0  0
 26 81  1  0  0  0  0
 27 29  2  0  0  0  0
 27 80  1  0  0  0  0
 28 82  1  0  0  0  0
 29 83  1  0  0  0  0
 30 64  2  0  0  0  0
 31 63  1  0  0  0  0
 31 71  1  0  0  0  0
 32 65  1  0  0  0  0
 32 68  1  0  0  0  0
 33 69  1  0  0  0  0
 33 75  2  0  0  0  0
 34 48  1  0  0  0  0
 34 72  1  0  0  0  0
 34 76  2  0  0  0  0
 35 59  1  0  0  0  0
 35 66  1  0  0  0  0
 35 77  2  0  0  0  0
 36 60  1  0  0  0  0
 36 73  1  0  0  0  0
 36 78  2  0  0  0  0
 37 67  1  0  0  0  0
 37 71  1  0  0  0  0
 37 79  2  0  0  0  0
 38 41  1  0  0  0  0
 39 48  1  0  0  0  0
 40 66  1  0  0  0  0
 41 43  1  0  0  0  0
 42 44  1  0  0  0  0
 42 45  1  0  0  0  0
 43 47  1  0  0  0  0
 44 49  1  0  0  0  0
 45 67  1  0  0  0  0
 46 49  1  0  0  0  0
 46 67  1  0  0  0  0
 47 72  1  0  0  0  0
 48 66  1  0  0  0  0
 49 65  1  0  0  0  0
 51 60  1  0  0  0  0
 52 61  1  0  0  0  0
 53 62  1  0  0  0  0
 54 62  1  0  0  0  0
 55 62  1  0  0  0  0
 56 74  1  0  0  0  0
 57 58  1  0  0  0  0
 57 61  1  0  0  0  0
 58 81  1  0  0  0  0
 59 62  1  0  0  0  0
 59 73  1  0  0  0  0
 60 74  1  0  0  0  0
 61 70  1  0  0  0  0
 64 65  1  0  0  0  0
M  CHG  1  74   1
M  ISO  4  37 100  58 101  71 100  81 101
M  END
> <Batch ID>
0196

> <Smiles>
CNC(C)C(=O)NC(C(=O)N1Cc2cc([101O:1][101CH2:1]CC(C)Nc3cnc([100NH:0][100C:0](=O)N4CCCC(n5nc(-c6ccc(Oc7ccc(F)cc7F)cc6)c(C(N)=O)c5N)C4)cc3C)ccc2CC1C(=O)NC1CCCc2ccccc21)C(C)(C)C

> <Shape>
0.261

> <Color>
0.077

> <Negative vol penalty>
0.000

$$$$

  -OEChem-04052305393D

 85 93  0     1  0  0  0  0  0999 V2000
  -33.3235  -20.4189   17.7777 C   0  0  0  0  0  0  0  0  0  0  0  0
  -32.0234  -20.5102   17.2911 C   0  0  0  0  0  0  0  0  0  0  0  0
  -23.2416   -9.7838   19.9501 C   0  0  0  0  0  0  0  0  0  0  0  0
  -23.7482   -9.9098   22.3090 C   0  0  0  0  0  0  0  0  0  0  0  0
  -33.6734  -21.0765   18.9563 C   0  0  0  0  0  0  0  0  0  0  0  0
  -31.0720  -21.2585   17.9835 C   0  0  0  0  0  0  0  0  0  0  0  0
  -28.3048  -24.1934   14.9219 C   0  0  0  0  0  0  0  0  0  0  0  0
  -22.4999   -8.6235   20.1713 C   0  0  0  0  0  0  0  0  0  0  0  0
  -23.0064   -8.7494   22.5303 C   0  0  0  0  0  0  0  0  0  0  0  0
  -27.2838  -23.5765   14.2001 C   0  0  0  0  0  0  0  0  0  0  0  0
  -19.7499   -7.8939   22.8188 C   0  0  0  0  0  0  0  0  0  0  0  0
  -18.8715   -7.8847   23.9024 C   0  0  0  0  0  0  0  0  0  0  0  0
  -25.6731  -24.3726   15.8098 C   0  0  0  0  0  0  0  0  0  0  0  0
  -20.0671   -6.0141   24.8556 C   0  0  0  0  0  0  0  0  0  0  0  0
  -26.0142  -18.7030   16.8357 C   0  0  0  0  0  0  0  0  0  0  0  0
  -23.8658  -10.4270   21.0189 C   0  0  0  0  0  0  0  0  0  0  0  0
  -24.1644  -12.9527   20.8209 C   0  0  0  0  0  0  0  0  0  0  0  0
  -32.7283  -21.8411   19.6583 C   0  0  0  0  0  0  0  0  0  0  0  0
  -28.0184  -24.8965   16.1009 C   0  0  0  0  0  0  0  0  0  0  0  0
  -31.4092  -21.9259   19.1733 C   0  0  0  0  0  0  0  0  0  0  0  0
  -26.6919  -24.9997   16.5432 C   0  0  0  0  0  0  0  0  0  0  0  0
  -22.3823   -8.1062   21.4614 C   0  0  0  0  0  0  0  0  0  0  0  0
  -25.9681  -23.6636   14.6456 C   0  0  0  0  0  0  0  0  0  0  0  0
  -20.7868   -6.9631   22.7536 C   0  0  0  0  0  0  0  0  0  0  0  0
  -19.0301   -6.9449   24.9208 C   0  0  0  0  0  0  0  0  0  0  0  0
  -20.9454   -6.0233   23.7720 C   0  0  0  0  0  0  0  0  0  0  0  0
  -24.6326  -11.6254   20.7910 C   0  0  0  0  0  0  0  0  0  0  0  0
  -27.9417  -17.6538   16.1926 C   0  0  0  0  0  0  0  0  0  0  0  0
  -27.6966  -18.0059   14.8835 C   0  0  0  0  0  0  0  0  0  0  0  0
  -25.7694  -19.0557   15.5268 C   0  0  0  0  0  0  0  0  0  0  0  0
  -25.2732  -13.7142   20.5429 C   0  0  0  0  0  0  0  0  0  0  0  0
  -22.8453  -13.4526   21.0770 C   0  0  0  0  0  0  0  0  0  0  0  0
  -29.1412  -16.8762   16.5965 C   0  0  0  0  0  0  0  0  0  0  0  0
  -28.8462  -24.5874   19.1542 C   0  0  0  0  0  0  0  0  0  0  0  0
  -27.2635  -27.4019   19.4640 C   0  0  0  0  0  0  0  0  0  0  0  0
  -24.8964  -29.5429   18.2559 C   0  0  0  0  0  0  0  0  0  0  0  0
  -29.8705  -14.7487   17.6287 C   0  0  0  0  0  0  0  0  0  0  0  0
  -33.1411  -22.4954   20.9529 C   0  0  0  0  0  0  0  0  0  0  0  0
  -29.1276  -25.5789   16.8535 C   0  0  0  0  0  0  0  0  0  0  0  0
  -26.3292  -25.7599   17.7918 C   0  0  0  0  0  0  0  0  0  0  0  0
  -32.1706  -23.5744   21.4266 C   0  0  0  0  0  0  0  0  0  0  0  0
  -30.1688  -12.4404   20.2895 C   0  0  0  0  0  0  0  0  0  0  0  0
  -30.7317  -23.0768   21.3325 C   0  0  0  0  0  0  0  0  0  0  0  0
  -28.7168  -12.1355   20.6676 C   0  0  0  0  0  0  0  0  0  0  0  0
  -30.3397  -12.6038   18.7799 C   0  0  0  0  0  0  0  0  0  0  0  0
  -27.9808  -13.2592   18.5276 C   0  0  0  0  0  0  0  0  0  0  0  0
  -30.3553  -22.7482   19.8827 C   0  0  1  0  0  0  0  0  0  0  0  0
  -28.7867  -25.8345   18.3183 C   0  0  1  0  0  0  0  0  0  0  0  0
  -27.7435  -13.1553   20.0429 C   0  0  1  0  0  0  0  0  0  0  0  0
  -28.6284  -17.6204   13.7858 C   0  0  0  0  0  0  0  0  0  0  0  0
  -23.7997  -31.7464   18.7452 C   0  0  0  0  0  0  0  0  0  0  0  0
  -23.6632  -19.0308   13.1579 C   0  0  0  0  0  0  0  0  0  0  0  0
  -25.6166  -26.0891   21.6718 C   0  0  0  0  0  0  0  0  0  0  0  0
  -23.9648  -27.9580   21.4549 C   0  0  0  0  0  0  0  0  0  0  0  0
  -26.3112  -28.4439   22.1484 C   0  0  0  0  0  0  0  0  0  0  0  0
  -25.8401  -30.7106   15.7054 C   0  0  0  0  0  0  0  0  0  0  0  0
  -23.2633  -21.3740   13.9914 C   0  0  0  0  0  0  0  0  0  0  0  0
  -23.8387  -22.6053   14.6840 C   0  0  0  0  0  0  0  0  0  1  0  0
  -25.8357  -27.7996   19.7503 C   0  0  1  0  0  0  0  0  0  0  0  0
  -24.9257  -31.0400   18.0063 C   0  0  2  0  0  0  0  0  0  0  0  0
  -24.2612  -20.2145   13.9118 C   0  0  1  0  0  0  0  0  0  0  0  0
  -25.4388  -27.5566   21.2338 C   0  0  0  0  0  0  0  0  0  0  0  0
  -27.1048  -17.9958   17.1921 N   0  0  0  0  0  0  0  0  0  0  0  0
  -25.9371  -11.5448   20.5156 N   0  0  0  0  0  0  0  0  0  0  0  0
  -26.6062  -18.7134   14.5272 N   0  0  0  0  0  0  0  0  0  0  0  0
  -26.2981  -12.8311   20.3699 N   0  0  0  0  0  0  0  0  0  0  0  0
  -27.4497  -26.4045   18.4963 N   0  0  0  0  0  0  0  0  0  0  0  0
  -29.3893  -13.5927   18.2679 N   0  0  0  0  0  0  0  0  0  0  0  0
  -25.4617  -15.0464   20.4321 N   0  0  0  0  0  0  0  0  0  0  0  0
  -21.8225  -12.5326   21.3450 N   0  0  0  0  0  0  0  0  0  0  0  0
  -24.6272  -19.7834   15.2449 N   0  0  0  0  0  0  0  0  0  0  0  0
  -28.8852  -15.6515   17.2138 N   0  0  0  0  0  0  0  0  0  0  0  0
  -30.0784  -23.9620   19.1449 N   0  0  0  0  0  0  0  0  0  0  0  0
  -25.7031  -29.1860   19.3157 N   0  0  0  0  0  0  0  0  0  0  0  0
  -24.7841  -31.3253   16.5505 N   0  3  0  0  0  0  0  0  0  0  0  0
  -22.5779  -14.6779   21.0523 O   0  0  0  0  0  0  0  0  0  0  0  0
  -30.2566  -17.3200   16.3380 O   0  0  0  0  0  0  0  0  0  0  0  0
  -27.8484  -24.2204   19.7637 O   0  0  0  0  0  0  0  0  0  0  0  0
  -28.1803  -27.9608   20.0714 O   0  0  0  0  0  0  0  0  0  0  0  0
  -24.2223  -28.7682   17.5808 O   0  0  0  0  0  0  0  0  0  0  0  0
  -31.0746  -14.9760   17.4748 O   0  0  0  0  0  0  0  0  0  0  0  0
  -21.6584   -6.9741   21.6776 O   0  0  0  0  0  0  0  0  0  0  0  0
  -24.9698  -23.0619   13.9434 O   0  0  0  0  0  0  0  0  0  1  0  0
  -18.1875   -6.9372   25.9620 F   0  0  0  0  0  0  0  0  0  0  0  0
  -21.9404   -5.1274   23.7155 F   0  0  0  0  0  0  0  0  0  0  0  0
  1  2  1  0  0  0  0
  1  5  2  0  0  0  0
  2  6  2  0  0  0  0
  3  8  2  0  0  0  0
  3 16  1  0  0  0  0
  4  9  1  0  0  0  0
  4 16  2  0  0  0  0
  5 18  1  0  0  0  0
  6 20  1  0  0  0  0
  7 10  2  0  0  0  0
  7 19  1  0  0  0  0
  8 22  1  0  0  0  0
  9 22  2  0  0  0  0
 10 23  1  0  0  0  0
 11 12  2  0  0  0  0
 11 24  1  0  0  0  0
 12 25  1  0  0  0  0
 13 21  1  0  0  0  0
 13 23  2  0  0  0  0
 14 25  2  0  0  0  0
 14 26  1  0  0  0  0
 15 30  1  0  0  0  0
 15 63  2  0  0  0  0
 16 27  1  0  0  0  0
 17 27  1  0  0  0  0
 17 31  2  0  0  0  0
 17 32  1  0  0  0  0
 18 20  2  0  0  0  0
 18 38  1  0  0  0  0
 19 21  2  0  0  0  0
 19 39  1  0  0  0  0
 20 47  1  0  0  0  0
 21 40  1  0  0  0  0
 22 82  1  0  0  0  0
 23 83  1  0  0  0  0
 24 26  2  0  0  0  0
 24 82  1  0  0  0  0
 25 84  1  0  0  0  0
 26 85  1  0  0  0  0
 27 64  2  0  0  0  0
 28 29  2  0  0  0  0
 28 33  1  0  0  0  0
 28 63  1  0  0  0  0
 29 50  1  0  0  0  0
 29 65  1  0  0  0  0
 30 65  2  0  0  0  0
 30 71  1  0  0  0  0
 31 66  1  0  0  0  0
 31 69  1  0  0  0  0
 32 70  1  0  0  0  0
 32 76  2  0  0  0  0
 33 72  1  0  0  0  0
 33 77  2  0  0  0  0
 34 48  1  0  0  0  0
 34 73  1  0  0  0  0
 34 78  2  0  0  0  0
 35 59  1  0  0  0  0
 35 67  1  0  0  0  0
 35 79  2  0  0  0  0
 36 60  1  0  0  0  0
 36 74  1  0  0  0  0
 36 80  2  0  0  0  0
 37 68  1  0  0  0  0
 37 72  1  0  0  0  0
 37 81  2  0  0  0  0
 38 41  1  0  0  0  0
 39 48  1  0  0  0  0
 40 67  1  0  0  0  0
 41 43  1  0  0  0  0
 42 44  1  0  0  0  0
 42 45  1  0  0  0  0
 43 47  1  0  0  0  0
 44 49  1  0  0  0  0
 45 68  1  0  0  0  0
 46 49  1  0  0  0  0
 46 68  1  0  0  0  0
 47 73  1  0  0  0  0
 48 67  1  0  0  0  0
 49 66  1  0  0  0  0
 51 60  1  0  0  0  0
 52 61  1  0  0  0  0
 53 62  1  0  0  0  0
 54 62  1  0  0  0  0
 55 62  1  0  0  0  0
 56 75  1  0  0  0  0
 57 58  1  0  0  0  0
 57 61  1  0  0  0  0
 58 83  1  0  0  0  0
 59 62  1  0  0  0  0
 59 74  1  0  0  0  0
 60 75  1  0  0  0  0
 61 71  1  0  0  0  0
 64 66  1  0  0  0  0
M  CHG  1  75   1
M  ISO  4  37 100  58 101  72 100  83 101
M  END
> <Batch ID>
0196

> <Smiles>
CNC(C)C(=O)NC(C(=O)N1Cc2cc([101O:1][101CH2:1]CC(C)Nc3cnc(C(=O)[100NH:0][100C:0](=O)N4CCCC(n5nc(-c6ccc(Oc7ccc(F)cc7F)cc6)c(C(N)=O)c5N)C4)c(C)n3)ccc2CC1C(=O)NC1CCCc2ccccc21)C(C)(C)C

> <Shape>
0.207

> <Color>
0.171

> <Negative vol penalty>
0.000

$$$$

  -OEChem-04052305393D

 83 91  0     1  0  0  0  0  0999 V2000
  -32.0916  -15.3461   19.3740 C   0  0  0  0  0  0  0  0  0  0  0  0
  -31.1331  -16.3539   19.3415 C   0  0  0  0  0  0  0  0  0  0  0  0
  -28.1699  -24.8328   18.6385 C   0  0  0  0  0  0  0  0  0  0  0  0
  -26.0161  -23.8043   19.0127 C   0  0  0  0  0  0  0  0  0  0  0  0
  -31.6989  -14.0167   19.5233 C   0  0  0  0  0  0  0  0  0  0  0  0
  -29.7811  -16.0326   19.4573 C   0  0  0  0  0  0  0  0  0  0  0  0
  -25.4327  -19.3469   22.2165 C   0  0  0  0  0  0  0  0  0  0  0  0
  -28.7932  -23.6017   18.8418 C   0  0  0  0  0  0  0  0  0  0  0  0
  -26.6393  -22.5731   19.2159 C   0  0  0  0  0  0  0  0  0  0  0  0
  -24.4723  -20.2296   21.7245 C   0  0  0  0  0  0  0  0  0  0  0  0
  -30.9781  -20.8002   19.6175 C   0  0  0  0  0  0  0  0  0  0  0  0
  -32.1123  -20.7719   20.4288 C   0  0  0  0  0  0  0  0  0  0  0  0
  -22.8486  -18.4456   21.7106 C   0  0  0  0  0  0  0  0  0  0  0  0
  -30.8124  -21.6298   22.2759 C   0  0  0  0  0  0  0  0  0  0  0  0
  -26.7814  -24.9342   18.7240 C   0  0  0  0  0  0  0  0  0  0  0  0
  -25.6730  -26.7331   17.2947 C   0  0  0  0  0  0  0  0  0  0  0  0
  -30.3421  -13.6799   19.6507 C   0  0  0  0  0  0  0  0  0  0  0  0
  -25.1107  -18.0021   22.4494 C   0  0  0  0  0  0  0  0  0  0  0  0
  -29.3698  -14.6973   19.6072 C   0  0  0  0  0  0  0  0  0  0  0  0
  -23.8061  -17.5485   22.2080 C   0  0  0  0  0  0  0  0  0  0  0  0
  -28.0279  -22.4718   19.1305 C   0  0  0  0  0  0  0  0  0  0  0  0
  -23.1807  -19.7783   21.4687 C   0  0  0  0  0  0  0  0  0  0  0  0
  -29.7611  -21.2434   20.1352 C   0  0  0  0  0  0  0  0  0  0  0  0
  -32.0295  -21.1866   21.7580 C   0  0  0  0  0  0  0  0  0  0  0  0
  -29.6782  -21.6581   21.4644 C   0  0  0  0  0  0  0  0  0  0  0  0
  -26.1370  -26.2058   18.5147 C   0  0  0  0  0  0  0  0  0  0  0  0
  -19.7777  -28.0942   22.7390 C   0  0  0  0  0  0  0  0  0  0  0  0
  -18.4049  -28.1201   22.6091 C   0  0  0  0  0  0  0  0  0  0  0  0
  -25.1456  -27.9568   17.6279 C   0  0  0  0  0  0  0  0  0  0  0  0
  -19.4622  -26.0039   22.1552 C   0  0  0  0  0  0  0  0  0  0  0  0
  -25.7149  -26.1674   15.9779 C   0  0  0  0  0  0  0  0  0  0  0  0
  -26.1229  -15.2202   21.2915 C   0  0  0  0  0  0  0  0  0  0  0  0
  -24.1844  -14.0021   23.5895 C   0  0  0  0  0  0  0  0  0  0  0  0
  -21.4879  -14.4377   25.6354 C   0  0  0  0  0  0  0  0  0  0  0  0
  -22.8927  -30.1781   22.7113 C   0  0  0  0  0  0  0  0  0  0  0  0
  -29.9629  -12.2244   19.7626 C   0  0  0  0  0  0  0  0  0  0  0  0
  -26.1510  -17.0688   23.0055 C   0  0  0  0  0  0  0  0  0  0  0  0
  -23.4041  -16.1191   22.4604 C   0  0  0  0  0  0  0  0  0  0  0  0
  -28.5350  -12.0032   20.2549 C   0  0  0  0  0  0  0  0  0  0  0  0
  -25.6092  -31.4901   20.8203 C   0  0  0  0  0  0  0  0  0  0  0  0
  -27.5656  -12.9138   19.5079 C   0  0  0  0  0  0  0  0  0  0  0  0
  -26.0106  -30.3322   19.9049 C   0  0  0  0  0  0  0  0  0  0  0  0
  -25.1740  -30.9957   22.1980 C   0  0  0  0  0  0  0  0  0  0  0  0
  -24.5170  -28.8108   21.2662 C   0  0  0  0  0  0  0  0  0  0  0  0
  -27.8952  -14.3910   19.7545 C   0  0  1  0  0  0  0  0  0  0  0  0
  -25.8508  -15.6007   22.7194 C   0  0  1  0  0  0  0  0  0  0  0  0
  -24.9102  -29.2556   19.8471 C   0  0  2  0  0  0  0  0  0  0  0  0
  -17.4514  -29.2298   22.8083 C   0  0  0  0  0  0  0  0  0  0  0  0
  -20.1232  -13.2512   27.3752 C   0  0  0  0  0  0  0  0  0  0  0  0
  -22.8454  -12.3448   21.4054 C   0  0  0  0  0  0  0  0  0  0  0  0
  -20.9429  -11.9343   22.9803 C   0  0  0  0  0  0  0  0  0  0  0  0
  -23.2312  -11.1231   23.5533 C   0  0  0  0  0  0  0  0  0  0  0  0
  -22.1343  -16.4654   27.6920 C   0  0  0  0  0  0  0  0  0  0  0  0
  -20.6358  -29.2328   23.1258 C   0  0  0  0  0  0  0  0  0  0  0  0
  -21.0470  -24.1074   21.8127 C   0  0  0  0  0  0  0  0  0  0  0  0
  -22.3643  -22.0094   21.3613 C   0  0  0  0  0  0  0  0  0  1  0  0
  -22.7312  -13.5992   23.6592 C   0  0  1  0  0  0  0  0  0  0  0  0
  -21.2980  -14.1824   27.1197 C   0  0  2  0  0  0  0  0  0  0  0  0
  -20.9770  -22.6417   21.3886 C   0  0  1  0  0  0  0  0  0  0  0  0
  -22.4455  -12.2769   22.8928 C   0  0  0  0  0  0  0  0  0  0  0  0
  -25.9233  -27.0273   19.5460 N   0  0  0  0  0  0  0  0  0  0  0  0
  -20.3857  -26.8815   22.4794 N   0  0  0  0  0  0  0  0  0  0  0  0
  -25.3193  -28.0832   18.9747 N   0  0  0  0  0  0  0  0  0  0  0  0
  -24.4584  -15.2437   22.9985 N   0  0  0  0  0  0  0  0  0  0  0  0
  -24.1278  -29.9780   22.0729 N   0  0  0  0  0  0  0  0  0  0  0  0
  -24.5550  -28.9262   16.8973 N   0  0  0  0  0  0  0  0  0  0  0  0
  -26.2919  -24.9008   15.8129 N   0  0  0  0  0  0  0  0  0  0  0  0
  -19.7207  -24.6826   21.8319 N   0  0  0  0  0  0  0  0  0  0  0  0
  -27.4197  -14.8043   21.0574 N   0  0  0  0  0  0  0  0  0  0  0  0
  -22.3874  -13.5548   25.0763 N   0  0  0  0  0  0  0  0  0  0  0  0
  -21.9546  -29.1681   22.5365 N   0  0  0  0  0  0  0  0  0  0  0  0
  -21.0467  -15.4639   27.8377 N   0  3  0  0  0  0  0  0  0  0  0  0
  -25.2691  -26.7743   14.9747 O   0  0  0  0  0  0  0  0  0  0  0  0
  -25.2226  -15.2969   20.4637 O   0  0  0  0  0  0  0  0  0  0  0  0
  -25.0442  -13.2463   24.0491 O   0  0  0  0  0  0  0  0  0  0  0  0
  -20.8945  -15.3286   25.0315 O   0  0  0  0  0  0  0  0  0  0  0  0
  -22.6425  -31.1850   23.3825 O   0  0  0  0  0  0  0  0  0  0  0  0
  -20.1881  -21.9184   22.3356 O   0  0  0  0  0  0  0  0  0  0  0  0
  -28.6357  -21.2702   19.3286 O   0  0  0  0  0  0  0  0  0  0  0  0
  -22.2415  -20.6377   20.9878 O   0  0  0  0  0  0  0  0  0  1  0  0
  -33.1184  -21.1579   22.5375 F   0  0  0  0  0  0  0  0  0  0  0  0
  -28.5115  -22.0837   21.9678 F   0  0  0  0  0  0  0  0  0  0  0  0
  -17.8419  -26.5691   22.1417 S   0  0  0  0  0  0  0  0  0  0  0  0
  1  2  1  0  0  0  0
  1  5  2  0  0  0  0
  2  6  2  0  0  0  0
  3  8  2  0  0  0  0
  3 15  1  0  0  0  0
  4  9  1  0  0  0  0
  4 15  2  0  0  0  0
  5 17  1  0  0  0  0
  6 19  1  0  0  0  0
  7 10  2  0  0  0  0
  7 18  1  0  0  0  0
  8 21  1  0  0  0  0
  9 21  2  0  0  0  0
 10 22  1  0  0  0  0
 11 12  2  0  0  0  0
 11 23  1  0  0  0  0
 12 24  1  0  0  0  0
 13 20  1  0  0  0  0
 13 22  2  0  0  0  0
 14 24  2  0  0  0  0
 14 25  1  0  0  0  0
 15 26  1  0  0  0  0
 16 26  1  0  0  0  0
 16 29  2  0  0  0  0
 16 31  1  0  0  0  0
 17 19  2  0  0  0  0
 17 36  1  0  0  0  0
 18 20  2  0  0  0  0
 18 37  1  0  0  0  0
 19 45  1  0  0  0  0
 20 38  1  0  0  0  0
 21 79  1  0  0  0  0
 22 80  1  0  0  0  0
 23 25  2  0  0  0  0
 23 79  1  0  0  0  0
 24 81  1  0  0  0  0
 25 82  1  0  0  0  0
 26 61  2  0  0  0  0
 27 28  2  0  0  0  0
 27 54  1  0  0  0  0
 27 62  1  0  0  0  0
 28 48  1  0  0  0  0
 28 83  1  0  0  0  0
 29 63  1  0  0  0  0
 29 66  1  0  0  0  0
 30 62  2  0  0  0  0
 30 68  1  0  0  0  0
 30 83  1  0  0  0  0
 31 67  1  0  0  0  0
 31 73  2  0  0  0  0
 32 46  1  0  0  0  0
 32 69  1  0  0  0  0
 32 74  2  0  0  0  0
 33 57  1  0  0  0  0
 33 64  1  0  0  0  0
 33 75  2  0  0  0  0
 34 58  1  0  0  0  0
 34 70  1  0  0  0  0
 34 76  2  0  0  0  0
 35 65  1  0  0  0  0
 35 71  1  0  0  0  0
 35 77  2  0  0  0  0
 36 39  1  0  0  0  0
 37 46  1  0  0  0  0
 38 64  1  0  0  0  0
 39 41  1  0  0  0  0
 40 42  1  0  0  0  0
 40 43  1  0  0  0  0
 41 45  1  0  0  0  0
 42 47  1  0  0  0  0
 43 65  1  0  0  0  0
 44 47  1  0  0  0  0
 44 65  1  0  0  0  0
 45 69  1  0  0  0  0
 46 64  1  0  0  0  0
 47 63  1  0  0  0  0
 49 58  1  0  0  0  0
 50 60  1  0  0  0  0
 51 60  1  0  0  0  0
 52 60  1  0  0  0  0
 53 72  1  0  0  0  0
 54 71  1  0  0  0  0
 55 59  1  0  0  0  0
 55 68  1  0  0  0  0
 56 59  1  0  0  0  0
 56 80  1  0  0  0  0
 57 60  1  0  0  0  0
 57 70  1  0  0  0  0
 58 72  1  0  0  0  0
 59 78  1  0  0  0  0
 61 63  1  0  0  0  0
M  CHG  1  72   1
M  ISO  4  35 100  56 101  71 100  80 101
M  END
> <Batch ID>
0196

> <Smiles>
CNC(C)C(=O)NC(C(=O)N1Cc2cc([101O:1][101CH2:1]C(O)CNc3nc(C[100NH:0][100C:0](=O)N4CCCC(n5nc(-c6ccc(Oc7ccc(F)cc7F)cc6)c(C(N)=O)c5N)C4)c(C)s3)ccc2CC1C(=O)NC1CCCc2ccccc21)C(C)(C)C

> <Shape>
0.215

> <Color>
0.083

> <Negative vol penalty>
0.000

$$$$

  -OEChem-04052305393D

 86 94  0     1  0  0  0  0  0999 V2000
  -30.5561  -26.5071   18.0229 C   0  0  0  0  0  0  0  0  0  0  0  0
  -29.9825  -25.4646   17.3021 C   0  0  0  0  0  0  0  0  0  0  0  0
  -24.9222  -30.3501   20.2660 C   0  0  0  0  0  0  0  0  0  0  0  0
  -24.0453  -28.8479   21.9428 C   0  0  0  0  0  0  0  0  0  0  0  0
  -31.2747  -26.2359   19.1865 C   0  0  0  0  0  0  0  0  0  0  0  0
  -30.1281  -24.1501   17.7440 C   0  0  0  0  0  0  0  0  0  0  0  0
  -25.7932  -21.5402   17.5385 C   0  0  0  0  0  0  0  0  0  0  0  0
  -24.6677  -31.4350   21.1048 C   0  0  0  0  0  0  0  0  0  0  0  0
  -23.7908  -29.9329   22.7817 C   0  0  0  0  0  0  0  0  0  0  0  0
  -25.3927  -21.0682   16.2893 C   0  0  0  0  0  0  0  0  0  0  0  0
  -25.5470  -31.9408   24.8565 C   0  0  0  0  0  0  0  0  0  0  0  0
  -25.9112  -31.8206   26.1976 C   0  0  0  0  0  0  0  0  0  0  0  0
  -22.3923  -20.3682   19.2426 C   0  0  0  0  0  0  0  0  0  0  0  0
  -26.2512  -18.8837   16.8460 C   0  0  0  0  0  0  0  0  0  0  0  0
  -23.6094  -32.1521   26.8525 C   0  0  0  0  0  0  0  0  0  0  0  0
  -22.2536  -19.0088   19.4353 C   0  0  0  0  0  0  0  0  0  0  0  0
  -24.6110  -29.0565   20.6850 C   0  0  0  0  0  0  0  0  0  0  0  0
  -26.0533  -27.1709   19.7513 C   0  0  0  0  0  0  0  0  0  0  0  0
  -31.4210  -24.9183   19.6481 C   0  0  0  0  0  0  0  0  0  0  0  0
  -26.4366  -20.6887   18.4482 C   0  0  0  0  0  0  0  0  0  0  0  0
  -30.8504  -23.8609   18.9141 C   0  0  0  0  0  0  0  0  0  0  0  0
  -26.6566  -19.3466   18.1071 C   0  0  0  0  0  0  0  0  0  0  0  0
  -24.1020  -31.2265   22.3627 C   0  0  0  0  0  0  0  0  0  0  0  0
  -25.6243  -19.7406   15.9417 C   0  0  0  0  0  0  0  0  0  0  0  0
  -24.2139  -32.1667   24.5134 C   0  0  0  0  0  0  0  0  0  0  0  0
  -24.9425  -31.9262   27.1956 C   0  0  0  0  0  0  0  0  0  0  0  0
  -23.2452  -32.2723   25.5114 C   0  0  0  0  0  0  0  0  0  0  0  0
  -24.8731  -27.9353   19.8187 C   0  0  0  0  0  0  0  0  0  0  0  0
  -21.8536  -20.8633   18.0725 C   0  0  0  0  0  0  0  0  0  0  0  0
  -25.8000  -26.2332   18.7802 C   0  0  0  0  0  0  0  0  0  0  0  0
  -21.1549  -18.7896   17.4575 C   0  0  0  0  0  0  0  0  0  0  0  0
  -27.2697  -27.2970   20.4997 C   0  0  0  0  0  0  0  0  0  0  0  0
  -29.2947  -20.6394   19.8384 C   0  0  0  0  0  0  0  0  0  0  0  0
  -28.0281  -18.1354   21.4658 C   0  0  0  0  0  0  0  0  0  0  0  0
  -25.7217  -15.6225   21.5792 C   0  0  0  0  0  0  0  0  0  0  0  0
  -21.5036  -22.9643   16.7272 C   0  0  0  0  0  0  0  0  0  0  0  0
  -32.2467  -24.6701   20.8856 C   0  0  0  0  0  0  0  0  0  0  0  0
  -26.8384  -21.2063   19.8022 C   0  0  0  0  0  0  0  0  0  0  0  0
  -27.3252  -18.3866   19.0557 C   0  0  0  0  0  0  0  0  0  0  0  0
  -32.0372  -23.2839   21.4897 C   0  0  0  0  0  0  0  0  0  0  0  0
  -22.6040  -25.8878   15.0186 C   0  0  0  0  0  0  0  0  0  0  0  0
  -32.0842  -22.2151   20.4024 C   0  0  0  0  0  0  0  0  0  0  0  0
  -23.4171  -26.6403   16.0744 C   0  0  0  0  0  0  0  0  0  0  0  0
  -21.3895  -25.1904   15.6289 C   0  0  0  0  0  0  0  0  0  0  0  0
  -22.4980  -25.0668   17.8255 C   0  0  0  0  0  0  0  0  0  0  0  0
  -30.9653  -22.4240   19.3747 C   0  0  1  0  0  0  0  0  0  0  0  0
  -27.9469  -20.3835   20.4515 C   0  0  1  0  0  0  0  0  0  0  0  0
  -23.7676  -25.7316   17.2690 C   0  0  2  0  0  0  0  0  0  0  0  0
  -19.0118  -18.3216   16.2000 C   0  0  0  0  0  0  0  0  0  0  0  0
  -24.4047  -13.7122   22.5349 C   0  0  0  0  0  0  0  0  0  0  0  0
  -22.5669  -15.9581   15.7558 C   0  0  0  0  0  0  0  0  0  0  0  0
  -30.4505  -16.5010   20.5879 C   0  0  0  0  0  0  0  0  0  0  0  0
  -29.1947  -14.4295   21.2206 C   0  0  0  0  0  0  0  0  0  0  0  0
  -29.7464  -16.1314   22.9590 C   0  0  0  0  0  0  0  0  0  0  0  0
  -23.7073  -17.4462   22.7519 C   0  0  0  0  0  0  0  0  0  0  0  0
  -23.2301  -17.4754   13.8481 C   0  0  0  0  0  0  0  0  0  0  0  0
  -24.0908  -19.8908   14.1301 C   0  0  0  0  0  0  0  0  0  1  0  0
  -20.4572  -17.9009   16.4537 C   0  0  1  0  0  0  0  0  0  0  0  0
  -27.9581  -16.6434   21.2466 C   0  0  1  0  0  0  0  0  0  0  0  0
  -24.7628  -15.1839   22.6713 C   0  0  2  0  0  0  0  0  0  0  0  0
  -22.5726  -17.3875   15.2287 C   0  0  1  0  0  0  0  0  0  0  0  0
  -23.3443  -18.8879   13.2539 C   0  0  1  0  0  0  0  0  0  0  0  0
  -29.3266  -15.9447   21.4847 C   0  0  0  0  0  0  0  0  0  0  0  0
  -21.6384  -18.1866   18.5602 N   0  0  0  0  0  0  0  0  0  0  0  0
  -23.9396  -27.5195   18.9588 N   0  0  0  0  0  0  0  0  0  0  0  0
  -21.2259  -20.0998   17.1542 N   0  0  0  0  0  0  0  0  0  0  0  0
  -24.5330  -26.4836   18.3417 N   0  0  0  0  0  0  0  0  0  0  0  0
  -27.7053  -18.9419   20.3652 N   0  0  0  0  0  0  0  0  0  0  0  0
  -21.7987  -24.3438   16.7517 N   0  0  0  0  0  0  0  0  0  0  0  0
  -26.5398  -25.2273   18.2669 N   0  0  0  0  0  0  0  0  0  0  0  0
  -27.3617  -28.3149   21.4587 N   0  0  0  0  0  0  0  0  0  0  0  0
  -21.9704  -22.2551   17.8334 N   0  0  0  0  0  0  0  0  0  0  0  0
  -29.7008  -21.9586   19.9028 N   0  0  0  0  0  0  0  0  0  0  0  0
  -26.8813  -16.1553   22.1014 N   0  0  0  0  0  0  0  0  0  0  0  0
  -23.5055  -15.9814   22.6077 N   0  3  0  0  0  0  0  0  0  0  0  0
  -21.1602  -17.8516   15.1453 N   0  3  0  0  0  0  0  0  0  0  0  0
  -28.2522  -26.5400   20.3118 O   0  0  0  0  0  0  0  0  0  0  0  0
  -29.9205  -19.7085   19.3450 O   0  0  0  0  0  0  0  0  0  0  0  0
  -28.3501  -18.5693   22.5747 O   0  0  0  0  0  0  0  0  0  0  0  0
  -25.4690  -15.5010   20.3826 O   0  0  0  0  0  0  0  0  0  0  0  0
  -20.9062  -22.4451   15.7808 O   0  0  0  0  0  0  0  0  0  0  0  0
  -24.0457  -18.7946   12.0103 O   0  0  0  0  0  0  0  0  0  0  0  0
  -23.8538  -32.2850   23.1815 O   0  0  0  0  0  0  0  0  0  0  0  0
  -25.2350  -19.2776   14.7227 O   0  0  0  0  0  0  0  0  0  1  0  0
  -25.2922  -31.8093   28.4833 F   0  0  0  0  0  0  0  0  0  0  0  0
  -21.9627  -32.4880   25.1879 F   0  0  0  0  0  0  0  0  0  0  0  0
  1  2  1  0  0  0  0
  1  5  2  0  0  0  0
  2  6  2  0  0  0  0
  3  8  2  0  0  0  0
  3 17  1  0  0  0  0
  4  9  1  0  0  0  0
  4 17  2  0  0  0  0
  5 19  1  0  0  0  0
  6 21  1  0  0  0  0
  7 10  2  0  0  0  0
  7 20  1  0  0  0  0
  8 23  1  0  0  0  0
  9 23  2  0  0  0  0
 10 24  1  0  0  0  0
 11 12  2  0  0  0  0
 11 25  1  0  0  0  0
 12 26  1  0  0  0  0
 13 16  1  0  0  0  0
 13 29  2  0  0  0  0
 14 22  1  0  0  0  0
 14 24  2  0  0  0  0
 15 26  2  0  0  0  0
 15 27  1  0  0  0  0
 16 64  2  0  0  0  0
 17 28  1  0  0  0  0
 18 28  1  0  0  0  0
 18 30  2  0  0  0  0
 18 32  1  0  0  0  0
 19 21  2  0  0  0  0
 19 37  1  0  0  0  0
 20 22  2  0  0  0  0
 20 38  1  0  0  0  0
 21 46  1  0  0  0  0
 22 39  1  0  0  0  0
 23 83  1  0  0  0  0
 24 84  1  0  0  0  0
 25 27  2  0  0  0  0
 25 83  1  0  0  0  0
 26 85  1  0  0  0  0
 27 86  1  0  0  0  0
 28 65  2  0  0  0  0
 29 66  1  0  0  0  0
 29 72  1  0  0  0  0
 30 67  1  0  0  0  0
 30 70  1  0  0  0  0
 31 58  1  0  0  0  0
 31 64  1  0  0  0  0
 31 66  2  0  0  0  0
 32 71  1  0  0  0  0
 32 77  2  0  0  0  0
 33 47  1  0  0  0  0
 33 73  1  0  0  0  0
 33 78  2  0  0  0  0
 34 59  1  0  0  0  0
 34 68  1  0  0  0  0
 34 79  2  0  0  0  0
 35 60  1  0  0  0  0
 35 74  1  0  0  0  0
 35 80  2  0  0  0  0
 36 69  1  0  0  0  0
 36 72  1  0  0  0  0
 36 81  2  0  0  0  0
 37 40  1  0  0  0  0
 38 47  1  0  0  0  0
 39 68  1  0  0  0  0
 40 42  1  0  0  0  0
 41 43  1  0  0  0  0
 41 44  1  0  0  0  0
 42 46  1  0  0  0  0
 43 48  1  0  0  0  0
 44 69  1  0  0  0  0
 45 48  1  0  0  0  0
 45 69  1  0  0  0  0
 46 73  1  0  0  0  0
 47 68  1  0  0  0  0
 48 67  1  0  0  0  0
 49 58  1  0  0  0  0
 50 60  1  0  0  0  0
 51 61  1  0  0  0  0
 52 63  1  0  0  0  0
 53 63  1  0  0  0  0
 54 63  1  0  0  0  0
 55 75  1  0  0  0  0
 56 61  1  0  0  0  0
 56 62  1  0  0  0  0
 57 62  1  0  0  0  0
 57 84  1  0  0  0  0
 58 76  1  0  0  0  0
 59 63  1  0  0  0  0
 59 74  1  0  0  0  0
 60 75  1  0  0  0  0
 61 76  1  0  0  0  0
 62 82  1  0  0  0  0
 65 67  1  0  0  0  0
M  CHG  2  75   1  76   1
M  ISO  4  36 100  57 101  72 100  84 101
M  END
> <Batch ID>
0196

> <Smiles>
CNC(C)C(=O)NC(C(=O)N1Cc2cc([101O:1][101CH2:1]C(O)CC(C)NC(C)c3nccc([100NH:0][100C:0](=O)N4CCCC(n5nc(-c6ccc(Oc7ccc(F)cc7F)cc6)c(C(N)=O)c5N)C4)n3)ccc2CC1C(=O)NC1CCCc2ccccc21)C(C)(C)C

> <Shape>
0.204

> <Color>
0.060

> <Negative vol penalty>
0.000

$$$$

  -OEChem-04052305393D

 83 91  0     1  0  0  0  0  0999 V2000
  -25.9232  -33.4218   28.3597 C   0  0  0  0  0  0  0  0  0  0  0  0
  -26.6754  -32.6821   27.4528 C   0  0  0  0  0  0  0  0  0  0  0  0
  -23.9235   -9.4634   21.5038 C   0  0  0  0  0  0  0  0  0  0  0  0
  -24.3797  -10.6317   23.5688 C   0  0  0  0  0  0  0  0  0  0  0  0
  -24.5508  -33.2018   28.4685 C   0  0  0  0  0  0  0  0  0  0  0  0
  -26.0556  -31.7210   26.6549 C   0  0  0  0  0  0  0  0  0  0  0  0
  -27.5045  -30.2267   20.8953 C   0  0  0  0  0  0  0  0  0  0  0  0
  -23.4289   -8.3781   22.2270 C   0  0  0  0  0  0  0  0  0  0  0  0
  -23.8851   -9.5464   24.2921 C   0  0  0  0  0  0  0  0  0  0  0  0
  -28.2624  -29.1870   20.3584 C   0  0  0  0  0  0  0  0  0  0  0  0
  -20.5771   -7.5556   23.8467 C   0  0  0  0  0  0  0  0  0  0  0  0
  -19.3815   -6.9805   23.4162 C   0  0  0  0  0  0  0  0  0  0  0  0
  -26.2456  -27.9163   19.9881 C   0  0  0  0  0  0  0  0  0  0  0  0
  -20.5135   -4.8711   23.0904 C   0  0  0  0  0  0  0  0  0  0  0  0
  -28.3295  -19.1650   20.6172 C   0  0  0  0  0  0  0  0  0  0  0  0
  -24.3989  -10.5902   22.1747 C   0  0  0  0  0  0  0  0  0  0  0  0
  -24.1848  -12.8231   20.9598 C   0  0  0  0  0  0  0  0  0  0  0  0
  -23.9122  -32.2443   27.6647 C   0  0  0  0  0  0  0  0  0  0  0  0
  -26.1101  -30.1144   20.9929 C   0  0  0  0  0  0  0  0  0  0  0  0
  -24.6735  -31.4870   26.7541 C   0  0  0  0  0  0  0  0  0  0  0  0
  -25.4721  -28.9570   20.5243 C   0  0  0  0  0  0  0  0  0  0  0  0
  -23.4097   -8.4196   23.6212 C   0  0  0  0  0  0  0  0  0  0  0  0
  -27.6332  -28.0303   19.9073 C   0  0  0  0  0  0  0  0  0  0  0  0
  -21.7410   -6.7885   23.8989 C   0  0  0  0  0  0  0  0  0  0  0  0
  -19.3497   -5.6382   23.0381 C   0  0  0  0  0  0  0  0  0  0  0  0
  -21.7092   -5.4463   23.5208 C   0  0  0  0  0  0  0  0  0  0  0  0
  -24.9105  -11.7114   21.4281 C   0  0  0  0  0  0  0  0  0  0  0  0
  -30.5798  -20.1830   19.6037 C   0  0  0  0  0  0  0  0  0  0  0  0
  -29.3717  -18.3478   20.2382 C   0  0  0  0  0  0  0  0  0  0  0  0
  -29.5373  -21.0000   19.9821 C   0  0  0  0  0  0  0  0  0  0  0  0
  -25.1195  -13.5970   20.3164 C   0  0  0  0  0  0  0  0  0  0  0  0
  -22.7905  -13.1289   21.0943 C   0  0  0  0  0  0  0  0  0  0  0  0
  -24.0228  -30.1038   23.3901 C   0  0  0  0  0  0  0  0  0  0  0  0
  -21.8490  -30.0935   20.9825 C   0  0  0  0  0  0  0  0  0  0  0  0
  -21.1358  -29.3627   17.7261 C   0  0  0  0  0  0  0  0  0  0  0  0
  -30.1558  -15.9593   20.0762 C   0  0  0  0  0  0  0  0  0  0  0  0
  -22.4343  -32.0088   27.8516 C   0  0  0  0  0  0  0  0  0  0  0  0
  -25.3045  -31.2559   21.5500 C   0  0  0  0  0  0  0  0  0  0  0  0
  -23.9760  -28.7952   20.5880 C   0  0  0  0  0  0  0  0  0  0  0  0
  -21.7910  -31.2343   26.7041 C   0  0  0  0  0  0  0  0  0  0  0  0
  -29.8988  -12.5754   18.9989 C   0  0  0  0  0  0  0  0  0  0  0  0
  -22.6419  -30.0234   26.3343 C   0  0  0  0  0  0  0  0  0  0  0  0
  -28.5184  -12.1404   19.4964 C   0  0  0  0  0  0  0  0  0  0  0  0
  -30.5882  -13.5138   19.9878 C   0  0  0  0  0  0  0  0  0  0  0  0
  -28.4154  -14.2479   20.8873 C   0  0  0  0  0  0  0  0  0  0  0  0
  -24.0332  -30.4529   25.8536 C   0  0  1  0  0  0  0  0  0  0  0  0
  -23.9385  -30.8234   22.0738 C   0  0  1  0  0  0  0  0  0  0  0  0
  -27.6550  -13.3534   19.8947 C   0  0  2  0  0  0  0  0  0  0  0  0
  -31.8442  -20.7339   19.0360 C   0  0  0  0  0  0  0  0  0  0  0  0
  -19.2636  -29.4302   16.0565 C   0  0  0  0  0  0  0  0  0  0  0  0
  -20.5954  -27.6396   22.2928 C   0  0  0  0  0  0  0  0  0  0  0  0
  -19.3825  -27.1999   20.1471 C   0  0  0  0  0  0  0  0  0  0  0  0
  -18.9518  -29.3062   21.4122 C   0  0  0  0  0  0  0  0  0  0  0  0
  -22.6247  -31.2104   15.9574 C   0  0  0  0  0  0  0  0  0  0  0  0
  -28.5384  -23.2786   19.7920 C   0  0  0  0  0  0  0  0  0  0  0  0
  -27.8602  -25.6909   19.5447 C   0  0  0  0  0  0  0  0  0  1  0  0
  -21.1434  -29.0243   20.1837 C   0  0  1  0  0  0  0  0  0  0  0  0
  -20.4564  -30.1735   16.6373 C   0  0  2  0  0  0  0  0  0  0  0  0
  -29.0279  -24.7113   19.5901 C   0  0  1  0  0  0  0  0  0  0  0  0
  -20.0467  -28.2945   21.0094 C   0  0  0  0  0  0  0  0  0  0  0  0
  -28.3936  -20.5058   20.4959 N   0  0  0  0  0  0  0  0  0  0  0  0
  -26.2062  -11.7700   21.1093 N   0  0  0  0  0  0  0  0  0  0  0  0
  -30.5156  -18.8422   19.7247 N   0  0  0  0  0  0  0  0  0  0  0  0
  -26.3020  -12.9277   20.4336 N   0  0  0  0  0  0  0  0  0  0  0  0
  -23.2325  -29.9365   21.1468 N   0  0  0  0  0  0  0  0  0  0  0  0
  -29.7128  -14.6412   20.3156 N   0  0  0  0  0  0  0  0  0  0  0  0
  -25.0369  -14.7779   19.6674 N   0  0  0  0  0  0  0  0  0  0  0  0
  -21.9719  -12.2253   21.7855 N   0  0  0  0  0  0  0  0  0  0  0  0
  -29.2255  -16.9474   20.3966 N   0  0  0  0  0  0  0  0  0  0  0  0
  -29.6630  -22.3708   19.8329 N   0  0  0  0  0  0  0  0  0  0  0  0
  -23.9701  -30.9370   24.4912 N   0  0  0  0  0  0  0  0  0  0  0  0
  -20.6476  -29.6769   18.9768 N   0  0  0  0  0  0  0  0  0  0  0  0
  -21.4139  -30.4618   15.5323 N   0  3  0  0  0  0  0  0  0  0  0  0
  -22.2823  -14.1645   20.6016 O   0  0  0  0  0  0  0  0  0  0  0  0
  -24.1265  -28.8828   23.4056 O   0  0  0  0  0  0  0  0  0  0  0  0
  -21.1978  -31.0371   21.4376 O   0  0  0  0  0  0  0  0  0  0  0  0
  -22.0094  -28.5310   17.4903 O   0  0  0  0  0  0  0  0  0  0  0  0
  -31.2676  -16.1929   19.5951 O   0  0  0  0  0  0  0  0  0  0  0  0
  -29.8619  -25.0796   20.6906 O   0  0  0  0  0  0  0  0  0  0  0  0
  -22.9270   -7.3608   24.3272 O   0  0  0  0  0  0  0  0  0  0  0  0
  -28.3707  -27.0137   19.3834 O   0  0  0  0  0  0  0  0  0  1  0  0
  -18.2011   -5.0856   22.6262 F   0  0  0  0  0  0  0  0  0  0  0  0
  -22.8238   -4.7040   23.5700 F   0  0  0  0  0  0  0  0  0  0  0  0
  1  2  1  0  0  0  0
  1  5  2  0  0  0  0
  2  6  2  0  0  0  0
  3  8  2  0  0  0  0
  3 16  1  0  0  0  0
  4  9  1  0  0  0  0
  4 16  2  0  0  0  0
  5 18  1  0  0  0  0
  6 20  1  0  0  0  0
  7 10  2  0  0  0  0
  7 19  1  0  0  0  0
  8 22  1  0  0  0  0
  9 22  2  0  0  0  0
 10 23  1  0  0  0  0
 11 12  2  0  0  0  0
 11 24  1  0  0  0  0
 12 25  1  0  0  0  0
 13 21  1  0  0  0  0
 13 23  2  0  0  0  0
 14 25  2  0  0  0  0
 14 26  1  0  0  0  0
 15 29  1  0  0  0  0
 15 61  2  0  0  0  0
 16 27  1  0  0  0  0
 17 27  1  0  0  0  0
 17 31  2  0  0  0  0
 17 32  1  0  0  0  0
 18 20  2  0  0  0  0
 18 37  1  0  0  0  0
 19 21  2  0  0  0  0
 19 38  1  0  0  0  0
 20 46  1  0  0  0  0
 21 39  1  0  0  0  0
 22 80  1  0  0  0  0
 23 81  1  0  0  0  0
 24 26  2  0  0  0  0
 24 80  1  0  0  0  0
 25 82  1  0  0  0  0
 26 83  1  0  0  0  0
 27 62  2  0  0  0  0
 28 30  2  0  0  0  0
 28 49  1  0  0  0  0
 28 63  1  0  0  0  0
 29 63  2  0  0  0  0
 29 69  1  0  0  0  0
 30 61  1  0  0  0  0
 30 70  1  0  0  0  0
 31 64  1  0  0  0  0
 31 67  1  0  0  0  0
 32 68  1  0  0  0  0
 32 74  2  0  0  0  0
 33 47  1  0  0  0  0
 33 71  1  0  0  0  0
 33 75  2  0  0  0  0
 34 57  1  0  0  0  0
 34 65  1  0  0  0  0
 34 76  2  0  0  0  0
 35 58  1  0  0  0  0
 35 72  1  0  0  0  0
 35 77  2  0  0  0  0
 36 66  1  0  0  0  0
 36 69  1  0  0  0  0
 36 78  2  0  0  0  0
 37 40  1  0  0  0  0
 38 47  1  0  0  0  0
 39 65  1  0  0  0  0
 40 42  1  0  0  0  0
 41 43  1  0  0  0  0
 41 44  1  0  0  0  0
 42 46  1  0  0  0  0
 43 48  1  0  0  0  0
 44 66  1  0  0  0  0
 45 48  1  0  0  0  0
 45 66  1  0  0  0  0
 46 71  1  0  0  0  0
 47 65  1  0  0  0  0
 48 64  1  0  0  0  0
 50 58  1  0  0  0  0
 51 60  1  0  0  0  0
 52 60  1  0  0  0  0
 53 60  1  0  0  0  0
 54 73  1  0  0  0  0
 55 59  1  0  0  0  0
 55 70  1  0  0  0  0
 56 59  1  0  0  0  0
 56 81  1  0  0  0  0
 57 60  1  0  0  0  0
 57 72  1  0  0  0  0
 58 73  1  0  0  0  0
 59 79  1  0  0  0  0
 62 64  1  0  0  0  0
M  CHG  1  73   1
M  ISO  4  36 100  56 101  69 100  81 101
M  END
> <Batch ID>
0196

> <Smiles>
CNC(C)C(=O)NC(C(=O)N1Cc2cc([101O:1][101CH2:1]C(O)CNc3ncc([100NH:0][100C:0](=O)N4CCCC(n5nc(-c6ccc(Oc7ccc(F)cc7F)cc6)c(C(N)=O)c5N)C4)nc3C)ccc2CC1C(=O)NC1CCCc2ccccc21)C(C)(C)C

> <Shape>
0.334

> <Color>
0.155

> <Negative vol penalty>
0.000

$$$$

  -OEChem-04052305393D

 88 96  0     1  0  0  0  0  0999 V2000
  -37.8883  -28.8510   22.7096 C   0  0  0  0  0  0  0  0  0  0  0  0
  -37.0563  -27.9095   22.1124 C   0  0  0  0  0  0  0  0  0  0  0  0
  -23.0002   -9.8920   19.9820 C   0  0  0  0  0  0  0  0  0  0  0  0
  -23.7259   -9.9451   22.2858 C   0  0  0  0  0  0  0  0  0  0  0  0
  -37.9599  -30.1439   22.1929 C   0  0  0  0  0  0  0  0  0  0  0  0
  -36.2944  -28.2608   20.9986 C   0  0  0  0  0  0  0  0  0  0  0  0
  -36.4481  -24.7488   17.3534 C   0  0  0  0  0  0  0  0  0  0  0  0
  -22.2342   -8.7574   20.2494 C   0  0  0  0  0  0  0  0  0  0  0  0
  -22.9599   -8.8105   22.5532 C   0  0  0  0  0  0  0  0  0  0  0  0
  -35.6564  -23.6146   17.5282 C   0  0  0  0  0  0  0  0  0  0  0  0
  -23.2056   -5.4713   22.0838 C   0  0  0  0  0  0  0  0  0  0  0  0
  -23.7938   -4.4549   22.8366 C   0  0  0  0  0  0  0  0  0  0  0  0
  -33.9996  -24.5500   16.0453 C   0  0  0  0  0  0  0  0  0  0  0  0
  -22.0702   -4.6984   24.5120 C   0  0  0  0  0  0  0  0  0  0  0  0
  -23.7461  -10.4859   21.0002 C   0  0  0  0  0  0  0  0  0  0  0  0
  -24.1302  -13.0015   20.8221 C   0  0  0  0  0  0  0  0  0  0  0  0
  -37.2058  -30.5085   21.0663 C   0  0  0  0  0  0  0  0  0  0  0  0
  -36.0158  -25.7987   16.5304 C   0  0  0  0  0  0  0  0  0  0  0  0
  -36.3549  -29.5603   20.4671 C   0  0  0  0  0  0  0  0  0  0  0  0
  -34.7888  -25.6953   15.8597 C   0  0  0  0  0  0  0  0  0  0  0  0
  -22.2141   -8.2166   21.5350 C   0  0  0  0  0  0  0  0  0  0  0  0
  -34.4306  -23.5164   16.8764 C   0  0  0  0  0  0  0  0  0  0  0  0
  -22.0498   -6.1012   22.5452 C   0  0  0  0  0  0  0  0  0  0  0  0
  -23.2261   -4.0684   24.0507 C   0  0  0  0  0  0  0  0  0  0  0  0
  -21.4821   -5.7148   23.7593 C   0  0  0  0  0  0  0  0  0  0  0  0
  -24.5379  -11.6576   20.7244 C   0  0  0  0  0  0  0  0  0  0  0  0
  -31.8414  -18.6678   22.2032 C   0  0  0  0  0  0  0  0  0  0  0  0
  -25.2395  -13.7243   20.4569 C   0  0  0  0  0  0  0  0  0  0  0  0
  -30.7346  -19.0701   22.9211 C   0  0  0  0  0  0  0  0  0  0  0  0
  -30.5807  -16.9021   21.8826 C   0  0  0  0  0  0  0  0  0  0  0  0
  -22.8621  -13.5476   21.2085 C   0  0  0  0  0  0  0  0  0  0  0  0
  -35.3284  -28.8686   16.9856 C   0  0  0  0  0  0  0  0  0  0  0  0
  -35.0340  -28.8796   13.7552 C   0  0  0  0  0  0  0  0  0  0  0  0
  -34.4431  -27.1160   10.8938 C   0  0  0  0  0  0  0  0  0  0  0  0
  -30.7187  -14.6879   20.6889 C   0  0  0  0  0  0  0  0  0  0  0  0
  -37.2805  -31.9316   20.5724 C   0  0  0  0  0  0  0  0  0  0  0  0
  -36.8937  -27.0037   16.3312 C   0  0  0  0  0  0  0  0  0  0  0  0
  -34.2885  -26.7858   14.9492 C   0  0  0  0  0  0  0  0  0  0  0  0
  -36.7247  -32.1170   19.1628 C   0  0  0  0  0  0  0  0  0  0  0  0
  -29.6009  -12.2329   18.3650 C   0  0  0  0  0  0  0  0  0  0  0  0
  -35.3826  -31.4061   19.0203 C   0  0  0  0  0  0  0  0  0  0  0  0
  -28.1505  -11.9749   18.7797 C   0  0  0  0  0  0  0  0  0  0  0  0
  -30.5016  -12.4776   19.5744 C   0  0  0  0  0  0  0  0  0  0  0  0
  -28.5862  -13.2666   20.9078 C   0  0  0  0  0  0  0  0  0  0  0  0
  -35.5318  -29.8962   19.2425 C   0  0  1  0  0  0  0  0  0  0  0  0
  -36.1206  -28.2375   15.8757 C   0  0  1  0  0  0  0  0  0  0  0  0
  -27.6284  -13.0789   19.7200 C   0  0  2  0  0  0  0  0  0  0  0  0
  -34.2289  -27.4053    8.4103 C   0  0  0  0  0  0  0  0  0  0  0  0
  -34.9410  -20.1565   24.4325 C   0  0  0  0  0  0  0  0  0  0  0  0
  -33.6741  -18.0310   24.7742 C   0  0  0  0  0  0  0  0  0  0  0  0
  -36.1166  -17.9754   24.2158 C   0  0  0  0  0  0  0  0  0  0  0  0
  -32.2573  -30.0852   14.1375 C   0  0  0  0  0  0  0  0  0  0  0  0
  -31.7407  -29.4719   11.7658 C   0  0  0  0  0  0  0  0  0  0  0  0
  -33.5788  -31.0831   12.2635 C   0  0  0  0  0  0  0  0  0  0  0  0
  -36.7240  -25.3046   10.3693 C   0  0  0  0  0  0  0  0  0  0  0  0
  -34.4245  -18.7397   22.4335 C   0  0  0  0  0  0  0  0  0  0  0  0
  -32.2119  -20.7468   20.0800 C   0  0  0  0  0  0  0  0  0  0  0  0
  -33.7570  -21.7319   18.2969 C   0  0  0  0  0  0  0  0  0  1  0  0
  -33.1186  -19.4539   22.0152 C   0  0  1  0  0  0  0  0  0  0  0  0
  -33.9057  -28.6306   12.7836 C   0  0  1  0  0  0  0  0  0  0  0  0
  -35.1699  -27.0852    9.5614 C   0  0  2  0  0  0  0  0  0  0  0  0
  -32.4220  -21.0598   18.6011 C   0  0  1  0  0  0  0  0  0  0  0  0
  -34.7867  -18.6974   23.9488 C   0  0  0  0  0  0  0  0  0  0  0  0
  -32.8789  -29.7978   12.7562 C   0  0  0  0  0  0  0  0  0  0  0  0
  -25.8072  -11.5314   20.3281 N   0  0  0  0  0  0  0  0  0  0  0  0
  -31.7551  -17.4247   21.6073 N   0  0  0  0  0  0  0  0  0  0  0  0
  -26.2065  -12.8052   20.1734 N   0  0  0  0  0  0  0  0  0  0  0  0
  -35.1800  -27.9468   14.7917 N   0  0  0  0  0  0  0  0  0  0  0  0
  -29.9463  -13.5389   20.4171 N   0  0  0  0  0  0  0  0  0  0  0  0
  -25.4724  -15.0500   20.3538 N   0  0  0  0  0  0  0  0  0  0  0  0
  -30.5540  -20.2297   23.5988 N   0  0  0  0  0  0  0  0  0  0  0  0
  -21.8308  -12.6633   21.5530 N   0  0  0  0  0  0  0  0  0  0  0  0
  -30.0742  -15.6434   21.4739 N   0  0  0  0  0  0  0  0  0  0  0  0
  -36.0921  -29.2652   18.0667 N   0  0  0  0  0  0  0  0  0  0  0  0
  -34.5305  -28.3540   11.4946 N   0  0  0  0  0  0  0  0  0  0  0  0
  -35.7606  -25.7376    9.3246 N   0  3  0  0  0  0  0  0  0  0  0  0
  -33.2782  -19.8489   20.5894 N   0  3  0  0  0  0  0  0  0  0  0  0
  -22.6448  -14.7828   21.2314 O   0  0  0  0  0  0  0  0  0  0  0  0
  -34.1144  -28.9882   16.8691 O   0  0  0  0  0  0  0  0  0  0  0  0
  -35.7635  -29.8615   13.5960 O   0  0  0  0  0  0  0  0  0  0  0  0
  -33.8536  -26.1406   11.3537 O   0  0  0  0  0  0  0  0  0  0  0  0
  -31.8572  -14.8270   20.2345 O   0  0  0  0  0  0  0  0  0  0  0  0
  -32.3401  -19.8528   17.8414 O   0  0  0  0  0  0  0  0  0  0  0  0
  -21.4666   -7.1096   21.7963 O   0  0  0  0  0  0  0  0  0  0  0  0
  -33.6556  -22.4107   17.0458 O   0  0  0  0  0  0  0  0  0  1  0  0
  -23.7902   -3.0914   24.7727 F   0  0  0  0  0  0  0  0  0  0  0  0
  -20.3710   -6.3155   24.2071 F   0  0  0  0  0  0  0  0  0  0  0  0
  -29.5302  -17.8511   22.8525 S   0  0  0  0  0  0  0  0  0  0  0  0
  1  2  1  0  0  0  0
  1  5  2  0  0  0  0
  2  6  2  0  0  0  0
  3  8  2  0  0  0  0
  3 15  1  0  0  0  0
  4  9  1  0  0  0  0
  4 15  2  0  0  0  0
  5 17  1  0  0  0  0
  6 19  1  0  0  0  0
  7 10  2  0  0  0  0
  7 18  1  0  0  0  0
  8 21  1  0  0  0  0
  9 21  2  0  0  0  0
 10 22  1  0  0  0  0
 11 12  2  0  0  0  0
 11 23  1  0  0  0  0
 12 24  1  0  0  0  0
 13 20  1  0  0  0  0
 13 22  2  0  0  0  0
 14 24  2  0  0  0  0
 14 25  1  0  0  0  0
 15 26  1  0  0  0  0
 16 26  1  0  0  0  0
 16 28  2  0  0  0  0
 16 31  1  0  0  0  0
 17 19  2  0  0  0  0
 17 36  1  0  0  0  0
 18 20  2  0  0  0  0
 18 37  1  0  0  0  0
 19 45  1  0  0  0  0
 20 38  1  0  0  0  0
 21 84  1  0  0  0  0
 22 85  1  0  0  0  0
 23 25  2  0  0  0  0
 23 84  1  0  0  0  0
 24 86  1  0  0  0  0
 25 87  1  0  0  0  0
 26 65  2  0  0  0  0
 27 29  2  0  0  0  0
 27 59  1  0  0  0  0
 27 66  1  0  0  0  0
 28 67  1  0  0  0  0
 28 70  1  0  0  0  0
 29 71  1  0  0  0  0
 29 88  1  0  0  0  0
 30 66  2  0  0  0  0
 30 73  1  0  0  0  0
 30 88  1  0  0  0  0
 31 72  1  0  0  0  0
 31 78  2  0  0  0  0
 32 46  1  0  0  0  0
 32 74  1  0  0  0  0
 32 79  2  0  0  0  0
 33 60  1  0  0  0  0
 33 68  1  0  0  0  0
 33 80  2  0  0  0  0
 34 61  1  0  0  0  0
 34 75  1  0  0  0  0
 34 81  2  0  0  0  0
 35 69  1  0  0  0  0
 35 73  1  0  0  0  0
 35 82  2  0  0  0  0
 36 39  1  0  0  0  0
 37 46  1  0  0  0  0
 38 68  1  0  0  0  0
 39 41  1  0  0  0  0
 40 42  1  0  0  0  0
 40 43  1  0  0  0  0
 41 45  1  0  0  0  0
 42 47  1  0  0  0  0
 43 69  1  0  0  0  0
 44 47  1  0  0  0  0
 44 69  1  0  0  0  0
 45 74  1  0  0  0  0
 46 68  1  0  0  0  0
 47 67  1  0  0  0  0
 48 61  1  0  0  0  0
 49 63  1  0  0  0  0
 50 63  1  0  0  0  0
 51 63  1  0  0  0  0
 52 64  1  0  0  0  0
 53 64  1  0  0  0  0
 54 64  1  0  0  0  0
 55 76  1  0  0  0  0
 56 59  1  0  0  0  0
 56 63  1  0  0  0  0
 57 62  1  0  0  0  0
 57 77  1  0  0  0  0
 58 62  1  0  0  0  0
 58 85  1  0  0  0  0
 59 77  1  0  0  0  0
 60 64  1  0  0  0  0
 60 75  1  0  0  0  0
 61 76  1  0  0  0  0
 62 83  1  0  0  0  0
 65 67  1  0  0  0  0
M  CHG  2  76   1  77   1
M  ISO  4  35 100  58 101  73 100  85 101
M  END
> <Batch ID>
0196

> <Smiles>
CNC(C)C(=O)NC(C(=O)N1Cc2cc([101O:1][101CH2:1]C(O)CNC(CC(C)(C)C)c3nc([100NH:0][100C:0](=O)N4CCCC(n5nc(-c6ccc(Oc7ccc(F)cc7F)cc6)c(C(N)=O)c5N)C4)sc3N)ccc2CC1C(=O)NC1CCCc2ccccc21)C(C)(C)C

> <Shape>
0.172

> <Color>
0.175

> <Negative vol penalty>
0.000

$$$$

  -OEChem-04052305393D

 82 90  0     1  0  0  0  0  0999 V2000
  -23.1302  -11.4143   22.9566 C   0  0  0  0  0  0  0  0  0  0  0  0
  -23.3400  -12.6476   23.5653 C   0  0  0  0  0  0  0  0  0  0  0  0
  -22.4875  -28.0238   19.4708 C   0  0  0  0  0  0  0  0  0  0  0  0
  -22.8450  -27.6462   21.8302 C   0  0  0  0  0  0  0  0  0  0  0  0
  -23.7703  -11.1134   21.7552 C   0  0  0  0  0  0  0  0  0  0  0  0
  -24.1910  -13.5802   22.9734 C   0  0  0  0  0  0  0  0  0  0  0  0
  -23.5813  -19.6738   23.0253 C   0  0  0  0  0  0  0  0  0  0  0  0
  -21.1083  -27.9631   19.6700 C   0  0  0  0  0  0  0  0  0  0  0  0
  -21.4657  -27.5856   22.0295 C   0  0  0  0  0  0  0  0  0  0  0  0
  -24.1635  -20.6680   23.8103 C   0  0  0  0  0  0  0  0  0  0  0  0
  -18.8934  -29.7591   22.3106 C   0  0  0  0  0  0  0  0  0  0  0  0
  -18.3656  -30.4575   23.3966 C   0  0  0  0  0  0  0  0  0  0  0  0
  -25.8296  -21.0313   22.1040 C   0  0  0  0  0  0  0  0  0  0  0  0
  -17.5041  -28.3918   24.3064 C   0  0  0  0  0  0  0  0  0  0  0  0
  -30.4136  -23.2828   25.5752 C   0  0  0  0  0  0  0  0  0  0  0  0
  -28.7853  -24.0607   26.9799 C   0  0  0  0  0  0  0  0  0  0  0  0
  -23.3559  -27.8653   20.5509 C   0  0  0  0  0  0  0  0  0  0  0  0
  -25.5991  -29.0713   20.4050 C   0  0  0  0  0  0  0  0  0  0  0  0
  -24.6220  -12.0465   21.1432 C   0  0  0  0  0  0  0  0  0  0  0  0
  -24.1263  -19.3427   21.7763 C   0  0  0  0  0  0  0  0  0  0  0  0
  -24.8442  -13.2909   21.7632 C   0  0  0  0  0  0  0  0  0  0  0  0
  -25.2509  -20.0343   21.3040 C   0  0  0  0  0  0  0  0  0  0  0  0
  -20.5974  -27.7440   20.9493 C   0  0  0  0  0  0  0  0  0  0  0  0
  -25.2895  -21.3450   23.3510 C   0  0  0  0  0  0  0  0  0  0  0  0
  -18.7264  -28.3770   22.2225 C   0  0  0  0  0  0  0  0  0  0  0  0
  -17.6710  -29.7739   24.3945 C   0  0  0  0  0  0  0  0  0  0  0  0
  -18.0319  -27.6934   23.2204 C   0  0  0  0  0  0  0  0  0  0  0  0
  -24.7807  -27.9274   20.3457 C   0  0  0  0  0  0  0  0  0  0  0  0
  -29.5074  -23.2587   24.5381 C   0  0  0  0  0  0  0  0  0  0  0  0
  -27.8792  -24.0373   25.9427 C   0  0  0  0  0  0  0  0  0  0  0  0
  -26.8629  -28.6034   20.1395 C   0  0  0  0  0  0  0  0  0  0  0  0
  -25.2483  -30.4348   20.6759 C   0  0  0  0  0  0  0  0  0  0  0  0
  -25.4022  -16.7216   20.5093 C   0  0  0  0  0  0  0  0  0  0  0  0
  -25.4137  -18.5071   17.8012 C   0  0  0  0  0  0  0  0  0  0  0  0
  -25.4216  -21.6076   16.3751 C   0  0  0  0  0  0  0  0  0  0  0  0
  -29.4440  -23.2394   20.7846 C   0  0  0  0  0  0  0  0  0  0  0  0
  -25.3288  -11.6578   19.8688 C   0  0  0  0  0  0  0  0  0  0  0  0
  -23.4707  -18.2863   20.9299 C   0  0  0  0  0  0  0  0  0  0  0  0
  -25.8625  -19.7306   19.9615 C   0  0  0  0  0  0  0  0  0  0  0  0
  -25.9220  -12.8451   19.1148 C   0  0  0  0  0  0  0  0  0  0  0  0
  -29.1492  -25.1258   17.7794 C   0  0  0  0  0  0  0  0  0  0  0  0
  -26.6781  -13.7614   20.0717 C   0  0  0  0  0  0  0  0  0  0  0  0
  -28.0701  -26.1610   18.1017 C   0  0  0  0  0  0  0  0  0  0  0  0
  -28.8560  -23.7805   18.4398 C   0  0  0  0  0  0  0  0  0  0  0  0
  -27.5484  -24.8771   20.2179 C   0  0  0  0  0  0  0  0  0  0  0  0
  -25.7406  -14.3384   21.1393 C   0  0  1  0  0  0  0  0  0  0  0  0
  -24.4149  -17.6756   19.8989 C   0  0  1  0  0  0  0  0  0  0  0  0
  -27.8295  -26.2662   19.6197 C   0  0  2  0  0  0  0  0  0  0  0  0
  -25.4701  -22.7478   14.1402 C   0  0  0  0  0  0  0  0  0  0  0  0
  -24.4387  -25.4140   25.6427 C   0  0  0  0  0  0  0  0  0  0  0  0
  -28.3870  -17.8719   17.5443 C   0  0  0  0  0  0  0  0  0  0  0  0
  -28.5756  -19.7523   15.9021 C   0  0  0  0  0  0  0  0  0  0  0  0
  -27.1144  -17.7957   15.3928 C   0  0  0  0  0  0  0  0  0  0  0  0
  -22.8104  -22.9150   16.8557 C   0  0  0  0  0  0  0  0  0  0  0  0
  -29.9240  -22.8093   23.1812 C   0  0  0  0  0  0  0  0  0  0  0  0
  -24.9975  -23.0493   24.9838 C   0  0  0  0  0  0  0  0  0  1  0  0
  -26.3890  -19.4596   17.1528 C   0  0  1  0  0  0  0  0  0  0  0  0
  -24.5894  -22.2027   15.2537 C   0  0  2  0  0  0  0  0  0  0  0  0
  -25.5385  -24.4625   25.1904 C   0  0  2  0  0  0  0  0  0  0  0  0
  -27.6064  -18.7245   16.5242 C   0  0  0  0  0  0  0  0  0  0  0  0
  -30.0688  -23.6841   26.8148 N   0  0  0  0  0  0  0  0  0  0  0  0
  -25.4669  -26.8165   20.0645 N   0  0  0  0  0  0  0  0  0  0  0  0
  -28.2239  -23.6356   24.7032 N   0  0  0  0  0  0  0  0  0  0  0  0
  -26.7298  -27.2601   19.9446 N   0  0  0  0  0  0  0  0  0  0  0  0
  -25.1889  -18.6851   19.1736 N   0  0  0  0  0  0  0  0  0  0  0  0
  -28.6392  -23.9498   19.8787 N   0  0  0  0  0  0  0  0  0  0  0  0
  -28.0639  -29.2142   20.0560 N   0  0  0  0  0  0  0  0  0  0  0  0
  -23.9042  -30.7415   20.9278 N   0  0  0  0  0  0  0  0  0  0  0  0
  -26.5812  -24.4404   26.1967 N   0  0  0  0  0  0  0  0  0  0  0  0
  -24.9503  -15.4181   20.5877 N   0  0  0  0  0  0  0  0  0  0  0  0
  -25.6152  -20.2532   16.2041 N   0  0  0  0  0  0  0  0  0  0  0  0
  -29.1766  -23.4624   22.1298 N   0  0  0  0  0  0  0  0  0  0  0  0
  -23.7431  -23.3150   15.7708 N   0  3  0  0  0  0  0  0  0  0  0  0
  -26.0991  -31.3566   20.6778 O   0  0  0  0  0  0  0  0  0  0  0  0
  -26.4938  -17.1370   20.8803 O   0  0  0  0  0  0  0  0  0  0  0  0
  -24.8659  -17.6417   17.1137 O   0  0  0  0  0  0  0  0  0  0  0  0
  -25.8596  -22.2780   17.3075 O   0  0  0  0  0  0  0  0  0  0  0  0
  -30.3385  -22.4680   20.4216 O   0  0  0  0  0  0  0  0  0  0  0  0
  -19.2517  -27.6850   21.1441 O   0  0  0  0  0  0  0  0  0  0  0  0
  -25.8601  -22.3154   24.1156 O   0  0  0  0  0  0  0  0  0  1  0  0
  -17.1656  -30.4445   25.4380 F   0  0  0  0  0  0  0  0  0  0  0  0
  -17.8693  -26.3655   23.1419 F   0  0  0  0  0  0  0  0  0  0  0  0
  1  2  1  0  0  0  0
  1  5  2  0  0  0  0
  2  6  2  0  0  0  0
  3  8  2  0  0  0  0
  3 17  1  0  0  0  0
  4  9  1  0  0  0  0
  4 17  2  0  0  0  0
  5 19  1  0  0  0  0
  6 21  1  0  0  0  0
  7 10  2  0  0  0  0
  7 20  1  0  0  0  0
  8 23  1  0  0  0  0
  9 23  2  0  0  0  0
 10 24  1  0  0  0  0
 11 12  2  0  0  0  0
 11 25  1  0  0  0  0
 12 26  1  0  0  0  0
 13 22  1  0  0  0  0
 13 24  2  0  0  0  0
 14 26  2  0  0  0  0
 14 27  1  0  0  0  0
 15 29  2  0  0  0  0
 15 61  1  0  0  0  0
 16 30  1  0  0  0  0
 16 61  2  0  0  0  0
 17 28  1  0  0  0  0
 18 28  1  0  0  0  0
 18 31  2  0  0  0  0
 18 32  1  0  0  0  0
 19 21  2  0  0  0  0
 19 37  1  0  0  0  0
 20 22  2  0  0  0  0
 20 38  1  0  0  0  0
 21 46  1  0  0  0  0
 22 39  1  0  0  0  0
 23 79  1  0  0  0  0
 24 80  1  0  0  0  0
 25 27  2  0  0  0  0
 25 79  1  0  0  0  0
 26 81  1  0  0  0  0
 27 82  1  0  0  0  0
 28 62  2  0  0  0  0
 29 55  1  0  0  0  0
 29 63  1  0  0  0  0
 30 63  2  0  0  0  0
 30 69  1  0  0  0  0
 31 64  1  0  0  0  0
 31 67  1  0  0  0  0
 32 68  1  0  0  0  0
 32 74  2  0  0  0  0
 33 47  1  0  0  0  0
 33 70  1  0  0  0  0
 33 75  2  0  0  0  0
 34 57  1  0  0  0  0
 34 65  1  0  0  0  0
 34 76  2  0  0  0  0
 35 58  1  0  0  0  0
 35 71  1  0  0  0  0
 35 77  2  0  0  0  0
 36 66  1  0  0  0  0
 36 72  1  0  0  0  0
 36 78  2  0  0  0  0
 37 40  1  0  0  0  0
 38 47  1  0  0  0  0
 39 65  1  0  0  0  0
 40 42  1  0  0  0  0
 41 43  1  0  0  0  0
 41 44  1  0  0  0  0
 42 46  1  0  0  0  0
 43 48  1  0  0  0  0
 44 66  1  0  0  0  0
 45 48  1  0  0  0  0
 45 66  1  0  0  0  0
 46 70  1  0  0  0  0
 47 65  1  0  0  0  0
 48 64  1  0  0  0  0
 49 58  1  0  0  0  0
 50 59  1  0  0  0  0
 51 60  1  0  0  0  0
 52 60  1  0  0  0  0
 53 60  1  0  0  0  0
 54 73  1  0  0  0  0
 55 72  1  0  0  0  0
 56 59  1  0  0  0  0
 56 80  1  0  0  0  0
 57 60  1  0  0  0  0
 57 71  1  0  0  0  0
 58 73  1  0  0  0  0
 59 69  1  0  0  0  0
 62 64  1  0  0  0  0
M  CHG  1  73   1
M  ISO  4  36 100  56 101  72 100  80 101
M  END
> <Batch ID>
0196

> <Smiles>
CNC(C)C(=O)NC(C(=O)N1Cc2cc([101O:1][101CH2:1]C(C)Nc3cncc(C[100NH:0][100C:0](=O)N4CCCC(n5nc(-c6ccc(Oc7ccc(F)cc7F)cc6)c(C(N)=O)c5N)C4)n3)ccc2CC1C(=O)NC1CCCc2ccccc21)C(C)(C)C

> <Shape>
0.188

> <Color>
0.061

> <Negative vol penalty>
0.000

$$$$

  -OEChem-04052305393D

 80 88  0     1  0  0  0  0  0999 V2000
  -18.3749  -27.4903   13.4935 C   0  0  0  0  0  0  0  0  0  0  0  0
  -19.6594  -27.0532   13.8006 C   0  0  0  0  0  0  0  0  0  0  0  0
  -23.0555   -9.8902   19.9533 C   0  0  0  0  0  0  0  0  0  0  0  0
  -23.8316   -9.8845   22.2412 C   0  0  0  0  0  0  0  0  0  0  0  0
  -17.2884  -27.0373   14.2407 C   0  0  0  0  0  0  0  0  0  0  0  0
  -19.8584  -26.1636   14.8558 C   0  0  0  0  0  0  0  0  0  0  0  0
  -24.0397  -21.7000   15.1695 C   0  0  0  0  0  0  0  0  0  0  0  0
  -22.2931   -8.7505   20.2090 C   0  0  0  0  0  0  0  0  0  0  0  0
  -23.0691   -8.7448   22.4970 C   0  0  0  0  0  0  0  0  0  0  0  0
  -25.2907  -21.6279   15.7806 C   0  0  0  0  0  0  0  0  0  0  0  0
  -19.3415   -8.0068   21.6814 C   0  0  0  0  0  0  0  0  0  0  0  0
  -18.0306   -7.9835   21.2054 C   0  0  0  0  0  0  0  0  0  0  0  0
  -24.2845  -20.5718   17.7019 C   0  0  0  0  0  0  0  0  0  0  0  0
  -18.5465   -6.0304   19.8801 C   0  0  0  0  0  0  0  0  0  0  0  0
  -23.8248  -10.4572   20.9694 C   0  0  0  0  0  0  0  0  0  0  0  0
  -24.2104  -12.9759   20.8458 C   0  0  0  0  0  0  0  0  0  0  0  0
  -17.4731  -26.1342   15.2995 C   0  0  0  0  0  0  0  0  0  0  0  0
  -22.8981  -21.2176   15.8256 C   0  0  0  0  0  0  0  0  0  0  0  0
  -18.7735  -25.6992   15.6187 C   0  0  0  0  0  0  0  0  0  0  0  0
  -23.0205  -20.6366   17.0959 C   0  0  0  0  0  0  0  0  0  0  0  0
  -22.2999   -8.1778   21.4808 C   0  0  0  0  0  0  0  0  0  0  0  0
  -25.4128  -21.0663   17.0483 C   0  0  0  0  0  0  0  0  0  0  0  0
  -20.2550   -7.0419   21.2567 C   0  0  0  0  0  0  0  0  0  0  0  0
  -17.6331   -6.9953   20.3048 C   0  0  0  0  0  0  0  0  0  0  0  0
  -19.8575   -6.0537   20.3561 C   0  0  0  0  0  0  0  0  0  0  0  0
  -24.6130  -11.6342   20.7057 C   0  0  0  0  0  0  0  0  0  0  0  0
  -25.3131  -13.7058   20.4745 C   0  0  0  0  0  0  0  0  0  0  0  0
  -30.7496  -17.8771   20.8934 C   0  0  0  0  0  0  0  0  0  0  0  0
  -29.9465  -19.2167   19.3782 C   0  0  0  0  0  0  0  0  0  0  0  0
  -22.9523  -13.5142   21.2734 C   0  0  0  0  0  0  0  0  0  0  0  0
  -20.1856  -22.5162   16.8548 C   0  0  0  0  0  0  0  0  0  0  0  0
  -19.4133  -19.4343   17.5090 C   0  0  0  0  0  0  0  0  0  0  0  0
  -20.4753  -16.2613   18.1806 C   0  0  0  0  0  0  0  0  0  0  0  0
  -30.8152  -14.6276   20.6238 C   0  0  0  0  0  0  0  0  0  0  0  0
  -16.2734  -25.7093   16.1088 C   0  0  0  0  0  0  0  0  0  0  0  0
  -21.5599  -21.2785   15.1416 C   0  0  0  0  0  0  0  0  0  0  0  0
  -21.8289  -20.0858   17.8342 C   0  0  0  0  0  0  0  0  0  0  0  0
  -16.5270  -24.4764   16.9725 C   0  0  0  0  0  0  0  0  0  0  0  0
  -29.6188  -12.2628   18.2462 C   0  0  0  0  0  0  0  0  0  0  0  0
  -17.8508  -24.6103   17.7184 C   0  0  0  0  0  0  0  0  0  0  0  0
  -28.1794  -11.9947   18.6893 C   0  0  0  0  0  0  0  0  0  0  0  0
  -30.5481  -12.4677   19.4404 C   0  0  0  0  0  0  0  0  0  0  0  0
  -28.6694  -13.2328   20.8401 C   0  0  0  0  0  0  0  0  0  0  0  0
  -19.0270  -24.7152   16.7402 C   0  0  1  0  0  0  0  0  0  0  0  0
  -20.3876  -21.2234   16.1163 C   0  0  1  0  0  0  0  0  0  0  0  0
  -27.6841  -13.0751   19.6694 C   0  0  2  0  0  0  0  0  0  0  0  0
  -19.6114  -13.9651   18.7084 C   0  0  0  0  0  0  0  0  0  0  0  0
  -18.7898  -20.3268   20.3594 C   0  0  0  0  0  0  0  0  0  0  0  0
  -18.8636  -17.9225   21.0539 C   0  0  0  0  0  0  0  0  0  0  0  0
  -17.1616  -18.6893   19.3992 C   0  0  0  0  0  0  0  0  0  0  0  0
  -21.7195  -15.1093   15.7549 C   0  0  0  0  0  0  0  0  0  0  0  0
  -30.9279  -16.7770   21.8592 C   0  0  0  0  0  0  0  0  0  0  0  0
  -29.0265  -20.7507   17.6387 C   0  0  0  0  0  0  0  0  0  0  0  0
  -27.7692  -20.8702   16.7937 C   0  0  0  0  0  0  0  0  0  1  0  0
  -19.5843  -18.5183   18.6967 C   0  0  1  0  0  0  0  0  0  0  0  0
  -20.0583  -14.9177   17.6103 C   0  0  2  0  0  0  0  0  0  0  0  0
  -18.6222  -18.8763   19.8645 C   0  0  0  0  0  0  0  0  0  0  0  0
  -25.8730  -11.5158   20.2785 N   0  0  0  0  0  0  0  0  0  0  0  0
  -29.6985  -18.0809   20.1301 N   0  0  0  0  0  0  0  0  0  0  0  0
  -31.0930  -19.8842   19.5080 N   0  0  0  0  0  0  0  0  0  0  0  0
  -26.2717  -12.7925   20.1470 N   0  0  0  0  0  0  0  0  0  0  0  0
  -20.5411  -20.1742   17.1262 N   0  0  0  0  0  0  0  0  0  0  0  0
  -30.0221  -13.5061   20.3298 N   0  0  0  0  0  0  0  0  0  0  0  0
  -25.5465  -15.0333   20.3994 N   0  0  0  0  0  0  0  0  0  0  0  0
  -21.9268  -12.6232   21.6182 N   0  0  0  0  0  0  0  0  0  0  0  0
  -28.9431  -19.5946   18.5015 N   0  0  0  0  0  0  0  0  0  0  0  0
  -19.3574  -23.4116   16.2053 N   0  0  0  0  0  0  0  0  0  0  0  0
  -19.4289  -17.1592   18.1897 N   0  0  0  0  0  0  0  0  0  0  0  0
  -30.2386  -15.5671   21.4696 N   0  0  0  0  0  0  0  0  0  0  0  0
  -21.1947  -14.2906   16.8780 N   0  3  0  0  0  0  0  0  0  0  0  0
  -22.7383  -14.7489   21.3319 O   0  0  0  0  0  0  0  0  0  0  0  0
  -20.7388  -22.6880   17.9347 O   0  0  0  0  0  0  0  0  0  0  0  0
  -18.3214  -19.4859   16.9373 O   0  0  0  0  0  0  0  0  0  0  0  0
  -21.6143  -16.4902   18.5815 O   0  0  0  0  0  0  0  0  0  0  0  0
  -31.9509  -14.7827   20.1621 O   0  0  0  0  0  0  0  0  0  0  0  0
  -21.5559   -7.0658   21.7308 O   0  0  0  0  0  0  0  0  0  0  0  0
  -26.6326  -20.9953   17.6474 O   0  0  0  0  0  0  0  0  0  1  0  0
  -16.3738   -6.9722   19.8489 F   0  0  0  0  0  0  0  0  0  0  0  0
  -20.7302   -5.1233   19.9454 F   0  0  0  0  0  0  0  0  0  0  0  0
  -31.9745  -19.0571   20.6653 S   0  0  0  0  0  0  0  0  0  0  0  0
  1  2  1  0  0  0  0
  1  5  2  0  0  0  0
  2  6  2  0  0  0  0
  3  8  2  0  0  0  0
  3 15  1  0  0  0  0
  4  9  1  0  0  0  0
  4 15  2  0  0  0  0
  5 17  1  0  0  0  0
  6 19  1  0  0  0  0
  7 10  2  0  0  0  0
  7 18  1  0  0  0  0
  8 21  1  0  0  0  0
  9 21  2  0  0  0  0
 10 22  1  0  0  0  0
 11 12  2  0  0  0  0
 11 23  1  0  0  0  0
 12 24  1  0  0  0  0
 13 20  1  0  0  0  0
 13 22  2  0  0  0  0
 14 24  2  0  0  0  0
 14 25  1  0  0  0  0
 15 26  1  0  0  0  0
 16 26  1  0  0  0  0
 16 27  2  0  0  0  0
 16 30  1  0  0  0  0
 17 19  2  0  0  0  0
 17 35  1  0  0  0  0
 18 20  2  0  0  0  0
 18 36  1  0  0  0  0
 19 44  1  0  0  0  0
 20 37  1  0  0  0  0
 21 76  1  0  0  0  0
 22 77  1  0  0  0  0
 23 25  2  0  0  0  0
 23 76  1  0  0  0  0
 24 78  1  0  0  0  0
 25 79  1  0  0  0  0
 26 58  2  0  0  0  0
 27 61  1  0  0  0  0
 27 64  1  0  0  0  0
 28 52  1  0  0  0  0
 28 59  2  0  0  0  0
 28 80  1  0  0  0  0
 29 59  1  0  0  0  0
 29 60  2  0  0  0  0
 29 66  1  0  0  0  0
 30 65  1  0  0  0  0
 30 71  2  0  0  0  0
 31 45  1  0  0  0  0
 31 67  1  0  0  0  0
 31 72  2  0  0  0  0
 32 55  1  0  0  0  0
 32 62  1  0  0  0  0
 32 73  2  0  0  0  0
 33 56  1  0  0  0  0
 33 68  1  0  0  0  0
 33 74  2  0  0  0  0
 34 63  1  0  0  0  0
 34 69  1  0  0  0  0
 34 75  2  0  0  0  0
 35 38  1  0  0  0  0
 36 45  1  0  0  0  0
 37 62  1  0  0  0  0
 38 40  1  0  0  0  0
 39 41  1  0  0  0  0
 39 42  1  0  0  0  0
 40 44  1  0  0  0  0
 41 46  1  0  0  0  0
 42 63  1  0  0  0  0
 43 46  1  0  0  0  0
 43 63  1  0  0  0  0
 44 67  1  0  0  0  0
 45 62  1  0  0  0  0
 46 61  1  0  0  0  0
 47 56  1  0  0  0  0
 48 57  1  0  0  0  0
 49 57  1  0  0  0  0
 50 57  1  0  0  0  0
 51 70  1  0  0  0  0
 52 69  1  0  0  0  0
 53 54  1  0  0  0  0
 53 66  1  0  0  0  0
 54 77  1  0  0  0  0
 55 57  1  0  0  0  0
 55 68  1  0  0  0  0
 56 70  1  0  0  0  0
 58 61  1  0  0  0  0
 60 80  1  0  0  0  0
M  CHG  1  70   1
M  ISO  4  34 100  54 101  69 100  77 101
M  END
> <Batch ID>
0196

> <Smiles>
CNC(C)C(=O)NC(C(=O)N1Cc2cc([101O:1][101CH2:1]CNc3nsc(C[100NH:0][100C:0](=O)N4CCCC(n5nc(-c6ccc(Oc7ccc(F)cc7F)cc6)c(C(N)=O)c5N)C4)n3)ccc2CC1C(=O)NC1CCCc2ccccc21)C(C)(C)C

> <Shape>
0.168

> <Color>
0.200

> <Negative vol penalty>
0.000

$$$$
