
  -OEChem-04052305413D

 82 90  0     1  0  0  0  0  0999 V2000
  -16.4963  -29.6079   23.7946 C   0  0  0  0  0  0  0  0  0  0  0  0
  -17.5417  -30.2434   24.4570 C   0  0  0  0  0  0  0  0  0  0  0  0
  -31.5400  -22.0191   20.6238 C   0  0  0  0  0  0  0  0  0  0  0  0
  -32.4542  -23.6409   22.1635 C   0  0  0  0  0  0  0  0  0  0  0  0
  -16.7644  -28.5586   22.9165 C   0  0  0  0  0  0  0  0  0  0  0  0
  -18.8558  -29.8292   24.2423 C   0  0  0  0  0  0  0  0  0  0  0  0
  -25.5387  -32.3916   23.9429 C   0  0  0  0  0  0  0  0  0  0  0  0
  -32.3112  -21.0202   21.2179 C   0  0  0  0  0  0  0  0  0  0  0  0
  -33.2254  -22.6420   22.7578 C   0  0  0  0  0  0  0  0  0  0  0  0
  -26.8051  -32.1624   24.4790 C   0  0  0  0  0  0  0  0  0  0  0  0
  -35.5210  -19.9651   21.1242 C   0  0  0  0  0  0  0  0  0  0  0  0
  -36.1977  -19.0828   20.2822 C   0  0  0  0  0  0  0  0  0  0  0  0
  -27.1551  -30.3911   22.8792 C   0  0  0  0  0  0  0  0  0  0  0  0
  -32.8617  -31.5945   20.8144 C   0  0  0  0  0  0  0  0  0  0  0  0
  -34.9884  -17.2297   21.2521 C   0  0  0  0  0  0  0  0  0  0  0  0
  -34.8417  -32.1619   21.8914 C   0  0  0  0  0  0  0  0  0  0  0  0
  -31.6115  -23.3295   21.0965 C   0  0  0  0  0  0  0  0  0  0  0  0
  -29.5126  -24.7566   20.8409 C   0  0  0  0  0  0  0  0  0  0  0  0
  -18.0832  -28.1377   22.6836 C   0  0  0  0  0  0  0  0  0  0  0  0
  -25.0658  -31.6137   22.8762 C   0  0  0  0  0  0  0  0  0  0  0  0
  -19.1416  -28.7724   23.3613 C   0  0  0  0  0  0  0  0  0  0  0  0
  -25.8833  -30.6141   22.3297 C   0  0  0  0  0  0  0  0  0  0  0  0
  -33.4974  -31.9068   22.0507 C   0  0  0  0  0  0  0  0  0  0  0  0
  -33.1539  -21.3316   22.2849 C   0  0  0  0  0  0  0  0  0  0  0  0
  -27.6124  -31.1601   23.9490 C   0  0  0  0  0  0  0  0  0  0  0  0
  -34.5780  -19.4798   22.0303 C   0  0  0  0  0  0  0  0  0  0  0  0
  -35.9314  -17.7150   20.3461 C   0  0  0  0  0  0  0  0  0  0  0  0
  -34.3117  -18.1121   22.0943 C   0  0  0  0  0  0  0  0  0  0  0  0
  -30.8155  -24.3618   20.4828 C   0  0  0  0  0  0  0  0  0  0  0  0
  -33.7444  -31.6231   19.7571 C   0  0  0  0  0  0  0  0  0  0  0  0
  -29.2056  -25.7659   19.9614 C   0  0  0  0  0  0  0  0  0  0  0  0
  -28.6563  -24.2557   21.8761 C   0  0  0  0  0  0  0  0  0  0  0  0
  -22.6236  -29.6217   22.4627 C   0  0  0  0  0  0  0  0  0  0  0  0
  -23.6533  -29.6175   19.3866 C   0  0  0  0  0  0  0  0  0  0  0  0
  -26.2250  -29.5859   16.8563 C   0  0  0  0  0  0  0  0  0  0  0  0
  -32.5655  -29.6045   16.8265 C   0  0  0  0  0  0  0  0  0  0  0  0
  -18.3197  -26.9679   21.7615 C   0  0  0  0  0  0  0  0  0  0  0  0
  -23.7079  -31.8913   22.2918 C   0  0  0  0  0  0  0  0  0  0  0  0
  -25.4305  -29.7647   21.1713 C   0  0  0  0  0  0  0  0  0  0  0  0
  -19.7702  -26.8365   21.3041 C   0  0  0  0  0  0  0  0  0  0  0  0
  -30.1782  -27.3001   15.5352 C   0  0  0  0  0  0  0  0  0  0  0  0
  -20.7192  -26.9845   22.4891 C   0  0  0  0  0  0  0  0  0  0  0  0
  -29.9533  -26.3214   16.6891 C   0  0  0  0  0  0  0  0  0  0  0  0
  -31.6324  -27.7603   15.4608 C   0  0  0  0  0  0  0  0  0  0  0  0
  -31.9449  -27.3408   17.8692 C   0  0  0  0  0  0  0  0  0  0  0  0
  -20.5825  -28.3682   23.1359 C   0  0  1  0  0  0  0  0  0  0  0  0
  -23.1250  -30.6977   21.5415 C   0  0  1  0  0  0  0  0  0  0  0  0
  -30.4813  -26.8917   18.0191 C   0  0  2  0  0  0  0  0  0  0  0  0
  -26.0537  -29.6832   14.3546 C   0  0  0  0  0  0  0  0  0  0  0  0
  -23.7412  -26.5720   19.5516 C   0  0  0  0  0  0  0  0  0  0  0  0
  -25.1592  -26.5707   17.4883 C   0  0  0  0  0  0  0  0  0  0  0  0
  -22.8358  -27.4746   17.4021 C   0  0  0  0  0  0  0  0  0  0  0  0
  -28.0151  -31.9381   16.7093 C   0  0  0  0  0  0  0  0  0  0  0  0
  -33.4765  -31.3590   18.3268 C   0  0  0  0  0  0  0  0  0  0  0  0
  -31.4321  -31.6811   23.4325 C   0  0  0  0  0  0  0  0  0  0  0  0
  -29.5287  -32.0527   25.0385 C   0  0  0  0  0  0  0  0  0  1  0  0
  -24.6360  -28.7945   18.5893 C   0  0  1  0  0  0  0  0  0  0  0  0
  -26.3030  -30.4754   15.6286 C   0  0  2  0  0  0  0  0  0  0  0  0
  -31.0324  -31.8421   24.8979 C   0  0  1  0  0  0  0  0  0  0  0  0
  -24.1011  -27.3675   18.2809 C   0  0  0  0  0  0  0  0  0  0  0  0
  -31.3028  -25.0631   19.4557 N   0  0  0  0  0  0  0  0  0  0  0  0
  -30.3006  -25.9085   19.1609 N   0  0  0  0  0  0  0  0  0  0  0  0
  -24.0924  -30.0703   20.6388 N   0  0  0  0  0  0  0  0  0  0  0  0
  -32.0709  -28.2918   16.7536 N   0  0  0  0  0  0  0  0  0  0  0  0
  -28.1086  -26.5363   19.8024 N   0  0  0  0  0  0  0  0  0  0  0  0
  -29.1285  -23.2164   22.6893 N   0  0  0  0  0  0  0  0  0  0  0  0
  -32.8435  -31.9496   23.2704 N   0  0  0  0  0  0  0  0  0  0  0  0
  -21.2707  -29.3659   22.3452 N   0  0  0  0  0  0  0  0  0  0  0  0
  -24.9594  -29.5806   17.4036 N   0  0  0  0  0  0  0  0  0  0  0  0
  -32.9534  -30.0318   18.0904 N   0  0  0  0  0  0  0  0  0  0  0  0
  -27.6486  -31.1088   15.5325 N   0  3  0  0  0  0  0  0  0  0  0  0
  -27.5002  -24.7051   22.0636 O   0  0  0  0  0  0  0  0  0  0  0  0
  -23.4065  -29.0637   23.2226 O   0  0  0  0  0  0  0  0  0  0  0  0
  -22.5396  -29.8561   18.9127 O   0  0  0  0  0  0  0  0  0  0  0  0
  -27.1893  -28.9557   17.2846 O   0  0  0  0  0  0  0  0  0  0  0  0
  -32.6498  -30.3428   15.8392 O   0  0  0  0  0  0  0  0  0  0  0  0
  -31.3729  -30.6500   25.6087 O   0  0  0  0  0  0  0  0  0  0  0  0
  -33.9064  -20.3571   22.8651 O   0  0  0  0  0  0  0  0  0  0  0  0
  -28.8487  -30.9339   24.4708 O   0  0  0  0  0  0  0  0  0  1  0  0
  -36.5802  -16.8680   19.5363 F   0  0  0  0  0  0  0  0  0  0  0  0
  -33.4060  -17.6400   22.9618 F   0  0  0  0  0  0  0  0  0  0  0  0
  -35.3323  -32.0248   20.2565 S   0  0  0  0  0  0  0  0  0  0  0  0
  1  2  1  0  0  0  0
  1  5  2  0  0  0  0
  2  6  2  0  0  0  0
  3  8  2  0  0  0  0
  3 17  1  0  0  0  0
  4  9  1  0  0  0  0
  4 17  2  0  0  0  0
  5 19  1  0  0  0  0
  6 21  1  0  0  0  0
  7 10  2  0  0  0  0
  7 20  1  0  0  0  0
  8 24  1  0  0  0  0
  9 24  2  0  0  0  0
 10 25  1  0  0  0  0
 11 12  2  0  0  0  0
 11 26  1  0  0  0  0
 12 27  1  0  0  0  0
 13 22  1  0  0  0  0
 13 25  2  0  0  0  0
 14 23  1  0  0  0  0
 14 30  2  0  0  0  0
 15 27  2  0  0  0  0
 15 28  1  0  0  0  0
 16 23  2  0  0  0  0
 16 82  1  0  0  0  0
 17 29  1  0  0  0  0
 18 29  1  0  0  0  0
 18 31  2  0  0  0  0
 18 32  1  0  0  0  0
 19 21  2  0  0  0  0
 19 37  1  0  0  0  0
 20 22  2  0  0  0  0
 20 38  1  0  0  0  0
 21 46  1  0  0  0  0
 22 39  1  0  0  0  0
 23 67  1  0  0  0  0
 24 78  1  0  0  0  0
 25 79  1  0  0  0  0
 26 28  2  0  0  0  0
 26 78  1  0  0  0  0
 27 80  1  0  0  0  0
 28 81  1  0  0  0  0
 29 61  2  0  0  0  0
 30 54  1  0  0  0  0
 30 82  1  0  0  0  0
 31 62  1  0  0  0  0
 31 65  1  0  0  0  0
 32 66  1  0  0  0  0
 32 72  2  0  0  0  0
 33 47  1  0  0  0  0
 33 68  1  0  0  0  0
 33 73  2  0  0  0  0
 34 57  1  0  0  0  0
 34 63  1  0  0  0  0
 34 74  2  0  0  0  0
 35 58  1  0  0  0  0
 35 69  1  0  0  0  0
 35 75  2  0  0  0  0
 36 64  1  0  0  0  0
 36 70  1  0  0  0  0
 36 76  2  0  0  0  0
 37 40  1  0  0  0  0
 38 47  1  0  0  0  0
 39 63  1  0  0  0  0
 40 42  1  0  0  0  0
 41 43  1  0  0  0  0
 41 44  1  0  0  0  0
 42 46  1  0  0  0  0
 43 48  1  0  0  0  0
 44 64  1  0  0  0  0
 45 48  1  0  0  0  0
 45 64  1  0  0  0  0
 46 68  1  0  0  0  0
 47 63  1  0  0  0  0
 48 62  1  0  0  0  0
 49 58  1  0  0  0  0
 50 60  1  0  0  0  0
 51 60  1  0  0  0  0
 52 60  1  0  0  0  0
 53 71  1  0  0  0  0
 54 70  1  0  0  0  0
 55 59  1  0  0  0  0
 55 67  1  0  0  0  0
 56 59  1  0  0  0  0
 56 79  1  0  0  0  0
 57 60  1  0  0  0  0
 57 69  1  0  0  0  0
 58 71  1  0  0  0  0
 59 77  1  0  0  0  0
 61 62  1  0  0  0  0
M  CHG  1  71   1
M  ISO  4  36 100  56 101  70 100  79 101
M  END
> <Batch ID>
0197

> <Smiles>
CNC(C)C(=O)NC(C(=O)N1Cc2cc([101O:1][101CH2:1]C(O)CNc3csc(C[100NH:0][100C:0](=O)N4CCCC(n5nc(-c6ccc(Oc7ccc(F)cc7F)cc6)c(C(N)=O)c5N)C4)c3)ccc2CC1C(=O)NC1CCCc2ccccc21)C(C)(C)C

> <Shape>
0.197

> <Color>
0.112

> <Negative vol penalty>
0.000

$$$$

  -OEChem-04052305413D

 83 91  0     1  0  0  0  0  0999 V2000
  -14.9131  -26.1749   26.4972 C   0  0  0  0  0  0  0  0  0  0  0  0
  -16.2041  -26.6594   26.3128 C   0  0  0  0  0  0  0  0  0  0  0  0
  -31.8861  -18.0518   18.7190 C   0  0  0  0  0  0  0  0  0  0  0  0
  -29.7372  -17.9548   19.8189 C   0  0  0  0  0  0  0  0  0  0  0  0
  -14.6844  -24.8000   26.5336 C   0  0  0  0  0  0  0  0  0  0  0  0
  -17.2673  -25.7693   26.1656 C   0  0  0  0  0  0  0  0  0  0  0  0
  -20.3871  -27.0752   22.3965 C   0  0  0  0  0  0  0  0  0  0  0  0
  -32.1075  -16.7110   19.0333 C   0  0  0  0  0  0  0  0  0  0  0  0
  -29.9585  -16.6140   20.1332 C   0  0  0  0  0  0  0  0  0  0  0  0
  -21.2931  -28.1047   22.6476 C   0  0  0  0  0  0  0  0  0  0  0  0
  -29.7892  -13.6278   18.5602 C   0  0  0  0  0  0  0  0  0  0  0  0
  -28.7402  -12.7327   18.3501 C   0  0  0  0  0  0  0  0  0  0  0  0
  -23.0308  -26.4747   23.0261 C   0  0  0  0  0  0  0  0  0  0  0  0
  -28.7496  -12.1703   20.6997 C   0  0  0  0  0  0  0  0  0  0  0  0
  -24.7566  -28.3699   19.9641 C   0  0  0  0  0  0  0  0  0  0  0  0
  -30.7009  -18.6737   19.1118 C   0  0  0  0  0  0  0  0  0  0  0  0
  -29.8559  -20.5706   17.6301 C   0  0  0  0  0  0  0  0  0  0  0  0
  -15.7439  -23.8925   26.3771 C   0  0  0  0  0  0  0  0  0  0  0  0
  -20.7941  -25.7353   22.4690 C   0  0  0  0  0  0  0  0  0  0  0  0
  -17.0527  -24.3810   26.2012 C   0  0  0  0  0  0  0  0  0  0  0  0
  -22.1285  -25.4302   22.7729 C   0  0  0  0  0  0  0  0  0  0  0  0
  -31.1437  -15.9921   19.7404 C   0  0  0  0  0  0  0  0  0  0  0  0
  -22.6145  -27.8044   22.9654 C   0  0  0  0  0  0  0  0  0  0  0  0
  -30.3184  -13.7940   19.8400 C   0  0  0  0  0  0  0  0  0  0  0  0
  -28.2204  -12.0040   19.4199 C   0  0  0  0  0  0  0  0  0  0  0  0
  -29.7986  -13.0653   20.9098 C   0  0  0  0  0  0  0  0  0  0  0  0
  -30.4719  -20.0589   18.7879 C   0  0  0  0  0  0  0  0  0  0  0  0
  -25.8358  -29.2088   20.1481 C   0  0  0  0  0  0  0  0  0  0  0  0
  -29.8812  -21.9331   17.8013 C   0  0  0  0  0  0  0  0  0  0  0  0
  -26.8547  -27.2901   20.4485 C   0  0  0  0  0  0  0  0  0  0  0  0
  -29.3097  -19.8763   16.5008 C   0  0  0  0  0  0  0  0  0  0  0  0
  -19.9810  -23.2378   24.2593 C   0  0  0  0  0  0  0  0  0  0  0  0
  -21.9680  -21.6448   22.2502 C   0  0  0  0  0  0  0  0  0  0  0  0
  -24.6055  -21.7626   20.0877 C   0  0  0  0  0  0  0  0  0  0  0  0
  -29.1751  -26.4582   20.9681 C   0  0  0  0  0  0  0  0  0  0  0  0
  -15.4544  -22.4154   26.4708 C   0  0  0  0  0  0  0  0  0  0  0  0
  -19.8110  -24.6371   22.1691 C   0  0  0  0  0  0  0  0  0  0  0  0
  -22.6207  -24.0085   22.8436 C   0  0  0  0  0  0  0  0  0  0  0  0
  -16.5817  -21.5383   25.9322 C   0  0  0  0  0  0  0  0  0  0  0  0
  -32.3057  -24.7799   21.2130 C   0  0  0  0  0  0  0  0  0  0  0  0
  -17.9292  -22.0131   26.4667 C   0  0  0  0  0  0  0  0  0  0  0  0
  -32.0570  -23.4441   20.5086 C   0  0  0  0  0  0  0  0  0  0  0  0
  -31.0810  -25.2426   22.0002 C   0  0  0  0  0  0  0  0  0  0  0  0
  -29.5825  -23.9572   20.5265 C   0  0  0  0  0  0  0  0  0  0  0  0
  -18.2285  -23.4470   26.0131 C   0  0  1  0  0  0  0  0  0  0  0  0
  -20.2105  -23.2955   22.7755 C   0  0  1  0  0  0  0  0  0  0  0  0
  -30.7659  -23.4822   19.6677 C   0  0  2  0  0  0  0  0  0  0  0  0
  -25.3212  -31.2277   18.7155 C   0  0  0  0  0  0  0  0  0  0  0  0
  -26.0246  -20.2936   18.6297 C   0  0  0  0  0  0  0  0  0  0  0  0
  -26.4886  -31.8961   22.9264 C   0  0  0  0  0  0  0  0  0  0  0  0
  -23.4391  -20.6198   24.7190 C   0  0  0  0  0  0  0  0  0  0  0  0
  -25.3456  -19.9754   23.2297 C   0  0  0  0  0  0  0  0  0  0  0  0
  -23.1090  -18.9155   22.9188 C   0  0  0  0  0  0  0  0  0  0  0  0
  -23.8026  -23.2191   17.6396 C   0  0  0  0  0  0  0  0  0  0  0  0
  -24.1477  -31.1051   23.4505 C   0  0  0  0  0  0  0  0  0  0  0  0
  -23.0089  -30.1441   23.1271 C   0  0  0  0  0  0  0  0  0  1  0  0
  -25.8038  -30.7178   20.0711 C   0  0  1  0  0  0  0  0  0  0  0  0
  -23.4436  -21.3266   22.2358 C   0  0  1  0  0  0  0  0  0  0  0  0
  -24.7942  -21.1848   18.6966 C   0  0  2  0  0  0  0  0  0  0  0  0
  -25.3504  -30.9721   22.5142 C   0  0  1  0  0  0  0  0  0  0  0  0
  -23.8249  -20.2362   23.2765 C   0  0  0  0  0  0  0  0  0  0  0  0
  -30.8602  -21.0183   19.6322 N   0  0  0  0  0  0  0  0  0  0  0  0
  -27.0396  -28.5914   20.4263 N   0  0  0  0  0  0  0  0  0  0  0  0
  -30.4874  -22.1464   19.0043 N   0  0  0  0  0  0  0  0  0  0  0  0
  -21.6199  -22.9699   22.5484 N   0  0  0  0  0  0  0  0  0  0  0  0
  -29.8970  -25.2579   21.1383 N   0  0  0  0  0  0  0  0  0  0  0  0
  -29.4438  -22.9576   17.0387 N   0  0  0  0  0  0  0  0  0  0  0  0
  -29.3662  -18.4760   16.4861 N   0  0  0  0  0  0  0  0  0  0  0  0
  -27.8190  -26.2817   20.6952 N   0  0  0  0  0  0  0  0  0  0  0  0
  -18.6698  -23.4594   24.6348 N   0  0  0  0  0  0  0  0  0  0  0  0
  -23.7727  -20.9785   20.8578 N   0  0  0  0  0  0  0  0  0  0  0  0
  -24.9520  -22.2796   17.6980 N   0  3  0  0  0  0  0  0  0  0  0  0
  -24.9509  -31.3277   21.1240 N   0  3  0  0  0  0  0  0  0  0  0  0
  -28.8018  -20.4805   15.5258 O   0  0  0  0  0  0  0  0  0  0  0  0
  -20.9235  -23.0077   25.0079 O   0  0  0  0  0  0  0  0  0  0  0  0
  -21.1544  -20.7523   21.9988 O   0  0  0  0  0  0  0  0  0  0  0  0
  -25.1461  -22.8032   20.4556 O   0  0  0  0  0  0  0  0  0  0  0  0
  -29.7251  -27.5607   21.0309 O   0  0  0  0  0  0  0  0  0  0  0  0
  -31.3593  -14.6836   20.0471 O   0  0  0  0  0  0  0  0  0  0  0  0
  -23.5008  -28.8073   23.2116 O   0  0  0  0  0  0  0  0  0  1  0  0
  -27.2121  -11.1457   19.2183 F   0  0  0  0  0  0  0  0  0  0  0  0
  -30.3021  -13.2216   22.1418 F   0  0  0  0  0  0  0  0  0  0  0  0
  -25.2584  -26.7397   20.1425 S   0  0  0  0  0  0  0  0  0  0  0  0
  1  2  1  0  0  0  0
  1  5  2  0  0  0  0
  2  6  2  0  0  0  0
  3  8  2  0  0  0  0
  3 16  1  0  0  0  0
  4  9  1  0  0  0  0
  4 16  2  0  0  0  0
  5 18  1  0  0  0  0
  6 20  1  0  0  0  0
  7 10  2  0  0  0  0
  7 19  1  0  0  0  0
  8 22  1  0  0  0  0
  9 22  2  0  0  0  0
 10 23  1  0  0  0  0
 11 12  2  0  0  0  0
 11 24  1  0  0  0  0
 12 25  1  0  0  0  0
 13 21  1  0  0  0  0
 13 23  2  0  0  0  0
 14 25  2  0  0  0  0
 14 26  1  0  0  0  0
 15 28  2  0  0  0  0
 15 83  1  0  0  0  0
 16 27  1  0  0  0  0
 17 27  1  0  0  0  0
 17 29  2  0  0  0  0
 17 31  1  0  0  0  0
 18 20  2  0  0  0  0
 18 36  1  0  0  0  0
 19 21  2  0  0  0  0
 19 37  1  0  0  0  0
 20 45  1  0  0  0  0
 21 38  1  0  0  0  0
 22 79  1  0  0  0  0
 23 80  1  0  0  0  0
 24 26  2  0  0  0  0
 24 79  1  0  0  0  0
 25 81  1  0  0  0  0
 26 82  1  0  0  0  0
 27 62  2  0  0  0  0
 28 57  1  0  0  0  0
 28 63  1  0  0  0  0
 29 64  1  0  0  0  0
 29 67  1  0  0  0  0
 30 63  2  0  0  0  0
 30 69  1  0  0  0  0
 30 83  1  0  0  0  0
 31 68  1  0  0  0  0
 31 74  2  0  0  0  0
 32 46  1  0  0  0  0
 32 70  1  0  0  0  0
 32 75  2  0  0  0  0
 33 58  1  0  0  0  0
 33 65  1  0  0  0  0
 33 76  2  0  0  0  0
 34 59  1  0  0  0  0
 34 71  1  0  0  0  0
 34 77  2  0  0  0  0
 35 66  1  0  0  0  0
 35 69  1  0  0  0  0
 35 78  2  0  0  0  0
 36 39  1  0  0  0  0
 37 46  1  0  0  0  0
 38 65  1  0  0  0  0
 39 41  1  0  0  0  0
 40 42  1  0  0  0  0
 40 43  1  0  0  0  0
 41 45  1  0  0  0  0
 42 47  1  0  0  0  0
 43 66  1  0  0  0  0
 44 47  1  0  0  0  0
 44 66  1  0  0  0  0
 45 70  1  0  0  0  0
 46 65  1  0  0  0  0
 47 64  1  0  0  0  0
 48 57  1  0  0  0  0
 49 59  1  0  0  0  0
 50 60  1  0  0  0  0
 51 61  1  0  0  0  0
 52 61  1  0  0  0  0
 53 61  1  0  0  0  0
 54 72  1  0  0  0  0
 55 56  1  0  0  0  0
 55 60  1  0  0  0  0
 56 80  1  0  0  0  0
 57 73  1  0  0  0  0
 58 61  1  0  0  0  0
 58 71  1  0  0  0  0
 59 72  1  0  0  0  0
 60 73  1  0  0  0  0
 62 64  1  0  0  0  0
M  CHG  2  72   1  73   1
M  ISO  4  35 100  56 101  69 100  80 101
M  END
> <Batch ID>
0197

> <Smiles>
CNC(C)C(=O)NC(C(=O)N1Cc2cc([101O:1][101CH2:1]CC(C)NC(C)c3csc([100NH:0][100C:0](=O)N4CCCC(n5nc(-c6ccc(Oc7ccc(F)cc7F)cc6)c(C(N)=O)c5N)C4)n3)ccc2CC1C(=O)NC1CCCc2ccccc21)C(C)(C)C

> <Shape>
0.200

> <Color>
0.072

> <Negative vol penalty>
0.000

$$$$

  -OEChem-04052305413D

 84 92  0     1  0  0  0  0  0999 V2000
  -18.3193  -33.3958   23.7195 C   0  0  0  0  0  0  0  0  0  0  0  0
  -19.4827  -33.4351   22.9576 C   0  0  0  0  0  0  0  0  0  0  0  0
  -24.4720  -14.2654   20.5059 C   0  0  0  0  0  0  0  0  0  0  0  0
  -26.6701  -14.0593   21.4873 C   0  0  0  0  0  0  0  0  0  0  0  0
  -18.1053  -32.3440   24.6092 C   0  0  0  0  0  0  0  0  0  0  0  0
  -20.4332  -32.4229   23.0858 C   0  0  0  0  0  0  0  0  0  0  0  0
  -25.2806  -28.7985   19.2539 C   0  0  0  0  0  0  0  0  0  0  0  0
  -24.4393  -12.8879   20.2897 C   0  0  0  0  0  0  0  0  0  0  0  0
  -26.6374  -12.6817   21.2711 C   0  0  0  0  0  0  0  0  0  0  0  0
  -26.6286  -28.4435   19.2814 C   0  0  0  0  0  0  0  0  0  0  0  0
  -23.8595  -10.0945   22.1046 C   0  0  0  0  0  0  0  0  0  0  0  0
  -22.6886   -9.4137   22.4378 C   0  0  0  0  0  0  0  0  0  0  0  0
  -26.1152  -26.6344   20.7923 C   0  0  0  0  0  0  0  0  0  0  0  0
  -22.4534   -8.6951   20.1431 C   0  0  0  0  0  0  0  0  0  0  0  0
  -32.3442  -22.9894   23.1634 C   0  0  0  0  0  0  0  0  0  0  0  0
  -25.5874  -14.8512   21.1047 C   0  0  0  0  0  0  0  0  0  0  0  0
  -25.1772  -16.9667   22.4700 C   0  0  0  0  0  0  0  0  0  0  0  0
  -19.0492  -31.3133   24.7413 C   0  0  0  0  0  0  0  0  0  0  0  0
  -24.3398  -28.0796   20.0053 C   0  0  0  0  0  0  0  0  0  0  0  0
  -20.2322  -31.3569   23.9791 C   0  0  0  0  0  0  0  0  0  0  0  0
  -24.7555  -26.9807   20.7707 C   0  0  0  0  0  0  0  0  0  0  0  0
  -25.5220  -12.0960   20.6723 C   0  0  0  0  0  0  0  0  0  0  0  0
  -27.0465  -27.3632   20.0529 C   0  0  0  0  0  0  0  0  0  0  0  0
  -24.3273  -10.0758   20.7907 C   0  0  0  0  0  0  0  0  0  0  0  0
  -21.9856   -8.7139   21.4571 C   0  0  0  0  0  0  0  0  0  0  0  0
  -23.6243   -9.3761   19.8099 C   0  0  0  0  0  0  0  0  0  0  0  0
  -25.6220  -16.2742   21.3279 C   0  0  0  0  0  0  0  0  0  0  0  0
  -32.2386  -23.7770   22.0362 C   0  0  0  0  0  0  0  0  0  0  0  0
  -25.4273  -18.2878   22.1896 C   0  0  0  0  0  0  0  0  0  0  0  0
  -30.8186  -22.2032   21.4731 C   0  0  0  0  0  0  0  0  0  0  0  0
  -24.5906  -16.4609   23.6766 C   0  0  0  0  0  0  0  0  0  0  0  0
  -22.3576  -28.7876   22.3871 C   0  0  0  0  0  0  0  0  0  0  0  0
  -21.3136  -25.7550   21.9016 C   0  0  0  0  0  0  0  0  0  0  0  0
  -21.9709  -22.6170   20.7322 C   0  0  0  0  0  0  0  0  0  0  0  0
  -29.3083  -21.6430   19.5363 C   0  0  0  0  0  0  0  0  0  0  0  0
  -18.7956  -30.2218   25.7507 C   0  0  0  0  0  0  0  0  0  0  0  0
  -22.8855  -28.4587   19.9440 C   0  0  0  0  0  0  0  0  0  0  0  0
  -23.7823  -26.1639   21.5794 C   0  0  0  0  0  0  0  0  0  0  0  0
  -19.6791  -28.9926   25.5534 C   0  0  0  0  0  0  0  0  0  0  0  0
  -26.1623  -20.8927   18.0474 C   0  0  0  0  0  0  0  0  0  0  0  0
  -21.1306  -29.4078   25.3354 C   0  0  0  0  0  0  0  0  0  0  0  0
  -25.6573  -19.6929   18.8523 C   0  0  0  0  0  0  0  0  0  0  0  0
  -27.6754  -20.8421   17.8431 C   0  0  0  0  0  0  0  0  0  0  0  0
  -27.9578  -19.4807   19.8768 C   0  0  0  0  0  0  0  0  0  0  0  0
  -21.2754  -30.2646   24.0719 C   0  0  1  0  0  0  0  0  0  0  0  0
  -22.0903  -27.9742   21.1524 C   0  0  1  0  0  0  0  0  0  0  0  0
  -26.4480  -19.5213   20.1641 C   0  0  2  0  0  0  0  0  0  0  0  0
  -34.4632  -27.5093   22.0181 C   0  0  0  0  0  0  0  0  0  0  0  0
  -20.9366  -20.3416   20.5079 C   0  0  0  0  0  0  0  0  0  0  0  0
  -30.5732  -26.9854   23.9394 C   0  0  0  0  0  0  0  0  0  0  0  0
  -21.7862  -25.2499   24.8734 C   0  0  0  0  0  0  0  0  0  0  0  0
  -21.6609  -22.7937   24.4046 C   0  0  0  0  0  0  0  0  0  0  0  0
  -19.6819  -24.2478   23.9666 C   0  0  0  0  0  0  0  0  0  0  0  0
  -22.1670  -22.6914   17.7801 C   0  0  0  0  0  0  0  0  0  0  0  0
  -32.9834  -25.0554   21.7876 C   0  0  0  0  0  0  0  0  0  0  0  0
  -30.3252  -26.7576   21.4361 C   0  0  0  0  0  0  0  0  0  0  0  0
  -32.9507  -27.5316   22.0490 C   0  0  0  0  0  0  0  0  0  0  0  0
  -28.8480  -26.4134   21.2811 C   0  0  0  0  0  0  0  0  0  1  0  0
  -21.6909  -24.3956   22.4388 C   0  0  1  0  0  0  0  0  0  0  0  0
  -21.1705  -21.6869   19.8384 C   0  0  2  0  0  0  0  0  0  0  0  0
  -30.9615  -26.1843   22.7038 C   0  0  1  0  0  0  0  0  0  0  0  0
  -21.2238  -24.1881   23.9073 C   0  0  0  0  0  0  0  0  0  0  0  0
  -26.1169  -17.0882   20.3916 N   0  0  0  0  0  0  0  0  0  0  0  0
  -31.3646  -23.3275   21.0657 N   0  0  0  0  0  0  0  0  0  0  0  0
  -25.9845  -18.3057   20.9449 N   0  0  0  0  0  0  0  0  0  0  0  0
  -22.3722  -26.5779   21.4916 N   0  0  0  0  0  0  0  0  0  0  0  0
  -28.3583  -20.6827   19.1288 N   0  0  0  0  0  0  0  0  0  0  0  0
  -25.2225  -19.4243   22.8888 N   0  0  0  0  0  0  0  0  0  0  0  0
  -24.4048  -15.0773   23.8002 N   0  0  0  0  0  0  0  0  0  0  0  0
  -29.8681  -21.4040   20.7909 N   0  0  0  0  0  0  0  0  0  0  0  0
  -21.2425  -29.4309   22.8894 N   0  0  0  0  0  0  0  0  0  0  0  0
  -21.1519  -23.4205   21.4970 N   0  0  0  0  0  0  0  0  0  0  0  0
  -21.8915  -21.4543   18.5551 N   0  3  0  0  0  0  0  0  0  0  0  0
  -32.4458  -26.2163   22.5838 N   0  3  1  0  0  0  0  0  0  0  0  0
  -24.2265  -17.2151   24.6104 O   0  0  0  0  0  0  0  0  0  0  0  0
  -23.4912  -28.8274   22.8508 O   0  0  0  0  0  0  0  0  0  0  0  0
  -20.1231  -26.0722   21.8411 O   0  0  0  0  0  0  0  0  0  0  0  0
  -23.1997  -22.6269   20.7528 O   0  0  0  0  0  0  0  0  0  0  0  0
  -29.5836  -22.6211   18.8366 O   0  0  0  0  0  0  0  0  0  0  0  0
  -25.4903  -10.7516   20.4616 O   0  0  0  0  0  0  0  0  0  0  0  0
  -28.3617  -27.0150   20.0819 O   0  0  0  0  0  0  0  0  0  1  0  0
  -20.8621   -8.0588   21.7775 F   0  0  0  0  0  0  0  0  0  0  0  0
  -24.0695   -9.3534   18.5462 F   0  0  0  0  0  0  0  0  0  0  0  0
  -31.3103  -21.6293   23.0139 S   0  0  0  0  0  0  0  0  0  0  0  0
  1  2  1  0  0  0  0
  1  5  2  0  0  0  0
  2  6  2  0  0  0  0
  3  8  2  0  0  0  0
  3 16  1  0  0  0  0
  4  9  1  0  0  0  0
  4 16  2  0  0  0  0
  5 18  1  0  0  0  0
  6 20  1  0  0  0  0
  7 10  2  0  0  0  0
  7 19  1  0  0  0  0
  8 22  1  0  0  0  0
  9 22  2  0  0  0  0
 10 23  1  0  0  0  0
 11 12  2  0  0  0  0
 11 24  1  0  0  0  0
 12 25  1  0  0  0  0
 13 21  1  0  0  0  0
 13 23  2  0  0  0  0
 14 25  2  0  0  0  0
 14 26  1  0  0  0  0
 15 28  2  0  0  0  0
 15 84  1  0  0  0  0
 16 27  1  0  0  0  0
 17 27  1  0  0  0  0
 17 29  2  0  0  0  0
 17 31  1  0  0  0  0
 18 20  2  0  0  0  0
 18 36  1  0  0  0  0
 19 21  2  0  0  0  0
 19 37  1  0  0  0  0
 20 45  1  0  0  0  0
 21 38  1  0  0  0  0
 22 80  1  0  0  0  0
 23 81  1  0  0  0  0
 24 26  2  0  0  0  0
 24 80  1  0  0  0  0
 25 82  1  0  0  0  0
 26 83  1  0  0  0  0
 27 63  2  0  0  0  0
 28 55  1  0  0  0  0
 28 64  1  0  0  0  0
 29 65  1  0  0  0  0
 29 68  1  0  0  0  0
 30 64  2  0  0  0  0
 30 70  1  0  0  0  0
 30 84  1  0  0  0  0
 31 69  1  0  0  0  0
 31 75  2  0  0  0  0
 32 46  1  0  0  0  0
 32 71  1  0  0  0  0
 32 76  2  0  0  0  0
 33 59  1  0  0  0  0
 33 66  1  0  0  0  0
 33 77  2  0  0  0  0
 34 60  1  0  0  0  0
 34 72  1  0  0  0  0
 34 78  2  0  0  0  0
 35 67  1  0  0  0  0
 35 70  1  0  0  0  0
 35 79  2  0  0  0  0
 36 39  1  0  0  0  0
 37 46  1  0  0  0  0
 38 66  1  0  0  0  0
 39 41  1  0  0  0  0
 40 42  1  0  0  0  0
 40 43  1  0  0  0  0
 41 45  1  0  0  0  0
 42 47  1  0  0  0  0
 43 67  1  0  0  0  0
 44 47  1  0  0  0  0
 44 67  1  0  0  0  0
 45 71  1  0  0  0  0
 46 66  1  0  0  0  0
 47 65  1  0  0  0  0
 48 57  1  0  0  0  0
 49 60  1  0  0  0  0
 50 61  1  0  0  0  0
 51 62  1  0  0  0  0
 52 62  1  0  0  0  0
 53 62  1  0  0  0  0
 54 73  1  0  0  0  0
 55 74  1  0  0  0  0
 56 58  1  0  0  0  0
 56 61  1  0  0  0  0
 57 74  1  0  0  0  0
 58 81  1  0  0  0  0
 59 62  1  0  0  0  0
 59 72  1  0  0  0  0
 60 73  1  0  0  0  0
 61 74  1  0  0  0  0
 63 65  1  0  0  0  0
M  CHG  2  73   1  74   1
M  ISO  4  35 100  58 101  70 100  81 101
M  END
> <Batch ID>
0197

> <Smiles>
CCN(Cc1csc([100NH:0][100C:0](=O)N2CCCC(n3nc(-c4ccc(Oc5ccc(F)cc5F)cc4)c(C(N)=O)c3N)C2)n1)C(C)C[101CH2:1][101O:1]c1ccc2c(c1)CN(C(=O)C(NC(=O)C(C)NC)C(C)(C)C)C(C(=O)NC1CCCc3ccccc31)C2

> <Shape>
0.192

> <Color>
0.107

> <Negative vol penalty>
0.000

$$$$

  -OEChem-04052305413D

 83 91  0     1  0  0  0  0  0999 V2000
  -32.0916  -15.3461   19.3740 C   0  0  0  0  0  0  0  0  0  0  0  0
  -31.1331  -16.3539   19.3415 C   0  0  0  0  0  0  0  0  0  0  0  0
  -28.1699  -24.8328   18.6385 C   0  0  0  0  0  0  0  0  0  0  0  0
  -26.0161  -23.8043   19.0127 C   0  0  0  0  0  0  0  0  0  0  0  0
  -31.6989  -14.0167   19.5233 C   0  0  0  0  0  0  0  0  0  0  0  0
  -29.7811  -16.0326   19.4573 C   0  0  0  0  0  0  0  0  0  0  0  0
  -25.4327  -19.3469   22.2165 C   0  0  0  0  0  0  0  0  0  0  0  0
  -28.7932  -23.6017   18.8418 C   0  0  0  0  0  0  0  0  0  0  0  0
  -26.6393  -22.5731   19.2159 C   0  0  0  0  0  0  0  0  0  0  0  0
  -24.4723  -20.2296   21.7245 C   0  0  0  0  0  0  0  0  0  0  0  0
  -30.9781  -20.8002   19.6175 C   0  0  0  0  0  0  0  0  0  0  0  0
  -32.1123  -20.7719   20.4288 C   0  0  0  0  0  0  0  0  0  0  0  0
  -22.8486  -18.4456   21.7106 C   0  0  0  0  0  0  0  0  0  0  0  0
  -30.8124  -21.6298   22.2759 C   0  0  0  0  0  0  0  0  0  0  0  0
  -26.7814  -24.9342   18.7240 C   0  0  0  0  0  0  0  0  0  0  0  0
  -25.6730  -26.7331   17.2947 C   0  0  0  0  0  0  0  0  0  0  0  0
  -30.3421  -13.6799   19.6507 C   0  0  0  0  0  0  0  0  0  0  0  0
  -25.1107  -18.0021   22.4494 C   0  0  0  0  0  0  0  0  0  0  0  0
  -29.3698  -14.6973   19.6072 C   0  0  0  0  0  0  0  0  0  0  0  0
  -23.8061  -17.5485   22.2080 C   0  0  0  0  0  0  0  0  0  0  0  0
  -28.0279  -22.4718   19.1305 C   0  0  0  0  0  0  0  0  0  0  0  0
  -23.1807  -19.7783   21.4687 C   0  0  0  0  0  0  0  0  0  0  0  0
  -29.7611  -21.2434   20.1352 C   0  0  0  0  0  0  0  0  0  0  0  0
  -32.0295  -21.1866   21.7580 C   0  0  0  0  0  0  0  0  0  0  0  0
  -29.6782  -21.6581   21.4644 C   0  0  0  0  0  0  0  0  0  0  0  0
  -26.1370  -26.2058   18.5147 C   0  0  0  0  0  0  0  0  0  0  0  0
  -19.7777  -28.0942   22.7390 C   0  0  0  0  0  0  0  0  0  0  0  0
  -18.4049  -28.1201   22.6091 C   0  0  0  0  0  0  0  0  0  0  0  0
  -25.1456  -27.9568   17.6279 C   0  0  0  0  0  0  0  0  0  0  0  0
  -19.4622  -26.0039   22.1552 C   0  0  0  0  0  0  0  0  0  0  0  0
  -25.7149  -26.1674   15.9779 C   0  0  0  0  0  0  0  0  0  0  0  0
  -26.1229  -15.2202   21.2915 C   0  0  0  0  0  0  0  0  0  0  0  0
  -24.1844  -14.0021   23.5895 C   0  0  0  0  0  0  0  0  0  0  0  0
  -21.4879  -14.4377   25.6354 C   0  0  0  0  0  0  0  0  0  0  0  0
  -22.8927  -30.1781   22.7113 C   0  0  0  0  0  0  0  0  0  0  0  0
  -29.9629  -12.2244   19.7626 C   0  0  0  0  0  0  0  0  0  0  0  0
  -26.1510  -17.0688   23.0055 C   0  0  0  0  0  0  0  0  0  0  0  0
  -23.4041  -16.1191   22.4604 C   0  0  0  0  0  0  0  0  0  0  0  0
  -28.5350  -12.0032   20.2549 C   0  0  0  0  0  0  0  0  0  0  0  0
  -25.6092  -31.4901   20.8203 C   0  0  0  0  0  0  0  0  0  0  0  0
  -27.5656  -12.9138   19.5079 C   0  0  0  0  0  0  0  0  0  0  0  0
  -26.0106  -30.3322   19.9049 C   0  0  0  0  0  0  0  0  0  0  0  0
  -25.1740  -30.9957   22.1980 C   0  0  0  0  0  0  0  0  0  0  0  0
  -24.5170  -28.8108   21.2662 C   0  0  0  0  0  0  0  0  0  0  0  0
  -27.8952  -14.3910   19.7545 C   0  0  1  0  0  0  0  0  0  0  0  0
  -25.8508  -15.6007   22.7194 C   0  0  1  0  0  0  0  0  0  0  0  0
  -24.9102  -29.2556   19.8471 C   0  0  2  0  0  0  0  0  0  0  0  0
  -17.4514  -29.2298   22.8083 C   0  0  0  0  0  0  0  0  0  0  0  0
  -20.1232  -13.2512   27.3752 C   0  0  0  0  0  0  0  0  0  0  0  0
  -22.8454  -12.3448   21.4054 C   0  0  0  0  0  0  0  0  0  0  0  0
  -20.9429  -11.9343   22.9803 C   0  0  0  0  0  0  0  0  0  0  0  0
  -23.2312  -11.1231   23.5533 C   0  0  0  0  0  0  0  0  0  0  0  0
  -22.1343  -16.4654   27.6920 C   0  0  0  0  0  0  0  0  0  0  0  0
  -20.6358  -29.2328   23.1258 C   0  0  0  0  0  0  0  0  0  0  0  0
  -21.0470  -24.1074   21.8127 C   0  0  0  0  0  0  0  0  0  0  0  0
  -22.3643  -22.0094   21.3613 C   0  0  0  0  0  0  0  0  0  1  0  0
  -22.7312  -13.5992   23.6592 C   0  0  1  0  0  0  0  0  0  0  0  0
  -21.2980  -14.1824   27.1197 C   0  0  2  0  0  0  0  0  0  0  0  0
  -20.9770  -22.6417   21.3886 C   0  0  1  0  0  0  0  0  0  0  0  0
  -22.4455  -12.2769   22.8928 C   0  0  0  0  0  0  0  0  0  0  0  0
  -25.9233  -27.0273   19.5460 N   0  0  0  0  0  0  0  0  0  0  0  0
  -20.3857  -26.8815   22.4794 N   0  0  0  0  0  0  0  0  0  0  0  0
  -25.3193  -28.0832   18.9747 N   0  0  0  0  0  0  0  0  0  0  0  0
  -24.4584  -15.2437   22.9985 N   0  0  0  0  0  0  0  0  0  0  0  0
  -24.1278  -29.9780   22.0729 N   0  0  0  0  0  0  0  0  0  0  0  0
  -24.5550  -28.9262   16.8973 N   0  0  0  0  0  0  0  0  0  0  0  0
  -26.2919  -24.9008   15.8129 N   0  0  0  0  0  0  0  0  0  0  0  0
  -19.7207  -24.6826   21.8319 N   0  0  0  0  0  0  0  0  0  0  0  0
  -27.4197  -14.8043   21.0574 N   0  0  0  0  0  0  0  0  0  0  0  0
  -22.3874  -13.5548   25.0763 N   0  0  0  0  0  0  0  0  0  0  0  0
  -21.9546  -29.1681   22.5365 N   0  0  0  0  0  0  0  0  0  0  0  0
  -21.0467  -15.4639   27.8377 N   0  3  0  0  0  0  0  0  0  0  0  0
  -25.2691  -26.7743   14.9747 O   0  0  0  0  0  0  0  0  0  0  0  0
  -25.2226  -15.2969   20.4637 O   0  0  0  0  0  0  0  0  0  0  0  0
  -25.0442  -13.2463   24.0491 O   0  0  0  0  0  0  0  0  0  0  0  0
  -20.8945  -15.3286   25.0315 O   0  0  0  0  0  0  0  0  0  0  0  0
  -22.6425  -31.1850   23.3825 O   0  0  0  0  0  0  0  0  0  0  0  0
  -20.1881  -21.9184   22.3356 O   0  0  0  0  0  0  0  0  0  0  0  0
  -28.6357  -21.2702   19.3286 O   0  0  0  0  0  0  0  0  0  0  0  0
  -22.2415  -20.6377   20.9878 O   0  0  0  0  0  0  0  0  0  1  0  0
  -33.1184  -21.1579   22.5375 F   0  0  0  0  0  0  0  0  0  0  0  0
  -28.5115  -22.0837   21.9678 F   0  0  0  0  0  0  0  0  0  0  0  0
  -17.8419  -26.5691   22.1417 S   0  0  0  0  0  0  0  0  0  0  0  0
  1  2  1  0  0  0  0
  1  5  2  0  0  0  0
  2  6  2  0  0  0  0
  3  8  2  0  0  0  0
  3 15  1  0  0  0  0
  4  9  1  0  0  0  0
  4 15  2  0  0  0  0
  5 17  1  0  0  0  0
  6 19  1  0  0  0  0
  7 10  2  0  0  0  0
  7 18  1  0  0  0  0
  8 21  1  0  0  0  0
  9 21  2  0  0  0  0
 10 22  1  0  0  0  0
 11 12  2  0  0  0  0
 11 23  1  0  0  0  0
 12 24  1  0  0  0  0
 13 20  1  0  0  0  0
 13 22  2  0  0  0  0
 14 24  2  0  0  0  0
 14 25  1  0  0  0  0
 15 26  1  0  0  0  0
 16 26  1  0  0  0  0
 16 29  2  0  0  0  0
 16 31  1  0  0  0  0
 17 19  2  0  0  0  0
 17 36  1  0  0  0  0
 18 20  2  0  0  0  0
 18 37  1  0  0  0  0
 19 45  1  0  0  0  0
 20 38  1  0  0  0  0
 21 79  1  0  0  0  0
 22 80  1  0  0  0  0
 23 25  2  0  0  0  0
 23 79  1  0  0  0  0
 24 81  1  0  0  0  0
 25 82  1  0  0  0  0
 26 61  2  0  0  0  0
 27 28  2  0  0  0  0
 27 54  1  0  0  0  0
 27 62  1  0  0  0  0
 28 48  1  0  0  0  0
 28 83  1  0  0  0  0
 29 63  1  0  0  0  0
 29 66  1  0  0  0  0
 30 62  2  0  0  0  0
 30 68  1  0  0  0  0
 30 83  1  0  0  0  0
 31 67  1  0  0  0  0
 31 73  2  0  0  0  0
 32 46  1  0  0  0  0
 32 69  1  0  0  0  0
 32 74  2  0  0  0  0
 33 57  1  0  0  0  0
 33 64  1  0  0  0  0
 33 75  2  0  0  0  0
 34 58  1  0  0  0  0
 34 70  1  0  0  0  0
 34 76  2  0  0  0  0
 35 65  1  0  0  0  0
 35 71  1  0  0  0  0
 35 77  2  0  0  0  0
 36 39  1  0  0  0  0
 37 46  1  0  0  0  0
 38 64  1  0  0  0  0
 39 41  1  0  0  0  0
 40 42  1  0  0  0  0
 40 43  1  0  0  0  0
 41 45  1  0  0  0  0
 42 47  1  0  0  0  0
 43 65  1  0  0  0  0
 44 47  1  0  0  0  0
 44 65  1  0  0  0  0
 45 69  1  0  0  0  0
 46 64  1  0  0  0  0
 47 63  1  0  0  0  0
 49 58  1  0  0  0  0
 50 60  1  0  0  0  0
 51 60  1  0  0  0  0
 52 60  1  0  0  0  0
 53 72  1  0  0  0  0
 54 71  1  0  0  0  0
 55 59  1  0  0  0  0
 55 68  1  0  0  0  0
 56 59  1  0  0  0  0
 56 80  1  0  0  0  0
 57 60  1  0  0  0  0
 57 70  1  0  0  0  0
 58 72  1  0  0  0  0
 59 78  1  0  0  0  0
 61 63  1  0  0  0  0
M  CHG  1  72   1
M  ISO  4  35 100  56 101  71 100  80 101
M  END
> <Batch ID>
0197

> <Smiles>
CNC(C)C(=O)NC(C(=O)N1Cc2cc([101O:1][101CH2:1]C(O)CNc3nc(C[100NH:0][100C:0](=O)N4CCCC(n5nc(-c6ccc(Oc7ccc(F)cc7F)cc6)c(C(N)=O)c5N)C4)c(C)s3)ccc2CC1C(=O)NC1CCCc2ccccc21)C(C)(C)C

> <Shape>
0.215

> <Color>
0.083

> <Negative vol penalty>
0.000

$$$$

  -OEChem-04052305413D

 83 91  0     1  0  0  0  0  0999 V2000
  -17.7938  -32.5687   24.3341 C   0  0  0  0  0  0  0  0  0  0  0  0
  -19.0576  -32.8922   23.8510 C   0  0  0  0  0  0  0  0  0  0  0  0
  -24.6589  -12.4727   21.5625 C   0  0  0  0  0  0  0  0  0  0  0  0
  -24.8508  -12.6506   19.1607 C   0  0  0  0  0  0  0  0  0  0  0  0
  -17.5198  -31.2663   24.7495 C   0  0  0  0  0  0  0  0  0  0  0  0
  -20.0487  -31.9135   23.7841 C   0  0  0  0  0  0  0  0  0  0  0  0
  -25.7045  -29.9555   19.8477 C   0  0  0  0  0  0  0  0  0  0  0  0
  -23.8235  -11.3657   21.4138 C   0  0  0  0  0  0  0  0  0  0  0  0
  -24.0154  -11.5435   19.0120 C   0  0  0  0  0  0  0  0  0  0  0  0
  -27.0535  -29.6323   19.9867 C   0  0  0  0  0  0  0  0  0  0  0  0
  -24.1537   -8.0677   20.7453 C   0  0  0  0  0  0  0  0  0  0  0  0
  -24.3933   -6.9607   21.5594 C   0  0  0  0  0  0  0  0  0  0  0  0
  -26.4426  -27.3972   20.6579 C   0  0  0  0  0  0  0  0  0  0  0  0
  -22.1721   -7.1630   22.4880 C   0  0  0  0  0  0  0  0  0  0  0  0
  -31.7003  -22.5944   17.5209 C   0  0  0  0  0  0  0  0  0  0  0  0
  -25.1726  -13.1152   20.4360 C   0  0  0  0  0  0  0  0  0  0  0  0
  -27.4385  -14.2568   20.7007 C   0  0  0  0  0  0  0  0  0  0  0  0
  -18.5052  -30.2689   24.6786 C   0  0  0  0  0  0  0  0  0  0  0  0
  -24.7124  -29.0037   20.1237 C   0  0  0  0  0  0  0  0  0  0  0  0
  -19.7881  -30.5969   24.2003 C   0  0  0  0  0  0  0  0  0  0  0  0
  -25.0817  -27.7101   20.5191 C   0  0  0  0  0  0  0  0  0  0  0  0
  -23.5017  -10.9011   20.1386 C   0  0  0  0  0  0  0  0  0  0  0  0
  -27.4227  -28.3538   20.3947 C   0  0  0  0  0  0  0  0  0  0  0  0
  -22.9233   -8.7224   20.8026 C   0  0  0  0  0  0  0  0  0  0  0  0
  -23.4025   -6.5083   22.4308 C   0  0  0  0  0  0  0  0  0  0  0  0
  -21.9325   -8.2700   21.6739 C   0  0  0  0  0  0  0  0  0  0  0  0
  -26.0352  -14.2592   20.5889 C   0  0  0  0  0  0  0  0  0  0  0  0
  -30.5619  -23.1923   18.0218 C   0  0  0  0  0  0  0  0  0  0  0  0
  -31.6748  -21.2159   17.4636 C   0  0  0  0  0  0  0  0  0  0  0  0
  -27.7753  -15.5825   20.8249 C   0  0  0  0  0  0  0  0  0  0  0  0
  -29.5742  -21.1684   18.3309 C   0  0  0  0  0  0  0  0  0  0  0  0
  -28.3556  -13.1547   20.6928 C   0  0  0  0  0  0  0  0  0  0  0  0
  -22.3274  -28.7911   22.2143 C   0  0  0  0  0  0  0  0  0  0  0  0
  -21.6051  -26.1159   20.5279 C   0  0  0  0  0  0  0  0  0  0  0  0
  -22.6746  -23.6085   18.4746 C   0  0  0  0  0  0  0  0  0  0  0  0
  -27.2547  -20.9060   19.2783 C   0  0  0  0  0  0  0  0  0  0  0  0
  -18.1762  -28.8863   25.1835 C   0  0  0  0  0  0  0  0  0  0  0  0
  -23.2623  -29.3601   19.9431 C   0  0  0  0  0  0  0  0  0  0  0  0
  -24.0558  -26.6459   20.8081 C   0  0  0  0  0  0  0  0  0  0  0  0
  -19.1696  -27.8198   24.7296 C   0  0  0  0  0  0  0  0  0  0  0  0
  -24.8781  -19.6569   21.6169 C   0  0  0  0  0  0  0  0  0  0  0  0
  -20.6020  -28.3050   24.9288 C   0  0  0  0  0  0  0  0  0  0  0  0
  -25.0828  -18.1411   21.5671 C   0  0  0  0  0  0  0  0  0  0  0  0
  -25.0457  -20.2973   20.2401 C   0  0  0  0  0  0  0  0  0  0  0  0
  -26.5062  -18.4555   19.5027 C   0  0  0  0  0  0  0  0  0  0  0  0
  -20.8821  -29.5572   24.0892 C   0  0  1  0  0  0  0  0  0  0  0  0
  -22.3228  -28.4667   20.7472 C   0  0  1  0  0  0  0  0  0  0  0  0
  -26.4115  -17.7741   20.8776 C   0  0  2  0  0  0  0  0  0  0  0  0
  -21.8632  -21.5481   17.2940 C   0  0  0  0  0  0  0  0  0  0  0  0
  -21.6333  -24.5928   23.1717 C   0  0  0  0  0  0  0  0  0  0  0  0
  -21.7693  -22.4628   21.8630 C   0  0  0  0  0  0  0  0  0  0  0  0
  -19.7822  -23.9507   21.6175 C   0  0  0  0  0  0  0  0  0  0  0  0
  -23.3338  -24.7310   15.8168 C   0  0  0  0  0  0  0  0  0  0  0  0
  -30.4948  -24.6977   18.1238 C   0  0  0  0  0  0  0  0  0  0  0  0
  -30.5245  -26.6403   19.7404 C   0  0  0  0  0  0  0  0  0  0  0  0
  -29.1062  -26.6767   20.2992 C   0  0  0  0  0  0  0  0  0  1  0  0
  -21.9927  -24.6595   20.6158 C   0  0  1  0  0  0  0  0  0  0  0  0
  -22.0994  -23.0466   17.1870 C   0  0  2  0  0  0  0  0  0  0  0  0
  -31.0120  -25.2121   19.4745 C   0  0  2  0  0  0  0  0  0  0  0  0
  -21.3139  -23.9368   21.8135 C   0  0  0  0  0  0  0  0  0  0  0  0
  -25.5161  -15.4889   20.6380 N   0  0  0  0  0  0  0  0  0  0  0  0
  -29.4764  -22.5073   18.4375 N   0  0  0  0  0  0  0  0  0  0  0  0
  -30.6246  -20.4683   17.8618 N   0  0  0  0  0  0  0  0  0  0  0  0
  -26.5991  -16.2715   20.7821 N   0  0  0  0  0  0  0  0  0  0  0  0
  -22.6508  -27.0450   20.6232 N   0  0  0  0  0  0  0  0  0  0  0  0
  -26.3285  -19.9086   19.6499 N   0  0  0  0  0  0  0  0  0  0  0  0
  -32.8244  -20.5628   16.9554 N   0  0  0  0  0  0  0  0  0  0  0  0
  -28.9599  -16.2144   20.9656 N   0  0  0  0  0  0  0  0  0  0  0  0
  -27.8410  -11.8582   20.5564 N   0  0  0  0  0  0  0  0  0  0  0  0
  -28.4522  -20.4159   18.7583 N   0  0  0  0  0  0  0  0  0  0  0  0
  -21.1013  -29.1984   22.7043 N   0  0  0  0  0  0  0  0  0  0  0  0
  -21.6859  -24.0762   19.3143 N   0  0  0  0  0  0  0  0  0  0  0  0
  -23.0317  -23.2955   16.0513 N   0  3  0  0  0  0  0  0  0  0  0  0
  -29.5934  -13.3137   20.8199 O   0  0  0  0  0  0  0  0  0  0  0  0
  -23.3662  -28.6786   22.8547 O   0  0  0  0  0  0  0  0  0  0  0  0
  -20.4192  -26.4178   20.3730 O   0  0  0  0  0  0  0  0  0  0  0  0
  -23.8801  -23.6270   18.7134 O   0  0  0  0  0  0  0  0  0  0  0  0
  -27.0149  -22.1058   19.4368 O   0  0  0  0  0  0  0  0  0  0  0  0
  -32.4393  -25.1953   19.4740 O   0  0  0  0  0  0  0  0  0  0  0  0
  -22.6867   -9.8207   19.9931 O   0  0  0  0  0  0  0  0  0  0  0  0
  -28.7387  -28.0359   20.5318 O   0  0  0  0  0  0  0  0  0  1  0  0
  -23.6322   -5.4444   23.2114 F   0  0  0  0  0  0  0  0  0  0  0  0
  -20.7481   -8.8941   21.7325 F   0  0  0  0  0  0  0  0  0  0  0  0
  1  2  1  0  0  0  0
  1  5  2  0  0  0  0
  2  6  2  0  0  0  0
  3  8  2  0  0  0  0
  3 16  1  0  0  0  0
  4  9  1  0  0  0  0
  4 16  2  0  0  0  0
  5 18  1  0  0  0  0
  6 20  1  0  0  0  0
  7 10  2  0  0  0  0
  7 19  1  0  0  0  0
  8 22  1  0  0  0  0
  9 22  2  0  0  0  0
 10 23  1  0  0  0  0
 11 12  2  0  0  0  0
 11 24  1  0  0  0  0
 12 25  1  0  0  0  0
 13 21  1  0  0  0  0
 13 23  2  0  0  0  0
 14 25  2  0  0  0  0
 14 26  1  0  0  0  0
 15 28  1  0  0  0  0
 15 29  2  0  0  0  0
 16 27  1  0  0  0  0
 17 27  1  0  0  0  0
 17 30  2  0  0  0  0
 17 32  1  0  0  0  0
 18 20  2  0  0  0  0
 18 37  1  0  0  0  0
 19 21  2  0  0  0  0
 19 38  1  0  0  0  0
 20 46  1  0  0  0  0
 21 39  1  0  0  0  0
 22 80  1  0  0  0  0
 23 81  1  0  0  0  0
 24 26  2  0  0  0  0
 24 80  1  0  0  0  0
 25 82  1  0  0  0  0
 26 83  1  0  0  0  0
 27 61  2  0  0  0  0
 28 54  1  0  0  0  0
 28 62  2  0  0  0  0
 29 63  1  0  0  0  0
 29 67  1  0  0  0  0
 30 64  1  0  0  0  0
 30 68  1  0  0  0  0
 31 62  1  0  0  0  0
 31 63  2  0  0  0  0
 31 70  1  0  0  0  0
 32 69  1  0  0  0  0
 32 74  2  0  0  0  0
 33 47  1  0  0  0  0
 33 71  1  0  0  0  0
 33 75  2  0  0  0  0
 34 57  1  0  0  0  0
 34 65  1  0  0  0  0
 34 76  2  0  0  0  0
 35 58  1  0  0  0  0
 35 72  1  0  0  0  0
 35 77  2  0  0  0  0
 36 66  1  0  0  0  0
 36 70  1  0  0  0  0
 36 78  2  0  0  0  0
 37 40  1  0  0  0  0
 38 47  1  0  0  0  0
 39 65  1  0  0  0  0
 40 42  1  0  0  0  0
 41 43  1  0  0  0  0
 41 44  1  0  0  0  0
 42 46  1  0  0  0  0
 43 48  1  0  0  0  0
 44 66  1  0  0  0  0
 45 48  1  0  0  0  0
 45 66  1  0  0  0  0
 46 71  1  0  0  0  0
 47 65  1  0  0  0  0
 48 64  1  0  0  0  0
 49 58  1  0  0  0  0
 50 60  1  0  0  0  0
 51 60  1  0  0  0  0
 52 60  1  0  0  0  0
 53 73  1  0  0  0  0
 54 59  1  0  0  0  0
 55 56  1  0  0  0  0
 55 59  1  0  0  0  0
 56 81  1  0  0  0  0
 57 60  1  0  0  0  0
 57 72  1  0  0  0  0
 58 73  1  0  0  0  0
 59 79  1  0  0  0  0
 61 64  1  0  0  0  0
M  CHG  1  73   1
M  ISO  4  36 100  56 101  70 100  81 101
M  END
> <Batch ID>
0197

> <Smiles>
CNC(C)C(=O)NC(C(=O)N1Cc2cc([101O:1][101CH2:1]CC(O)Cc3cc(N)nc([100NH:0][100C:0](=O)N4CCCC(n5nc(-c6ccc(Oc7ccc(F)cc7F)cc6)c(C(N)=O)c5N)C4)n3)ccc2CC1C(=O)NC1CCCc2ccccc21)C(C)(C)C

> <Shape>
0.264

> <Color>
0.078

> <Negative vol penalty>
0.000

$$$$

  -OEChem-04052305413D

 82 90  0     1  0  0  0  0  0999 V2000
  -19.1884  -33.4954   22.2969 C   0  0  0  0  0  0  0  0  0  0  0  0
  -20.5294  -33.2796   21.9956 C   0  0  0  0  0  0  0  0  0  0  0  0
  -26.1928  -13.3304   21.0746 C   0  0  0  0  0  0  0  0  0  0  0  0
  -24.7065  -14.7337   19.7867 C   0  0  0  0  0  0  0  0  0  0  0  0
  -18.4705  -32.5325   23.0049 C   0  0  0  0  0  0  0  0  0  0  0  0
  -21.1535  -32.1011   22.4031 C   0  0  0  0  0  0  0  0  0  0  0  0
  -25.5170  -29.0200   19.4078 C   0  0  0  0  0  0  0  0  0  0  0  0
  -25.1082  -12.5515   21.4777 C   0  0  0  0  0  0  0  0  0  0  0  0
  -23.6218  -13.9547   20.1898 C   0  0  0  0  0  0  0  0  0  0  0  0
  -26.9042  -28.9886   19.5432 C   0  0  0  0  0  0  0  0  0  0  0  0
  -22.7783   -9.9777   22.5559 C   0  0  0  0  0  0  0  0  0  0  0  0
  -22.9252   -8.5912   22.5159 C   0  0  0  0  0  0  0  0  0  0  0  0
  -28.1700  -22.5454   16.8005 C   0  0  0  0  0  0  0  0  0  0  0  0
  -26.7187  -27.0210   20.9264 C   0  0  0  0  0  0  0  0  0  0  0  0
  -23.3346   -8.7033   20.1374 C   0  0  0  0  0  0  0  0  0  0  0  0
  -28.2611  -23.6102   15.9275 C   0  0  0  0  0  0  0  0  0  0  0  0
  -25.9920  -14.4216   20.2292 C   0  0  0  0  0  0  0  0  0  0  0  0
  -27.9188  -15.0376   18.6750 C   0  0  0  0  0  0  0  0  0  0  0  0
  -19.0836  -31.3374   23.4129 C   0  0  0  0  0  0  0  0  0  0  0  0
  -24.7181  -28.0569   20.0407 C   0  0  0  0  0  0  0  0  0  0  0  0
  -20.4434  -31.1219   23.1185 C   0  0  0  0  0  0  0  0  0  0  0  0
  -25.3217  -27.0409   20.7954 C   0  0  0  0  0  0  0  0  0  0  0  0
  -23.8227  -12.8636   21.0353 C   0  0  0  0  0  0  0  0  0  0  0  0
  -27.5051  -27.9907   20.3050 C   0  0  0  0  0  0  0  0  0  0  0  0
  -22.9095  -10.7270   21.3867 C   0  0  0  0  0  0  0  0  0  0  0  0
  -23.2034   -7.9540   21.3067 C   0  0  0  0  0  0  0  0  0  0  0  0
  -23.1877  -10.0898   20.1775 C   0  0  0  0  0  0  0  0  0  0  0  0
  -27.1119  -15.2269   19.8129 C   0  0  0  0  0  0  0  0  0  0  0  0
  -28.7799  -22.7237   18.0254 C   0  0  0  0  0  0  0  0  0  0  0  0
  -28.8348  -16.0596   18.7297 C   0  0  0  0  0  0  0  0  0  0  0  0
  -29.4503  -24.8164   17.4435 C   0  0  0  0  0  0  0  0  0  0  0  0
  -27.8467  -14.0282   17.6593 C   0  0  0  0  0  0  0  0  0  0  0  0
  -22.4431  -28.1359   22.2592 C   0  0  0  0  0  0  0  0  0  0  0  0
  -22.1921  -24.9788   21.5580 C   0  0  0  0  0  0  0  0  0  0  0  0
  -23.6670  -22.1583   20.3267 C   0  0  0  0  0  0  0  0  0  0  0  0
  -29.2528  -21.6189   20.2395 C   0  0  0  0  0  0  0  0  0  0  0  0
  -18.2794  -30.3468   24.2172 C   0  0  0  0  0  0  0  0  0  0  0  0
  -23.2249  -28.0889   19.8629 C   0  0  0  0  0  0  0  0  0  0  0  0
  -24.5101  -25.9716   21.4784 C   0  0  0  0  0  0  0  0  0  0  0  0
  -18.9145  -28.9604   24.2868 C   0  0  0  0  0  0  0  0  0  0  0  0
  -30.5412  -19.0221   22.3068 C   0  0  0  0  0  0  0  0  0  0  0  0
  -20.4007  -29.0698   24.6126 C   0  0  0  0  0  0  0  0  0  0  0  0
  -29.8680  -17.7592   21.7644 C   0  0  0  0  0  0  0  0  0  0  0  0
  -29.6023  -20.2265   22.2678 C   0  0  0  0  0  0  0  0  0  0  0  0
  -28.3154  -19.2304   20.4183 C   0  0  0  0  0  0  0  0  0  0  0  0
  -21.1490  -29.8453   23.5218 C   0  0  1  0  0  0  0  0  0  0  0  0
  -22.4751  -27.3594   20.9733 C   0  0  1  0  0  0  0  0  0  0  0  0
  -29.2432  -18.0052   20.3771 C   0  0  2  0  0  0  0  0  0  0  0  0
  -23.2246  -19.7223   19.9171 C   0  0  0  0  0  0  0  0  0  0  0  0
  -32.0994  -25.4776   19.0540 C   0  0  0  0  0  0  0  0  0  0  0  0
  -22.5357  -24.4178   24.5375 C   0  0  0  0  0  0  0  0  0  0  0  0
  -23.0356  -22.0335   23.9598 C   0  0  0  0  0  0  0  0  0  0  0  0
  -20.8083  -23.0093   23.4032 C   0  0  0  0  0  0  0  0  0  0  0  0
  -24.0716  -22.4562   17.4101 C   0  0  0  0  0  0  0  0  0  0  0  0
  -30.9508  -27.7071   19.2887 C   0  0  0  0  0  0  0  0  0  0  0  0
  -29.6317  -28.4704   19.3546 C   0  0  0  0  0  0  0  0  0  1  0  0
  -22.8384  -23.7149   22.0717 C   0  0  1  0  0  0  0  0  0  0  0  0
  -23.1837  -21.1233   19.3269 C   0  0  2  0  0  0  0  0  0  0  0  0
  -30.7591  -26.2061   19.0501 C   0  0  1  0  0  0  0  0  0  0  0  0
  -22.3200  -23.3150   23.4819 C   0  0  0  0  0  0  0  0  0  0  0  0
  -28.8959  -24.7649   16.2173 N   0  0  0  0  0  0  0  0  0  0  0  0
  -27.4828  -16.2858   20.5376 N   0  0  0  0  0  0  0  0  0  0  0  0
  -29.4314  -23.8503   18.3816 N   0  0  0  0  0  0  0  0  0  0  0  0
  -28.5328  -16.7710   19.8535 N   0  0  0  0  0  0  0  0  0  0  0  0
  -23.0534  -26.0495   21.2797 N   0  0  0  0  0  0  0  0  0  0  0  0
  -29.0519  -20.4004   20.9219 N   0  0  0  0  0  0  0  0  0  0  0  0
  -29.8611  -16.4100   17.9258 N   0  0  0  0  0  0  0  0  0  0  0  0
  -26.8442  -13.0536   17.7558 N   0  0  0  0  0  0  0  0  0  0  0  0
  -28.7121  -21.6562   18.9547 N   0  0  0  0  0  0  0  0  0  0  0  0
  -30.1108  -25.9860   17.7741 N   0  0  0  0  0  0  0  0  0  0  0  0
  -21.3728  -29.0034   22.3662 N   0  0  0  0  0  0  0  0  0  0  0  0
  -22.6227  -22.7002   21.0459 N   0  0  0  0  0  0  0  0  0  0  0  0
  -24.0381  -21.1441   18.1060 N   0  3  0  0  0  0  0  0  0  0  0  0
  -28.6578  -13.9821   16.7035 O   0  0  0  0  0  0  0  0  0  0  0  0
  -23.3234  -27.9600   23.0933 O   0  0  0  0  0  0  0  0  0  0  0  0
  -20.9688  -25.0123   21.4025 O   0  0  0  0  0  0  0  0  0  0  0  0
  -24.8526  -22.4535   20.4593 O   0  0  0  0  0  0  0  0  0  0  0  0
  -29.8835  -22.5502   20.7464 O   0  0  0  0  0  0  0  0  0  0  0  0
  -22.7642  -12.1036   21.4282 O   0  0  0  0  0  0  0  0  0  0  0  0
  -28.8589  -27.9582   20.4393 O   0  0  0  0  0  0  0  0  0  1  0  0
  -23.3459   -6.6227   21.2687 F   0  0  0  0  0  0  0  0  0  0  0  0
  -23.3161  -10.8044   19.0511 F   0  0  0  0  0  0  0  0  0  0  0  0
  1  2  1  0  0  0  0
  1  5  2  0  0  0  0
  2  6  2  0  0  0  0
  3  8  2  0  0  0  0
  3 17  1  0  0  0  0
  4  9  1  0  0  0  0
  4 17  2  0  0  0  0
  5 19  1  0  0  0  0
  6 21  1  0  0  0  0
  7 10  2  0  0  0  0
  7 20  1  0  0  0  0
  8 23  1  0  0  0  0
  9 23  2  0  0  0  0
 10 24  1  0  0  0  0
 11 12  2  0  0  0  0
 11 25  1  0  0  0  0
 12 26  1  0  0  0  0
 13 16  1  0  0  0  0
 13 29  2  0  0  0  0
 14 22  1  0  0  0  0
 14 24  2  0  0  0  0
 15 26  2  0  0  0  0
 15 27  1  0  0  0  0
 16 61  2  0  0  0  0
 17 28  1  0  0  0  0
 18 28  1  0  0  0  0
 18 30  2  0  0  0  0
 18 32  1  0  0  0  0
 19 21  2  0  0  0  0
 19 37  1  0  0  0  0
 20 22  2  0  0  0  0
 20 38  1  0  0  0  0
 21 46  1  0  0  0  0
 22 39  1  0  0  0  0
 23 79  1  0  0  0  0
 24 80  1  0  0  0  0
 25 27  2  0  0  0  0
 25 79  1  0  0  0  0
 26 81  1  0  0  0  0
 27 82  1  0  0  0  0
 28 62  2  0  0  0  0
 29 63  1  0  0  0  0
 29 69  1  0  0  0  0
 30 64  1  0  0  0  0
 30 67  1  0  0  0  0
 31 61  1  0  0  0  0
 31 63  2  0  0  0  0
 31 70  1  0  0  0  0
 32 68  1  0  0  0  0
 32 74  2  0  0  0  0
 33 47  1  0  0  0  0
 33 71  1  0  0  0  0
 33 75  2  0  0  0  0
 34 57  1  0  0  0  0
 34 65  1  0  0  0  0
 34 76  2  0  0  0  0
 35 58  1  0  0  0  0
 35 72  1  0  0  0  0
 35 77  2  0  0  0  0
 36 66  1  0  0  0  0
 36 69  1  0  0  0  0
 36 78  2  0  0  0  0
 37 40  1  0  0  0  0
 38 47  1  0  0  0  0
 39 65  1  0  0  0  0
 40 42  1  0  0  0  0
 41 43  1  0  0  0  0
 41 44  1  0  0  0  0
 42 46  1  0  0  0  0
 43 48  1  0  0  0  0
 44 66  1  0  0  0  0
 45 48  1  0  0  0  0
 45 66  1  0  0  0  0
 46 71  1  0  0  0  0
 47 65  1  0  0  0  0
 48 64  1  0  0  0  0
 49 58  1  0  0  0  0
 50 59  1  0  0  0  0
 51 60  1  0  0  0  0
 52 60  1  0  0  0  0
 53 60  1  0  0  0  0
 54 73  1  0  0  0  0
 55 56  1  0  0  0  0
 55 59  1  0  0  0  0
 56 80  1  0  0  0  0
 57 60  1  0  0  0  0
 57 72  1  0  0  0  0
 58 73  1  0  0  0  0
 59 70  1  0  0  0  0
 62 64  1  0  0  0  0
M  CHG  1  73   1
M  ISO  4  36 100  56 101  69 100  80 101
M  END
> <Batch ID>
0197

> <Smiles>
CNC(C)C(=O)NC(C(=O)N1Cc2cc([101O:1][101CH2:1]CC(C)Nc3nccc([100NH:0][100C:0](=O)N4CCCC(n5nc(-c6ccc(Oc7ccc(F)cc7F)cc6)c(C(N)=O)c5N)C4)n3)ccc2CC1C(=O)NC1CCCc2ccccc21)C(C)(C)C

> <Shape>
0.263

> <Color>
0.077

> <Negative vol penalty>
0.000

$$$$

  -OEChem-04052305413D

 82 90  0     1  0  0  0  0  0999 V2000
  -24.5026  -27.8898   16.7788 C   0  0  0  0  0  0  0  0  0  0  0  0
  -24.6894  -26.5619   17.1494 C   0  0  0  0  0  0  0  0  0  0  0  0
  -30.9955  -20.6235   19.4938 C   0  0  0  0  0  0  0  0  0  0  0  0
  -28.7915  -20.3966   20.4573 C   0  0  0  0  0  0  0  0  0  0  0  0
  -24.9071  -28.9144   17.6335 C   0  0  0  0  0  0  0  0  0  0  0  0
  -25.2820  -26.2579   18.3745 C   0  0  0  0  0  0  0  0  0  0  0  0
  -22.8457  -22.5726   20.8498 C   0  0  0  0  0  0  0  0  0  0  0  0
  -30.6404  -21.8685   18.9746 C   0  0  0  0  0  0  0  0  0  0  0  0
  -28.4364  -21.6416   19.9381 C   0  0  0  0  0  0  0  0  0  0  0  0
  -23.0700  -21.2638   20.4247 C   0  0  0  0  0  0  0  0  0  0  0  0
  -30.3171  -25.0386   20.1053 C   0  0  0  0  0  0  0  0  0  0  0  0
  -31.2281  -26.0849   20.2496 C   0  0  0  0  0  0  0  0  0  0  0  0
  -24.6269  -20.9475   22.2400 C   0  0  0  0  0  0  0  0  0  0  0  0
  -31.3433  -26.3159   17.8474 C   0  0  0  0  0  0  0  0  0  0  0  0
  -22.5348  -13.1373   20.4917 C   0  0  0  0  0  0  0  0  0  0  0  0
  -30.0710  -19.8875   20.2351 C   0  0  0  0  0  0  0  0  0  0  0  0
  -31.0135  -18.3368   22.0281 C   0  0  0  0  0  0  0  0  0  0  0  0
  -25.4962  -28.6227   18.8739 C   0  0  0  0  0  0  0  0  0  0  0  0
  -23.5196  -23.0830   21.9686 C   0  0  0  0  0  0  0  0  0  0  0  0
  -25.6961  -27.2796   19.2460 C   0  0  0  0  0  0  0  0  0  0  0  0
  -24.4075  -22.2622   22.6787 C   0  0  0  0  0  0  0  0  0  0  0  0
  -23.6301  -12.3104   20.3469 C   0  0  0  0  0  0  0  0  0  0  0  0
  -29.3609  -22.3775   19.1968 C   0  0  0  0  0  0  0  0  0  0  0  0
  -23.9629  -20.4520   21.1181 C   0  0  0  0  0  0  0  0  0  0  0  0
  -29.9192  -24.6309   18.8321 C   0  0  0  0  0  0  0  0  0  0  0  0
  -31.7412  -26.7236   19.1207 C   0  0  0  0  0  0  0  0  0  0  0  0
  -30.4323  -25.2695   17.7031 C   0  0  0  0  0  0  0  0  0  0  0  0
  -30.4371  -18.6012   20.7712 C   0  0  0  0  0  0  0  0  0  0  0  0
  -24.8588  -12.9384   20.3647 C   0  0  0  0  0  0  0  0  0  0  0  0
  -31.1653  -16.9720   22.0559 C   0  0  0  0  0  0  0  0  0  0  0  0
  -23.8738  -14.9679   20.6442 C   0  0  0  0  0  0  0  0  0  0  0  0
  -31.3790  -19.2438   23.0766 C   0  0  0  0  0  0  0  0  0  0  0  0
  -25.5728  -25.4594   22.4591 C   0  0  0  0  0  0  0  0  0  0  0  0
  -25.1733  -24.6425   25.5729 C   0  0  0  0  0  0  0  0  0  0  0  0
  -24.3219  -22.2518   27.8547 C   0  0  0  0  0  0  0  0  0  0  0  0
  -28.3623  -12.4991   19.2297 C   0  0  0  0  0  0  0  0  0  0  0  0
  -25.9603  -29.7643   19.7434 C   0  0  0  0  0  0  0  0  0  0  0  0
  -23.2464  -24.4882   22.4301 C   0  0  0  0  0  0  0  0  0  0  0  0
  -25.1409  -22.7559   23.8981 C   0  0  0  0  0  0  0  0  0  0  0  0
  -26.2389  -29.3557   21.1876 C   0  0  0  0  0  0  0  0  0  0  0  0
  -31.8483  -13.2206   19.1660 C   0  0  0  0  0  0  0  0  0  0  0  0
  -27.0663  -28.0749   21.2299 C   0  0  0  0  0  0  0  0  0  0  0  0
  -31.9339  -14.6576   19.6836 C   0  0  0  0  0  0  0  0  0  0  0  0
  -30.6049  -13.0036   18.3064 C   0  0  0  0  0  0  0  0  0  0  0  0
  -29.4196  -14.8280   19.4642 C   0  0  0  0  0  0  0  0  0  0  0  0
  -26.3126  -26.9095   20.5775 C   0  0  1  0  0  0  0  0  0  0  0  0
  -24.3746  -25.0688   23.2773 C   0  0  1  0  0  0  0  0  0  0  0  0
  -30.6277  -15.0807   20.3823 C   0  0  2  0  0  0  0  0  0  0  0  0
  -23.4695  -10.8430   20.1849 C   0  0  0  0  0  0  0  0  0  0  0  0
  -24.1286  -21.8685   30.3271 C   0  0  0  0  0  0  0  0  0  0  0  0
  -28.2093  -24.4122   25.7721 C   0  0  0  0  0  0  0  0  0  0  0  0
  -27.9029  -23.1393   27.9061 C   0  0  0  0  0  0  0  0  0  0  0  0
  -27.1142  -25.5000   27.7399 C   0  0  0  0  0  0  0  0  0  0  0  0
  -21.4212  -21.6981   27.6593 C   0  0  0  0  0  0  0  0  0  0  0  0
  -26.1146  -12.1436   20.2199 C   0  0  0  0  0  0  0  0  0  0  0  0
  -25.2683  -17.0294   20.8218 C   0  0  0  0  0  0  0  0  0  0  0  0
  -25.1120  -18.3985   21.4622 C   0  0  0  0  0  0  0  0  0  1  0  0
  -25.8489  -23.6817   26.5213 C   0  0  1  0  0  0  0  0  0  0  0  0
  -23.4012  -22.2931   29.0609 C   0  0  2  0  0  0  0  0  0  0  0  0
  -27.2566  -24.1743   26.9608 C   0  0  0  0  0  0  0  0  0  0  0  0
  -22.6205  -14.4753   20.6431 N   0  0  0  0  0  0  0  0  0  0  0  0
  -30.2365  -17.4933   20.0526 N   0  0  0  0  0  0  0  0  0  0  0  0
  -25.0180  -14.2701   20.5119 N   0  0  0  0  0  0  0  0  0  0  0  0
  -30.6895  -16.5195   20.8605 N   0  0  0  0  0  0  0  0  0  0  0  0
  -24.8448  -24.1391   24.3062 N   0  0  0  0  0  0  0  0  0  0  0  0
  -29.4008  -13.4231   19.0275 N   0  0  0  0  0  0  0  0  0  0  0  0
  -31.6581  -16.1268   22.9861 N   0  0  0  0  0  0  0  0  0  0  0  0
  -31.1543  -20.6137   22.8836 N   0  0  0  0  0  0  0  0  0  0  0  0
  -23.9993  -16.3386   20.7983 N   0  0  0  0  0  0  0  0  0  0  0  0
  -25.3033  -26.3935   21.4772 N   0  0  0  0  0  0  0  0  0  0  0  0
  -24.9171  -23.4741   27.6245 N   0  0  0  0  0  0  0  0  0  0  0  0
  -27.2599  -12.9765   19.9280 N   0  0  0  0  0  0  0  0  0  0  0  0
  -22.2400  -21.3812   28.8577 N   0  3  0  0  0  0  0  0  0  0  0  0
  -31.9047  -18.8526   24.1463 O   0  0  0  0  0  0  0  0  0  0  0  0
  -26.6615  -24.9520   22.7018 O   0  0  0  0  0  0  0  0  0  0  0  0
  -24.9390  -25.7951   25.9448 O   0  0  0  0  0  0  0  0  0  0  0  0
  -24.4985  -21.2359   27.1859 O   0  0  0  0  0  0  0  0  0  0  0  0
  -28.4160  -11.3335   18.8231 O   0  0  0  0  0  0  0  0  0  0  0  0
  -29.0141  -23.5924   18.6905 O   0  0  0  0  0  0  0  0  0  0  0  0
  -24.1842  -19.1744   20.7049 O   0  0  0  0  0  0  0  0  0  1  0  0
  -32.6149  -27.7294   19.2594 F   0  0  0  0  0  0  0  0  0  0  0  0
  -30.0529  -24.8830   16.4774 F   0  0  0  0  0  0  0  0  0  0  0  0
  1  2  1  0  0  0  0
  1  5  2  0  0  0  0
  2  6  2  0  0  0  0
  3  8  2  0  0  0  0
  3 16  1  0  0  0  0
  4  9  1  0  0  0  0
  4 16  2  0  0  0  0
  5 18  1  0  0  0  0
  6 20  1  0  0  0  0
  7 10  2  0  0  0  0
  7 19  1  0  0  0  0
  8 23  1  0  0  0  0
  9 23  2  0  0  0  0
 10 24  1  0  0  0  0
 11 12  2  0  0  0  0
 11 25  1  0  0  0  0
 12 26  1  0  0  0  0
 13 21  1  0  0  0  0
 13 24  2  0  0  0  0
 14 26  2  0  0  0  0
 14 27  1  0  0  0  0
 15 22  1  0  0  0  0
 15 61  2  0  0  0  0
 16 28  1  0  0  0  0
 17 28  1  0  0  0  0
 17 30  2  0  0  0  0
 17 32  1  0  0  0  0
 18 20  2  0  0  0  0
 18 37  1  0  0  0  0
 19 21  2  0  0  0  0
 19 38  1  0  0  0  0
 20 46  1  0  0  0  0
 21 39  1  0  0  0  0
 22 29  2  0  0  0  0
 22 49  1  0  0  0  0
 23 79  1  0  0  0  0
 24 80  1  0  0  0  0
 25 27  2  0  0  0  0
 25 79  1  0  0  0  0
 26 81  1  0  0  0  0
 27 82  1  0  0  0  0
 28 62  2  0  0  0  0
 29 55  1  0  0  0  0
 29 63  1  0  0  0  0
 30 64  1  0  0  0  0
 30 67  1  0  0  0  0
 31 61  1  0  0  0  0
 31 63  2  0  0  0  0
 31 69  1  0  0  0  0
 32 68  1  0  0  0  0
 32 74  2  0  0  0  0
 33 47  1  0  0  0  0
 33 70  1  0  0  0  0
 33 75  2  0  0  0  0
 34 58  1  0  0  0  0
 34 65  1  0  0  0  0
 34 76  2  0  0  0  0
 35 59  1  0  0  0  0
 35 71  1  0  0  0  0
 35 77  2  0  0  0  0
 36 66  1  0  0  0  0
 36 72  1  0  0  0  0
 36 78  2  0  0  0  0
 37 40  1  0  0  0  0
 38 47  1  0  0  0  0
 39 65  1  0  0  0  0
 40 42  1  0  0  0  0
 41 43  1  0  0  0  0
 41 44  1  0  0  0  0
 42 46  1  0  0  0  0
 43 48  1  0  0  0  0
 44 66  1  0  0  0  0
 45 48  1  0  0  0  0
 45 66  1  0  0  0  0
 46 70  1  0  0  0  0
 47 65  1  0  0  0  0
 48 64  1  0  0  0  0
 50 59  1  0  0  0  0
 51 60  1  0  0  0  0
 52 60  1  0  0  0  0
 53 60  1  0  0  0  0
 54 73  1  0  0  0  0
 55 72  1  0  0  0  0
 56 57  1  0  0  0  0
 56 69  1  0  0  0  0
 57 80  1  0  0  0  0
 58 60  1  0  0  0  0
 58 71  1  0  0  0  0
 59 73  1  0  0  0  0
 62 64  1  0  0  0  0
M  CHG  1  73   1
M  ISO  4  36 100  57 101  72 100  80 101
M  END
> <Batch ID>
0197

> <Smiles>
CNC(C)C(=O)NC(C(=O)N1Cc2cc([101O:1][101CH2:1]CNc3ncc(C)c(C[100NH:0][100C:0](=O)N4CCCC(n5nc(-c6ccc(Oc7ccc(F)cc7F)cc6)c(C(N)=O)c5N)C4)n3)ccc2CC1C(=O)NC1CCCc2ccccc21)C(C)(C)C

> <Shape>
0.216

> <Color>
0.076

> <Negative vol penalty>
0.000

$$$$

  -OEChem-04052305413D

 85 93  0     1  0  0  0  0  0999 V2000
  -22.8981  -29.5620   22.1471 C   0  0  0  0  0  0  0  0  0  0  0  0
  -23.3668  -28.2813   22.4220 C   0  0  0  0  0  0  0  0  0  0  0  0
  -29.9589  -22.7580   21.5389 C   0  0  0  0  0  0  0  0  0  0  0  0
  -28.7137  -22.4397   19.4931 C   0  0  0  0  0  0  0  0  0  0  0  0
  -21.5262  -29.8020   22.0821 C   0  0  0  0  0  0  0  0  0  0  0  0
  -22.4638  -27.2400   22.6330 C   0  0  0  0  0  0  0  0  0  0  0  0
  -22.5617  -21.3493   18.4879 C   0  0  0  0  0  0  0  0  0  0  0  0
  -30.4078  -23.9939   21.0734 C   0  0  0  0  0  0  0  0  0  0  0  0
  -29.1626  -23.6757   19.0276 C   0  0  0  0  0  0  0  0  0  0  0  0
  -22.6539  -20.1002   17.8737 C   0  0  0  0  0  0  0  0  0  0  0  0
  -31.5920  -27.3945   20.5750 C   0  0  0  0  0  0  0  0  0  0  0  0
  -31.5586  -28.4720   21.4602 C   0  0  0  0  0  0  0  0  0  0  0  0
  -20.7273  -19.3341   19.1183 C   0  0  0  0  0  0  0  0  0  0  0  0
  -29.1660  -28.2178   21.6793 C   0  0  0  0  0  0  0  0  0  0  0  0
  -25.2014  -10.9758   20.6252 C   0  0  0  0  0  0  0  0  0  0  0  0
  -29.1119  -21.9809   20.7487 C   0  0  0  0  0  0  0  0  0  0  0  0
  -27.4836  -20.4488   21.9771 C   0  0  0  0  0  0  0  0  0  0  0  0
  -20.6060  -28.7610   22.2829 C   0  0  0  0  0  0  0  0  0  0  0  0
  -21.5414  -21.6008   19.4094 C   0  0  0  0  0  0  0  0  0  0  0  0
  -21.0782  -27.4665   22.5719 C   0  0  0  0  0  0  0  0  0  0  0  0
  -20.6224  -20.5873   19.7275 C   0  0  0  0  0  0  0  0  0  0  0  0
  -23.8716  -11.3272   20.7371 C   0  0  0  0  0  0  0  0  0  0  0  0
  -30.0096  -24.4528   19.8178 C   0  0  0  0  0  0  0  0  0  0  0  0
  -21.7391  -19.0950   18.1883 C   0  0  0  0  0  0  0  0  0  0  0  0
  -30.4123  -26.7288   20.2418 C   0  0  0  0  0  0  0  0  0  0  0  0
  -30.3457  -28.8836   22.0124 C   0  0  0  0  0  0  0  0  0  0  0  0
  -29.1994  -27.1404   20.7940 C   0  0  0  0  0  0  0  0  0  0  0  0
  -28.6483  -20.7039   21.2287 C   0  0  0  0  0  0  0  0  0  0  0  0
  -23.6104  -12.6822   20.7403 C   0  0  0  0  0  0  0  0  0  0  0  0
  -27.4963  -19.0904   22.1798 C   0  0  0  0  0  0  0  0  0  0  0  0
  -25.8235  -13.1604   20.5382 C   0  0  0  0  0  0  0  0  0  0  0  0
  -26.4799  -21.3585   22.4470 C   0  0  0  0  0  0  0  0  0  0  0  0
  -19.9168  -24.0616   21.7291 C   0  0  0  0  0  0  0  0  0  0  0  0
  -17.6570  -22.5229   20.3377 C   0  0  0  0  0  0  0  0  0  0  0  0
  -15.4713  -20.8972   18.2840 C   0  0  0  0  0  0  0  0  0  0  0  0
  -28.2232  -13.8942   20.3160 C   0  0  0  0  0  0  0  0  0  0  0  0
  -19.1320  -29.0787   22.2494 C   0  0  0  0  0  0  0  0  0  0  0  0
  -21.4408  -22.9116   20.1412 C   0  0  0  0  0  0  0  0  0  0  0  0
  -19.5623  -20.8919   20.7504 C   0  0  0  0  0  0  0  0  0  0  0  0
  -18.2456  -27.8432   22.1146 C   0  0  0  0  0  0  0  0  0  0  0  0
  -31.1326  -15.6694   21.3460 C   0  0  0  0  0  0  0  0  0  0  0  0
  -18.6956  -26.7550   23.0843 C   0  0  0  0  0  0  0  0  0  0  0  0
  -30.6498  -17.1164   21.4688 C   0  0  0  0  0  0  0  0  0  0  0  0
  -30.4692  -14.9478   20.1742 C   0  0  0  0  0  0  0  0  0  0  0  0
  -28.5190  -16.4490   20.2851 C   0  0  0  0  0  0  0  0  0  0  0  0
  -20.1303  -26.3058   22.7822 C   0  0  1  0  0  0  0  0  0  0  0  0
  -19.9880  -23.3395   20.4157 C   0  0  1  0  0  0  0  0  0  0  0  0
  -29.1108  -17.1971   21.4908 C   0  0  2  0  0  0  0  0  0  0  0  0
  -21.7735  -13.4348   22.3062 C   0  0  0  0  0  0  0  0  0  0  0  0
  -13.0191  -20.6691   17.8025 C   0  0  0  0  0  0  0  0  0  0  0  0
  -20.3589  -13.8418   18.3636 C   0  0  0  0  0  0  0  0  0  0  0  0
  -17.3332  -20.7900   22.8269 C   0  0  0  0  0  0  0  0  0  0  0  0
  -15.2445  -19.8511   21.8150 C   0  0  0  0  0  0  0  0  0  0  0  0
  -15.3900  -22.2861   22.3368 C   0  0  0  0  0  0  0  0  0  0  0  0
  -15.8048  -21.8868   15.5148 C   0  0  0  0  0  0  0  0  0  0  0  0
  -22.1799  -15.5248   17.8823 C   0  0  0  0  0  0  0  0  0  0  0  0
  -21.3837  -16.7472   18.3255 C   0  0  0  0  0  0  0  0  0  1  0  0
  -22.1917  -13.1894   20.8586 C   0  0  1  0  0  0  0  0  0  0  0  0
  -16.7040  -21.3555   20.3876 C   0  0  1  0  0  0  0  0  0  0  0  0
  -14.3054  -21.4010   17.4525 C   0  0  2  0  0  0  0  0  0  0  0  0
  -21.8045  -14.2420   18.6268 C   0  0  1  0  0  0  0  0  0  0  0  0
  -16.1927  -21.0691   21.8277 C   0  0  0  0  0  0  0  0  0  0  0  0
  -26.2069  -11.8696   20.5234 N   0  0  0  0  0  0  0  0  0  0  0  0
  -29.3500  -19.5964   20.9734 N   0  0  0  0  0  0  0  0  0  0  0  0
  -24.5656  -13.6301   20.6423 N   0  0  0  0  0  0  0  0  0  0  0  0
  -28.6241  -18.6323   21.5647 N   0  0  0  0  0  0  0  0  0  0  0  0
  -19.0156  -22.2385   20.5217 N   0  0  0  0  0  0  0  0  0  0  0  0
  -29.0120  -15.0629   20.2638 N   0  0  0  0  0  0  0  0  0  0  0  0
  -22.8680  -10.3568   20.8397 N   0  0  0  0  0  0  0  0  0  0  0  0
  -26.6526  -18.2551   22.8224 N   0  0  0  0  0  0  0  0  0  0  0  0
  -26.6211  -22.7209   22.1500 N   0  0  0  0  0  0  0  0  0  0  0  0
  -26.8534  -14.1279   20.4332 N   0  0  0  0  0  0  0  0  0  0  0  0
  -20.1522  -25.4201   21.6378 N   0  0  0  0  0  0  0  0  0  0  0  0
  -15.6472  -21.6500   19.4258 N   0  0  0  0  0  0  0  0  0  0  0  0
  -14.5798  -21.2015   16.0013 N   0  3  0  0  0  0  0  0  0  0  0  0
  -21.9653  -14.4432   20.0939 N   0  3  0  0  0  0  0  0  0  0  0  0
  -25.4958  -20.9767   23.1247 O   0  0  0  0  0  0  0  0  0  0  0  0
  -19.6652  -23.4336   22.7509 O   0  0  0  0  0  0  0  0  0  0  0  0
  -17.2111  -23.6577   20.1465 O   0  0  0  0  0  0  0  0  0  0  0  0
  -16.1551  -19.9303   17.9555 O   0  0  0  0  0  0  0  0  0  0  0  0
  -28.7279  -12.7688   20.2881 O   0  0  0  0  0  0  0  0  0  0  0  0
  -30.4472  -25.6588   19.3634 O   0  0  0  0  0  0  0  0  0  0  0  0
  -21.8321  -17.8793   17.5815 O   0  0  0  0  0  0  0  0  0  1  0  0
  -30.3140  -29.9173   22.8637 F   0  0  0  0  0  0  0  0  0  0  0  0
  -28.0630  -26.5040   20.4787 F   0  0  0  0  0  0  0  0  0  0  0  0
  1  2  1  0  0  0  0
  1  5  2  0  0  0  0
  2  6  2  0  0  0  0
  3  8  2  0  0  0  0
  3 16  1  0  0  0  0
  4  9  1  0  0  0  0
  4 16  2  0  0  0  0
  5 18  1  0  0  0  0
  6 20  1  0  0  0  0
  7 10  2  0  0  0  0
  7 19  1  0  0  0  0
  8 23  1  0  0  0  0
  9 23  2  0  0  0  0
 10 24  1  0  0  0  0
 11 12  2  0  0  0  0
 11 25  1  0  0  0  0
 12 26  1  0  0  0  0
 13 21  1  0  0  0  0
 13 24  2  0  0  0  0
 14 26  2  0  0  0  0
 14 27  1  0  0  0  0
 15 22  1  0  0  0  0
 15 63  2  0  0  0  0
 16 28  1  0  0  0  0
 17 28  1  0  0  0  0
 17 30  2  0  0  0  0
 17 32  1  0  0  0  0
 18 20  2  0  0  0  0
 18 37  1  0  0  0  0
 19 21  2  0  0  0  0
 19 38  1  0  0  0  0
 20 46  1  0  0  0  0
 21 39  1  0  0  0  0
 22 29  2  0  0  0  0
 22 69  1  0  0  0  0
 23 82  1  0  0  0  0
 24 83  1  0  0  0  0
 25 27  2  0  0  0  0
 25 82  1  0  0  0  0
 26 84  1  0  0  0  0
 27 85  1  0  0  0  0
 28 64  2  0  0  0  0
 29 58  1  0  0  0  0
 29 65  1  0  0  0  0
 30 66  1  0  0  0  0
 30 70  1  0  0  0  0
 31 63  1  0  0  0  0
 31 65  2  0  0  0  0
 31 72  1  0  0  0  0
 32 71  1  0  0  0  0
 32 77  2  0  0  0  0
 33 47  1  0  0  0  0
 33 73  1  0  0  0  0
 33 78  2  0  0  0  0
 34 59  1  0  0  0  0
 34 67  1  0  0  0  0
 34 79  2  0  0  0  0
 35 60  1  0  0  0  0
 35 74  1  0  0  0  0
 35 80  2  0  0  0  0
 36 68  1  0  0  0  0
 36 72  1  0  0  0  0
 36 81  2  0  0  0  0
 37 40  1  0  0  0  0
 38 47  1  0  0  0  0
 39 67  1  0  0  0  0
 40 42  1  0  0  0  0
 41 43  1  0  0  0  0
 41 44  1  0  0  0  0
 42 46  1  0  0  0  0
 43 48  1  0  0  0  0
 44 68  1  0  0  0  0
 45 48  1  0  0  0  0
 45 68  1  0  0  0  0
 46 73  1  0  0  0  0
 47 67  1  0  0  0  0
 48 66  1  0  0  0  0
 49 58  1  0  0  0  0
 50 60  1  0  0  0  0
 51 61  1  0  0  0  0
 52 62  1  0  0  0  0
 53 62  1  0  0  0  0
 54 62  1  0  0  0  0
 55 75  1  0  0  0  0
 56 57  1  0  0  0  0
 56 61  1  0  0  0  0
 57 83  1  0  0  0  0
 58 76  1  0  0  0  0
 59 62  1  0  0  0  0
 59 74  1  0  0  0  0
 60 75  1  0  0  0  0
 61 76  1  0  0  0  0
 64 66  1  0  0  0  0
M  CHG  2  75   1  76   1
M  ISO  4  36 100  57 101  72 100  83 101
M  END
> <Batch ID>
0197

> <Smiles>
CNC(C)C(=O)NC(C(=O)N1Cc2cc([101O:1][101CH2:1]CC(C)NC(C)c3nc([100NH:0][100C:0](=O)N4CCCC(n5nc(-c6ccc(Oc7ccc(F)cc7F)cc6)c(C(N)=O)c5N)C4)ncc3N)ccc2CC1C(=O)NC1CCCc2ccccc21)C(C)(C)C

> <Shape>
0.239

> <Color>
0.064

> <Negative vol penalty>
0.000

$$$$

  -OEChem-04052305413D

 84 92  0     1  0  0  0  0  0999 V2000
  -20.6362  -34.2176   20.7929 C   0  0  0  0  0  0  0  0  0  0  0  0
  -21.7974  -33.5352   20.4445 C   0  0  0  0  0  0  0  0  0  0  0  0
  -23.8350   -9.8221   21.7853 C   0  0  0  0  0  0  0  0  0  0  0  0
  -24.5031  -11.0609   23.7490 C   0  0  0  0  0  0  0  0  0  0  0  0
  -19.8890  -33.8026   21.8944 C   0  0  0  0  0  0  0  0  0  0  0  0
  -22.2125  -32.4379   21.1981 C   0  0  0  0  0  0  0  0  0  0  0  0
  -25.0230  -27.4040   19.1323 C   0  0  0  0  0  0  0  0  0  0  0  0
  -23.3343   -8.8047   22.5975 C   0  0  0  0  0  0  0  0  0  0  0  0
  -24.0023  -10.0434   24.5612 C   0  0  0  0  0  0  0  0  0  0  0  0
  -26.3634  -27.0213   19.1077 C   0  0  0  0  0  0  0  0  0  0  0  0
  -20.5652   -8.2327   24.4516 C   0  0  0  0  0  0  0  0  0  0  0  0
  -19.3115   -7.7090   24.1359 C   0  0  0  0  0  0  0  0  0  0  0  0
  -26.0407  -25.7818   21.1519 C   0  0  0  0  0  0  0  0  0  0  0  0
  -20.2981   -5.5229   23.8448 C   0  0  0  0  0  0  0  0  0  0  0  0
  -30.9623  -19.9866   18.8504 C   0  0  0  0  0  0  0  0  0  0  0  0
  -24.4195  -10.9502   22.3611 C   0  0  0  0  0  0  0  0  0  0  0  0
  -24.2429  -13.1298   21.0473 C   0  0  0  0  0  0  0  0  0  0  0  0
  -20.2900  -32.6938   22.6561 C   0  0  0  0  0  0  0  0  0  0  0  0
  -24.1826  -26.9868   20.1744 C   0  0  0  0  0  0  0  0  0  0  0  0
  -21.4707  -32.0084   22.3116 C   0  0  0  0  0  0  0  0  0  0  0  0
  -24.6894  -26.1585   21.1860 C   0  0  0  0  0  0  0  0  0  0  0  0
  -23.4179   -8.9153   23.9854 C   0  0  0  0  0  0  0  0  0  0  0  0
  -26.8732  -26.2125   20.1192 C   0  0  0  0  0  0  0  0  0  0  0  0
  -21.6853   -7.4015   24.4638 C   0  0  0  0  0  0  0  0  0  0  0  0
  -19.1779   -6.3541   23.8325 C   0  0  0  0  0  0  0  0  0  0  0  0
  -21.5517   -6.0466   24.1604 C   0  0  0  0  0  0  0  0  0  0  0  0
  -24.9375  -12.0013   21.5226 C   0  0  0  0  0  0  0  0  0  0  0  0
  -30.0155  -20.9064   19.2441 C   0  0  0  0  0  0  0  0  0  0  0  0
  -29.6636  -18.2957   19.6774 C   0  0  0  0  0  0  0  0  0  0  0  0
  -28.7171  -19.2156   20.0718 C   0  0  0  0  0  0  0  0  0  0  0  0
  -25.1704  -13.8146   20.3008 C   0  0  0  0  0  0  0  0  0  0  0  0
  -22.8811  -13.5239   21.2615 C   0  0  0  0  0  0  0  0  0  0  0  0
  -22.5143  -28.4662   22.4397 C   0  0  0  0  0  0  0  0  0  0  0  0
  -21.4142  -25.4740   23.0389 C   0  0  0  0  0  0  0  0  0  0  0  0
  -21.9165  -22.1053   22.8234 C   0  0  0  0  0  0  0  0  0  0  0  0
  -30.2999  -15.8599   19.5884 C   0  0  0  0  0  0  0  0  0  0  0  0
  -19.4752  -32.3115   23.8663 C   0  0  0  0  0  0  0  0  0  0  0  0
  -22.7325  -27.3863   20.1721 C   0  0  0  0  0  0  0  0  0  0  0  0
  -23.8238  -25.6669   22.3163 C   0  0  0  0  0  0  0  0  0  0  0  0
  -19.7815  -30.9103   24.3890 C   0  0  0  0  0  0  0  0  0  0  0  0
  -29.7782  -12.4485   18.7121 C   0  0  0  0  0  0  0  0  0  0  0  0
  -21.2884  -30.6896   24.4734 C   0  0  0  0  0  0  0  0  0  0  0  0
  -28.4151  -12.1209   19.3261 C   0  0  0  0  0  0  0  0  0  0  0  0
  -30.5881  -13.3917   19.5999 C   0  0  0  0  0  0  0  0  0  0  0  0
  -28.5300  -14.2963   20.6073 C   0  0  0  0  0  0  0  0  0  0  0  0
  -21.9403  -30.7984   23.0897 C   0  0  1  0  0  0  0  0  0  0  0  0
  -22.0939  -27.3259   21.5562 C   0  0  1  0  0  0  0  0  0  0  0  0
  -27.6514  -13.4009   19.7184 C   0  0  2  0  0  0  0  0  0  0  0  0
  -20.8596  -19.9130   23.4348 C   0  0  0  0  0  0  0  0  0  0  0  0
  -22.2538  -25.8822   25.9438 C   0  0  0  0  0  0  0  0  0  0  0  0
  -22.0679  -23.4072   26.2724 C   0  0  0  0  0  0  0  0  0  0  0  0
  -20.0515  -24.7353   25.6457 C   0  0  0  0  0  0  0  0  0  0  0  0
  -26.2937  -19.4660   20.6106 C   0  0  0  0  0  0  0  0  0  0  0  0
  -21.7424  -21.2669   19.9904 C   0  0  0  0  0  0  0  0  0  0  0  0
  -29.3427  -23.3066   19.3539 C   0  0  0  0  0  0  0  0  0  0  0  0
  -28.7984  -25.7060   18.8181 C   0  0  0  0  0  0  0  0  0  1  0  0
  -21.8540  -24.3298   23.9199 C   0  0  1  0  0  0  0  0  0  0  0  0
  -21.0096  -20.9792   22.3609 C   0  0  2  0  0  0  0  0  0  0  0  0
  -29.9006  -24.6559   18.9054 C   0  0  1  0  0  0  0  0  0  0  0  0
  -21.5738  -24.5993   25.4254 C   0  0  0  0  0  0  0  0  0  0  0  0
  -30.8033  -18.6647   19.0599 N   0  0  0  0  0  0  0  0  0  0  0  0
  -26.2081  -11.9674   21.1123 N   0  0  0  0  0  0  0  0  0  0  0  0
  -28.8759  -20.5374   19.8619 N   0  0  0  0  0  0  0  0  0  0  0  0
  -26.3193  -13.0830   20.3713 N   0  0  0  0  0  0  0  0  0  0  0  0
  -22.4143  -26.0898   22.2730 N   0  0  0  0  0  0  0  0  0  0  0  0
  -29.8027  -14.5837   19.9273 N   0  0  0  0  0  0  0  0  0  0  0  0
  -25.1071  -14.9651   19.5975 N   0  0  0  0  0  0  0  0  0  0  0  0
  -22.0655  -12.7052   22.0545 N   0  0  0  0  0  0  0  0  0  0  0  0
  -29.4515  -16.9158   19.9195 N   0  0  0  0  0  0  0  0  0  0  0  0
  -27.5390  -18.7742   20.7165 N   0  0  0  0  0  0  0  0  0  0  0  0
  -30.2561  -22.2463   18.9909 N   0  0  0  0  0  0  0  0  0  0  0  0
  -21.7154  -29.5882   22.3285 N   0  0  0  0  0  0  0  0  0  0  0  0
  -21.2004  -23.1358   23.3949 N   0  0  0  0  0  0  0  0  0  0  0  0
  -21.5644  -20.3374   21.1356 N   0  3  0  0  0  0  0  0  0  0  0  0
  -22.3971  -14.5624   20.7510 O   0  0  0  0  0  0  0  0  0  0  0  0
  -23.4903  -28.3372   23.1694 O   0  0  0  0  0  0  0  0  0  0  0  0
  -20.2258  -25.8045   23.0252 O   0  0  0  0  0  0  0  0  0  0  0  0
  -23.1383  -22.0724   22.6942 O   0  0  0  0  0  0  0  0  0  0  0  0
  -31.3854  -16.0035   19.0199 O   0  0  0  0  0  0  0  0  0  0  0  0
  -30.8572  -25.1085   19.8658 O   0  0  0  0  0  0  0  0  0  0  0  0
  -22.9291   -7.9228   24.7782 O   0  0  0  0  0  0  0  0  0  0  0  0
  -28.1813  -25.8380   20.0980 O   0  0  0  0  0  0  0  0  0  1  0  0
  -17.9737   -5.8511   23.5308 F   0  0  0  0  0  0  0  0  0  0  0  0
  -22.6240   -5.2430   24.1717 F   0  0  0  0  0  0  0  0  0  0  0  0
  1  2  1  0  0  0  0
  1  5  2  0  0  0  0
  2  6  2  0  0  0  0
  3  8  2  0  0  0  0
  3 16  1  0  0  0  0
  4  9  1  0  0  0  0
  4 16  2  0  0  0  0
  5 18  1  0  0  0  0
  6 20  1  0  0  0  0
  7 10  2  0  0  0  0
  7 19  1  0  0  0  0
  8 22  1  0  0  0  0
  9 22  2  0  0  0  0
 10 23  1  0  0  0  0
 11 12  2  0  0  0  0
 11 24  1  0  0  0  0
 12 25  1  0  0  0  0
 13 21  1  0  0  0  0
 13 23  2  0  0  0  0
 14 25  2  0  0  0  0
 14 26  1  0  0  0  0
 15 28  1  0  0  0  0
 15 61  2  0  0  0  0
 16 27  1  0  0  0  0
 17 27  1  0  0  0  0
 17 31  2  0  0  0  0
 17 32  1  0  0  0  0
 18 20  2  0  0  0  0
 18 37  1  0  0  0  0
 19 21  2  0  0  0  0
 19 38  1  0  0  0  0
 20 46  1  0  0  0  0
 21 39  1  0  0  0  0
 22 81  1  0  0  0  0
 23 82  1  0  0  0  0
 24 26  2  0  0  0  0
 24 81  1  0  0  0  0
 25 83  1  0  0  0  0
 26 84  1  0  0  0  0
 27 62  2  0  0  0  0
 28 63  2  0  0  0  0
 28 71  1  0  0  0  0
 29 30  2  0  0  0  0
 29 61  1  0  0  0  0
 29 69  1  0  0  0  0
 30 63  1  0  0  0  0
 30 70  1  0  0  0  0
 31 64  1  0  0  0  0
 31 67  1  0  0  0  0
 32 68  1  0  0  0  0
 32 75  2  0  0  0  0
 33 47  1  0  0  0  0
 33 72  1  0  0  0  0
 33 76  2  0  0  0  0
 34 57  1  0  0  0  0
 34 65  1  0  0  0  0
 34 77  2  0  0  0  0
 35 58  1  0  0  0  0
 35 73  1  0  0  0  0
 35 78  2  0  0  0  0
 36 66  1  0  0  0  0
 36 69  1  0  0  0  0
 36 79  2  0  0  0  0
 37 40  1  0  0  0  0
 38 47  1  0  0  0  0
 39 65  1  0  0  0  0
 40 42  1  0  0  0  0
 41 43  1  0  0  0  0
 41 44  1  0  0  0  0
 42 46  1  0  0  0  0
 43 48  1  0  0  0  0
 44 66  1  0  0  0  0
 45 48  1  0  0  0  0
 45 66  1  0  0  0  0
 46 72  1  0  0  0  0
 47 65  1  0  0  0  0
 48 64  1  0  0  0  0
 49 58  1  0  0  0  0
 50 60  1  0  0  0  0
 51 60  1  0  0  0  0
 52 60  1  0  0  0  0
 53 70  1  0  0  0  0
 54 74  1  0  0  0  0
 55 59  1  0  0  0  0
 55 71  1  0  0  0  0
 56 59  1  0  0  0  0
 56 82  1  0  0  0  0
 57 60  1  0  0  0  0
 57 73  1  0  0  0  0
 58 74  1  0  0  0  0
 59 80  1  0  0  0  0
 62 64  1  0  0  0  0
M  CHG  1  74   1
M  ISO  4  36 100  56 101  69 100  82 101
M  END
> <Batch ID>
0197

> <Smiles>
CNc1nc(NCC(O)[101CH2:1][101O:1]c2ccc3c(c2)CN(C(=O)C(NC(=O)C(C)NC)C(C)(C)C)C(C(=O)NC2CCCc4ccccc42)C3)cnc1[100NH:0][100C:0](=O)N1CCCC(n2nc(-c3ccc(Oc4ccc(F)cc4F)cc3)c(C(N)=O)c2N)C1

> <Shape>
0.256

> <Color>
0.177

> <Negative vol penalty>
0.000

$$$$

  -OEChem-04052305413D

 83 91  0     1  0  0  0  0  0999 V2000
  -25.6985  -19.8915   14.0379 C   0  0  0  0  0  0  0  0  0  0  0  0
  -26.2499  -18.6772   14.4309 C   0  0  0  0  0  0  0  0  0  0  0  0
  -26.1883  -27.8576   19.0690 C   0  0  0  0  0  0  0  0  0  0  0  0
  -26.1811  -26.9400   21.3040 C   0  0  0  0  0  0  0  0  0  0  0  0
  -24.9783  -20.6547   14.9544 C   0  0  0  0  0  0  0  0  0  0  0  0
  -26.0712  -18.2200   15.7370 C   0  0  0  0  0  0  0  0  0  0  0  0
  -28.2979  -13.2947   18.5495 C   0  0  0  0  0  0  0  0  0  0  0  0
  -25.0825  -28.6454   19.3889 C   0  0  0  0  0  0  0  0  0  0  0  0
  -25.0753  -27.7278   21.6239 C   0  0  0  0  0  0  0  0  0  0  0  0
  -29.4105  -12.9661   19.3227 C   0  0  0  0  0  0  0  0  0  0  0  0
  -24.4699  -30.9454   22.4612 C   0  0  0  0  0  0  0  0  0  0  0  0
  -24.4879  -31.6196   23.6822 C   0  0  0  0  0  0  0  0  0  0  0  0
  -28.1091  -13.2993   21.3263 C   0  0  0  0  0  0  0  0  0  0  0  0
  -22.4925  -30.4398   24.3631 C   0  0  0  0  0  0  0  0  0  0  0  0
  -31.4412  -19.4356   22.6609 C   0  0  0  0  0  0  0  0  0  0  0  0
  -26.7376  -27.0049   20.0265 C   0  0  0  0  0  0  0  0  0  0  0  0
  -29.2375  -26.5319   19.8413 C   0  0  0  0  0  0  0  0  0  0  0  0
  -24.8017  -20.2118   16.2757 C   0  0  0  0  0  0  0  0  0  0  0  0
  -27.0834  -13.6392   19.1601 C   0  0  0  0  0  0  0  0  0  0  0  0
  -25.3272  -18.9645   16.6701 C   0  0  0  0  0  0  0  0  0  0  0  0
  -26.9818  -13.6293   20.5585 C   0  0  0  0  0  0  0  0  0  0  0  0
  -24.5261  -28.5805   20.6663 C   0  0  0  0  0  0  0  0  0  0  0  0
  -29.3171  -12.9712   20.7113 C   0  0  0  0  0  0  0  0  0  0  0  0
  -23.4632  -30.0184   22.1912 C   0  0  0  0  0  0  0  0  0  0  0  0
  -23.4993  -31.3668   24.6331 C   0  0  0  0  0  0  0  0  0  0  0  0
  -22.4746  -29.7655   23.1421 C   0  0  0  0  0  0  0  0  0  0  0  0
  -27.8794  -26.1905   19.6965 C   0  0  0  0  0  0  0  0  0  0  0  0
  -30.9155  -19.1229   21.4319 C   0  0  0  0  0  0  0  0  0  0  0  0
  -29.9190  -25.4277   19.3910 C   0  0  0  0  0  0  0  0  0  0  0  0
  -31.9882  -17.4437   22.1049 C   0  0  0  0  0  0  0  0  0  0  0  0
  -29.8299  -27.7392   20.3384 C   0  0  0  0  0  0  0  0  0  0  0  0
  -25.2519  -16.2367   19.2031 C   0  0  0  0  0  0  0  0  0  0  0  0
  -23.2290  -14.3080   20.8495 C   0  0  0  0  0  0  0  0  0  0  0  0
  -22.8141  -11.5535   22.8212 C   0  0  0  0  0  0  0  0  0  0  0  0
  -29.5800  -19.6619   19.3651 C   0  0  0  0  0  0  0  0  0  0  0  0
  -24.0067  -21.0741   17.2242 C   0  0  0  0  0  0  0  0  0  0  0  0
  -25.8850  -13.9651   18.3115 C   0  0  0  0  0  0  0  0  0  0  0  0
  -25.6952  -13.9721   21.2626 C   0  0  0  0  0  0  0  0  0  0  0  0
  -24.2474  -20.7245   18.6892 C   0  0  0  0  0  0  0  0  0  0  0  0
  -28.7983  -21.5900   16.4757 C   0  0  0  0  0  0  0  0  0  0  0  0
  -24.1083  -19.2235   18.8950 C   0  0  0  0  0  0  0  0  0  0  0  0
  -28.6141  -23.0068   17.0241 C   0  0  0  0  0  0  0  0  0  0  0  0
  -28.2676  -20.5338   17.4434 C   0  0  0  0  0  0  0  0  0  0  0  0
  -28.6078  -22.0432   19.3605 C   0  0  0  0  0  0  0  0  0  0  0  0
  -25.1717  -18.4616   18.0939 C   0  0  1  0  0  0  0  0  0  0  0  0
  -24.8412  -14.7998   19.0471 C   0  0  1  0  0  0  0  0  0  0  0  0
  -29.1862  -23.1382   18.4493 C   0  0  2  0  0  0  0  0  0  0  0  0
  -21.0493  -10.2522   24.0415 C   0  0  0  0  0  0  0  0  0  0  0  0
  -33.5384  -15.4368   20.2165 C   0  0  0  0  0  0  0  0  0  0  0  0
  -23.1574  -16.4481   23.0231 C   0  0  0  0  0  0  0  0  0  0  0  0
  -22.1929  -14.7385   24.5772 C   0  0  0  0  0  0  0  0  0  0  0  0
  -20.9444  -15.3972   22.5205 C   0  0  0  0  0  0  0  0  0  0  0  0
  -23.3438   -9.1171   21.2267 C   0  0  0  0  0  0  0  0  0  0  0  0
  -32.9198  -13.8123   22.0398 C   0  0  0  0  0  0  0  0  0  0  0  0
  -30.5003  -13.2642   22.7534 C   0  0  0  0  0  0  0  0  0  1  0  0
  -23.0212  -13.9715   22.3064 C   0  0  1  0  0  0  0  0  0  0  0  0
  -21.8310  -10.3993   22.7454 C   0  0  2  0  0  0  0  0  0  0  0  0
  -32.5633  -15.1358   21.3510 C   0  0  1  0  0  0  0  0  0  0  0  0
  -31.9636  -13.3954   23.1692 C   0  0  1  0  0  0  0  0  0  0  0  0
  -22.3539  -15.1342   23.0939 C   0  0  0  0  0  0  0  0  0  0  0  0
  -27.7066  -24.9653   19.1935 N   0  0  0  0  0  0  0  0  0  0  0  0
  -31.2696  -17.8453   21.0809 N   0  0  0  0  0  0  0  0  0  0  0  0
  -28.9650  -24.5272   19.0181 N   0  0  0  0  0  0  0  0  0  0  0  0
  -24.5533  -14.2899   20.3893 N   0  0  0  0  0  0  0  0  0  0  0  0
  -28.8563  -20.7179   18.7717 N   0  0  0  0  0  0  0  0  0  0  0  0
  -31.2354  -25.1490   19.2816 N   0  0  0  0  0  0  0  0  0  0  0  0
  -28.9841  -28.7742   20.7599 N   0  0  0  0  0  0  0  0  0  0  0  0
  -30.1210  -19.9642   20.6143 N   0  0  0  0  0  0  0  0  0  0  0  0
  -32.6116  -16.2246   22.3037 N   0  0  0  0  0  0  0  0  0  0  0  0
  -24.8787  -17.0463   18.1473 N   0  0  0  0  0  0  0  0  0  0  0  0
  -22.2684  -12.7221   22.3334 N   0  0  0  0  0  0  0  0  0  0  0  0
  -22.5517   -9.1214   22.4835 N   0  3  0  0  0  0  0  0  0  0  0  0
  -31.0726  -27.9018   20.3915 O   0  0  0  0  0  0  0  0  0  0  0  0
  -25.8608  -16.5854   20.2078 O   0  0  0  0  0  0  0  0  0  0  0  0
  -22.2516  -14.5700   20.1440 O   0  0  0  0  0  0  0  0  0  0  0  0
  -23.9511  -11.4315   23.2717 O   0  0  0  0  0  0  0  0  0  0  0  0
  -29.7332  -18.5791   18.7942 O   0  0  0  0  0  0  0  0  0  0  0  0
  -32.1386  -18.3535   23.1061 O   0  0  0  0  0  0  0  0  0  0  0  0
  -32.3865  -12.1230   23.6672 O   0  0  0  0  0  0  0  0  0  0  0  0
  -23.4472  -29.3492   20.9789 O   0  0  0  0  0  0  0  0  0  0  0  0
  -30.4017  -12.6515   21.4684 O   0  0  0  0  0  0  0  0  0  1  0  0
  -23.5175  -32.0132   25.8061 F   0  0  0  0  0  0  0  0  0  0  0  0
  -21.5055  -28.8752   22.8888 F   0  0  0  0  0  0  0  0  0  0  0  0
  1  2  1  0  0  0  0
  1  5  2  0  0  0  0
  2  6  2  0  0  0  0
  3  8  2  0  0  0  0
  3 16  1  0  0  0  0
  4  9  1  0  0  0  0
  4 16  2  0  0  0  0
  5 18  1  0  0  0  0
  6 20  1  0  0  0  0
  7 10  2  0  0  0  0
  7 19  1  0  0  0  0
  8 22  1  0  0  0  0
  9 22  2  0  0  0  0
 10 23  1  0  0  0  0
 11 12  2  0  0  0  0
 11 24  1  0  0  0  0
 12 25  1  0  0  0  0
 13 21  1  0  0  0  0
 13 23  2  0  0  0  0
 14 25  2  0  0  0  0
 14 26  1  0  0  0  0
 15 28  2  0  0  0  0
 15 78  1  0  0  0  0
 16 27  1  0  0  0  0
 17 27  1  0  0  0  0
 17 29  2  0  0  0  0
 17 31  1  0  0  0  0
 18 20  2  0  0  0  0
 18 36  1  0  0  0  0
 19 21  2  0  0  0  0
 19 37  1  0  0  0  0
 20 45  1  0  0  0  0
 21 38  1  0  0  0  0
 22 80  1  0  0  0  0
 23 81  1  0  0  0  0
 24 26  2  0  0  0  0
 24 80  1  0  0  0  0
 25 82  1  0  0  0  0
 26 83  1  0  0  0  0
 27 61  2  0  0  0  0
 28 62  1  0  0  0  0
 28 68  1  0  0  0  0
 29 63  1  0  0  0  0
 29 66  1  0  0  0  0
 30 62  2  0  0  0  0
 30 69  1  0  0  0  0
 30 78  1  0  0  0  0
 31 67  1  0  0  0  0
 31 73  2  0  0  0  0
 32 46  1  0  0  0  0
 32 70  1  0  0  0  0
 32 74  2  0  0  0  0
 33 56  1  0  0  0  0
 33 64  1  0  0  0  0
 33 75  2  0  0  0  0
 34 57  1  0  0  0  0
 34 71  1  0  0  0  0
 34 76  2  0  0  0  0
 35 65  1  0  0  0  0
 35 68  1  0  0  0  0
 35 77  2  0  0  0  0
 36 39  1  0  0  0  0
 37 46  1  0  0  0  0
 38 64  1  0  0  0  0
 39 41  1  0  0  0  0
 40 42  1  0  0  0  0
 40 43  1  0  0  0  0
 41 45  1  0  0  0  0
 42 47  1  0  0  0  0
 43 65  1  0  0  0  0
 44 47  1  0  0  0  0
 44 65  1  0  0  0  0
 45 70  1  0  0  0  0
 46 64  1  0  0  0  0
 47 63  1  0  0  0  0
 48 57  1  0  0  0  0
 49 58  1  0  0  0  0
 50 60  1  0  0  0  0
 51 60  1  0  0  0  0
 52 60  1  0  0  0  0
 53 72  1  0  0  0  0
 54 58  1  0  0  0  0
 54 59  1  0  0  0  0
 55 59  1  0  0  0  0
 55 81  1  0  0  0  0
 56 60  1  0  0  0  0
 56 71  1  0  0  0  0
 57 72  1  0  0  0  0
 58 69  1  0  0  0  0
 59 79  1  0  0  0  0
 61 63  1  0  0  0  0
M  CHG  1  72   1
M  ISO  4  35 100  55 101  68 100  81 101
M  END
> <Batch ID>
0197

> <Smiles>
CNC(C)C(=O)NC(C(=O)N1Cc2cc([101O:1][101CH2:1]C(O)CC(C)Nc3nc([100NH:0][100C:0](=O)N4CCCC(n5nc(-c6ccc(Oc7ccc(F)cc7F)cc6)c(C(N)=O)c5N)C4)co3)ccc2CC1C(=O)NC1CCCc2ccccc21)C(C)(C)C

> <Shape>
0.258

> <Color>
0.069

> <Negative vol penalty>
0.000

$$$$

  -OEChem-04052305413D

 83 91  0     1  0  0  0  0  0999 V2000
  -29.3299  -35.8712   25.8967 C   0  0  0  0  0  0  0  0  0  0  0  0
  -29.7535  -35.1012   24.8183 C   0  0  0  0  0  0  0  0  0  0  0  0
  -22.2439  -10.2261   20.5651 C   0  0  0  0  0  0  0  0  0  0  0  0
  -24.2158   -9.4674   21.7368 C   0  0  0  0  0  0  0  0  0  0  0  0
  -28.3701  -35.3703   26.7752 C   0  0  0  0  0  0  0  0  0  0  0  0
  -29.2183  -33.8292   24.6183 C   0  0  0  0  0  0  0  0  0  0  0  0
  -27.4617  -29.2720   19.3778 C   0  0  0  0  0  0  0  0  0  0  0  0
  -21.7271   -8.9309   20.5962 C   0  0  0  0  0  0  0  0  0  0  0  0
  -23.6990   -8.1722   21.7680 C   0  0  0  0  0  0  0  0  0  0  0  0
  -27.6744  -27.9522   18.9819 C   0  0  0  0  0  0  0  0  0  0  0  0
  -22.7376   -4.7379   22.4747 C   0  0  0  0  0  0  0  0  0  0  0  0
  -22.8236   -4.0332   23.6754 C   0  0  0  0  0  0  0  0  0  0  0  0
  -25.9643  -27.2220   20.5186 C   0  0  0  0  0  0  0  0  0  0  0  0
  -21.5053   -5.7367   24.7695 C   0  0  0  0  0  0  0  0  0  0  0  0
  -29.0882  -20.8058   19.9964 C   0  0  0  0  0  0  0  0  0  0  0  0
  -23.4883  -10.4943   21.1354 C   0  0  0  0  0  0  0  0  0  0  0  0
  -23.8409  -12.8437   22.0648 C   0  0  0  0  0  0  0  0  0  0  0  0
  -27.8158  -34.0953   26.5804 C   0  0  0  0  0  0  0  0  0  0  0  0
  -26.5046  -29.5760   20.3567 C   0  0  0  0  0  0  0  0  0  0  0  0
  -28.2512  -33.3102   25.4958 C   0  0  0  0  0  0  0  0  0  0  0  0
  -25.7396  -28.5466   20.9234 C   0  0  0  0  0  0  0  0  0  0  0  0
  -22.4546   -7.9039   21.1977 C   0  0  0  0  0  0  0  0  0  0  0  0
  -26.9277  -26.9267   19.5544 C   0  0  0  0  0  0  0  0  0  0  0  0
  -22.0355   -5.9420   22.4214 C   0  0  0  0  0  0  0  0  0  0  0  0
  -22.2074   -4.5326   24.8228 C   0  0  0  0  0  0  0  0  0  0  0  0
  -21.4193   -6.4414   23.5688 C   0  0  0  0  0  0  0  0  0  0  0  0
  -24.0230  -11.8319   21.1030 C   0  0  0  0  0  0  0  0  0  0  0  0
  -29.3434  -18.7687   21.0036 C   0  0  0  0  0  0  0  0  0  0  0  0
  -28.1267  -21.1436   20.9231 C   0  0  0  0  0  0  0  0  0  0  0  0
  -28.3824  -19.1067   21.9309 C   0  0  0  0  0  0  0  0  0  0  0  0
  -24.5460  -13.9151   21.5737 C   0  0  0  0  0  0  0  0  0  0  0  0
  -23.1007  -12.8172   23.2925 C   0  0  0  0  0  0  0  0  0  0  0  0
  -26.5945  -30.8879   23.2506 C   0  0  0  0  0  0  0  0  0  0  0  0
  -23.3651  -30.7005   23.0093 C   0  0  0  0  0  0  0  0  0  0  0  0
  -27.7666  -23.4095   19.8885 C   0  0  0  0  0  0  0  0  0  0  0  0
  -20.6479  -29.1957   21.5953 C   0  0  0  0  0  0  0  0  0  0  0  0
  -29.1187  -16.0538   19.1942 C   0  0  0  0  0  0  0  0  0  0  0  0
  -26.8156  -33.5776   27.5835 C   0  0  0  0  0  0  0  0  0  0  0  0
  -26.2686  -31.0075   20.7535 C   0  0  0  0  0  0  0  0  0  0  0  0
  -24.6857  -28.8223   21.9635 C   0  0  0  0  0  0  0  0  0  0  0  0
  -26.0244  -32.3701   27.0872 C   0  0  0  0  0  0  0  0  0  0  0  0
  -26.6474  -14.6723   17.0353 C   0  0  0  0  0  0  0  0  0  0  0  0
  -26.9578  -31.3452   26.4507 C   0  0  0  0  0  0  0  0  0  0  0  0
  -25.7336  -13.8890   17.9794 C   0  0  0  0  0  0  0  0  0  0  0  0
  -28.1095  -14.5909   17.4685 C   0  0  0  0  0  0  0  0  0  0  0  0
  -27.4500  -14.2014   19.8110 C   0  0  0  0  0  0  0  0  0  0  0  0
  -27.6761  -31.9356   25.2313 C   0  0  1  0  0  0  0  0  0  0  0  0
  -25.6272  -31.1479   22.1305 C   0  0  1  0  0  0  0  0  0  0  0  0
  -25.9587  -14.3000   19.4469 C   0  0  2  0  0  0  0  0  0  0  0  0
  -18.1389  -29.2317   21.6239 C   0  0  0  0  0  0  0  0  0  0  0  0
  -23.3767  -29.2215   25.6780 C   0  0  0  0  0  0  0  0  0  0  0  0
  -21.0393  -28.4679   25.1912 C   0  0  0  0  0  0  0  0  0  0  0  0
  -21.5407  -30.9004   25.4238 C   0  0  0  0  0  0  0  0  0  0  0  0
  -20.5099  -29.9147   18.7277 C   0  0  0  0  0  0  0  0  0  0  0  0
  -30.0334  -17.4468   21.0332 C   0  0  0  0  0  0  0  0  0  0  0  0
  -26.8923  -24.6231   20.1443 C   0  0  0  0  0  0  0  0  0  1  0  0
  -22.3249  -29.6649   23.3622 C   0  0  1  0  0  0  0  0  0  0  0  0
  -19.3956  -29.7708   20.9585 C   0  0  2  0  0  0  0  0  0  0  0  0
  -22.0915  -29.5579   24.8956 C   0  0  0  0  0  0  0  0  0  0  0  0
  -29.7138  -19.6123   20.0200 N   0  0  0  0  0  0  0  0  0  0  0  0
  -24.7839  -12.2255   20.0783 N   0  0  0  0  0  0  0  0  0  0  0  0
  -27.7565  -20.3001   21.9070 N   0  0  0  0  0  0  0  0  0  0  0  0
  -25.0862  -13.4965   20.3934 N   0  0  0  0  0  0  0  0  0  0  0  0
  -24.4965  -30.2374   22.3229 N   0  0  0  0  0  0  0  0  0  0  0  0
  -28.2547  -14.9951   18.8690 N   0  0  0  0  0  0  0  0  0  0  0  0
  -28.0385  -18.1790   22.9393 N   0  0  0  0  0  0  0  0  0  0  0  0
  -24.7504  -15.1652   22.0406 N   0  0  0  0  0  0  0  0  0  0  0  0
  -22.4351  -11.6356   23.6460 N   0  0  0  0  0  0  0  0  0  0  0  0
  -27.5148  -22.4161   20.8287 N   0  0  0  0  0  0  0  0  0  0  0  0
  -26.7882  -31.9691   24.0889 N   0  0  0  0  0  0  0  0  0  0  0  0
  -21.1305  -30.0092   22.5985 N   0  0  0  0  0  0  0  0  0  0  0  0
  -29.1929  -16.3769   20.5435 N   0  0  0  0  0  0  0  0  0  0  0  0
  -19.3456  -29.4250   19.5098 N   0  3  0  0  0  0  0  0  0  0  0  0
  -23.0181  -13.8172   24.0453 O   0  0  0  0  0  0  0  0  0  0  0  0
  -27.1246  -29.7874   23.3478 O   0  0  0  0  0  0  0  0  0  0  0  0
  -23.1771  -31.8782   23.3245 O   0  0  0  0  0  0  0  0  0  0  0  0
  -28.5663  -23.3781   18.9590 O   0  0  0  0  0  0  0  0  0  0  0  0
  -21.1459  -28.1294   21.2409 O   0  0  0  0  0  0  0  0  0  0  0  0
  -29.7713  -16.6692   18.3442 O   0  0  0  0  0  0  0  0  0  0  0  0
  -21.9504   -6.6400   21.2284 O   0  0  0  0  0  0  0  0  0  0  0  0
  -27.1337  -25.6376   19.1702 O   0  0  0  0  0  0  0  0  0  1  0  0
  -22.2887   -3.8550   25.9754 F   0  0  0  0  0  0  0  0  0  0  0  0
  -20.7425   -7.5971   23.5235 F   0  0  0  0  0  0  0  0  0  0  0  0
  1  2  1  0  0  0  0
  1  5  2  0  0  0  0
  2  6  2  0  0  0  0
  3  8  2  0  0  0  0
  3 16  1  0  0  0  0
  4  9  1  0  0  0  0
  4 16  2  0  0  0  0
  5 18  1  0  0  0  0
  6 20  1  0  0  0  0
  7 10  2  0  0  0  0
  7 19  1  0  0  0  0
  8 22  1  0  0  0  0
  9 22  2  0  0  0  0
 10 23  1  0  0  0  0
 11 12  2  0  0  0  0
 11 24  1  0  0  0  0
 12 25  1  0  0  0  0
 13 21  1  0  0  0  0
 13 23  2  0  0  0  0
 14 25  2  0  0  0  0
 14 26  1  0  0  0  0
 15 29  1  0  0  0  0
 15 60  2  0  0  0  0
 16 27  1  0  0  0  0
 17 27  1  0  0  0  0
 17 31  2  0  0  0  0
 17 32  1  0  0  0  0
 18 20  2  0  0  0  0
 18 38  1  0  0  0  0
 19 21  2  0  0  0  0
 19 39  1  0  0  0  0
 20 47  1  0  0  0  0
 21 40  1  0  0  0  0
 22 80  1  0  0  0  0
 23 81  1  0  0  0  0
 24 26  2  0  0  0  0
 24 80  1  0  0  0  0
 25 82  1  0  0  0  0
 26 83  1  0  0  0  0
 27 61  2  0  0  0  0
 28 30  2  0  0  0  0
 28 55  1  0  0  0  0
 28 60  1  0  0  0  0
 29 62  2  0  0  0  0
 29 69  1  0  0  0  0
 30 62  1  0  0  0  0
 30 66  1  0  0  0  0
 31 63  1  0  0  0  0
 31 67  1  0  0  0  0
 32 68  1  0  0  0  0
 32 74  2  0  0  0  0
 33 48  1  0  0  0  0
 33 70  1  0  0  0  0
 33 75  2  0  0  0  0
 34 57  1  0  0  0  0
 34 64  1  0  0  0  0
 34 76  2  0  0  0  0
 35 56  1  0  0  0  0
 35 69  1  0  0  0  0
 35 77  2  0  0  0  0
 36 58  1  0  0  0  0
 36 71  1  0  0  0  0
 36 78  2  0  0  0  0
 37 65  1  0  0  0  0
 37 72  1  0  0  0  0
 37 79  2  0  0  0  0
 38 41  1  0  0  0  0
 39 48  1  0  0  0  0
 40 64  1  0  0  0  0
 41 43  1  0  0  0  0
 42 44  1  0  0  0  0
 42 45  1  0  0  0  0
 43 47  1  0  0  0  0
 44 49  1  0  0  0  0
 45 65  1  0  0  0  0
 46 49  1  0  0  0  0
 46 65  1  0  0  0  0
 47 70  1  0  0  0  0
 48 64  1  0  0  0  0
 49 63  1  0  0  0  0
 50 58  1  0  0  0  0
 51 59  1  0  0  0  0
 52 59  1  0  0  0  0
 53 59  1  0  0  0  0
 54 73  1  0  0  0  0
 55 72  1  0  0  0  0
 56 81  1  0  0  0  0
 57 59  1  0  0  0  0
 57 71  1  0  0  0  0
 58 73  1  0  0  0  0
 61 63  1  0  0  0  0
M  CHG  1  73   1
M  ISO  4  37 100  56 101  72 100  81 101
M  END
> <Batch ID>
0197

> <Smiles>
CNC(C)C(=O)NC(C(=O)N1Cc2cc([101O:1][101CH2:1]C(=O)Nc3cnc(C[100NH:0][100C:0](=O)N4CCCC(n5nc(-c6ccc(Oc7ccc(F)cc7F)cc6)c(C(N)=O)c5N)C4)c(N)n3)ccc2CC1C(=O)NC1CCCc2ccccc21)C(C)(C)C

> <Shape>
0.329

> <Color>
0.127

> <Negative vol penalty>
0.000

$$$$

  -OEChem-04052305413D

 86 94  0     1  0  0  0  0  0999 V2000
  -17.7594  -24.1774   23.4737 C   0  0  0  0  0  0  0  0  0  0  0  0
  -18.5940  -23.8064   22.4243 C   0  0  0  0  0  0  0  0  0  0  0  0
  -26.3131  -13.1179   21.5081 C   0  0  0  0  0  0  0  0  0  0  0  0
  -26.2789  -13.5990   19.1407 C   0  0  0  0  0  0  0  0  0  0  0  0
  -17.6731  -25.5158   23.8546 C   0  0  0  0  0  0  0  0  0  0  0  0
  -19.3420  -24.7739   21.7544 C   0  0  0  0  0  0  0  0  0  0  0  0
  -25.6171  -25.6551   18.4133 C   0  0  0  0  0  0  0  0  0  0  0  0
  -25.0919  -12.4543   21.3908 C   0  0  0  0  0  0  0  0  0  0  0  0
  -25.0577  -12.9353   19.0234 C   0  0  0  0  0  0  0  0  0  0  0  0
  -26.1387  -26.1143   17.2046 C   0  0  0  0  0  0  0  0  0  0  0  0
  -22.1596  -10.3212   21.6490 C   0  0  0  0  0  0  0  0  0  0  0  0
  -22.0254   -9.0914   22.2933 C   0  0  0  0  0  0  0  0  0  0  0  0
  -25.9697  -28.3850   18.0013 C   0  0  0  0  0  0  0  0  0  0  0  0
  -23.8524   -8.2059   20.9838 C   0  0  0  0  0  0  0  0  0  0  0  0
  -29.3509  -24.1709   17.2290 C   0  0  0  0  0  0  0  0  0  0  0  0
  -26.9066  -13.6904   20.3830 C   0  0  0  0  0  0  0  0  0  0  0  0
  -29.4543  -13.8203   20.3717 C   0  0  0  0  0  0  0  0  0  0  0  0
  -18.4278  -26.4989   23.1953 C   0  0  0  0  0  0  0  0  0  0  0  0
  -25.2572  -26.5596   19.4227 C   0  0  0  0  0  0  0  0  0  0  0  0
  -19.2648  -26.1270   22.1260 C   0  0  0  0  0  0  0  0  0  0  0  0
  -25.4462  -27.9346   19.2229 C   0  0  0  0  0  0  0  0  0  0  0  0
  -29.8590  -25.3732   17.6769 C   0  0  0  0  0  0  0  0  0  0  0  0
  -24.4642  -12.3629   20.1485 C   0  0  0  0  0  0  0  0  0  0  0  0
  -26.3123  -27.4795   16.9974 C   0  0  0  0  0  0  0  0  0  0  0  0
  -23.1402  -10.4933   20.6720 C   0  0  0  0  0  0  0  0  0  0  0  0
  -22.8718   -8.0337   21.9607 C   0  0  0  0  0  0  0  0  0  0  0  0
  -23.9866   -9.4357   20.3394 C   0  0  0  0  0  0  0  0  0  0  0  0
  -28.1678  -14.3766   20.5035 C   0  0  0  0  0  0  0  0  0  0  0  0
  -30.3476  -25.3713   18.9674 C   0  0  0  0  0  0  0  0  0  0  0  0
  -30.3078  -14.8773   20.5734 C   0  0  0  0  0  0  0  0  0  0  0  0
  -29.8238  -23.1734   19.2161 C   0  0  0  0  0  0  0  0  0  0  0  0
  -29.8430  -12.4689   20.0920 C   0  0  0  0  0  0  0  0  0  0  0  0
  -22.5447  -27.3080   20.9011 C   0  0  0  0  0  0  0  0  0  0  0  0
  -30.3861  -25.8462   14.6079 C   0  0  0  0  0  0  0  0  0  0  0  0
  -24.5006  -29.1422   22.7266 C   0  0  0  0  0  0  0  0  0  0  0  0
  -27.4504  -30.8342   23.0140 C   0  0  0  0  0  0  0  0  0  0  0  0
  -29.3223  -20.7438   19.6959 C   0  0  0  0  0  0  0  0  0  0  0  0
  -18.2655  -27.9393   23.6118 C   0  0  0  0  0  0  0  0  0  0  0  0
  -24.7209  -26.0466   20.7310 C   0  0  0  0  0  0  0  0  0  0  0  0
  -25.0945  -28.9456   20.2824 C   0  0  0  0  0  0  0  0  0  0  0  0
  -19.3754  -28.8514   23.0955 C   0  0  0  0  0  0  0  0  0  0  0  0
  -29.7795  -18.9852   23.0756 C   0  0  0  0  0  0  0  0  0  0  0  0
  -19.6400  -28.5858   21.6169 C   0  0  0  0  0  0  0  0  0  0  0  0
  -30.2299  -17.6104   22.5872 C   0  0  0  0  0  0  0  0  0  0  0  0
  -30.0454  -20.0786   22.0486 C   0  0  0  0  0  0  0  0  0  0  0  0
  -28.9784  -18.4192   20.5111 C   0  0  0  0  0  0  0  0  0  0  0  0
  -20.1108  -27.1439   21.3910 C   0  0  1  0  0  0  0  0  0  0  0  0
  -23.9081  -27.0886   21.4933 C   0  0  1  0  0  0  0  0  0  0  0  0
  -29.9568  -17.3837   21.0871 C   0  0  2  0  0  0  0  0  0  0  0  0
  -30.9221  -26.6152   19.5622 C   0  0  0  0  0  0  0  0  0  0  0  0
  -29.8500  -25.0847   13.4217 C   0  0  0  0  0  0  0  0  0  0  0  0
  -28.7513  -32.2683   24.6104 C   0  0  0  0  0  0  0  0  0  0  0  0
  -27.7778  -30.0771   15.3352 C   0  0  0  0  0  0  0  0  0  0  0  0
  -22.6735  -31.5019   22.0918 C   0  0  0  0  0  0  0  0  0  0  0  0
  -24.4894  -33.0318   22.8856 C   0  0  0  0  0  0  0  0  0  0  0  0
  -23.4580  -31.3987   24.4642 C   0  0  0  0  0  0  0  0  0  0  0  0
  -29.6864  -28.8978   23.1133 C   0  0  0  0  0  0  0  0  0  0  0  0
  -29.1100  -27.9543   15.0555 C   0  0  0  0  0  0  0  0  0  0  0  0
  -29.3597  -26.5126   15.5139 C   0  0  2  0  0  0  0  0  0  0  0  0
  -25.0112  -30.5610   22.6537 C   0  0  1  0  0  0  0  0  0  0  0  0
  -28.4975  -30.8538   24.1130 C   0  0  2  0  0  0  0  0  0  0  0  0
  -28.0352  -28.6771   15.8778 C   0  0  2  0  0  0  0  0  0  1  0  0
  -23.9129  -31.6047   23.0029 C   0  0  0  0  0  0  0  0  0  0  0  0
  -29.3175  -23.0470   17.9746 N   0  0  0  0  0  0  0  0  0  0  0  0
  -28.1967  -15.6854   20.7686 N   0  0  0  0  0  0  0  0  0  0  0  0
  -30.3456  -24.2854   19.7681 N   0  0  0  0  0  0  0  0  0  0  0  0
  -29.5117  -15.9603   20.8050 N   0  0  0  0  0  0  0  0  0  0  0  0
  -24.5677  -28.3950   21.5421 N   0  0  0  0  0  0  0  0  0  0  0  0
  -29.4628  -19.7869   20.7308 N   0  0  0  0  0  0  0  0  0  0  0  0
  -31.6541  -14.9768   20.5734 N   0  0  0  0  0  0  0  0  0  0  0  0
  -28.8384  -11.5083   19.9120 N   0  0  0  0  0  0  0  0  0  0  0  0
  -29.8687  -26.4964   16.8687 N   0  0  0  0  0  0  0  0  0  0  0  0
  -29.8053  -22.0122   20.0286 N   0  0  0  0  0  0  0  0  0  0  0  0
  -21.5038  -27.0038   21.7575 N   0  0  0  0  0  0  0  0  0  0  0  0
  -26.1853  -30.6172   23.5177 N   0  0  0  0  0  0  0  0  0  0  0  0
  -29.7845  -30.2937   23.6123 N   0  3  0  0  0  0  0  0  0  0  0  0
  -31.0458  -12.1201   20.0204 O   0  0  0  0  0  0  0  0  0  0  0  0
  -22.4445  -27.7239   19.7528 O   0  0  0  0  0  0  0  0  0  0  0  0
  -31.5983  -25.9329   14.8055 O   0  0  0  0  0  0  0  0  0  0  0  0
  -24.0652  -28.7104   23.7969 O   0  0  0  0  0  0  0  0  0  0  0  0
  -27.7267  -30.9989   21.8278 O   0  0  0  0  0  0  0  0  0  0  0  0
  -28.8266  -20.4510   18.6058 O   0  0  0  0  0  0  0  0  0  0  0  0
  -23.2726  -11.7151   20.0337 O   0  0  0  0  0  0  0  0  0  0  0  0
  -26.8206  -27.9305   15.8183 O   0  0  0  0  0  0  0  0  0  1  0  0
  -22.7438   -6.8533   22.5807 F   0  0  0  0  0  0  0  0  0  0  0  0
  -24.9313   -9.5954   19.4025 F   0  0  0  0  0  0  0  0  0  0  0  0
  1  2  1  0  0  0  0
  1  5  2  0  0  0  0
  2  6  2  0  0  0  0
  3  8  2  0  0  0  0
  3 16  1  0  0  0  0
  4  9  1  0  0  0  0
  4 16  2  0  0  0  0
  5 18  1  0  0  0  0
  6 20  1  0  0  0  0
  7 10  2  0  0  0  0
  7 19  1  0  0  0  0
  8 23  1  0  0  0  0
  9 23  2  0  0  0  0
 10 24  1  0  0  0  0
 11 12  2  0  0  0  0
 11 25  1  0  0  0  0
 12 26  1  0  0  0  0
 13 21  1  0  0  0  0
 13 24  2  0  0  0  0
 14 26  2  0  0  0  0
 14 27  1  0  0  0  0
 15 22  1  0  0  0  0
 15 64  2  0  0  0  0
 16 28  1  0  0  0  0
 17 28  1  0  0  0  0
 17 30  2  0  0  0  0
 17 32  1  0  0  0  0
 18 20  2  0  0  0  0
 18 38  1  0  0  0  0
 19 21  2  0  0  0  0
 19 39  1  0  0  0  0
 20 47  1  0  0  0  0
 21 40  1  0  0  0  0
 22 29  2  0  0  0  0
 22 72  1  0  0  0  0
 23 83  1  0  0  0  0
 24 84  1  0  0  0  0
 25 27  2  0  0  0  0
 25 83  1  0  0  0  0
 26 85  1  0  0  0  0
 27 86  1  0  0  0  0
 28 65  2  0  0  0  0
 29 50  1  0  0  0  0
 29 66  1  0  0  0  0
 30 67  1  0  0  0  0
 30 70  1  0  0  0  0
 31 64  1  0  0  0  0
 31 66  2  0  0  0  0
 31 73  1  0  0  0  0
 32 71  1  0  0  0  0
 32 77  2  0  0  0  0
 33 48  1  0  0  0  0
 33 74  1  0  0  0  0
 33 78  2  0  0  0  0
 34 51  1  0  0  0  0
 34 59  1  0  0  0  0
 34 79  2  0  0  0  0
 35 60  1  0  0  0  0
 35 68  1  0  0  0  0
 35 80  2  0  0  0  0
 36 61  1  0  0  0  0
 36 75  1  0  0  0  0
 36 81  2  0  0  0  0
 37 69  1  0  0  0  0
 37 73  1  0  0  0  0
 37 82  2  0  0  0  0
 38 41  1  0  0  0  0
 39 48  1  0  0  0  0
 40 68  1  0  0  0  0
 41 43  1  0  0  0  0
 42 44  1  0  0  0  0
 42 45  1  0  0  0  0
 43 47  1  0  0  0  0
 44 49  1  0  0  0  0
 45 69  1  0  0  0  0
 46 49  1  0  0  0  0
 46 69  1  0  0  0  0
 47 74  1  0  0  0  0
 48 68  1  0  0  0  0
 49 67  1  0  0  0  0
 52 61  1  0  0  0  0
 53 62  1  0  0  0  0
 54 63  1  0  0  0  0
 55 63  1  0  0  0  0
 56 63  1  0  0  0  0
 57 76  1  0  0  0  0
 58 59  1  0  0  0  0
 58 62  1  0  0  0  0
 59 72  1  0  0  0  0
 60 63  1  0  0  0  0
 60 75  1  0  0  0  0
 61 76  1  0  0  0  0
 62 84  1  0  0  0  0
 65 67  1  0  0  0  0
M  CHG  1  76   1
M  ISO  4  37 100  62 101  73 100  84 101
M  END
> <Batch ID>
0197

> <Smiles>
CNC(C)C(=O)NC(C(=O)N1Cc2cc([101O:1][101CH:1](C)CC(Nc3cnc([100NH:0][100C:0](=O)N4CCCC(n5nc(-c6ccc(Oc7ccc(F)cc7F)cc6)c(C(N)=O)c5N)C4)nc3C)C(C)=O)ccc2CC1C(=O)NC1CCCc2ccccc21)C(C)(C)C

> <Shape>
0.335

> <Color>
0.087

> <Negative vol penalty>
0.000

$$$$

  -OEChem-04052305413D

 86 94  0     1  0  0  0  0  0999 V2000
  -15.7268  -26.8264   21.3824 C   0  0  0  0  0  0  0  0  0  0  0  0
  -16.8165  -26.8703   20.5186 C   0  0  0  0  0  0  0  0  0  0  0  0
  -25.1593  -13.5404   22.2184 C   0  0  0  0  0  0  0  0  0  0  0  0
  -26.0826  -13.9061   20.0160 C   0  0  0  0  0  0  0  0  0  0  0  0
  -15.7886  -27.4763   22.6144 C   0  0  0  0  0  0  0  0  0  0  0  0
  -17.9683  -27.5652   20.8859 C   0  0  0  0  0  0  0  0  0  0  0  0
  -23.7523  -26.0880   19.5188 C   0  0  0  0  0  0  0  0  0  0  0  0
  -24.2584  -12.6173   21.6876 C   0  0  0  0  0  0  0  0  0  0  0  0
  -25.1817  -12.9830   19.4851 C   0  0  0  0  0  0  0  0  0  0  0  0
  -24.6271  -26.5385   18.5311 C   0  0  0  0  0  0  0  0  0  0  0  0
  -24.3027   -9.3903   20.6788 C   0  0  0  0  0  0  0  0  0  0  0  0
  -24.1291   -8.1871   21.3626 C   0  0  0  0  0  0  0  0  0  0  0  0
  -25.5881  -28.0970   20.1017 C   0  0  0  0  0  0  0  0  0  0  0  0
  -21.7840   -8.6905   21.6530 C   0  0  0  0  0  0  0  0  0  0  0  0
  -29.5928  -22.5640   16.8169 C   0  0  0  0  0  0  0  0  0  0  0  0
  -26.0714  -14.1849   21.3827 C   0  0  0  0  0  0  0  0  0  0  0  0
  -28.2927  -14.8782   22.4280 C   0  0  0  0  0  0  0  0  0  0  0  0
  -16.9454  -28.1714   23.0010 C   0  0  0  0  0  0  0  0  0  0  0  0
  -23.7815  -26.6471   20.8045 C   0  0  0  0  0  0  0  0  0  0  0  0
  -18.0452  -28.2262   22.1236 C   0  0  0  0  0  0  0  0  0  0  0  0
  -24.7144  -27.6500   21.1046 C   0  0  0  0  0  0  0  0  0  0  0  0
  -24.2696  -12.3386   20.3209 C   0  0  0  0  0  0  0  0  0  0  0  0
  -25.5432  -27.5452   18.8216 C   0  0  0  0  0  0  0  0  0  0  0  0
  -23.2170  -10.2438   20.4822 C   0  0  0  0  0  0  0  0  0  0  0  0
  -22.8697   -7.8371   21.8496 C   0  0  0  0  0  0  0  0  0  0  0  0
  -21.9576   -9.8938   20.9693 C   0  0  0  0  0  0  0  0  0  0  0  0
  -27.0019  -15.1390   21.9304 C   0  0  0  0  0  0  0  0  0  0  0  0
  -29.3284  -23.6176   17.6667 C   0  0  0  0  0  0  0  0  0  0  0  0
  -28.7612  -16.1060   22.8273 C   0  0  0  0  0  0  0  0  0  0  0  0
  -28.5557  -21.9869   18.9131 C   0  0  0  0  0  0  0  0  0  0  0  0
  -29.0046  -13.6371   22.5208 C   0  0  0  0  0  0  0  0  0  0  0  0
  -21.7095  -28.2578   22.5977 C   0  0  0  0  0  0  0  0  0  0  0  0
  -30.3894  -26.0229   19.3698 C   0  0  0  0  0  0  0  0  0  0  0  0
  -24.0203  -27.9528   24.8536 C   0  0  0  0  0  0  0  0  0  0  0  0
  -27.3233  -27.4838   25.5727 C   0  0  0  0  0  0  0  0  0  0  0  0
  -27.4760  -21.7016   21.1712 C   0  0  0  0  0  0  0  0  0  0  0  0
  -16.9479  -28.8983   24.3225 C   0  0  0  0  0  0  0  0  0  0  0  0
  -22.8493  -26.1314   21.8663 C   0  0  0  0  0  0  0  0  0  0  0  0
  -24.8000  -28.2689   22.4751 C   0  0  0  0  0  0  0  0  0  0  0  0
  -18.3433  -29.2980   24.7951 C   0  0  0  0  0  0  0  0  0  0  0  0
  -27.2414  -20.3457   24.4551 C   0  0  0  0  0  0  0  0  0  0  0  0
  -19.1308  -29.9356   23.6549 C   0  0  0  0  0  0  0  0  0  0  0  0
  -27.2770  -18.8329   24.2261 C   0  0  0  0  0  0  0  0  0  0  0  0
  -26.4689  -21.0682   23.3528 C   0  0  0  0  0  0  0  0  0  0  0  0
  -26.9459  -19.2537   21.7562 C   0  0  0  0  0  0  0  0  0  0  0  0
  -19.3213  -28.9489   22.4967 C   0  0  1  0  0  0  0  0  0  0  0  0
  -22.6194  -27.1305   22.9961 C   0  0  1  0  0  0  0  0  0  0  0  0
  -27.7685  -18.4893   22.8062 C   0  0  2  0  0  0  0  0  0  0  0  0
  -31.2676  -26.9280   21.5614 C   0  0  0  0  0  0  0  0  0  0  0  0
  -28.9142  -27.3185   27.5064 C   0  0  0  0  0  0  0  0  0  0  0  0
  -30.6657  -27.7142   16.8783 C   0  0  0  0  0  0  0  0  0  0  0  0
  -23.8937  -30.9801   25.2134 C   0  0  0  0  0  0  0  0  0  0  0  0
  -26.0914  -30.8603   26.4066 C   0  0  0  0  0  0  0  0  0  0  0  0
  -24.1005  -29.6843   27.3424 C   0  0  0  0  0  0  0  0  0  0  0  0
  -28.1032  -24.7231   24.8451 C   0  0  0  0  0  0  0  0  0  0  0  0
  -30.2045  -27.0417   20.4836 C   0  0  0  0  0  0  0  0  0  0  0  0
  -28.1989  -27.3751   16.3593 C   0  0  0  0  0  0  0  0  0  0  0  0
  -26.7937  -27.0477   16.8608 C   0  0  0  0  0  0  0  0  0  1  0  0
  -29.3485  -26.0426   18.2539 C   0  0  1  0  0  0  0  0  0  0  0  0
  -25.2216  -28.7666   25.2704 C   0  0  1  0  0  0  0  0  0  0  0  0
  -28.0195  -26.5501   26.5463 C   0  0  2  0  0  0  0  0  0  0  0  0
  -29.2892  -27.3681   17.4584 C   0  0  1  0  0  0  0  0  0  0  0  0
  -24.8241  -30.0627   26.0317 C   0  0  0  0  0  0  0  0  0  0  0  0
  -26.6714  -16.4309   22.0058 N   0  0  0  0  0  0  0  0  0  0  0  0
  -28.7333  -23.2887   18.8689 N   0  0  0  0  0  0  0  0  0  0  0  0
  -27.7614  -16.9929   22.5556 N   0  0  0  0  0  0  0  0  0  0  0  0
  -23.8630  -27.7353   23.4775 N   0  0  0  0  0  0  0  0  0  0  0  0
  -26.9925  -20.6973   22.0363 N   0  0  0  0  0  0  0  0  0  0  0  0
  -29.9268  -16.5027   23.3810 N   0  0  0  0  0  0  0  0  0  0  0  0
  -28.3760  -12.4706   22.0644 N   0  0  0  0  0  0  0  0  0  0  0  0
  -29.6269  -24.9327   17.3632 N   0  0  0  0  0  0  0  0  0  0  0  0
  -27.9790  -21.2266   19.9605 N   0  0  0  0  0  0  0  0  0  0  0  0
  -20.3684  -27.9997   22.8084 N   0  0  0  0  0  0  0  0  0  0  0  0
  -26.0805  -27.8661   26.0317 N   0  0  0  0  0  0  0  0  0  0  0  0
  -28.8591  -25.5645   25.8083 N   0  3  0  0  0  0  0  0  0  0  0  0
  -30.1574  -13.5623   23.0096 O   0  0  0  0  0  0  0  0  0  0  0  0
  -22.1887  -29.2864   22.1349 O   0  0  0  0  0  0  0  0  0  0  0  0
  -31.3148  -25.2103   19.3772 O   0  0  0  0  0  0  0  0  0  0  0  0
  -23.2538  -27.5199   25.7177 O   0  0  0  0  0  0  0  0  0  0  0  0
  -27.8327  -27.8415   24.5129 O   0  0  0  0  0  0  0  0  0  0  0  0
  -27.4711  -22.8927   21.4927 O   0  0  0  0  0  0  0  0  0  0  0  0
  -23.3908  -11.4377   19.8025 O   0  0  0  0  0  0  0  0  0  0  0  0
  -26.3977  -27.9873   17.8592 O   0  0  0  0  0  0  0  0  0  1  0  0
  -22.7028   -6.6808   22.5048 F   0  0  0  0  0  0  0  0  0  0  0  0
  -20.9106  -10.7091   20.7824 F   0  0  0  0  0  0  0  0  0  0  0  0
  -29.0815  -21.0969   17.5432 S   0  0  0  0  0  0  0  0  0  0  0  0
  1  2  1  0  0  0  0
  1  5  2  0  0  0  0
  2  6  2  0  0  0  0
  3  8  2  0  0  0  0
  3 16  1  0  0  0  0
  4  9  1  0  0  0  0
  4 16  2  0  0  0  0
  5 18  1  0  0  0  0
  6 20  1  0  0  0  0
  7 10  2  0  0  0  0
  7 19  1  0  0  0  0
  8 22  1  0  0  0  0
  9 22  2  0  0  0  0
 10 23  1  0  0  0  0
 11 12  2  0  0  0  0
 11 24  1  0  0  0  0
 12 25  1  0  0  0  0
 13 21  1  0  0  0  0
 13 23  2  0  0  0  0
 14 25  2  0  0  0  0
 14 26  1  0  0  0  0
 15 28  2  0  0  0  0
 15 86  1  0  0  0  0
 16 27  1  0  0  0  0
 17 27  1  0  0  0  0
 17 29  2  0  0  0  0
 17 31  1  0  0  0  0
 18 20  2  0  0  0  0
 18 37  1  0  0  0  0
 19 21  2  0  0  0  0
 19 38  1  0  0  0  0
 20 46  1  0  0  0  0
 21 39  1  0  0  0  0
 22 82  1  0  0  0  0
 23 83  1  0  0  0  0
 24 26  2  0  0  0  0
 24 82  1  0  0  0  0
 25 84  1  0  0  0  0
 26 85  1  0  0  0  0
 27 64  2  0  0  0  0
 28 65  1  0  0  0  0
 28 71  1  0  0  0  0
 29 66  1  0  0  0  0
 29 69  1  0  0  0  0
 30 65  2  0  0  0  0
 30 72  1  0  0  0  0
 30 86  1  0  0  0  0
 31 70  1  0  0  0  0
 31 76  2  0  0  0  0
 32 47  1  0  0  0  0
 32 73  1  0  0  0  0
 32 77  2  0  0  0  0
 33 56  1  0  0  0  0
 33 59  1  0  0  0  0
 33 78  2  0  0  0  0
 34 60  1  0  0  0  0
 34 67  1  0  0  0  0
 34 79  2  0  0  0  0
 35 61  1  0  0  0  0
 35 74  1  0  0  0  0
 35 80  2  0  0  0  0
 36 68  1  0  0  0  0
 36 72  1  0  0  0  0
 36 81  2  0  0  0  0
 37 40  1  0  0  0  0
 38 47  1  0  0  0  0
 39 67  1  0  0  0  0
 40 42  1  0  0  0  0
 41 43  1  0  0  0  0
 41 44  1  0  0  0  0
 42 46  1  0  0  0  0
 43 48  1  0  0  0  0
 44 68  1  0  0  0  0
 45 48  1  0  0  0  0
 45 68  1  0  0  0  0
 46 73  1  0  0  0  0
 47 67  1  0  0  0  0
 48 66  1  0  0  0  0
 49 56  1  0  0  0  0
 50 61  1  0  0  0  0
 51 62  1  0  0  0  0
 52 63  1  0  0  0  0
 53 63  1  0  0  0  0
 54 63  1  0  0  0  0
 55 75  1  0  0  0  0
 57 58  1  0  0  0  0
 57 62  1  0  0  0  0
 58 83  1  0  0  0  0
 59 62  1  0  0  0  0
 59 71  1  0  0  0  0
 60 63  1  0  0  0  0
 60 74  1  0  0  0  0
 61 75  1  0  0  0  0
 64 66  1  0  0  0  0
M  CHG  1  75   1
M  ISO  4  36 100  58 101  72 100  83 101
M  END
> <Batch ID>
0197

> <Smiles>
CCC(=O)C(Nc1csc([100NH:0][100C:0](=O)N2CCCC(n3nc(-c4ccc(Oc5ccc(F)cc5F)cc4)c(C(N)=O)c3N)C2)n1)C(C)C[101CH2:1][101O:1]c1ccc2c(c1)CN(C(=O)C(NC(=O)C(C)NC)C(C)(C)C)C(C(=O)NC1CCCc3ccccc31)C2

> <Shape>
0.258

> <Color>
0.074

> <Negative vol penalty>
0.000

$$$$

  -OEChem-04052305413D

 84 92  0     1  0  0  0  0  0999 V2000
  -18.1718  -32.5197   21.7900 C   0  0  0  0  0  0  0  0  0  0  0  0
  -19.4964  -32.5181   21.3647 C   0  0  0  0  0  0  0  0  0  0  0  0
  -26.4343  -13.0330   21.6713 C   0  0  0  0  0  0  0  0  0  0  0  0
  -25.9761  -14.0750   19.5402 C   0  0  0  0  0  0  0  0  0  0  0  0
  -17.7561  -31.6253   22.7754 C   0  0  0  0  0  0  0  0  0  0  0  0
  -20.4064  -31.6227   21.9256 C   0  0  0  0  0  0  0  0  0  0  0  0
  -25.0951  -28.8820   19.0953 C   0  0  0  0  0  0  0  0  0  0  0  0
  -25.1643  -12.4565   21.6625 C   0  0  0  0  0  0  0  0  0  0  0  0
  -24.7060  -13.4984   19.5315 C   0  0  0  0  0  0  0  0  0  0  0  0
  -26.4588  -29.1682   19.0476 C   0  0  0  0  0  0  0  0  0  0  0  0
  -23.6346   -9.8220   20.1954 C   0  0  0  0  0  0  0  0  0  0  0  0
  -23.5311   -8.4765   20.5482 C   0  0  0  0  0  0  0  0  0  0  0  0
  -26.8466  -27.5879   20.8284 C   0  0  0  0  0  0  0  0  0  0  0  0
  -22.0732   -9.0693   22.3813 C   0  0  0  0  0  0  0  0  0  0  0  0
  -29.1593  -21.4754   17.6346 C   0  0  0  0  0  0  0  0  0  0  0  0
  -26.8402  -13.8423   20.6101 C   0  0  0  0  0  0  0  0  0  0  0  0
  -29.3383  -13.8906   20.0956 C   0  0  0  0  0  0  0  0  0  0  0  0
  -18.6593  -30.7119   23.3417 C   0  0  0  0  0  0  0  0  0  0  0  0
  -24.5947  -27.9531   20.0189 C   0  0  0  0  0  0  0  0  0  0  0  0
  -20.0028  -30.7161   22.9205 C   0  0  0  0  0  0  0  0  0  0  0  0
  -25.4765  -27.2898   20.8841 C   0  0  0  0  0  0  0  0  0  0  0  0
  -24.3001  -12.6891   20.5926 C   0  0  0  0  0  0  0  0  0  0  0  0
  -27.3344  -28.5233   19.9162 C   0  0  0  0  0  0  0  0  0  0  0  0
  -22.9575  -10.7912   20.9356 C   0  0  0  0  0  0  0  0  0  0  0  0
  -22.7503   -8.1001   21.6411 C   0  0  0  0  0  0  0  0  0  0  0  0
  -22.1768  -10.4148   22.0285 C   0  0  0  0  0  0  0  0  0  0  0  0
  -28.1519  -14.4386   20.6189 C   0  0  0  0  0  0  0  0  0  0  0  0
  -29.6743  -21.7255   18.8875 C   0  0  0  0  0  0  0  0  0  0  0  0
  -29.7433  -23.5852   16.9735 C   0  0  0  0  0  0  0  0  0  0  0  0
  -30.2576  -23.8356   18.2266 C   0  0  0  0  0  0  0  0  0  0  0  0
  -30.2974  -14.8397   20.3524 C   0  0  0  0  0  0  0  0  0  0  0  0
  -29.5542  -12.6359   19.4361 C   0  0  0  0  0  0  0  0  0  0  0  0
  -22.5561  -28.0863   22.4540 C   0  0  0  0  0  0  0  0  0  0  0  0
  -22.9795  -24.8703   22.4777 C   0  0  0  0  0  0  0  0  0  0  0  0
  -24.9549  -22.2023   21.6861 C   0  0  0  0  0  0  0  0  0  0  0  0
  -30.0704  -20.7535   21.1776 C   0  0  0  0  0  0  0  0  0  0  0  0
  -18.1744  -29.7963   24.4377 C   0  0  0  0  0  0  0  0  0  0  0  0
  -23.1246  -27.6358   20.0396 C   0  0  0  0  0  0  0  0  0  0  0  0
  -24.9924  -26.2693   21.8804 C   0  0  0  0  0  0  0  0  0  0  0  0
  -19.1146  -28.6258   24.7140 C   0  0  0  0  0  0  0  0  0  0  0  0
  -31.3729  -18.3357   23.4436 C   0  0  0  0  0  0  0  0  0  0  0  0
  -20.5578  -29.1110   24.8076 C   0  0  0  0  0  0  0  0  0  0  0  0
  -30.8076  -17.0113   22.9252 C   0  0  0  0  0  0  0  0  0  0  0  0
  -30.3714  -19.4789   23.2895 C   0  0  0  0  0  0  0  0  0  0  0  0
  -29.2608  -18.3240   21.4181 C   0  0  0  0  0  0  0  0  0  0  0  0
  -21.0140  -29.7433   23.4872 C   0  0  1  0  0  0  0  0  0  0  0  0
  -22.6580  -27.0515   21.3694 C   0  0  1  0  0  0  0  0  0  0  0  0
  -30.2574  -17.1557   21.4927 C   0  0  2  0  0  0  0  0  0  0  0  0
  -25.0515  -19.7011   21.8648 C   0  0  0  0  0  0  0  0  0  0  0  0
  -23.6908  -25.1115   25.4351 C   0  0  0  0  0  0  0  0  0  0  0  0
  -24.6751  -22.8126   25.3142 C   0  0  0  0  0  0  0  0  0  0  0  0
  -22.2446  -23.1520   24.8663 C   0  0  0  0  0  0  0  0  0  0  0  0
  -25.0349  -21.8794   18.7453 C   0  0  0  0  0  0  0  0  0  0  0  0
  -30.8711  -27.9443   19.4889 C   0  0  0  0  0  0  0  0  0  0  0  0
  -31.3846  -25.4262   19.7840 C   0  0  0  0  0  0  0  0  0  0  0  0
  -29.5609  -27.7518   20.2380 C   0  0  0  0  0  0  0  0  0  1  0  0
  -23.9396  -23.9234   23.1564 C   0  0  1  0  0  0  0  0  0  0  0  0
  -24.6405  -20.8841   21.0020 C   0  0  2  0  0  0  0  0  0  0  0  0
  -31.9150  -26.8609   19.7794 C   0  0  1  0  0  0  0  0  0  0  0  0
  -23.6467  -23.7705   24.6757 C   0  0  0  0  0  0  0  0  0  0  0  0
  -29.1846  -22.4008   16.6550 N   0  0  0  0  0  0  0  0  0  0  0  0
  -28.3378  -15.6424   21.1669 N   0  0  0  0  0  0  0  0  0  0  0  0
  -30.2326  -22.9101   19.2060 N   0  0  0  0  0  0  0  0  0  0  0  0
  -29.6523  -15.8586   20.9895 N   0  0  0  0  0  0  0  0  0  0  0  0
  -23.5454  -25.9981   21.8663 N   0  0  0  0  0  0  0  0  0  0  0  0
  -29.8968  -19.5577   21.9062 N   0  0  0  0  0  0  0  0  0  0  0  0
  -29.7958  -24.5917   15.9822 N   0  0  0  0  0  0  0  0  0  0  0  0
  -31.6212  -14.8937   20.0933 N   0  0  0  0  0  0  0  0  0  0  0  0
  -28.4595  -11.7799   19.2539 N   0  0  0  0  0  0  0  0  0  0  0  0
  -29.6094  -20.6995   19.8626 N   0  0  0  0  0  0  0  0  0  0  0  0
  -30.8206  -25.0708   18.5020 N   0  0  0  0  0  0  0  0  0  0  0  0
  -21.3278  -28.7164   22.5169 N   0  0  0  0  0  0  0  0  0  0  0  0
  -23.8779  -22.6731   22.4071 N   0  0  0  0  0  0  0  0  0  0  0  0
  -25.3621  -20.7905   19.7015 N   0  3  0  0  0  0  0  0  0  0  0  0
  -30.6875  -12.2772   19.0355 O   0  0  0  0  0  0  0  0  0  0  0  0
  -23.5198  -28.2964   23.1811 O   0  0  0  0  0  0  0  0  0  0  0  0
  -21.7727  -24.6150   22.4835 O   0  0  0  0  0  0  0  0  0  0  0  0
  -26.0477  -22.7569   21.5935 O   0  0  0  0  0  0  0  0  0  0  0  0
  -30.6143  -21.7430   21.6745 O   0  0  0  0  0  0  0  0  0  0  0  0
  -32.9589  -26.9487   18.8078 O   0  0  0  0  0  0  0  0  0  0  0  0
  -23.0607  -12.1265   20.5837 O   0  0  0  0  0  0  0  0  0  0  0  0
  -28.6658  -28.8013   19.8722 O   0  0  0  0  0  0  0  0  0  1  0  0
  -22.6497   -6.8078   21.9788 F   0  0  0  0  0  0  0  0  0  0  0  0
  -21.5231  -11.3413   22.7427 F   0  0  0  0  0  0  0  0  0  0  0  0
  1  2  1  0  0  0  0
  1  5  2  0  0  0  0
  2  6  2  0  0  0  0
  3  8  2  0  0  0  0
  3 16  1  0  0  0  0
  4  9  1  0  0  0  0
  4 16  2  0  0  0  0
  5 18  1  0  0  0  0
  6 20  1  0  0  0  0
  7 10  2  0  0  0  0
  7 19  1  0  0  0  0
  8 22  1  0  0  0  0
  9 22  2  0  0  0  0
 10 23  1  0  0  0  0
 11 12  2  0  0  0  0
 11 24  1  0  0  0  0
 12 25  1  0  0  0  0
 13 21  1  0  0  0  0
 13 23  2  0  0  0  0
 14 25  2  0  0  0  0
 14 26  1  0  0  0  0
 15 28  1  0  0  0  0
 15 61  2  0  0  0  0
 16 27  1  0  0  0  0
 17 27  1  0  0  0  0
 17 31  2  0  0  0  0
 17 32  1  0  0  0  0
 18 20  2  0  0  0  0
 18 37  1  0  0  0  0
 19 21  2  0  0  0  0
 19 38  1  0  0  0  0
 20 46  1  0  0  0  0
 21 39  1  0  0  0  0
 22 81  1  0  0  0  0
 23 82  1  0  0  0  0
 24 26  2  0  0  0  0
 24 81  1  0  0  0  0
 25 83  1  0  0  0  0
 26 84  1  0  0  0  0
 27 62  2  0  0  0  0
 28 63  2  0  0  0  0
 28 70  1  0  0  0  0
 29 30  2  0  0  0  0
 29 61  1  0  0  0  0
 29 67  1  0  0  0  0
 30 63  1  0  0  0  0
 30 71  1  0  0  0  0
 31 64  1  0  0  0  0
 31 68  1  0  0  0  0
 32 69  1  0  0  0  0
 32 75  2  0  0  0  0
 33 47  1  0  0  0  0
 33 72  1  0  0  0  0
 33 76  2  0  0  0  0
 34 57  1  0  0  0  0
 34 65  1  0  0  0  0
 34 77  2  0  0  0  0
 35 58  1  0  0  0  0
 35 73  1  0  0  0  0
 35 78  2  0  0  0  0
 36 66  1  0  0  0  0
 36 70  1  0  0  0  0
 36 79  2  0  0  0  0
 37 40  1  0  0  0  0
 38 47  1  0  0  0  0
 39 65  1  0  0  0  0
 40 42  1  0  0  0  0
 41 43  1  0  0  0  0
 41 44  1  0  0  0  0
 42 46  1  0  0  0  0
 43 48  1  0  0  0  0
 44 66  1  0  0  0  0
 45 48  1  0  0  0  0
 45 66  1  0  0  0  0
 46 72  1  0  0  0  0
 47 65  1  0  0  0  0
 48 64  1  0  0  0  0
 49 58  1  0  0  0  0
 50 60  1  0  0  0  0
 51 60  1  0  0  0  0
 52 60  1  0  0  0  0
 53 74  1  0  0  0  0
 54 56  1  0  0  0  0
 54 59  1  0  0  0  0
 55 59  1  0  0  0  0
 55 71  1  0  0  0  0
 56 82  1  0  0  0  0
 57 60  1  0  0  0  0
 57 73  1  0  0  0  0
 58 74  1  0  0  0  0
 59 80  1  0  0  0  0
 62 64  1  0  0  0  0
M  CHG  1  74   1
M  ISO  4  36 100  56 101  70 100  82 101
M  END
> <Batch ID>
0197

> <Smiles>
CNC(C)C(=O)NC(C(=O)N1Cc2cc([101O:1][101CH2:1]CC(O)CNc3nc([100NH:0][100C:0](=O)N4CCCC(n5nc(-c6ccc(Oc7ccc(F)cc7F)cc6)c(C(N)=O)c5N)C4)cnc3N)ccc2CC1C(=O)NC1CCCc2ccccc21)C(C)(C)C

> <Shape>
0.282

> <Color>
0.089

> <Negative vol penalty>
0.000

$$$$

  -OEChem-04052305413D

 83 91  0     1  0  0  0  0  0999 V2000
  -16.6002  -29.5621   23.0070 C   0  0  0  0  0  0  0  0  0  0  0  0
  -17.7303  -29.9881   22.3164 C   0  0  0  0  0  0  0  0  0  0  0  0
  -26.3287  -12.8590   21.6137 C   0  0  0  0  0  0  0  0  0  0  0  0
  -25.7144  -13.8111   19.4799 C   0  0  0  0  0  0  0  0  0  0  0  0
  -16.7016  -28.5285   23.9372 C   0  0  0  0  0  0  0  0  0  0  0  0
  -18.9626  -29.3814   22.5564 C   0  0  0  0  0  0  0  0  0  0  0  0
  -25.0489  -27.5959   19.2269 C   0  0  0  0  0  0  0  0  0  0  0  0
  -25.0884  -12.2252   21.6880 C   0  0  0  0  0  0  0  0  0  0  0  0
  -24.4741  -13.1773   19.5541 C   0  0  0  0  0  0  0  0  0  0  0  0
  -26.4296  -27.7413   19.3554 C   0  0  0  0  0  0  0  0  0  0  0  0
  -22.2228  -10.0654   22.2696 C   0  0  0  0  0  0  0  0  0  0  0  0
  -22.2001   -8.7295   22.6700 C   0  0  0  0  0  0  0  0  0  0  0  0
  -26.4699  -25.9118   20.9271 C   0  0  0  0  0  0  0  0  0  0  0  0
  -23.5895   -8.1405   20.7832 C   0  0  0  0  0  0  0  0  0  0  0  0
  -28.4445  -21.2850   17.1955 C   0  0  0  0  0  0  0  0  0  0  0  0
  -26.6417  -13.6521   20.5097 C   0  0  0  0  0  0  0  0  0  0  0  0
  -29.1055  -13.7979   19.8645 C   0  0  0  0  0  0  0  0  0  0  0  0
  -17.9340  -27.9023   24.1817 C   0  0  0  0  0  0  0  0  0  0  0  0
  -24.3658  -26.6128   19.9571 C   0  0  0  0  0  0  0  0  0  0  0  0
  -19.0809  -28.3394   23.4917 C   0  0  0  0  0  0  0  0  0  0  0  0
  -25.0809  -25.7543   20.8042 C   0  0  0  0  0  0  0  0  0  0  0  0
  -24.1611  -12.3843   20.6582 C   0  0  0  0  0  0  0  0  0  0  0  0
  -27.1399  -26.9011   20.2078 C   0  0  0  0  0  0  0  0  0  0  0  0
  -22.9287  -10.4389   21.1260 C   0  0  0  0  0  0  0  0  0  0  0  0
  -22.8835   -7.7670   21.9269 C   0  0  0  0  0  0  0  0  0  0  0  0
  -23.6121   -9.4764   20.3828 C   0  0  0  0  0  0  0  0  0  0  0  0
  -27.9225  -14.3075   20.4326 C   0  0  0  0  0  0  0  0  0  0  0  0
  -29.0100  -21.5978   18.4120 C   0  0  0  0  0  0  0  0  0  0  0  0
  -28.8941  -23.3973   16.4434 C   0  0  0  0  0  0  0  0  0  0  0  0
  -29.4589  -23.7104   17.6602 C   0  0  0  0  0  0  0  0  0  0  0  0
  -30.0305  -14.7974   20.0432 C   0  0  0  0  0  0  0  0  0  0  0  0
  -29.3466  -12.5341   19.2317 C   0  0  0  0  0  0  0  0  0  0  0  0
  -22.0864  -26.6426   22.1723 C   0  0  0  0  0  0  0  0  0  0  0  0
  -22.2119  -23.4241   21.7876 C   0  0  0  0  0  0  0  0  0  0  0  0
  -24.0143  -20.6888   20.8305 C   0  0  0  0  0  0  0  0  0  0  0  0
  -29.5670  -20.7178   20.7058 C   0  0  0  0  0  0  0  0  0  0  0  0
  -18.0034  -26.8211   25.2309 C   0  0  0  0  0  0  0  0  0  0  0  0
  -22.8800  -26.4514   19.7871 C   0  0  0  0  0  0  0  0  0  0  0  0
  -24.3974  -24.6698   21.5948 C   0  0  0  0  0  0  0  0  0  0  0  0
  -19.2739  -25.9784   25.1541 C   0  0  0  0  0  0  0  0  0  0  0  0
  -31.0952  -18.4347   22.9707 C   0  0  0  0  0  0  0  0  0  0  0  0
  -20.4998  -26.8735   25.0028 C   0  0  0  0  0  0  0  0  0  0  0  0
  -30.5674  -17.0703   22.5213 C   0  0  0  0  0  0  0  0  0  0  0  0
  -30.0344  -19.5257   22.8355 C   0  0  0  0  0  0  0  0  0  0  0  0
  -28.8861  -18.2627   21.0591 C   0  0  0  0  0  0  0  0  0  0  0  0
  -20.4305  -27.6895   23.7063 C   0  0  1  0  0  0  0  0  0  0  0  0
  -22.2158  -25.7521   20.9691 C   0  0  1  0  0  0  0  0  0  0  0  0
  -29.9392  -17.1441   21.1158 C   0  0  2  0  0  0  0  0  0  0  0  0
  -23.8635  -18.1893   20.6660 C   0  0  0  0  0  0  0  0  0  0  0  0
  -32.0039  -24.8341   19.1797 C   0  0  0  0  0  0  0  0  0  0  0  0
  -22.6045  -23.2043   24.8055 C   0  0  0  0  0  0  0  0  0  0  0  0
  -23.3841  -20.8500   24.4624 C   0  0  0  0  0  0  0  0  0  0  0  0
  -21.0603  -21.4975   23.8273 C   0  0  0  0  0  0  0  0  0  0  0  0
  -24.3954  -20.7428   17.8961 C   0  0  0  0  0  0  0  0  0  0  0  0
  -30.5999  -26.9254   19.2011 C   0  0  0  0  0  0  0  0  0  0  0  0
  -29.2000  -27.5312   19.2004 C   0  0  0  0  0  0  0  0  0  1  0  0
  -22.9998  -22.3018   22.4190 C   0  0  1  0  0  0  0  0  0  0  0  0
  -23.6610  -19.5106   19.9409 C   0  0  2  0  0  0  0  0  0  0  0  0
  -30.5873  -25.3961   19.1130 C   0  0  1  0  0  0  0  0  0  0  0  0
  -22.5251  -21.9850   23.8653 C   0  0  0  0  0  0  0  0  0  0  0  0
  -28.3765  -22.1792   16.1893 N   0  0  0  0  0  0  0  0  0  0  0  0
  -28.0790  -15.5353   20.9348 N   0  0  0  0  0  0  0  0  0  0  0  0
  -29.5273  -22.8161   18.6662 N   0  0  0  0  0  0  0  0  0  0  0  0
  -29.3712  -15.8054   20.6829 N   0  0  0  0  0  0  0  0  0  0  0  0
  -22.9426  -24.5559   21.3993 N   0  0  0  0  0  0  0  0  0  0  0  0
  -29.4871  -19.5390   21.4771 N   0  0  0  0  0  0  0  0  0  0  0  0
  -28.8488  -24.3732   15.4218 N   0  0  0  0  0  0  0  0  0  0  0  0
  -31.3354  -14.9034   19.7141 N   0  0  0  0  0  0  0  0  0  0  0  0
  -28.2856  -11.6238   19.1318 N   0  0  0  0  0  0  0  0  0  0  0  0
  -29.0430  -20.6012   19.4188 N   0  0  0  0  0  0  0  0  0  0  0  0
  -29.9756  -24.9765   17.8694 N   0  0  0  0  0  0  0  0  0  0  0  0
  -20.7818  -26.8643   22.5705 N   0  0  0  0  0  0  0  0  0  0  0  0
  -22.9100  -21.1726   21.4997 N   0  0  0  0  0  0  0  0  0  0  0  0
  -24.5130  -19.5110   18.7181 N   0  3  0  0  0  0  0  0  0  0  0  0
  -30.4737  -12.2149   18.7833 O   0  0  0  0  0  0  0  0  0  0  0  0
  -23.0954  -27.0938   22.7014 O   0  0  0  0  0  0  0  0  0  0  0  0
  -20.9939  -23.2982   21.6378 O   0  0  0  0  0  0  0  0  0  0  0  0
  -25.1563  -21.1330   20.9253 O   0  0  0  0  0  0  0  0  0  0  0  0
  -30.0881  -21.7463   21.1446 O   0  0  0  0  0  0  0  0  0  0  0  0
  -22.9508  -11.7658   20.7302 O   0  0  0  0  0  0  0  0  0  0  0  0
  -28.4874  -27.0412   20.3355 O   0  0  0  0  0  0  0  0  0  1  0  0
  -22.8629   -6.4844   22.3123 F   0  0  0  0  0  0  0  0  0  0  0  0
  -24.2930   -9.8294   19.2839 F   0  0  0  0  0  0  0  0  0  0  0  0
  1  2  1  0  0  0  0
  1  5  2  0  0  0  0
  2  6  2  0  0  0  0
  3  8  2  0  0  0  0
  3 16  1  0  0  0  0
  4  9  1  0  0  0  0
  4 16  2  0  0  0  0
  5 18  1  0  0  0  0
  6 20  1  0  0  0  0
  7 10  2  0  0  0  0
  7 19  1  0  0  0  0
  8 22  1  0  0  0  0
  9 22  2  0  0  0  0
 10 23  1  0  0  0  0
 11 12  2  0  0  0  0
 11 24  1  0  0  0  0
 12 25  1  0  0  0  0
 13 21  1  0  0  0  0
 13 23  2  0  0  0  0
 14 25  2  0  0  0  0
 14 26  1  0  0  0  0
 15 28  1  0  0  0  0
 15 61  2  0  0  0  0
 16 27  1  0  0  0  0
 17 27  1  0  0  0  0
 17 31  2  0  0  0  0
 17 32  1  0  0  0  0
 18 20  2  0  0  0  0
 18 37  1  0  0  0  0
 19 21  2  0  0  0  0
 19 38  1  0  0  0  0
 20 46  1  0  0  0  0
 21 39  1  0  0  0  0
 22 80  1  0  0  0  0
 23 81  1  0  0  0  0
 24 26  2  0  0  0  0
 24 80  1  0  0  0  0
 25 82  1  0  0  0  0
 26 83  1  0  0  0  0
 27 62  2  0  0  0  0
 28 63  2  0  0  0  0
 28 70  1  0  0  0  0
 29 30  2  0  0  0  0
 29 61  1  0  0  0  0
 29 67  1  0  0  0  0
 30 63  1  0  0  0  0
 30 71  1  0  0  0  0
 31 64  1  0  0  0  0
 31 68  1  0  0  0  0
 32 69  1  0  0  0  0
 32 75  2  0  0  0  0
 33 47  1  0  0  0  0
 33 72  1  0  0  0  0
 33 76  2  0  0  0  0
 34 57  1  0  0  0  0
 34 65  1  0  0  0  0
 34 77  2  0  0  0  0
 35 58  1  0  0  0  0
 35 73  1  0  0  0  0
 35 78  2  0  0  0  0
 36 66  1  0  0  0  0
 36 70  1  0  0  0  0
 36 79  2  0  0  0  0
 37 40  1  0  0  0  0
 38 47  1  0  0  0  0
 39 65  1  0  0  0  0
 40 42  1  0  0  0  0
 41 43  1  0  0  0  0
 41 44  1  0  0  0  0
 42 46  1  0  0  0  0
 43 48  1  0  0  0  0
 44 66  1  0  0  0  0
 45 48  1  0  0  0  0
 45 66  1  0  0  0  0
 46 72  1  0  0  0  0
 47 65  1  0  0  0  0
 48 64  1  0  0  0  0
 49 58  1  0  0  0  0
 50 59  1  0  0  0  0
 51 60  1  0  0  0  0
 52 60  1  0  0  0  0
 53 60  1  0  0  0  0
 54 74  1  0  0  0  0
 55 56  1  0  0  0  0
 55 59  1  0  0  0  0
 56 81  1  0  0  0  0
 57 60  1  0  0  0  0
 57 73  1  0  0  0  0
 58 74  1  0  0  0  0
 59 71  1  0  0  0  0
 62 64  1  0  0  0  0
M  CHG  1  74   1
M  ISO  4  36 100  56 101  70 100  81 101
M  END
> <Batch ID>
0197

> <Smiles>
CNC(C)C(=O)NC(C(=O)N1Cc2cc([101O:1][101CH2:1]CC(C)Nc3nc([100NH:0][100C:0](=O)N4CCCC(n5nc(-c6ccc(Oc7ccc(F)cc7F)cc6)c(C(N)=O)c5N)C4)cnc3N)ccc2CC1C(=O)NC1CCCc2ccccc21)C(C)(C)C

> <Shape>
0.278

> <Color>
0.089

> <Negative vol penalty>
0.000

$$$$

  -OEChem-04052305413D

 83 91  0     1  0  0  0  0  0999 V2000
  -22.9503  -32.1247   21.2231 C   0  0  0  0  0  0  0  0  0  0  0  0
  -23.3322  -31.3839   20.1093 C   0  0  0  0  0  0  0  0  0  0  0  0
  -23.0587   -9.8471   19.9738 C   0  0  0  0  0  0  0  0  0  0  0  0
  -23.8003   -9.9020   22.2725 C   0  0  0  0  0  0  0  0  0  0  0  0
  -23.7622  -32.1463   22.3564 C   0  0  0  0  0  0  0  0  0  0  0  0
  -24.5269  -30.6650   20.1276 C   0  0  0  0  0  0  0  0  0  0  0  0
  -27.4607  -24.6466   17.5805 C   0  0  0  0  0  0  0  0  0  0  0  0
  -22.3033   -8.7062   20.2448 C   0  0  0  0  0  0  0  0  0  0  0  0
  -23.0449   -8.7612   22.5435 C   0  0  0  0  0  0  0  0  0  0  0  0
  -28.5839  -24.2084   16.8804 C   0  0  0  0  0  0  0  0  0  0  0  0
  -19.8055   -8.0042   23.1384 C   0  0  0  0  0  0  0  0  0  0  0  0
  -19.0389   -7.9982   24.3037 C   0  0  0  0  0  0  0  0  0  0  0  0
  -29.8675  -24.2559   18.9223 C   0  0  0  0  0  0  0  0  0  0  0  0
  -20.2582   -6.0686   25.0957 C   0  0  0  0  0  0  0  0  0  0  0  0
  -31.4946  -19.1838   19.1172 C   0  0  0  0  0  0  0  0  0  0  0  0
  -23.8073  -10.4450   20.9877 C   0  0  0  0  0  0  0  0  0  0  0  0
  -24.1711  -12.9637   20.8109 C   0  0  0  0  0  0  0  0  0  0  0  0
  -24.9627  -31.4195   22.3922 C   0  0  0  0  0  0  0  0  0  0  0  0
  -27.5354  -24.9036   18.9570 C   0  0  0  0  0  0  0  0  0  0  0  0
  -25.3563  -30.6779   21.2620 C   0  0  0  0  0  0  0  0  0  0  0  0
  -28.7431  -24.6948   19.6380 C   0  0  0  0  0  0  0  0  0  0  0  0
  -22.2963   -8.1633   21.5297 C   0  0  0  0  0  0  0  0  0  0  0  0
  -29.7884  -24.0158   17.5508 C   0  0  0  0  0  0  0  0  0  0  0  0
  -20.7984   -7.0424   22.9517 C   0  0  0  0  0  0  0  0  0  0  0  0
  -19.2653   -7.0304   25.2824 C   0  0  0  0  0  0  0  0  0  0  0  0
  -21.0248   -6.0747   23.9303 C   0  0  0  0  0  0  0  0  0  0  0  0
  -24.5883  -11.6231   20.7082 C   0  0  0  0  0  0  0  0  0  0  0  0
  -30.6346  -17.9367   20.8302 C   0  0  0  0  0  0  0  0  0  0  0  0
  -30.3049  -19.8715   19.0205 C   0  0  0  0  0  0  0  0  0  0  0  0
  -29.4452  -18.6248   20.7342 C   0  0  0  0  0  0  0  0  0  0  0  0
  -25.2723  -13.6954   20.4390 C   0  0  0  0  0  0  0  0  0  0  0  0
  -22.9017  -13.4996   21.2072 C   0  0  0  0  0  0  0  0  0  0  0  0
  -27.1320  -27.4730   20.7843 C   0  0  0  0  0  0  0  0  0  0  0  0
  -27.4946  -25.3344   23.1961 C   0  0  0  0  0  0  0  0  0  0  0  0
  -28.7256  -22.3281   24.2419 C   0  0  0  0  0  0  0  0  0  0  0  0
  -30.7627  -14.6739   20.6480 C   0  0  0  0  0  0  0  0  0  0  0  0
  -25.8305  -31.5115   23.6223 C   0  0  0  0  0  0  0  0  0  0  0  0
  -26.3078  -25.3501   19.7027 C   0  0  0  0  0  0  0  0  0  0  0  0
  -28.8705  -24.9369   21.1191 C   0  0  0  0  0  0  0  0  0  0  0  0
  -26.8966  -30.4215   23.6985 C   0  0  0  0  0  0  0  0  0  0  0  0
  -29.6243  -12.2430   18.3089 C   0  0  0  0  0  0  0  0  0  0  0  0
  -27.6112  -30.2792   22.3584 C   0  0  0  0  0  0  0  0  0  0  0  0
  -28.1810  -11.9713   18.7369 C   0  0  0  0  0  0  0  0  0  0  0  0
  -30.5336  -12.4847   19.5117 C   0  0  0  0  0  0  0  0  0  0  0  0
  -28.6271  -13.2638   20.8651 C   0  0  0  0  0  0  0  0  0  0  0  0
  -26.6327  -29.8651   21.2526 C   0  0  1  0  0  0  0  0  0  0  0  0
  -26.6308  -26.0740   21.0061 C   0  0  1  0  0  0  0  0  0  0  0  0
  -27.6609  -13.0694   19.6840 C   0  0  2  0  0  0  0  0  0  0  0  0
  -29.1362  -20.3879   25.7795 C   0  0  0  0  0  0  0  0  0  0  0  0
  -31.6586  -22.3926   14.9616 C   0  0  0  0  0  0  0  0  0  0  0  0
  -29.6889  -27.1431   24.3024 C   0  0  0  0  0  0  0  0  0  0  0  0
  -30.4478  -25.2318   25.7305 C   0  0  0  0  0  0  0  0  0  0  0  0
  -28.1602  -26.1801   26.0316 C   0  0  0  0  0  0  0  0  0  0  0  0
  -26.2706  -20.9435   23.3391 C   0  0  0  0  0  0  0  0  0  0  0  0
  -30.8367  -16.8525   21.8343 C   0  0  0  0  0  0  0  0  0  0  0  0
  -31.2618  -21.2206   17.1524 C   0  0  0  0  0  0  0  0  0  0  0  0
  -28.6671  -24.7942   23.9787 C   0  0  1  0  0  0  0  0  0  0  0  0
  -28.0892  -21.1989   25.0321 C   0  0  2  0  0  0  0  0  0  0  0  0
  -30.7918  -22.3267   16.2105 C   0  0  1  0  0  0  0  0  0  1  0  0
  -29.2394  -25.8345   24.9826 C   0  0  0  0  0  0  0  0  0  0  0  0
  -31.6808  -18.2041   20.0238 N   0  0  0  0  0  0  0  0  0  0  0  0
  -25.8556  -11.5071   20.3026 N   0  0  0  0  0  0  0  0  0  0  0  0
  -29.2589  -19.6043   19.8273 N   0  0  0  0  0  0  0  0  0  0  0  0
  -26.2442  -12.7842   20.1471 N   0  0  0  0  0  0  0  0  0  0  0  0
  -27.6438  -25.3788   21.8027 N   0  0  0  0  0  0  0  0  0  0  0  0
  -29.9846  -13.5383   20.3686 N   0  0  0  0  0  0  0  0  0  0  0  0
  -28.3853  -18.2974   21.6095 N   0  0  0  0  0  0  0  0  0  0  0  0
  -25.4944  -15.0231   20.3363 N   0  0  0  0  0  0  0  0  0  0  0  0
  -21.8796  -12.6069   21.5576 N   0  0  0  0  0  0  0  0  0  0  0  0
  -30.1958  -20.8640   18.0609 N   0  0  0  0  0  0  0  0  0  0  0  0
  -26.3342  -28.4520   21.3450 N   0  0  0  0  0  0  0  0  0  0  0  0
  -28.2085  -23.5556   24.5983 N   0  0  0  0  0  0  0  0  0  0  0  0
  -30.1646  -15.6272   21.4630 N   0  0  0  0  0  0  0  0  0  0  0  0
  -27.3475  -20.2826   24.1205 N   0  3  0  0  0  0  0  0  0  0  0  0
  -22.6752  -14.7331   21.2336 O   0  0  0  0  0  0  0  0  0  0  0  0
  -28.1668  -27.6509   20.1524 O   0  0  0  0  0  0  0  0  0  0  0  0
  -26.4809  -25.6967   23.7984 O   0  0  0  0  0  0  0  0  0  0  0  0
  -29.5971  -22.1403   23.3959 O   0  0  0  0  0  0  0  0  0  0  0  0
  -31.9037  -14.8293   20.1996 O   0  0  0  0  0  0  0  0  0  0  0  0
  -21.5591   -7.0503   21.7945 O   0  0  0  0  0  0  0  0  0  0  0  0
  -30.8864  -23.5888   16.8698 O   0  0  0  0  0  0  0  0  0  1  0  0
  -18.5302   -7.0256   26.4021 F   0  0  0  0  0  0  0  0  0  0  0  0
  -21.9780   -5.1488   23.7571 F   0  0  0  0  0  0  0  0  0  0  0  0
  1  2  1  0  0  0  0
  1  5  2  0  0  0  0
  2  6  2  0  0  0  0
  3  8  2  0  0  0  0
  3 16  1  0  0  0  0
  4  9  1  0  0  0  0
  4 16  2  0  0  0  0
  5 18  1  0  0  0  0
  6 20  1  0  0  0  0
  7 10  2  0  0  0  0
  7 19  1  0  0  0  0
  8 22  1  0  0  0  0
  9 22  2  0  0  0  0
 10 23  1  0  0  0  0
 11 12  2  0  0  0  0
 11 24  1  0  0  0  0
 12 25  1  0  0  0  0
 13 21  1  0  0  0  0
 13 23  2  0  0  0  0
 14 25  2  0  0  0  0
 14 26  1  0  0  0  0
 15 29  1  0  0  0  0
 15 61  2  0  0  0  0
 16 27  1  0  0  0  0
 17 27  1  0  0  0  0
 17 31  2  0  0  0  0
 17 32  1  0  0  0  0
 18 20  2  0  0  0  0
 18 37  1  0  0  0  0
 19 21  2  0  0  0  0
 19 38  1  0  0  0  0
 20 46  1  0  0  0  0
 21 39  1  0  0  0  0
 22 80  1  0  0  0  0
 23 81  1  0  0  0  0
 24 26  2  0  0  0  0
 24 80  1  0  0  0  0
 25 82  1  0  0  0  0
 26 83  1  0  0  0  0
 27 62  2  0  0  0  0
 28 30  2  0  0  0  0
 28 55  1  0  0  0  0
 28 61  1  0  0  0  0
 29 63  2  0  0  0  0
 29 70  1  0  0  0  0
 30 63  1  0  0  0  0
 30 67  1  0  0  0  0
 31 64  1  0  0  0  0
 31 68  1  0  0  0  0
 32 69  1  0  0  0  0
 32 75  2  0  0  0  0
 33 47  1  0  0  0  0
 33 71  1  0  0  0  0
 33 76  2  0  0  0  0
 34 57  1  0  0  0  0
 34 65  1  0  0  0  0
 34 77  2  0  0  0  0
 35 58  1  0  0  0  0
 35 72  1  0  0  0  0
 35 78  2  0  0  0  0
 36 66  1  0  0  0  0
 36 73  1  0  0  0  0
 36 79  2  0  0  0  0
 37 40  1  0  0  0  0
 38 47  1  0  0  0  0
 39 65  1  0  0  0  0
 40 42  1  0  0  0  0
 41 43  1  0  0  0  0
 41 44  1  0  0  0  0
 42 46  1  0  0  0  0
 43 48  1  0  0  0  0
 44 66  1  0  0  0  0
 45 48  1  0  0  0  0
 45 66  1  0  0  0  0
 46 71  1  0  0  0  0
 47 65  1  0  0  0  0
 48 64  1  0  0  0  0
 49 58  1  0  0  0  0
 50 59  1  0  0  0  0
 51 60  1  0  0  0  0
 52 60  1  0  0  0  0
 53 60  1  0  0  0  0
 54 74  1  0  0  0  0
 55 73  1  0  0  0  0
 56 59  1  0  0  0  0
 56 70  1  0  0  0  0
 57 60  1  0  0  0  0
 57 72  1  0  0  0  0
 58 74  1  0  0  0  0
 59 81  1  0  0  0  0
 62 64  1  0  0  0  0
M  CHG  1  74   1
M  ISO  4  36 100  59 101  73 100  81 101
M  END
> <Batch ID>
0197

> <Smiles>
CNC(C)C(=O)NC(C(=O)N1Cc2cc([101O:1][101CH:1](C)CNc3cnc(C[100NH:0][100C:0](=O)N4CCCC(n5nc(-c6ccc(Oc7ccc(F)cc7F)cc6)c(C(N)=O)c5N)C4)c(N)n3)ccc2CC1C(=O)NC1CCCc2ccccc21)C(C)(C)C

> <Shape>
0.317

> <Color>
0.207

> <Negative vol penalty>
0.000

$$$$

  -OEChem-04052305413D

 83 91  0     1  0  0  0  0  0999 V2000
  -18.3743  -28.1536   23.5445 C   0  0  0  0  0  0  0  0  0  0  0  0
  -19.7082  -28.0088   23.9121 C   0  0  0  0  0  0  0  0  0  0  0  0
  -24.3879  -13.9345   20.4875 C   0  0  0  0  0  0  0  0  0  0  0  0
  -26.7353  -13.6150   20.9618 C   0  0  0  0  0  0  0  0  0  0  0  0
  -17.9590  -27.7750   22.2686 C   0  0  0  0  0  0  0  0  0  0  0  0
  -20.6274  -27.4843   23.0042 C   0  0  0  0  0  0  0  0  0  0  0  0
  -24.9583  -30.1065   22.8905 C   0  0  0  0  0  0  0  0  0  0  0  0
  -24.2479  -12.5657   20.2584 C   0  0  0  0  0  0  0  0  0  0  0  0
  -26.5952  -12.2462   20.7327 C   0  0  0  0  0  0  0  0  0  0  0  0
  -25.8648  -29.8837   23.9260 C   0  0  0  0  0  0  0  0  0  0  0  0
  -23.1942   -9.1049   19.9010 C   0  0  0  0  0  0  0  0  0  0  0  0
  -22.0927   -8.4622   20.4659 C   0  0  0  0  0  0  0  0  0  0  0  0
  -27.1403  -28.4264   22.4878 C   0  0  0  0  0  0  0  0  0  0  0  0
  -22.8476   -9.1048   22.6692 C   0  0  0  0  0  0  0  0  0  0  0  0
  -28.6719  -23.4129   22.8052 C   0  0  0  0  0  0  0  0  0  0  0  0
  -30.1792  -25.2547   21.5955 C   0  0  0  0  0  0  0  0  0  0  0  0
  -25.6316  -14.4591   20.8391 C   0  0  0  0  0  0  0  0  0  0  0  0
  -25.6221  -16.5507   22.2995 C   0  0  0  0  0  0  0  0  0  0  0  0
  -18.8754  -27.2546   21.3413 C   0  0  0  0  0  0  0  0  0  0  0  0
  -25.1302  -29.4812   21.6472 C   0  0  0  0  0  0  0  0  0  0  0  0
  -20.2237  -27.0972   21.7151 C   0  0  0  0  0  0  0  0  0  0  0  0
  -26.2359  -28.6449   21.4373 C   0  0  0  0  0  0  0  0  0  0  0  0
  -25.3515  -11.7216   20.3810 C   0  0  0  0  0  0  0  0  0  0  0  0
  -26.9544  -29.0413   23.7257 C   0  0  0  0  0  0  0  0  0  0  0  0
  -24.1225   -9.7475   20.7202 C   0  0  0  0  0  0  0  0  0  0  0  0
  -21.9194   -8.4621   21.8500 C   0  0  0  0  0  0  0  0  0  0  0  0
  -23.9492   -9.7475   22.1042 C   0  0  0  0  0  0  0  0  0  0  0  0
  -25.7770  -15.8730   21.0754 C   0  0  0  0  0  0  0  0  0  0  0  0
  -29.0393  -23.2753   21.4848 C   0  0  0  0  0  0  0  0  0  0  0  0
  -29.8112  -25.3928   22.9157 C   0  0  0  0  0  0  0  0  0  0  0  0
  -25.8637  -17.8682   21.9956 C   0  0  0  0  0  0  0  0  0  0  0  0
  -25.2897  -16.0354   23.5955 C   0  0  0  0  0  0  0  0  0  0  0  0
  -23.4393  -27.4145   19.9228 C   0  0  0  0  0  0  0  0  0  0  0  0
  -25.7351  -27.9851   17.7034 C   0  0  0  0  0  0  0  0  0  0  0  0
  -28.9251  -28.9923   17.0277 C   0  0  0  0  0  0  0  0  0  0  0  0
  -28.8588  -21.8085   19.4447 C   0  0  0  0  0  0  0  0  0  0  0  0
  -18.3704  -26.8152   19.9898 C   0  0  0  0  0  0  0  0  0  0  0  0
  -24.1581  -29.7529   20.5320 C   0  0  0  0  0  0  0  0  0  0  0  0
  -26.4767  -27.9656   20.1148 C   0  0  0  0  0  0  0  0  0  0  0  0
  -19.4797  -26.6172   18.9599 C   0  0  0  0  0  0  0  0  0  0  0  0
  -26.3447  -20.1812   17.5189 C   0  0  0  0  0  0  0  0  0  0  0  0
  -20.6296  -25.8155   19.5614 C   0  0  0  0  0  0  0  0  0  0  0  0
  -25.9601  -18.9711   18.3732 C   0  0  0  0  0  0  0  0  0  0  0  0
  -27.8394  -20.4845   17.6053 C   0  0  0  0  0  0  0  0  0  0  0  0
  -27.9809  -19.4206   19.8228 C   0  0  0  0  0  0  0  0  0  0  0  0
  -21.2556  -26.5553   20.7498 C   0  0  1  0  0  0  0  0  0  0  0  0
  -24.1479  -28.6592   19.4685 C   0  0  1  0  0  0  0  0  0  0  0  0
  -26.4740  -19.1158   19.8191 C   0  0  2  0  0  0  0  0  0  0  0  0
  -30.5266  -29.3171   15.1232 C   0  0  0  0  0  0  0  0  0  0  0  0
  -30.8175  -25.9074   25.8734 C   0  0  0  0  0  0  0  0  0  0  0  0
  -29.3912  -30.6449   24.9036 C   0  0  0  0  0  0  0  0  0  0  0  0
  -26.1601  -24.9676   17.5493 C   0  0  0  0  0  0  0  0  0  0  0  0
  -28.3412  -25.4036   16.4000 C   0  0  0  0  0  0  0  0  0  0  0  0
  -26.2063  -26.1417   15.3416 C   0  0  0  0  0  0  0  0  0  0  0  0
  -29.1774  -31.8886   17.5814 C   0  0  0  0  0  0  0  0  0  0  0  0
  -30.1191  -28.2641   25.3066 C   0  0  0  0  0  0  0  0  0  0  0  0
  -27.0753  -27.3751   17.3703 C   0  0  1  0  0  0  0  0  0  0  0  0
  -29.4774  -29.9720   16.0081 C   0  0  2  0  0  0  0  0  0  0  0  0
  -29.9207  -26.7724   24.9919 C   0  0  1  0  0  0  0  0  0  0  0  0
  -29.1989  -29.1891   24.4981 C   0  0  1  0  0  0  0  0  0  1  0  0
  -26.9404  -25.9831   16.6909 C   0  0  0  0  0  0  0  0  0  0  0  0
  -29.7998  -24.1935   20.8563 N   0  0  0  0  0  0  0  0  0  0  0  0
  -29.0510  -24.4743   23.5443 N   0  0  0  0  0  0  0  0  0  0  0  0
  -26.0925  -16.6923   20.0687 N   0  0  0  0  0  0  0  0  0  0  0  0
  -26.1376  -17.8984   20.6598 N   0  0  0  0  0  0  0  0  0  0  0  0
  -25.4948  -28.2579   19.0575 N   0  0  0  0  0  0  0  0  0  0  0  0
  -28.2535  -20.6124   19.0043 N   0  0  0  0  0  0  0  0  0  0  0  0
  -25.8664  -18.9922   22.7432 N   0  0  0  0  0  0  0  0  0  0  0  0
  -25.0739  -14.6573   23.7313 N   0  0  0  0  0  0  0  0  0  0  0  0
  -28.5977  -22.1306   20.7761 N   0  0  0  0  0  0  0  0  0  0  0  0
  -30.2418  -26.5129   23.6040 N   0  0  0  0  0  0  0  0  0  0  0  0
  -22.1213  -27.6177   20.2846 N   0  0  0  0  0  0  0  0  0  0  0  0
  -27.7863  -28.3650   16.5684 N   0  0  0  0  0  0  0  0  0  0  0  0
  -30.1031  -31.1370   16.6953 N   0  3  0  0  0  0  0  0  0  0  0  0
  -25.1709  -16.7773   24.6000 O   0  0  0  0  0  0  0  0  0  0  0  0
  -24.0433  -26.3484   19.9423 O   0  0  0  0  0  0  0  0  0  0  0  0
  -24.9340  -28.2178   16.7948 O   0  0  0  0  0  0  0  0  0  0  0  0
  -29.4533  -28.7998   18.1206 O   0  0  0  0  0  0  0  0  0  0  0  0
  -29.5349  -22.5103   18.6882 O   0  0  0  0  0  0  0  0  0  0  0  0
  -25.2152  -10.3858   20.1578 O   0  0  0  0  0  0  0  0  0  0  0  0
  -27.8405  -28.8216   24.7349 O   0  0  0  0  0  0  0  0  0  1  0  0
  -20.8607   -7.8462   22.3922 F   0  0  0  0  0  0  0  0  0  0  0  0
  -24.8370  -10.3641   22.8962 F   0  0  0  0  0  0  0  0  0  0  0  0
  1  2  1  0  0  0  0
  1  5  2  0  0  0  0
  2  6  2  0  0  0  0
  3  8  2  0  0  0  0
  3 17  1  0  0  0  0
  4  9  1  0  0  0  0
  4 17  2  0  0  0  0
  5 19  1  0  0  0  0
  6 21  1  0  0  0  0
  7 10  2  0  0  0  0
  7 20  1  0  0  0  0
  8 23  1  0  0  0  0
  9 23  2  0  0  0  0
 10 24  1  0  0  0  0
 11 12  2  0  0  0  0
 11 25  1  0  0  0  0
 12 26  1  0  0  0  0
 13 22  1  0  0  0  0
 13 24  2  0  0  0  0
 14 26  2  0  0  0  0
 14 27  1  0  0  0  0
 15 29  2  0  0  0  0
 15 63  1  0  0  0  0
 16 30  1  0  0  0  0
 16 62  2  0  0  0  0
 17 28  1  0  0  0  0
 18 28  1  0  0  0  0
 18 31  2  0  0  0  0
 18 32  1  0  0  0  0
 19 21  2  0  0  0  0
 19 37  1  0  0  0  0
 20 22  2  0  0  0  0
 20 38  1  0  0  0  0
 21 46  1  0  0  0  0
 22 39  1  0  0  0  0
 23 80  1  0  0  0  0
 24 81  1  0  0  0  0
 25 27  2  0  0  0  0
 25 80  1  0  0  0  0
 26 82  1  0  0  0  0
 27 83  1  0  0  0  0
 28 64  2  0  0  0  0
 29 62  1  0  0  0  0
 29 70  1  0  0  0  0
 30 63  2  0  0  0  0
 30 71  1  0  0  0  0
 31 65  1  0  0  0  0
 31 68  1  0  0  0  0
 32 69  1  0  0  0  0
 32 75  2  0  0  0  0
 33 47  1  0  0  0  0
 33 72  1  0  0  0  0
 33 76  2  0  0  0  0
 34 57  1  0  0  0  0
 34 66  1  0  0  0  0
 34 77  2  0  0  0  0
 35 58  1  0  0  0  0
 35 73  1  0  0  0  0
 35 78  2  0  0  0  0
 36 67  1  0  0  0  0
 36 70  1  0  0  0  0
 36 79  2  0  0  0  0
 37 40  1  0  0  0  0
 38 47  1  0  0  0  0
 39 66  1  0  0  0  0
 40 42  1  0  0  0  0
 41 43  1  0  0  0  0
 41 44  1  0  0  0  0
 42 46  1  0  0  0  0
 43 48  1  0  0  0  0
 44 67  1  0  0  0  0
 45 48  1  0  0  0  0
 45 67  1  0  0  0  0
 46 72  1  0  0  0  0
 47 66  1  0  0  0  0
 48 65  1  0  0  0  0
 49 58  1  0  0  0  0
 50 59  1  0  0  0  0
 51 60  1  0  0  0  0
 52 61  1  0  0  0  0
 53 61  1  0  0  0  0
 54 61  1  0  0  0  0
 55 74  1  0  0  0  0
 56 59  1  0  0  0  0
 56 60  1  0  0  0  0
 57 61  1  0  0  0  0
 57 73  1  0  0  0  0
 58 74  1  0  0  0  0
 59 71  1  0  0  0  0
 60 81  1  0  0  0  0
 64 65  1  0  0  0  0
M  CHG  1  74   1
M  ISO  4  36 100  60 101  70 100  81 101
M  END
> <Batch ID>
0197

> <Smiles>
CNC(C)C(=O)NC(C(=O)N1Cc2cc([101O:1][101CH:1](C)CC(C)Nc3cnc([100NH:0][100C:0](=O)N4CCCC(n5nc(-c6ccc(Oc7ccc(F)cc7F)cc6)c(C(N)=O)c5N)C4)cn3)ccc2CC1C(=O)NC1CCCc2ccccc21)C(C)(C)C

> <Shape>
0.226

> <Color>
0.074

> <Negative vol penalty>
0.000

$$$$

  -OEChem-04052305413D

 81 89  0     1  0  0  0  0  0999 V2000
  -16.5582  -30.2983   22.5819 C   0  0  0  0  0  0  0  0  0  0  0  0
  -17.2891  -29.8856   21.4724 C   0  0  0  0  0  0  0  0  0  0  0  0
  -26.3623  -12.6448   21.6386 C   0  0  0  0  0  0  0  0  0  0  0  0
  -25.9238  -13.5561   19.4445 C   0  0  0  0  0  0  0  0  0  0  0  0
  -17.2177  -30.8094   23.6989 C   0  0  0  0  0  0  0  0  0  0  0  0
  -18.6799  -29.9848   21.4790 C   0  0  0  0  0  0  0  0  0  0  0  0
  -22.6567  -26.1475   18.8395 C   0  0  0  0  0  0  0  0  0  0  0  0
  -25.1449  -11.9652   21.5997 C   0  0  0  0  0  0  0  0  0  0  0  0
  -24.7064  -12.8764   19.4055 C   0  0  0  0  0  0  0  0  0  0  0  0
  -23.3475  -26.1986   17.6296 C   0  0  0  0  0  0  0  0  0  0  0  0
  -23.9053   -9.1545   20.1868 C   0  0  0  0  0  0  0  0  0  0  0  0
  -23.8941   -7.8208   20.5951 C   0  0  0  0  0  0  0  0  0  0  0  0
  -25.2661  -27.1132   18.7705 C   0  0  0  0  0  0  0  0  0  0  0  0
  -22.3070   -8.3662   22.3332 C   0  0  0  0  0  0  0  0  0  0  0  0
  -26.7518  -13.4404   20.5610 C   0  0  0  0  0  0  0  0  0  0  0  0
  -29.2595  -13.6741   20.1560 C   0  0  0  0  0  0  0  0  0  0  0  0
  -18.6180  -30.9059   23.7229 C   0  0  0  0  0  0  0  0  0  0  0  0
  -23.2627  -26.5898   20.0243 C   0  0  0  0  0  0  0  0  0  0  0  0
  -19.3587  -30.4989   22.5968 C   0  0  0  0  0  0  0  0  0  0  0  0
  -24.5818  -27.0642   19.9946 C   0  0  0  0  0  0  0  0  0  0  0  0
  -24.3169  -12.0809   20.4832 C   0  0  0  0  0  0  0  0  0  0  0  0
  -24.6513  -26.6842   17.5944 C   0  0  0  0  0  0  0  0  0  0  0  0
  -23.1174  -10.0941   20.8518 C   0  0  0  0  0  0  0  0  0  0  0  0
  -23.0950   -7.4266   21.6683 C   0  0  0  0  0  0  0  0  0  0  0  0
  -22.3183   -9.6999   21.9249 C   0  0  0  0  0  0  0  0  0  0  0  0
  -28.0090  -14.1431   20.6009 C   0  0  0  0  0  0  0  0  0  0  0  0
  -30.1253  -14.7092   20.4119 C   0  0  0  0  0  0  0  0  0  0  0  0
  -28.3405  -21.7508   18.9663 C   0  0  0  0  0  0  0  0  0  0  0  0
  -27.6340  -23.0846   17.1528 C   0  0  0  0  0  0  0  0  0  0  0  0
  -29.6074  -12.4154   19.5641 C   0  0  0  0  0  0  0  0  0  0  0  0
  -22.6513  -28.8870   22.1344 C   0  0  0  0  0  0  0  0  0  0  0  0
  -25.0988  -27.5098   23.7579 C   0  0  0  0  0  0  0  0  0  0  0  0
  -27.9261  -25.6008   23.6650 C   0  0  0  0  0  0  0  0  0  0  0  0
  -29.3815  -20.6129   20.9583 C   0  0  0  0  0  0  0  0  0  0  0  0
  -19.2835  -31.5090   24.9345 C   0  0  0  0  0  0  0  0  0  0  0  0
  -22.5135  -26.5031   21.3257 C   0  0  0  0  0  0  0  0  0  0  0  0
  -25.2845  -27.5321   21.2419 C   0  0  0  0  0  0  0  0  0  0  0  0
  -20.7829  -31.2321   25.0070 C   0  0  0  0  0  0  0  0  0  0  0  0
  -30.7656  -18.4073   23.3866 C   0  0  0  0  0  0  0  0  0  0  0  0
  -21.4402  -31.4948   23.6558 C   0  0  0  0  0  0  0  0  0  0  0  0
  -30.3347  -17.0203   22.9040 C   0  0  0  0  0  0  0  0  0  0  0  0
  -29.6834  -19.4562   23.1368 C   0  0  0  0  0  0  0  0  0  0  0  0
  -28.7605  -18.1368   21.2722 C   0  0  0  0  0  0  0  0  0  0  0  0
  -20.8703  -30.5676   22.5755 C   0  0  1  0  0  0  0  0  0  0  0  0
  -23.0473  -27.4598   22.3873 C   0  0  1  0  0  0  0  0  0  0  0  0
  -29.8437  -17.0592   21.4435 C   0  0  2  0  0  0  0  0  0  0  0  0
  -29.7303  -24.6793   25.1458 C   0  0  0  0  0  0  0  0  0  0  0  0
  -28.6340  -24.6595   14.5899 C   0  0  0  0  0  0  0  0  0  0  0  0
  -26.4044  -30.2650   23.8777 C   0  0  0  0  0  0  0  0  0  0  0  0
  -28.5568  -29.1416   24.4887 C   0  0  0  0  0  0  0  0  0  0  0  0
  -26.5751  -28.9370   25.9899 C   0  0  0  0  0  0  0  0  0  0  0  0
  -27.2028  -22.8081   23.0043 C   0  0  0  0  0  0  0  0  0  0  0  0
  -26.2420  -25.4488   14.6062 C   0  0  0  0  0  0  0  0  0  0  0  0
  -24.9971  -25.7542   15.4331 C   0  0  0  0  0  0  0  0  0  1  0  0
  -26.5971  -27.6919   23.7896 C   0  0  1  0  0  0  0  0  0  0  0  0
  -28.3734  -24.4214   24.5096 C   0  0  2  0  0  0  0  0  0  0  0  0
  -27.3938  -24.8902   15.4476 C   0  0  1  0  0  0  0  0  0  0  0  0
  -27.0197  -29.0020   24.5125 C   0  0  0  0  0  0  0  0  0  0  0  0
  -28.0705  -15.3798   21.1017 N   0  0  0  0  0  0  0  0  0  0  0  0
  -29.0713  -22.8387   18.8472 N   0  0  0  0  0  0  0  0  0  0  0  0
  -28.6562  -23.6216   17.7840 N   0  0  0  0  0  0  0  0  0  0  0  0
  -29.3702  -15.6967   20.9730 N   0  0  0  0  0  0  0  0  0  0  0  0
  -24.5079  -27.4335   22.4887 N   0  0  0  0  0  0  0  0  0  0  0  0
  -29.2707  -19.4381   21.7317 N   0  0  0  0  0  0  0  0  0  0  0  0
  -31.4513  -14.8619   20.2095 N   0  0  0  0  0  0  0  0  0  0  0  0
  -28.5955  -11.4648   19.3724 N   0  0  0  0  0  0  0  0  0  0  0  0
  -28.4544  -20.7101   19.9212 N   0  0  0  0  0  0  0  0  0  0  0  0
  -27.0022  -23.6336   16.0514 N   0  0  0  0  0  0  0  0  0  0  0  0
  -21.4394  -29.2424   22.6953 N   0  0  0  0  0  0  0  0  0  0  0  0
  -27.1433  -26.4775   24.3859 N   0  0  0  0  0  0  0  0  0  0  0  0
  -28.4729  -23.1927   23.6721 N   0  3  0  0  0  0  0  0  0  0  0  0
  -30.7839  -12.1355   19.2307 O   0  0  0  0  0  0  0  0  0  0  0  0
  -23.3912  -29.6124   21.4802 O   0  0  0  0  0  0  0  0  0  0  0  0
  -24.4766  -27.4309   24.8201 O   0  0  0  0  0  0  0  0  0  0  0  0
  -28.2429  -25.7332   22.4849 O   0  0  0  0  0  0  0  0  0  0  0  0
  -30.2534  -21.4568   21.1812 O   0  0  0  0  0  0  0  0  0  0  0  0
  -23.1290  -11.4177   20.4447 O   0  0  0  0  0  0  0  0  0  0  0  0
  -25.3276  -26.7358   16.4147 O   0  0  0  0  0  0  0  0  0  1  0  0
  -23.0831   -6.1456   22.0592 F   0  0  0  0  0  0  0  0  0  0  0  0
  -21.5583  -10.5978   22.5669 F   0  0  0  0  0  0  0  0  0  0  0  0
  -27.0949  -21.5898   17.7982 S   0  0  0  0  0  0  0  0  0  0  0  0
  1  2  1  0  0  0  0
  1  5  2  0  0  0  0
  2  6  2  0  0  0  0
  3  8  2  0  0  0  0
  3 15  1  0  0  0  0
  4  9  1  0  0  0  0
  4 15  2  0  0  0  0
  5 17  1  0  0  0  0
  6 19  1  0  0  0  0
  7 10  2  0  0  0  0
  7 18  1  0  0  0  0
  8 21  1  0  0  0  0
  9 21  2  0  0  0  0
 10 22  1  0  0  0  0
 11 12  2  0  0  0  0
 11 23  1  0  0  0  0
 12 24  1  0  0  0  0
 13 20  1  0  0  0  0
 13 22  2  0  0  0  0
 14 24  2  0  0  0  0
 14 25  1  0  0  0  0
 15 26  1  0  0  0  0
 16 26  1  0  0  0  0
 16 27  2  0  0  0  0
 16 30  1  0  0  0  0
 17 19  2  0  0  0  0
 17 35  1  0  0  0  0
 18 20  2  0  0  0  0
 18 36  1  0  0  0  0
 19 44  1  0  0  0  0
 20 37  1  0  0  0  0
 21 77  1  0  0  0  0
 22 78  1  0  0  0  0
 23 25  2  0  0  0  0
 23 77  1  0  0  0  0
 24 79  1  0  0  0  0
 25 80  1  0  0  0  0
 26 59  2  0  0  0  0
 27 62  1  0  0  0  0
 27 65  1  0  0  0  0
 28 60  2  0  0  0  0
 28 67  1  0  0  0  0
 28 81  1  0  0  0  0
 29 61  2  0  0  0  0
 29 68  1  0  0  0  0
 29 81  1  0  0  0  0
 30 66  1  0  0  0  0
 30 72  2  0  0  0  0
 31 45  1  0  0  0  0
 31 69  1  0  0  0  0
 31 73  2  0  0  0  0
 32 55  1  0  0  0  0
 32 63  1  0  0  0  0
 32 74  2  0  0  0  0
 33 56  1  0  0  0  0
 33 70  1  0  0  0  0
 33 75  2  0  0  0  0
 34 64  1  0  0  0  0
 34 67  1  0  0  0  0
 34 76  2  0  0  0  0
 35 38  1  0  0  0  0
 36 45  1  0  0  0  0
 37 63  1  0  0  0  0
 38 40  1  0  0  0  0
 39 41  1  0  0  0  0
 39 42  1  0  0  0  0
 40 44  1  0  0  0  0
 41 46  1  0  0  0  0
 42 64  1  0  0  0  0
 43 46  1  0  0  0  0
 43 64  1  0  0  0  0
 44 69  1  0  0  0  0
 45 63  1  0  0  0  0
 46 62  1  0  0  0  0
 47 56  1  0  0  0  0
 48 57  1  0  0  0  0
 49 58  1  0  0  0  0
 50 58  1  0  0  0  0
 51 58  1  0  0  0  0
 52 71  1  0  0  0  0
 53 54  1  0  0  0  0
 53 57  1  0  0  0  0
 54 78  1  0  0  0  0
 55 58  1  0  0  0  0
 55 70  1  0  0  0  0
 56 71  1  0  0  0  0
 57 68  1  0  0  0  0
 59 62  1  0  0  0  0
 60 61  1  0  0  0  0
M  CHG  1  71   1
M  ISO  4  34 100  54 101  67 100  78 101
M  END
> <Batch ID>
0197

> <Smiles>
CNC(C)C(=O)NC(C(=O)N1Cc2cc([101O:1][101CH2:1]CC(C)Nc3nnc([100NH:0][100C:0](=O)N4CCCC(n5nc(-c6ccc(Oc7ccc(F)cc7F)cc6)c(C(N)=O)c5N)C4)s3)ccc2CC1C(=O)NC1CCCc2ccccc21)C(C)(C)C

> <Shape>
0.249

> <Color>
0.092

> <Negative vol penalty>
0.000

$$$$

  -OEChem-04052305413D

 81 89  0     1  0  0  0  0  0999 V2000
  -38.8388  -30.0503   28.3825 C   0  0  0  0  0  0  0  0  0  0  0  0
  -37.8013  -29.1296   28.2760 C   0  0  0  0  0  0  0  0  0  0  0  0
  -23.0845   -9.8548   19.9415 C   0  0  0  0  0  0  0  0  0  0  0  0
  -23.8340   -9.8759   22.2382 C   0  0  0  0  0  0  0  0  0  0  0  0
  -38.5528  -31.4061   28.5374 C   0  0  0  0  0  0  0  0  0  0  0  0
  -36.4772  -29.5640   28.3255 C   0  0  0  0  0  0  0  0  0  0  0  0
  -33.5916  -27.4104   24.7646 C   0  0  0  0  0  0  0  0  0  0  0  0
  -22.3432   -8.7006   20.1940 C   0  0  0  0  0  0  0  0  0  0  0  0
  -23.0926   -8.7217   22.4907 C   0  0  0  0  0  0  0  0  0  0  0  0
  -33.1640  -26.1038   24.9959 C   0  0  0  0  0  0  0  0  0  0  0  0
  -19.8643   -7.9167   23.0828 C   0  0  0  0  0  0  0  0  0  0  0  0
  -19.1022   -7.8803   24.2504 C   0  0  0  0  0  0  0  0  0  0  0  0
  -31.0158  -26.9391   25.7075 C   0  0  0  0  0  0  0  0  0  0  0  0
  -20.3464   -5.9506   25.0023 C   0  0  0  0  0  0  0  0  0  0  0  0
  -31.7643  -17.6025   21.7268 C   0  0  0  0  0  0  0  0  0  0  0  0
  -23.8300  -10.4424   20.9636 C   0  0  0  0  0  0  0  0  0  0  0  0
  -24.1644  -12.9680   20.8322 C   0  0  0  0  0  0  0  0  0  0  0  0
  -37.2245  -31.8585   28.5791 C   0  0  0  0  0  0  0  0  0  0  0  0
  -32.7368  -28.4937   25.0138 C   0  0  0  0  0  0  0  0  0  0  0  0
  -36.1732  -30.9269   28.4825 C   0  0  0  0  0  0  0  0  0  0  0  0
  -31.4341  -28.2585   25.4761 C   0  0  0  0  0  0  0  0  0  0  0  0
  -22.3472   -8.1340   21.4686 C   0  0  0  0  0  0  0  0  0  0  0  0
  -31.8769  -25.8681   25.4701 C   0  0  0  0  0  0  0  0  0  0  0  0
  -20.8674   -6.9700   22.8748 C   0  0  0  0  0  0  0  0  0  0  0  0
  -19.3432   -6.8973   25.2102 C   0  0  0  0  0  0  0  0  0  0  0  0
  -21.1085   -5.9870   23.8346 C   0  0  0  0  0  0  0  0  0  0  0  0
  -24.5965  -11.6344   20.7033 C   0  0  0  0  0  0  0  0  0  0  0  0
  -25.2559  -13.7191   20.4701 C   0  0  0  0  0  0  0  0  0  0  0  0
  -30.5626  -16.9564   21.9280 C   0  0  0  0  0  0  0  0  0  0  0  0
  -30.7902  -19.1050   22.9932 C   0  0  0  0  0  0  0  0  0  0  0  0
  -22.8905  -13.4819   21.2428 C   0  0  0  0  0  0  0  0  0  0  0  0
  -32.8059  -31.0034   26.9633 C   0  0  0  0  0  0  0  0  0  0  0  0
  -30.1338  -31.8525   25.3319 C   0  0  0  0  0  0  0  0  0  0  0  0
  -27.4662  -30.8840   23.4365 C   0  0  0  0  0  0  0  0  0  0  0  0
  -30.7179  -14.7828   20.6641 C   0  0  0  0  0  0  0  0  0  0  0  0
  -36.9647  -33.3283   28.7954 C   0  0  0  0  0  0  0  0  0  0  0  0
  -33.2041  -29.8957   24.7338 C   0  0  0  0  0  0  0  0  0  0  0  0
  -30.4706  -29.3856   25.7402 C   0  0  0  0  0  0  0  0  0  0  0  0
  -35.5358  -33.7497   28.4623 C   0  0  0  0  0  0  0  0  0  0  0  0
  -29.6218  -12.3536   18.3031 C   0  0  0  0  0  0  0  0  0  0  0  0
  -34.5352  -32.7743   29.0741 C   0  0  0  0  0  0  0  0  0  0  0  0
  -28.1811  -12.0596   18.7276 C   0  0  0  0  0  0  0  0  0  0  0  0
  -30.5307  -12.5913   19.5076 C   0  0  0  0  0  0  0  0  0  0  0  0
  -28.6153  -13.3167   20.8766 C   0  0  0  0  0  0  0  0  0  0  0  0
  -34.7241  -31.3621   28.5069 C   0  0  1  0  0  0  0  0  0  0  0  0
  -32.4243  -30.9519   25.5109 C   0  0  1  0  0  0  0  0  0  0  0  0
  -27.6484  -13.1345   19.6954 C   0  0  2  0  0  0  0  0  0  0  0  0
  -25.4340  -31.7984   22.2826 C   0  0  0  0  0  0  0  0  0  0  0  0
  -28.7211  -32.1043   28.0247 C   0  0  0  0  0  0  0  0  0  0  0  0
  -26.5362  -32.0749   26.8026 C   0  0  0  0  0  0  0  0  0  0  0  0
  -28.1720  -33.9115   26.3855 C   0  0  0  0  0  0  0  0  0  0  0  0
  -28.4228  -29.9815   20.7852 C   0  0  0  0  0  0  0  0  0  0  0  0
  -31.5550  -21.3223   23.8440 C   0  0  0  0  0  0  0  0  0  0  0  0
  -32.0227  -23.5685   24.8816 C   0  0  0  0  0  0  0  0  0  1  0  0
  -28.6551  -31.5953   25.4944 C   0  0  1  0  0  0  0  0  0  0  0  0
  -26.9024  -31.4303   22.1372 C   0  0  2  0  0  0  0  0  0  0  0  0
  -31.0109  -22.4371   24.7352 C   0  0  1  0  0  0  0  0  0  0  0  0
  -28.0397  -32.4001   26.6738 C   0  0  0  0  0  0  0  0  0  0  0  0
  -31.8965  -18.8348   22.3364 N   0  0  0  0  0  0  0  0  0  0  0  0
  -25.8635  -11.5405   20.2912 N   0  0  0  0  0  0  0  0  0  0  0  0
  -26.2370  -12.8246   20.1580 N   0  0  0  0  0  0  0  0  0  0  0  0
  -30.9765  -30.7389   25.4571 N   0  0  0  0  0  0  0  0  0  0  0  0
  -29.9646  -13.6248   20.3773 N   0  0  0  0  0  0  0  0  0  0  0  0
  -25.4624  -15.0508   20.3912 N   0  0  0  0  0  0  0  0  0  0  0  0
  -21.8799  -12.5713   21.5801 N   0  0  0  0  0  0  0  0  0  0  0  0
  -30.0640  -15.7099   21.4749 N   0  0  0  0  0  0  0  0  0  0  0  0
  -30.5778  -20.2640   23.7202 N   0  0  0  0  0  0  0  0  0  0  0  0
  -34.1442  -31.2670   27.1843 N   0  0  0  0  0  0  0  0  0  0  0  0
  -28.0472  -31.8757   24.1981 N   0  0  0  0  0  0  0  0  0  0  0  0
  -27.0277  -30.4171   21.0516 N   0  3  0  0  0  0  0  0  0  0  0  0
  -22.6501  -14.7121   21.2928 O   0  0  0  0  0  0  0  0  0  0  0  0
  -31.9492  -30.8192   27.8200 O   0  0  0  0  0  0  0  0  0  0  0  0
  -30.5260  -32.9978   25.0954 O   0  0  0  0  0  0  0  0  0  0  0  0
  -27.3947  -29.6969   23.7466 O   0  0  0  0  0  0  0  0  0  0  0  0
  -31.8486  -14.9527   20.2007 O   0  0  0  0  0  0  0  0  0  0  0  0
  -29.8334  -22.9817   24.1358 O   0  0  0  0  0  0  0  0  0  0  0  0
  -21.6237   -7.0079   21.7154 O   0  0  0  0  0  0  0  0  0  0  0  0
  -31.4572  -24.5937   25.6973 O   0  0  0  0  0  0  0  0  0  1  0  0
  -18.6124   -6.8634   26.3322 F   0  0  0  0  0  0  0  0  0  0  0  0
  -22.0716   -5.0755   23.6410 F   0  0  0  0  0  0  0  0  0  0  0  0
  -29.5501  -17.9210   22.9210 S   0  0  0  0  0  0  0  0  0  0  0  0
  1  2  1  0  0  0  0
  1  5  2  0  0  0  0
  2  6  2  0  0  0  0
  3  8  2  0  0  0  0
  3 16  1  0  0  0  0
  4  9  1  0  0  0  0
  4 16  2  0  0  0  0
  5 18  1  0  0  0  0
  6 20  1  0  0  0  0
  7 10  2  0  0  0  0
  7 19  1  0  0  0  0
  8 22  1  0  0  0  0
  9 22  2  0  0  0  0
 10 23  1  0  0  0  0
 11 12  2  0  0  0  0
 11 24  1  0  0  0  0
 12 25  1  0  0  0  0
 13 21  1  0  0  0  0
 13 23  2  0  0  0  0
 14 25  2  0  0  0  0
 14 26  1  0  0  0  0
 15 29  2  0  0  0  0
 15 59  1  0  0  0  0
 16 27  1  0  0  0  0
 17 27  1  0  0  0  0
 17 28  2  0  0  0  0
 17 31  1  0  0  0  0
 18 20  2  0  0  0  0
 18 36  1  0  0  0  0
 19 21  2  0  0  0  0
 19 37  1  0  0  0  0
 20 45  1  0  0  0  0
 21 38  1  0  0  0  0
 22 77  1  0  0  0  0
 23 78  1  0  0  0  0
 24 26  2  0  0  0  0
 24 77  1  0  0  0  0
 25 79  1  0  0  0  0
 26 80  1  0  0  0  0
 27 60  2  0  0  0  0
 28 61  1  0  0  0  0
 28 64  1  0  0  0  0
 29 66  1  0  0  0  0
 29 81  1  0  0  0  0
 30 59  2  0  0  0  0
 30 67  1  0  0  0  0
 30 81  1  0  0  0  0
 31 65  1  0  0  0  0
 31 71  2  0  0  0  0
 32 46  1  0  0  0  0
 32 68  1  0  0  0  0
 32 72  2  0  0  0  0
 33 55  1  0  0  0  0
 33 62  1  0  0  0  0
 33 73  2  0  0  0  0
 34 56  1  0  0  0  0
 34 69  1  0  0  0  0
 34 74  2  0  0  0  0
 35 63  1  0  0  0  0
 35 66  1  0  0  0  0
 35 75  2  0  0  0  0
 36 39  1  0  0  0  0
 37 46  1  0  0  0  0
 38 62  1  0  0  0  0
 39 41  1  0  0  0  0
 40 42  1  0  0  0  0
 40 43  1  0  0  0  0
 41 45  1  0  0  0  0
 42 47  1  0  0  0  0
 43 63  1  0  0  0  0
 44 47  1  0  0  0  0
 44 63  1  0  0  0  0
 45 68  1  0  0  0  0
 46 62  1  0  0  0  0
 47 61  1  0  0  0  0
 48 56  1  0  0  0  0
 49 58  1  0  0  0  0
 50 58  1  0  0  0  0
 51 58  1  0  0  0  0
 52 70  1  0  0  0  0
 53 57  1  0  0  0  0
 53 67  1  0  0  0  0
 54 57  1  0  0  0  0
 54 78  1  0  0  0  0
 55 58  1  0  0  0  0
 55 69  1  0  0  0  0
 56 70  1  0  0  0  0
 57 76  1  0  0  0  0
 60 61  1  0  0  0  0
M  CHG  1  70   1
M  ISO  4  35 100  54 101  66 100  78 101
M  END
> <Batch ID>
0197

> <Smiles>
CNC(C)C(=O)NC(C(=O)N1Cc2cc([101O:1][101CH2:1]C(O)CNc3ncc([100NH:0][100C:0](=O)N4CCCC(n5nc(-c6ccc(Oc7ccc(F)cc7F)cc6)c(C(N)=O)c5N)C4)s3)ccc2CC1C(=O)NC1CCCc2ccccc21)C(C)(C)C

> <Shape>
0.231

> <Color>
0.184

> <Negative vol penalty>
0.000

$$$$

  -OEChem-04052305413D

 84 92  0     1  0  0  0  0  0999 V2000
  -44.0106  -22.5121   29.7146 C   0  0  0  0  0  0  0  0  0  0  0  0
  -42.6768  -22.7169   29.3762 C   0  0  0  0  0  0  0  0  0  0  0  0
  -23.0753   -9.8658   19.9418 C   0  0  0  0  0  0  0  0  0  0  0  0
  -23.8349   -9.8755   22.2353 C   0  0  0  0  0  0  0  0  0  0  0  0
  -44.9644  -22.3403   28.7123 C   0  0  0  0  0  0  0  0  0  0  0  0
  -42.2962  -22.7511   28.0352 C   0  0  0  0  0  0  0  0  0  0  0  0
  -38.0964  -20.0673   27.1386 C   0  0  0  0  0  0  0  0  0  0  0  0
  -22.3318   -8.7127   20.1929 C   0  0  0  0  0  0  0  0  0  0  0  0
  -23.0913   -8.7223   22.4864 C   0  0  0  0  0  0  0  0  0  0  0  0
  -36.8804  -20.6511   27.4911 C   0  0  0  0  0  0  0  0  0  0  0  0
  -19.8634   -7.9240   23.0893 C   0  0  0  0  0  0  0  0  0  0  0  0
  -19.1063   -7.8850   24.2601 C   0  0  0  0  0  0  0  0  0  0  0  0
  -36.5236  -21.2828   25.1905 C   0  0  0  0  0  0  0  0  0  0  0  0
  -20.3482   -5.9488   24.9988 C   0  0  0  0  0  0  0  0  0  0  0  0
  -23.8269  -10.4472   20.9630 C   0  0  0  0  0  0  0  0  0  0  0  0
  -24.1679  -12.9723   20.8404 C   0  0  0  0  0  0  0  0  0  0  0  0
  -44.5938  -22.3628   27.3585 C   0  0  0  0  0  0  0  0  0  0  0  0
  -38.5410  -20.0965   25.8090 C   0  0  0  0  0  0  0  0  0  0  0  0
  -43.2462  -22.5808   27.0138 C   0  0  0  0  0  0  0  0  0  0  0  0
  -37.7444  -20.6964   24.8232 C   0  0  0  0  0  0  0  0  0  0  0  0
  -22.3398   -8.1409   21.4651 C   0  0  0  0  0  0  0  0  0  0  0  0
  -36.0951  -21.2615   26.5175 C   0  0  0  0  0  0  0  0  0  0  0  0
  -20.8629   -6.9753   22.8731 C   0  0  0  0  0  0  0  0  0  0  0  0
  -19.3487   -6.8975   25.2149 C   0  0  0  0  0  0  0  0  0  0  0  0
  -21.1053   -5.9878   23.8279 C   0  0  0  0  0  0  0  0  0  0  0  0
  -24.5956  -11.6381   20.7041 C   0  0  0  0  0  0  0  0  0  0  0  0
  -30.7069  -19.0967   22.9873 C   0  0  0  0  0  0  0  0  0  0  0  0
  -31.8084  -18.7289   22.2434 C   0  0  0  0  0  0  0  0  0  0  0  0
  -25.2598  -13.7218   20.4765 C   0  0  0  0  0  0  0  0  0  0  0  0
  -30.5703  -16.9516   21.8998 C   0  0  0  0  0  0  0  0  0  0  0  0
  -22.8972  -13.4881   21.2586 C   0  0  0  0  0  0  0  0  0  0  0  0
  -30.5454  -20.3536   23.7454 C   0  0  0  0  0  0  0  0  0  0  0  0
  -41.0538  -21.3396   24.3109 C   0  0  0  0  0  0  0  0  0  0  0  0
  -39.8329  -19.7449   21.7636 C   0  0  0  0  0  0  0  0  0  0  0  0
  -37.1082  -18.3536   20.2511 C   0  0  0  0  0  0  0  0  0  0  0  0
  -30.7257  -14.7693   20.6509 C   0  0  0  0  0  0  0  0  0  0  0  0
  -45.6678  -22.2196   26.3094 C   0  0  0  0  0  0  0  0  0  0  0  0
  -39.8426  -19.4388   25.4405 C   0  0  0  0  0  0  0  0  0  0  0  0
  -38.1671  -20.7368   23.3782 C   0  0  0  0  0  0  0  0  0  0  0  0
  -45.1234  -21.8954   24.9206 C   0  0  0  0  0  0  0  0  0  0  0  0
  -29.6124  -12.3528   18.2849 C   0  0  0  0  0  0  0  0  0  0  0  0
  -43.9456  -22.8043   24.5834 C   0  0  0  0  0  0  0  0  0  0  0  0
  -28.1728  -12.0612   18.7146 C   0  0  0  0  0  0  0  0  0  0  0  0
  -30.5272  -12.5831   19.4864 C   0  0  0  0  0  0  0  0  0  0  0  0
  -28.6199  -13.3083   20.8667 C   0  0  0  0  0  0  0  0  0  0  0  0
  -42.7904  -22.5996   25.5709 C   0  0  1  0  0  0  0  0  0  0  0  0
  -40.4389  -19.9788   24.1442 C   0  0  1  0  0  0  0  0  0  0  0  0
  -27.6473  -13.1336   19.6889 C   0  0  2  0  0  0  0  0  0  0  0  0
  -36.4142  -17.1568   18.1575 C   0  0  0  0  0  0  0  0  0  0  0  0
  -39.9164  -22.3822   20.2313 C   0  0  0  0  0  0  0  0  0  0  0  0
  -38.3724  -21.3687   18.5410 C   0  0  0  0  0  0  0  0  0  0  0  0
  -40.6347  -20.3844   18.9094 C   0  0  0  0  0  0  0  0  0  0  0  0
  -36.2654  -15.9535   21.7639 C   0  0  0  0  0  0  0  0  0  0  0  0
  -31.3622  -21.8352   25.5438 C   0  0  0  0  0  0  0  0  0  0  0  0
  -33.8833  -21.8438   25.8660 C   0  0  0  0  0  0  0  0  0  1  0  0
  -38.8463  -20.0737   20.6692 C   0  0  1  0  0  0  0  0  0  0  0  0
  -36.9038  -17.0029   19.5890 C   0  0  2  0  0  0  0  0  0  0  0  0
  -32.5152  -21.8422   26.5403 C   0  0  2  0  0  0  0  0  0  0  0  0
  -39.4351  -21.0534   19.6152 C   0  0  0  0  0  0  0  0  0  0  0  0
  -25.8606  -11.5422   20.2861 N   0  0  0  0  0  0  0  0  0  0  0  0
  -31.7321  -17.4990   21.6195 N   0  0  0  0  0  0  0  0  0  0  0  0
  -26.2370  -12.8258   20.1565 N   0  0  0  0  0  0  0  0  0  0  0  0
  -39.4508  -20.0855   23.0689 N   0  0  0  0  0  0  0  0  0  0  0  0
  -29.9678  -13.6146   20.3627 N   0  0  0  0  0  0  0  0  0  0  0  0
  -32.9190  -19.4928   22.1044 N   0  0  0  0  0  0  0  0  0  0  0  0
  -25.4698  -15.0533   20.4021 N   0  0  0  0  0  0  0  0  0  0  0  0
  -21.8855  -12.5790   21.5967 N   0  0  0  0  0  0  0  0  0  0  0  0
  -29.5349  -21.1591   23.4182 N   0  0  0  0  0  0  0  0  0  0  0  0
  -30.0779  -15.6950   21.4683 N   0  0  0  0  0  0  0  0  0  0  0  0
  -42.0628  -21.3894   25.2537 N   0  0  0  0  0  0  0  0  0  0  0  0
  -38.4073  -18.7962   20.1181 N   0  0  0  0  0  0  0  0  0  0  0  0
  -31.4207  -20.6242   24.7207 N   0  3  0  0  0  0  0  0  0  0  0  0
  -35.9003  -16.2018   20.3454 N   0  3  0  0  0  0  0  0  0  0  0  0
  -22.6605  -14.7187   21.3146 O   0  0  0  0  0  0  0  0  0  0  0  0
  -40.6442  -22.2748   23.6331 O   0  0  0  0  0  0  0  0  0  0  0  0
  -40.9000  -19.1993   21.4718 O   0  0  0  0  0  0  0  0  0  0  0  0
  -36.2049  -18.9574   20.8255 O   0  0  0  0  0  0  0  0  0  0  0  0
  -31.8548  -14.9380   20.1833 O   0  0  0  0  0  0  0  0  0  0  0  0
  -32.4260  -20.6899   27.3783 O   0  0  0  0  0  0  0  0  0  0  0  0
  -21.6142   -7.0158   21.7106 O   0  0  0  0  0  0  0  0  0  0  0  0
  -34.9081  -21.8326   26.8590 O   0  0  0  0  0  0  0  0  0  1  0  0
  -18.6226   -6.8611   26.3399 F   0  0  0  0  0  0  0  0  0  0  0  0
  -22.0650   -5.0744   23.6264 F   0  0  0  0  0  0  0  0  0  0  0  0
  -29.5204  -17.8608   22.9079 S   0  0  0  0  0  0  0  0  0  0  0  0
  1  2  1  0  0  0  0
  1  5  2  0  0  0  0
  2  6  2  0  0  0  0
  3  8  2  0  0  0  0
  3 15  1  0  0  0  0
  4  9  1  0  0  0  0
  4 15  2  0  0  0  0
  5 17  1  0  0  0  0
  6 19  1  0  0  0  0
  7 10  2  0  0  0  0
  7 18  1  0  0  0  0
  8 21  1  0  0  0  0
  9 21  2  0  0  0  0
 10 22  1  0  0  0  0
 11 12  2  0  0  0  0
 11 23  1  0  0  0  0
 12 24  1  0  0  0  0
 13 20  1  0  0  0  0
 13 22  2  0  0  0  0
 14 24  2  0  0  0  0
 14 25  1  0  0  0  0
 15 26  1  0  0  0  0
 16 26  1  0  0  0  0
 16 29  2  0  0  0  0
 16 31  1  0  0  0  0
 17 19  2  0  0  0  0
 17 37  1  0  0  0  0
 18 20  2  0  0  0  0
 18 38  1  0  0  0  0
 19 46  1  0  0  0  0
 20 39  1  0  0  0  0
 21 80  1  0  0  0  0
 22 81  1  0  0  0  0
 23 25  2  0  0  0  0
 23 80  1  0  0  0  0
 24 82  1  0  0  0  0
 25 83  1  0  0  0  0
 26 60  2  0  0  0  0
 27 28  2  0  0  0  0
 27 32  1  0  0  0  0
 27 84  1  0  0  0  0
 28 61  1  0  0  0  0
 28 65  1  0  0  0  0
 29 62  1  0  0  0  0
 29 66  1  0  0  0  0
 30 61  2  0  0  0  0
 30 69  1  0  0  0  0
 30 84  1  0  0  0  0
 31 67  1  0  0  0  0
 31 74  2  0  0  0  0
 32 68  1  0  0  0  0
 32 72  2  0  0  0  0
 33 47  1  0  0  0  0
 33 70  1  0  0  0  0
 33 75  2  0  0  0  0
 34 56  1  0  0  0  0
 34 63  1  0  0  0  0
 34 76  2  0  0  0  0
 35 57  1  0  0  0  0
 35 71  1  0  0  0  0
 35 77  2  0  0  0  0
 36 64  1  0  0  0  0
 36 69  1  0  0  0  0
 36 78  2  0  0  0  0
 37 40  1  0  0  0  0
 38 47  1  0  0  0  0
 39 63  1  0  0  0  0
 40 42  1  0  0  0  0
 41 43  1  0  0  0  0
 41 44  1  0  0  0  0
 42 46  1  0  0  0  0
 43 48  1  0  0  0  0
 44 64  1  0  0  0  0
 45 48  1  0  0  0  0
 45 64  1  0  0  0  0
 46 70  1  0  0  0  0
 47 63  1  0  0  0  0
 48 62  1  0  0  0  0
 49 57  1  0  0  0  0
 50 59  1  0  0  0  0
 51 59  1  0  0  0  0
 52 59  1  0  0  0  0
 53 73  1  0  0  0  0
 54 58  1  0  0  0  0
 54 72  1  0  0  0  0
 55 58  1  0  0  0  0
 55 81  1  0  0  0  0
 56 59  1  0  0  0  0
 56 71  1  0  0  0  0
 57 73  1  0  0  0  0
 58 79  1  0  0  0  0
 60 62  1  0  0  0  0
M  CHG  2  72   1  73   1
M  ISO  4  36 100  55 101  69 100  81 101
M  END
> <Batch ID>
0197

> <Smiles>
CNC(C)C(=O)NC(C(=O)N1Cc2cc([101O:1][101CH2:1]C(O)CNC(=N)c3sc([100NH:0][100C:0](=O)N4CCCC(n5nc(-c6ccc(Oc7ccc(F)cc7F)cc6)c(C(N)=O)c5N)C4)nc3N)ccc2CC1C(=O)NC1CCCc2ccccc21)C(C)(C)C

> <Shape>
0.168

> <Color>
0.170

> <Negative vol penalty>
0.000

$$$$

  -OEChem-04052305413D

 80 88  0     1  0  0  0  0  0999 V2000
  -23.2497  -26.3658   27.4822 C   0  0  0  0  0  0  0  0  0  0  0  0
  -24.1931  -25.7295   26.6818 C   0  0  0  0  0  0  0  0  0  0  0  0
  -23.0009   -9.8738   19.9927 C   0  0  0  0  0  0  0  0  0  0  0  0
  -23.7160   -9.9571   22.2989 C   0  0  0  0  0  0  0  0  0  0  0  0
  -22.5234  -27.4440   26.9785 C   0  0  0  0  0  0  0  0  0  0  0  0
  -24.4099  -26.1704   25.3768 C   0  0  0  0  0  0  0  0  0  0  0  0
  -29.3313  -26.4951   24.2281 C   0  0  0  0  0  0  0  0  0  0  0  0
  -22.2358   -8.7412   20.2708 C   0  0  0  0  0  0  0  0  0  0  0  0
  -22.9508   -8.8245   22.5771 C   0  0  0  0  0  0  0  0  0  0  0  0
  -29.9951  -25.3061   23.9290 C   0  0  0  0  0  0  0  0  0  0  0  0
  -23.2047   -5.4802   22.1508 C   0  0  0  0  0  0  0  0  0  0  0  0
  -23.7912   -4.4744   22.9189 C   0  0  0  0  0  0  0  0  0  0  0  0
  -29.7927  -25.7925   21.5749 C   0  0  0  0  0  0  0  0  0  0  0  0
  -22.0596   -4.7357   24.5833 C   0  0  0  0  0  0  0  0  0  0  0  0
  -29.9113  -17.8638   22.5975 C   0  0  0  0  0  0  0  0  0  0  0  0
  -23.7410  -10.4818   21.0067 C   0  0  0  0  0  0  0  0  0  0  0  0
  -24.1214  -12.9957   20.7989 C   0  0  0  0  0  0  0  0  0  0  0  0
  -22.7382  -27.9045   25.6699 C   0  0  0  0  0  0  0  0  0  0  0  0
  -28.8828  -27.3378   23.2009 C   0  0  0  0  0  0  0  0  0  0  0  0
  -23.6848  -27.2550   24.8547 C   0  0  0  0  0  0  0  0  0  0  0  0
  -29.1257  -26.9928   21.8637 C   0  0  0  0  0  0  0  0  0  0  0  0
  -22.2107   -8.2166   21.5630 C   0  0  0  0  0  0  0  0  0  0  0  0
  -30.2233  -24.9532   22.6021 C   0  0  0  0  0  0  0  0  0  0  0  0
  -22.0456   -6.1137   22.5989 C   0  0  0  0  0  0  0  0  0  0  0  0
  -23.2187   -4.1021   24.1351 C   0  0  0  0  0  0  0  0  0  0  0  0
  -21.4730   -5.7414   23.8151 C   0  0  0  0  0  0  0  0  0  0  0  0
  -24.5321  -11.6514   20.7199 C   0  0  0  0  0  0  0  0  0  0  0  0
  -30.5597  -16.9217   21.8391 C   0  0  0  0  0  0  0  0  0  0  0  0
  -25.2311  -13.7159   20.4297 C   0  0  0  0  0  0  0  0  0  0  0  0
  -22.8506  -13.5442   21.1726 C   0  0  0  0  0  0  0  0  0  0  0  0
  -26.0411  -28.3952   22.2469 C   0  0  0  0  0  0  0  0  0  0  0  0
  -27.8247  -30.1908   20.2180 C   0  0  0  0  0  0  0  0  0  0  0  0
  -30.7636  -30.6007   18.5323 C   0  0  0  0  0  0  0  0  0  0  0  0
  -30.7073  -14.6929   20.6743 C   0  0  0  0  0  0  0  0  0  0  0  0
  -21.8953  -29.0436   25.1536 C   0  0  0  0  0  0  0  0  0  0  0  0
  -28.1920  -28.6299   23.5409 C   0  0  0  0  0  0  0  0  0  0  0  0
  -28.6824  -27.8729   20.7247 C   0  0  0  0  0  0  0  0  0  0  0  0
  -22.4514  -29.6871   23.8860 C   0  0  0  0  0  0  0  0  0  0  0  0
  -29.6048  -12.2064   18.3767 C   0  0  0  0  0  0  0  0  0  0  0  0
  -22.8576  -28.6167   22.8780 C   0  0  0  0  0  0  0  0  0  0  0  0
  -28.1530  -11.9510   18.7880 C   0  0  0  0  0  0  0  0  0  0  0  0
  -30.4994  -12.4681   19.5870 C   0  0  0  0  0  0  0  0  0  0  0  0
  -28.5765  -13.2703   20.9015 C   0  0  0  0  0  0  0  0  0  0  0  0
  -23.9660  -27.7198   23.4423 C   0  0  1  0  0  0  0  0  0  0  0  0
  -27.3244  -29.1607   22.4038 C   0  0  1  0  0  0  0  0  0  0  0  0
  -27.6245  -13.0658   19.7118 C   0  0  2  0  0  0  0  0  0  0  0  0
  -31.9123  -32.1455   16.9225 C   0  0  0  0  0  0  0  0  0  0  0  0
  -26.1365  -29.0668   17.9384 C   0  0  0  0  0  0  0  0  0  0  0  0
  -27.8886  -29.8670   16.3391 C   0  0  0  0  0  0  0  0  0  0  0  0
  -26.6491  -31.5075   17.7516 C   0  0  0  0  0  0  0  0  0  0  0  0
  -32.9277  -31.1910   20.4628 C   0  0  0  0  0  0  0  0  0  0  0  0
  -30.6526  -20.1983   23.4030 C   0  0  0  0  0  0  0  0  0  0  0  0
  -30.7171  -22.7122   23.2265 C   0  0  0  0  0  0  0  0  0  1  0  0
  -28.3739  -30.0021   18.8245 C   0  0  1  0  0  0  0  0  0  0  0  0
  -31.6818  -31.8006   18.3856 C   0  0  2  0  0  0  0  0  0  0  0  0
  -30.8412  -21.3952   22.4650 C   0  0  2  0  0  0  0  0  0  0  0  0
  -27.2688  -30.0931   17.7346 C   0  0  0  0  0  0  0  0  0  0  0  0
  -25.8033  -11.5226   20.3310 N   0  0  0  0  0  0  0  0  0  0  0  0
  -31.8014  -17.3815   21.4981 N   0  0  0  0  0  0  0  0  0  0  0  0
  -31.9478  -18.5917   22.0264 N   0  0  0  0  0  0  0  0  0  0  0  0
  -30.8135  -18.8789   22.6854 N   0  0  0  0  0  0  0  0  0  0  0  0
  -26.2011  -12.7951   20.1621 N   0  0  0  0  0  0  0  0  0  0  0  0
  -28.0055  -29.1228   21.1081 N   0  0  0  0  0  0  0  0  0  0  0  0
  -29.9383  -13.5390   20.4136 N   0  0  0  0  0  0  0  0  0  0  0  0
  -25.4621  -15.0407   20.3109 N   0  0  0  0  0  0  0  0  0  0  0  0
  -21.8193  -12.6623   21.5234 N   0  0  0  0  0  0  0  0  0  0  0  0
  -30.0574  -15.6570   21.4442 N   0  0  0  0  0  0  0  0  0  0  0  0
  -25.2447  -28.3944   23.3762 N   0  0  0  0  0  0  0  0  0  0  0  0
  -29.4455  -30.9803   18.6721 N   0  0  0  0  0  0  0  0  0  0  0  0
  -33.0029  -31.5221   19.0166 N   0  3  0  0  0  0  0  0  0  0  0  0
  -22.6310  -14.7792   21.1790 O   0  0  0  0  0  0  0  0  0  0  0  0
  -25.7912  -27.8470   21.1798 O   0  0  0  0  0  0  0  0  0  0  0  0
  -27.2625  -31.2498   20.5081 O   0  0  0  0  0  0  0  0  0  0  0  0
  -31.1742  -29.4423   18.5200 O   0  0  0  0  0  0  0  0  0  0  0  0
  -31.8476  -14.8284   20.2234 O   0  0  0  0  0  0  0  0  0  0  0  0
  -29.8201  -21.3545   21.4657 O   0  0  0  0  0  0  0  0  0  0  0  0
  -21.4640   -7.1115   21.8348 O   0  0  0  0  0  0  0  0  0  0  0  0
  -30.8704  -23.7929   22.3073 O   0  0  0  0  0  0  0  0  0  1  0  0
  -23.7812   -3.1352   24.8719 F   0  0  0  0  0  0  0  0  0  0  0  0
  -20.3588   -6.3456   24.2503 F   0  0  0  0  0  0  0  0  0  0  0  0
  1  2  1  0  0  0  0
  1  5  2  0  0  0  0
  2  6  2  0  0  0  0
  3  8  2  0  0  0  0
  3 16  1  0  0  0  0
  4  9  1  0  0  0  0
  4 16  2  0  0  0  0
  5 18  1  0  0  0  0
  6 20  1  0  0  0  0
  7 10  2  0  0  0  0
  7 19  1  0  0  0  0
  8 22  1  0  0  0  0
  9 22  2  0  0  0  0
 10 23  1  0  0  0  0
 11 12  2  0  0  0  0
 11 24  1  0  0  0  0
 12 25  1  0  0  0  0
 13 21  1  0  0  0  0
 13 23  2  0  0  0  0
 14 25  2  0  0  0  0
 14 26  1  0  0  0  0
 15 28  2  0  0  0  0
 15 61  1  0  0  0  0
 16 27  1  0  0  0  0
 17 27  1  0  0  0  0
 17 29  2  0  0  0  0
 17 30  1  0  0  0  0
 18 20  2  0  0  0  0
 18 35  1  0  0  0  0
 19 21  2  0  0  0  0
 19 36  1  0  0  0  0
 20 44  1  0  0  0  0
 21 37  1  0  0  0  0
 22 77  1  0  0  0  0
 23 78  1  0  0  0  0
 24 26  2  0  0  0  0
 24 77  1  0  0  0  0
 25 79  1  0  0  0  0
 26 80  1  0  0  0  0
 27 58  2  0  0  0  0
 28 59  1  0  0  0  0
 28 67  1  0  0  0  0
 29 62  1  0  0  0  0
 29 65  1  0  0  0  0
 30 66  1  0  0  0  0
 30 71  2  0  0  0  0
 31 45  1  0  0  0  0
 31 68  1  0  0  0  0
 31 72  2  0  0  0  0
 32 54  1  0  0  0  0
 32 63  1  0  0  0  0
 32 73  2  0  0  0  0
 33 55  1  0  0  0  0
 33 69  1  0  0  0  0
 33 74  2  0  0  0  0
 34 64  1  0  0  0  0
 34 67  1  0  0  0  0
 34 75  2  0  0  0  0
 35 38  1  0  0  0  0
 36 45  1  0  0  0  0
 37 63  1  0  0  0  0
 38 40  1  0  0  0  0
 39 41  1  0  0  0  0
 39 42  1  0  0  0  0
 40 44  1  0  0  0  0
 41 46  1  0  0  0  0
 42 64  1  0  0  0  0
 43 46  1  0  0  0  0
 43 64  1  0  0  0  0
 44 68  1  0  0  0  0
 45 63  1  0  0  0  0
 46 62  1  0  0  0  0
 47 55  1  0  0  0  0
 48 57  1  0  0  0  0
 49 57  1  0  0  0  0
 50 57  1  0  0  0  0
 51 70  1  0  0  0  0
 52 56  1  0  0  0  0
 52 61  1  0  0  0  0
 53 56  1  0  0  0  0
 53 78  1  0  0  0  0
 54 57  1  0  0  0  0
 54 69  1  0  0  0  0
 55 70  1  0  0  0  0
 56 76  1  0  0  0  0
 58 62  1  0  0  0  0
 59 60  2  0  0  0  0
 60 61  1  0  0  0  0
M  CHG  1  70   1
M  ISO  4  34 100  53 101  67 100  78 101
M  END
> <Batch ID>
0197

> <Smiles>
CNC(C)C(=O)NC(C(=O)N1Cc2cc([101O:1][101CH2:1]C(O)Cn3cc([100NH:0][100C:0](=O)N4CCCC(n5nc(-c6ccc(Oc7ccc(F)cc7F)cc6)c(C(N)=O)c5N)C4)nn3)ccc2CC1C(=O)NC1CCCc2ccccc21)C(C)(C)C

> <Shape>
0.244

> <Color>
0.189

> <Negative vol penalty>
0.000

$$$$

  -OEChem-04052305413D

 85 93  0     1  0  0  0  0  0999 V2000
  -26.2224  -20.7268   15.3267 C   0  0  0  0  0  0  0  0  0  0  0  0
  -26.6502  -19.4117   15.4695 C   0  0  0  0  0  0  0  0  0  0  0  0
  -27.2885  -28.5793   20.1479 C   0  0  0  0  0  0  0  0  0  0  0  0
  -25.4562  -27.0343   20.4522 C   0  0  0  0  0  0  0  0  0  0  0  0
  -25.5874  -21.3683   16.3881 C   0  0  0  0  0  0  0  0  0  0  0  0
  -26.4326  -18.7338   16.6695 C   0  0  0  0  0  0  0  0  0  0  0  0
  -28.1642  -13.1682   18.4453 C   0  0  0  0  0  0  0  0  0  0  0  0
  -26.3794  -29.6197   19.9563 C   0  0  0  0  0  0  0  0  0  0  0  0
  -24.5471  -28.0747   20.2607 C   0  0  0  0  0  0  0  0  0  0  0  0
  -29.2418  -12.5907   19.1154 C   0  0  0  0  0  0  0  0  0  0  0  0
  -21.7457  -30.3916   20.2098 C   0  0  0  0  0  0  0  0  0  0  0  0
  -20.6652  -30.4795   21.0875 C   0  0  0  0  0  0  0  0  0  0  0  0
  -27.9904  -12.6620   21.1765 C   0  0  0  0  0  0  0  0  0  0  0  0
  -22.1927  -30.7228   22.9435 C   0  0  0  0  0  0  0  0  0  0  0  0
  -29.9110  -18.3709   21.9414 C   0  0  0  0  0  0  0  0  0  0  0  0
  -31.2418  -16.4570   20.6403 C   0  0  0  0  0  0  0  0  0  0  0  0
  -26.8269  -27.2866   20.3958 C   0  0  0  0  0  0  0  0  0  0  0  0
  -28.3265  -25.7857   21.8121 C   0  0  0  0  0  0  0  0  0  0  0  0
  -25.3735  -20.7013   17.6055 C   0  0  0  0  0  0  0  0  0  0  0  0
  -26.9938  -13.5076   19.1390 C   0  0  0  0  0  0  0  0  0  0  0  0
  -25.7722  -19.3562   17.7442 C   0  0  0  0  0  0  0  0  0  0  0  0
  -26.8985  -13.2415   20.5124 C   0  0  0  0  0  0  0  0  0  0  0  0
  -25.0087  -29.3675   20.0127 C   0  0  0  0  0  0  0  0  0  0  0  0
  -29.1561  -12.3401   20.4817 C   0  0  0  0  0  0  0  0  0  0  0  0
  -23.0497  -30.4692   20.6989 C   0  0  0  0  0  0  0  0  0  0  0  0
  -20.8887  -30.6452   22.4543 C   0  0  0  0  0  0  0  0  0  0  0  0
  -23.2732  -30.6348   22.0657 C   0  0  0  0  0  0  0  0  0  0  0  0
  -27.7654  -26.2113   20.5932 C   0  0  0  0  0  0  0  0  0  0  0  0
  -30.2541  -18.5193   20.6156 C   0  0  0  0  0  0  0  0  0  0  0  0
  -30.8995  -16.3088   21.9663 C   0  0  0  0  0  0  0  0  0  0  0  0
  -29.1485  -24.7413   21.4657 C   0  0  0  0  0  0  0  0  0  0  0  0
  -28.1228  -26.2893   23.1390 C   0  0  0  0  0  0  0  0  0  0  0  0
  -25.4342  -16.2165   19.7166 C   0  0  0  0  0  0  0  0  0  0  0  0
  -23.2350  -14.2175   21.0166 C   0  0  0  0  0  0  0  0  0  0  0  0
  -22.5536  -11.1920   22.4411 C   0  0  0  0  0  0  0  0  0  0  0  0
  -30.1370  -20.0566   18.6233 C   0  0  0  0  0  0  0  0  0  0  0  0
  -24.6743  -21.4408   18.7189 C   0  0  0  0  0  0  0  0  0  0  0  0
  -25.8303  -14.1055   18.3965 C   0  0  0  0  0  0  0  0  0  0  0  0
  -25.6566  -13.5684   21.2993 C   0  0  0  0  0  0  0  0  0  0  0  0
  -24.8856  -20.7965   20.0850 C   0  0  0  0  0  0  0  0  0  0  0  0
  -30.6950  -23.1340   16.9218 C   0  0  0  0  0  0  0  0  0  0  0  0
  -24.5967  -19.3049   20.0066 C   0  0  0  0  0  0  0  0  0  0  0  0
  -30.0288  -24.1740   17.8255 C   0  0  0  0  0  0  0  0  0  0  0  0
  -29.9105  -21.8236   16.8908 C   0  0  0  0  0  0  0  0  0  0  0  0
  -28.9494  -22.2851   19.1118 C   0  0  0  0  0  0  0  0  0  0  0  0
  -25.5737  -18.6089   19.0505 C   0  0  1  0  0  0  0  0  0  0  0  0
  -24.8797  -14.8830   19.3016 C   0  0  1  0  0  0  0  0  0  0  0  0
  -29.7381  -23.5999   19.2261 C   0  0  2  0  0  0  0  0  0  0  0  0
  -20.6723   -9.8617   23.4353 C   0  0  0  0  0  0  0  0  0  0  0  0
  -34.1397  -14.6027   23.2080 C   0  0  0  0  0  0  0  0  0  0  0  0
  -34.2975  -13.4122   21.0078 C   0  0  0  0  0  0  0  0  0  0  0  0
  -30.2165  -10.8423   23.3264 C   0  0  0  0  0  0  0  0  0  0  0  0
  -23.3905  -15.9005   23.5568 C   0  0  0  0  0  0  0  0  0  0  0  0
  -22.2659  -14.0292   24.7822 C   0  0  0  0  0  0  0  0  0  0  0  0
  -21.0802  -15.1873   22.9179 C   0  0  0  0  0  0  0  0  0  0  0  0
  -22.8267   -9.0641   20.4023 C   0  0  0  0  0  0  0  0  0  0  0  0
  -31.7557  -12.7511   22.7450 C   0  0  0  0  0  0  0  0  0  0  0  0
  -23.0014  -13.6315   22.3881 C   0  0  1  0  0  0  0  0  0  0  0  0
  -21.4586  -10.1757   22.1720 C   0  0  2  0  0  0  0  0  0  0  0  0
  -33.4876  -14.4180   21.8323 C   0  0  0  0  0  0  0  0  0  0  0  0
  -31.9845  -14.0620   21.9660 C   0  0  2  0  0  0  0  0  0  0  0  0
  -30.3728  -12.1209   22.5134 C   0  0  1  0  0  0  0  0  0  1  0  0
  -22.4588  -14.6826   23.3971 C   0  0  0  0  0  0  0  0  0  0  0  0
  -30.9253  -17.5649   19.9411 N   0  0  0  0  0  0  0  0  0  0  0  0
  -30.2278  -17.2632   22.6407 N   0  0  0  0  0  0  0  0  0  0  0  0
  -28.1948  -25.4958   19.5502 N   0  0  0  0  0  0  0  0  0  0  0  0
  -29.0345  -24.6102   20.1129 N   0  0  0  0  0  0  0  0  0  0  0  0
  -24.5484  -14.1575   20.5296 N   0  0  0  0  0  0  0  0  0  0  0  0
  -29.6762  -21.3375   18.2523 N   0  0  0  0  0  0  0  0  0  0  0  0
  -29.9505  -23.9316   22.1892 N   0  0  0  0  0  0  0  0  0  0  0  0
  -27.2447  -27.3670   23.3171 N   0  0  0  0  0  0  0  0  0  0  0  0
  -29.8857  -19.7158   19.9519 N   0  0  0  0  0  0  0  0  0  0  0  0
  -31.2626  -15.1418   22.6115 N   0  0  0  0  0  0  0  0  0  0  0  0
  -25.1395  -17.2451   18.8422 N   0  0  0  0  0  0  0  0  0  0  0  0
  -22.1264  -12.4800   22.1964 N   0  0  0  0  0  0  0  0  0  0  0  0
  -22.0452   -8.9066   21.6559 N   0  3  0  0  0  0  0  0  0  0  0  0
  -28.7149  -25.8088   24.1350 O   0  0  0  0  0  0  0  0  0  0  0  0
  -26.0801  -16.3058   20.7541 O   0  0  0  0  0  0  0  0  0  0  0  0
  -22.2856  -14.7039   20.3971 O   0  0  0  0  0  0  0  0  0  0  0  0
  -23.6747  -10.8753   22.8329 O   0  0  0  0  0  0  0  0  0  0  0  0
  -30.7364  -19.3274   17.8289 O   0  0  0  0  0  0  0  0  0  0  0  0
  -24.1213  -30.3825   19.8261 O   0  0  0  0  0  0  0  0  0  0  0  0
  -30.2066  -11.7771   21.1384 O   0  0  0  0  0  0  0  0  0  1  0  0
  -19.8510  -30.7311   23.2969 F   0  0  0  0  0  0  0  0  0  0  0  0
  -24.5237  -30.7113   22.5414 F   0  0  0  0  0  0  0  0  0  0  0  0
  1  2  1  0  0  0  0
  1  5  2  0  0  0  0
  2  6  2  0  0  0  0
  3  8  2  0  0  0  0
  3 17  1  0  0  0  0
  4  9  1  0  0  0  0
  4 17  2  0  0  0  0
  5 19  1  0  0  0  0
  6 21  1  0  0  0  0
  7 10  2  0  0  0  0
  7 20  1  0  0  0  0
  8 23  1  0  0  0  0
  9 23  2  0  0  0  0
 10 24  1  0  0  0  0
 11 12  2  0  0  0  0
 11 25  1  0  0  0  0
 12 26  1  0  0  0  0
 13 22  1  0  0  0  0
 13 24  2  0  0  0  0
 14 26  2  0  0  0  0
 14 27  1  0  0  0  0
 15 29  2  0  0  0  0
 15 65  1  0  0  0  0
 16 30  1  0  0  0  0
 16 64  2  0  0  0  0
 17 28  1  0  0  0  0
 18 28  1  0  0  0  0
 18 31  2  0  0  0  0
 18 32  1  0  0  0  0
 19 21  2  0  0  0  0
 19 37  1  0  0  0  0
 20 22  2  0  0  0  0
 20 38  1  0  0  0  0
 21 46  1  0  0  0  0
 22 39  1  0  0  0  0
 23 82  1  0  0  0  0
 24 83  1  0  0  0  0
 25 27  2  0  0  0  0
 25 82  1  0  0  0  0
 26 84  1  0  0  0  0
 27 85  1  0  0  0  0
 28 66  2  0  0  0  0
 29 64  1  0  0  0  0
 29 72  1  0  0  0  0
 30 65  2  0  0  0  0
 30 73  1  0  0  0  0
 31 67  1  0  0  0  0
 31 70  1  0  0  0  0
 32 71  1  0  0  0  0
 32 77  2  0  0  0  0
 33 47  1  0  0  0  0
 33 74  1  0  0  0  0
 33 78  2  0  0  0  0
 34 58  1  0  0  0  0
 34 68  1  0  0  0  0
 34 79  2  0  0  0  0
 35 59  1  0  0  0  0
 35 75  1  0  0  0  0
 35 80  2  0  0  0  0
 36 69  1  0  0  0  0
 36 72  1  0  0  0  0
 36 81  2  0  0  0  0
 37 40  1  0  0  0  0
 38 47  1  0  0  0  0
 39 68  1  0  0  0  0
 40 42  1  0  0  0  0
 41 43  1  0  0  0  0
 41 44  1  0  0  0  0
 42 46  1  0  0  0  0
 43 48  1  0  0  0  0
 44 69  1  0  0  0  0
 45 48  1  0  0  0  0
 45 69  1  0  0  0  0
 46 74  1  0  0  0  0
 47 68  1  0  0  0  0
 48 67  1  0  0  0  0
 49 59  1  0  0  0  0
 50 60  1  0  0  0  0
 51 60  1  0  0  0  0
 52 62  1  0  0  0  0
 53 63  1  0  0  0  0
 54 63  1  0  0  0  0
 55 63  1  0  0  0  0
 56 76  1  0  0  0  0
 57 61  1  0  0  0  0
 57 62  1  0  0  0  0
 58 63  1  0  0  0  0
 58 75  1  0  0  0  0
 59 76  1  0  0  0  0
 60 61  1  0  0  0  0
 61 73  1  0  0  0  0
 62 83  1  0  0  0  0
 66 67  1  0  0  0  0
M  CHG  1  76   1
M  ISO  4  36 100  62 101  72 100  83 101
M  END
> <Batch ID>
0197

> <Smiles>
CNC(C)C(=O)NC(C(=O)N1Cc2cc([101O:1][101CH:1](C)CC(Nc3cnc([100NH:0][100C:0](=O)N4CCCC(n5nc(-c6ccc(Oc7ccc(F)cc7F)cc6)c(C(N)=O)c5N)C4)cn3)C(C)C)ccc2CC1C(=O)NC1CCCc2ccccc21)C(C)(C)C

> <Shape>
0.266

> <Color>
0.079

> <Negative vol penalty>
0.000

$$$$

  -OEChem-04052305413D

 83 91  0     1  0  0  0  0  0999 V2000
  -18.0744  -32.1507   20.0648 C   0  0  0  0  0  0  0  0  0  0  0  0
  -19.4350  -32.0830   19.7828 C   0  0  0  0  0  0  0  0  0  0  0  0
  -26.4484  -12.8787   21.5315 C   0  0  0  0  0  0  0  0  0  0  0  0
  -25.6813  -13.9896   19.5279 C   0  0  0  0  0  0  0  0  0  0  0  0
  -17.5783  -31.5869   21.2395 C   0  0  0  0  0  0  0  0  0  0  0  0
  -20.3005  -31.4525   20.6760 C   0  0  0  0  0  0  0  0  0  0  0  0
  -25.3029  -28.2053   19.2840 C   0  0  0  0  0  0  0  0  0  0  0  0
  -25.2078  -12.2545   21.6604 C   0  0  0  0  0  0  0  0  0  0  0  0
  -24.4406  -13.3653   19.6568 C   0  0  0  0  0  0  0  0  0  0  0  0
  -26.6587  -28.5300   19.2720 C   0  0  0  0  0  0  0  0  0  0  0  0
  -22.3626  -10.0889   22.3162 C   0  0  0  0  0  0  0  0  0  0  0  0
  -22.3500   -8.7277   22.6206 C   0  0  0  0  0  0  0  0  0  0  0  0
  -26.8943  -27.6022   21.4863 C   0  0  0  0  0  0  0  0  0  0  0  0
  -23.5742   -8.2624   20.5904 C   0  0  0  0  0  0  0  0  0  0  0  0
  -26.6852  -13.7464   20.4653 C   0  0  0  0  0  0  0  0  0  0  0  0
  -29.0916  -13.9123   19.6349 C   0  0  0  0  0  0  0  0  0  0  0  0
  -18.4367  -30.9408   22.1429 C   0  0  0  0  0  0  0  0  0  0  0  0
  -24.7294  -27.5854   20.4035 C   0  0  0  0  0  0  0  0  0  0  0  0
  -19.8156  -30.8808   21.8646 C   0  0  0  0  0  0  0  0  0  0  0  0
  -25.5316  -27.2684   21.5090 C   0  0  0  0  0  0  0  0  0  0  0  0
  -24.2039  -12.4977   20.7231 C   0  0  0  0  0  0  0  0  0  0  0  0
  -27.4540  -28.2311   20.3744 C   0  0  0  0  0  0  0  0  0  0  0  0
  -22.9809  -10.5368   21.1488 C   0  0  0  0  0  0  0  0  0  0  0  0
  -22.9558   -7.8145   21.7577 C   0  0  0  0  0  0  0  0  0  0  0  0
  -23.5867   -9.6236   20.2859 C   0  0  0  0  0  0  0  0  0  0  0  0
  -27.9664  -14.3920   20.3319 C   0  0  0  0  0  0  0  0  0  0  0  0
  -30.0443  -14.8863   19.8092 C   0  0  0  0  0  0  0  0  0  0  0  0
  -29.3836  -23.8404   18.1062 C   0  0  0  0  0  0  0  0  0  0  0  0
  -29.0091  -21.7976   18.7558 C   0  0  0  0  0  0  0  0  0  0  0  0
  -29.2605  -12.6953   18.8960 C   0  0  0  0  0  0  0  0  0  0  0  0
  -29.8480  -25.2530   18.0702 C   0  0  0  0  0  0  0  0  0  0  0  0
  -22.4526  -28.3666   22.4795 C   0  0  0  0  0  0  0  0  0  0  0  0
  -22.9326  -25.3423   23.5496 C   0  0  0  0  0  0  0  0  0  0  0  0
  -25.0284  -22.6621   23.8171 C   0  0  0  0  0  0  0  0  0  0  0  0
  -29.7330  -20.7476   20.9284 C   0  0  0  0  0  0  0  0  0  0  0  0
  -17.8609  -30.3878   23.4225 C   0  0  0  0  0  0  0  0  0  0  0  0
  -23.2710  -27.2174   20.3901 C   0  0  0  0  0  0  0  0  0  0  0  0
  -24.9686  -26.5849   22.7273 C   0  0  0  0  0  0  0  0  0  0  0  0
  -18.7905  -29.4093   24.1358 C   0  0  0  0  0  0  0  0  0  0  0  0
  -31.3993  -18.2901   22.8934 C   0  0  0  0  0  0  0  0  0  0  0  0
  -20.2072  -29.9707   24.2021 C   0  0  0  0  0  0  0  0  0  0  0  0
  -30.8149  -16.9676   22.3919 C   0  0  0  0  0  0  0  0  0  0  0  0
  -30.3492  -19.3993   22.9227 C   0  0  0  0  0  0  0  0  0  0  0  0
  -29.0420  -18.2808   21.1593 C   0  0  0  0  0  0  0  0  0  0  0  0
  -20.7826  -30.1836   22.7967 C   0  0  1  0  0  0  0  0  0  0  0  0
  -22.6835  -27.0526   21.7883 C   0  0  1  0  0  0  0  0  0  0  0  0
  -30.0777  -17.1498   21.0506 C   0  0  2  0  0  0  0  0  0  0  0  0
  -25.1540  -20.3481   24.7799 C   0  0  0  0  0  0  0  0  0  0  0  0
  -32.3171  -27.1585   18.3471 C   0  0  0  0  0  0  0  0  0  0  0  0
  -23.3362  -26.5250   26.3332 C   0  0  0  0  0  0  0  0  0  0  0  0
  -24.3713  -24.3542   27.0294 C   0  0  0  0  0  0  0  0  0  0  0  0
  -21.9927  -24.4163   26.2804 C   0  0  0  0  0  0  0  0  0  0  0  0
  -25.4118  -21.4463   21.1462 C   0  0  0  0  0  0  0  0  0  0  0  0
  -31.0144  -27.6801   20.4396 C   0  0  0  0  0  0  0  0  0  0  0  0
  -29.6508  -27.7095   21.1215 C   0  0  0  0  0  0  0  0  0  1  0  0
  -23.8370  -24.7019   24.5748 C   0  0  1  0  0  0  0  0  0  0  0  0
  -24.8100  -21.1827   23.5560 C   0  0  2  0  0  0  0  0  0  0  0  0
  -30.9498  -27.1207   19.0176 C   0  0  2  0  0  0  0  0  0  0  0  0
  -23.3948  -25.0140   26.0324 C   0  0  0  0  0  0  0  0  0  0  0  0
  -28.1828  -15.5783   20.9062 N   0  0  0  0  0  0  0  0  0  0  0  0
  -29.5937  -23.0047   19.0995 N   0  0  0  0  0  0  0  0  0  0  0  0
  -28.3792  -21.6516   17.5903 N   0  0  0  0  0  0  0  0  0  0  0  0
  -30.5063  -25.7229   19.0681 N   0  0  0  0  0  0  0  0  0  0  0  0
  -29.4549  -15.8523   20.5705 N   0  0  0  0  0  0  0  0  0  0  0  0
  -23.5359  -26.2511   22.6687 N   0  0  0  0  0  0  0  0  0  0  0  0
  -29.6955  -19.5169   21.6174 N   0  0  0  0  0  0  0  0  0  0  0  0
  -31.3203  -15.0020   19.3839 N   0  0  0  0  0  0  0  0  0  0  0  0
  -28.1801  -11.8060   18.8175 N   0  0  0  0  0  0  0  0  0  0  0  0
  -29.5126  -25.9689   16.9388 N   0  0  0  0  0  0  0  0  0  0  0  0
  -29.1061  -20.7303   19.6829 N   0  0  0  0  0  0  0  0  0  0  0  0
  -21.2125  -28.9231   22.2303 N   0  0  0  0  0  0  0  0  0  0  0  0
  -23.8752  -23.2794   24.2536 N   0  0  0  0  0  0  0  0  0  0  0  0
  -25.6612  -20.7259   22.4212 N   0  3  0  0  0  0  0  0  0  0  0  0
  -30.3428  -12.3974   18.3362 O   0  0  0  0  0  0  0  0  0  0  0  0
  -23.3337  -28.8398   23.1876 O   0  0  0  0  0  0  0  0  0  0  0  0
  -21.7365  -25.0417   23.5265 O   0  0  0  0  0  0  0  0  0  0  0  0
  -26.1143  -23.2142   23.6539 O   0  0  0  0  0  0  0  0  0  0  0  0
  -30.3044  -21.7360   21.3959 O   0  0  0  0  0  0  0  0  0  0  0  0
  -22.9932  -11.8886   20.8484 O   0  0  0  0  0  0  0  0  0  0  0  0
  -28.7775  -28.5476   20.3656 O   0  0  0  0  0  0  0  0  0  1  0  0
  -22.9450   -6.5075   22.0510 F   0  0  0  0  0  0  0  0  0  0  0  0
  -24.1833  -10.0480   19.1636 F   0  0  0  0  0  0  0  0  0  0  0  0
  -28.4991  -23.1314   16.8179 S   0  0  0  0  0  0  0  0  0  0  0  0
  1  2  1  0  0  0  0
  1  5  2  0  0  0  0
  2  6  2  0  0  0  0
  3  8  2  0  0  0  0
  3 15  1  0  0  0  0
  4  9  1  0  0  0  0
  4 15  2  0  0  0  0
  5 17  1  0  0  0  0
  6 19  1  0  0  0  0
  7 10  2  0  0  0  0
  7 18  1  0  0  0  0
  8 21  1  0  0  0  0
  9 21  2  0  0  0  0
 10 22  1  0  0  0  0
 11 12  2  0  0  0  0
 11 23  1  0  0  0  0
 12 24  1  0  0  0  0
 13 20  1  0  0  0  0
 13 22  2  0  0  0  0
 14 24  2  0  0  0  0
 14 25  1  0  0  0  0
 15 26  1  0  0  0  0
 16 26  1  0  0  0  0
 16 27  2  0  0  0  0
 16 30  1  0  0  0  0
 17 19  2  0  0  0  0
 17 36  1  0  0  0  0
 18 20  2  0  0  0  0
 18 37  1  0  0  0  0
 19 45  1  0  0  0  0
 20 38  1  0  0  0  0
 21 79  1  0  0  0  0
 22 80  1  0  0  0  0
 23 25  2  0  0  0  0
 23 79  1  0  0  0  0
 24 81  1  0  0  0  0
 25 82  1  0  0  0  0
 26 60  2  0  0  0  0
 27 64  1  0  0  0  0
 27 67  1  0  0  0  0
 28 31  1  0  0  0  0
 28 61  2  0  0  0  0
 28 83  1  0  0  0  0
 29 61  1  0  0  0  0
 29 62  2  0  0  0  0
 29 70  1  0  0  0  0
 30 68  1  0  0  0  0
 30 74  2  0  0  0  0
 31 63  2  0  0  0  0
 31 69  1  0  0  0  0
 32 46  1  0  0  0  0
 32 71  1  0  0  0  0
 32 75  2  0  0  0  0
 33 56  1  0  0  0  0
 33 65  1  0  0  0  0
 33 76  2  0  0  0  0
 34 57  1  0  0  0  0
 34 72  1  0  0  0  0
 34 77  2  0  0  0  0
 35 66  1  0  0  0  0
 35 70  1  0  0  0  0
 35 78  2  0  0  0  0
 36 39  1  0  0  0  0
 37 46  1  0  0  0  0
 38 65  1  0  0  0  0
 39 41  1  0  0  0  0
 40 42  1  0  0  0  0
 40 43  1  0  0  0  0
 41 45  1  0  0  0  0
 42 47  1  0  0  0  0
 43 66  1  0  0  0  0
 44 47  1  0  0  0  0
 44 66  1  0  0  0  0
 45 71  1  0  0  0  0
 46 65  1  0  0  0  0
 47 64  1  0  0  0  0
 48 57  1  0  0  0  0
 49 58  1  0  0  0  0
 50 59  1  0  0  0  0
 51 59  1  0  0  0  0
 52 59  1  0  0  0  0
 53 73  1  0  0  0  0
 54 55  1  0  0  0  0
 54 58  1  0  0  0  0
 55 80  1  0  0  0  0
 56 59  1  0  0  0  0
 56 72  1  0  0  0  0
 57 73  1  0  0  0  0
 58 63  1  0  0  0  0
 60 64  1  0  0  0  0
 62 83  1  0  0  0  0
M  CHG  1  73   1
M  ISO  4  35 100  55 101  70 100  80 101
M  END
> <Batch ID>
0197

> <Smiles>
CNC(C)C(=O)NC(C(=O)N1Cc2cc([101O:1][101CH2:1]CC(C)NC(=N)c3nc([100NH:0][100C:0](=O)N4CCCC(n5nc(-c6ccc(Oc7ccc(F)cc7F)cc6)c(C(N)=O)c5N)C4)ns3)ccc2CC1C(=O)NC1CCCc2ccccc21)C(C)(C)C

> <Shape>
0.284

> <Color>
0.104

> <Negative vol penalty>
0.000

$$$$

  -OEChem-04052305413D

 82 90  0     1  0  0  0  0  0999 V2000
  -21.1444  -26.6525   31.5415 C   0  0  0  0  0  0  0  0  0  0  0  0
  -22.3136  -26.3743   30.8408 C   0  0  0  0  0  0  0  0  0  0  0  0
  -23.0733   -9.8696   19.9409 C   0  0  0  0  0  0  0  0  0  0  0  0
  -23.8361   -9.8739   22.2333 C   0  0  0  0  0  0  0  0  0  0  0  0
  -19.9048  -26.4069   30.9524 C   0  0  0  0  0  0  0  0  0  0  0  0
  -22.2439  -25.8491   29.5509 C   0  0  0  0  0  0  0  0  0  0  0  0
  -26.0730  -26.9746   24.9058 C   0  0  0  0  0  0  0  0  0  0  0  0
  -22.3296   -8.7162   20.1905 C   0  0  0  0  0  0  0  0  0  0  0  0
  -23.0924   -8.7206   22.4829 C   0  0  0  0  0  0  0  0  0  0  0  0
  -27.1588  -26.2666   24.3927 C   0  0  0  0  0  0  0  0  0  0  0  0
  -19.8649   -7.9223   23.0886 C   0  0  0  0  0  0  0  0  0  0  0  0
  -19.1094   -7.8812   24.2604 C   0  0  0  0  0  0  0  0  0  0  0  0
  -25.7198  -25.2778   22.7281 C   0  0  0  0  0  0  0  0  0  0  0  0
  -20.3516   -5.9428   24.9932 C   0  0  0  0  0  0  0  0  0  0  0  0
  -31.8123  -18.7247   22.2497 C   0  0  0  0  0  0  0  0  0  0  0  0
  -23.8265  -10.4484   20.9623 C   0  0  0  0  0  0  0  0  0  0  0  0
  -24.1684  -12.9737   20.8446 C   0  0  0  0  0  0  0  0  0  0  0  0
  -19.8198  -25.8875   29.6510 C   0  0  0  0  0  0  0  0  0  0  0  0
  -24.7980  -26.8310   24.3398 C   0  0  0  0  0  0  0  0  0  0  0  0
  -21.0020  -25.5950   28.9444 C   0  0  0  0  0  0  0  0  0  0  0  0
  -24.6199  -25.9871   23.2342 C   0  0  0  0  0  0  0  0  0  0  0  0
  -22.3392   -8.1417   21.4615 C   0  0  0  0  0  0  0  0  0  0  0  0
  -26.9818  -25.4158   23.3055 C   0  0  0  0  0  0  0  0  0  0  0  0
  -20.8637   -6.9737   22.8690 C   0  0  0  0  0  0  0  0  0  0  0  0
  -19.3528   -6.8914   25.2127 C   0  0  0  0  0  0  0  0  0  0  0  0
  -21.1071   -5.9840   23.8213 C   0  0  0  0  0  0  0  0  0  0  0  0
  -24.5954  -11.6395   20.7049 C   0  0  0  0  0  0  0  0  0  0  0  0
  -25.2602  -13.7235   20.4808 C   0  0  0  0  0  0  0  0  0  0  0  0
  -30.7115  -19.0909   22.9954 C   0  0  0  0  0  0  0  0  0  0  0  0
  -30.5739  -16.9480   21.9037 C   0  0  0  0  0  0  0  0  0  0  0  0
  -22.8985  -13.4891   21.2657 C   0  0  0  0  0  0  0  0  0  0  0  0
  -21.9829  -25.7911   25.3874 C   0  0  0  0  0  0  0  0  0  0  0  0
  -20.9623  -26.8159   22.4838 C   0  0  0  0  0  0  0  0  0  0  0  0
  -21.7237  -27.5549   19.2403 C   0  0  0  0  0  0  0  0  0  0  0  0
  -30.7267  -14.7684   20.6499 C   0  0  0  0  0  0  0  0  0  0  0  0
  -18.4576  -25.5943   29.0740 C   0  0  0  0  0  0  0  0  0  0  0  0
  -23.6423  -27.6223   24.8881 C   0  0  0  0  0  0  0  0  0  0  0  0
  -23.2756  -25.8134   22.5776 C   0  0  0  0  0  0  0  0  0  0  0  0
  -18.4683  -25.3878   27.5615 C   0  0  0  0  0  0  0  0  0  0  0  0
  -29.6091  -12.3574   18.2802 C   0  0  0  0  0  0  0  0  0  0  0  0
  -19.6047  -24.4534   27.1584 C   0  0  0  0  0  0  0  0  0  0  0  0
  -28.1699  -12.0655   18.7112 C   0  0  0  0  0  0  0  0  0  0  0  0
  -30.5257  -12.5847   19.4809 C   0  0  0  0  0  0  0  0  0  0  0  0
  -28.6206  -13.3078   20.8655 C   0  0  0  0  0  0  0  0  0  0  0  0
  -20.9674  -25.0480   27.5338 C   0  0  1  0  0  0  0  0  0  0  0  0
  -22.2862  -27.0064   24.5576 C   0  0  1  0  0  0  0  0  0  0  0  0
  -27.6462  -13.1360   19.6887 C   0  0  2  0  0  0  0  0  0  0  0  0
  -20.6731  -28.3328   17.0982 C   0  0  0  0  0  0  0  0  0  0  0  0
  -32.5945  -20.8922   24.7923 C   0  0  0  0  0  0  0  0  0  0  0  0
  -19.7763  -24.0368   22.0592 C   0  0  0  0  0  0  0  0  0  0  0  0
  -19.6001  -24.5614   19.6174 C   0  0  0  0  0  0  0  0  0  0  0  0
  -18.3275  -25.9198   21.2782 C   0  0  0  0  0  0  0  0  0  0  0  0
  -23.4131  -29.9835   19.1581 C   0  0  0  0  0  0  0  0  0  0  0  0
  -29.7431  -23.0703   23.2687 C   0  0  0  0  0  0  0  0  0  0  0  0
  -30.8540  -22.6279   24.2313 C   0  0  0  0  0  0  0  0  0  0  0  0
  -29.0752  -24.3651   23.7177 C   0  0  0  0  0  0  0  0  0  1  0  0
  -20.8356  -26.1935   21.1143 C   0  0  1  0  0  0  0  0  0  0  0  0
  -21.3848  -28.7547   18.3742 C   0  0  2  0  0  0  0  0  0  0  0  0
  -31.5157  -21.3120   23.7989 C   0  0  2  0  0  0  0  0  0  0  0  0
  -19.6599  -25.1794   21.0306 C   0  0  0  0  0  0  0  0  0  0  0  0
  -31.7354  -17.4961   21.6233 N   0  0  0  0  0  0  0  0  0  0  0  0
  -25.8597  -11.5441   20.2849 N   0  0  0  0  0  0  0  0  0  0  0  0
  -26.2366  -12.8278   20.1575 N   0  0  0  0  0  0  0  0  0  0  0  0
  -22.1754  -26.6037   23.1541 N   0  0  0  0  0  0  0  0  0  0  0  0
  -29.9679  -13.6146   20.3602 N   0  0  0  0  0  0  0  0  0  0  0  0
  -25.4706  -15.0550   20.4090 N   0  0  0  0  0  0  0  0  0  0  0  0
  -21.8869  -12.5796   21.6032 N   0  0  0  0  0  0  0  0  0  0  0  0
  -30.5276  -20.2565   23.7174 N   0  0  0  0  0  0  0  0  0  0  0  0
  -30.0804  -15.6925   21.4702 N   0  0  0  0  0  0  0  0  0  0  0  0
  -21.3516  -26.0704   26.5844 N   0  0  0  0  0  0  0  0  0  0  0  0
  -20.7376  -27.3012   20.1700 N   0  0  0  0  0  0  0  0  0  0  0  0
  -22.6256  -29.4899   17.9992 N   0  3  0  0  0  0  0  0  0  0  0  0
  -22.6624  -14.7197   21.3247 O   0  0  0  0  0  0  0  0  0  0  0  0
  -22.2970  -24.6819   24.9717 O   0  0  0  0  0  0  0  0  0  0  0  0
  -20.0223  -27.4722   22.9391 O   0  0  0  0  0  0  0  0  0  0  0  0
  -22.7580  -26.9053   19.1031 O   0  0  0  0  0  0  0  0  0  0  0  0
  -31.8552  -14.9375   20.1810 O   0  0  0  0  0  0  0  0  0  0  0  0
  -21.6134   -7.0164   21.7055 O   0  0  0  0  0  0  0  0  0  0  0  0
  -28.0399  -24.7230   22.8031 O   0  0  0  0  0  0  0  0  0  1  0  0
  -18.6283   -6.8529   26.3386 F   0  0  0  0  0  0  0  0  0  0  0  0
  -22.0661   -5.0706   23.6165 F   0  0  0  0  0  0  0  0  0  0  0  0
  -29.5250  -17.8551   22.9147 S   0  0  0  0  0  0  0  0  0  0  0  0
  1  2  1  0  0  0  0
  1  5  2  0  0  0  0
  2  6  2  0  0  0  0
  3  8  2  0  0  0  0
  3 16  1  0  0  0  0
  4  9  1  0  0  0  0
  4 16  2  0  0  0  0
  5 18  1  0  0  0  0
  6 20  1  0  0  0  0
  7 10  2  0  0  0  0
  7 19  1  0  0  0  0
  8 22  1  0  0  0  0
  9 22  2  0  0  0  0
 10 23  1  0  0  0  0
 11 12  2  0  0  0  0
 11 24  1  0  0  0  0
 12 25  1  0  0  0  0
 13 21  1  0  0  0  0
 13 23  2  0  0  0  0
 14 25  2  0  0  0  0
 14 26  1  0  0  0  0
 15 29  2  0  0  0  0
 15 61  1  0  0  0  0
 16 27  1  0  0  0  0
 17 27  1  0  0  0  0
 17 28  2  0  0  0  0
 17 31  1  0  0  0  0
 18 20  2  0  0  0  0
 18 36  1  0  0  0  0
 19 21  2  0  0  0  0
 19 37  1  0  0  0  0
 20 45  1  0  0  0  0
 21 38  1  0  0  0  0
 22 78  1  0  0  0  0
 23 79  1  0  0  0  0
 24 26  2  0  0  0  0
 24 78  1  0  0  0  0
 25 80  1  0  0  0  0
 26 81  1  0  0  0  0
 27 62  2  0  0  0  0
 28 63  1  0  0  0  0
 28 66  1  0  0  0  0
 29 68  1  0  0  0  0
 29 82  1  0  0  0  0
 30 61  2  0  0  0  0
 30 69  1  0  0  0  0
 30 82  1  0  0  0  0
 31 67  1  0  0  0  0
 31 73  2  0  0  0  0
 32 46  1  0  0  0  0
 32 70  1  0  0  0  0
 32 74  2  0  0  0  0
 33 57  1  0  0  0  0
 33 64  1  0  0  0  0
 33 75  2  0  0  0  0
 34 58  1  0  0  0  0
 34 71  1  0  0  0  0
 34 76  2  0  0  0  0
 35 65  1  0  0  0  0
 35 69  1  0  0  0  0
 35 77  2  0  0  0  0
 36 39  1  0  0  0  0
 37 46  1  0  0  0  0
 38 64  1  0  0  0  0
 39 41  1  0  0  0  0
 40 42  1  0  0  0  0
 40 43  1  0  0  0  0
 41 45  1  0  0  0  0
 42 47  1  0  0  0  0
 43 65  1  0  0  0  0
 44 47  1  0  0  0  0
 44 65  1  0  0  0  0
 45 70  1  0  0  0  0
 46 64  1  0  0  0  0
 47 63  1  0  0  0  0
 48 58  1  0  0  0  0
 49 59  1  0  0  0  0
 50 60  1  0  0  0  0
 51 60  1  0  0  0  0
 52 60  1  0  0  0  0
 53 72  1  0  0  0  0
 54 55  1  0  0  0  0
 54 56  1  0  0  0  0
 55 59  1  0  0  0  0
 56 79  1  0  0  0  0
 57 60  1  0  0  0  0
 57 71  1  0  0  0  0
 58 72  1  0  0  0  0
 59 68  1  0  0  0  0
 62 63  1  0  0  0  0
M  CHG  1  72   1
M  ISO  4  35 100  56 101  69 100  79 101
M  END
> <Batch ID>
0197

> <Smiles>
CNC(C)C(=O)NC(C(=O)N1Cc2cc([101O:1][101CH2:1]CCC(C)Nc3cnc([100NH:0][100C:0](=O)N4CCCC(n5nc(-c6ccc(Oc7ccc(F)cc7F)cc6)c(C(N)=O)c5N)C4)s3)ccc2CC1C(=O)NC1CCCc2ccccc21)C(C)(C)C

> <Shape>
0.222

> <Color>
0.192

> <Negative vol penalty>
0.000

$$$$

  -OEChem-04052305413D

 84 92  0     1  0  0  0  0  0999 V2000
  -36.3775  -29.5173   22.6631 C   0  0  0  0  0  0  0  0  0  0  0  0
  -35.8959  -28.6175   23.6086 C   0  0  0  0  0  0  0  0  0  0  0  0
  -23.2212   -9.8565   19.9959 C   0  0  0  0  0  0  0  0  0  0  0  0
  -23.9375   -9.9896   22.2994 C   0  0  0  0  0  0  0  0  0  0  0  0
  -35.6143  -29.8168   21.5354 C   0  0  0  0  0  0  0  0  0  0  0  0
  -34.6503  -28.0175   23.4274 C   0  0  0  0  0  0  0  0  0  0  0  0
  -33.0306  -22.3365   25.0425 C   0  0  0  0  0  0  0  0  0  0  0  0
  -22.5324   -8.6770   20.2782 C   0  0  0  0  0  0  0  0  0  0  0  0
  -23.2486   -8.8100   22.5817 C   0  0  0  0  0  0  0  0  0  0  0  0
  -32.3424  -21.8354   26.1465 C   0  0  0  0  0  0  0  0  0  0  0  0
  -20.0546   -7.8707   23.1618 C   0  0  0  0  0  0  0  0  0  0  0  0
  -19.2793   -7.8364   24.3207 C   0  0  0  0  0  0  0  0  0  0  0  0
  -30.2933  -21.8625   24.8738 C   0  0  0  0  0  0  0  0  0  0  0  0
  -20.6037   -5.9947   25.1521 C   0  0  0  0  0  0  0  0  0  0  0  0
  -23.9239  -10.5128   21.0065 C   0  0  0  0  0  0  0  0  0  0  0  0
  -24.1393  -13.0458   20.7941 C   0  0  0  0  0  0  0  0  0  0  0  0
  -34.3629  -29.2128   21.3355 C   0  0  0  0  0  0  0  0  0  0  0  0
  -32.3523  -22.6151   23.8472 C   0  0  0  0  0  0  0  0  0  0  0  0
  -33.8690  -28.3102   22.2966 C   0  0  0  0  0  0  0  0  0  0  0  0
  -30.9757  -22.3647   23.7552 C   0  0  0  0  0  0  0  0  0  0  0  0
  -22.5460   -8.1537   21.5711 C   0  0  0  0  0  0  0  0  0  0  0  0
  -30.9730  -21.6011   26.0633 C   0  0  0  0  0  0  0  0  0  0  0  0
  -21.1044   -6.9670   22.9979 C   0  0  0  0  0  0  0  0  0  0  0  0
  -19.5538   -6.8984   25.3160 C   0  0  0  0  0  0  0  0  0  0  0  0
  -21.3790   -6.0290   23.9931 C   0  0  0  0  0  0  0  0  0  0  0  0
  -24.6361  -11.7310   20.7153 C   0  0  0  0  0  0  0  0  0  0  0  0
  -31.6421  -16.9925   24.8260 C   0  0  0  0  0  0  0  0  0  0  0  0
  -32.6333  -16.8937   23.8722 C   0  0  0  0  0  0  0  0  0  0  0  0
  -25.1985  -13.8362   20.4200 C   0  0  0  0  0  0  0  0  0  0  0  0
  -31.1594  -15.5527   22.9561 C   0  0  0  0  0  0  0  0  0  0  0  0
  -22.8368  -13.5112   21.1718 C   0  0  0  0  0  0  0  0  0  0  0  0
  -31.5941  -17.7721   26.0898 C   0  0  0  0  0  0  0  0  0  0  0  0
  -31.8309  -25.2332   22.1217 C   0  0  0  0  0  0  0  0  0  0  0  0
  -30.5181  -23.1250   20.0349 C   0  0  0  0  0  0  0  0  0  0  0  0
  -29.0517  -20.0860   19.5240 C   0  0  0  0  0  0  0  0  0  0  0  0
  -30.9478  -14.1300   20.8879 C   0  0  0  0  0  0  0  0  0  0  0  0
  -33.5532  -29.6038   20.1246 C   0  0  0  0  0  0  0  0  0  0  0  0
  -33.1140  -23.1300   22.6568 C   0  0  0  0  0  0  0  0  0  0  0  0
  -30.2047  -22.6279   22.4885 C   0  0  0  0  0  0  0  0  0  0  0  0
  -32.4089  -28.6405   19.8200 C   0  0  0  0  0  0  0  0  0  0  0  0
  -29.3721  -13.0912   17.8687 C   0  0  0  0  0  0  0  0  0  0  0  0
  -31.6340  -28.3127   21.0923 C   0  0  0  0  0  0  0  0  0  0  0  0
  -27.9413  -12.7627   18.3010 C   0  0  0  0  0  0  0  0  0  0  0  0
  -30.3917  -12.6965   18.9358 C   0  0  0  0  0  0  0  0  0  0  0  0
  -28.6943  -12.9031   20.7094 C   0  0  0  0  0  0  0  0  0  0  0  0
  -32.5335  -27.6200   22.1231 C   0  0  1  0  0  0  0  0  0  0  0  0
  -32.2294  -23.8625   21.6526 C   0  0  1  0  0  0  0  0  0  0  0  0
  -27.6264  -13.3420   19.6942 C   0  0  2  0  0  0  0  0  0  0  0  0
  -33.9395  -17.5835   23.9001 C   0  0  0  0  0  0  0  0  0  0  0  0
  -28.0722  -18.1578   18.2512 C   0  0  0  0  0  0  0  0  0  0  0  0
  -28.0036  -24.8531   20.0648 C   0  0  0  0  0  0  0  0  0  0  0  0
  -26.7583  -22.9362   19.0436 C   0  0  0  0  0  0  0  0  0  0  0  0
  -28.6507  -23.9918   17.8078 C   0  0  0  0  0  0  0  0  0  0  0  0
  -31.6975  -18.7970   19.2127 C   0  0  0  0  0  0  0  0  0  0  0  0
  -30.2230  -18.3619   28.0717 C   0  0  0  0  0  0  0  0  0  0  0  0
  -29.1549  -20.3011   26.8760 C   0  0  0  0  0  0  0  0  0  1  0  0
  -29.1395  -22.5470   19.8242 C   0  0  1  0  0  0  0  0  0  0  0  0
  -29.3139  -19.0013   18.4948 C   0  0  2  0  0  0  0  0  0  0  0  0
  -29.0049  -19.2777   27.9959 C   0  0  1  0  0  0  0  0  0  0  0  0
  -28.1519  -23.5788   19.2097 C   0  0  0  0  0  0  0  0  0  0  0  0
  -25.9117  -11.6846   20.3219 N   0  0  0  0  0  0  0  0  0  0  0  0
  -32.3585  -16.0682   22.7994 N   0  0  0  0  0  0  0  0  0  0  0  0
  -26.2253  -12.9800   20.1500 N   0  0  0  0  0  0  0  0  0  0  0  0
  -30.9930  -23.1371   21.3541 N   0  0  0  0  0  0  0  0  0  0  0  0
  -30.0311  -13.2848   20.2276 N   0  0  0  0  0  0  0  0  0  0  0  0
  -25.3423  -15.1730   20.2988 N   0  0  0  0  0  0  0  0  0  0  0  0
  -21.8663  -12.5646   21.5275 N   0  0  0  0  0  0  0  0  0  0  0  0
  -30.4823  -14.6566   22.0923 N   0  0  0  0  0  0  0  0  0  0  0  0
  -30.4298  -17.6510   26.8373 N   0  0  0  0  0  0  0  0  0  0  0  0
  -32.7239  -26.2286   21.7738 N   0  0  0  0  0  0  0  0  0  0  0  0
  -29.3203  -21.3419   19.0221 N   0  0  0  0  0  0  0  0  0  0  0  0
  -30.4093  -18.1027   18.9570 N   0  3  0  0  0  0  0  0  0  0  0  0
  -22.5374  -14.7293   21.1775 O   0  0  0  0  0  0  0  0  0  0  0  0
  -32.5496  -18.4815   26.3937 O   0  0  0  0  0  0  0  0  0  0  0  0
  -30.7895  -25.3772   22.7513 O   0  0  0  0  0  0  0  0  0  0  0  0
  -31.1532  -23.5436   19.0638 O   0  0  0  0  0  0  0  0  0  0  0  0
  -28.6454  -19.8438   20.6583 O   0  0  0  0  0  0  0  0  0  0  0  0
  -32.0532  -14.3908   20.4061 O   0  0  0  0  0  0  0  0  0  0  0  0
  -27.8463  -18.4902   27.7148 O   0  0  0  0  0  0  0  0  0  0  0  0
  -21.8738   -7.0029   21.8470 O   0  0  0  0  0  0  0  0  0  0  0  0
  -30.2986  -21.1127   27.1396 O   0  0  0  0  0  0  0  0  0  1  0  0
  -18.8102   -6.8665   26.4296 F   0  0  0  0  0  0  0  0  0  0  0  0
  -22.3870   -5.1590   23.8418 F   0  0  0  0  0  0  0  0  0  0  0  0
  -30.3063  -16.0180   24.3706 S   0  0  0  0  0  0  0  0  0  0  0  0
  1  2  1  0  0  0  0
  1  5  2  0  0  0  0
  2  6  2  0  0  0  0
  3  8  2  0  0  0  0
  3 15  1  0  0  0  0
  4  9  1  0  0  0  0
  4 15  2  0  0  0  0
  5 17  1  0  0  0  0
  6 19  1  0  0  0  0
  7 10  2  0  0  0  0
  7 18  1  0  0  0  0
  8 21  1  0  0  0  0
  9 21  2  0  0  0  0
 10 22  1  0  0  0  0
 11 12  2  0  0  0  0
 11 23  1  0  0  0  0
 12 24  1  0  0  0  0
 13 20  1  0  0  0  0
 13 22  2  0  0  0  0
 14 24  2  0  0  0  0
 14 25  1  0  0  0  0
 15 26  1  0  0  0  0
 16 26  1  0  0  0  0
 16 29  2  0  0  0  0
 16 31  1  0  0  0  0
 17 19  2  0  0  0  0
 17 37  1  0  0  0  0
 18 20  2  0  0  0  0
 18 38  1  0  0  0  0
 19 46  1  0  0  0  0
 20 39  1  0  0  0  0
 21 80  1  0  0  0  0
 22 81  1  0  0  0  0
 23 25  2  0  0  0  0
 23 80  1  0  0  0  0
 24 82  1  0  0  0  0
 25 83  1  0  0  0  0
 26 61  2  0  0  0  0
 27 28  2  0  0  0  0
 27 32  1  0  0  0  0
 27 84  1  0  0  0  0
 28 49  1  0  0  0  0
 28 62  1  0  0  0  0
 29 63  1  0  0  0  0
 29 66  1  0  0  0  0
 30 62  2  0  0  0  0
 30 68  1  0  0  0  0
 30 84  1  0  0  0  0
 31 67  1  0  0  0  0
 31 73  2  0  0  0  0
 32 69  1  0  0  0  0
 32 74  2  0  0  0  0
 33 47  1  0  0  0  0
 33 70  1  0  0  0  0
 33 75  2  0  0  0  0
 34 57  1  0  0  0  0
 34 64  1  0  0  0  0
 34 76  2  0  0  0  0
 35 58  1  0  0  0  0
 35 71  1  0  0  0  0
 35 77  2  0  0  0  0
 36 65  1  0  0  0  0
 36 68  1  0  0  0  0
 36 78  2  0  0  0  0
 37 40  1  0  0  0  0
 38 47  1  0  0  0  0
 39 64  1  0  0  0  0
 40 42  1  0  0  0  0
 41 43  1  0  0  0  0
 41 44  1  0  0  0  0
 42 46  1  0  0  0  0
 43 48  1  0  0  0  0
 44 65  1  0  0  0  0
 45 48  1  0  0  0  0
 45 65  1  0  0  0  0
 46 70  1  0  0  0  0
 47 64  1  0  0  0  0
 48 63  1  0  0  0  0
 50 58  1  0  0  0  0
 51 60  1  0  0  0  0
 52 60  1  0  0  0  0
 53 60  1  0  0  0  0
 54 72  1  0  0  0  0
 55 59  1  0  0  0  0
 55 69  1  0  0  0  0
 56 59  1  0  0  0  0
 56 81  1  0  0  0  0
 57 60  1  0  0  0  0
 57 71  1  0  0  0  0
 58 72  1  0  0  0  0
 59 79  1  0  0  0  0
 61 63  1  0  0  0  0
M  CHG  1  72   1
M  ISO  4  36 100  56 101  68 100  81 101
M  END
> <Batch ID>
0197

> <Smiles>
CNC(C)C(=O)NC(C(=O)N1Cc2cc([101O:1][101CH2:1]C(O)CNC(=O)c3sc([100NH:0][100C:0](=O)N4CCCC(n5nc(-c6ccc(Oc7ccc(F)cc7F)cc6)c(C(N)=O)c5N)C4)nc3C)ccc2CC1C(=O)NC1CCCc2ccccc21)C(C)(C)C

> <Shape>
0.231

> <Color>
0.180

> <Negative vol penalty>
0.000

$$$$

  -OEChem-04052305413D

 85 93  0     1  0  0  0  0  0999 V2000
  -29.3335  -16.9182   16.3745 C   0  0  0  0  0  0  0  0  0  0  0  0
  -29.3101  -17.4796   17.6472 C   0  0  0  0  0  0  0  0  0  0  0  0
  -22.8112  -10.2499   19.9139 C   0  0  0  0  0  0  0  0  0  0  0  0
  -23.8032   -9.7274   22.0540 C   0  0  0  0  0  0  0  0  0  0  0  0
  -29.3964  -17.7420   15.2515 C   0  0  0  0  0  0  0  0  0  0  0  0
  -29.3508  -18.8653   17.7976 C   0  0  0  0  0  0  0  0  0  0  0  0
  -26.0006  -20.5491   21.2014 C   0  0  0  0  0  0  0  0  0  0  0  0
  -21.9754   -9.1393   20.0301 C   0  0  0  0  0  0  0  0  0  0  0  0
  -22.9674   -8.6168   22.1702 C   0  0  0  0  0  0  0  0  0  0  0  0
  -26.3312  -20.4005   22.5476 C   0  0  0  0  0  0  0  0  0  0  0  0
  -19.1258   -8.3258   21.6581 C   0  0  0  0  0  0  0  0  0  0  0  0
  -17.7781   -8.4925   21.3392 C   0  0  0  0  0  0  0  0  0  0  0  0
  -27.0175  -22.7118   22.6279 C   0  0  0  0  0  0  0  0  0  0  0  0
  -17.9794   -6.8153   19.6119 C   0  0  0  0  0  0  0  0  0  0  0  0
  -23.7252  -10.5440   20.9258 C   0  0  0  0  0  0  0  0  0  0  0  0
  -24.3279  -13.0018   21.2475 C   0  0  0  0  0  0  0  0  0  0  0  0
  -29.4281  -19.1388   15.3879 C   0  0  0  0  0  0  0  0  0  0  0  0
  -26.1865  -21.7793   20.5544 C   0  0  0  0  0  0  0  0  0  0  0  0
  -29.4155  -19.7086   16.6754 C   0  0  0  0  0  0  0  0  0  0  0  0
  -26.6861  -22.8740   21.2741 C   0  0  0  0  0  0  0  0  0  0  0  0
  -32.4762  -18.1834   23.3794 C   0  0  0  0  0  0  0  0  0  0  0  0
  -22.0535   -8.3227   21.1582 C   0  0  0  0  0  0  0  0  0  0  0  0
  -26.8425  -21.4811   23.2604 C   0  0  0  0  0  0  0  0  0  0  0  0
  -19.9003   -7.4039   20.9538 C   0  0  0  0  0  0  0  0  0  0  0  0
  -17.2049   -7.7372   20.3162 C   0  0  0  0  0  0  0  0  0  0  0  0
  -19.3271   -6.6486   19.9307 C   0  0  0  0  0  0  0  0  0  0  0  0
  -24.5892  -11.6908   20.8061 C   0  0  0  0  0  0  0  0  0  0  0  0
  -33.0256  -17.4674   22.3354 C   0  0  0  0  0  0  0  0  0  0  0  0
  -31.2313  -17.7636   23.8014 C   0  0  0  0  0  0  0  0  0  0  0  0
  -25.4518  -13.7112   20.9007 C   0  0  0  0  0  0  0  0  0  0  0  0
  -31.2057  -16.1085   22.2435 C   0  0  0  0  0  0  0  0  0  0  0  0
  -23.1727  -13.5310   21.9116 C   0  0  0  0  0  0  0  0  0  0  0  0
  -27.9513  -22.7833   18.1088 C   0  0  0  0  0  0  0  0  0  0  0  0
  -26.3086  -25.5436   18.5613 C   0  0  0  0  0  0  0  0  0  0  0  0
  -24.5317  -27.5435   20.6802 C   0  0  0  0  0  0  0  0  0  0  0  0
  -30.9878  -14.2200   20.5905 C   0  0  0  0  0  0  0  0  0  0  0  0
  -29.5437  -19.9870   14.1461 C   0  0  0  0  0  0  0  0  0  0  0  0
  -25.7998  -21.9305   19.1087 C   0  0  0  0  0  0  0  0  0  0  0  0
  -26.8855  -24.2214   20.6312 C   0  0  0  0  0  0  0  0  0  0  0  0
  -29.2055  -21.4573   14.3791 C   0  0  0  0  0  0  0  0  0  0  0  0
  -29.3731  -12.4406   17.9630 C   0  0  0  0  0  0  0  0  0  0  0  0
  -29.9017  -21.9727   15.6347 C   0  0  0  0  0  0  0  0  0  0  0  0
  -27.9631  -12.1948   18.5047 C   0  0  0  0  0  0  0  0  0  0  0  0
  -30.4286  -12.3415   19.0629 C   0  0  0  0  0  0  0  0  0  0  0  0
  -28.7679  -12.9353   20.7831 C   0  0  0  0  0  0  0  0  0  0  0  0
  -29.4332  -21.2081   16.8786 C   0  0  1  0  0  0  0  0  0  0  0  0
  -26.5128  -23.0886   18.4175 C   0  0  1  0  0  0  0  0  0  0  0  0
  -27.6640  -13.0888   19.7241 C   0  0  2  0  0  0  0  0  0  0  0  0
  -33.1885  -19.3326   24.0029 C   0  0  0  0  0  0  0  0  0  0  0  0
  -34.3691  -17.8294   21.7931 C   0  0  0  0  0  0  0  0  0  0  0  0
  -23.3499  -29.7553   20.7744 C   0  0  0  0  0  0  0  0  0  0  0  0
  -28.9999  -26.9719   18.7248 C   0  0  0  0  0  0  0  0  0  0  0  0
  -27.8197  -28.9309   19.7435 C   0  0  0  0  0  0  0  0  0  0  0  0
  -27.2459  -28.1967   17.4296 C   0  0  0  0  0  0  0  0  0  0  0  0
  -21.9355  -26.2614   21.2930 C   0  0  0  0  0  0  0  0  0  0  0  0
  -28.5457  -20.2111   26.1779 C   0  0  0  0  0  0  0  0  0  0  0  0
  -29.5637  -17.8917   25.6530 C   0  0  0  0  0  0  0  0  0  0  0  0
  -27.5956  -20.0462   25.0010 C   0  0  0  0  0  0  0  0  0  1  0  0
  -26.5136  -26.7853   19.3951 C   0  0  1  0  0  0  0  0  0  0  0  0
  -23.2065  -28.2644   20.5108 C   0  0  2  0  0  0  0  0  0  0  0  0
  -29.0988  -18.8876   26.7168 C   0  0  1  0  0  0  0  0  0  0  0  0
  -27.6430  -27.6954   18.8352 C   0  0  0  0  0  0  0  0  0  0  0  0
  -25.7851  -11.5717   20.2232 N   0  0  0  0  0  0  0  0  0  0  0  0
  -32.4158  -16.4206   21.7417 N   0  0  0  0  0  0  0  0  0  0  0  0
  -30.5646  -16.7262   23.2540 N   0  0  0  0  0  0  0  0  0  0  0  0
  -26.2852  -12.8169   20.2959 N   0  0  0  0  0  0  0  0  0  0  0  0
  -26.4985  -24.3173   19.2139 N   0  0  0  0  0  0  0  0  0  0  0  0
  -30.0812  -13.2185   20.1832 N   0  0  0  0  0  0  0  0  0  0  0  0
  -25.7984  -15.0065   21.0571 N   0  0  0  0  0  0  0  0  0  0  0  0
  -22.1079  -12.6640   22.1927 N   0  0  0  0  0  0  0  0  0  0  0  0
  -30.6282  -18.4436   24.8465 N   0  0  0  0  0  0  0  0  0  0  0  0
  -30.5353  -15.0135   21.6441 N   0  0  0  0  0  0  0  0  0  0  0  0
  -28.1306  -21.6775   17.2997 N   0  0  0  0  0  0  0  0  0  0  0  0
  -25.2111  -27.4362   19.4851 N   0  0  0  0  0  0  0  0  0  0  0  0
  -22.1936  -27.7153   21.4561 N   0  3  0  0  0  0  0  0  0  0  0  0
  -23.0804  -14.7404   22.2313 O   0  0  0  0  0  0  0  0  0  0  0  0
  -28.8331  -23.4989   18.5692 O   0  0  0  0  0  0  0  0  0  0  0  0
  -25.9848  -25.6575   17.3765 O   0  0  0  0  0  0  0  0  0  0  0  0
  -24.9264  -27.1213   21.7649 O   0  0  0  0  0  0  0  0  0  0  0  0
  -32.0734  -14.3808   20.0269 O   0  0  0  0  0  0  0  0  0  0  0  0
  -30.2008  -19.1629   27.5837 O   0  0  0  0  0  0  0  0  0  0  0  0
  -21.2379   -7.2390   21.2721 O   0  0  0  0  0  0  0  0  0  0  0  0
  -27.1667  -21.3386   24.5743 O   0  0  0  0  0  0  0  0  0  1  0  0
  -15.9104   -7.8962   20.0111 F   0  0  0  0  0  0  0  0  0  0  0  0
  -20.0658   -5.7606   19.2514 F   0  0  0  0  0  0  0  0  0  0  0  0
  1  2  1  0  0  0  0
  1  5  2  0  0  0  0
  2  6  2  0  0  0  0
  3  8  2  0  0  0  0
  3 15  1  0  0  0  0
  4  9  1  0  0  0  0
  4 15  2  0  0  0  0
  5 17  1  0  0  0  0
  6 19  1  0  0  0  0
  7 10  2  0  0  0  0
  7 18  1  0  0  0  0
  8 22  1  0  0  0  0
  9 22  2  0  0  0  0
 10 23  1  0  0  0  0
 11 12  2  0  0  0  0
 11 24  1  0  0  0  0
 12 25  1  0  0  0  0
 13 20  1  0  0  0  0
 13 23  2  0  0  0  0
 14 25  2  0  0  0  0
 14 26  1  0  0  0  0
 15 27  1  0  0  0  0
 16 27  1  0  0  0  0
 16 30  2  0  0  0  0
 16 32  1  0  0  0  0
 17 19  2  0  0  0  0
 17 37  1  0  0  0  0
 18 20  2  0  0  0  0
 18 38  1  0  0  0  0
 19 46  1  0  0  0  0
 20 39  1  0  0  0  0
 21 28  1  0  0  0  0
 21 29  2  0  0  0  0
 21 49  1  0  0  0  0
 22 82  1  0  0  0  0
 23 83  1  0  0  0  0
 24 26  2  0  0  0  0
 24 82  1  0  0  0  0
 25 84  1  0  0  0  0
 26 85  1  0  0  0  0
 27 63  2  0  0  0  0
 28 50  1  0  0  0  0
 28 64  2  0  0  0  0
 29 65  1  0  0  0  0
 29 71  1  0  0  0  0
 30 66  1  0  0  0  0
 30 69  1  0  0  0  0
 31 64  1  0  0  0  0
 31 65  2  0  0  0  0
 31 72  1  0  0  0  0
 32 70  1  0  0  0  0
 32 76  2  0  0  0  0
 33 47  1  0  0  0  0
 33 73  1  0  0  0  0
 33 77  2  0  0  0  0
 34 59  1  0  0  0  0
 34 67  1  0  0  0  0
 34 78  2  0  0  0  0
 35 60  1  0  0  0  0
 35 74  1  0  0  0  0
 35 79  2  0  0  0  0
 36 68  1  0  0  0  0
 36 72  1  0  0  0  0
 36 80  2  0  0  0  0
 37 40  1  0  0  0  0
 38 47  1  0  0  0  0
 39 67  1  0  0  0  0
 40 42  1  0  0  0  0
 41 43  1  0  0  0  0
 41 44  1  0  0  0  0
 42 46  1  0  0  0  0
 43 48  1  0  0  0  0
 44 68  1  0  0  0  0
 45 48  1  0  0  0  0
 45 68  1  0  0  0  0
 46 73  1  0  0  0  0
 47 67  1  0  0  0  0
 48 66  1  0  0  0  0
 51 60  1  0  0  0  0
 52 62  1  0  0  0  0
 53 62  1  0  0  0  0
 54 62  1  0  0  0  0
 55 75  1  0  0  0  0
 56 58  1  0  0  0  0
 56 61  1  0  0  0  0
 57 61  1  0  0  0  0
 57 71  1  0  0  0  0
 58 83  1  0  0  0  0
 59 62  1  0  0  0  0
 59 74  1  0  0  0  0
 60 75  1  0  0  0  0
 61 81  1  0  0  0  0
 63 66  1  0  0  0  0
M  CHG  1  75   1
M  ISO  4  36 100  58 101  72 100  83 101
M  END
> <Batch ID>
0197

> <Smiles>
CNC(C)C(=O)NC(C(=O)N1Cc2cc([101O:1][101CH2:1]CC(O)CNc3nc([100NH:0][100C:0](=O)N4CCCC(n5nc(-c6ccc(Oc7ccc(F)cc7F)cc6)c(C(N)=O)c5N)C4)nc(C)c3C)ccc2CC1C(=O)NC1CCCc2ccccc21)C(C)(C)C

> <Shape>
0.218

> <Color>
0.158

> <Negative vol penalty>
0.000

$$$$

  -OEChem-04052305413D

 82 90  0     1  0  0  0  0  0999 V2000
  -24.0419  -25.9077   31.2665 C   0  0  0  0  0  0  0  0  0  0  0  0
  -24.6995  -25.4457   30.1309 C   0  0  0  0  0  0  0  0  0  0  0  0
  -23.0731   -9.8698   19.9409 C   0  0  0  0  0  0  0  0  0  0  0  0
  -23.8366   -9.8735   22.2330 C   0  0  0  0  0  0  0  0  0  0  0  0
  -22.6604  -26.0938   31.2433 C   0  0  0  0  0  0  0  0  0  0  0  0
  -23.9757  -25.1684   28.9718 C   0  0  0  0  0  0  0  0  0  0  0  0
  -26.2062  -26.9899   24.8062 C   0  0  0  0  0  0  0  0  0  0  0  0
  -22.3295   -8.7164   20.1904 C   0  0  0  0  0  0  0  0  0  0  0  0
  -23.0930   -8.7200   22.4826 C   0  0  0  0  0  0  0  0  0  0  0  0
  -27.2857  -26.2703   24.2955 C   0  0  0  0  0  0  0  0  0  0  0  0
  -19.8657   -7.9217   23.0891 C   0  0  0  0  0  0  0  0  0  0  0  0
  -19.1106   -7.8802   24.2611 C   0  0  0  0  0  0  0  0  0  0  0  0
  -25.8361  -25.2826   22.6395 C   0  0  0  0  0  0  0  0  0  0  0  0
  -20.3530   -5.9416   24.9928 C   0  0  0  0  0  0  0  0  0  0  0  0
  -23.8267  -10.4483   20.9622 C   0  0  0  0  0  0  0  0  0  0  0  0
  -24.1686  -12.9736   20.8452 C   0  0  0  0  0  0  0  0  0  0  0  0
  -21.9205  -25.8279   30.0804 C   0  0  0  0  0  0  0  0  0  0  0  0
  -24.9292  -26.8527   24.2433 C   0  0  0  0  0  0  0  0  0  0  0  0
  -22.5827  -25.3499   28.9335 C   0  0  0  0  0  0  0  0  0  0  0  0
  -24.7426  -26.0034   23.1433 C   0  0  0  0  0  0  0  0  0  0  0  0
  -22.3394   -8.1415   21.4612 C   0  0  0  0  0  0  0  0  0  0  0  0
  -27.1002  -25.4143   23.2139 C   0  0  0  0  0  0  0  0  0  0  0  0
  -20.8644   -6.9731   22.8689 C   0  0  0  0  0  0  0  0  0  0  0  0
  -19.3543   -6.8901   25.2130 C   0  0  0  0  0  0  0  0  0  0  0  0
  -21.1081   -5.9831   23.8207 C   0  0  0  0  0  0  0  0  0  0  0  0
  -24.5955  -11.6395   20.7049 C   0  0  0  0  0  0  0  0  0  0  0  0
  -25.2603  -13.7235   20.4813 C   0  0  0  0  0  0  0  0  0  0  0  0
  -30.5746  -16.9474   21.9035 C   0  0  0  0  0  0  0  0  0  0  0  0
  -30.7803  -19.0590   22.9359 C   0  0  0  0  0  0  0  0  0  0  0  0
  -22.8988  -13.4890   21.2669 C   0  0  0  0  0  0  0  0  0  0  0  0
  -22.1080  -25.8409   25.3021 C   0  0  0  0  0  0  0  0  0  0  0  0
  -21.0901  -26.8558   22.3942 C   0  0  0  0  0  0  0  0  0  0  0  0
  -21.8515  -27.5692   19.1448 C   0  0  0  0  0  0  0  0  0  0  0  0
  -30.7269  -14.7682   20.6489 C   0  0  0  0  0  0  0  0  0  0  0  0
  -20.4225  -25.9993   30.1179 C   0  0  0  0  0  0  0  0  0  0  0  0
  -23.7806  -27.6561   24.7888 C   0  0  0  0  0  0  0  0  0  0  0  0
  -23.3959  -25.8361   22.4900 C   0  0  0  0  0  0  0  0  0  0  0  0
  -19.7792  -26.0393   28.7342 C   0  0  0  0  0  0  0  0  0  0  0  0
  -29.6084  -12.3580   18.2788 C   0  0  0  0  0  0  0  0  0  0  0  0
  -20.3238  -24.9145   27.8595 C   0  0  0  0  0  0  0  0  0  0  0  0
  -28.1694  -12.0660   18.7102 C   0  0  0  0  0  0  0  0  0  0  0  0
  -30.5254  -12.5849   19.4793 C   0  0  0  0  0  0  0  0  0  0  0  0
  -28.6208  -13.3076   20.8647 C   0  0  0  0  0  0  0  0  0  0  0  0
  -21.8356  -25.0617   27.6494 C   0  0  1  0  0  0  0  0  0  0  0  0
  -22.4192  -27.0488   24.4644 C   0  0  1  0  0  0  0  0  0  0  0  0
  -27.6461  -13.1362   19.6882 C   0  0  2  0  0  0  0  0  0  0  0  0
  -20.8030  -28.3421   16.9999 C   0  0  0  0  0  0  0  0  0  0  0  0
  -32.6804  -20.8567   24.7185 C   0  0  0  0  0  0  0  0  0  0  0  0
  -19.8820  -24.0835   21.9886 C   0  0  0  0  0  0  0  0  0  0  0  0
  -19.7054  -24.5945   19.5440 C   0  0  0  0  0  0  0  0  0  0  0  0
  -18.4464  -25.9728   21.1986 C   0  0  0  0  0  0  0  0  0  0  0  0
  -23.5594  -29.9841   19.0449 C   0  0  0  0  0  0  0  0  0  0  0  0
  -29.8432  -23.0474   23.1867 C   0  0  0  0  0  0  0  0  0  0  0  0
  -30.9523  -22.6023   24.1500 C   0  0  0  0  0  0  0  0  0  0  0  0
  -29.1861  -24.3501   23.6289 C   0  0  0  0  0  0  0  0  0  1  0  0
  -20.9562  -26.2261   21.0287 C   0  0  1  0  0  0  0  0  0  0  0  0
  -21.5202  -28.7663   18.2721 C   0  0  2  0  0  0  0  0  0  0  0  0
  -31.6031  -21.2787   23.7244 C   0  0  2  0  0  0  0  0  0  0  0  0
  -19.7726  -25.2207   20.9533 C   0  0  0  0  0  0  0  0  0  0  0  0
  -25.8597  -11.5441   20.2845 N   0  0  0  0  0  0  0  0  0  0  0  0
  -31.7324  -17.5117   21.6333 N   0  0  0  0  0  0  0  0  0  0  0  0
  -31.8535  -18.7498   22.2398 N   0  0  0  0  0  0  0  0  0  0  0  0
  -26.2365  -12.8279   20.1574 N   0  0  0  0  0  0  0  0  0  0  0  0
  -22.3028  -26.6384   23.0636 N   0  0  0  0  0  0  0  0  0  0  0  0
  -29.9680  -13.6145   20.3591 N   0  0  0  0  0  0  0  0  0  0  0  0
  -25.4707  -15.0551   20.4098 N   0  0  0  0  0  0  0  0  0  0  0  0
  -21.8874  -12.5794   21.6045 N   0  0  0  0  0  0  0  0  0  0  0  0
  -30.0809  -15.6921   21.4697 N   0  0  0  0  0  0  0  0  0  0  0  0
  -30.6068  -20.2304   23.6511 N   0  0  0  0  0  0  0  0  0  0  0  0
  -22.1115  -26.0837   26.6625 N   0  0  0  0  0  0  0  0  0  0  0  0
  -20.8651  -27.3288   20.0778 N   0  0  0  0  0  0  0  0  0  0  0  0
  -22.7660  -29.4896   17.8904 N   0  3  0  0  0  0  0  0  0  0  0  0
  -22.6628  -14.7195   21.3264 O   0  0  0  0  0  0  0  0  0  0  0  0
  -21.8801  -24.7685   24.7548 O   0  0  0  0  0  0  0  0  0  0  0  0
  -20.1561  -27.5222   22.8470 O   0  0  0  0  0  0  0  0  0  0  0  0
  -22.8805  -26.9108   19.0098 O   0  0  0  0  0  0  0  0  0  0  0  0
  -31.8552  -14.9375   20.1797 O   0  0  0  0  0  0  0  0  0  0  0  0
  -21.6137   -7.0161   21.7051 O   0  0  0  0  0  0  0  0  0  0  0  0
  -28.1519  -24.7103   22.7139 O   0  0  0  0  0  0  0  0  0  1  0  0
  -18.6301   -6.8513   26.3392 F   0  0  0  0  0  0  0  0  0  0  0  0
  -22.0670   -5.0698   23.6153 F   0  0  0  0  0  0  0  0  0  0  0  0
  -29.5410  -17.8737   22.9112 S   0  0  0  0  0  0  0  0  0  0  0  0
  1  2  1  0  0  0  0
  1  5  2  0  0  0  0
  2  6  2  0  0  0  0
  3  8  2  0  0  0  0
  3 15  1  0  0  0  0
  4  9  1  0  0  0  0
  4 15  2  0  0  0  0
  5 17  1  0  0  0  0
  6 19  1  0  0  0  0
  7 10  2  0  0  0  0
  7 18  1  0  0  0  0
  8 21  1  0  0  0  0
  9 21  2  0  0  0  0
 10 22  1  0  0  0  0
 11 12  2  0  0  0  0
 11 23  1  0  0  0  0
 12 24  1  0  0  0  0
 13 20  1  0  0  0  0
 13 22  2  0  0  0  0
 14 24  2  0  0  0  0
 14 25  1  0  0  0  0
 15 26  1  0  0  0  0
 16 26  1  0  0  0  0
 16 27  2  0  0  0  0
 16 30  1  0  0  0  0
 17 19  2  0  0  0  0
 17 35  1  0  0  0  0
 18 20  2  0  0  0  0
 18 36  1  0  0  0  0
 19 44  1  0  0  0  0
 20 37  1  0  0  0  0
 21 78  1  0  0  0  0
 22 79  1  0  0  0  0
 23 25  2  0  0  0  0
 23 78  1  0  0  0  0
 24 80  1  0  0  0  0
 25 81  1  0  0  0  0
 26 60  2  0  0  0  0
 27 63  1  0  0  0  0
 27 66  1  0  0  0  0
 28 61  2  0  0  0  0
 28 68  1  0  0  0  0
 28 82  1  0  0  0  0
 29 62  2  0  0  0  0
 29 69  1  0  0  0  0
 29 82  1  0  0  0  0
 30 67  1  0  0  0  0
 30 73  2  0  0  0  0
 31 45  1  0  0  0  0
 31 70  1  0  0  0  0
 31 74  2  0  0  0  0
 32 56  1  0  0  0  0
 32 64  1  0  0  0  0
 32 75  2  0  0  0  0
 33 57  1  0  0  0  0
 33 71  1  0  0  0  0
 33 76  2  0  0  0  0
 34 65  1  0  0  0  0
 34 68  1  0  0  0  0
 34 77  2  0  0  0  0
 35 38  1  0  0  0  0
 36 45  1  0  0  0  0
 37 64  1  0  0  0  0
 38 40  1  0  0  0  0
 39 41  1  0  0  0  0
 39 42  1  0  0  0  0
 40 44  1  0  0  0  0
 41 46  1  0  0  0  0
 42 65  1  0  0  0  0
 43 46  1  0  0  0  0
 43 65  1  0  0  0  0
 44 70  1  0  0  0  0
 45 64  1  0  0  0  0
 46 63  1  0  0  0  0
 47 57  1  0  0  0  0
 48 58  1  0  0  0  0
 49 59  1  0  0  0  0
 50 59  1  0  0  0  0
 51 59  1  0  0  0  0
 52 72  1  0  0  0  0
 53 54  1  0  0  0  0
 53 55  1  0  0  0  0
 54 58  1  0  0  0  0
 55 79  1  0  0  0  0
 56 59  1  0  0  0  0
 56 71  1  0  0  0  0
 57 72  1  0  0  0  0
 58 69  1  0  0  0  0
 60 63  1  0  0  0  0
 61 62  1  0  0  0  0
M  CHG  1  72   1
M  ISO  4  34 100  55 101  68 100  79 101
M  END
> <Batch ID>
0197

> <Smiles>
CNC(C)C(=O)NC(C(=O)N1Cc2cc([101O:1][101CH2:1]CCC(C)Nc3nnc([100NH:0][100C:0](=O)N4CCCC(n5nc(-c6ccc(Oc7ccc(F)cc7F)cc6)c(C(N)=O)c5N)C4)s3)ccc2CC1C(=O)NC1CCCc2ccccc21)C(C)(C)C

> <Shape>
0.221

> <Color>
0.187

> <Negative vol penalty>
0.000

$$$$

  -OEChem-04052305413D

 82 90  0     1  0  0  0  0  0999 V2000
  -17.5105  -30.0071   23.0067 C   0  0  0  0  0  0  0  0  0  0  0  0
  -18.8594  -30.3329   22.9081 C   0  0  0  0  0  0  0  0  0  0  0  0
  -26.4308  -13.0325   21.4408 C   0  0  0  0  0  0  0  0  0  0  0  0
  -25.1068  -14.5687   20.1277 C   0  0  0  0  0  0  0  0  0  0  0  0
  -17.1216  -28.6707   23.0891 C   0  0  0  0  0  0  0  0  0  0  0  0
  -19.8203  -29.3225   22.8930 C   0  0  0  0  0  0  0  0  0  0  0  0
  -25.0967  -29.3063   19.7841 C   0  0  0  0  0  0  0  0  0  0  0  0
  -25.6868  -11.9639   20.9408 C   0  0  0  0  0  0  0  0  0  0  0  0
  -24.3628  -13.5000   19.6277 C   0  0  0  0  0  0  0  0  0  0  0  0
  -26.4073  -29.5989   20.1591 C   0  0  0  0  0  0  0  0  0  0  0  0
  -23.9007   -8.8649   20.2848 C   0  0  0  0  0  0  0  0  0  0  0  0
  -23.4709   -7.8931   21.1883 C   0  0  0  0  0  0  0  0  0  0  0  0
  -26.8223  -27.2500   20.5190 C   0  0  0  0  0  0  0  0  0  0  0  0
  -22.2390   -9.5741   22.4105 C   0  0  0  0  0  0  0  0  0  0  0  0
  -26.1408  -14.3350   21.0343 C   0  0  0  0  0  0  0  0  0  0  0  0
  -28.0849  -15.9863   21.0042 C   0  0  0  0  0  0  0  0  0  0  0  0
  -18.0776  -27.6430   23.0652 C   0  0  0  0  0  0  0  0  0  0  0  0
  -24.6351  -27.9822   19.7842 C   0  0  0  0  0  0  0  0  0  0  0  0
  -19.4439  -27.9712   22.9765 C   0  0  0  0  0  0  0  0  0  0  0  0
  -25.5063  -26.9430   20.1411 C   0  0  0  0  0  0  0  0  0  0  0  0
  -24.6528  -12.1976   20.0343 C   0  0  0  0  0  0  0  0  0  0  0  0
  -27.2695  -28.5710   20.5294 C   0  0  0  0  0  0  0  0  0  0  0  0
  -23.4998  -10.1914   20.4442 C   0  0  0  0  0  0  0  0  0  0  0  0
  -22.6400   -8.2476   22.2511 C   0  0  0  0  0  0  0  0  0  0  0  0
  -22.6688  -10.5460   21.5070 C   0  0  0  0  0  0  0  0  0  0  0  0
  -26.9086  -15.4394   21.5509 C   0  0  0  0  0  0  0  0  0  0  0  0
  -28.4190  -17.0072   21.8602 C   0  0  0  0  0  0  0  0  0  0  0  0
  -28.2735  -23.1399   23.5999 C   0  0  0  0  0  0  0  0  0  0  0  0
  -29.4250  -24.9654   22.6466 C   0  0  0  0  0  0  0  0  0  0  0  0
  -28.8108  -15.6056   19.8278 C   0  0  0  0  0  0  0  0  0  0  0  0
  -22.3617  -26.3993   21.3430 C   0  0  0  0  0  0  0  0  0  0  0  0
  -23.2094  -23.9910   19.3420 C   0  0  0  0  0  0  0  0  0  0  0  0
  -25.5955  -22.5860   17.3472 C   0  0  0  0  0  0  0  0  0  0  0  0
  -27.0259  -21.4214   24.9549 C   0  0  0  0  0  0  0  0  0  0  0  0
  -17.6121  -26.2152   23.2045 C   0  0  0  0  0  0  0  0  0  0  0  0
  -23.2266  -27.6806   19.3514 C   0  0  0  0  0  0  0  0  0  0  0  0
  -25.0657  -25.5027   20.1384 C   0  0  0  0  0  0  0  0  0  0  0  0
  -18.6685  -25.1884   22.8044 C   0  0  0  0  0  0  0  0  0  0  0  0
  -26.5933  -18.2080   26.4260 C   0  0  0  0  0  0  0  0  0  0  0  0
  -20.0164  -25.5391   23.4266 C   0  0  0  0  0  0  0  0  0  0  0  0
  -26.7336  -17.2462   25.2438 C   0  0  0  0  0  0  0  0  0  0  0  0
  -25.8765  -19.4966   26.0268 C   0  0  0  0  0  0  0  0  0  0  0  0
  -26.5879  -19.2289   23.6834 C   0  0  0  0  0  0  0  0  0  0  0  0
  -20.5144  -26.9025   22.9320 C   0  0  1  0  0  0  0  0  0  0  0  0
  -22.7110  -26.3466   19.8825 C   0  0  1  0  0  0  0  0  0  0  0  0
  -27.3613  -17.9438   24.0212 C   0  0  2  0  0  0  0  0  0  0  0  0
  -26.0091  -20.5988   15.8716 C   0  0  0  0  0  0  0  0  0  0  0  0
  -31.7708  -27.0373   23.1261 C   0  0  0  0  0  0  0  0  0  0  0  0
  -29.9238  -29.1925   18.9593 C   0  0  0  0  0  0  0  0  0  0  0  0
  -23.5794  -22.2374   21.8114 C   0  0  0  0  0  0  0  0  0  0  0  0
  -24.8711  -20.6305   20.3910 C   0  0  0  0  0  0  0  0  0  0  0  0
  -22.4749  -21.0977   19.8786 C   0  0  0  0  0  0  0  0  0  0  0  0
  -26.0148  -24.2945   14.9672 C   0  0  0  0  0  0  0  0  0  0  0  0
  -30.8191  -28.0401   21.0163 C   0  0  0  0  0  0  0  0  0  0  0  0
  -24.2147  -22.8657   19.3891 C   0  0  1  0  0  0  0  0  0  0  0  0
  -25.5320  -22.0415   15.9315 C   0  0  2  0  0  0  0  0  0  0  0  0
  -30.5291  -27.1672   22.2481 C   0  0  1  0  0  0  0  0  0  0  0  0
  -29.5923  -28.2649   20.1214 C   0  0  1  0  0  0  0  0  0  1  0  0
  -23.7931  -21.7351   20.3696 C   0  0  0  0  0  0  0  0  0  0  0  0
  -26.5215  -16.0612   22.6678 N   0  0  0  0  0  0  0  0  0  0  0  0
  -28.3905  -24.1394   24.4479 N   0  0  0  0  0  0  0  0  0  0  0  0
  -29.0651  -25.2105   23.8884 N   0  0  0  0  0  0  0  0  0  0  0  0
  -27.4600  -17.0094   22.8299 N   0  0  0  0  0  0  0  0  0  0  0  0
  -23.6772  -25.2594   19.7135 N   0  0  0  0  0  0  0  0  0  0  0  0
  -26.5290  -20.1039   24.8648 N   0  0  0  0  0  0  0  0  0  0  0  0
  -29.4366  -17.8942   21.8704 N   0  0  0  0  0  0  0  0  0  0  0  0
  -28.3288  -14.5349   19.0626 N   0  0  0  0  0  0  0  0  0  0  0  0
  -27.6549  -21.8807   23.7982 N   0  0  0  0  0  0  0  0  0  0  0  0
  -30.1136  -25.8446   21.8301 N   0  0  0  0  0  0  0  0  0  0  0  0
  -21.0599  -26.7872   21.5965 N   0  0  0  0  0  0  0  0  0  0  0  0
  -24.3977  -22.4239   18.0108 N   0  0  0  0  0  0  0  0  0  0  0  0
  -26.3873  -22.8575   15.0239 N   0  3  0  0  0  0  0  0  0  0  0  0
  -29.8649  -16.1869   19.4749 O   0  0  0  0  0  0  0  0  0  0  0  0
  -23.2101  -26.1081   22.1779 O   0  0  0  0  0  0  0  0  0  0  0  0
  -22.0535  -23.7546   18.9818 O   0  0  0  0  0  0  0  0  0  0  0  0
  -26.6075  -23.0999   17.8184 O   0  0  0  0  0  0  0  0  0  0  0  0
  -26.9265  -22.0829   25.9915 O   0  0  0  0  0  0  0  0  0  0  0  0
  -23.9267  -11.1550   19.5460 O   0  0  0  0  0  0  0  0  0  0  0  0
  -28.5489  -28.8539   20.8965 O   0  0  0  0  0  0  0  0  0  1  0  0
  -22.2260   -7.3139   23.1177 F   0  0  0  0  0  0  0  0  0  0  0  0
  -22.2794  -11.8185   21.6646 F   0  0  0  0  0  0  0  0  0  0  0  0
  -28.9737  -23.4186   22.0591 S   0  0  0  0  0  0  0  0  0  0  0  0
  1  2  1  0  0  0  0
  1  5  2  0  0  0  0
  2  6  2  0  0  0  0
  3  8  2  0  0  0  0
  3 15  1  0  0  0  0
  4  9  1  0  0  0  0
  4 15  2  0  0  0  0
  5 17  1  0  0  0  0
  6 19  1  0  0  0  0
  7 10  2  0  0  0  0
  7 18  1  0  0  0  0
  8 21  1  0  0  0  0
  9 21  2  0  0  0  0
 10 22  1  0  0  0  0
 11 12  2  0  0  0  0
 11 23  1  0  0  0  0
 12 24  1  0  0  0  0
 13 20  1  0  0  0  0
 13 22  2  0  0  0  0
 14 24  2  0  0  0  0
 14 25  1  0  0  0  0
 15 26  1  0  0  0  0
 16 26  1  0  0  0  0
 16 27  2  0  0  0  0
 16 30  1  0  0  0  0
 17 19  2  0  0  0  0
 17 35  1  0  0  0  0
 18 20  2  0  0  0  0
 18 36  1  0  0  0  0
 19 44  1  0  0  0  0
 20 37  1  0  0  0  0
 21 78  1  0  0  0  0
 22 79  1  0  0  0  0
 23 25  2  0  0  0  0
 23 78  1  0  0  0  0
 24 80  1  0  0  0  0
 25 81  1  0  0  0  0
 26 60  2  0  0  0  0
 27 63  1  0  0  0  0
 27 66  1  0  0  0  0
 28 61  2  0  0  0  0
 28 68  1  0  0  0  0
 28 82  1  0  0  0  0
 29 62  2  0  0  0  0
 29 69  1  0  0  0  0
 29 82  1  0  0  0  0
 30 67  1  0  0  0  0
 30 73  2  0  0  0  0
 31 45  1  0  0  0  0
 31 70  1  0  0  0  0
 31 74  2  0  0  0  0
 32 55  1  0  0  0  0
 32 64  1  0  0  0  0
 32 75  2  0  0  0  0
 33 56  1  0  0  0  0
 33 71  1  0  0  0  0
 33 76  2  0  0  0  0
 34 65  1  0  0  0  0
 34 68  1  0  0  0  0
 34 77  2  0  0  0  0
 35 38  1  0  0  0  0
 36 45  1  0  0  0  0
 37 64  1  0  0  0  0
 38 40  1  0  0  0  0
 39 41  1  0  0  0  0
 39 42  1  0  0  0  0
 40 44  1  0  0  0  0
 41 46  1  0  0  0  0
 42 65  1  0  0  0  0
 43 46  1  0  0  0  0
 43 65  1  0  0  0  0
 44 70  1  0  0  0  0
 45 64  1  0  0  0  0
 46 63  1  0  0  0  0
 47 56  1  0  0  0  0
 48 57  1  0  0  0  0
 49 58  1  0  0  0  0
 50 59  1  0  0  0  0
 51 59  1  0  0  0  0
 52 59  1  0  0  0  0
 53 72  1  0  0  0  0
 54 57  1  0  0  0  0
 54 58  1  0  0  0  0
 55 59  1  0  0  0  0
 55 71  1  0  0  0  0
 56 72  1  0  0  0  0
 57 69  1  0  0  0  0
 58 79  1  0  0  0  0
 60 63  1  0  0  0  0
 61 62  1  0  0  0  0
M  CHG  1  72   1
M  ISO  4  34 100  58 101  68 100  79 101
M  END
> <Batch ID>
0197

> <Smiles>
CNC(C)C(=O)NC(C(=O)N1Cc2cc([101O:1][101CH:1](C)CC(C)Nc3nnc([100NH:0][100C:0](=O)N4CCCC(n5nc(-c6ccc(Oc7ccc(F)cc7F)cc6)c(C(N)=O)c5N)C4)s3)ccc2CC1C(=O)NC1CCCc2ccccc21)C(C)(C)C

> <Shape>
0.205

> <Color>
0.064

> <Negative vol penalty>
0.000

$$$$

  -OEChem-04052305413D

 84 92  0     1  0  0  0  0  0999 V2000
  -24.9463  -20.0988   14.1368 C   0  0  0  0  0  0  0  0  0  0  0  0
  -25.9936  -19.3798   14.7039 C   0  0  0  0  0  0  0  0  0  0  0  0
  -25.4838  -26.7536   19.2136 C   0  0  0  0  0  0  0  0  0  0  0  0
  -26.8182  -27.1170   21.1946 C   0  0  0  0  0  0  0  0  0  0  0  0
  -23.8075  -20.3808   14.8901 C   0  0  0  0  0  0  0  0  0  0  0  0
  -25.9031  -18.9434   16.0252 C   0  0  0  0  0  0  0  0  0  0  0  0
  -28.1606  -13.7460   18.3483 C   0  0  0  0  0  0  0  0  0  0  0  0
  -25.4507  -28.1289   18.9835 C   0  0  0  0  0  0  0  0  0  0  0  0
  -26.7851  -28.4924   20.9645 C   0  0  0  0  0  0  0  0  0  0  0  0
  -29.3259  -13.4651   19.0603 C   0  0  0  0  0  0  0  0  0  0  0  0
  -26.7500  -32.1243   21.0996 C   0  0  0  0  0  0  0  0  0  0  0  0
  -26.4911  -32.9576   22.1878 C   0  0  0  0  0  0  0  0  0  0  0  0
  -28.0976  -13.6427   21.1288 C   0  0  0  0  0  0  0  0  0  0  0  0
  -24.3537  -31.8773   22.5066 C   0  0  0  0  0  0  0  0  0  0  0  0
  -27.9064  -16.4732   23.5480 C   0  0  0  0  0  0  0  0  0  0  0  0
  -26.1676  -26.2476   20.3191 C   0  0  0  0  0  0  0  0  0  0  0  0
  -27.1567  -23.9081   20.0831 C   0  0  0  0  0  0  0  0  0  0  0  0
  -23.6989  -19.9393   16.2183 C   0  0  0  0  0  0  0  0  0  0  0  0
  -26.9553  -13.9885   19.0228 C   0  0  0  0  0  0  0  0  0  0  0  0
  -24.7624  -19.2209   16.7975 C   0  0  0  0  0  0  0  0  0  0  0  0
  -26.9178  -13.9239   20.4230 C   0  0  0  0  0  0  0  0  0  0  0  0
  -26.1013  -28.9983   19.8590 C   0  0  0  0  0  0  0  0  0  0  0  0
  -29.2951  -13.4163   20.4509 C   0  0  0  0  0  0  0  0  0  0  0  0
  -25.8106  -31.1675   20.7148 C   0  0  0  0  0  0  0  0  0  0  0  0
  -25.2931  -32.8341   22.8913 C   0  0  0  0  0  0  0  0  0  0  0  0
  -24.6126  -31.0440   21.4183 C   0  0  0  0  0  0  0  0  0  0  0  0
  -26.2017  -24.8270   20.5576 C   0  0  0  0  0  0  0  0  0  0  0  0
  -27.8675  -17.5501   24.4087 C   0  0  0  0  0  0  0  0  0  0  0  0
  -26.7457  -22.6967   20.5832 C   0  0  0  0  0  0  0  0  0  0  0  0
  -29.9820  -17.1466   23.3277 C   0  0  0  0  0  0  0  0  0  0  0  0
  -28.3122  -24.1297   19.2636 C   0  0  0  0  0  0  0  0  0  0  0  0
  -24.9642  -16.4566   19.2409 C   0  0  0  0  0  0  0  0  0  0  0  0
  -23.1462  -14.3433   20.8995 C   0  0  0  0  0  0  0  0  0  0  0  0
  -22.9989  -11.5013   22.7833 C   0  0  0  0  0  0  0  0  0  0  0  0
  -24.8173  -19.5663   24.7817 C   0  0  0  0  0  0  0  0  0  0  0  0
  -22.4684  -20.3091   17.0080 C   0  0  0  0  0  0  0  0  0  0  0  0
  -25.7014  -14.2637   18.2391 C   0  0  0  0  0  0  0  0  0  0  0  0
  -25.6450  -14.1567   21.1937 C   0  0  0  0  0  0  0  0  0  0  0  0
  -22.2930  -19.4878   18.2827 C   0  0  0  0  0  0  0  0  0  0  0  0
  -22.4259  -21.3671   22.8543 C   0  0  0  0  0  0  0  0  0  0  0  0
  -23.6083  -19.4074   19.0511 C   0  0  0  0  0  0  0  0  0  0  0  0
  -23.2730  -22.3556   22.0510 C   0  0  0  0  0  0  0  0  0  0  0  0
  -22.9880  -21.1525   24.2578 C   0  0  0  0  0  0  0  0  0  0  0  0
  -25.2560  -21.7479   23.4992 C   0  0  0  0  0  0  0  0  0  0  0  0
  -24.6911  -18.7090   18.2198 C   0  0  1  0  0  0  0  0  0  0  0  0
  -24.6403  -15.0019   19.0493 C   0  0  1  0  0  0  0  0  0  0  0  0
  -24.7603  -21.9540   22.0577 C   0  0  2  0  0  0  0  0  0  0  0  0
  -21.3784  -10.0453   24.0288 C   0  0  0  0  0  0  0  0  0  0  0  0
  -33.2858  -15.1708   23.7483 C   0  0  0  0  0  0  0  0  0  0  0  0
  -33.0705  -16.9431   21.2724 C   0  0  0  0  0  0  0  0  0  0  0  0
  -23.0353  -16.3981   23.1524 C   0  0  0  0  0  0  0  0  0  0  0  0
  -22.2540  -14.5762   24.6816 C   0  0  0  0  0  0  0  0  0  0  0  0
  -20.8740  -15.2215   22.7063 C   0  0  0  0  0  0  0  0  0  0  0  0
  -23.6117   -9.1613   21.0780 C   0  0  0  0  0  0  0  0  0  0  0  0
  -26.7500  -18.0720   25.2188 C   0  0  0  0  0  0  0  0  0  0  0  0
  -32.6867  -13.8412   21.6605 C   0  0  0  0  0  0  0  0  0  0  0  0
  -31.6670  -13.5499   20.5621 C   0  0  0  0  0  0  0  0  0  1  0  0
  -23.0265  -13.9439   22.3504 C   0  0  1  0  0  0  0  0  0  0  0  0
  -22.0897  -10.2881   22.7067 C   0  0  2  0  0  0  0  0  0  0  0  0
  -32.2380  -14.9376   22.6499 C   0  0  2  0  0  0  0  0  0  0  0  0
  -31.8792  -16.2789   21.9590 C   0  0  1  0  0  0  0  0  0  0  0  0
  -22.3220  -15.0324   23.2085 C   0  0  0  0  0  0  0  0  0  0  0  0
  -29.1180  -16.2405   22.9268 N   0  0  0  0  0  0  0  0  0  0  0  0
  -25.2551  -24.2489   21.3019 N   0  0  0  0  0  0  0  0  0  0  0  0
  -25.6134  -22.9536   21.2987 N   0  0  0  0  0  0  0  0  0  0  0  0
  -24.4467  -14.4283   20.3826 N   0  0  0  0  0  0  0  0  0  0  0  0
  -24.4013  -20.7722   24.1937 N   0  0  0  0  0  0  0  0  0  0  0  0
  -27.2460  -21.4474   20.4763 N   0  0  0  0  0  0  0  0  0  0  0  0
  -28.5882  -25.4359   18.8371 N   0  0  0  0  0  0  0  0  0  0  0  0
  -31.2962  -17.2115   22.9026 N   0  0  0  0  0  0  0  0  0  0  0  0
  -24.4924  -17.2756   18.2329 N   0  0  0  0  0  0  0  0  0  0  0  0
  -22.3577  -12.6474   22.3632 N   0  0  0  0  0  0  0  0  0  0  0  0
  -26.1721  -19.2786   24.6702 N   0  0  0  0  0  0  0  0  0  0  0  0
  -22.8785   -9.0702   22.3669 N   0  3  0  0  0  0  0  0  0  0  0  0
  -29.0679  -23.1945   18.9062 O   0  0  0  0  0  0  0  0  0  0  0  0
  -25.5942  -16.8100   20.2308 O   0  0  0  0  0  0  0  0  0  0  0  0
  -22.1231  -14.5644   20.2468 O   0  0  0  0  0  0  0  0  0  0  0  0
  -24.1606  -11.4392   23.1798 O   0  0  0  0  0  0  0  0  0  0  0  0
  -24.0380  -18.8000   25.3584 O   0  0  0  0  0  0  0  0  0  0  0  0
  -26.0694  -30.3404   19.6347 O   0  0  0  0  0  0  0  0  0  0  0  0
  -30.4312  -13.1430   21.1484 O   0  0  0  0  0  0  0  0  0  1  0  0
  -25.0453  -33.6333   23.9373 F   0  0  0  0  0  0  0  0  0  0  0  0
  -23.7068  -30.1260   21.0541 F   0  0  0  0  0  0  0  0  0  0  0  0
  -29.4052  -18.3084   24.4513 S   0  0  0  0  0  0  0  0  0  0  0  0
  1  2  1  0  0  0  0
  1  5  2  0  0  0  0
  2  6  2  0  0  0  0
  3  8  2  0  0  0  0
  3 16  1  0  0  0  0
  4  9  1  0  0  0  0
  4 16  2  0  0  0  0
  5 18  1  0  0  0  0
  6 20  1  0  0  0  0
  7 10  2  0  0  0  0
  7 19  1  0  0  0  0
  8 22  1  0  0  0  0
  9 22  2  0  0  0  0
 10 23  1  0  0  0  0
 11 12  2  0  0  0  0
 11 24  1  0  0  0  0
 12 25  1  0  0  0  0
 13 21  1  0  0  0  0
 13 23  2  0  0  0  0
 14 25  2  0  0  0  0
 14 26  1  0  0  0  0
 15 28  2  0  0  0  0
 15 63  1  0  0  0  0
 16 27  1  0  0  0  0
 17 27  1  0  0  0  0
 17 29  2  0  0  0  0
 17 31  1  0  0  0  0
 18 20  2  0  0  0  0
 18 36  1  0  0  0  0
 19 21  2  0  0  0  0
 19 37  1  0  0  0  0
 20 45  1  0  0  0  0
 21 38  1  0  0  0  0
 22 80  1  0  0  0  0
 23 81  1  0  0  0  0
 24 26  2  0  0  0  0
 24 80  1  0  0  0  0
 25 82  1  0  0  0  0
 26 83  1  0  0  0  0
 27 64  2  0  0  0  0
 28 55  1  0  0  0  0
 28 84  1  0  0  0  0
 29 65  1  0  0  0  0
 29 68  1  0  0  0  0
 30 63  2  0  0  0  0
 30 70  1  0  0  0  0
 30 84  1  0  0  0  0
 31 69  1  0  0  0  0
 31 75  2  0  0  0  0
 32 46  1  0  0  0  0
 32 71  1  0  0  0  0
 32 76  2  0  0  0  0
 33 58  1  0  0  0  0
 33 66  1  0  0  0  0
 33 77  2  0  0  0  0
 34 59  1  0  0  0  0
 34 72  1  0  0  0  0
 34 78  2  0  0  0  0
 35 67  1  0  0  0  0
 35 73  1  0  0  0  0
 35 79  2  0  0  0  0
 36 39  1  0  0  0  0
 37 46  1  0  0  0  0
 38 66  1  0  0  0  0
 39 41  1  0  0  0  0
 40 42  1  0  0  0  0
 40 43  1  0  0  0  0
 41 45  1  0  0  0  0
 42 47  1  0  0  0  0
 43 67  1  0  0  0  0
 44 47  1  0  0  0  0
 44 67  1  0  0  0  0
 45 71  1  0  0  0  0
 46 66  1  0  0  0  0
 47 65  1  0  0  0  0
 48 59  1  0  0  0  0
 49 60  1  0  0  0  0
 50 61  1  0  0  0  0
 51 62  1  0  0  0  0
 52 62  1  0  0  0  0
 53 62  1  0  0  0  0
 54 74  1  0  0  0  0
 55 73  1  0  0  0  0
 56 57  1  0  0  0  0
 56 60  1  0  0  0  0
 57 81  1  0  0  0  0
 58 62  1  0  0  0  0
 58 72  1  0  0  0  0
 59 74  1  0  0  0  0
 60 61  1  0  0  0  0
 61 70  1  0  0  0  0
 64 65  1  0  0  0  0
M  CHG  1  74   1
M  ISO  4  35 100  57 101  73 100  81 101
M  END
> <Batch ID>
0197

> <Smiles>
CNC(C)C(=O)NC(C(=O)N1Cc2cc([101O:1][101CH2:1]CC(C)C(C)Nc3ncc(C[100NH:0][100C:0](=O)N4CCCC(n5nc(-c6ccc(Oc7ccc(F)cc7F)cc6)c(C(N)=O)c5N)C4)s3)ccc2CC1C(=O)NC1CCCc2ccccc21)C(C)(C)C

> <Shape>
0.199

> <Color>
0.065

> <Negative vol penalty>
0.000

$$$$

  -OEChem-04052305413D

 81 89  0     1  0  0  0  0  0999 V2000
  -24.4824  -35.4883   22.6913 C   0  0  0  0  0  0  0  0  0  0  0  0
  -25.2844  -34.3633   22.5280 C   0  0  0  0  0  0  0  0  0  0  0  0
  -24.6285  -12.0406   21.5139 C   0  0  0  0  0  0  0  0  0  0  0  0
  -25.1167  -12.1636   19.1509 C   0  0  0  0  0  0  0  0  0  0  0  0
  -23.2011  -35.3580   23.2253 C   0  0  0  0  0  0  0  0  0  0  0  0
  -24.8059  -33.1074   22.8996 C   0  0  0  0  0  0  0  0  0  0  0  0
  -25.7876  -29.5501   19.4317 C   0  0  0  0  0  0  0  0  0  0  0  0
  -23.9258  -10.8536   21.3069 C   0  0  0  0  0  0  0  0  0  0  0  0
  -24.4140  -10.9766   18.9440 C   0  0  0  0  0  0  0  0  0  0  0  0
  -27.0836  -29.0373   19.3947 C   0  0  0  0  0  0  0  0  0  0  0  0
  -22.3096   -7.6007   21.4541 C   0  0  0  0  0  0  0  0  0  0  0  0
  -22.5386   -6.5484   22.3406 C   0  0  0  0  0  0  0  0  0  0  0  0
  -26.3470  -27.1025   20.6329 C   0  0  0  0  0  0  0  0  0  0  0  0
  -24.8726   -6.5308   21.7165 C   0  0  0  0  0  0  0  0  0  0  0  0
  -31.3088  -21.8105   17.9560 C   0  0  0  0  0  0  0  0  0  0  0  0
  -25.2239  -12.6956   20.4359 C   0  0  0  0  0  0  0  0  0  0  0  0
  -27.3202  -14.0595   20.9391 C   0  0  0  0  0  0  0  0  0  0  0  0
  -22.7030  -34.0986   23.5947 C   0  0  0  0  0  0  0  0  0  0  0  0
  -24.7622  -28.8468   20.0801 C   0  0  0  0  0  0  0  0  0  0  0  0
  -23.5172  -32.9603   23.4404 C   0  0  0  0  0  0  0  0  0  0  0  0
  -25.0383  -27.6073   20.6745 C   0  0  0  0  0  0  0  0  0  0  0  0
  -23.8185  -10.3216   20.0220 C   0  0  0  0  0  0  0  0  0  0  0  0
  -27.3641  -27.8148   19.9979 C   0  0  0  0  0  0  0  0  0  0  0  0
  -23.3620   -8.1180   20.6988 C   0  0  0  0  0  0  0  0  0  0  0  0
  -23.8201   -6.0135   22.4718 C   0  0  0  0  0  0  0  0  0  0  0  0
  -24.6435   -7.5831   20.8300 C   0  0  0  0  0  0  0  0  0  0  0  0
  -25.9495  -13.9221   20.6490 C   0  0  0  0  0  0  0  0  0  0  0  0
  -30.3841  -22.8074   18.1866 C   0  0  0  0  0  0  0  0  0  0  0  0
  -27.5137  -15.4149   21.0488 C   0  0  0  0  0  0  0  0  0  0  0  0
  -29.0997  -21.0714   18.5694 C   0  0  0  0  0  0  0  0  0  0  0  0
  -28.3283  -13.0521   21.0953 C   0  0  0  0  0  0  0  0  0  0  0  0
  -22.8594  -29.4330   22.5579 C   0  0  0  0  0  0  0  0  0  0  0  0
  -21.4663  -26.6482   21.6489 C   0  0  0  0  0  0  0  0  0  0  0  0
  -21.7551  -23.6569   20.0317 C   0  0  0  0  0  0  0  0  0  0  0  0
  -26.7103  -20.6134   19.2231 C   0  0  0  0  0  0  0  0  0  0  0  0
  -21.3294  -34.0136   24.2116 C   0  0  0  0  0  0  0  0  0  0  0  0
  -23.3638  -29.4008   20.0880 C   0  0  0  0  0  0  0  0  0  0  0  0
  -23.9685  -26.8034   21.3657 C   0  0  0  0  0  0  0  0  0  0  0  0
  -20.7573  -32.5985   24.2320 C   0  0  0  0  0  0  0  0  0  0  0  0
  -24.1733  -19.2104   21.2901 C   0  0  0  0  0  0  0  0  0  0  0  0
  -21.8023  -31.6074   24.7343 C   0  0  0  0  0  0  0  0  0  0  0  0
  -24.5220  -17.7208   21.3314 C   0  0  0  0  0  0  0  0  0  0  0  0
  -24.4601  -19.8222   19.9200 C   0  0  0  0  0  0  0  0  0  0  0  0
  -26.1688  -18.1096   19.4542 C   0  0  0  0  0  0  0  0  0  0  0  0
  -23.0244  -31.5777   23.8086 C   0  0  1  0  0  0  0  0  0  0  0  0
  -22.5071  -28.8444   21.2211 C   0  0  1  0  0  0  0  0  0  0  0  0
  -25.9579  -17.4641   20.8335 C   0  0  2  0  0  0  0  0  0  0  0  0
  -20.4596  -21.5770   19.4905 C   0  0  0  0  0  0  0  0  0  0  0  0
  -21.8521  -25.6658   24.5117 C   0  0  0  0  0  0  0  0  0  0  0  0
  -21.4394  -23.3358   23.6938 C   0  0  0  0  0  0  0  0  0  0  0  0
  -19.6508  -25.0626   23.4895 C   0  0  0  0  0  0  0  0  0  0  0  0
  -21.9819  -24.1339   17.1197 C   0  0  0  0  0  0  0  0  0  0  0  0
  -29.7111  -25.2063   18.3198 C   0  0  0  0  0  0  0  0  0  0  0  0
  -29.4332  -27.6551   18.8364 C   0  0  0  0  0  0  0  0  0  1  0  0
  -21.6751  -25.1903   21.9802 C   0  0  1  0  0  0  0  0  0  0  0  0
  -20.8569  -22.9676   19.0205 C   0  0  2  0  0  0  0  0  0  0  0  0
  -30.4290  -26.5296   18.5781 C   0  0  1  0  0  0  0  0  0  0  0  0
  -21.1752  -24.8295   23.4076 C   0  0  0  0  0  0  0  0  0  0  0  0
  -25.3170  -15.0964   20.5790 N   0  0  0  0  0  0  0  0  0  0  0  0
  -29.1167  -22.3854   18.5380 N   0  0  0  0  0  0  0  0  0  0  0  0
  -26.2946  -15.9847   20.8267 N   0  0  0  0  0  0  0  0  0  0  0  0
  -22.6184  -27.3902   21.3522 N   0  0  0  0  0  0  0  0  0  0  0  0
  -25.8396  -19.5424   19.5155 N   0  0  0  0  0  0  0  0  0  0  0  0
  -28.6060  -16.1630   21.3127 N   0  0  0  0  0  0  0  0  0  0  0  0
  -27.9582  -11.7082   20.9496 N   0  0  0  0  0  0  0  0  0  0  0  0
  -30.6758  -24.1567   18.0795 N   0  0  0  0  0  0  0  0  0  0  0  0
  -28.0058  -20.2266   18.8816 N   0  0  0  0  0  0  0  0  0  0  0  0
  -22.7373  -30.8082   22.6170 N   0  0  0  0  0  0  0  0  0  0  0  0
  -21.0315  -24.4328   20.9124 N   0  0  0  0  0  0  0  0  0  0  0  0
  -21.5552  -22.8392   17.7102 N   0  3  0  0  0  0  0  0  0  0  0  0
  -29.5187  -13.3345   21.3726 O   0  0  0  0  0  0  0  0  0  0  0  0
  -23.2144  -28.6941   23.4688 O   0  0  0  0  0  0  0  0  0  0  0  0
  -20.3224  -27.1100   21.6462 O   0  0  0  0  0  0  0  0  0  0  0  0
  -22.9762  -23.5177   20.0419 O   0  0  0  0  0  0  0  0  0  0  0  0
  -26.3419  -21.7884   19.2984 O   0  0  0  0  0  0  0  0  0  0  0  0
  -31.2476  -26.3976   19.7421 O   0  0  0  0  0  0  0  0  0  0  0  0
  -23.1331   -9.1632   19.8197 O   0  0  0  0  0  0  0  0  0  0  0  0
  -28.6283  -27.3124   19.9638 O   0  0  0  0  0  0  0  0  0  1  0  0
  -24.0403   -5.0040   23.3243 F   0  0  0  0  0  0  0  0  0  0  0  0
  -25.6587   -8.0766   20.1079 F   0  0  0  0  0  0  0  0  0  0  0  0
  -30.5731  -20.2786   18.1876 S   0  0  0  0  0  0  0  0  0  0  0  0
  1  2  1  0  0  0  0
  1  5  2  0  0  0  0
  2  6  2  0  0  0  0
  3  8  2  0  0  0  0
  3 16  1  0  0  0  0
  4  9  1  0  0  0  0
  4 16  2  0  0  0  0
  5 18  1  0  0  0  0
  6 20  1  0  0  0  0
  7 10  2  0  0  0  0
  7 19  1  0  0  0  0
  8 22  1  0  0  0  0
  9 22  2  0  0  0  0
 10 23  1  0  0  0  0
 11 12  2  0  0  0  0
 11 24  1  0  0  0  0
 12 25  1  0  0  0  0
 13 21  1  0  0  0  0
 13 23  2  0  0  0  0
 14 25  2  0  0  0  0
 14 26  1  0  0  0  0
 15 28  2  0  0  0  0
 15 81  1  0  0  0  0
 16 27  1  0  0  0  0
 17 27  1  0  0  0  0
 17 29  2  0  0  0  0
 17 31  1  0  0  0  0
 18 20  2  0  0  0  0
 18 36  1  0  0  0  0
 19 21  2  0  0  0  0
 19 37  1  0  0  0  0
 20 45  1  0  0  0  0
 21 38  1  0  0  0  0
 22 77  1  0  0  0  0
 23 78  1  0  0  0  0
 24 26  2  0  0  0  0
 24 77  1  0  0  0  0
 25 79  1  0  0  0  0
 26 80  1  0  0  0  0
 27 59  2  0  0  0  0
 28 60  1  0  0  0  0
 28 66  1  0  0  0  0
 29 61  1  0  0  0  0
 29 64  1  0  0  0  0
 30 60  2  0  0  0  0
 30 67  1  0  0  0  0
 30 81  1  0  0  0  0
 31 65  1  0  0  0  0
 31 71  2  0  0  0  0
 32 46  1  0  0  0  0
 32 68  1  0  0  0  0
 32 72  2  0  0  0  0
 33 55  1  0  0  0  0
 33 62  1  0  0  0  0
 33 73  2  0  0  0  0
 34 56  1  0  0  0  0
 34 69  1  0  0  0  0
 34 74  2  0  0  0  0
 35 63  1  0  0  0  0
 35 67  1  0  0  0  0
 35 75  2  0  0  0  0
 36 39  1  0  0  0  0
 37 46  1  0  0  0  0
 38 62  1  0  0  0  0
 39 41  1  0  0  0  0
 40 42  1  0  0  0  0
 40 43  1  0  0  0  0
 41 45  1  0  0  0  0
 42 47  1  0  0  0  0
 43 63  1  0  0  0  0
 44 47  1  0  0  0  0
 44 63  1  0  0  0  0
 45 68  1  0  0  0  0
 46 62  1  0  0  0  0
 47 61  1  0  0  0  0
 48 56  1  0  0  0  0
 49 58  1  0  0  0  0
 50 58  1  0  0  0  0
 51 58  1  0  0  0  0
 52 70  1  0  0  0  0
 53 57  1  0  0  0  0
 53 66  1  0  0  0  0
 54 57  1  0  0  0  0
 54 78  1  0  0  0  0
 55 58  1  0  0  0  0
 55 69  1  0  0  0  0
 56 70  1  0  0  0  0
 57 76  1  0  0  0  0
 59 61  1  0  0  0  0
M  CHG  1  70   1
M  ISO  4  35 100  54 101  67 100  78 101
M  END
> <Batch ID>
0197

> <Smiles>
CNC(C)C(=O)NC(C(=O)N1Cc2cc([101O:1][101CH2:1]C(O)CNc3csc([100NH:0][100C:0](=O)N4CCCC(n5nc(-c6ccc(Oc7ccc(F)cc7F)cc6)c(C(N)=O)c5N)C4)n3)ccc2CC1C(=O)NC1CCCc2ccccc21)C(C)(C)C

> <Shape>
0.254

> <Color>
0.085

> <Negative vol penalty>
0.000

$$$$

  -OEChem-04052305413D

 82 90  0     1  0  0  0  0  0999 V2000
  -27.5679  -38.0662   21.9134 C   0  0  0  0  0  0  0  0  0  0  0  0
  -27.7518  -36.6968   22.0755 C   0  0  0  0  0  0  0  0  0  0  0  0
  -24.3795   -9.4234   21.2561 C   0  0  0  0  0  0  0  0  0  0  0  0
  -24.9817  -10.3777   23.3923 C   0  0  0  0  0  0  0  0  0  0  0  0
  -26.3743  -38.6611   22.3200 C   0  0  0  0  0  0  0  0  0  0  0  0
  -26.7424  -35.9215   22.6453 C   0  0  0  0  0  0  0  0  0  0  0  0
  -25.9477  -31.6051   20.1191 C   0  0  0  0  0  0  0  0  0  0  0  0
  -24.0748   -8.2146   21.8819 C   0  0  0  0  0  0  0  0  0  0  0  0
  -24.6769   -9.1689   24.0182 C   0  0  0  0  0  0  0  0  0  0  0  0
  -26.8543  -30.5673   20.3307 C   0  0  0  0  0  0  0  0  0  0  0  0
  -21.5268   -6.9169   23.6865 C   0  0  0  0  0  0  0  0  0  0  0  0
  -20.3425   -6.2776   23.3199 C   0  0  0  0  0  0  0  0  0  0  0  0
  -25.3002  -29.5287   21.8557 C   0  0  0  0  0  0  0  0  0  0  0  0
  -21.6067   -4.3494   22.5982 C   0  0  0  0  0  0  0  0  0  0  0  0
  -24.8330  -10.5049   22.0113 C   0  0  0  0  0  0  0  0  0  0  0  0
  -24.2760  -12.8329   21.1294 C   0  0  0  0  0  0  0  0  0  0  0  0
  -25.3460  -37.8912   22.8863 C   0  0  0  0  0  0  0  0  0  0  0  0
  -24.7129  -31.6181   20.7836 C   0  0  0  0  0  0  0  0  0  0  0  0
  -25.5345  -36.5069   23.0611 C   0  0  0  0  0  0  0  0  0  0  0  0
  -24.3786  -30.5665   21.6488 C   0  0  0  0  0  0  0  0  0  0  0  0
  -24.2235   -8.0874   23.2629 C   0  0  0  0  0  0  0  0  0  0  0  0
  -26.5318  -29.5304   21.2013 C   0  0  0  0  0  0  0  0  0  0  0  0
  -22.7511   -6.2724   23.5088 C   0  0  0  0  0  0  0  0  0  0  0  0
  -20.3825   -4.9939   22.7758 C   0  0  0  0  0  0  0  0  0  0  0  0
  -22.7911   -4.9887   22.9647 C   0  0  0  0  0  0  0  0  0  0  0  0
  -25.1485  -11.7536   21.3653 C   0  0  0  0  0  0  0  0  0  0  0  0
  -25.0529  -13.7697   20.4929 C   0  0  0  0  0  0  0  0  0  0  0  0
  -28.8299  -18.9067   20.5644 C   0  0  0  0  0  0  0  0  0  0  0  0
  -28.2344  -21.1636   20.9090 C   0  0  0  0  0  0  0  0  0  0  0  0
  -22.8874  -12.9759   21.4565 C   0  0  0  0  0  0  0  0  0  0  0  0
  -23.3054  -33.5666   22.8636 C   0  0  0  0  0  0  0  0  0  0  0  0
  -20.7727  -31.5922   22.4059 C   0  0  0  0  0  0  0  0  0  0  0  0
  -19.6305  -28.5107   21.4860 C   0  0  0  0  0  0  0  0  0  0  0  0
  -29.7947  -16.6475   20.0061 C   0  0  0  0  0  0  0  0  0  0  0  0
  -24.0920  -38.5864   23.3540 C   0  0  0  0  0  0  0  0  0  0  0  0
  -23.7349  -32.7311   20.5240 C   0  0  0  0  0  0  0  0  0  0  0  0
  -23.0577  -30.5232   22.3710 C   0  0  0  0  0  0  0  0  0  0  0  0
  -22.9254  -37.6345   23.6051 C   0  0  0  0  0  0  0  0  0  0  0  0
  -29.7053  -13.4080   18.5315 C   0  0  0  0  0  0  0  0  0  0  0  0
  -23.3870  -36.4258   24.4130 C   0  0  0  0  0  0  0  0  0  0  0  0
  -28.4400  -12.7776   19.1179 C   0  0  0  0  0  0  0  0  0  0  0  0
  -30.4259  -14.2874   19.5518 C   0  0  0  0  0  0  0  0  0  0  0  0
  -28.3242  -14.6823   20.7748 C   0  0  0  0  0  0  0  0  0  0  0  0
  -24.4533  -35.6284   23.6523 C   0  0  1  0  0  0  0  0  0  0  0  0
  -22.7182  -32.9073   21.6477 C   0  0  1  0  0  0  0  0  0  0  0  0
  -27.5290  -13.8394   19.7645 C   0  0  2  0  0  0  0  0  0  0  0  0
  -17.5134  -27.1842   21.2503 C   0  0  0  0  0  0  0  0  0  0  0  0
  -20.6568  -31.2436   25.4349 C   0  0  0  0  0  0  0  0  0  0  0  0
  -19.2035  -29.2363   25.0783 C   0  0  0  0  0  0  0  0  0  0  0  0
  -18.4279  -31.4849   24.3266 C   0  0  0  0  0  0  0  0  0  0  0  0
  -20.0521  -28.1353   18.5808 C   0  0  0  0  0  0  0  0  0  0  0  0
  -27.2763  -24.7561   21.5060 C   0  0  0  0  0  0  0  0  0  0  0  0
  -28.1841  -23.6578   20.9525 C   0  0  0  0  0  0  0  0  0  0  0  0
  -26.8711  -27.2357   21.7257 C   0  0  0  0  0  0  0  0  0  1  0  0
  -20.2768  -30.3218   23.0533 C   0  0  1  0  0  0  0  0  0  0  0  0
  -18.5138  -28.0890   20.5481 C   0  0  2  0  0  0  0  0  0  0  0  0
  -27.8251  -26.1568   21.2228 C   0  0  2  0  0  0  0  0  0  0  0  0
  -19.6670  -30.5732   24.4613 C   0  0  0  0  0  0  0  0  0  0  0  0
  -26.3850  -11.9823   20.9152 N   0  0  0  0  0  0  0  0  0  0  0  0
  -29.7291  -19.7296   20.0682 N   0  0  0  0  0  0  0  0  0  0  0  0
  -29.3803  -21.0534   20.2713 N   0  0  0  0  0  0  0  0  0  0  0  0
  -26.2951  -13.2161   20.3899 N   0  0  0  0  0  0  0  0  0  0  0  0
  -22.1377  -31.6375   22.0890 N   0  0  0  0  0  0  0  0  0  0  0  0
  -29.5019  -15.2719   20.1190 N   0  0  0  0  0  0  0  0  0  0  0  0
  -24.7879  -15.0048   20.0167 N   0  0  0  0  0  0  0  0  0  0  0  0
  -22.2425  -11.9172   22.1103 N   0  0  0  0  0  0  0  0  0  0  0  0
  -28.8277  -17.4898   20.5539 N   0  0  0  0  0  0  0  0  0  0  0  0
  -27.6270  -22.3602   21.2542 N   0  0  0  0  0  0  0  0  0  0  0  0
  -23.8395  -34.8180   22.6223 N   0  0  0  0  0  0  0  0  0  0  0  0
  -19.3533  -29.7126   22.1023 N   0  0  0  0  0  0  0  0  0  0  0  0
  -19.0706  -27.3545   19.3770 N   0  3  0  0  0  0  0  0  0  0  0  0
  -22.2335  -14.0053   21.1625 O   0  0  0  0  0  0  0  0  0  0  0  0
  -23.2748  -32.9838   23.9411 O   0  0  0  0  0  0  0  0  0  0  0  0
  -19.9767  -32.5079   22.1828 O   0  0  0  0  0  0  0  0  0  0  0  0
  -20.6453  -27.8391   21.6578 O   0  0  0  0  0  0  0  0  0  0  0  0
  -30.8141  -17.0496   19.4393 O   0  0  0  0  0  0  0  0  0  0  0  0
  -27.9887  -26.3104   19.8131 O   0  0  0  0  0  0  0  0  0  0  0  0
  -23.9260   -6.9081   23.8740 O   0  0  0  0  0  0  0  0  0  0  0  0
  -27.4152  -28.5166   21.4102 O   0  0  0  0  0  0  0  0  0  1  0  0
  -19.2450   -4.3795   22.4253 F   0  0  0  0  0  0  0  0  0  0  0  0
  -23.9641   -4.3641   22.7927 F   0  0  0  0  0  0  0  0  0  0  0  0
  -27.4903  -19.6722   21.3134 S   0  0  0  0  0  0  0  0  0  0  0  0
  1  2  1  0  0  0  0
  1  5  2  0  0  0  0
  2  6  2  0  0  0  0
  3  8  2  0  0  0  0
  3 15  1  0  0  0  0
  4  9  1  0  0  0  0
  4 15  2  0  0  0  0
  5 17  1  0  0  0  0
  6 19  1  0  0  0  0
  7 10  2  0  0  0  0
  7 18  1  0  0  0  0
  8 21  1  0  0  0  0
  9 21  2  0  0  0  0
 10 22  1  0  0  0  0
 11 12  2  0  0  0  0
 11 23  1  0  0  0  0
 12 24  1  0  0  0  0
 13 20  1  0  0  0  0
 13 22  2  0  0  0  0
 14 24  2  0  0  0  0
 14 25  1  0  0  0  0
 15 26  1  0  0  0  0
 16 26  1  0  0  0  0
 16 27  2  0  0  0  0
 16 30  1  0  0  0  0
 17 19  2  0  0  0  0
 17 35  1  0  0  0  0
 18 20  2  0  0  0  0
 18 36  1  0  0  0  0
 19 44  1  0  0  0  0
 20 37  1  0  0  0  0
 21 78  1  0  0  0  0
 22 79  1  0  0  0  0
 23 25  2  0  0  0  0
 23 78  1  0  0  0  0
 24 80  1  0  0  0  0
 25 81  1  0  0  0  0
 26 59  2  0  0  0  0
 27 62  1  0  0  0  0
 27 65  1  0  0  0  0
 28 60  2  0  0  0  0
 28 67  1  0  0  0  0
 28 82  1  0  0  0  0
 29 61  2  0  0  0  0
 29 68  1  0  0  0  0
 29 82  1  0  0  0  0
 30 66  1  0  0  0  0
 30 72  2  0  0  0  0
 31 45  1  0  0  0  0
 31 69  1  0  0  0  0
 31 73  2  0  0  0  0
 32 55  1  0  0  0  0
 32 63  1  0  0  0  0
 32 74  2  0  0  0  0
 33 56  1  0  0  0  0
 33 70  1  0  0  0  0
 33 75  2  0  0  0  0
 34 64  1  0  0  0  0
 34 67  1  0  0  0  0
 34 76  2  0  0  0  0
 35 38  1  0  0  0  0
 36 45  1  0  0  0  0
 37 63  1  0  0  0  0
 38 40  1  0  0  0  0
 39 41  1  0  0  0  0
 39 42  1  0  0  0  0
 40 44  1  0  0  0  0
 41 46  1  0  0  0  0
 42 64  1  0  0  0  0
 43 46  1  0  0  0  0
 43 64  1  0  0  0  0
 44 69  1  0  0  0  0
 45 63  1  0  0  0  0
 46 62  1  0  0  0  0
 47 56  1  0  0  0  0
 48 58  1  0  0  0  0
 49 58  1  0  0  0  0
 50 58  1  0  0  0  0
 51 71  1  0  0  0  0
 52 53  1  0  0  0  0
 52 57  1  0  0  0  0
 53 68  1  0  0  0  0
 54 57  1  0  0  0  0
 54 79  1  0  0  0  0
 55 58  1  0  0  0  0
 55 70  1  0  0  0  0
 56 71  1  0  0  0  0
 57 77  1  0  0  0  0
 59 62  1  0  0  0  0
 60 61  1  0  0  0  0
M  CHG  1  71   1
M  ISO  4  34 100  54 101  67 100  79 101
M  END
> <Batch ID>
0197

> <Smiles>
CNC(C)C(=O)NC(C(=O)N1Cc2cc([101O:1][101CH2:1]C(O)CCNc3nnc([100NH:0][100C:0](=O)N4CCCC(n5nc(-c6ccc(Oc7ccc(F)cc7F)cc6)c(C(N)=O)c5N)C4)s3)ccc2CC1C(=O)NC1CCCc2ccccc21)C(C)(C)C

> <Shape>
0.332

> <Color>
0.148

> <Negative vol penalty>
0.000

$$$$

  -OEChem-04052305413D

 89 97  0     1  0  0  0  0  0999 V2000
  -25.1443  -11.5733   21.4104 C   0  0  0  0  0  0  0  0  0  0  0  0
  -24.9878  -12.6815   22.2367 C   0  0  0  0  0  0  0  0  0  0  0  0
  -29.9362  -20.3966   17.9483 C   0  0  0  0  0  0  0  0  0  0  0  0
  -28.6930  -20.2843   20.0168 C   0  0  0  0  0  0  0  0  0  0  0  0
  -25.2339  -11.7420   20.0293 C   0  0  0  0  0  0  0  0  0  0  0  0
  -24.9219  -13.9593   21.6824 C   0  0  0  0  0  0  0  0  0  0  0  0
  -21.8441  -20.3439   22.7223 C   0  0  0  0  0  0  0  0  0  0  0  0
  -30.4106  -19.1027   18.1631 C   0  0  0  0  0  0  0  0  0  0  0  0
  -29.1674  -18.9903   20.2317 C   0  0  0  0  0  0  0  0  0  0  0  0
  -22.1745  -21.6941   22.8297 C   0  0  0  0  0  0  0  0  0  0  0  0
  -32.0091  -17.5304   21.3380 C   0  0  0  0  0  0  0  0  0  0  0  0
  -32.4692  -17.2126   22.6159 C   0  0  0  0  0  0  0  0  0  0  0  0
  -22.2610  -21.8580   20.4245 C   0  0  0  0  0  0  0  0  0  0  0  0
  -30.7988  -15.4753   22.7852 C   0  0  0  0  0  0  0  0  0  0  0  0
  -24.2798  -29.2701   20.6421 C   0  0  0  0  0  0  0  0  0  0  0  0
  -24.6411  -31.4023   21.0664 C   0  0  0  0  0  0  0  0  0  0  0  0
  -29.0774  -20.9875   18.8752 C   0  0  0  0  0  0  0  0  0  0  0  0
  -27.4151  -22.6977   17.9700 C   0  0  0  0  0  0  0  0  0  0  0  0
  -25.1594  -13.0217   19.4571 C   0  0  0  0  0  0  0  0  0  0  0  0
  -21.7302  -19.7369   21.4633 C   0  0  0  0  0  0  0  0  0  0  0  0
  -25.0119  -14.1455   20.2925 C   0  0  0  0  0  0  0  0  0  0  0  0
  -21.9266  -20.5005   20.3038 C   0  0  0  0  0  0  0  0  0  0  0  0
  -30.0262  -18.3995   19.3048 C   0  0  0  0  0  0  0  0  0  0  0  0
  -22.3858  -22.4507   21.6807 C   0  0  0  0  0  0  0  0  0  0  0  0
  -30.9439  -16.8206   20.7837 C   0  0  0  0  0  0  0  0  0  0  0  0
  -31.8641  -16.1851   23.3395 C   0  0  0  0  0  0  0  0  0  0  0  0
  -30.3388  -15.7931   21.5073 C   0  0  0  0  0  0  0  0  0  0  0  0
  -28.5874  -22.3243   18.6541 C   0  0  0  0  0  0  0  0  0  0  0  0
  -25.6200  -29.5303   20.8057 C   0  0  0  0  0  0  0  0  0  0  0  0
  -27.4007  -24.0695   18.0368 C   0  0  0  0  0  0  0  0  0  0  0  0
  -26.4273  -21.8779   17.3313 C   0  0  0  0  0  0  0  0  0  0  0  0
  -23.2373  -17.3703   19.9695 C   0  0  0  0  0  0  0  0  0  0  0  0
  -20.9495  -17.8539   17.7213 C   0  0  0  0  0  0  0  0  0  0  0  0
  -18.6881  -19.9777   16.2992 C   0  0  0  0  0  0  0  0  0  0  0  0
  -28.0342  -28.8146   20.8804 C   0  0  0  0  0  0  0  0  0  0  0  0
  -25.3086  -13.1584   17.9625 C   0  0  0  0  0  0  0  0  0  0  0  0
  -21.3470  -18.2858   21.3639 C   0  0  0  0  0  0  0  0  0  0  0  0
  -21.7965  -19.9013   18.9281 C   0  0  0  0  0  0  0  0  0  0  0  0
  -24.8538  -14.5134   17.4264 C   0  0  0  0  0  0  0  0  0  0  0  0
  -30.9735  -27.3325   19.5235 C   0  0  0  0  0  0  0  0  0  0  0  0
  -25.4175  -15.6429   18.2828 C   0  0  0  0  0  0  0  0  0  0  0  0
  -30.5183  -25.9282   19.1200 C   0  0  0  0  0  0  0  0  0  0  0  0
  -30.3008  -27.7980   20.8136 C   0  0  0  0  0  0  0  0  0  0  0  0
  -28.3795  -26.3093   20.4113 C   0  0  0  0  0  0  0  0  0  0  0  0
  -24.9114  -15.5456   19.7270 C   0  0  1  0  0  0  0  0  0  0  0  0
  -21.7623  -17.6473   20.0421 C   0  0  1  0  0  0  0  0  0  0  0  0
  -28.9811  -25.8231   19.0826 C   0  0  2  0  0  0  0  0  0  0  0  0
  -16.9905  -20.1008   14.4552 C   0  0  0  0  0  0  0  0  0  0  0  0
  -18.8284  -26.2999   26.3746 C   0  0  0  0  0  0  0  0  0  0  0  0
  -21.3107  -26.1470   26.1025 C   0  0  0  0  0  0  0  0  0  0  0  0
  -23.1958  -18.1320   15.6751 C   0  0  0  0  0  0  0  0  0  0  0  0
  -21.5443  -19.1719   14.1069 C   0  0  0  0  0  0  0  0  0  0  0  0
  -21.2180  -16.8233   14.8816 C   0  0  0  0  0  0  0  0  0  0  0  0
  -16.4820  -20.4820   18.2065 C   0  0  0  0  0  0  0  0  0  0  0  0
  -21.5602  -30.9285   22.0963 C   0  0  0  0  0  0  0  0  0  0  0  0
  -22.0587  -26.0278   21.2772 C   0  0  0  0  0  0  0  0  0  0  0  0
  -19.9753  -27.3456   24.3430 C   0  0  0  0  0  0  0  0  0  0  0  0
  -22.2327  -30.7379   20.7327 C   0  0  0  0  0  0  0  0  0  0  0  0
  -21.6496  -29.7355   23.0418 C   0  0  0  0  0  0  0  0  0  0  0  0
  -22.2892  -24.6251   20.7223 C   0  0  0  0  0  0  0  0  0  1  0  0
  -20.8217  -18.7275   16.4967 C   0  0  1  0  0  0  0  0  0  0  0  0
  -17.2287  -19.7918   15.9251 C   0  0  2  0  0  0  0  0  0  0  0  0
  -19.9694  -26.1869   25.3633 C   0  0  0  0  0  0  0  0  0  0  0  0
  -21.0933  -27.3125   23.2839 C   0  0  1  0  0  0  0  0  0  0  0  0
  -21.0013  -26.0582   22.3890 C   0  0  1  0  0  0  0  0  0  0  0  0
  -21.6994  -18.2248   15.3159 C   0  0  0  0  0  0  0  0  0  0  0  0
  -25.8383  -30.8592   21.0699 N   0  0  0  0  0  0  0  0  0  0  0  0
  -29.2685  -23.3741   19.1210 N   0  0  0  0  0  0  0  0  0  0  0  0
  -23.6655  -30.4787   20.8124 N   0  0  0  0  0  0  0  0  0  0  0  0
  -28.5218  -24.4207   18.7296 N   0  0  0  0  0  0  0  0  0  0  0  0
  -21.4262  -18.4771   18.8833 N   0  0  0  0  0  0  0  0  0  0  0  0
  -28.8457  -27.6740   20.7031 N   0  0  0  0  0  0  0  0  0  0  0  0
  -26.5386  -24.9976   17.5699 N   0  0  0  0  0  0  0  0  0  0  0  0
  -26.5960  -20.4868   17.3563 N   0  0  0  0  0  0  0  0  0  0  0  0
  -26.6688  -28.5814   20.7196 N   0  0  0  0  0  0  0  0  0  0  0  0
  -23.5519  -16.0330   19.8201 N   0  0  0  0  0  0  0  0  0  0  0  0
  -19.3965  -18.7995   16.1936 N   0  0  0  0  0  0  0  0  0  0  0  0
  -16.3661  -20.6929   16.7405 N   0  3  0  0  0  0  0  0  0  0  0  0
  -21.0044  -28.5404   22.4413 N   0  3  0  0  0  0  0  0  0  0  0  0
  -25.4334  -22.3653   16.7413 O   0  0  0  0  0  0  0  0  0  0  0  0
  -24.0312  -18.3010   20.0421 O   0  0  0  0  0  0  0  0  0  0  0  0
  -20.6312  -16.6642   17.6513 O   0  0  0  0  0  0  0  0  0  0  0  0
  -19.1540  -21.0607   16.6465 O   0  0  0  0  0  0  0  0  0  0  0  0
  -28.5172  -29.9225   21.1277 O   0  0  0  0  0  0  0  0  0  0  0  0
  -19.6954  -25.9760   21.8202 O   0  0  0  0  0  0  0  0  0  0  0  0
  -30.4888  -17.1367   19.5146 O   0  0  0  0  0  0  0  0  0  0  0  0
  -22.7112  -23.7779   21.7834 O   0  0  0  0  0  0  0  0  0  1  0  0
  -32.3070  -15.8790   24.5660 F   0  0  0  0  0  0  0  0  0  0  0  0
  -29.3158  -15.1069   20.9797 F   0  0  0  0  0  0  0  0  0  0  0  0
  1  2  1  0  0  0  0
  1  5  2  0  0  0  0
  2  6  2  0  0  0  0
  3  8  2  0  0  0  0
  3 17  1  0  0  0  0
  4  9  1  0  0  0  0
  4 17  2  0  0  0  0
  5 19  1  0  0  0  0
  6 21  1  0  0  0  0
  7 10  2  0  0  0  0
  7 20  1  0  0  0  0
  8 23  1  0  0  0  0
  9 23  2  0  0  0  0
 10 24  1  0  0  0  0
 11 12  2  0  0  0  0
 11 25  1  0  0  0  0
 12 26  1  0  0  0  0
 13 22  1  0  0  0  0
 13 24  2  0  0  0  0
 14 26  2  0  0  0  0
 14 27  1  0  0  0  0
 15 29  2  0  0  0  0
 15 69  1  0  0  0  0
 16 67  2  0  0  0  0
 16 69  1  0  0  0  0
 17 28  1  0  0  0  0
 18 28  1  0  0  0  0
 18 30  2  0  0  0  0
 18 31  1  0  0  0  0
 19 21  2  0  0  0  0
 19 36  1  0  0  0  0
 20 22  2  0  0  0  0
 20 37  1  0  0  0  0
 21 45  1  0  0  0  0
 22 38  1  0  0  0  0
 23 86  1  0  0  0  0
 24 87  1  0  0  0  0
 25 27  2  0  0  0  0
 25 86  1  0  0  0  0
 26 88  1  0  0  0  0
 27 89  1  0  0  0  0
 28 68  2  0  0  0  0
 29 67  1  0  0  0  0
 29 75  1  0  0  0  0
 30 70  1  0  0  0  0
 30 73  1  0  0  0  0
 31 74  1  0  0  0  0
 31 80  2  0  0  0  0
 32 46  1  0  0  0  0
 32 76  1  0  0  0  0
 32 81  2  0  0  0  0
 33 61  1  0  0  0  0
 33 71  1  0  0  0  0
 33 82  2  0  0  0  0
 34 62  1  0  0  0  0
 34 77  1  0  0  0  0
 34 83  2  0  0  0  0
 35 72  1  0  0  0  0
 35 75  1  0  0  0  0
 35 84  2  0  0  0  0
 36 39  1  0  0  0  0
 37 46  1  0  0  0  0
 38 71  1  0  0  0  0
 39 41  1  0  0  0  0
 40 42  1  0  0  0  0
 40 43  1  0  0  0  0
 41 45  1  0  0  0  0
 42 47  1  0  0  0  0
 43 72  1  0  0  0  0
 44 47  1  0  0  0  0
 44 72  1  0  0  0  0
 45 76  1  0  0  0  0
 46 71  1  0  0  0  0
 47 70  1  0  0  0  0
 48 62  1  0  0  0  0
 49 63  1  0  0  0  0
 50 63  1  0  0  0  0
 51 66  1  0  0  0  0
 52 66  1  0  0  0  0
 53 66  1  0  0  0  0
 54 78  1  0  0  0  0
 55 58  1  0  0  0  0
 55 59  1  0  0  0  0
 56 60  1  0  0  0  0
 56 65  1  0  0  0  0
 57 63  1  0  0  0  0
 57 64  1  0  0  0  0
 58 69  1  0  0  0  0
 59 79  1  0  0  0  0
 60 87  1  0  0  0  0
 61 66  1  0  0  0  0
 61 77  1  0  0  0  0
 62 78  1  0  0  0  0
 64 65  1  0  0  0  0
 64 79  1  0  0  0  0
 65 85  1  0  0  0  0
 68 70  1  0  0  0  0
M  CHG  2  78   1  79   1
M  ISO  4  35 100  60 101  75 100  87 101
M  END
> <Batch ID>
0197

> <Smiles>
CNC(C)C(=O)NC(C(=O)N1Cc2cc([101O:1][101CH2:1]CC(O)C(CC(C)C)NCCCn3cnc([100NH:0][100C:0](=O)N4CCCC(n5nc(-c6ccc(Oc7ccc(F)cc7F)cc6)c(C(N)=O)c5N)C4)c3)ccc2CC1C(=O)NC1CCCc2ccccc21)C(C)(C)C

> <Shape>
0.223

> <Color>
0.063

> <Negative vol penalty>
0.000

$$$$

  -OEChem-04052305413D

 83 91  0     1  0  0  0  0  0999 V2000
  -32.1297  -32.9133   22.3870 C   0  0  0  0  0  0  0  0  0  0  0  0
  -31.2920  -32.0029   23.0232 C   0  0  0  0  0  0  0  0  0  0  0  0
  -23.1610   -9.7135   19.9222 C   0  0  0  0  0  0  0  0  0  0  0  0
  -23.8651   -9.7808   22.2324 C   0  0  0  0  0  0  0  0  0  0  0  0
  -32.3435  -32.8196   21.0125 C   0  0  0  0  0  0  0  0  0  0  0  0
  -30.6667  -30.9987   22.2848 C   0  0  0  0  0  0  0  0  0  0  0  0
  -29.4170  -25.2985   24.1426 C   0  0  0  0  0  0  0  0  0  0  0  0
  -22.4713   -8.5261   20.1670 C   0  0  0  0  0  0  0  0  0  0  0  0
  -23.1753   -8.5933   22.4772 C   0  0  0  0  0  0  0  0  0  0  0  0
  -28.2550  -24.7060   24.6351 C   0  0  0  0  0  0  0  0  0  0  0  0
  -19.9788   -7.6367   23.0132 C   0  0  0  0  0  0  0  0  0  0  0  0
  -19.1974   -7.5689   24.1666 C   0  0  0  0  0  0  0  0  0  0  0  0
  -27.7326  -23.9042   22.4207 C   0  0  0  0  0  0  0  0  0  0  0  0
  -20.5183   -5.7046   24.9519 C   0  0  0  0  0  0  0  0  0  0  0  0
  -28.3361  -18.3589   22.4526 C   0  0  0  0  0  0  0  0  0  0  0  0
  -29.9537  -18.3256   24.1374 C   0  0  0  0  0  0  0  0  0  0  0  0
  -23.8580  -10.3408   20.9549 C   0  0  0  0  0  0  0  0  0  0  0  0
  -24.0732  -12.8789   20.8163 C   0  0  0  0  0  0  0  0  0  0  0  0
  -31.7281  -31.8079   20.2585 C   0  0  0  0  0  0  0  0  0  0  0  0
  -29.7405  -25.2074   22.7812 C   0  0  0  0  0  0  0  0  0  0  0  0
  -30.8714  -30.8922   20.8987 C   0  0  0  0  0  0  0  0  0  0  0  0
  -28.9006  -24.4943   21.9140 C   0  0  0  0  0  0  0  0  0  0  0  0
  -29.5868  -17.9444   22.8629 C   0  0  0  0  0  0  0  0  0  0  0  0
  -22.4784   -7.9660   21.4445 C   0  0  0  0  0  0  0  0  0  0  0  0
  -27.4111  -24.0112   23.7736 C   0  0  0  0  0  0  0  0  0  0  0  0
  -21.0299   -6.7384   22.8290 C   0  0  0  0  0  0  0  0  0  0  0  0
  -19.4671   -6.6029   25.1360 C   0  0  0  0  0  0  0  0  0  0  0  0
  -21.2997   -5.7724   23.7984 C   0  0  0  0  0  0  0  0  0  0  0  0
  -24.5712  -11.5671   20.7026 C   0  0  0  0  0  0  0  0  0  0  0  0
  -25.1340  -13.6800   20.4706 C   0  0  0  0  0  0  0  0  0  0  0  0
  -27.9723  -19.3974   24.4416 C   0  0  0  0  0  0  0  0  0  0  0  0
  -22.7685  -13.3328   21.2003 C   0  0  0  0  0  0  0  0  0  0  0  0
  -30.1323  -27.3032   20.4237 C   0  0  0  0  0  0  0  0  0  0  0  0
  -31.0659  -24.6756   18.7665 C   0  0  0  0  0  0  0  0  0  0  0  0
  -30.9503  -21.2836   18.4085 C   0  0  0  0  0  0  0  0  0  0  0  0
  -30.5525  -14.9807   20.7751 C   0  0  0  0  0  0  0  0  0  0  0  0
  -31.9523  -31.7756   18.7674 C   0  0  0  0  0  0  0  0  0  0  0  0
  -31.0113  -25.8294   22.2706 C   0  0  0  0  0  0  0  0  0  0  0  0
  -29.2131  -24.3501   20.4477 C   0  0  0  0  0  0  0  0  0  0  0  0
  -31.5476  -30.4541   18.1192 C   0  0  0  0  0  0  0  0  0  0  0  0
  -29.5950  -12.5189   18.3878 C   0  0  0  0  0  0  0  0  0  0  0  0
  -30.1771  -30.0108   18.6212 C   0  0  0  0  0  0  0  0  0  0  0  0
  -28.1645  -12.1558   18.7904 C   0  0  0  0  0  0  0  0  0  0  0  0
  -30.4709  -12.7976   19.6072 C   0  0  0  0  0  0  0  0  0  0  0  0
  -28.5021  -13.4430   20.9417 C   0  0  0  0  0  0  0  0  0  0  0  0
  -30.1946  -29.7739   20.1362 C   0  0  1  0  0  0  0  0  0  0  0  0
  -30.9783  -26.1112   20.7717 C   0  0  1  0  0  0  0  0  0  0  0  0
  -27.5662  -13.2078   19.7437 C   0  0  2  0  0  0  0  0  0  0  0  0
  -31.5098  -19.0196   17.4819 C   0  0  0  0  0  0  0  0  0  0  0  0
  -24.8470  -19.4307   24.9705 C   0  0  0  0  0  0  0  0  0  0  0  0
  -29.0074  -25.4352   16.6463 C   0  0  0  0  0  0  0  0  0  0  0  0
  -29.2049  -23.1162   15.7235 C   0  0  0  0  0  0  0  0  0  0  0  0
  -31.1915  -24.6249   15.7366 C   0  0  0  0  0  0  0  0  0  0  0  0
  -33.2197  -20.9510   20.2788 C   0  0  0  0  0  0  0  0  0  0  0  0
  -30.4792  -17.1432   21.9905 C   0  0  0  0  0  0  0  0  0  0  0  0
  -25.3823  -21.7703   25.7352 C   0  0  0  0  0  0  0  0  0  0  0  0
  -26.2960  -22.9849   25.6064 C   0  0  0  0  0  0  0  0  0  1  0  0
  -30.3659  -23.6437   17.9155 C   0  0  1  0  0  0  0  0  0  0  0  0
  -32.0456  -20.2563   18.1865 C   0  0  2  0  0  0  0  0  0  0  0  0
  -25.8238  -20.5967   24.8553 C   0  0  1  0  0  0  0  0  0  0  0  0
  -29.9352  -24.2092   16.5327 C   0  0  0  0  0  0  0  0  0  0  0  0
  -27.4996  -19.0892   23.2189 N   0  0  0  0  0  0  0  0  0  0  0  0
  -29.1685  -19.0550   24.9570 N   0  0  0  0  0  0  0  0  0  0  0  0
  -25.8488  -11.5324   20.3147 N   0  0  0  0  0  0  0  0  0  0  0  0
  -26.1626  -12.8323   20.1817 N   0  0  0  0  0  0  0  0  0  0  0  0
  -30.4639  -24.9812   19.9953 N   0  0  0  0  0  0  0  0  0  0  0  0
  -29.8478  -13.8047   20.4694 N   0  0  0  0  0  0  0  0  0  0  0  0
  -25.2778  -15.0198   20.3885 N   0  0  0  0  0  0  0  0  0  0  0  0
  -21.7966  -12.3761   21.5236 N   0  0  0  0  0  0  0  0  0  0  0  0
  -27.1403  -20.1453   25.2552 N   0  0  0  0  0  0  0  0  0  0  0  0
  -30.8168  -28.5035   20.4418 N   0  0  0  0  0  0  0  0  0  0  0  0
  -31.2667  -22.4987   17.8387 N   0  0  0  0  0  0  0  0  0  0  0  0
  -29.8870  -15.8853   21.5933 N   0  0  0  0  0  0  0  0  0  0  0  0
  -32.6341  -19.8367   19.4898 N   0  3  0  0  0  0  0  0  0  0  0  0
  -22.4684  -14.5501   21.2392 O   0  0  0  0  0  0  0  0  0  0  0  0
  -28.9467  -27.1455   20.1569 O   0  0  0  0  0  0  0  0  0  0  0  0
  -32.1124  -25.1862   18.3592 O   0  0  0  0  0  0  0  0  0  0  0  0
  -29.9157  -21.0323   19.0225 O   0  0  0  0  0  0  0  0  0  0  0  0
  -31.6885  -15.2099   20.3461 O   0  0  0  0  0  0  0  0  0  0  0  0
  -21.8053   -6.8075   21.6838 O   0  0  0  0  0  0  0  0  0  0  0  0
  -26.2760  -23.4325   24.2515 O   0  0  0  0  0  0  0  0  0  1  0  0
  -18.7176   -6.5389   26.2443 F   0  0  0  0  0  0  0  0  0  0  0  0
  -22.3089   -4.9074   23.6277 F   0  0  0  0  0  0  0  0  0  0  0  0
  1  2  1  0  0  0  0
  1  5  2  0  0  0  0
  2  6  2  0  0  0  0
  3  8  2  0  0  0  0
  3 17  1  0  0  0  0
  4  9  1  0  0  0  0
  4 17  2  0  0  0  0
  5 19  1  0  0  0  0
  6 21  1  0  0  0  0
  7 10  2  0  0  0  0
  7 20  1  0  0  0  0
  8 24  1  0  0  0  0
  9 24  2  0  0  0  0
 10 25  1  0  0  0  0
 11 12  2  0  0  0  0
 11 26  1  0  0  0  0
 12 27  1  0  0  0  0
 13 22  1  0  0  0  0
 13 25  2  0  0  0  0
 14 27  2  0  0  0  0
 14 28  1  0  0  0  0
 15 23  1  0  0  0  0
 15 62  2  0  0  0  0
 16 23  2  0  0  0  0
 16 63  1  0  0  0  0
 17 29  1  0  0  0  0
 18 29  1  0  0  0  0
 18 30  2  0  0  0  0
 18 32  1  0  0  0  0
 19 21  2  0  0  0  0
 19 37  1  0  0  0  0
 20 22  2  0  0  0  0
 20 38  1  0  0  0  0
 21 46  1  0  0  0  0
 22 39  1  0  0  0  0
 23 55  1  0  0  0  0
 24 80  1  0  0  0  0
 25 81  1  0  0  0  0
 26 28  2  0  0  0  0
 26 80  1  0  0  0  0
 27 82  1  0  0  0  0
 28 83  1  0  0  0  0
 29 64  2  0  0  0  0
 30 65  1  0  0  0  0
 30 68  1  0  0  0  0
 31 62  1  0  0  0  0
 31 63  2  0  0  0  0
 31 70  1  0  0  0  0
 32 69  1  0  0  0  0
 32 75  2  0  0  0  0
 33 47  1  0  0  0  0
 33 71  1  0  0  0  0
 33 76  2  0  0  0  0
 34 58  1  0  0  0  0
 34 66  1  0  0  0  0
 34 77  2  0  0  0  0
 35 59  1  0  0  0  0
 35 72  1  0  0  0  0
 35 78  2  0  0  0  0
 36 67  1  0  0  0  0
 36 73  1  0  0  0  0
 36 79  2  0  0  0  0
 37 40  1  0  0  0  0
 38 47  1  0  0  0  0
 39 66  1  0  0  0  0
 40 42  1  0  0  0  0
 41 43  1  0  0  0  0
 41 44  1  0  0  0  0
 42 46  1  0  0  0  0
 43 48  1  0  0  0  0
 44 67  1  0  0  0  0
 45 48  1  0  0  0  0
 45 67  1  0  0  0  0
 46 71  1  0  0  0  0
 47 66  1  0  0  0  0
 48 65  1  0  0  0  0
 49 59  1  0  0  0  0
 50 60  1  0  0  0  0
 51 61  1  0  0  0  0
 52 61  1  0  0  0  0
 53 61  1  0  0  0  0
 54 74  1  0  0  0  0
 55 73  1  0  0  0  0
 56 57  1  0  0  0  0
 56 60  1  0  0  0  0
 57 81  1  0  0  0  0
 58 61  1  0  0  0  0
 58 72  1  0  0  0  0
 59 74  1  0  0  0  0
 60 70  1  0  0  0  0
 64 65  1  0  0  0  0
M  CHG  1  74   1
M  ISO  4  36 100  57 101  73 100  81 101
M  END
> <Batch ID>
0197

> <Smiles>
CNC(C)C(=O)NC(C(=O)N1Cc2cc([101O:1][101CH2:1]CC(C)Nc3ncc(C[100NH:0][100C:0](=O)N4CCCC(n5nc(-c6ccc(Oc7ccc(F)cc7F)cc6)c(C(N)=O)c5N)C4)cn3)ccc2CC1C(=O)NC1CCCc2ccccc21)C(C)(C)C

> <Shape>
0.241

> <Color>
0.201

> <Negative vol penalty>
0.000

$$$$

  -OEChem-04052305413D

 80 88  0     1  0  0  0  0  0999 V2000
  -31.3822  -21.9797   16.4120 C   0  0  0  0  0  0  0  0  0  0  0  0
  -31.0298  -22.1156   17.7509 C   0  0  0  0  0  0  0  0  0  0  0  0
  -24.4934  -14.0935   19.9715 C   0  0  0  0  0  0  0  0  0  0  0  0
  -25.6361  -12.9772   21.7840 C   0  0  0  0  0  0  0  0  0  0  0  0
  -31.3846  -23.0958   15.5763 C   0  0  0  0  0  0  0  0  0  0  0  0
  -30.6807  -23.3679   18.2553 C   0  0  0  0  0  0  0  0  0  0  0  0
  -26.5543  -23.2004   21.1861 C   0  0  0  0  0  0  0  0  0  0  0  0
  -24.1464  -12.8565   19.4284 C   0  0  0  0  0  0  0  0  0  0  0  0
  -25.2891  -11.7401   21.2409 C   0  0  0  0  0  0  0  0  0  0  0  0
  -26.7169  -22.7293   22.4882 C   0  0  0  0  0  0  0  0  0  0  0  0
  -24.3964   -8.2889   20.5267 C   0  0  0  0  0  0  0  0  0  0  0  0
  -23.9111   -7.3115   21.3954 C   0  0  0  0  0  0  0  0  0  0  0  0
  -26.7488  -25.0009   23.2996 C   0  0  0  0  0  0  0  0  0  0  0  0
  -22.0786   -8.7633   22.0049 C   0  0  0  0  0  0  0  0  0  0  0  0
  -31.9778  -20.9736   26.9874 C   0  0  0  0  0  0  0  0  0  0  0  0
  -25.2383  -14.1538   21.1493 C   0  0  0  0  0  0  0  0  0  0  0  0
  -24.8610  -16.1883   22.6414 C   0  0  0  0  0  0  0  0  0  0  0  0
  -31.0260  -24.3607   16.0683 C   0  0  0  0  0  0  0  0  0  0  0  0
  -26.4986  -24.5778   20.9293 C   0  0  0  0  0  0  0  0  0  0  0  0
  -30.6796  -24.5021   17.4257 C   0  0  0  0  0  0  0  0  0  0  0  0
  -26.5829  -25.4868   21.9936 C   0  0  0  0  0  0  0  0  0  0  0  0
  -24.5442  -11.6798   20.0631 C   0  0  0  0  0  0  0  0  0  0  0  0
  -26.8171  -23.6297   23.5449 C   0  0  0  0  0  0  0  0  0  0  0  0
  -23.7229   -9.5035   20.3971 C   0  0  0  0  0  0  0  0  0  0  0  0
  -22.7521   -7.5487   22.1345 C   0  0  0  0  0  0  0  0  0  0  0  0
  -22.5640   -9.7407   21.1361 C   0  0  0  0  0  0  0  0  0  0  0  0
  -25.5975  -15.4314   21.7106 C   0  0  0  0  0  0  0  0  0  0  0  0
  -31.2069  -20.0478   26.3161 C   0  0  0  0  0  0  0  0  0  0  0  0
  -25.6245  -17.3104   22.8522 C   0  0  0  0  0  0  0  0  0  0  0  0
  -29.6190  -21.4505   26.8826 C   0  0  0  0  0  0  0  0  0  0  0  0
  -23.5996  -15.9027   23.2601 C   0  0  0  0  0  0  0  0  0  0  0  0
  -28.2653  -26.6202   19.2526 C   0  0  0  0  0  0  0  0  0  0  0  0
  -25.9041  -28.7018   20.0362 C   0  0  0  0  0  0  0  0  0  0  0  0
  -23.3780  -29.5483   22.1691 C   0  0  0  0  0  0  0  0  0  0  0  0
  -31.1667  -18.9355   23.2496 C   0  0  0  0  0  0  0  0  0  0  0  0
  -31.0892  -25.5461   15.1380 C   0  0  0  0  0  0  0  0  0  0  0  0
  -26.2961  -25.0692   19.5222 C   0  0  0  0  0  0  0  0  0  0  0  0
  -26.5086  -26.9749   21.7734 C   0  0  0  0  0  0  0  0  0  0  0  0
  -30.3445  -26.7715   15.6615 C   0  0  0  0  0  0  0  0  0  0  0  0
  -29.2175  -19.6016   20.3455 C   0  0  0  0  0  0  0  0  0  0  0  0
  -30.6930  -27.0231   17.1251 C   0  0  0  0  0  0  0  0  0  0  0  0
  -28.0168  -18.6645   20.4880 C   0  0  0  0  0  0  0  0  0  0  0  0
  -30.5012  -18.9568   20.8635 C   0  0  0  0  0  0  0  0  0  0  0  0
  -29.2203  -17.5005   22.3841 C   0  0  0  0  0  0  0  0  0  0  0  0
  -30.2709  -25.8395   18.0040 C   0  0  1  0  0  0  0  0  0  0  0  0
  -26.7686  -26.5052   19.3170 C   0  0  1  0  0  0  0  0  0  0  0  0
  -27.8923  -18.1275   21.9265 C   0  0  2  0  0  0  0  0  0  0  0  0
  -21.6525  -31.3252   22.5722 C   0  0  0  0  0  0  0  0  0  0  0  0
  -28.0700  -30.5544   21.1255 C   0  0  0  0  0  0  0  0  0  0  0  0
  -26.2809  -31.8196   22.3366 C   0  0  0  0  0  0  0  0  0  0  0  0
  -26.2580  -31.7078   19.8447 C   0  0  0  0  0  0  0  0  0  0  0  0
  -21.1535  -27.6194   21.8696 C   0  0  0  0  0  0  0  0  0  0  0  0
  -31.7049  -18.8175   25.6694 C   0  0  0  0  0  0  0  0  0  0  0  0
  -27.1571  -21.4401   26.4769 C   0  0  0  0  0  0  0  0  0  0  0  0
  -27.0329  -21.7580   24.9962 C   0  0  0  0  0  0  0  0  0  1  0  0
  -25.6523  -29.6503   21.1833 C   0  0  1  0  0  0  0  0  0  0  0  0
  -21.9476  -29.9871   21.9126 C   0  0  2  0  0  0  0  0  0  0  0  0
  -26.5686  -30.9051   21.1268 C   0  0  0  0  0  0  0  0  0  0  0  0
  -26.7410  -16.0228   21.3545 N   0  0  0  0  0  0  0  0  0  0  0  0
  -29.8540  -20.3193   26.2554 N   0  0  0  0  0  0  0  0  0  0  0  0
  -26.7287  -17.1633   22.0653 N   0  0  0  0  0  0  0  0  0  0  0  0
  -26.3163  -27.4062   20.3790 N   0  0  0  0  0  0  0  0  0  0  0  0
  -30.3166  -18.4701   22.2328 N   0  0  0  0  0  0  0  0  0  0  0  0
  -25.4523  -18.3988   23.6321 N   0  0  0  0  0  0  0  0  0  0  0  0
  -22.9500  -14.7051   22.9311 N   0  0  0  0  0  0  0  0  0  0  0  0
  -28.3647  -22.0227   27.0156 N   0  0  0  0  0  0  0  0  0  0  0  0
  -28.8443  -25.8725   18.2451 N   0  0  0  0  0  0  0  0  0  0  0  0
  -24.2249  -29.9512   21.1583 N   0  0  0  0  0  0  0  0  0  0  0  0
  -30.9191  -18.4288   24.5195 N   0  0  0  0  0  0  0  0  0  0  0  0
  -20.9919  -28.9775   22.4494 N   0  3  0  0  0  0  0  0  0  0  0  0
  -23.0565  -16.6938   24.0680 O   0  0  0  0  0  0  0  0  0  0  0  0
  -28.8514  -27.3356   20.0566 O   0  0  0  0  0  0  0  0  0  0  0  0
  -25.7341  -29.0936   18.8790 O   0  0  0  0  0  0  0  0  0  0  0  0
  -23.7114  -28.9148   23.1682 O   0  0  0  0  0  0  0  0  0  0  0  0
  -32.0753  -19.7469   23.0420 O   0  0  0  0  0  0  0  0  0  0  0  0
  -24.2056  -10.4725   19.5335 O   0  0  0  0  0  0  0  0  0  0  0  0
  -26.9764  -23.1726   24.8167 O   0  0  0  0  0  0  0  0  0  1  0  0
  -22.2853   -6.6094   22.9676 F   0  0  0  0  0  0  0  0  0  0  0  0
  -21.9119  -10.9051   21.0150 F   0  0  0  0  0  0  0  0  0  0  0  0
  -30.9790  -22.2408   27.5686 S   0  0  0  0  0  0  0  0  0  0  0  0
  1  2  1  0  0  0  0
  1  5  2  0  0  0  0
  2  6  2  0  0  0  0
  3  8  2  0  0  0  0
  3 16  1  0  0  0  0
  4  9  1  0  0  0  0
  4 16  2  0  0  0  0
  5 18  1  0  0  0  0
  6 20  1  0  0  0  0
  7 10  2  0  0  0  0
  7 19  1  0  0  0  0
  8 22  1  0  0  0  0
  9 22  2  0  0  0  0
 10 23  1  0  0  0  0
 11 12  2  0  0  0  0
 11 24  1  0  0  0  0
 12 25  1  0  0  0  0
 13 21  1  0  0  0  0
 13 23  2  0  0  0  0
 14 25  2  0  0  0  0
 14 26  1  0  0  0  0
 15 28  2  0  0  0  0
 15 80  1  0  0  0  0
 16 27  1  0  0  0  0
 17 27  1  0  0  0  0
 17 29  2  0  0  0  0
 17 31  1  0  0  0  0
 18 20  2  0  0  0  0
 18 36  1  0  0  0  0
 19 21  2  0  0  0  0
 19 37  1  0  0  0  0
 20 45  1  0  0  0  0
 21 38  1  0  0  0  0
 22 76  1  0  0  0  0
 23 77  1  0  0  0  0
 24 26  2  0  0  0  0
 24 76  1  0  0  0  0
 25 78  1  0  0  0  0
 26 79  1  0  0  0  0
 27 59  2  0  0  0  0
 28 53  1  0  0  0  0
 28 60  1  0  0  0  0
 29 61  1  0  0  0  0
 29 64  1  0  0  0  0
 30 60  2  0  0  0  0
 30 66  1  0  0  0  0
 30 80  1  0  0  0  0
 31 65  1  0  0  0  0
 31 71  2  0  0  0  0
 32 46  1  0  0  0  0
 32 67  1  0  0  0  0
 32 72  2  0  0  0  0
 33 56  1  0  0  0  0
 33 62  1  0  0  0  0
 33 73  2  0  0  0  0
 34 57  1  0  0  0  0
 34 68  1  0  0  0  0
 34 74  2  0  0  0  0
 35 63  1  0  0  0  0
 35 69  1  0  0  0  0
 35 75  2  0  0  0  0
 36 39  1  0  0  0  0
 37 46  1  0  0  0  0
 38 62  1  0  0  0  0
 39 41  1  0  0  0  0
 40 42  1  0  0  0  0
 40 43  1  0  0  0  0
 41 45  1  0  0  0  0
 42 47  1  0  0  0  0
 43 63  1  0  0  0  0
 44 47  1  0  0  0  0
 44 63  1  0  0  0  0
 45 67  1  0  0  0  0
 46 62  1  0  0  0  0
 47 61  1  0  0  0  0
 48 57  1  0  0  0  0
 49 58  1  0  0  0  0
 50 58  1  0  0  0  0
 51 58  1  0  0  0  0
 52 70  1  0  0  0  0
 53 69  1  0  0  0  0
 54 55  1  0  0  0  0
 54 66  1  0  0  0  0
 55 77  1  0  0  0  0
 56 58  1  0  0  0  0
 56 68  1  0  0  0  0
 57 70  1  0  0  0  0
 59 61  1  0  0  0  0
M  CHG  1  70   1
M  ISO  4  35 100  55 101  69 100  77 101
M  END
> <Batch ID>
0197

> <Smiles>
CNC(C)C(=O)NC(C(=O)N1Cc2cc([101O:1][101CH2:1]CNc3nc(C[100NH:0][100C:0](=O)N4CCCC(n5nc(-c6ccc(Oc7ccc(F)cc7F)cc6)c(C(N)=O)c5N)C4)cs3)ccc2CC1C(=O)NC1CCCc2ccccc21)C(C)(C)C

> <Shape>
0.220

> <Color>
0.070

> <Negative vol penalty>
0.000

$$$$

  -OEChem-04052305413D

 82 90  0     1  0  0  0  0  0999 V2000
  -23.4071  -30.9566   20.5260 C   0  0  0  0  0  0  0  0  0  0  0  0
  -24.0143  -29.8706   19.9035 C   0  0  0  0  0  0  0  0  0  0  0  0
  -26.7047  -12.6657   21.7439 C   0  0  0  0  0  0  0  0  0  0  0  0
  -26.0807  -14.0594   19.8717 C   0  0  0  0  0  0  0  0  0  0  0  0
  -22.5481  -30.7496   21.6046 C   0  0  0  0  0  0  0  0  0  0  0  0
  -23.7636  -28.5771   20.3600 C   0  0  0  0  0  0  0  0  0  0  0  0
  -22.8864  -25.3201   16.5827 C   0  0  0  0  0  0  0  0  0  0  0  0
  -25.4225  -12.1170   21.7629 C   0  0  0  0  0  0  0  0  0  0  0  0
  -24.7985  -13.5107   19.8906 C   0  0  0  0  0  0  0  0  0  0  0  0
  -23.9934  -24.8492   15.8780 C   0  0  0  0  0  0  0  0  0  0  0  0
  -23.6827   -9.7905   20.0327 C   0  0  0  0  0  0  0  0  0  0  0  0
  -23.5718   -8.4064   20.1643 C   0  0  0  0  0  0  0  0  0  0  0  0
  -23.9327  -22.8064   17.1596 C   0  0  0  0  0  0  0  0  0  0  0  0
  -22.3107   -8.7013   22.2039 C   0  0  0  0  0  0  0  0  0  0  0  0
  -27.0339  -13.6369   20.7984 C   0  0  0  0  0  0  0  0  0  0  0  0
  -29.4731  -13.7361   20.0581 C   0  0  0  0  0  0  0  0  0  0  0  0
  -22.2792  -29.4522   22.0683 C   0  0  0  0  0  0  0  0  0  0  0  0
  -22.3000  -24.5409   17.5903 C   0  0  0  0  0  0  0  0  0  0  0  0
  -22.9012  -28.3526   21.4465 C   0  0  0  0  0  0  0  0  0  0  0  0
  -22.8168  -23.2686   17.8738 C   0  0  0  0  0  0  0  0  0  0  0  0
  -24.4693  -12.5395   20.8362 C   0  0  0  0  0  0  0  0  0  0  0  0
  -24.5185  -23.5934   16.1684 C   0  0  0  0  0  0  0  0  0  0  0  0
  -23.1077  -10.6301   20.9868 C   0  0  0  0  0  0  0  0  0  0  0  0
  -22.8858   -7.8617   21.2499 C   0  0  0  0  0  0  0  0  0  0  0  0
  -22.4217  -10.0855   22.0723 C   0  0  0  0  0  0  0  0  0  0  0  0
  -28.3581  -14.2045   20.7786 C   0  0  0  0  0  0  0  0  0  0  0  0
  -29.5315  -23.1822   18.3274 C   0  0  0  0  0  0  0  0  0  0  0  0
  -30.2540  -23.6885   19.3875 C   0  0  0  0  0  0  0  0  0  0  0  0
  -30.4804  -14.6144   20.3751 C   0  0  0  0  0  0  0  0  0  0  0  0
  -29.9322  -21.6568   20.1481 C   0  0  0  0  0  0  0  0  0  0  0  0
  -29.5880  -12.6080   19.1807 C   0  0  0  0  0  0  0  0  0  0  0  0
  -29.1017  -23.8183   17.0555 C   0  0  0  0  0  0  0  0  0  0  0  0
  -21.8558  -24.8841   20.7190 C   0  0  0  0  0  0  0  0  0  0  0  0
  -20.1641  -22.1365   20.3858 C   0  0  0  0  0  0  0  0  0  0  0  0
  -19.5923  -19.2846   18.6007 C   0  0  0  0  0  0  0  0  0  0  0  0
  -30.5115  -20.3060   22.1941 C   0  0  0  0  0  0  0  0  0  0  0  0
  -21.3806  -29.2815   23.2675 C   0  0  0  0  0  0  0  0  0  0  0  0
  -21.0899  -25.0521   18.3229 C   0  0  0  0  0  0  0  0  0  0  0  0
  -22.2113  -22.3846   18.9323 C   0  0  0  0  0  0  0  0  0  0  0  0
  -20.8749  -27.8530   23.4513 C   0  0  0  0  0  0  0  0  0  0  0  0
  -31.9466  -17.5217   23.8868 C   0  0  0  0  0  0  0  0  0  0  0  0
  -22.0207  -26.8575   23.2999 C   0  0  0  0  0  0  0  0  0  0  0  0
  -31.2952  -16.3122   23.2121 C   0  0  0  0  0  0  0  0  0  0  0  0
  -30.9703  -18.6886   24.0240 C   0  0  0  0  0  0  0  0  0  0  0  0
  -29.6546  -17.8826   22.1034 C   0  0  0  0  0  0  0  0  0  0  0  0
  -22.6350  -26.9326   21.8968 C   0  0  1  0  0  0  0  0  0  0  0  0
  -20.8890  -24.3877   19.6814 C   0  0  1  0  0  0  0  0  0  0  0  0
  -30.6179  -16.7046   21.8844 C   0  0  2  0  0  0  0  0  0  0  0  0
  -18.1734  -17.2148   18.5959 C   0  0  0  0  0  0  0  0  0  0  0  0
  -21.8869  -20.9534   22.6089 C   0  0  0  0  0  0  0  0  0  0  0  0
  -21.1007  -18.6804   21.9133 C   0  0  0  0  0  0  0  0  0  0  0  0
  -19.4600  -20.3654   22.7450 C   0  0  0  0  0  0  0  0  0  0  0  0
  -18.3742  -19.9854   15.9960 C   0  0  0  0  0  0  0  0  0  0  0  0
  -27.9077  -23.4794   14.9071 C   0  0  0  0  0  0  0  0  0  0  0  0
  -26.5269  -24.1034   15.0012 C   0  0  0  0  0  0  0  0  0  1  0  0
  -20.4912  -20.6644   20.4561 C   0  0  1  0  0  0  0  0  0  0  0  0
  -18.3068  -18.6477   18.1043 C   0  0  2  0  0  0  0  0  0  0  0  0
  -20.7475  -20.1831   21.9121 C   0  0  0  0  0  0  0  0  0  0  0  0
  -28.6310  -15.2955   21.4992 N   0  0  0  0  0  0  0  0  0  0  0  0
  -30.4844  -22.8154   20.4326 N   0  0  0  0  0  0  0  0  0  0  0  0
  -29.9291  -15.5199   21.2331 N   0  0  0  0  0  0  0  0  0  0  0  0
  -21.0332  -22.9316   19.6254 N   0  0  0  0  0  0  0  0  0  0  0  0
  -30.3707  -19.0069   22.7263 N   0  0  0  0  0  0  0  0  0  0  0  0
  -30.7282  -24.9563   19.4410 N   0  0  0  0  0  0  0  0  0  0  0  0
  -31.7751  -14.6925   20.0009 N   0  0  0  0  0  0  0  0  0  0  0  0
  -28.4555  -11.8108   18.9656 N   0  0  0  0  0  0  0  0  0  0  0  0
  -29.9279  -20.4817   20.9399 N   0  0  0  0  0  0  0  0  0  0  0  0
  -28.3733  -23.0151   16.1869 N   0  0  0  0  0  0  0  0  0  0  0  0
  -21.7939  -26.2469   20.9394 N   0  0  0  0  0  0  0  0  0  0  0  0
  -19.3996  -19.9710   19.7809 N   0  0  0  0  0  0  0  0  0  0  0  0
  -18.2751  -18.6383   16.6144 N   0  3  0  0  0  0  0  0  0  0  0  0
  -30.6673  -12.3061   18.6173 O   0  0  0  0  0  0  0  0  0  0  0  0
  -29.4191  -24.9831   16.8299 O   0  0  0  0  0  0  0  0  0  0  0  0
  -22.6016  -24.0894   21.2792 O   0  0  0  0  0  0  0  0  0  0  0  0
  -19.1699  -22.5640   20.9778 O   0  0  0  0  0  0  0  0  0  0  0  0
  -20.6613  -19.1804   18.0032 O   0  0  0  0  0  0  0  0  0  0  0  0
  -31.1294  -21.1895   22.7938 O   0  0  0  0  0  0  0  0  0  0  0  0
  -23.2181  -12.0042   20.8543 O   0  0  0  0  0  0  0  0  0  0  0  0
  -25.5994  -23.1316   15.4826 O   0  0  0  0  0  0  0  0  0  1  0  0
  -22.7780   -6.5325   21.3753 F   0  0  0  0  0  0  0  0  0  0  0  0
  -21.8662  -10.8871   22.9914 F   0  0  0  0  0  0  0  0  0  0  0  0
  -29.1203  -21.5469   18.6402 S   0  0  0  0  0  0  0  0  0  0  0  0
  1  2  1  0  0  0  0
  1  5  2  0  0  0  0
  2  6  2  0  0  0  0
  3  8  2  0  0  0  0
  3 15  1  0  0  0  0
  4  9  1  0  0  0  0
  4 15  2  0  0  0  0
  5 17  1  0  0  0  0
  6 19  1  0  0  0  0
  7 10  2  0  0  0  0
  7 18  1  0  0  0  0
  8 21  1  0  0  0  0
  9 21  2  0  0  0  0
 10 22  1  0  0  0  0
 11 12  2  0  0  0  0
 11 23  1  0  0  0  0
 12 24  1  0  0  0  0
 13 20  1  0  0  0  0
 13 22  2  0  0  0  0
 14 24  2  0  0  0  0
 14 25  1  0  0  0  0
 15 26  1  0  0  0  0
 16 26  1  0  0  0  0
 16 29  2  0  0  0  0
 16 31  1  0  0  0  0
 17 19  2  0  0  0  0
 17 37  1  0  0  0  0
 18 20  2  0  0  0  0
 18 38  1  0  0  0  0
 19 46  1  0  0  0  0
 20 39  1  0  0  0  0
 21 78  1  0  0  0  0
 22 79  1  0  0  0  0
 23 25  2  0  0  0  0
 23 78  1  0  0  0  0
 24 80  1  0  0  0  0
 25 81  1  0  0  0  0
 26 59  2  0  0  0  0
 27 28  2  0  0  0  0
 27 32  1  0  0  0  0
 27 82  1  0  0  0  0
 28 60  1  0  0  0  0
 28 64  1  0  0  0  0
 29 61  1  0  0  0  0
 29 65  1  0  0  0  0
 30 60  2  0  0  0  0
 30 67  1  0  0  0  0
 30 82  1  0  0  0  0
 31 66  1  0  0  0  0
 31 72  2  0  0  0  0
 32 68  1  0  0  0  0
 32 73  2  0  0  0  0
 33 47  1  0  0  0  0
 33 69  1  0  0  0  0
 33 74  2  0  0  0  0
 34 56  1  0  0  0  0
 34 62  1  0  0  0  0
 34 75  2  0  0  0  0
 35 57  1  0  0  0  0
 35 70  1  0  0  0  0
 35 76  2  0  0  0  0
 36 63  1  0  0  0  0
 36 67  1  0  0  0  0
 36 77  2  0  0  0  0
 37 40  1  0  0  0  0
 38 47  1  0  0  0  0
 39 62  1  0  0  0  0
 40 42  1  0  0  0  0
 41 43  1  0  0  0  0
 41 44  1  0  0  0  0
 42 46  1  0  0  0  0
 43 48  1  0  0  0  0
 44 63  1  0  0  0  0
 45 48  1  0  0  0  0
 45 63  1  0  0  0  0
 46 69  1  0  0  0  0
 47 62  1  0  0  0  0
 48 61  1  0  0  0  0
 49 57  1  0  0  0  0
 50 58  1  0  0  0  0
 51 58  1  0  0  0  0
 52 58  1  0  0  0  0
 53 71  1  0  0  0  0
 54 55  1  0  0  0  0
 54 68  1  0  0  0  0
 55 79  1  0  0  0  0
 56 58  1  0  0  0  0
 56 70  1  0  0  0  0
 57 71  1  0  0  0  0
 59 61  1  0  0  0  0
M  CHG  1  71   1
M  ISO  4  36 100  55 101  67 100  79 101
M  END
> <Batch ID>
0197

> <Smiles>
CNC(C)C(=O)NC(C(=O)N1Cc2cc([101O:1][101CH2:1]CNC(=O)c3sc([100NH:0][100C:0](=O)N4CCCC(n5nc(-c6ccc(Oc7ccc(F)cc7F)cc6)c(C(N)=O)c5N)C4)nc3N)ccc2CC1C(=O)NC1CCCc2ccccc21)C(C)(C)C

> <Shape>
0.230

> <Color>
0.064

> <Negative vol penalty>
0.000

$$$$

  -OEChem-04052305413D

 83 91  0     1  0  0  0  0  0999 V2000
  -28.4144  -11.8954   18.6539 C   0  0  0  0  0  0  0  0  0  0  0  0
  -27.9856  -13.0027   17.9290 C   0  0  0  0  0  0  0  0  0  0  0  0
  -29.4833  -28.1591   20.1117 C   0  0  0  0  0  0  0  0  0  0  0  0
  -27.7711  -26.7430   19.1630 C   0  0  0  0  0  0  0  0  0  0  0  0
  -27.7214  -11.5014   19.7978 C   0  0  0  0  0  0  0  0  0  0  0  0
  -26.8627  -13.7160   18.3471 C   0  0  0  0  0  0  0  0  0  0  0  0
  -24.1987  -20.3647   18.4683 C   0  0  0  0  0  0  0  0  0  0  0  0
  -30.4107  -27.1254   19.9810 C   0  0  0  0  0  0  0  0  0  0  0  0
  -28.6986  -25.7093   19.0322 C   0  0  0  0  0  0  0  0  0  0  0  0
  -23.0512  -21.0719   18.1121 C   0  0  0  0  0  0  0  0  0  0  0  0
  -30.1428  -23.3910   21.0248 C   0  0  0  0  0  0  0  0  0  0  0  0
  -29.7492  -22.1131   21.4217 C   0  0  0  0  0  0  0  0  0  0  0  0
  -21.9796  -20.3465   20.1479 C   0  0  0  0  0  0  0  0  0  0  0  0
  -30.1338  -21.2984   19.1800 C   0  0  0  0  0  0  0  0  0  0  0  0
  -28.1635  -27.9678   19.7028 C   0  0  0  0  0  0  0  0  0  0  0  0
  -26.9040  -30.0326   18.8916 C   0  0  0  0  0  0  0  0  0  0  0  0
  -26.5952  -12.2161   20.2355 C   0  0  0  0  0  0  0  0  0  0  0  0
  -24.2415  -19.6330   19.6638 C   0  0  0  0  0  0  0  0  0  0  0  0
  -26.1532  -13.3304   19.4971 C   0  0  0  0  0  0  0  0  0  0  0  0
  -23.1297  -19.6330   20.5182 C   0  0  0  0  0  0  0  0  0  0  0  0
  -30.0184  -25.9006   19.4412 C   0  0  0  0  0  0  0  0  0  0  0  0
  -21.9404  -21.0605   18.9505 C   0  0  0  0  0  0  0  0  0  0  0  0
  -30.5318  -23.6227   19.7055 C   0  0  0  0  0  0  0  0  0  0  0  0
  -29.7447  -21.0668   20.4993 C   0  0  0  0  0  0  0  0  0  0  0  0
  -30.5274  -22.5764   18.7831 C   0  0  0  0  0  0  0  0  0  0  0  0
  -27.2049  -29.0350   19.8382 C   0  0  0  0  0  0  0  0  0  0  0  0
  -17.9974  -27.7987   22.8655 C   0  0  0  0  0  0  0  0  0  0  0  0
  -25.9359  -30.7976   19.4948 C   0  0  0  0  0  0  0  0  0  0  0  0
  -18.2492  -27.0169   21.7575 C   0  0  0  0  0  0  0  0  0  0  0  0
  -20.1284  -28.2542   22.6179 C   0  0  0  0  0  0  0  0  0  0  0  0
  -27.4508  -30.2484   17.5838 C   0  0  0  0  0  0  0  0  0  0  0  0
  -24.6111  -16.5637   20.4031 C   0  0  0  0  0  0  0  0  0  0  0  0
  -24.6716  -17.7045   23.4391 C   0  0  0  0  0  0  0  0  0  0  0  0
  -23.8061  -20.1817   25.6211 C   0  0  0  0  0  0  0  0  0  0  0  0
  -21.8917  -29.6579   23.7435 C   0  0  0  0  0  0  0  0  0  0  0  0
  -25.8506  -11.7240   21.4513 C   0  0  0  0  0  0  0  0  0  0  0  0
  -25.4963  -18.8972   20.0465 C   0  0  0  0  0  0  0  0  0  0  0  0
  -23.1319  -18.8797   21.8225 C   0  0  0  0  0  0  0  0  0  0  0  0
  -24.8919  -12.7571   22.0378 C   0  0  0  0  0  0  0  0  0  0  0  0
  -24.4071  -32.1766   23.8186 C   0  0  0  0  0  0  0  0  0  0  0  0
  -24.0607  -13.4017   20.9331 C   0  0  0  0  0  0  0  0  0  0  0  0
  -25.3795  -31.7509   22.7162 C   0  0  0  0  0  0  0  0  0  0  0  0
  -23.8335  -30.9732   24.5647 C   0  0  0  0  0  0  0  0  0  0  0  0
  -24.1954  -29.5208   22.6080 C   0  0  0  0  0  0  0  0  0  0  0  0
  -24.9542  -14.1447   19.9326 C   0  0  1  0  0  0  0  0  0  0  0  0
  -25.2467  -17.7670   21.0402 C   0  0  1  0  0  0  0  0  0  0  0  0
  -24.7497  -30.6958   21.7858 C   0  0  2  0  0  0  0  0  0  0  0  0
  -16.6992  -27.9404   23.5582 C   0  0  0  0  0  0  0  0  0  0  0  0
  -23.7146  -21.4541   27.7821 C   0  0  0  0  0  0  0  0  0  0  0  0
  -16.4780  -25.1203   19.0998 C   0  0  0  0  0  0  0  0  0  0  0  0
  -22.4566  -15.7122   24.0986 C   0  0  0  0  0  0  0  0  0  0  0  0
  -22.0065  -17.0114   26.1909 C   0  0  0  0  0  0  0  0  0  0  0  0
  -24.2259  -15.9237   25.8534 C   0  0  0  0  0  0  0  0  0  0  0  0
  -26.2646  -21.6946   24.9686 C   0  0  0  0  0  0  0  0  0  0  0  0
  -19.3036  -23.5305   19.2219 C   0  0  0  0  0  0  0  0  0  0  0  0
  -18.4395  -24.1331   20.3385 C   0  0  0  0  0  0  0  0  0  0  0  0
  -20.0158  -22.2588   19.6689 C   0  0  0  0  0  0  0  0  0  1  0  0
  -23.6326  -17.9753   24.5003 C   0  0  1  0  0  0  0  0  0  0  0  0
  -24.6103  -20.9233   26.6736 C   0  0  2  0  0  0  0  0  0  0  0  0
  -17.7375  -25.4272   19.9038 C   0  0  2  0  0  0  0  0  0  0  0  0
  -23.0794  -16.6684   25.1354 C   0  0  0  0  0  0  0  0  0  0  0  0
  -26.4862  -29.1530   20.9578 N   0  0  0  0  0  0  0  0  0  0  0  0
  -19.0739  -28.5086   23.3605 N   0  0  0  0  0  0  0  0  0  0  0  0
  -25.7242  -30.2338   20.7186 N   0  0  0  0  0  0  0  0  0  0  0  0
  -24.3801  -18.1707   22.1494 N   0  0  0  0  0  0  0  0  0  0  0  0
  -23.2502  -30.0185   23.6197 N   0  0  0  0  0  0  0  0  0  0  0  0
  -25.2535  -31.8908   19.0926 N   0  0  0  0  0  0  0  0  0  0  0  0
  -28.4374  -29.3685   17.1186 N   0  0  0  0  0  0  0  0  0  0  0  0
  -17.3653  -26.2102   21.0636 N   0  0  0  0  0  0  0  0  0  0  0  0
  -21.4401  -28.7683   22.7692 N   0  0  0  0  0  0  0  0  0  0  0  0
  -25.3770  -15.4161   20.4796 N   0  0  0  0  0  0  0  0  0  0  0  0
  -24.2525  -18.8877   25.4551 N   0  0  0  0  0  0  0  0  0  0  0  0
  -25.3303  -22.0745   26.0594 N   0  3  0  0  0  0  0  0  0  0  0  0
  -27.0872  -31.2033   16.8562 O   0  0  0  0  0  0  0  0  0  0  0  0
  -23.5069  -16.6684   19.8821 O   0  0  0  0  0  0  0  0  0  0  0  0
  -25.7069  -17.1077   23.7449 O   0  0  0  0  0  0  0  0  0  0  0  0
  -22.8727  -20.6975   25.0101 O   0  0  0  0  0  0  0  0  0  0  0  0
  -21.1742  -30.1264   24.6310 O   0  0  0  0  0  0  0  0  0  0  0  0
  -30.9231  -24.8918   19.3132 O   0  0  0  0  0  0  0  0  0  0  0  0
  -20.8188  -21.7494   18.6049 O   0  0  0  0  0  0  0  0  0  1  0  0
  -29.3681  -19.8393   20.8810 F   0  0  0  0  0  0  0  0  0  0  0  0
  -30.9012  -22.7925   17.5145 F   0  0  0  0  0  0  0  0  0  0  0  0
  -19.8970  -27.1707   21.3074 S   0  0  0  0  0  0  0  0  0  0  0  0
  1  2  1  0  0  0  0
  1  5  2  0  0  0  0
  2  6  2  0  0  0  0
  3  8  2  0  0  0  0
  3 15  1  0  0  0  0
  4  9  1  0  0  0  0
  4 15  2  0  0  0  0
  5 17  1  0  0  0  0
  6 19  1  0  0  0  0
  7 10  2  0  0  0  0
  7 18  1  0  0  0  0
  8 21  1  0  0  0  0
  9 21  2  0  0  0  0
 10 22  1  0  0  0  0
 11 12  2  0  0  0  0
 11 23  1  0  0  0  0
 12 24  1  0  0  0  0
 13 20  1  0  0  0  0
 13 22  2  0  0  0  0
 14 24  2  0  0  0  0
 14 25  1  0  0  0  0
 15 26  1  0  0  0  0
 16 26  1  0  0  0  0
 16 28  2  0  0  0  0
 16 31  1  0  0  0  0
 17 19  2  0  0  0  0
 17 36  1  0  0  0  0
 18 20  2  0  0  0  0
 18 37  1  0  0  0  0
 19 45  1  0  0  0  0
 20 38  1  0  0  0  0
 21 79  1  0  0  0  0
 22 80  1  0  0  0  0
 23 25  2  0  0  0  0
 23 79  1  0  0  0  0
 24 81  1  0  0  0  0
 25 82  1  0  0  0  0
 26 62  2  0  0  0  0
 27 29  2  0  0  0  0
 27 48  1  0  0  0  0
 27 63  1  0  0  0  0
 28 64  1  0  0  0  0
 28 67  1  0  0  0  0
 29 69  1  0  0  0  0
 29 83  1  0  0  0  0
 30 63  2  0  0  0  0
 30 70  1  0  0  0  0
 30 83  1  0  0  0  0
 31 68  1  0  0  0  0
 31 74  2  0  0  0  0
 32 46  1  0  0  0  0
 32 71  1  0  0  0  0
 32 75  2  0  0  0  0
 33 58  1  0  0  0  0
 33 65  1  0  0  0  0
 33 76  2  0  0  0  0
 34 59  1  0  0  0  0
 34 72  1  0  0  0  0
 34 77  2  0  0  0  0
 35 66  1  0  0  0  0
 35 70  1  0  0  0  0
 35 78  2  0  0  0  0
 36 39  1  0  0  0  0
 37 46  1  0  0  0  0
 38 65  1  0  0  0  0
 39 41  1  0  0  0  0
 40 42  1  0  0  0  0
 40 43  1  0  0  0  0
 41 45  1  0  0  0  0
 42 47  1  0  0  0  0
 43 66  1  0  0  0  0
 44 47  1  0  0  0  0
 44 66  1  0  0  0  0
 45 71  1  0  0  0  0
 46 65  1  0  0  0  0
 47 64  1  0  0  0  0
 49 59  1  0  0  0  0
 50 60  1  0  0  0  0
 51 61  1  0  0  0  0
 52 61  1  0  0  0  0
 53 61  1  0  0  0  0
 54 73  1  0  0  0  0
 55 56  1  0  0  0  0
 55 57  1  0  0  0  0
 56 60  1  0  0  0  0
 57 80  1  0  0  0  0
 58 61  1  0  0  0  0
 58 72  1  0  0  0  0
 59 73  1  0  0  0  0
 60 69  1  0  0  0  0
 62 64  1  0  0  0  0
M  CHG  1  73   1
M  ISO  4  35 100  57 101  70 100  80 101
M  END
> <Batch ID>
0197

> <Smiles>
CNC(C)C(=O)NC(C(=O)N1Cc2cc([101O:1][101CH2:1]CCC(C)Nc3sc([100NH:0][100C:0](=O)N4CCCC(n5nc(-c6ccc(Oc7ccc(F)cc7F)cc6)c(C(N)=O)c5N)C4)nc3C)ccc2CC1C(=O)NC1CCCc2ccccc21)C(C)(C)C

> <Shape>
0.235

> <Color>
0.082

> <Negative vol penalty>
0.000

$$$$

  -OEChem-04052305413D

 82 90  0     1  0  0  0  0  0999 V2000
  -18.0941  -25.1300   23.6037 C   0  0  0  0  0  0  0  0  0  0  0  0
  -19.3753  -24.8237   23.1564 C   0  0  0  0  0  0  0  0  0  0  0  0
  -24.3672  -14.8576   20.9985 C   0  0  0  0  0  0  0  0  0  0  0  0
  -26.6693  -14.8062   21.7297 C   0  0  0  0  0  0  0  0  0  0  0  0
  -17.5939  -26.4223   23.4504 C   0  0  0  0  0  0  0  0  0  0  0  0
  -20.1567  -25.8094   22.5545 C   0  0  0  0  0  0  0  0  0  0  0  0
  -26.2355  -26.4399   22.9493 C   0  0  0  0  0  0  0  0  0  0  0  0
  -24.4487  -13.5103   20.6470 C   0  0  0  0  0  0  0  0  0  0  0  0
  -26.7508  -13.4588   21.3782 C   0  0  0  0  0  0  0  0  0  0  0  0
  -27.2744  -26.0679   22.0972 C   0  0  0  0  0  0  0  0  0  0  0  0
  -24.3537  -10.5165   22.2158 C   0  0  0  0  0  0  0  0  0  0  0  0
  -23.3005   -9.6834   22.5928 C   0  0  0  0  0  0  0  0  0  0  0  0
  -27.2879  -28.2881   21.1542 C   0  0  0  0  0  0  0  0  0  0  0  0
  -22.8875   -9.1552   20.2716 C   0  0  0  0  0  0  0  0  0  0  0  0
  -32.9277  -22.4042   20.9586 C   0  0  0  0  0  0  0  0  0  0  0  0
  -25.4775  -15.5056   21.5398 C   0  0  0  0  0  0  0  0  0  0  0  0
  -25.0105  -17.4300   23.1481 C   0  0  0  0  0  0  0  0  0  0  0  0
  -18.3731  -27.4268   22.8550 C   0  0  0  0  0  0  0  0  0  0  0  0
  -25.7068  -27.7378   22.9026 C   0  0  0  0  0  0  0  0  0  0  0  0
  -19.6659  -27.1160   22.3919 C   0  0  0  0  0  0  0  0  0  0  0  0
  -26.2440  -28.6749   22.0085 C   0  0  0  0  0  0  0  0  0  0  0  0
  -25.6405  -12.8109   20.8369 C   0  0  0  0  0  0  0  0  0  0  0  0
  -27.7988  -26.9912   21.1975 C   0  0  0  0  0  0  0  0  0  0  0  0
  -24.6739  -10.6691   20.8668 C   0  0  0  0  0  0  0  0  0  0  0  0
  -22.5674   -9.0027   21.6207 C   0  0  0  0  0  0  0  0  0  0  0  0
  -23.9408   -9.9885   19.8947 C   0  0  0  0  0  0  0  0  0  0  0  0
  -25.3941  -16.8976   21.9026 C   0  0  0  0  0  0  0  0  0  0  0  0
  -32.4397  -23.4511   20.2049 C   0  0  0  0  0  0  0  0  0  0  0  0
  -25.0950  -18.7906   22.9806 C   0  0  0  0  0  0  0  0  0  0  0  0
  -30.6426  -22.1942   20.2259 C   0  0  0  0  0  0  0  0  0  0  0  0
  -24.6135  -16.7550   24.3491 C   0  0  0  0  0  0  0  0  0  0  0  0
  -22.8551  -28.9757   22.2395 C   0  0  0  0  0  0  0  0  0  0  0  0
  -24.2736  -31.7422   23.1650 C   0  0  0  0  0  0  0  0  0  0  0  0
  -27.1566  -33.5169   23.5959 C   0  0  0  0  0  0  0  0  0  0  0  0
  -28.2941  -22.2617   19.3169 C   0  0  0  0  0  0  0  0  0  0  0  0
  -17.7717  -28.7972   22.6683 C   0  0  0  0  0  0  0  0  0  0  0  0
  -24.6041  -28.1312   23.8470 C   0  0  0  0  0  0  0  0  0  0  0  0
  -25.7253  -30.0868   21.9330 C   0  0  0  0  0  0  0  0  0  0  0  0
  -18.8039  -29.8784   22.3588 C   0  0  0  0  0  0  0  0  0  0  0  0
  -24.7469  -22.1779   19.6132 C   0  0  0  0  0  0  0  0  0  0  0  0
  -19.7743  -29.3980   21.2844 C   0  0  0  0  0  0  0  0  0  0  0  0
  -24.4758  -20.8657   20.3526 C   0  0  0  0  0  0  0  0  0  0  0  0
  -25.9138  -22.0475   18.6359 C   0  0  0  0  0  0  0  0  0  0  0  0
  -26.8838  -20.2082   19.9571 C   0  0  0  0  0  0  0  0  0  0  0  0
  -20.5532  -28.1643   21.7563 C   0  0  1  0  0  0  0  0  0  0  0  0
  -23.7962  -29.3287   23.3564 C   0  0  1  0  0  0  0  0  0  0  0  0
  -25.7586  -20.3082   21.0001 C   0  0  2  0  0  0  0  0  0  0  0  0
  -27.9947  -35.7649   24.3318 C   0  0  0  0  0  0  0  0  0  0  0  0
  -23.3850  -32.9419   20.5040 C   0  0  0  0  0  0  0  0  0  0  0  0
  -25.0199  -34.8012   20.8759 C   0  0  0  0  0  0  0  0  0  0  0  0
  -23.1321  -34.4650   22.4714 C   0  0  0  0  0  0  0  0  0  0  0  0
  -28.7109  -32.3379   25.8214 C   0  0  0  0  0  0  0  0  0  0  0  0
  -33.2086  -24.6877   19.8134 C   0  0  0  0  0  0  0  0  0  0  0  0
  -33.0900  -25.8354   20.8220 C   0  0  0  0  0  0  0  0  0  0  0  0
  -31.1106  -27.0528   19.7474 C   0  0  0  0  0  0  0  0  0  0  0  0
  -29.7250  -27.6544   19.9704 C   0  0  0  0  0  0  0  0  0  1  0  0
  -25.0579  -32.8270   22.4672 C   0  0  1  0  0  0  0  0  0  0  0  0
  -27.6655  -34.3440   24.7627 C   0  0  2  0  0  0  0  0  0  0  0  0
  -31.6769  -26.4069   21.0151 C   0  0  2  0  0  0  0  0  0  0  0  0
  -24.1574  -33.7317   21.5794 C   0  0  0  0  0  0  0  0  0  0  0  0
  -25.6993  -17.8429   21.0097 N   0  0  0  0  0  0  0  0  0  0  0  0
  -31.1297  -23.3323   19.7835 N   0  0  0  0  0  0  0  0  0  0  0  0
  -25.5076  -18.9830   21.6949 N   0  0  0  0  0  0  0  0  0  0  0  0
  -24.6423  -30.4215   22.8725 N   0  0  0  0  0  0  0  0  0  0  0  0
  -27.0952  -21.5178   19.3205 N   0  0  0  0  0  0  0  0  0  0  0  0
  -24.8558  -19.8292   23.8091 N   0  0  0  0  0  0  0  0  0  0  0  0
  -24.5816  -15.3538   24.3486 N   0  0  0  0  0  0  0  0  0  0  0  0
  -29.3398  -21.6734   20.0274 N   0  0  0  0  0  0  0  0  0  0  0  0
  -21.6108  -28.5514   22.6651 N   0  0  0  0  0  0  0  0  0  0  0  0
  -25.7806  -33.5446   23.5118 N   0  0  0  0  0  0  0  0  0  0  0  0
  -28.8963  -33.7295   25.3355 N   0  3  0  0  0  0  0  0  0  0  0  0
  -24.2807  -17.3763   25.3867 O   0  0  0  0  0  0  0  0  0  0  0  0
  -23.2297  -29.0818   21.0775 O   0  0  0  0  0  0  0  0  0  0  0  0
  -23.3720  -32.0552   23.9465 O   0  0  0  0  0  0  0  0  0  0  0  0
  -27.9052  -32.9101   22.8330 O   0  0  0  0  0  0  0  0  0  0  0  0
  -28.3782  -23.3541   18.7498 O   0  0  0  0  0  0  0  0  0  0  0  0
  -31.7421  -27.4060   22.0356 O   0  0  0  0  0  0  0  0  0  0  0  0
  -25.7203  -11.4960   20.4942 O   0  0  0  0  0  0  0  0  0  0  0  0
  -28.8125  -26.6305   20.3642 O   0  0  0  0  0  0  0  0  0  1  0  0
  -21.5570   -8.2014   21.9829 F   0  0  0  0  0  0  0  0  0  0  0  0
  -24.2444  -10.1302   18.5972 F   0  0  0  0  0  0  0  0  0  0  0  0
  -31.7046  -21.2181   21.1556 S   0  0  0  0  0  0  0  0  0  0  0  0
  1  2  1  0  0  0  0
  1  5  2  0  0  0  0
  2  6  2  0  0  0  0
  3  8  2  0  0  0  0
  3 16  1  0  0  0  0
  4  9  1  0  0  0  0
  4 16  2  0  0  0  0
  5 18  1  0  0  0  0
  6 20  1  0  0  0  0
  7 10  2  0  0  0  0
  7 19  1  0  0  0  0
  8 22  1  0  0  0  0
  9 22  2  0  0  0  0
 10 23  1  0  0  0  0
 11 12  2  0  0  0  0
 11 24  1  0  0  0  0
 12 25  1  0  0  0  0
 13 21  1  0  0  0  0
 13 23  2  0  0  0  0
 14 25  2  0  0  0  0
 14 26  1  0  0  0  0
 15 28  2  0  0  0  0
 15 82  1  0  0  0  0
 16 27  1  0  0  0  0
 17 27  1  0  0  0  0
 17 29  2  0  0  0  0
 17 31  1  0  0  0  0
 18 20  2  0  0  0  0
 18 36  1  0  0  0  0
 19 21  2  0  0  0  0
 19 37  1  0  0  0  0
 20 45  1  0  0  0  0
 21 38  1  0  0  0  0
 22 78  1  0  0  0  0
 23 79  1  0  0  0  0
 24 26  2  0  0  0  0
 24 78  1  0  0  0  0
 25 80  1  0  0  0  0
 26 81  1  0  0  0  0
 27 61  2  0  0  0  0
 28 53  1  0  0  0  0
 28 62  1  0  0  0  0
 29 63  1  0  0  0  0
 29 66  1  0  0  0  0
 30 62  2  0  0  0  0
 30 68  1  0  0  0  0
 30 82  1  0  0  0  0
 31 67  1  0  0  0  0
 31 72  2  0  0  0  0
 32 46  1  0  0  0  0
 32 69  1  0  0  0  0
 32 73  2  0  0  0  0
 33 57  1  0  0  0  0
 33 64  1  0  0  0  0
 33 74  2  0  0  0  0
 34 58  1  0  0  0  0
 34 70  1  0  0  0  0
 34 75  2  0  0  0  0
 35 65  1  0  0  0  0
 35 68  1  0  0  0  0
 35 76  2  0  0  0  0
 36 39  1  0  0  0  0
 37 46  1  0  0  0  0
 38 64  1  0  0  0  0
 39 41  1  0  0  0  0
 40 42  1  0  0  0  0
 40 43  1  0  0  0  0
 41 45  1  0  0  0  0
 42 47  1  0  0  0  0
 43 65  1  0  0  0  0
 44 47  1  0  0  0  0
 44 65  1  0  0  0  0
 45 69  1  0  0  0  0
 46 64  1  0  0  0  0
 47 63  1  0  0  0  0
 48 58  1  0  0  0  0
 49 60  1  0  0  0  0
 50 60  1  0  0  0  0
 51 60  1  0  0  0  0
 52 71  1  0  0  0  0
 53 54  1  0  0  0  0
 54 59  1  0  0  0  0
 55 56  1  0  0  0  0
 55 59  1  0  0  0  0
 56 79  1  0  0  0  0
 57 60  1  0  0  0  0
 57 70  1  0  0  0  0
 58 71  1  0  0  0  0
 59 77  1  0  0  0  0
 61 63  1  0  0  0  0
M  CHG  1  71   1
M  ISO  4  35 100  56 101  68 100  79 101
M  END
> <Batch ID>
0197

> <Smiles>
CNC(C)C(=O)NC(C(=O)N1Cc2cc([101O:1][101CH2:1]CC(O)CCc3csc([100NH:0][100C:0](=O)N4CCCC(n5nc(-c6ccc(Oc7ccc(F)cc7F)cc6)c(C(N)=O)c5N)C4)n3)ccc2CC1C(=O)NC1CCCc2ccccc21)C(C)(C)C

> <Shape>
0.254

> <Color>
0.104

> <Negative vol penalty>
0.000

$$$$

  -OEChem-04052305413D

 82 90  0     1  0  0  0  0  0999 V2000
  -32.2706  -31.8499   15.3139 C   0  0  0  0  0  0  0  0  0  0  0  0
  -32.5542  -31.1974   16.5094 C   0  0  0  0  0  0  0  0  0  0  0  0
  -23.0251   -9.9241   19.8905 C   0  0  0  0  0  0  0  0  0  0  0  0
  -23.8530   -9.7742   22.1553 C   0  0  0  0  0  0  0  0  0  0  0  0
  -30.9718  -31.8403   14.8069 C   0  0  0  0  0  0  0  0  0  0  0  0
  -31.5389  -30.5359   17.1992 C   0  0  0  0  0  0  0  0  0  0  0  0
  -32.0612  -25.3840   20.4690 C   0  0  0  0  0  0  0  0  0  0  0  0
  -22.2715   -8.7674   20.0895 C   0  0  0  0  0  0  0  0  0  0  0  0
  -23.0992   -8.6175   22.3543 C   0  0  0  0  0  0  0  0  0  0  0  0
  -32.1988  -25.1510   21.8367 C   0  0  0  0  0  0  0  0  0  0  0  0
  -19.8786   -7.8261   23.0037 C   0  0  0  0  0  0  0  0  0  0  0  0
  -19.1563   -7.7215   24.1923 C   0  0  0  0  0  0  0  0  0  0  0  0
  -31.9114  -17.3627   21.8735 C   0  0  0  0  0  0  0  0  0  0  0  0
  -32.0387  -18.5757   22.6101 C   0  0  0  0  0  0  0  0  0  0  0  0
  -29.8178  -24.8049   22.0111 C   0  0  0  0  0  0  0  0  0  0  0  0
  -20.3892   -5.7245   24.7658 C   0  0  0  0  0  0  0  0  0  0  0  0
  -23.8160  -10.4275   20.9235 C   0  0  0  0  0  0  0  0  0  0  0  0
  -24.1927  -12.9503   20.9536 C   0  0  0  0  0  0  0  0  0  0  0  0
  -29.9420  -31.1701   15.4859 C   0  0  0  0  0  0  0  0  0  0  0  0
  -30.7974  -25.3399   19.8630 C   0  0  0  0  0  0  0  0  0  0  0  0
  -30.2248  -30.5184   16.7016 C   0  0  0  0  0  0  0  0  0  0  0  0
  -29.6672  -25.0352   20.6351 C   0  0  0  0  0  0  0  0  0  0  0  0
  -22.3085   -8.1141   21.3213 C   0  0  0  0  0  0  0  0  0  0  0  0
  -31.0767  -24.8642   22.6084 C   0  0  0  0  0  0  0  0  0  0  0  0
  -20.8562   -6.8799   22.6960 C   0  0  0  0  0  0  0  0  0  0  0  0
  -19.4116   -6.6708   25.0734 C   0  0  0  0  0  0  0  0  0  0  0  0
  -21.1115   -5.8291   23.5771 C   0  0  0  0  0  0  0  0  0  0  0  0
  -24.5952  -11.6220   20.7184 C   0  0  0  0  0  0  0  0  0  0  0  0
  -25.2849  -13.7068   20.6053 C   0  0  0  0  0  0  0  0  0  0  0  0
  -30.6978  -16.7490   22.0929 C   0  0  0  0  0  0  0  0  0  0  0  0
  -30.9174  -18.8430   23.3644 C   0  0  0  0  0  0  0  0  0  0  0  0
  -22.9433  -13.4553   21.4432 C   0  0  0  0  0  0  0  0  0  0  0  0
  -28.9784  -27.4360   18.3135 C   0  0  0  0  0  0  0  0  0  0  0  0
  -27.0972  -24.8420   17.8091 C   0  0  0  0  0  0  0  0  0  0  0  0
  -26.1227  -21.7301   18.8157 C   0  0  0  0  0  0  0  0  0  0  0  0
  -30.7693  -14.6657   20.6784 C   0  0  0  0  0  0  0  0  0  0  0  0
  -28.5440  -31.2273   14.9230 C   0  0  0  0  0  0  0  0  0  0  0  0
  -30.6692  -25.5673   18.3817 C   0  0  0  0  0  0  0  0  0  0  0  0
  -28.2907  -24.9561   20.0290 C   0  0  0  0  0  0  0  0  0  0  0  0
  -27.6026  -30.1862   15.5232 C   0  0  0  0  0  0  0  0  0  0  0  0
  -29.5480  -12.4235   18.1968 C   0  0  0  0  0  0  0  0  0  0  0  0
  -27.7346  -30.1601   17.0426 C   0  0  0  0  0  0  0  0  0  0  0  0
  -28.1175  -12.1244   18.6509 C   0  0  0  0  0  0  0  0  0  0  0  0
  -30.5019  -12.5627   19.3819 C   0  0  0  0  0  0  0  0  0  0  0  0
  -28.6482  -13.2228   20.8643 C   0  0  0  0  0  0  0  0  0  0  0  0
  -29.1555  -29.7688   17.4663 C   0  0  1  0  0  0  0  0  0  0  0  0
  -29.2687  -26.0040   17.9632 C   0  0  1  0  0  0  0  0  0  0  0  0
  -27.6382  -13.1383   19.7083 C   0  0  2  0  0  0  0  0  0  0  0  0
  -24.5396  -19.8746   18.2255 C   0  0  0  0  0  0  0  0  0  0  0  0
  -24.7808  -26.4514   18.9728 C   0  0  0  0  0  0  0  0  0  0  0  0
  -23.5162  -24.3070   19.2392 C   0  0  0  0  0  0  0  0  0  0  0  0
  -24.1936  -25.0794   16.9660 C   0  0  0  0  0  0  0  0  0  0  0  0
  -28.3408  -19.8194   18.3818 C   0  0  0  0  0  0  0  0  0  0  0  0
  -32.1627  -23.2086   25.6149 C   0  0  0  0  0  0  0  0  0  0  0  0
  -31.7004  -20.9847   24.3772 C   0  0  0  0  0  0  0  0  0  0  0  0
  -32.4375  -24.0642   24.3872 C   0  0  0  0  0  0  0  0  0  1  0  0
  -25.9536  -24.1907   18.5486 C   0  0  1  0  0  0  0  0  0  0  0  0
  -25.9428  -20.4332   18.0474 C   0  0  2  0  0  0  0  0  0  0  0  0
  -31.1976  -22.0469   25.3561 C   0  0  1  0  0  0  0  0  0  0  0  0
  -24.6366  -25.0104   18.4437 C   0  0  0  0  0  0  0  0  0  0  0  0
  -25.8454  -11.5362   20.2563 N   0  0  0  0  0  0  0  0  0  0  0  0
  -26.2380  -12.8202   20.1982 N   0  0  0  0  0  0  0  0  0  0  0  0
  -28.2163  -25.1923   18.5777 N   0  0  0  0  0  0  0  0  0  0  0  0
  -29.9851  -13.5426   20.3398 N   0  0  0  0  0  0  0  0  0  0  0  0
  -25.5134  -15.0373   20.6106 N   0  0  0  0  0  0  0  0  0  0  0  0
  -21.9281  -12.5400   21.7529 N   0  0  0  0  0  0  0  0  0  0  0  0
  -30.1609  -15.5451   21.5734 N   0  0  0  0  0  0  0  0  0  0  0  0
  -30.7218  -19.9383   24.1894 N   0  0  0  0  0  0  0  0  0  0  0  0
  -29.3466  -28.3402   17.3355 N   0  0  0  0  0  0  0  0  0  0  0  0
  -25.8538  -22.8307   18.0299 N   0  0  0  0  0  0  0  0  0  0  0  0
  -26.9190  -19.4113   18.5203 N   0  3  0  0  0  0  0  0  0  0  0  0
  -22.7277  -14.6828   21.5858 O   0  0  0  0  0  0  0  0  0  0  0  0
  -28.4574  -27.7009   19.3906 O   0  0  0  0  0  0  0  0  0  0  0  0
  -27.0041  -25.0264   16.5930 O   0  0  0  0  0  0  0  0  0  0  0  0
  -26.4637  -21.7633   19.9960 O   0  0  0  0  0  0  0  0  0  0  0  0
  -31.8864  -14.8488   20.1880 O   0  0  0  0  0  0  0  0  0  0  0  0
  -30.8988  -21.4054   26.5974 O   0  0  0  0  0  0  0  0  0  0  0  0
  -21.5730   -6.9855   21.5159 O   0  0  0  0  0  0  0  0  0  0  0  0
  -31.2080  -24.6370   23.9437 O   0  0  0  0  0  0  0  0  0  1  0  0
  -18.7190   -6.5714   26.2156 F   0  0  0  0  0  0  0  0  0  0  0  0
  -22.0503   -4.9177   23.2876 F   0  0  0  0  0  0  0  0  0  0  0  0
  -29.7180  -17.6343   23.1832 S   0  0  0  0  0  0  0  0  0  0  0  0
  1  2  1  0  0  0  0
  1  5  2  0  0  0  0
  2  6  2  0  0  0  0
  3  8  2  0  0  0  0
  3 17  1  0  0  0  0
  4  9  1  0  0  0  0
  4 17  2  0  0  0  0
  5 19  1  0  0  0  0
  6 21  1  0  0  0  0
  7 10  2  0  0  0  0
  7 20  1  0  0  0  0
  8 23  1  0  0  0  0
  9 23  2  0  0  0  0
 10 24  1  0  0  0  0
 11 12  2  0  0  0  0
 11 25  1  0  0  0  0
 12 26  1  0  0  0  0
 13 14  1  0  0  0  0
 13 30  2  0  0  0  0
 14 31  2  0  0  0  0
 15 22  1  0  0  0  0
 15 24  2  0  0  0  0
 16 26  2  0  0  0  0
 16 27  1  0  0  0  0
 17 28  1  0  0  0  0
 18 28  1  0  0  0  0
 18 29  2  0  0  0  0
 18 32  1  0  0  0  0
 19 21  2  0  0  0  0
 19 37  1  0  0  0  0
 20 22  2  0  0  0  0
 20 38  1  0  0  0  0
 21 46  1  0  0  0  0
 22 39  1  0  0  0  0
 23 78  1  0  0  0  0
 24 79  1  0  0  0  0
 25 27  2  0  0  0  0
 25 78  1  0  0  0  0
 26 80  1  0  0  0  0
 27 81  1  0  0  0  0
 28 61  2  0  0  0  0
 29 62  1  0  0  0  0
 29 65  1  0  0  0  0
 30 67  1  0  0  0  0
 30 82  1  0  0  0  0
 31 68  1  0  0  0  0
 31 82  1  0  0  0  0
 32 66  1  0  0  0  0
 32 72  2  0  0  0  0
 33 47  1  0  0  0  0
 33 69  1  0  0  0  0
 33 73  2  0  0  0  0
 34 57  1  0  0  0  0
 34 63  1  0  0  0  0
 34 74  2  0  0  0  0
 35 58  1  0  0  0  0
 35 70  1  0  0  0  0
 35 75  2  0  0  0  0
 36 64  1  0  0  0  0
 36 67  1  0  0  0  0
 36 76  2  0  0  0  0
 37 40  1  0  0  0  0
 38 47  1  0  0  0  0
 39 63  1  0  0  0  0
 40 42  1  0  0  0  0
 41 43  1  0  0  0  0
 41 44  1  0  0  0  0
 42 46  1  0  0  0  0
 43 48  1  0  0  0  0
 44 64  1  0  0  0  0
 45 48  1  0  0  0  0
 45 64  1  0  0  0  0
 46 69  1  0  0  0  0
 47 63  1  0  0  0  0
 48 62  1  0  0  0  0
 49 58  1  0  0  0  0
 50 60  1  0  0  0  0
 51 60  1  0  0  0  0
 52 60  1  0  0  0  0
 53 71  1  0  0  0  0
 54 56  1  0  0  0  0
 54 59  1  0  0  0  0
 55 59  1  0  0  0  0
 55 68  1  0  0  0  0
 56 79  1  0  0  0  0
 57 60  1  0  0  0  0
 57 70  1  0  0  0  0
 58 71  1  0  0  0  0
 59 77  1  0  0  0  0
 61 62  1  0  0  0  0
M  CHG  1  71   1
M  ISO  4  36 100  56 101  67 100  79 101
M  END
> <Batch ID>
0197

> <Smiles>
CNC(C)C(=O)NC(C(=O)N1Cc2cc([101O:1][101CH2:1]CC(O)CNc3ccc([100NH:0][100C:0](=O)N4CCCC(n5nc(-c6ccc(Oc7ccc(F)cc7F)cc6)c(C(N)=O)c5N)C4)s3)ccc2CC1C(=O)NC1CCCc2ccccc21)C(C)(C)C

> <Shape>
0.228

> <Color>
0.190

> <Negative vol penalty>
0.000

$$$$

  -OEChem-04052305413D

 81 89  0     1  0  0  0  0  0999 V2000
  -17.6566  -16.2152   20.5593 C   0  0  0  0  0  0  0  0  0  0  0  0
  -18.9243  -16.7065   20.8538 C   0  0  0  0  0  0  0  0  0  0  0  0
  -23.0724   -9.8702   19.9430 C   0  0  0  0  0  0  0  0  0  0  0  0
  -23.8351   -9.8781   22.2355 C   0  0  0  0  0  0  0  0  0  0  0  0
  -16.7810  -15.8844   21.5927 C   0  0  0  0  0  0  0  0  0  0  0  0
  -19.3169  -16.8683   22.1820 C   0  0  0  0  0  0  0  0  0  0  0  0
  -24.9387  -16.0831   24.4810 C   0  0  0  0  0  0  0  0  0  0  0  0
  -22.3290   -8.7170   20.1943 C   0  0  0  0  0  0  0  0  0  0  0  0
  -23.0916   -8.7249   22.4868 C   0  0  0  0  0  0  0  0  0  0  0  0
  -25.9590  -16.9811   24.7913 C   0  0  0  0  0  0  0  0  0  0  0  0
  -19.3826   -7.9206   21.6495 C   0  0  0  0  0  0  0  0  0  0  0  0
  -18.0752   -7.8740   21.1659 C   0  0  0  0  0  0  0  0  0  0  0  0
  -25.2220  -17.0157   27.0880 C   0  0  0  0  0  0  0  0  0  0  0  0
  -18.6335   -5.9305   19.8436 C   0  0  0  0  0  0  0  0  0  0  0  0
  -29.5004  -18.4782   23.4661 C   0  0  0  0  0  0  0  0  0  0  0  0
  -23.8255  -10.4507   20.9636 C   0  0  0  0  0  0  0  0  0  0  0  0
  -24.1668  -12.9759   20.8423 C   0  0  0  0  0  0  0  0  0  0  0  0
  -17.1666  -16.0331   22.9343 C   0  0  0  0  0  0  0  0  0  0  0  0
  -24.0441  -15.6524   25.4713 C   0  0  0  0  0  0  0  0  0  0  0  0
  -18.4452  -16.5404   23.2343 C   0  0  0  0  0  0  0  0  0  0  0  0
  -24.1927  -16.1103   26.7883 C   0  0  0  0  0  0  0  0  0  0  0  0
  -22.3386   -8.1444   21.4662 C   0  0  0  0  0  0  0  0  0  0  0  0
  -26.0990  -17.4498   26.0943 C   0  0  0  0  0  0  0  0  0  0  0  0
  -20.3156   -6.9722   21.2302 C   0  0  0  0  0  0  0  0  0  0  0  0
  -17.7006   -6.8789   20.2630 C   0  0  0  0  0  0  0  0  0  0  0  0
  -19.9410   -5.9771   20.3272 C   0  0  0  0  0  0  0  0  0  0  0  0
  -24.5941  -11.6416   20.7045 C   0  0  0  0  0  0  0  0  0  0  0  0
  -30.3363  -17.4160   23.1922 C   0  0  0  0  0  0  0  0  0  0  0  0
  -25.2584  -13.7254   20.4774 C   0  0  0  0  0  0  0  0  0  0  0  0
  -29.8861  -17.8233   25.5233 C   0  0  0  0  0  0  0  0  0  0  0  0
  -22.8968  -13.4917   21.2626 C   0  0  0  0  0  0  0  0  0  0  0  0
  -20.9048  -15.8843   25.9126 C   0  0  0  0  0  0  0  0  0  0  0  0
  -21.5095  -13.9412   28.4387 C   0  0  0  0  0  0  0  0  0  0  0  0
  -23.7567  -12.7865   30.7329 C   0  0  0  0  0  0  0  0  0  0  0  0
  -30.7423  -14.7452   20.6587 C   0  0  0  0  0  0  0  0  0  0  0  0
  -16.1685  -15.7067   24.0169 C   0  0  0  0  0  0  0  0  0  0  0  0
  -22.9652  -14.6628   25.1261 C   0  0  0  0  0  0  0  0  0  0  0  0
  -23.2709  -15.6628   27.8922 C   0  0  0  0  0  0  0  0  0  0  0  0
  -16.7975  -15.5543   25.3994 C   0  0  0  0  0  0  0  0  0  0  0  0
  -29.6021  -12.3597   18.2741 C   0  0  0  0  0  0  0  0  0  0  0  0
  -17.7649  -16.7011   25.6751 C   0  0  0  0  0  0  0  0  0  0  0  0
  -28.1652  -12.0660   18.7089 C   0  0  0  0  0  0  0  0  0  0  0  0
  -30.5206  -12.5811   19.4738 C   0  0  0  0  0  0  0  0  0  0  0  0
  -28.6205  -13.3124   20.8625 C   0  0  0  0  0  0  0  0  0  0  0  0
  -18.9167  -16.7066   24.6627 C   0  0  1  0  0  0  0  0  0  0  0  0
  -21.7950  -14.6891   26.1045 C   0  0  1  0  0  0  0  0  0  0  0  0
  -27.6449  -13.1373   19.6861 C   0  0  2  0  0  0  0  0  0  0  0  0
  -23.9478  -11.2319   32.6935 C   0  0  0  0  0  0  0  0  0  0  0  0
  -29.6659  -18.6813   29.1341 C   0  0  0  0  0  0  0  0  0  0  0  0
  -20.0639  -15.9780   30.1914 C   0  0  0  0  0  0  0  0  0  0  0  0
  -21.0950  -14.8833   32.1930 C   0  0  0  0  0  0  0  0  0  0  0  0
  -19.5478  -13.5898   30.7248 C   0  0  0  0  0  0  0  0  0  0  0  0
  -25.7886  -11.1250   29.3655 C   0  0  0  0  0  0  0  0  0  0  0  0
  -30.8093  -16.8963   21.8947 C   0  0  0  0  0  0  0  0  0  0  0  0
  -27.6185  -18.2777   27.7258 C   0  0  0  0  0  0  0  0  0  1  0  0
  -21.8665  -14.1542   29.8899 C   0  0  1  0  0  0  0  0  0  0  0  0
  -24.0991  -11.3792   31.1875 C   0  0  2  0  0  0  0  0  0  0  0  0
  -29.0896  -18.6875   27.7243 C   0  0  2  0  0  0  0  0  0  0  0  0
  -20.6596  -14.6614   30.7288 C   0  0  0  0  0  0  0  0  0  0  0  0
  -29.2408  -18.7130   24.8022 N   0  0  0  0  0  0  0  0  0  0  0  0
  -25.8585  -11.5458   20.2847 N   0  0  0  0  0  0  0  0  0  0  0  0
  -26.2350  -12.8294   20.1555 N   0  0  0  0  0  0  0  0  0  0  0  0
  -22.2279  -14.6993   27.5033 N   0  0  0  0  0  0  0  0  0  0  0  0
  -29.9710  -13.6099   20.3601 N   0  0  0  0  0  0  0  0  0  0  0  0
  -25.4686  -15.0568   20.4036 N   0  0  0  0  0  0  0  0  0  0  0  0
  -21.8854  -12.5825   21.6014 N   0  0  0  0  0  0  0  0  0  0  0  0
  -29.8493  -17.7651   26.9043 N   0  0  0  0  0  0  0  0  0  0  0  0
  -19.8885  -15.6877   24.9972 N   0  0  0  0  0  0  0  0  0  0  0  0
  -22.4337  -12.8950   30.3599 N   0  0  0  0  0  0  0  0  0  0  0  0
  -30.1440  -15.6743   21.5011 N   0  0  0  0  0  0  0  0  0  0  0  0
  -25.5043  -11.0440   30.8214 N   0  3  0  0  0  0  0  0  0  0  0  0
  -22.6604  -14.7223   21.3197 O   0  0  0  0  0  0  0  0  0  0  0  0
  -21.1229  -16.9085   26.5491 O   0  0  0  0  0  0  0  0  0  0  0  0
  -20.6307  -13.1267   28.1453 O   0  0  0  0  0  0  0  0  0  0  0  0
  -24.5796  -13.6992   30.7143 O   0  0  0  0  0  0  0  0  0  0  0  0
  -31.8776  -14.9207   20.2036 O   0  0  0  0  0  0  0  0  0  0  0  0
  -21.6131   -7.0193   21.7118 O   0  0  0  0  0  0  0  0  0  0  0  0
  -27.0937  -18.3269   26.3997 O   0  0  0  0  0  0  0  0  0  1  0  0
  -16.4446   -6.8334   19.7998 F   0  0  0  0  0  0  0  0  0  0  0  0
  -20.8326   -5.0626   19.9217 F   0  0  0  0  0  0  0  0  0  0  0  0
  -30.8246  -16.6750   24.6598 S   0  0  0  0  0  0  0  0  0  0  0  0
  1  2  1  0  0  0  0
  1  5  2  0  0  0  0
  2  6  2  0  0  0  0
  3  8  2  0  0  0  0
  3 16  1  0  0  0  0
  4  9  1  0  0  0  0
  4 16  2  0  0  0  0
  5 18  1  0  0  0  0
  6 20  1  0  0  0  0
  7 10  2  0  0  0  0
  7 19  1  0  0  0  0
  8 22  1  0  0  0  0
  9 22  2  0  0  0  0
 10 23  1  0  0  0  0
 11 12  2  0  0  0  0
 11 24  1  0  0  0  0
 12 25  1  0  0  0  0
 13 21  1  0  0  0  0
 13 23  2  0  0  0  0
 14 25  2  0  0  0  0
 14 26  1  0  0  0  0
 15 28  2  0  0  0  0
 15 60  1  0  0  0  0
 16 27  1  0  0  0  0
 17 27  1  0  0  0  0
 17 29  2  0  0  0  0
 17 31  1  0  0  0  0
 18 20  2  0  0  0  0
 18 36  1  0  0  0  0
 19 21  2  0  0  0  0
 19 37  1  0  0  0  0
 20 45  1  0  0  0  0
 21 38  1  0  0  0  0
 22 77  1  0  0  0  0
 23 78  1  0  0  0  0
 24 26  2  0  0  0  0
 24 77  1  0  0  0  0
 25 79  1  0  0  0  0
 26 80  1  0  0  0  0
 27 61  2  0  0  0  0
 28 54  1  0  0  0  0
 28 81  1  0  0  0  0
 29 62  1  0  0  0  0
 29 65  1  0  0  0  0
 30 60  2  0  0  0  0
 30 67  1  0  0  0  0
 30 81  1  0  0  0  0
 31 66  1  0  0  0  0
 31 72  2  0  0  0  0
 32 46  1  0  0  0  0
 32 68  1  0  0  0  0
 32 73  2  0  0  0  0
 33 56  1  0  0  0  0
 33 63  1  0  0  0  0
 33 74  2  0  0  0  0
 34 57  1  0  0  0  0
 34 69  1  0  0  0  0
 34 75  2  0  0  0  0
 35 64  1  0  0  0  0
 35 70  1  0  0  0  0
 35 76  2  0  0  0  0
 36 39  1  0  0  0  0
 37 46  1  0  0  0  0
 38 63  1  0  0  0  0
 39 41  1  0  0  0  0
 40 42  1  0  0  0  0
 40 43  1  0  0  0  0
 41 45  1  0  0  0  0
 42 47  1  0  0  0  0
 43 64  1  0  0  0  0
 44 47  1  0  0  0  0
 44 64  1  0  0  0  0
 45 68  1  0  0  0  0
 46 63  1  0  0  0  0
 47 62  1  0  0  0  0
 48 57  1  0  0  0  0
 49 58  1  0  0  0  0
 50 59  1  0  0  0  0
 51 59  1  0  0  0  0
 52 59  1  0  0  0  0
 53 71  1  0  0  0  0
 54 70  1  0  0  0  0
 55 58  1  0  0  0  0
 55 78  1  0  0  0  0
 56 59  1  0  0  0  0
 56 69  1  0  0  0  0
 57 71  1  0  0  0  0
 58 67  1  0  0  0  0
 61 62  1  0  0  0  0
M  CHG  1  71   1
M  ISO  4  35 100  55 101  70 100  78 101
M  END
> <Batch ID>
0197

> <Smiles>
CNC(C)C(=O)NC(C(=O)N1Cc2cc([101O:1][101CH2:1]C(C)Nc3ncc(C[100NH:0][100C:0](=O)N4CCCC(n5nc(-c6ccc(Oc7ccc(F)cc7F)cc6)c(C(N)=O)c5N)C4)s3)ccc2CC1C(=O)NC1CCCc2ccccc21)C(C)(C)C

> <Shape>
0.146

> <Color>
0.191

> <Negative vol penalty>
0.000

$$$$

  -OEChem-04052305413D

 83 91  0     1  0  0  0  0  0999 V2000
  -19.3714  -27.7340   22.0751 C   0  0  0  0  0  0  0  0  0  0  0  0
  -19.5944  -26.4210   21.6729 C   0  0  0  0  0  0  0  0  0  0  0  0
  -28.9904  -23.3018   20.7702 C   0  0  0  0  0  0  0  0  0  0  0  0
  -29.6629  -22.5417   18.5777 C   0  0  0  0  0  0  0  0  0  0  0  0
  -20.3393  -28.4080   22.8185 C   0  0  0  0  0  0  0  0  0  0  0  0
  -20.7860  -25.7816   22.0130 C   0  0  0  0  0  0  0  0  0  0  0  0
  -21.5319  -19.8505   23.3440 C   0  0  0  0  0  0  0  0  0  0  0  0
  -29.6225  -24.5238   20.5404 C   0  0  0  0  0  0  0  0  0  0  0  0
  -30.2949  -23.7637   18.3479 C   0  0  0  0  0  0  0  0  0  0  0  0
  -21.9711  -18.7668   22.5848 C   0  0  0  0  0  0  0  0  0  0  0  0
  -28.9771  -27.3843   18.8570 C   0  0  0  0  0  0  0  0  0  0  0  0
  -28.2873  -28.5461   19.2033 C   0  0  0  0  0  0  0  0  0  0  0  0
  -24.1969  -19.0579   23.4679 C   0  0  0  0  0  0  0  0  0  0  0  0
  -30.0580  -29.1408   20.7355 C   0  0  0  0  0  0  0  0  0  0  0  0
  -25.1836  -12.7415   20.9310 C   0  0  0  0  0  0  0  0  0  0  0  0
  -29.0107  -22.3107   19.7889 C   0  0  0  0  0  0  0  0  0  0  0  0
  -27.0231  -20.7126   19.7323 C   0  0  0  0  0  0  0  0  0  0  0  0
  -21.5393  -27.7734   23.1762 C   0  0  0  0  0  0  0  0  0  0  0  0
  -22.4258  -20.5540   24.1640 C   0  0  0  0  0  0  0  0  0  0  0  0
  -21.7715  -26.4483   22.7608 C   0  0  0  0  0  0  0  0  0  0  0  0
  -23.7660  -20.1485   24.2386 C   0  0  0  0  0  0  0  0  0  0  0  0
  -30.2747  -24.7548   19.3293 C   0  0  0  0  0  0  0  0  0  0  0  0
  -23.3044  -18.3722   22.6444 C   0  0  0  0  0  0  0  0  0  0  0  0
  -30.2073  -27.1007   19.4500 C   0  0  0  0  0  0  0  0  0  0  0  0
  -28.8277  -29.4244   20.1425 C   0  0  0  0  0  0  0  0  0  0  0  0
  -30.7478  -27.9789   20.3893 C   0  0  0  0  0  0  0  0  0  0  0  0
  -28.3585  -21.0480   20.0259 C   0  0  0  0  0  0  0  0  0  0  0  0
  -26.9576  -12.9101   18.9430 C   0  0  0  0  0  0  0  0  0  0  0  0
  -25.3070  -13.8924   20.1843 C   0  0  0  0  0  0  0  0  0  0  0  0
  -26.8346  -11.7595   19.6903 C   0  0  0  0  0  0  0  0  0  0  0  0
  -26.8979  -19.4086   20.1451 C   0  0  0  0  0  0  0  0  0  0  0  0
  -25.9884  -21.5086   19.1395 C   0  0  0  0  0  0  0  0  0  0  0  0
  -23.4901  -23.5472   24.2718 C   0  0  0  0  0  0  0  0  0  0  0  0
  -24.9159  -22.5297   27.0020 C   0  0  0  0  0  0  0  0  0  0  0  0
  -26.1341  -19.9223   28.8362 C   0  0  0  0  0  0  0  0  0  0  0  0
  -29.9376  -14.4879   20.3938 C   0  0  0  0  0  0  0  0  0  0  0  0
  -22.5760  -28.5584   23.9402 C   0  0  0  0  0  0  0  0  0  0  0  0
  -21.9305  -21.7041   24.9973 C   0  0  0  0  0  0  0  0  0  0  0  0
  -24.7613  -20.8578   25.1188 C   0  0  0  0  0  0  0  0  0  0  0  0
  -23.6524  -27.6849   24.5795 C   0  0  0  0  0  0  0  0  0  0  0  0
  -29.3709  -16.4937   23.2804 C   0  0  0  0  0  0  0  0  0  0  0  0
  -24.1658  -26.6532   23.5801 C   0  0  0  0  0  0  0  0  0  0  0  0
  -28.9280  -17.8414   22.7081 C   0  0  0  0  0  0  0  0  0  0  0  0
  -30.4398  -15.8353   22.4109 C   0  0  0  0  0  0  0  0  0  0  0  0
  -29.6354  -17.0383   20.4161 C   0  0  0  0  0  0  0  0  0  0  0  0
  -23.0409  -25.7125   23.1314 C   0  0  1  0  0  0  0  0  0  0  0  0
  -23.0402  -22.6685   25.4045 C   0  0  1  0  0  0  0  0  0  0  0  0
  -28.5180  -17.7148   21.2286 C   0  0  2  0  0  0  0  0  0  0  0  0
  -27.2740  -19.4070   31.0117 C   0  0  0  0  0  0  0  0  0  0  0  0
  -27.5506  -23.5661   25.8643 C   0  0  0  0  0  0  0  0  0  0  0  0
  -28.7505  -22.2062   27.5903 C   0  0  0  0  0  0  0  0  0  0  0  0
  -27.2083  -24.0352   28.2968 C   0  0  0  0  0  0  0  0  0  0  0  0
  -23.8849  -18.2280   29.7467 C   0  0  0  0  0  0  0  0  0  0  0  0
  -27.9426  -13.0225   17.8288 C   0  0  0  0  0  0  0  0  0  0  0  0
  -29.3792  -13.2746   18.3021 C   0  0  0  0  0  0  0  0  0  0  0  0
  -23.5042  -14.9463   21.5498 C   0  0  0  0  0  0  0  0  0  0  0  0
  -22.7881  -16.2842   21.6297 C   0  0  0  0  0  0  0  0  0  1  0  0
  -26.2451  -21.9008   27.3437 C   0  0  1  0  0  0  0  0  0  0  0  0
  -25.9407  -19.5376   30.2919 C   0  0  2  0  0  0  0  0  0  0  0  0
  -27.4205  -22.9147   27.2556 C   0  0  0  0  0  0  0  0  0  0  0  0
  -25.9452  -11.6544   20.6975 N   0  0  0  0  0  0  0  0  0  0  0  0
  -29.0333  -20.0385   20.5823 N   0  0  0  0  0  0  0  0  0  0  0  0
  -26.1962  -13.9974   19.1768 N   0  0  0  0  0  0  0  0  0  0  0  0
  -28.1182  -19.0560   20.6418 N   0  0  0  0  0  0  0  0  0  0  0  0
  -24.2299  -21.9803   25.9095 N   0  0  0  0  0  0  0  0  0  0  0  0
  -29.9880  -15.7440   21.0205 N   0  0  0  0  0  0  0  0  0  0  0  0
  -27.6629  -10.6532   19.3960 N   0  0  0  0  0  0  0  0  0  0  0  0
  -25.8641  -18.5407   20.1281 N   0  0  0  0  0  0  0  0  0  0  0  0
  -26.2871  -22.8284   18.7743 N   0  0  0  0  0  0  0  0  0  0  0  0
  -24.4859  -14.9652   20.4896 N   0  0  0  0  0  0  0  0  0  0  0  0
  -22.7729  -24.7223   24.1521 N   0  0  0  0  0  0  0  0  0  0  0  0
  -26.0813  -21.2886   28.6577 N   0  0  0  0  0  0  0  0  0  0  0  0
  -29.4919  -14.4897   19.0777 N   0  0  0  0  0  0  0  0  0  0  0  0
  -25.2227  -18.2355   30.3926 N   0  3  0  0  0  0  0  0  0  0  0  0
  -24.8286  -21.0679   18.9545 O   0  0  0  0  0  0  0  0  0  0  0  0
  -24.4202  -23.1866   23.5600 O   0  0  0  0  0  0  0  0  0  0  0  0
  -24.4982  -23.4690   27.6838 O   0  0  0  0  0  0  0  0  0  0  0  0
  -26.3178  -19.0940   27.9471 O   0  0  0  0  0  0  0  0  0  0  0  0
  -30.2603  -13.4417   20.9667 O   0  0  0  0  0  0  0  0  0  0  0  0
  -30.8913  -25.9472   19.1046 O   0  0  0  0  0  0  0  0  0  0  0  0
  -23.7358  -17.3152   21.9038 O   0  0  0  0  0  0  0  0  0  1  0  0
  -28.1659  -30.5408   20.4738 F   0  0  0  0  0  0  0  0  0  0  0  0
  -31.9299  -27.7124   20.9615 F   0  0  0  0  0  0  0  0  0  0  0  0
  1  2  1  0  0  0  0
  1  5  2  0  0  0  0
  2  6  2  0  0  0  0
  3  8  2  0  0  0  0
  3 16  1  0  0  0  0
  4  9  1  0  0  0  0
  4 16  2  0  0  0  0
  5 18  1  0  0  0  0
  6 20  1  0  0  0  0
  7 10  2  0  0  0  0
  7 19  1  0  0  0  0
  8 22  1  0  0  0  0
  9 22  2  0  0  0  0
 10 23  1  0  0  0  0
 11 12  2  0  0  0  0
 11 24  1  0  0  0  0
 12 25  1  0  0  0  0
 13 21  1  0  0  0  0
 13 23  2  0  0  0  0
 14 25  2  0  0  0  0
 14 26  1  0  0  0  0
 15 29  1  0  0  0  0
 15 61  2  0  0  0  0
 16 27  1  0  0  0  0
 17 27  1  0  0  0  0
 17 31  2  0  0  0  0
 17 32  1  0  0  0  0
 18 20  2  0  0  0  0
 18 37  1  0  0  0  0
 19 21  2  0  0  0  0
 19 38  1  0  0  0  0
 20 46  1  0  0  0  0
 21 39  1  0  0  0  0
 22 80  1  0  0  0  0
 23 81  1  0  0  0  0
 24 26  2  0  0  0  0
 24 80  1  0  0  0  0
 25 82  1  0  0  0  0
 26 83  1  0  0  0  0
 27 62  2  0  0  0  0
 28 30  2  0  0  0  0
 28 54  1  0  0  0  0
 28 63  1  0  0  0  0
 29 63  2  0  0  0  0
 29 70  1  0  0  0  0
 30 61  1  0  0  0  0
 30 67  1  0  0  0  0
 31 64  1  0  0  0  0
 31 68  1  0  0  0  0
 32 69  1  0  0  0  0
 32 75  2  0  0  0  0
 33 47  1  0  0  0  0
 33 71  1  0  0  0  0
 33 76  2  0  0  0  0
 34 58  1  0  0  0  0
 34 65  1  0  0  0  0
 34 77  2  0  0  0  0
 35 59  1  0  0  0  0
 35 72  1  0  0  0  0
 35 78  2  0  0  0  0
 36 66  1  0  0  0  0
 36 73  1  0  0  0  0
 36 79  2  0  0  0  0
 37 40  1  0  0  0  0
 38 47  1  0  0  0  0
 39 65  1  0  0  0  0
 40 42  1  0  0  0  0
 41 43  1  0  0  0  0
 41 44  1  0  0  0  0
 42 46  1  0  0  0  0
 43 48  1  0  0  0  0
 44 66  1  0  0  0  0
 45 48  1  0  0  0  0
 45 66  1  0  0  0  0
 46 71  1  0  0  0  0
 47 65  1  0  0  0  0
 48 64  1  0  0  0  0
 49 59  1  0  0  0  0
 50 60  1  0  0  0  0
 51 60  1  0  0  0  0
 52 60  1  0  0  0  0
 53 74  1  0  0  0  0
 54 55  1  0  0  0  0
 55 73  1  0  0  0  0
 56 57  1  0  0  0  0
 56 70  1  0  0  0  0
 57 81  1  0  0  0  0
 58 60  1  0  0  0  0
 58 72  1  0  0  0  0
 59 74  1  0  0  0  0
 62 64  1  0  0  0  0
M  CHG  1  74   1
M  ISO  4  36 100  57 101  73 100  81 101
M  END
> <Batch ID>
0197

> <Smiles>
CNC(C)C(=O)NC(C(=O)N1Cc2cc([101O:1][101CH2:1]CNc3cnc(N)c(CC[100NH:0][100C:0](=O)N4CCCC(n5nc(-c6ccc(Oc7ccc(F)cc7F)cc6)c(C(N)=O)c5N)C4)n3)ccc2CC1C(=O)NC1CCCc2ccccc21)C(C)(C)C

> <Shape>
0.221

> <Color>
0.054

> <Negative vol penalty>
0.000

$$$$

  -OEChem-04052305413D

 85 93  0     1  0  0  0  0  0999 V2000
  -22.5299  -29.2105   23.1406 C   0  0  0  0  0  0  0  0  0  0  0  0
  -23.0557  -27.9270   23.2486 C   0  0  0  0  0  0  0  0  0  0  0  0
  -27.8906  -23.6272   20.8287 C   0  0  0  0  0  0  0  0  0  0  0  0
  -29.3956  -23.5328   18.9411 C   0  0  0  0  0  0  0  0  0  0  0  0
  -21.1742  -29.3864   22.8664 C   0  0  0  0  0  0  0  0  0  0  0  0
  -22.2258  -26.8187   23.0837 C   0  0  0  0  0  0  0  0  0  0  0  0
  -22.3186  -20.0919   20.6223 C   0  0  0  0  0  0  0  0  0  0  0  0
  -27.3002  -24.7753   20.3007 C   0  0  0  0  0  0  0  0  0  0  0  0
  -28.8052  -24.6810   18.4130 C   0  0  0  0  0  0  0  0  0  0  0  0
  -21.9900  -18.7958   21.0173 C   0  0  0  0  0  0  0  0  0  0  0  0
  -25.0499  -25.5381   17.8950 C   0  0  0  0  0  0  0  0  0  0  0  0
  -23.6570  -25.6101   17.8967 C   0  0  0  0  0  0  0  0  0  0  0  0
  -19.6798  -19.2207   20.4682 C   0  0  0  0  0  0  0  0  0  0  0  0
  -23.7613  -27.5959   19.2689 C   0  0  0  0  0  0  0  0  0  0  0  0
  -25.4130  -15.3432   21.3121 C   0  0  0  0  0  0  0  0  0  0  0  0
  -28.9383  -23.0059   20.1489 C   0  0  0  0  0  0  0  0  0  0  0  0
  -30.1992  -21.6932   21.9363 C   0  0  0  0  0  0  0  0  0  0  0  0
  -20.3292  -28.2797   22.6884 C   0  0  0  0  0  0  0  0  0  0  0  0
  -21.3269  -20.9671   20.1568 C   0  0  0  0  0  0  0  0  0  0  0  0
  -20.8573  -26.9799   22.8082 C   0  0  0  0  0  0  0  0  0  0  0  0
  -19.9988  -20.5265   20.0655 C   0  0  0  0  0  0  0  0  0  0  0  0
  -27.7575  -25.3022   19.0928 C   0  0  0  0  0  0  0  0  0  0  0  0
  -20.6700  -18.3610   20.9430 C   0  0  0  0  0  0  0  0  0  0  0  0
  -25.7986  -26.4949   18.5804 C   0  0  0  0  0  0  0  0  0  0  0  0
  -23.0126  -26.6390   18.5836 C   0  0  0  0  0  0  0  0  0  0  0  0
  -25.1543  -27.5238   19.2673 C   0  0  0  0  0  0  0  0  0  0  0  0
  -29.5489  -21.8202   20.6942 C   0  0  0  0  0  0  0  0  0  0  0  0
  -24.5081  -13.2499   21.4812 C   0  0  0  0  0  0  0  0  0  0  0  0
  -26.4543  -14.8330   20.5685 C   0  0  0  0  0  0  0  0  0  0  0  0
  -25.5490  -12.7397   20.7370 C   0  0  0  0  0  0  0  0  0  0  0  0
  -30.5993  -20.3801   21.9817 C   0  0  0  0  0  0  0  0  0  0  0  0
  -30.4215  -22.6744   22.9578 C   0  0  0  0  0  0  0  0  0  0  0  0
  -20.1664  -23.7625   21.1278 C   0  0  0  0  0  0  0  0  0  0  0  0
  -18.5089  -23.5999   18.3442 C   0  0  0  0  0  0  0  0  0  0  0  0
  -17.1950  -21.6587   15.8637 C   0  0  0  0  0  0  0  0  0  0  0  0
  -28.5857  -15.4057   19.3537 C   0  0  0  0  0  0  0  0  0  0  0  0
  -18.8611  -28.5197   22.4404 C   0  0  0  0  0  0  0  0  0  0  0  0
  -21.7020  -22.3533   19.7093 C   0  0  0  0  0  0  0  0  0  0  0  0
  -18.9001  -21.4205   19.5536 C   0  0  0  0  0  0  0  0  0  0  0  0
  -18.1247  -27.2929   21.9083 C   0  0  0  0  0  0  0  0  0  0  0  0
  -31.8736  -16.7528   19.1263 C   0  0  0  0  0  0  0  0  0  0  0  0
  -18.4946  -26.0549   22.7190 C   0  0  0  0  0  0  0  0  0  0  0  0
  -31.7110  -18.1917   19.6214 C   0  0  0  0  0  0  0  0  0  0  0  0
  -30.6631  -16.2912   18.3168 C   0  0  0  0  0  0  0  0  0  0  0  0
  -29.2046  -17.8990   19.4818 C   0  0  0  0  0  0  0  0  0  0  0  0
  -19.9941  -25.7526   22.6112 C   0  0  1  0  0  0  0  0  0  0  0  0
  -20.5285  -23.3278   19.7359 C   0  0  1  0  0  0  0  0  0  0  0  0
  -30.3707  -18.3864   20.3571 C   0  0  2  0  0  0  0  0  0  0  0  0
  -23.6881  -11.8264   23.4032 C   0  0  0  0  0  0  0  0  0  0  0  0
  -16.0612  -21.1039   13.6949 C   0  0  0  0  0  0  0  0  0  0  0  0
  -20.9866  -12.4440   19.9591 C   0  0  0  0  0  0  0  0  0  0  0  0
  -15.9695  -24.0481   19.9753 C   0  0  0  0  0  0  0  0  0  0  0  0
  -14.6466  -23.2506   18.0050 C   0  0  0  0  0  0  0  0  0  0  0  0
  -16.0548  -25.3006   17.8123 C   0  0  0  0  0  0  0  0  0  0  0  0
  -19.7521  -21.7287   14.3753 C   0  0  0  0  0  0  0  0  0  0  0  0
  -20.6613  -14.7513   20.9343 C   0  0  0  0  0  0  0  0  0  0  0  0
  -21.3477  -16.0925   21.1685 C   0  0  0  0  0  0  0  0  0  1  0  0
  -23.3979  -12.3690   22.0061 C   0  0  1  0  0  0  0  0  0  0  0  0
  -17.1722  -23.0357   17.9272 C   0  0  1  0  0  0  0  0  0  0  0  0
  -17.2550  -21.7794   14.3517 C   0  0  2  0  0  0  0  0  0  0  0  0
  -21.6347  -13.5895   20.7253 C   0  0  1  0  0  0  0  0  0  0  0  0
  -15.9809  -23.8923   18.4415 C   0  0  0  0  0  0  0  0  0  0  0  0
  -24.4212  -14.5608   21.7818 N   0  0  0  0  0  0  0  0  0  0  0  0
  -29.5347  -20.6789   20.0005 N   0  0  0  0  0  0  0  0  0  0  0  0
  -26.5410  -13.5221   20.2676 N   0  0  0  0  0  0  0  0  0  0  0  0
  -30.1810  -19.8222   20.8095 N   0  0  0  0  0  0  0  0  0  0  0  0
  -19.3161  -22.7690   19.1341 N   0  0  0  0  0  0  0  0  0  0  0  0
  -29.4301  -16.5021   19.0785 N   0  0  0  0  0  0  0  0  0  0  0  0
  -25.5830  -11.3559   20.4540 N   0  0  0  0  0  0  0  0  0  0  0  0
  -31.2647  -19.6598   22.9095 N   0  0  0  0  0  0  0  0  0  0  0  0
  -31.5946  -23.4395   22.9053 N   0  0  0  0  0  0  0  0  0  0  0  0
  -27.4595  -15.7217   20.1130 N   0  0  0  0  0  0  0  0  0  0  0  0
  -20.2926  -25.1215   21.3435 N   0  0  0  0  0  0  0  0  0  0  0  0
  -17.2237  -22.8938   16.4762 N   0  0  0  0  0  0  0  0  0  0  0  0
  -18.4991  -21.1456   13.8304 N   0  3  0  0  0  0  0  0  0  0  0  0
  -22.0846  -13.0631   22.0441 N   0  3  0  0  0  0  0  0  0  0  0  0
  -29.6119  -22.8558   23.8986 O   0  0  0  0  0  0  0  0  0  0  0  0
  -19.7983  -22.9270   21.9452 O   0  0  0  0  0  0  0  0  0  0  0  0
  -18.8282  -24.7332   17.9764 O   0  0  0  0  0  0  0  0  0  0  0  0
  -17.1257  -20.5772   16.4435 O   0  0  0  0  0  0  0  0  0  0  0  0
  -28.8565  -14.2653   18.9689 O   0  0  0  0  0  0  0  0  0  0  0  0
  -27.1815  -26.4224   18.5772 O   0  0  0  0  0  0  0  0  0  0  0  0
  -20.3464  -17.0967   21.3285 O   0  0  0  0  0  0  0  0  0  1  0  0
  -21.6750  -26.7089   18.5838 F   0  0  0  0  0  0  0  0  0  0  0  0
  -25.8682  -28.4466   19.9265 F   0  0  0  0  0  0  0  0  0  0  0  0
  1  2  1  0  0  0  0
  1  5  2  0  0  0  0
  2  6  2  0  0  0  0
  3  8  2  0  0  0  0
  3 16  1  0  0  0  0
  4  9  1  0  0  0  0
  4 16  2  0  0  0  0
  5 18  1  0  0  0  0
  6 20  1  0  0  0  0
  7 10  2  0  0  0  0
  7 19  1  0  0  0  0
  8 22  1  0  0  0  0
  9 22  2  0  0  0  0
 10 23  1  0  0  0  0
 11 12  2  0  0  0  0
 11 24  1  0  0  0  0
 12 25  1  0  0  0  0
 13 21  1  0  0  0  0
 13 23  2  0  0  0  0
 14 25  2  0  0  0  0
 14 26  1  0  0  0  0
 15 29  1  0  0  0  0
 15 63  2  0  0  0  0
 16 27  1  0  0  0  0
 17 27  1  0  0  0  0
 17 31  2  0  0  0  0
 17 32  1  0  0  0  0
 18 20  2  0  0  0  0
 18 37  1  0  0  0  0
 19 21  2  0  0  0  0
 19 38  1  0  0  0  0
 20 46  1  0  0  0  0
 21 39  1  0  0  0  0
 22 82  1  0  0  0  0
 23 83  1  0  0  0  0
 24 26  2  0  0  0  0
 24 82  1  0  0  0  0
 25 84  1  0  0  0  0
 26 85  1  0  0  0  0
 27 64  2  0  0  0  0
 28 30  2  0  0  0  0
 28 58  1  0  0  0  0
 28 63  1  0  0  0  0
 29 65  2  0  0  0  0
 29 72  1  0  0  0  0
 30 65  1  0  0  0  0
 30 69  1  0  0  0  0
 31 66  1  0  0  0  0
 31 70  1  0  0  0  0
 32 71  1  0  0  0  0
 32 77  2  0  0  0  0
 33 47  1  0  0  0  0
 33 73  1  0  0  0  0
 33 78  2  0  0  0  0
 34 59  1  0  0  0  0
 34 67  1  0  0  0  0
 34 79  2  0  0  0  0
 35 60  1  0  0  0  0
 35 74  1  0  0  0  0
 35 80  2  0  0  0  0
 36 68  1  0  0  0  0
 36 72  1  0  0  0  0
 36 81  2  0  0  0  0
 37 40  1  0  0  0  0
 38 47  1  0  0  0  0
 39 67  1  0  0  0  0
 40 42  1  0  0  0  0
 41 43  1  0  0  0  0
 41 44  1  0  0  0  0
 42 46  1  0  0  0  0
 43 48  1  0  0  0  0
 44 68  1  0  0  0  0
 45 48  1  0  0  0  0
 45 68  1  0  0  0  0
 46 73  1  0  0  0  0
 47 67  1  0  0  0  0
 48 66  1  0  0  0  0
 49 58  1  0  0  0  0
 50 60  1  0  0  0  0
 51 61  1  0  0  0  0
 52 62  1  0  0  0  0
 53 62  1  0  0  0  0
 54 62  1  0  0  0  0
 55 75  1  0  0  0  0
 56 57  1  0  0  0  0
 56 61  1  0  0  0  0
 57 83  1  0  0  0  0
 58 76  1  0  0  0  0
 59 62  1  0  0  0  0
 59 74  1  0  0  0  0
 60 75  1  0  0  0  0
 61 76  1  0  0  0  0
 64 66  1  0  0  0  0
M  CHG  2  75   1  76   1
M  ISO  4  36 100  57 101  72 100  83 101
M  END
> <Batch ID>
0197

> <Smiles>
CNC(C)C(=O)NC(C(=O)N1Cc2cc([101O:1][101CH2:1]CC(C)NC(C)c3ncc([100NH:0][100C:0](=O)N4CCCC(n5nc(-c6ccc(Oc7ccc(F)cc7F)cc6)c(C(N)=O)c5N)C4)nc3N)ccc2CC1C(=O)NC1CCCc2ccccc21)C(C)(C)C

> <Shape>
0.197

> <Color>
0.065

> <Negative vol penalty>
0.000

$$$$

  -OEChem-04052305413D

 82 90  0     1  0  0  0  0  0999 V2000
  -30.9255  -35.0036   26.8667 C   0  0  0  0  0  0  0  0  0  0  0  0
  -31.1302  -33.9621   25.9674 C   0  0  0  0  0  0  0  0  0  0  0  0
  -24.4326   -9.3783   21.3802 C   0  0  0  0  0  0  0  0  0  0  0  0
  -24.7658  -10.5764   23.4516 C   0  0  0  0  0  0  0  0  0  0  0  0
  -29.7610  -35.0431   27.6325 C   0  0  0  0  0  0  0  0  0  0  0  0
  -30.1710  -32.9588   25.8342 C   0  0  0  0  0  0  0  0  0  0  0  0
  -28.6627  -29.9648   20.7091 C   0  0  0  0  0  0  0  0  0  0  0  0
  -24.2667   -8.1912   22.0935 C   0  0  0  0  0  0  0  0  0  0  0  0
  -24.5999   -9.3893   24.1649 C   0  0  0  0  0  0  0  0  0  0  0  0
  -29.0364  -28.7195   20.2057 C   0  0  0  0  0  0  0  0  0  0  0  0
  -21.8276   -6.6801   23.8824 C   0  0  0  0  0  0  0  0  0  0  0  0
  -20.7701   -5.8470   23.5176 C   0  0  0  0  0  0  0  0  0  0  0  0
  -27.0388  -27.7469   21.1454 C   0  0  0  0  0  0  0  0  0  0  0  0
  -22.3363   -4.0744   23.0257 C   0  0  0  0  0  0  0  0  0  0  0  0
  -28.9238  -18.8739   22.7799 C   0  0  0  0  0  0  0  0  0  0  0  0
  -24.6822  -10.5710   22.0592 C   0  0  0  0  0  0  0  0  0  0  0  0
  -23.8523  -12.7150   20.9536 C   0  0  0  0  0  0  0  0  0  0  0  0
  -28.7827  -34.0450   27.5016 C   0  0  0  0  0  0  0  0  0  0  0  0
  -27.4776  -30.1085   21.4450 C   0  0  0  0  0  0  0  0  0  0  0  0
  -28.9930  -32.9842   26.5999 C   0  0  0  0  0  0  0  0  0  0  0  0
  -26.6510  -28.9955   21.6548 C   0  0  0  0  0  0  0  0  0  0  0  0
  -24.3503   -8.1967   23.4858 C   0  0  0  0  0  0  0  0  0  0  0  0
  -28.2259  -27.6097   20.4263 C   0  0  0  0  0  0  0  0  0  0  0  0
  -23.1395   -6.2104   23.8189 C   0  0  0  0  0  0  0  0  0  0  0  0
  -21.0244   -4.5441   23.0893 C   0  0  0  0  0  0  0  0  0  0  0  0
  -23.3938   -4.9075   23.3906 C   0  0  0  0  0  0  0  0  0  0  0  0
  -24.8542  -11.7975   21.3229 C   0  0  0  0  0  0  0  0  0  0  0  0
  -30.0660  -18.2884   22.2752 C   0  0  0  0  0  0  0  0  0  0  0  0
  -24.5241  -13.7024   20.2754 C   0  0  0  0  0  0  0  0  0  0  0  0
  -29.6738  -20.5698   21.6089 C   0  0  0  0  0  0  0  0  0  0  0  0
  -22.4406  -12.6779   21.2016 C   0  0  0  0  0  0  0  0  0  0  0  0
  -26.7757  -30.9918   24.4166 C   0  0  0  0  0  0  0  0  0  0  0  0
  -23.7223  -30.7864   23.3411 C   0  0  0  0  0  0  0  0  0  0  0  0
  -21.5253  -29.4549   21.0946 C   0  0  0  0  0  0  0  0  0  0  0  0
  -30.1976  -15.6109   20.4168 C   0  0  0  0  0  0  0  0  0  0  0  0
  -27.5618  -34.1048   28.3851 C   0  0  0  0  0  0  0  0  0  0  0  0
  -27.0752  -31.4639   21.9583 C   0  0  0  0  0  0  0  0  0  0  0  0
  -25.3586  -29.1008   22.4210 C   0  0  0  0  0  0  0  0  0  0  0  0
  -26.4234  -33.2040   27.9129 C   0  0  0  0  0  0  0  0  0  0  0  0
  -28.4118  -14.4135   17.5789 C   0  0  0  0  0  0  0  0  0  0  0  0
  -26.9517  -31.8177   27.5581 C   0  0  0  0  0  0  0  0  0  0  0  0
  -27.2071  -13.6901   18.1833 C   0  0  0  0  0  0  0  0  0  0  0  0
  -29.6661  -14.2296   18.4304 C   0  0  0  0  0  0  0  0  0  0  0  0
  -28.3057  -13.8744   20.4544 C   0  0  0  0  0  0  0  0  0  0  0  0
  -27.9645  -31.8907   26.4090 C   0  0  1  0  0  0  0  0  0  0  0  0
  -26.1050  -31.3938   23.1336 C   0  0  1  0  0  0  0  0  0  0  0  0
  -27.0038  -14.0772   19.6605 C   0  0  2  0  0  0  0  0  0  0  0  0
  -19.0897  -29.4439   20.4905 C   0  0  0  0  0  0  0  0  0  0  0  0
  -23.1478  -28.9392   25.7008 C   0  0  0  0  0  0  0  0  0  0  0  0
  -21.0480  -28.2240   24.5400 C   0  0  0  0  0  0  0  0  0  0  0  0
  -21.3469  -30.6059   25.2182 C   0  0  0  0  0  0  0  0  0  0  0  0
  -22.0670  -30.5765   18.4099 C   0  0  0  0  0  0  0  0  0  0  0  0
  -30.6005  -16.9284   22.4810 C   0  0  0  0  0  0  0  0  0  0  0  0
  -28.7901  -22.8761   21.2548 C   0  0  0  0  0  0  0  0  0  0  0  0
  -28.1665  -25.2449   20.6716 C   0  0  0  0  0  0  0  0  0  1  0  0
  -22.6831  -29.6933   23.2756 C   0  0  1  0  0  0  0  0  0  0  0  0
  -20.4422  -30.0943   20.2446 C   0  0  2  0  0  0  0  0  0  0  0  0
  -29.1788  -24.1237   20.4639 C   0  0  1  0  0  0  0  0  0  0  0  0
  -22.0817  -29.3629   24.6708 C   0  0  0  0  0  0  0  0  0  0  0  0
  -28.6975  -20.1822   22.3993 N   0  0  0  0  0  0  0  0  0  0  0  0
  -26.0699  -12.1689   20.9131 N   0  0  0  0  0  0  0  0  0  0  0  0
  -25.8364  -13.3307   20.2792 N   0  0  0  0  0  0  0  0  0  0  0  0
  -25.0117  -30.4461   22.9082 N   0  0  0  0  0  0  0  0  0  0  0  0
  -29.4065  -14.6158   19.8194 N   0  0  0  0  0  0  0  0  0  0  0  0
  -24.1145  -14.8437   19.6820 N   0  0  0  0  0  0  0  0  0  0  0  0
  -21.9157  -11.5910   21.9139 N   0  0  0  0  0  0  0  0  0  0  0  0
  -29.7651  -21.8299   21.0424 N   0  0  0  0  0  0  0  0  0  0  0  0
  -27.2819  -32.0526   25.1432 N   0  0  0  0  0  0  0  0  0  0  0  0
  -21.6997  -30.1237   22.2877 N   0  0  0  0  0  0  0  0  0  0  0  0
  -29.8808  -15.9213   21.7336 N   0  0  0  0  0  0  0  0  0  0  0  0
  -20.7723  -29.9598   18.7976 N   0  3  0  0  0  0  0  0  0  0  0  0
  -21.6654  -13.5737   20.7892 O   0  0  0  0  0  0  0  0  0  0  0  0
  -26.8287  -29.8071   24.7253 O   0  0  0  0  0  0  0  0  0  0  0  0
  -23.4000  -31.9031   23.7543 O   0  0  0  0  0  0  0  0  0  0  0  0
  -22.1513  -28.4593   20.7375 O   0  0  0  0  0  0  0  0  0  0  0  0
  -31.1147  -16.1843   19.8191 O   0  0  0  0  0  0  0  0  0  0  0  0
  -30.4477  -24.5927   20.9249 O   0  0  0  0  0  0  0  0  0  0  0  0
  -24.1883   -7.0385   24.1822 O   0  0  0  0  0  0  0  0  0  0  0  0
  -28.5887  -26.3930   19.9367 O   0  0  0  0  0  0  0  0  0  1  0  0
  -20.0086   -3.7437   22.7404 F   0  0  0  0  0  0  0  0  0  0  0  0
  -24.6519   -4.4502   23.3286 F   0  0  0  0  0  0  0  0  0  0  0  0
  -30.8971  -19.4117   21.2808 S   0  0  0  0  0  0  0  0  0  0  0  0
  1  2  1  0  0  0  0
  1  5  2  0  0  0  0
  2  6  2  0  0  0  0
  3  8  2  0  0  0  0
  3 16  1  0  0  0  0
  4  9  1  0  0  0  0
  4 16  2  0  0  0  0
  5 18  1  0  0  0  0
  6 20  1  0  0  0  0
  7 10  2  0  0  0  0
  7 19  1  0  0  0  0
  8 22  1  0  0  0  0
  9 22  2  0  0  0  0
 10 23  1  0  0  0  0
 11 12  2  0  0  0  0
 11 24  1  0  0  0  0
 12 25  1  0  0  0  0
 13 21  1  0  0  0  0
 13 23  2  0  0  0  0
 14 25  2  0  0  0  0
 14 26  1  0  0  0  0
 15 28  2  0  0  0  0
 15 60  1  0  0  0  0
 16 27  1  0  0  0  0
 17 27  1  0  0  0  0
 17 29  2  0  0  0  0
 17 31  1  0  0  0  0
 18 20  2  0  0  0  0
 18 36  1  0  0  0  0
 19 21  2  0  0  0  0
 19 37  1  0  0  0  0
 20 45  1  0  0  0  0
 21 38  1  0  0  0  0
 22 78  1  0  0  0  0
 23 79  1  0  0  0  0
 24 26  2  0  0  0  0
 24 78  1  0  0  0  0
 25 80  1  0  0  0  0
 26 81  1  0  0  0  0
 27 61  2  0  0  0  0
 28 53  1  0  0  0  0
 28 82  1  0  0  0  0
 29 62  1  0  0  0  0
 29 65  1  0  0  0  0
 30 60  2  0  0  0  0
 30 67  1  0  0  0  0
 30 82  1  0  0  0  0
 31 66  1  0  0  0  0
 31 72  2  0  0  0  0
 32 46  1  0  0  0  0
 32 68  1  0  0  0  0
 32 73  2  0  0  0  0
 33 56  1  0  0  0  0
 33 63  1  0  0  0  0
 33 74  2  0  0  0  0
 34 57  1  0  0  0  0
 34 69  1  0  0  0  0
 34 75  2  0  0  0  0
 35 64  1  0  0  0  0
 35 70  1  0  0  0  0
 35 76  2  0  0  0  0
 36 39  1  0  0  0  0
 37 46  1  0  0  0  0
 38 63  1  0  0  0  0
 39 41  1  0  0  0  0
 40 42  1  0  0  0  0
 40 43  1  0  0  0  0
 41 45  1  0  0  0  0
 42 47  1  0  0  0  0
 43 64  1  0  0  0  0
 44 47  1  0  0  0  0
 44 64  1  0  0  0  0
 45 68  1  0  0  0  0
 46 63  1  0  0  0  0
 47 62  1  0  0  0  0
 48 57  1  0  0  0  0
 49 59  1  0  0  0  0
 50 59  1  0  0  0  0
 51 59  1  0  0  0  0
 52 71  1  0  0  0  0
 53 70  1  0  0  0  0
 54 58  1  0  0  0  0
 54 67  1  0  0  0  0
 55 58  1  0  0  0  0
 55 79  1  0  0  0  0
 56 59  1  0  0  0  0
 56 69  1  0  0  0  0
 57 71  1  0  0  0  0
 58 77  1  0  0  0  0
 61 62  1  0  0  0  0
M  CHG  1  71   1
M  ISO  4  35 100  55 101  70 100  79 101
M  END
> <Batch ID>
0197

> <Smiles>
CNC(C)C(=O)NC(C(=O)N1Cc2cc([101O:1][101CH2:1]C(O)CNc3ncc(C[100NH:0][100C:0](=O)N4CCCC(n5nc(-c6ccc(Oc7ccc(F)cc7F)cc6)c(C(N)=O)c5N)C4)s3)ccc2CC1C(=O)NC1CCCc2ccccc21)C(C)(C)C

> <Shape>
0.305

> <Color>
0.107

> <Negative vol penalty>
0.000

$$$$

  -OEChem-04052305413D

 83 91  0     1  0  0  0  0  0999 V2000
  -28.0567  -30.2217   23.1747 C   0  0  0  0  0  0  0  0  0  0  0  0
  -28.0187  -29.0937   23.9880 C   0  0  0  0  0  0  0  0  0  0  0  0
  -23.9159   -9.4933   19.8660 C   0  0  0  0  0  0  0  0  0  0  0  0
  -24.5229   -9.7017   22.1952 C   0  0  0  0  0  0  0  0  0  0  0  0
  -27.6911  -30.1247   21.8327 C   0  0  0  0  0  0  0  0  0  0  0  0
  -27.6140  -27.8681   23.4600 C   0  0  0  0  0  0  0  0  0  0  0  0
  -29.7190  -22.3246   24.9911 C   0  0  0  0  0  0  0  0  0  0  0  0
  -23.5154   -8.1758   20.0882 C   0  0  0  0  0  0  0  0  0  0  0  0
  -24.1223   -8.3842   22.4174 C   0  0  0  0  0  0  0  0  0  0  0  0
  -29.2278  -21.3375   25.8444 C   0  0  0  0  0  0  0  0  0  0  0  0
  -21.2232   -6.7051   22.8608 C   0  0  0  0  0  0  0  0  0  0  0  0
  -20.4484   -6.4470   23.9916 C   0  0  0  0  0  0  0  0  0  0  0  0
  -28.2037  -20.2288   23.9625 C   0  0  0  0  0  0  0  0  0  0  0  0
  -22.1456   -4.9342   24.8090 C   0  0  0  0  0  0  0  0  0  0  0  0
  -32.4522  -16.6297   25.0831 C   0  0  0  0  0  0  0  0  0  0  0  0
  -24.4198  -10.2562   20.9195 C   0  0  0  0  0  0  0  0  0  0  0  0
  -24.0417  -12.7759   20.7935 C   0  0  0  0  0  0  0  0  0  0  0  0
  -27.2910  -28.8954   21.2856 C   0  0  0  0  0  0  0  0  0  0  0  0
  -29.4466  -22.2770   23.6163 C   0  0  0  0  0  0  0  0  0  0  0  0
  -27.2415  -27.7549   22.1098 C   0  0  0  0  0  0  0  0  0  0  0  0
  -28.6948  -21.2151   23.0936 C   0  0  0  0  0  0  0  0  0  0  0  0
  -23.6185   -7.6213   21.3639 C   0  0  0  0  0  0  0  0  0  0  0  0
  -28.4676  -20.2910   25.3306 C   0  0  0  0  0  0  0  0  0  0  0  0
  -22.4591   -6.0778   22.7040 C   0  0  0  0  0  0  0  0  0  0  0  0
  -20.9096   -5.5615   24.9657 C   0  0  0  0  0  0  0  0  0  0  0  0
  -22.9204   -5.1923   23.6781 C   0  0  0  0  0  0  0  0  0  0  0  0
  -24.8343  -11.6170   20.6904 C   0  0  0  0  0  0  0  0  0  0  0  0
  -33.0518  -16.2288   23.9066 C   0  0  0  0  0  0  0  0  0  0  0  0
  -31.0939  -16.4020   25.1688 C   0  0  0  0  0  0  0  0  0  0  0  0
  -24.8956  -13.8049   20.4798 C   0  0  0  0  0  0  0  0  0  0  0  0
  -31.0662  -15.4813   23.0906 C   0  0  0  0  0  0  0  0  0  0  0  0
  -22.6574  -12.9102   21.1417 C   0  0  0  0  0  0  0  0  0  0  0  0
  -27.9149  -24.1627   21.5665 C   0  0  0  0  0  0  0  0  0  0  0  0
  -29.0523  -22.0544   19.3792 C   0  0  0  0  0  0  0  0  0  0  0  0
  -30.1988  -18.9107   18.7089 C   0  0  0  0  0  0  0  0  0  0  0  0
  -30.8287  -14.4316   20.8129 C   0  0  0  0  0  0  0  0  0  0  0  0
  -26.8597  -28.8496   19.8412 C   0  0  0  0  0  0  0  0  0  0  0  0
  -30.0063  -23.3350   22.7054 C   0  0  0  0  0  0  0  0  0  0  0  0
  -28.3913  -21.1071   21.6223 C   0  0  0  0  0  0  0  0  0  0  0  0
  -26.8016  -27.4363   19.2673 C   0  0  0  0  0  0  0  0  0  0  0  0
  -28.8125  -14.7655   17.8973 C   0  0  0  0  0  0  0  0  0  0  0  0
  -26.0844  -26.4974   20.2322 C   0  0  0  0  0  0  0  0  0  0  0  0
  -27.4893  -14.1069   18.2941 C   0  0  0  0  0  0  0  0  0  0  0  0
  -30.0122  -14.0361   18.4995 C   0  0  0  0  0  0  0  0  0  0  0  0
  -28.6297  -13.1802   20.3503 C   0  0  0  0  0  0  0  0  0  0  0  0
  -26.8318  -26.4027   21.5678 C   0  0  1  0  0  0  0  0  0  0  0  0
  -29.2347  -23.4651   21.3958 C   0  0  1  0  0  0  0  0  0  0  0  0
  -27.3893  -13.9181   19.8205 C   0  0  2  0  0  0  0  0  0  0  0  0
  -34.5178  -16.4337   23.7212 C   0  0  0  0  0  0  0  0  0  0  0  0
  -31.0163  -17.4729   16.8217 C   0  0  0  0  0  0  0  0  0  0  0  0
  -28.7716  -15.1599   26.9331 C   0  0  0  0  0  0  0  0  0  0  0  0
  -26.1838  -21.7207   18.3941 C   0  0  0  0  0  0  0  0  0  0  0  0
  -26.9070  -19.6373   17.2091 C   0  0  0  0  0  0  0  0  0  0  0  0
  -27.9026  -21.8366   16.5812 C   0  0  0  0  0  0  0  0  0  0  0  0
  -32.8433  -18.5384   19.9844 C   0  0  0  0  0  0  0  0  0  0  0  0
  -28.5670  -17.5578   27.6771 C   0  0  0  0  0  0  0  0  0  0  0  0
  -28.7548  -19.0305   27.3268 C   0  0  0  0  0  0  0  0  0  1  0  0
  -28.5511  -20.7641   18.7769 C   0  0  1  0  0  0  0  0  0  0  0  0
  -31.4137  -18.4244   17.9394 C   0  0  2  0  0  0  0  0  0  0  0  0
  -29.0362  -16.6161   26.5636 C   0  0  1  0  0  0  0  0  0  0  0  0
  -27.3900  -20.9925   17.7684 C   0  0  0  0  0  0  0  0  0  0  0  0
  -26.0948  -11.8841   20.3386 N   0  0  0  0  0  0  0  0  0  0  0  0
  -32.3866  -15.6492   22.8859 N   0  0  0  0  0  0  0  0  0  0  0  0
  -30.3667  -15.8280   24.1879 N   0  0  0  0  0  0  0  0  0  0  0  0
  -26.1007  -13.2225   20.2178 N   0  0  0  0  0  0  0  0  0  0  0  0
  -28.9554  -22.1694   20.7732 N   0  0  0  0  0  0  0  0  0  0  0  0
  -29.8497  -13.8977   19.9484 N   0  0  0  0  0  0  0  0  0  0  0  0
  -24.7257  -15.1421   20.4052 N   0  0  0  0  0  0  0  0  0  0  0  0
  -21.9267  -11.7507   21.4351 N   0  0  0  0  0  0  0  0  0  0  0  0
  -30.4552  -16.7898   26.3329 N   0  0  0  0  0  0  0  0  0  0  0  0
  -30.3348  -14.8752   22.0392 N   0  0  0  0  0  0  0  0  0  0  0  0
  -27.9847  -25.5371   21.4415 N   0  0  0  0  0  0  0  0  0  0  0  0
  -29.7177  -20.1005   18.2048 N   0  0  0  0  0  0  0  0  0  0  0  0
  -32.3533  -17.7123   18.8511 N   0  3  0  0  0  0  0  0  0  0  0  0
  -22.0812  -14.0239   21.1753 O   0  0  0  0  0  0  0  0  0  0  0  0
  -26.9075  -23.5027   21.7932 O   0  0  0  0  0  0  0  0  0  0  0  0
  -29.5192  -22.9253   18.6409 O   0  0  0  0  0  0  0  0  0  0  0  0
  -29.7220  -18.2947   19.6595 O   0  0  0  0  0  0  0  0  0  0  0  0
  -32.0132  -14.5160   20.4786 O   0  0  0  0  0  0  0  0  0  0  0  0
  -23.2275   -6.3358   21.5812 O   0  0  0  0  0  0  0  0  0  0  0  0
  -27.9863  -19.3266   26.1614 O   0  0  0  0  0  0  0  0  0  1  0  0
  -20.1662   -5.3148   26.0523 F   0  0  0  0  0  0  0  0  0  0  0  0
  -24.1074   -4.5876   23.5336 F   0  0  0  0  0  0  0  0  0  0  0  0
  1  2  1  0  0  0  0
  1  5  2  0  0  0  0
  2  6  2  0  0  0  0
  3  8  2  0  0  0  0
  3 16  1  0  0  0  0
  4  9  1  0  0  0  0
  4 16  2  0  0  0  0
  5 18  1  0  0  0  0
  6 20  1  0  0  0  0
  7 10  2  0  0  0  0
  7 19  1  0  0  0  0
  8 22  1  0  0  0  0
  9 22  2  0  0  0  0
 10 23  1  0  0  0  0
 11 12  2  0  0  0  0
 11 24  1  0  0  0  0
 12 25  1  0  0  0  0
 13 21  1  0  0  0  0
 13 23  2  0  0  0  0
 14 25  2  0  0  0  0
 14 26  1  0  0  0  0
 15 28  2  0  0  0  0
 15 29  1  0  0  0  0
 16 27  1  0  0  0  0
 17 27  1  0  0  0  0
 17 30  2  0  0  0  0
 17 32  1  0  0  0  0
 18 20  2  0  0  0  0
 18 37  1  0  0  0  0
 19 21  2  0  0  0  0
 19 38  1  0  0  0  0
 20 46  1  0  0  0  0
 21 39  1  0  0  0  0
 22 80  1  0  0  0  0
 23 81  1  0  0  0  0
 24 26  2  0  0  0  0
 24 80  1  0  0  0  0
 25 82  1  0  0  0  0
 26 83  1  0  0  0  0
 27 62  2  0  0  0  0
 28 49  1  0  0  0  0
 28 63  1  0  0  0  0
 29 64  2  0  0  0  0
 29 70  1  0  0  0  0
 30 65  1  0  0  0  0
 30 68  1  0  0  0  0
 31 63  2  0  0  0  0
 31 64  1  0  0  0  0
 31 71  1  0  0  0  0
 32 69  1  0  0  0  0
 32 75  2  0  0  0  0
 33 47  1  0  0  0  0
 33 72  1  0  0  0  0
 33 76  2  0  0  0  0
 34 58  1  0  0  0  0
 34 66  1  0  0  0  0
 34 77  2  0  0  0  0
 35 59  1  0  0  0  0
 35 73  1  0  0  0  0
 35 78  2  0  0  0  0
 36 67  1  0  0  0  0
 36 71  1  0  0  0  0
 36 79  2  0  0  0  0
 37 40  1  0  0  0  0
 38 47  1  0  0  0  0
 39 66  1  0  0  0  0
 40 42  1  0  0  0  0
 41 43  1  0  0  0  0
 41 44  1  0  0  0  0
 42 46  1  0  0  0  0
 43 48  1  0  0  0  0
 44 67  1  0  0  0  0
 45 48  1  0  0  0  0
 45 67  1  0  0  0  0
 46 72  1  0  0  0  0
 47 66  1  0  0  0  0
 48 65  1  0  0  0  0
 50 59  1  0  0  0  0
 51 60  1  0  0  0  0
 52 61  1  0  0  0  0
 53 61  1  0  0  0  0
 54 61  1  0  0  0  0
 55 74  1  0  0  0  0
 56 57  1  0  0  0  0
 56 60  1  0  0  0  0
 57 81  1  0  0  0  0
 58 61  1  0  0  0  0
 58 73  1  0  0  0  0
 59 74  1  0  0  0  0
 60 70  1  0  0  0  0
 62 65  1  0  0  0  0
M  CHG  1  74   1
M  ISO  4  36 100  57 101  71 100  81 101
M  END
> <Batch ID>
0197

> <Smiles>
CNC(C)C(=O)NC(C(=O)N1Cc2cc([101O:1][101CH2:1]CC(C)Nc3cc(C)nc([100NH:0][100C:0](=O)N4CCCC(n5nc(-c6ccc(Oc7ccc(F)cc7F)cc6)c(C(N)=O)c5N)C4)n3)ccc2CC1C(=O)NC1CCCc2ccccc21)C(C)(C)C

> <Shape>
0.245

> <Color>
0.148

> <Negative vol penalty>
0.000

$$$$

  -OEChem-04052305413D

 86 94  0     1  0  0  0  0  0999 V2000
  -16.7019  -29.8896   24.4386 C   0  0  0  0  0  0  0  0  0  0  0  0
  -16.8866  -28.7735   23.6290 C   0  0  0  0  0  0  0  0  0  0  0  0
  -23.9934   -9.7583   22.1850 C   0  0  0  0  0  0  0  0  0  0  0  0
  -24.3765  -11.3182   23.9897 C   0  0  0  0  0  0  0  0  0  0  0  0
  -17.6159  -30.9415   24.3930 C   0  0  0  0  0  0  0  0  0  0  0  0
  -17.9851  -28.7090   22.7724 C   0  0  0  0  0  0  0  0  0  0  0  0
  -23.5929  -23.2977   22.2285 C   0  0  0  0  0  0  0  0  0  0  0  0
  -23.5274   -8.8142   23.1000 C   0  0  0  0  0  0  0  0  0  0  0  0
  -23.9105  -10.3742   24.9047 C   0  0  0  0  0  0  0  0  0  0  0  0
  -24.7260  -22.4883   22.1435 C   0  0  0  0  0  0  0  0  0  0  0  0
  -20.6831   -8.2103   24.8257 C   0  0  0  0  0  0  0  0  0  0  0  0
  -19.5155   -7.5179   24.5049 C   0  0  0  0  0  0  0  0  0  0  0  0
  -26.0066  -24.3526   21.2876 C   0  0  0  0  0  0  0  0  0  0  0  0
  -20.7273   -5.4300   24.6003 C   0  0  0  0  0  0  0  0  0  0  0  0
  -31.3950  -19.5733   20.7578 C   0  0  0  0  0  0  0  0  0  0  0  0
  -24.4180  -11.0103   22.6299 C   0  0  0  0  0  0  0  0  0  0  0  0
  -24.1419  -12.9581   21.0059 C   0  0  0  0  0  0  0  0  0  0  0  0
  -18.7313  -30.8857   23.5424 C   0  0  0  0  0  0  0  0  0  0  0  0
  -23.6664  -24.6432   21.8574 C   0  0  0  0  0  0  0  0  0  0  0  0
  -18.9141  -29.7617   22.7144 C   0  0  0  0  0  0  0  0  0  0  0  0
  -24.8781  -25.1713   21.3824 C   0  0  0  0  0  0  0  0  0  0  0  0
  -23.4859   -9.1221   24.4598 C   0  0  0  0  0  0  0  0  0  0  0  0
  -25.9297  -23.0144   21.6740 C   0  0  0  0  0  0  0  0  0  0  0  0
  -21.8729   -7.5125   25.0337 C   0  0  0  0  0  0  0  0  0  0  0  0
  -19.5376   -6.1278   24.3922 C   0  0  0  0  0  0  0  0  0  0  0  0
  -21.8950   -6.1224   24.9211 C   0  0  0  0  0  0  0  0  0  0  0  0
  -24.9000  -11.9857   21.6853 C   0  0  0  0  0  0  0  0  0  0  0  0
  -30.2762  -19.4350   21.5524 C   0  0  0  0  0  0  0  0  0  0  0  0
  -25.0577  -13.6290   20.2327 C   0  0  0  0  0  0  0  0  0  0  0  0
  -31.2077  -17.4904   21.9531 C   0  0  0  0  0  0  0  0  0  0  0  0
  -22.7357  -13.2307   21.0682 C   0  0  0  0  0  0  0  0  0  0  0  0
  -21.8795  -27.9225   21.4991 C   0  0  0  0  0  0  0  0  0  0  0  0
  -27.1371  -19.3537   21.7958 C   0  0  0  0  0  0  0  0  0  0  0  0
  -24.6744  -28.5463   22.5990 C   0  0  0  0  0  0  0  0  0  0  0  0
  -27.6811  -28.7693   24.1950 C   0  0  0  0  0  0  0  0  0  0  0  0
  -30.9646  -14.4776   20.7221 C   0  0  0  0  0  0  0  0  0  0  0  0
  -19.6665  -32.0679   23.4931 C   0  0  0  0  0  0  0  0  0  0  0  0
  -22.4558  -25.5364   21.8743 C   0  0  0  0  0  0  0  0  0  0  0  0
  -24.9016  -26.6154   20.9617 C   0  0  0  0  0  0  0  0  0  0  0  0
  -21.0069  -31.7570   22.8321 C   0  0  0  0  0  0  0  0  0  0  0  0
  -29.2334  -13.0021   17.9830 C   0  0  0  0  0  0  0  0  0  0  0  0
  -20.7952  -30.9894   21.5311 C   0  0  0  0  0  0  0  0  0  0  0  0
  -27.8581  -12.6621   18.5600 C   0  0  0  0  0  0  0  0  0  0  0  0
  -30.3434  -12.7969   19.0116 C   0  0  0  0  0  0  0  0  0  0  0  0
  -28.7642  -13.1609   20.8684 C   0  0  0  0  0  0  0  0  0  0  0  0
  -20.1066  -29.6439   21.7902 C   0  0  1  0  0  0  0  0  0  0  0  0
  -22.7850  -26.9920   22.2511 C   0  0  1  0  0  0  0  0  0  0  0  0
  -27.6066  -13.4058   19.8854 C   0  0  2  0  0  0  0  0  0  0  0  0
  -25.3118  -17.6054   21.8992 C   0  0  0  0  0  0  0  0  0  0  0  0
  -28.9773  -22.0508   24.8463 C   0  0  0  0  0  0  0  0  0  0  0  0
  -29.2647  -30.4438   25.1878 C   0  0  0  0  0  0  0  0  0  0  0  0
  -25.5737  -29.3512   19.7977 C   0  0  0  0  0  0  0  0  0  0  0  0
  -27.6903  -30.2292   20.8064 C   0  0  0  0  0  0  0  0  0  0  0  0
  -25.4966  -31.2282   21.4486 C   0  0  0  0  0  0  0  0  0  0  0  0
  -27.4562  -27.5594   26.8865 C   0  0  0  0  0  0  0  0  0  0  0  0
  -31.4405  -16.1378   22.5044 C   0  0  0  0  0  0  0  0  0  0  0  0
  -26.2821  -18.4663   22.6885 C   0  0  0  0  0  0  0  0  0  0  0  0
  -28.4881  -22.5857   23.5062 C   0  0  0  0  0  0  0  0  0  0  0  0
  -28.1283  -20.2705   22.5086 C   0  0  2  0  0  0  0  0  0  0  0  0
  -26.1013  -28.9214   22.2883 C   0  0  1  0  0  0  0  0  0  0  0  0
  -28.1003  -29.5030   25.4561 C   0  0  2  0  0  0  0  0  0  0  0  0
  -27.4979  -21.6371   22.8147 C   0  0  2  0  0  0  0  0  0  1  0  0
  -26.2077  -29.9054   21.0892 C   0  0  0  0  0  0  0  0  0  0  0  0
  -26.1974  -12.0313   21.3712 N   0  0  0  0  0  0  0  0  0  0  0  0
  -30.1669  -18.2411   22.2382 N   0  0  0  0  0  0  0  0  0  0  0  0
  -26.2617  -13.0403   20.4859 N   0  0  0  0  0  0  0  0  0  0  0  0
  -24.1529  -27.4327   21.9293 N   0  0  0  0  0  0  0  0  0  0  0  0
  -30.0447  -13.5297   20.2444 N   0  0  0  0  0  0  0  0  0  0  0  0
  -24.9425  -14.6590   19.3677 N   0  0  0  0  0  0  0  0  0  0  0  0
  -21.9399  -12.4463   21.9142 N   0  0  0  0  0  0  0  0  0  0  0  0
  -29.3056  -20.4125   21.6766 N   0  0  0  0  0  0  0  0  0  0  0  0
  -21.0557  -28.6819   22.3080 N   0  0  0  0  0  0  0  0  0  0  0  0
  -26.6694  -29.4310   23.5316 N   0  0  0  0  0  0  0  0  0  0  0  0
  -30.6012  -15.1315   21.8930 N   0  0  0  0  0  0  0  0  0  0  0  0
  -28.5140  -28.5312   26.5075 N   0  3  0  0  0  0  0  0  0  0  0  0
  -22.1980  -14.1321   20.3813 O   0  0  0  0  0  0  0  0  0  0  0  0
  -21.9249  -27.9516   20.2748 O   0  0  0  0  0  0  0  0  0  0  0  0
  -27.0242  -19.3458   20.5696 O   0  0  0  0  0  0  0  0  0  0  0  0
  -24.0353  -29.2238   23.4088 O   0  0  0  0  0  0  0  0  0  0  0  0
  -28.2017  -27.7167   23.8325 O   0  0  0  0  0  0  0  0  0  0  0  0
  -32.0284  -14.7267   20.1449 O   0  0  0  0  0  0  0  0  0  0  0  0
  -23.0311   -8.2012   25.3529 O   0  0  0  0  0  0  0  0  0  0  0  0
  -27.0332  -22.2198   21.5978 O   0  0  0  0  0  0  0  0  0  1  0  0
  -18.4159   -5.4629   24.0857 F   0  0  0  0  0  0  0  0  0  0  0  0
  -23.0347   -5.4465   25.1210 F   0  0  0  0  0  0  0  0  0  0  0  0
  -32.3572  -18.1579   20.8677 S   0  0  0  0  0  0  0  0  0  0  0  0
  1  2  1  0  0  0  0
  1  5  2  0  0  0  0
  2  6  2  0  0  0  0
  3  8  2  0  0  0  0
  3 16  1  0  0  0  0
  4  9  1  0  0  0  0
  4 16  2  0  0  0  0
  5 18  1  0  0  0  0
  6 20  1  0  0  0  0
  7 10  2  0  0  0  0
  7 19  1  0  0  0  0
  8 22  1  0  0  0  0
  9 22  2  0  0  0  0
 10 23  1  0  0  0  0
 11 12  2  0  0  0  0
 11 24  1  0  0  0  0
 12 25  1  0  0  0  0
 13 21  1  0  0  0  0
 13 23  2  0  0  0  0
 14 25  2  0  0  0  0
 14 26  1  0  0  0  0
 15 28  2  0  0  0  0
 15 86  1  0  0  0  0
 16 27  1  0  0  0  0
 17 27  1  0  0  0  0
 17 29  2  0  0  0  0
 17 31  1  0  0  0  0
 18 20  2  0  0  0  0
 18 37  1  0  0  0  0
 19 21  2  0  0  0  0
 19 38  1  0  0  0  0
 20 46  1  0  0  0  0
 21 39  1  0  0  0  0
 22 82  1  0  0  0  0
 23 83  1  0  0  0  0
 24 26  2  0  0  0  0
 24 82  1  0  0  0  0
 25 84  1  0  0  0  0
 26 85  1  0  0  0  0
 27 64  2  0  0  0  0
 28 65  1  0  0  0  0
 28 71  1  0  0  0  0
 29 66  1  0  0  0  0
 29 69  1  0  0  0  0
 30 56  1  0  0  0  0
 30 65  2  0  0  0  0
 30 86  1  0  0  0  0
 31 70  1  0  0  0  0
 31 76  2  0  0  0  0
 32 47  1  0  0  0  0
 32 72  1  0  0  0  0
 32 77  2  0  0  0  0
 33 57  1  0  0  0  0
 33 59  1  0  0  0  0
 33 78  2  0  0  0  0
 34 60  1  0  0  0  0
 34 67  1  0  0  0  0
 34 79  2  0  0  0  0
 35 61  1  0  0  0  0
 35 73  1  0  0  0  0
 35 80  2  0  0  0  0
 36 68  1  0  0  0  0
 36 74  1  0  0  0  0
 36 81  2  0  0  0  0
 37 40  1  0  0  0  0
 38 47  1  0  0  0  0
 39 67  1  0  0  0  0
 40 42  1  0  0  0  0
 41 43  1  0  0  0  0
 41 44  1  0  0  0  0
 42 46  1  0  0  0  0
 43 48  1  0  0  0  0
 44 68  1  0  0  0  0
 45 48  1  0  0  0  0
 45 68  1  0  0  0  0
 46 72  1  0  0  0  0
 47 67  1  0  0  0  0
 48 66  1  0  0  0  0
 49 57  1  0  0  0  0
 50 58  1  0  0  0  0
 51 61  1  0  0  0  0
 52 63  1  0  0  0  0
 53 63  1  0  0  0  0
 54 63  1  0  0  0  0
 55 75  1  0  0  0  0
 56 74  1  0  0  0  0
 58 62  1  0  0  0  0
 59 62  1  0  0  0  0
 59 71  1  0  0  0  0
 60 63  1  0  0  0  0
 60 73  1  0  0  0  0
 61 75  1  0  0  0  0
 62 83  1  0  0  0  0
 64 66  1  0  0  0  0
M  CHG  1  75   1
M  ISO  4  36 100  62 101  74 100  83 101
M  END
> <Batch ID>
0197

> <Smiles>
CCC(=O)C(Nc1csc(C[100NH:0][100C:0](=O)N2CCCC(n3nc(-c4ccc(Oc5ccc(F)cc5F)cc4)c(C(N)=O)c3N)C2)n1)[101CH:1](CC)[101O:1]c1ccc2c(c1)CN(C(=O)C(NC(=O)C(C)NC)C(C)(C)C)C(C(=O)NC1CCCc3ccccc31)C2

> <Shape>
0.269

> <Color>
0.138

> <Negative vol penalty>
0.000

$$$$

  -OEChem-04052305413D

 83 91  0     1  0  0  0  0  0999 V2000
  -19.7770  -34.2127   23.3568 C   0  0  0  0  0  0  0  0  0  0  0  0
  -21.0744  -33.9062   22.9588 C   0  0  0  0  0  0  0  0  0  0  0  0
  -27.1417  -12.9095   21.0339 C   0  0  0  0  0  0  0  0  0  0  0  0
  -27.0669  -13.2458   18.6426 C   0  0  0  0  0  0  0  0  0  0  0  0
  -18.9701  -33.2250   23.9199 C   0  0  0  0  0  0  0  0  0  0  0  0
  -21.5660  -32.6119   23.1249 C   0  0  0  0  0  0  0  0  0  0  0  0
  -25.4520  -29.6481   19.4344 C   0  0  0  0  0  0  0  0  0  0  0  0
  -26.4153  -11.7274   20.8904 C   0  0  0  0  0  0  0  0  0  0  0  0
  -26.3406  -12.0637   18.4991 C   0  0  0  0  0  0  0  0  0  0  0  0
  -26.8290  -29.4388   19.4959 C   0  0  0  0  0  0  0  0  0  0  0  0
  -23.1925  -10.8270   20.4133 C   0  0  0  0  0  0  0  0  0  0  0  0
  -22.1365  -10.6048   21.2970 C   0  0  0  0  0  0  0  0  0  0  0  0
  -26.4504  -27.2892   20.5230 C   0  0  0  0  0  0  0  0  0  0  0  0
  -23.2115   -8.5854   22.0739 C   0  0  0  0  0  0  0  0  0  0  0  0
  -31.8729  -21.7469   17.3146 C   0  0  0  0  0  0  0  0  0  0  0  0
  -27.4674  -13.6688   19.9101 C   0  0  0  0  0  0  0  0  0  0  0  0
  -29.6172  -15.0365   20.0344 C   0  0  0  0  0  0  0  0  0  0  0  0
  -19.4487  -31.9156   24.0841 C   0  0  0  0  0  0  0  0  0  0  0  0
  -24.5626  -28.6825   19.9275 C   0  0  0  0  0  0  0  0  0  0  0  0
  -20.7651  -31.6061   23.6920 C   0  0  0  0  0  0  0  0  0  0  0  0
  -25.0625  -27.4875   20.4642 C   0  0  0  0  0  0  0  0  0  0  0  0
  -26.0148  -11.3045   19.6230 C   0  0  0  0  0  0  0  0  0  0  0  0
  -27.3285  -28.2605   20.0429 C   0  0  0  0  0  0  0  0  0  0  0  0
  -24.2581   -9.9284   20.3598 C   0  0  0  0  0  0  0  0  0  0  0  0
  -22.1460   -9.4840   22.1273 C   0  0  0  0  0  0  0  0  0  0  0  0
  -24.2676   -8.8077   21.1901 C   0  0  0  0  0  0  0  0  0  0  0  0
  -28.2172  -14.8903   20.0578 C   0  0  0  0  0  0  0  0  0  0  0  0
  -30.7669  -22.2670   17.9500 C   0  0  0  0  0  0  0  0  0  0  0  0
  -32.6898  -23.8604   17.0061 C   0  0  0  0  0  0  0  0  0  0  0  0
  -31.5835  -24.3807   17.6408 C   0  0  0  0  0  0  0  0  0  0  0  0
  -29.8250  -16.3819   20.2163 C   0  0  0  0  0  0  0  0  0  0  0  0
  -30.6385  -14.0448   19.8634 C   0  0  0  0  0  0  0  0  0  0  0  0
  -22.3743  -28.6175   22.2320 C   0  0  0  0  0  0  0  0  0  0  0  0
  -21.7334  -25.6838   21.0050 C   0  0  0  0  0  0  0  0  0  0  0  0
  -22.8310  -22.9817   19.2328 C   0  0  0  0  0  0  0  0  0  0  0  0
  -28.5967  -21.6957   19.0946 C   0  0  0  0  0  0  0  0  0  0  0  0
  -18.5556  -30.8932   24.7412 C   0  0  0  0  0  0  0  0  0  0  0  0
  -23.0793  -28.9118   19.8294 C   0  0  0  0  0  0  0  0  0  0  0  0
  -24.1494  -26.4107   20.9888 C   0  0  0  0  0  0  0  0  0  0  0  0
  -19.0243  -29.4547   24.5382 C   0  0  0  0  0  0  0  0  0  0  0  0
  -26.6154  -20.0587   21.5587 C   0  0  0  0  0  0  0  0  0  0  0  0
  -20.5213  -29.3381   24.8068 C   0  0  0  0  0  0  0  0  0  0  0  0
  -26.9707  -18.5801   21.3860 C   0  0  0  0  0  0  0  0  0  0  0  0
  -26.5734  -20.7921   20.2193 C   0  0  0  0  0  0  0  0  0  0  0  0
  -28.1347  -19.1686   19.2213 C   0  0  0  0  0  0  0  0  0  0  0  0
  -21.3259  -30.2076   23.8330 C   0  0  1  0  0  0  0  0  0  0  0  0
  -22.2793  -28.0840   20.8305 C   0  0  1  0  0  0  0  0  0  0  0  0
  -28.2528  -18.4027   20.5491 C   0  0  2  0  0  0  0  0  0  0  0  0
  -22.0933  -20.7225   18.4272 C   0  0  0  0  0  0  0  0  0  0  0  0
  -22.0897  -24.5658   23.8216 C   0  0  0  0  0  0  0  0  0  0  0  0
  -22.2888  -22.2822   22.8148 C   0  0  0  0  0  0  0  0  0  0  0  0
  -20.1779  -23.5833   22.5434 C   0  0  0  0  0  0  0  0  0  0  0  0
  -23.1881  -23.7480   16.3966 C   0  0  0  0  0  0  0  0  0  0  0  0
  -30.3407  -26.3894   18.4447 C   0  0  0  0  0  0  0  0  0  0  0  0
  -29.4701  -28.6623   19.0900 C   0  0  0  0  0  0  0  0  0  1  0  0
  -22.2399  -24.2846   21.2595 C   0  0  1  0  0  0  0  0  0  0  0  0
  -22.2019  -22.2019   18.0924 C   0  0  2  0  0  0  0  0  0  0  0  0
  -30.7141  -27.8107   18.8610 C   0  0  1  0  0  0  0  0  0  0  0  0
  -21.7166  -23.6999   22.6018 C   0  0  0  0  0  0  0  0  0  0  0  0
  -32.8543  -22.5342   16.8313 N   0  0  0  0  0  0  0  0  0  0  0  0
  -27.5806  -16.0502   20.2403 N   0  0  0  0  0  0  0  0  0  0  0  0
  -30.6023  -23.5933   18.1244 N   0  0  0  0  0  0  0  0  0  0  0  0
  -28.5852  -16.9381   20.3334 N   0  0  0  0  0  0  0  0  0  0  0  0
  -22.7071  -26.6844   20.8765 N   0  0  0  0  0  0  0  0  0  0  0  0
  -27.8224  -20.5823   19.4839 N   0  0  0  0  0  0  0  0  0  0  0  0
  -33.6902  -24.7317   16.5180 N   0  0  0  0  0  0  0  0  0  0  0  0
  -30.9454  -17.1317   20.2860 N   0  0  0  0  0  0  0  0  0  0  0  0
  -30.2505  -12.7094   19.6885 N   0  0  0  0  0  0  0  0  0  0  0  0
  -29.7792  -21.3717   18.4302 N   0  0  0  0  0  0  0  0  0  0  0  0
  -31.4631  -25.7516   17.7938 N   0  0  0  0  0  0  0  0  0  0  0  0
  -21.4171  -29.5656   22.5392 N   0  0  0  0  0  0  0  0  0  0  0  0
  -21.8781  -23.4995   20.0843 N   0  0  0  0  0  0  0  0  0  0  0  0
  -23.0191  -22.3449   16.8544 N   0  3  0  0  0  0  0  0  0  0  0  0
  -31.8594  -14.3320   19.8821 O   0  0  0  0  0  0  0  0  0  0  0  0
  -23.2502  -28.1987   22.9798 O   0  0  0  0  0  0  0  0  0  0  0  0
  -20.5189  -25.8805   20.9163 O   0  0  0  0  0  0  0  0  0  0  0  0
  -24.0464  -23.1148   19.3580 O   0  0  0  0  0  0  0  0  0  0  0  0
  -28.2507  -22.8504   19.3570 O   0  0  0  0  0  0  0  0  0  0  0  0
  -31.4401  -27.7619   20.0911 O   0  0  0  0  0  0  0  0  0  0  0  0
  -25.3062  -10.1509   19.4825 O   0  0  0  0  0  0  0  0  0  0  0  0
  -28.6722  -28.0540   20.1047 O   0  0  0  0  0  0  0  0  0  1  0  0
  -21.1325   -9.2716   22.9770 F   0  0  0  0  0  0  0  0  0  0  0  0
  -25.2891   -7.9415   21.1441 F   0  0  0  0  0  0  0  0  0  0  0  0
  1  2  1  0  0  0  0
  1  5  2  0  0  0  0
  2  6  2  0  0  0  0
  3  8  2  0  0  0  0
  3 16  1  0  0  0  0
  4  9  1  0  0  0  0
  4 16  2  0  0  0  0
  5 18  1  0  0  0  0
  6 20  1  0  0  0  0
  7 10  2  0  0  0  0
  7 19  1  0  0  0  0
  8 22  1  0  0  0  0
  9 22  2  0  0  0  0
 10 23  1  0  0  0  0
 11 12  2  0  0  0  0
 11 24  1  0  0  0  0
 12 25  1  0  0  0  0
 13 21  1  0  0  0  0
 13 23  2  0  0  0  0
 14 25  2  0  0  0  0
 14 26  1  0  0  0  0
 15 28  1  0  0  0  0
 15 60  2  0  0  0  0
 16 27  1  0  0  0  0
 17 27  1  0  0  0  0
 17 31  2  0  0  0  0
 17 32  1  0  0  0  0
 18 20  2  0  0  0  0
 18 37  1  0  0  0  0
 19 21  2  0  0  0  0
 19 38  1  0  0  0  0
 20 46  1  0  0  0  0
 21 39  1  0  0  0  0
 22 80  1  0  0  0  0
 23 81  1  0  0  0  0
 24 26  2  0  0  0  0
 24 80  1  0  0  0  0
 25 82  1  0  0  0  0
 26 83  1  0  0  0  0
 27 61  2  0  0  0  0
 28 62  2  0  0  0  0
 28 69  1  0  0  0  0
 29 30  2  0  0  0  0
 29 60  1  0  0  0  0
 29 66  1  0  0  0  0
 30 62  1  0  0  0  0
 30 70  1  0  0  0  0
 31 63  1  0  0  0  0
 31 67  1  0  0  0  0
 32 68  1  0  0  0  0
 32 74  2  0  0  0  0
 33 47  1  0  0  0  0
 33 71  1  0  0  0  0
 33 75  2  0  0  0  0
 34 56  1  0  0  0  0
 34 64  1  0  0  0  0
 34 76  2  0  0  0  0
 35 57  1  0  0  0  0
 35 72  1  0  0  0  0
 35 77  2  0  0  0  0
 36 65  1  0  0  0  0
 36 69  1  0  0  0  0
 36 78  2  0  0  0  0
 37 40  1  0  0  0  0
 38 47  1  0  0  0  0
 39 64  1  0  0  0  0
 40 42  1  0  0  0  0
 41 43  1  0  0  0  0
 41 44  1  0  0  0  0
 42 46  1  0  0  0  0
 43 48  1  0  0  0  0
 44 65  1  0  0  0  0
 45 48  1  0  0  0  0
 45 65  1  0  0  0  0
 46 71  1  0  0  0  0
 47 64  1  0  0  0  0
 48 63  1  0  0  0  0
 49 57  1  0  0  0  0
 50 59  1  0  0  0  0
 51 59  1  0  0  0  0
 52 59  1  0  0  0  0
 53 73  1  0  0  0  0
 54 58  1  0  0  0  0
 54 70  1  0  0  0  0
 55 58  1  0  0  0  0
 55 81  1  0  0  0  0
 56 59  1  0  0  0  0
 56 72  1  0  0  0  0
 57 73  1  0  0  0  0
 58 79  1  0  0  0  0
 61 63  1  0  0  0  0
M  CHG  1  73   1
M  ISO  4  36 100  55 101  69 100  81 101
M  END
> <Batch ID>
0197

> <Smiles>
CNC(C)C(=O)NC(C(=O)N1Cc2cc([101O:1][101CH2:1]C(O)CNc3nc([100NH:0][100C:0](=O)N4CCCC(n5nc(-c6ccc(Oc7ccc(F)cc7F)cc6)c(C(N)=O)c5N)C4)cnc3N)ccc2CC1C(=O)NC1CCCc2ccccc21)C(C)(C)C

> <Shape>
0.250

> <Color>
0.095

> <Negative vol penalty>
0.000

$$$$

  -OEChem-04052305413D

 82 90  0     1  0  0  0  0  0999 V2000
  -19.4414  -11.8195   30.0432 C   0  0  0  0  0  0  0  0  0  0  0  0
  -20.7321  -12.2085   30.3867 C   0  0  0  0  0  0  0  0  0  0  0  0
  -23.2867   -9.8010   19.9133 C   0  0  0  0  0  0  0  0  0  0  0  0
  -23.7377   -9.9419   22.2827 C   0  0  0  0  0  0  0  0  0  0  0  0
  -19.1399  -10.4669   29.8894 C   0  0  0  0  0  0  0  0  0  0  0  0
  -21.7220  -11.2451   30.5777 C   0  0  0  0  0  0  0  0  0  0  0  0
  -26.0938  -12.4815   28.3408 C   0  0  0  0  0  0  0  0  0  0  0  0
  -22.5601   -8.6287   20.1213 C   0  0  0  0  0  0  0  0  0  0  0  0
  -23.0110   -8.7696   22.4907 C   0  0  0  0  0  0  0  0  0  0  0  0
  -26.8952  -13.4224   28.9858 C   0  0  0  0  0  0  0  0  0  0  0  0
  -19.4785   -7.7691   21.2159 C   0  0  0  0  0  0  0  0  0  0  0  0
  -18.2494   -7.6447   20.5683 C   0  0  0  0  0  0  0  0  0  0  0  0
  -28.2714  -11.6434   29.8579 C   0  0  0  0  0  0  0  0  0  0  0  0
  -19.0504   -5.6715   19.4271 C   0  0  0  0  0  0  0  0  0  0  0  0
  -33.0728  -13.7550   25.2275 C   0  0  0  0  0  0  0  0  0  0  0  0
  -23.8755  -10.4576   20.9940 C   0  0  0  0  0  0  0  0  0  0  0  0
  -24.1354  -12.9875   20.7949 C   0  0  0  0  0  0  0  0  0  0  0  0
  -20.1289   -9.4870   30.0691 C   0  0  0  0  0  0  0  0  0  0  0  0
  -26.3691  -11.1116   28.4585 C   0  0  0  0  0  0  0  0  0  0  0  0
  -21.4331   -9.8781   30.4274 C   0  0  0  0  0  0  0  0  0  0  0  0
  -27.4734  -10.6873   29.2113 C   0  0  0  0  0  0  0  0  0  0  0  0
  -22.4222   -8.1130   21.4100 C   0  0  0  0  0  0  0  0  0  0  0  0
  -27.9825  -13.0033   29.7469 C   0  0  0  0  0  0  0  0  0  0  0  0
  -20.4937   -6.8447   20.9691 C   0  0  0  0  0  0  0  0  0  0  0  0
  -18.0353   -6.5959   19.6740 C   0  0  0  0  0  0  0  0  0  0  0  0
  -20.2796   -5.7960   20.0747 C   0  0  0  0  0  0  0  0  0  0  0  0
  -24.6267  -11.6683   20.7796 C   0  0  0  0  0  0  0  0  0  0  0  0
  -32.0830  -13.5220   26.1592 C   0  0  0  0  0  0  0  0  0  0  0  0
  -25.2370  -13.7671   20.5397 C   0  0  0  0  0  0  0  0  0  0  0  0
  -31.4524  -13.2035   23.8563 C   0  0  0  0  0  0  0  0  0  0  0  0
  -22.8025  -13.4655   21.0197 C   0  0  0  0  0  0  0  0  0  0  0  0
  -24.8075   -8.6023   29.6283 C   0  0  0  0  0  0  0  0  0  0  0  0
  -27.3110   -6.9565   28.3849 C   0  0  0  0  0  0  0  0  0  0  0  0
  -30.5688   -6.9698   27.3682 C   0  0  0  0  0  0  0  0  0  0  0  0
  -31.0973  -12.9516   21.3750 C   0  0  0  0  0  0  0  0  0  0  0  0
  -19.7440   -8.0346   29.9382 C   0  0  0  0  0  0  0  0  0  0  0  0
  -25.5107  -10.1108   27.7347 C   0  0  0  0  0  0  0  0  0  0  0  0
  -27.8237   -9.2293   29.3527 C   0  0  0  0  0  0  0  0  0  0  0  0
  -20.9406   -7.0982   29.7914 C   0  0  0  0  0  0  0  0  0  0  0  0
  -29.4637  -13.6560   18.2908 C   0  0  0  0  0  0  0  0  0  0  0  0
  -22.0138   -7.4381   30.8208 C   0  0  0  0  0  0  0  0  0  0  0  0
  -27.9923  -13.3521   18.5822 C   0  0  0  0  0  0  0  0  0  0  0  0
  -30.3967  -12.6807   19.0063 C   0  0  0  0  0  0  0  0  0  0  0  0
  -28.7036  -12.2532   20.7441 C   0  0  0  0  0  0  0  0  0  0  0  0
  -22.5401   -8.8642   30.6188 C   0  0  1  0  0  0  0  0  0  0  0  0
  -25.5790   -8.7137   28.3438 C   0  0  1  0  0  0  0  0  0  0  0  0
  -27.7274  -13.2493   20.0971 C   0  0  2  0  0  0  0  0  0  0  0  0
  -32.3470   -5.4657   26.4340 C   0  0  0  0  0  0  0  0  0  0  0  0
  -32.7595  -15.5107   30.1136 C   0  0  0  0  0  0  0  0  0  0  0  0
  -27.6908   -5.6991   31.1389 C   0  0  0  0  0  0  0  0  0  0  0  0
  -29.9776   -4.9789   30.4178 C   0  0  0  0  0  0  0  0  0  0  0  0
  -27.9654   -4.1160   29.2225 C   0  0  0  0  0  0  0  0  0  0  0  0
  -30.8235   -8.6028   24.9131 C   0  0  0  0  0  0  0  0  0  0  0  0
  -32.1299  -13.6209   27.6555 C   0  0  0  0  0  0  0  0  0  0  0  0
  -30.2488  -15.7879   30.1210 C   0  0  0  0  0  0  0  0  0  0  0  0
  -28.8862  -15.2031   29.7661 C   0  0  0  0  0  0  0  0  0  1  0  0
  -28.6645   -6.5233   28.8942 C   0  0  1  0  0  0  0  0  0  0  0  0
  -31.2325   -6.4473   26.1069 C   0  0  2  0  0  0  0  0  0  0  0  0
  -31.4270  -14.9236   29.6674 C   0  0  1  0  0  0  0  0  0  0  0  0
  -28.5671   -5.3568   29.9175 C   0  0  0  0  0  0  0  0  0  0  0  0
  -32.7132  -13.5724   23.9064 N   0  0  0  0  0  0  0  0  0  0  0  0
  -25.9383  -11.6094   20.5340 N   0  0  0  0  0  0  0  0  0  0  0  0
  -26.2805  -12.9013   20.3925 N   0  0  0  0  0  0  0  0  0  0  0  0
  -26.9505   -8.2888   28.6312 N   0  0  0  0  0  0  0  0  0  0  0  0
  -30.0900  -12.6391   20.4377 N   0  0  0  0  0  0  0  0  0  0  0  0
  -25.4052  -15.1020   20.4290 N   0  0  0  0  0  0  0  0  0  0  0  0
  -21.7898  -12.5288   21.2675 N   0  0  0  0  0  0  0  0  0  0  0  0
  -30.6802  -12.9103   22.7050 N   0  0  0  0  0  0  0  0  0  0  0  0
  -23.4655   -8.9086   29.5070 N   0  0  0  0  0  0  0  0  0  0  0  0
  -29.4661   -6.2178   27.7142 N   0  0  0  0  0  0  0  0  0  0  0  0
  -31.8134   -7.5735   25.3226 N   0  3  0  0  0  0  0  0  0  0  0  0
  -31.4420  -14.8286   28.1810 N   0  3  0  0  0  0  0  0  0  0  0  0
  -22.5149  -14.6859   20.9852 O   0  0  0  0  0  0  0  0  0  0  0  0
  -25.3866   -8.2620   30.6533 O   0  0  0  0  0  0  0  0  0  0  0  0
  -26.6028   -6.1446   27.7841 O   0  0  0  0  0  0  0  0  0  0  0  0
  -30.9888   -7.9452   27.9869 O   0  0  0  0  0  0  0  0  0  0  0  0
  -32.2382  -13.2616   21.0225 O   0  0  0  0  0  0  0  0  0  0  0  0
  -21.7131   -6.9691   21.6134 O   0  0  0  0  0  0  0  0  0  0  0  0
  -28.7661  -13.9196   30.3781 O   0  0  0  0  0  0  0  0  0  1  0  0
  -16.8545   -6.4757   19.0533 F   0  0  0  0  0  0  0  0  0  0  0  0
  -21.2506   -4.9042   19.8345 F   0  0  0  0  0  0  0  0  0  0  0  0
  -30.6386  -13.0568   25.3600 S   0  0  0  0  0  0  0  0  0  0  0  0
  1  2  1  0  0  0  0
  1  5  2  0  0  0  0
  2  6  2  0  0  0  0
  3  8  2  0  0  0  0
  3 16  1  0  0  0  0
  4  9  1  0  0  0  0
  4 16  2  0  0  0  0
  5 18  1  0  0  0  0
  6 20  1  0  0  0  0
  7 10  2  0  0  0  0
  7 19  1  0  0  0  0
  8 22  1  0  0  0  0
  9 22  2  0  0  0  0
 10 23  1  0  0  0  0
 11 12  2  0  0  0  0
 11 24  1  0  0  0  0
 12 25  1  0  0  0  0
 13 21  1  0  0  0  0
 13 23  2  0  0  0  0
 14 25  2  0  0  0  0
 14 26  1  0  0  0  0
 15 28  2  0  0  0  0
 15 61  1  0  0  0  0
 16 27  1  0  0  0  0
 17 27  1  0  0  0  0
 17 29  2  0  0  0  0
 17 31  1  0  0  0  0
 18 20  2  0  0  0  0
 18 36  1  0  0  0  0
 19 21  2  0  0  0  0
 19 37  1  0  0  0  0
 20 45  1  0  0  0  0
 21 38  1  0  0  0  0
 22 78  1  0  0  0  0
 23 79  1  0  0  0  0
 24 26  2  0  0  0  0
 24 78  1  0  0  0  0
 25 80  1  0  0  0  0
 26 81  1  0  0  0  0
 27 62  2  0  0  0  0
 28 54  1  0  0  0  0
 28 82  1  0  0  0  0
 29 63  1  0  0  0  0
 29 66  1  0  0  0  0
 30 61  2  0  0  0  0
 30 68  1  0  0  0  0
 30 82  1  0  0  0  0
 31 67  1  0  0  0  0
 31 73  2  0  0  0  0
 32 46  1  0  0  0  0
 32 69  1  0  0  0  0
 32 74  2  0  0  0  0
 33 57  1  0  0  0  0
 33 64  1  0  0  0  0
 33 75  2  0  0  0  0
 34 58  1  0  0  0  0
 34 70  1  0  0  0  0
 34 76  2  0  0  0  0
 35 65  1  0  0  0  0
 35 68  1  0  0  0  0
 35 77  2  0  0  0  0
 36 39  1  0  0  0  0
 37 46  1  0  0  0  0
 38 64  1  0  0  0  0
 39 41  1  0  0  0  0
 40 42  1  0  0  0  0
 40 43  1  0  0  0  0
 41 45  1  0  0  0  0
 42 47  1  0  0  0  0
 43 65  1  0  0  0  0
 44 47  1  0  0  0  0
 44 65  1  0  0  0  0
 45 69  1  0  0  0  0
 46 64  1  0  0  0  0
 47 63  1  0  0  0  0
 48 58  1  0  0  0  0
 49 59  1  0  0  0  0
 50 60  1  0  0  0  0
 51 60  1  0  0  0  0
 52 60  1  0  0  0  0
 53 71  1  0  0  0  0
 54 72  1  0  0  0  0
 55 56  1  0  0  0  0
 55 59  1  0  0  0  0
 56 79  1  0  0  0  0
 57 60  1  0  0  0  0
 57 70  1  0  0  0  0
 58 71  1  0  0  0  0
 59 72  1  0  0  0  0
 62 63  1  0  0  0  0
M  CHG  2  71   1  72   1
M  ISO  4  35 100  56 101  68 100  79 101
M  END
> <Batch ID>
0197

> <Smiles>
CNC(C)C(=O)NC(C(=O)N1Cc2cc([101O:1][101CH2:1]CC(C)NCc3cnc([100NH:0][100C:0](=O)N4CCCC(n5nc(-c6ccc(Oc7ccc(F)cc7F)cc6)c(C(N)=O)c5N)C4)s3)ccc2CC1C(=O)NC1CCCc2ccccc21)C(C)(C)C

> <Shape>
0.119

> <Color>
0.170

> <Negative vol penalty>
0.000

$$$$

  -OEChem-04052305413D

 82 90  0     1  0  0  0  0  0999 V2000
  -29.6325  -34.4776   22.6070 C   0  0  0  0  0  0  0  0  0  0  0  0
  -29.8578  -33.1083   22.5098 C   0  0  0  0  0  0  0  0  0  0  0  0
  -27.0154  -12.9710   20.9995 C   0  0  0  0  0  0  0  0  0  0  0  0
  -26.9107  -13.2504   18.6020 C   0  0  0  0  0  0  0  0  0  0  0  0
  -28.3464  -34.9555   22.8547 C   0  0  0  0  0  0  0  0  0  0  0  0
  -28.7972  -32.2158   22.6614 C   0  0  0  0  0  0  0  0  0  0  0  0
  -28.8212  -28.5573   19.1600 C   0  0  0  0  0  0  0  0  0  0  0  0
  -26.3626  -11.7437   20.8850 C   0  0  0  0  0  0  0  0  0  0  0  0
  -26.2579  -12.0230   18.4875 C   0  0  0  0  0  0  0  0  0  0  0  0
  -29.7207  -27.5078   19.3419 C   0  0  0  0  0  0  0  0  0  0  0  0
  -24.4024   -8.7033   21.2562 C   0  0  0  0  0  0  0  0  0  0  0  0
  -23.3665   -8.4322   22.1500 C   0  0  0  0  0  0  0  0  0  0  0  0
  -27.9391  -26.1416   20.2243 C   0  0  0  0  0  0  0  0  0  0  0  0
  -22.1618  -10.3633   21.3397 C   0  0  0  0  0  0  0  0  0  0  0  0
  -27.0959  -23.0128   14.8960 C   0  0  0  0  0  0  0  0  0  0  0  0
  -27.2894  -13.7244   19.8580 C   0  0  0  0  0  0  0  0  0  0  0  0
  -29.3514  -15.2240   19.9419 C   0  0  0  0  0  0  0  0  0  0  0  0
  -27.2677  -34.0689   22.9997 C   0  0  0  0  0  0  0  0  0  0  0  0
  -27.4738  -28.4103   19.5197 C   0  0  0  0  0  0  0  0  0  0  0  0
  -27.4956  -32.6822   22.9125 C   0  0  0  0  0  0  0  0  0  0  0  0
  -27.0240  -27.1899   20.0436 C   0  0  0  0  0  0  0  0  0  0  0  0
  -25.9839  -11.2697   19.6290 C   0  0  0  0  0  0  0  0  0  0  0  0
  -29.2804  -26.3007   19.8768 C   0  0  0  0  0  0  0  0  0  0  0  0
  -24.3181   -9.8045   20.4042 C   0  0  0  0  0  0  0  0  0  0  0  0
  -22.2462   -9.2621   22.1918 C   0  0  0  0  0  0  0  0  0  0  0  0
  -23.1978  -10.6345   20.4459 C   0  0  0  0  0  0  0  0  0  0  0  0
  -27.9632  -14.9926   19.9757 C   0  0  0  0  0  0  0  0  0  0  0  0
  -26.9199  -22.3396   16.0868 C   0  0  0  0  0  0  0  0  0  0  0  0
  -29.4767  -16.5833   20.0940 C   0  0  0  0  0  0  0  0  0  0  0  0
  -28.9397  -23.1166   16.4426 C   0  0  0  0  0  0  0  0  0  0  0  0
  -30.4311  -14.2935   19.7867 C   0  0  0  0  0  0  0  0  0  0  0  0
  -25.5390  -29.8357   21.6002 C   0  0  0  0  0  0  0  0  0  0  0  0
  -23.2854  -27.9855   20.1789 C   0  0  0  0  0  0  0  0  0  0  0  0
  -22.5521  -25.1722   18.3915 C   0  0  0  0  0  0  0  0  0  0  0  0
  -25.8124  -21.1719   18.9244 C   0  0  0  0  0  0  0  0  0  0  0  0
  -25.9036  -34.6305   23.3134 C   0  0  0  0  0  0  0  0  0  0  0  0
  -26.5106  -29.5429   19.2923 C   0  0  0  0  0  0  0  0  0  0  0  0
  -25.5835  -26.9743   20.4269 C   0  0  0  0  0  0  0  0  0  0  0  0
  -24.7686  -33.6346   23.0890 C   0  0  0  0  0  0  0  0  0  0  0  0
  -27.2784  -20.3491   22.0630 C   0  0  0  0  0  0  0  0  0  0  0  0
  -25.1162  -32.2819   23.7024 C   0  0  0  0  0  0  0  0  0  0  0  0
  -27.7454  -18.9039   21.8809 C   0  0  0  0  0  0  0  0  0  0  0  0
  -25.9633  -20.6135   21.3331 C   0  0  0  0  0  0  0  0  0  0  0  0
  -26.4333  -18.8103   19.7203 C   0  0  0  0  0  0  0  0  0  0  0  0
  -26.3664  -31.6836   23.0464 C   0  0  1  0  0  0  0  0  0  0  0  0
  -25.2673  -29.4557   20.1721 C   0  0  1  0  0  0  0  0  0  0  0  0
  -27.7843  -18.5106   20.3919 C   0  0  2  0  0  0  0  0  0  0  0  0
  -20.6175  -23.9090   17.4123 C   0  0  0  0  0  0  0  0  0  0  0  0
  -30.8993  -21.4234   18.2707 C   0  0  0  0  0  0  0  0  0  0  0  0
  -22.5412  -26.9742   22.9598 C   0  0  0  0  0  0  0  0  0  0  0  0
  -21.3200  -25.0807   21.8682 C   0  0  0  0  0  0  0  0  0  0  0  0
  -20.5928  -27.4317   21.4602 C   0  0  0  0  0  0  0  0  0  0  0  0
  -23.6104  -25.4532   15.6420 C   0  0  0  0  0  0  0  0  0  0  0  0
  -25.7155  -21.5809   16.4785 C   0  0  0  0  0  0  0  0  0  0  0  0
  -31.6356  -23.7298   18.9662 C   0  0  0  0  0  0  0  0  0  0  0  0
  -31.2578  -25.1959   19.1520 C   0  0  0  0  0  0  0  0  0  1  0  0
  -22.7378  -26.5983   20.4130 C   0  0  1  0  0  0  0  0  0  0  0  0
  -21.6903  -24.9570   17.1605 C   0  0  2  0  0  0  0  0  0  0  0  0
  -30.4961  -22.8906   18.3796 C   0  0  1  0  0  0  0  0  0  0  0  0
  -21.8256  -26.5256   21.6700 C   0  0  0  0  0  0  0  0  0  0  0  0
  -27.2571  -16.1148   20.1369 N   0  0  0  0  0  0  0  0  0  0  0  0
  -27.9763  -22.3977   16.9747 N   0  0  0  0  0  0  0  0  0  0  0  0
  -28.2055  -17.0646   20.2057 N   0  0  0  0  0  0  0  0  0  0  0  0
  -24.6815  -28.1138   20.1914 N   0  0  0  0  0  0  0  0  0  0  0  0
  -26.0676  -20.2205   19.9258 N   0  0  0  0  0  0  0  0  0  0  0  0
  -30.5492  -17.4018   20.1418 N   0  0  0  0  0  0  0  0  0  0  0  0
  -30.1254  -12.9333   19.6423 N   0  0  0  0  0  0  0  0  0  0  0  0
  -30.1486  -23.3793   17.0616 N   0  0  0  0  0  0  0  0  0  0  0  0
  -26.0376  -31.1149   21.7569 N   0  0  0  0  0  0  0  0  0  0  0  0
  -22.0782  -26.2051   19.1725 N   0  0  0  0  0  0  0  0  0  0  0  0
  -25.9396  -20.7184   17.6172 N   0  0  0  0  0  0  0  0  0  0  0  0
  -22.5285  -24.5055   16.0139 N   0  3  0  0  0  0  0  0  0  0  0  0
  -31.6321  -14.6555   19.7929 O   0  0  0  0  0  0  0  0  0  0  0  0
  -25.3118  -29.0287   22.4939 O   0  0  0  0  0  0  0  0  0  0  0  0
  -22.5034  -28.9196   19.9847 O   0  0  0  0  0  0  0  0  0  0  0  0
  -23.5441  -24.4897   18.6378 O   0  0  0  0  0  0  0  0  0  0  0  0
  -25.4998  -22.3405   19.1767 O   0  0  0  0  0  0  0  0  0  0  0  0
  -25.3471  -10.0720   19.5168 O   0  0  0  0  0  0  0  0  0  0  0  0
  -30.1565  -25.2749   20.0560 O   0  0  0  0  0  0  0  0  0  1  0  0
  -21.2508   -9.0007   23.0491 F   0  0  0  0  0  0  0  0  0  0  0  0
  -23.1106  -11.6932   19.6290 F   0  0  0  0  0  0  0  0  0  0  0  0
  -28.6425  -23.7538   14.8772 S   0  0  0  0  0  0  0  0  0  0  0  0
  1  2  1  0  0  0  0
  1  5  2  0  0  0  0
  2  6  2  0  0  0  0
  3  8  2  0  0  0  0
  3 16  1  0  0  0  0
  4  9  1  0  0  0  0
  4 16  2  0  0  0  0
  5 18  1  0  0  0  0
  6 20  1  0  0  0  0
  7 10  2  0  0  0  0
  7 19  1  0  0  0  0
  8 22  1  0  0  0  0
  9 22  2  0  0  0  0
 10 23  1  0  0  0  0
 11 12  2  0  0  0  0
 11 24  1  0  0  0  0
 12 25  1  0  0  0  0
 13 21  1  0  0  0  0
 13 23  2  0  0  0  0
 14 25  2  0  0  0  0
 14 26  1  0  0  0  0
 15 28  2  0  0  0  0
 15 82  1  0  0  0  0
 16 27  1  0  0  0  0
 17 27  1  0  0  0  0
 17 29  2  0  0  0  0
 17 31  1  0  0  0  0
 18 20  2  0  0  0  0
 18 36  1  0  0  0  0
 19 21  2  0  0  0  0
 19 37  1  0  0  0  0
 20 45  1  0  0  0  0
 21 38  1  0  0  0  0
 22 78  1  0  0  0  0
 23 79  1  0  0  0  0
 24 26  2  0  0  0  0
 24 78  1  0  0  0  0
 25 80  1  0  0  0  0
 26 81  1  0  0  0  0
 27 61  2  0  0  0  0
 28 54  1  0  0  0  0
 28 62  1  0  0  0  0
 29 63  1  0  0  0  0
 29 66  1  0  0  0  0
 30 62  2  0  0  0  0
 30 68  1  0  0  0  0
 30 82  1  0  0  0  0
 31 67  1  0  0  0  0
 31 73  2  0  0  0  0
 32 46  1  0  0  0  0
 32 69  1  0  0  0  0
 32 74  2  0  0  0  0
 33 57  1  0  0  0  0
 33 64  1  0  0  0  0
 33 75  2  0  0  0  0
 34 58  1  0  0  0  0
 34 70  1  0  0  0  0
 34 76  2  0  0  0  0
 35 65  1  0  0  0  0
 35 71  1  0  0  0  0
 35 77  2  0  0  0  0
 36 39  1  0  0  0  0
 37 46  1  0  0  0  0
 38 64  1  0  0  0  0
 39 41  1  0  0  0  0
 40 42  1  0  0  0  0
 40 43  1  0  0  0  0
 41 45  1  0  0  0  0
 42 47  1  0  0  0  0
 43 65  1  0  0  0  0
 44 47  1  0  0  0  0
 44 65  1  0  0  0  0
 45 69  1  0  0  0  0
 46 64  1  0  0  0  0
 47 63  1  0  0  0  0
 48 58  1  0  0  0  0
 49 59  1  0  0  0  0
 50 60  1  0  0  0  0
 51 60  1  0  0  0  0
 52 60  1  0  0  0  0
 53 72  1  0  0  0  0
 54 71  1  0  0  0  0
 55 56  1  0  0  0  0
 55 59  1  0  0  0  0
 56 79  1  0  0  0  0
 57 60  1  0  0  0  0
 57 70  1  0  0  0  0
 58 72  1  0  0  0  0
 59 68  1  0  0  0  0
 61 63  1  0  0  0  0
M  CHG  1  72   1
M  ISO  4  35 100  56 101  71 100  79 101
M  END
> <Batch ID>
0197

> <Smiles>
CNC(C)C(=O)NC(C(=O)N1Cc2cc([101O:1][101CH2:1]CC(C)Nc3nc(C[100NH:0][100C:0](=O)N4CCCC(n5nc(-c6ccc(Oc7ccc(F)cc7F)cc6)c(C(N)=O)c5N)C4)cs3)ccc2CC1C(=O)NC1CCCc2ccccc21)C(C)(C)C

> <Shape>
0.257

> <Color>
0.081

> <Negative vol penalty>
0.000

$$$$

  -OEChem-04052305413D

 82 90  0     1  0  0  0  0  0999 V2000
  -21.3735  -14.6495   24.7230 C   0  0  0  0  0  0  0  0  0  0  0  0
  -22.4135  -15.5733   24.7418 C   0  0  0  0  0  0  0  0  0  0  0  0
  -23.0753   -9.8659   19.9423 C   0  0  0  0  0  0  0  0  0  0  0  0
  -23.8351   -9.8757   22.2357 C   0  0  0  0  0  0  0  0  0  0  0  0
  -20.0518  -15.0880   24.7898 C   0  0  0  0  0  0  0  0  0  0  0  0
  -22.1322  -16.9365   24.8265 C   0  0  0  0  0  0  0  0  0  0  0  0
  -25.0966  -19.3282   28.1637 C   0  0  0  0  0  0  0  0  0  0  0  0
  -22.3318   -8.7128   20.1935 C   0  0  0  0  0  0  0  0  0  0  0  0
  -23.0915   -8.7226   22.4869 C   0  0  0  0  0  0  0  0  0  0  0  0
  -26.3966  -19.6290   27.7596 C   0  0  0  0  0  0  0  0  0  0  0  0
  -19.8636   -7.9244   23.0902 C   0  0  0  0  0  0  0  0  0  0  0  0
  -19.1066   -7.8855   24.2611 C   0  0  0  0  0  0  0  0  0  0  0  0
  -25.7206  -21.8972   27.2935 C   0  0  0  0  0  0  0  0  0  0  0  0
  -20.3486   -5.9493   24.9998 C   0  0  0  0  0  0  0  0  0  0  0  0
  -23.8270  -10.4473   20.9634 C   0  0  0  0  0  0  0  0  0  0  0  0
  -24.1680  -12.9724   20.8405 C   0  0  0  0  0  0  0  0  0  0  0  0
  -19.7544  -16.4567   24.8851 C   0  0  0  0  0  0  0  0  0  0  0  0
  -24.0946  -20.3085   28.1253 C   0  0  0  0  0  0  0  0  0  0  0  0
  -20.8052  -17.3938   24.8933 C   0  0  0  0  0  0  0  0  0  0  0  0
  -24.4093  -21.6071   27.7001 C   0  0  0  0  0  0  0  0  0  0  0  0
  -22.3399   -8.1411   21.4658 C   0  0  0  0  0  0  0  0  0  0  0  0
  -26.7081  -20.9128   27.3216 C   0  0  0  0  0  0  0  0  0  0  0  0
  -20.8630   -6.9756   22.8740 C   0  0  0  0  0  0  0  0  0  0  0  0
  -19.3491   -6.8980   25.2159 C   0  0  0  0  0  0  0  0  0  0  0  0
  -21.1055   -5.9881   23.8288 C   0  0  0  0  0  0  0  0  0  0  0  0
  -24.5957  -11.6381   20.7044 C   0  0  0  0  0  0  0  0  0  0  0  0
  -31.8075  -18.7297   22.2436 C   0  0  0  0  0  0  0  0  0  0  0  0
  -25.2599  -13.7219   20.4765 C   0  0  0  0  0  0  0  0  0  0  0  0
  -30.7055  -19.0965   22.9874 C   0  0  0  0  0  0  0  0  0  0  0  0
  -30.5705  -16.9517   21.8991 C   0  0  0  0  0  0  0  0  0  0  0  0
  -22.8973  -13.4883   21.2588 C   0  0  0  0  0  0  0  0  0  0  0  0
  -21.3383  -20.6394   26.5771 C   0  0  0  0  0  0  0  0  0  0  0  0
  -21.0482  -23.2700   28.4528 C   0  0  0  0  0  0  0  0  0  0  0  0
  -22.5819  -25.6846   30.3140 C   0  0  0  0  0  0  0  0  0  0  0  0
  -30.7258  -14.7693   20.6504 C   0  0  0  0  0  0  0  0  0  0  0  0
  -18.3087  -16.8856   24.9072 C   0  0  0  0  0  0  0  0  0  0  0  0
  -22.7034  -19.9753   28.5899 C   0  0  0  0  0  0  0  0  0  0  0  0
  -23.3745  -22.7007   27.6593 C   0  0  0  0  0  0  0  0  0  0  0  0
  -18.1076  -18.3254   25.3730 C   0  0  0  0  0  0  0  0  0  0  0  0
  -29.6122  -12.3527   18.2846 C   0  0  0  0  0  0  0  0  0  0  0  0
  -19.0931  -19.2556   24.6728 C   0  0  0  0  0  0  0  0  0  0  0  0
  -28.1727  -12.0611   18.7144 C   0  0  0  0  0  0  0  0  0  0  0  0
  -30.5272  -12.5830   19.4860 C   0  0  0  0  0  0  0  0  0  0  0  0
  -28.6200  -13.3084   20.8665 C   0  0  0  0  0  0  0  0  0  0  0  0
  -20.5412  -18.8794   25.0093 C   0  0  1  0  0  0  0  0  0  0  0  0
  -21.6431  -20.9140   28.0226 C   0  0  1  0  0  0  0  0  0  0  0  0
  -27.6473  -13.1336   19.6888 C   0  0  2  0  0  0  0  0  0  0  0  0
  -33.0413  -19.5231   22.0599 C   0  0  0  0  0  0  0  0  0  0  0  0
  -22.0847  -27.7197   31.6955 C   0  0  0  0  0  0  0  0  0  0  0  0
  -20.5743  -24.8807   25.9051 C   0  0  0  0  0  0  0  0  0  0  0  0
  -21.0320  -26.9621   27.2189 C   0  0  0  0  0  0  0  0  0  0  0  0
  -19.0987  -25.5068   27.8247 C   0  0  0  0  0  0  0  0  0  0  0  0
  -23.7419  -24.4598   32.7457 C   0  0  0  0  0  0  0  0  0  0  0  0
  -29.3174  -20.5546   24.4614 C   0  0  0  0  0  0  0  0  0  0  0  0
  -28.1262  -22.2169   25.9272 C   0  0  0  0  0  0  0  0  0  1  0  0
  -21.4480  -24.7204   28.3293 C   0  0  1  0  0  0  0  0  0  0  0  0
  -22.2980  -26.2140   31.7081 C   0  0  2  0  0  0  0  0  0  0  0  0
  -29.3865  -21.9296   25.1190 C   0  0  1  0  0  0  0  0  0  0  0  0
  -20.5575  -25.4966   27.3183 C   0  0  0  0  0  0  0  0  0  0  0  0
  -25.8606  -11.5423   20.2862 N   0  0  0  0  0  0  0  0  0  0  0  0
  -31.7321  -17.4999   21.6192 N   0  0  0  0  0  0  0  0  0  0  0  0
  -26.2371  -12.8258   20.1565 N   0  0  0  0  0  0  0  0  0  0  0  0
  -22.0271  -22.3238   28.1176 N   0  0  0  0  0  0  0  0  0  0  0  0
  -29.9679  -13.6146   20.3623 N   0  0  0  0  0  0  0  0  0  0  0  0
  -25.4699  -15.0533   20.4020 N   0  0  0  0  0  0  0  0  0  0  0  0
  -21.8857  -12.5792   21.5971 N   0  0  0  0  0  0  0  0  0  0  0  0
  -30.5121  -20.2641   23.7128 N   0  0  0  0  0  0  0  0  0  0  0  0
  -30.0781  -15.6950   21.4678 N   0  0  0  0  0  0  0  0  0  0  0  0
  -20.8929  -19.3548   26.3302 N   0  0  0  0  0  0  0  0  0  0  0  0
  -21.4301  -25.2654   29.6825 N   0  0  0  0  0  0  0  0  0  0  0  0
  -23.4363  -25.9082   32.6201 N   0  3  0  0  0  0  0  0  0  0  0  0
  -22.6607  -14.7189   21.3148 O   0  0  0  0  0  0  0  0  0  0  0  0
  -21.4942  -21.5277   25.7474 O   0  0  0  0  0  0  0  0  0  0  0  0
  -19.9116  -22.9868   28.8395 O   0  0  0  0  0  0  0  0  0  0  0  0
  -23.7120  -25.6500   29.8319 O   0  0  0  0  0  0  0  0  0  0  0  0
  -31.8549  -14.9379   20.1826 O   0  0  0  0  0  0  0  0  0  0  0  0
  -30.4973  -21.9617   26.0173 O   0  0  0  0  0  0  0  0  0  0  0  0
  -21.6143   -7.0160   21.7114 O   0  0  0  0  0  0  0  0  0  0  0  0
  -27.9761  -21.2088   26.9260 O   0  0  0  0  0  0  0  0  0  1  0  0
  -18.6231   -6.8617   26.3410 F   0  0  0  0  0  0  0  0  0  0  0  0
  -22.0652   -5.0747   23.6273 F   0  0  0  0  0  0  0  0  0  0  0  0
  -29.5199  -17.8599   22.9072 S   0  0  0  0  0  0  0  0  0  0  0  0
  1  2  1  0  0  0  0
  1  5  2  0  0  0  0
  2  6  2  0  0  0  0
  3  8  2  0  0  0  0
  3 15  1  0  0  0  0
  4  9  1  0  0  0  0
  4 15  2  0  0  0  0
  5 17  1  0  0  0  0
  6 19  1  0  0  0  0
  7 10  2  0  0  0  0
  7 18  1  0  0  0  0
  8 21  1  0  0  0  0
  9 21  2  0  0  0  0
 10 22  1  0  0  0  0
 11 12  2  0  0  0  0
 11 23  1  0  0  0  0
 12 24  1  0  0  0  0
 13 20  1  0  0  0  0
 13 22  2  0  0  0  0
 14 24  2  0  0  0  0
 14 25  1  0  0  0  0
 15 26  1  0  0  0  0
 16 26  1  0  0  0  0
 16 28  2  0  0  0  0
 16 31  1  0  0  0  0
 17 19  2  0  0  0  0
 17 36  1  0  0  0  0
 18 20  2  0  0  0  0
 18 37  1  0  0  0  0
 19 45  1  0  0  0  0
 20 38  1  0  0  0  0
 21 78  1  0  0  0  0
 22 79  1  0  0  0  0
 23 25  2  0  0  0  0
 23 78  1  0  0  0  0
 24 80  1  0  0  0  0
 25 81  1  0  0  0  0
 26 60  2  0  0  0  0
 27 29  2  0  0  0  0
 27 48  1  0  0  0  0
 27 61  1  0  0  0  0
 28 62  1  0  0  0  0
 28 65  1  0  0  0  0
 29 67  1  0  0  0  0
 29 82  1  0  0  0  0
 30 61  2  0  0  0  0
 30 68  1  0  0  0  0
 30 82  1  0  0  0  0
 31 66  1  0  0  0  0
 31 72  2  0  0  0  0
 32 46  1  0  0  0  0
 32 69  1  0  0  0  0
 32 73  2  0  0  0  0
 33 56  1  0  0  0  0
 33 63  1  0  0  0  0
 33 74  2  0  0  0  0
 34 57  1  0  0  0  0
 34 70  1  0  0  0  0
 34 75  2  0  0  0  0
 35 64  1  0  0  0  0
 35 68  1  0  0  0  0
 35 76  2  0  0  0  0
 36 39  1  0  0  0  0
 37 46  1  0  0  0  0
 38 63  1  0  0  0  0
 39 41  1  0  0  0  0
 40 42  1  0  0  0  0
 40 43  1  0  0  0  0
 41 45  1  0  0  0  0
 42 47  1  0  0  0  0
 43 64  1  0  0  0  0
 44 47  1  0  0  0  0
 44 64  1  0  0  0  0
 45 69  1  0  0  0  0
 46 63  1  0  0  0  0
 47 62  1  0  0  0  0
 49 57  1  0  0  0  0
 50 59  1  0  0  0  0
 51 59  1  0  0  0  0
 52 59  1  0  0  0  0
 53 71  1  0  0  0  0
 54 58  1  0  0  0  0
 54 67  1  0  0  0  0
 55 58  1  0  0  0  0
 55 79  1  0  0  0  0
 56 59  1  0  0  0  0
 56 70  1  0  0  0  0
 57 71  1  0  0  0  0
 58 77  1  0  0  0  0
 60 62  1  0  0  0  0
M  CHG  1  71   1
M  ISO  4  35 100  55 101  68 100  79 101
M  END
> <Batch ID>
0197

> <Smiles>
CNC(C)C(=O)NC(C(=O)N1Cc2cc([101O:1][101CH2:1]C(O)CNc3sc([100NH:0][100C:0](=O)N4CCCC(n5nc(-c6ccc(Oc7ccc(F)cc7F)cc6)c(C(N)=O)c5N)C4)nc3C)ccc2CC1C(=O)NC1CCCc2ccccc21)C(C)(C)C

> <Shape>
0.169

> <Color>
0.184

> <Negative vol penalty>
0.000

$$$$

  -OEChem-04052305413D

 81 89  0     1  0  0  0  0  0999 V2000
  -17.6298  -27.8993   19.2290 C   0  0  0  0  0  0  0  0  0  0  0  0
  -18.9834  -27.9993   18.9235 C   0  0  0  0  0  0  0  0  0  0  0  0
  -26.7501  -12.5854   21.7611 C   0  0  0  0  0  0  0  0  0  0  0  0
  -26.0850  -14.0141   19.9298 C   0  0  0  0  0  0  0  0  0  0  0  0
  -17.2070  -27.9894   20.5545 C   0  0  0  0  0  0  0  0  0  0  0  0
  -19.9149  -28.1905   19.9434 C   0  0  0  0  0  0  0  0  0  0  0  0
  -23.9793  -25.2110   19.4459 C   0  0  0  0  0  0  0  0  0  0  0  0
  -25.4657  -12.0432   21.8046 C   0  0  0  0  0  0  0  0  0  0  0  0
  -24.8005  -13.4719   19.9733 C   0  0  0  0  0  0  0  0  0  0  0  0
  -24.9380  -25.5931   18.5085 C   0  0  0  0  0  0  0  0  0  0  0  0
  -22.4629  -10.0254   22.1605 C   0  0  0  0  0  0  0  0  0  0  0  0
  -22.3473   -8.6401   22.2752 C   0  0  0  0  0  0  0  0  0  0  0  0
  -26.2914  -26.5176   20.2784 C   0  0  0  0  0  0  0  0  0  0  0  0
  -23.5520   -8.3677   20.1987 C   0  0  0  0  0  0  0  0  0  0  0  0
  -29.3879  -21.8921   19.0345 C   0  0  0  0  0  0  0  0  0  0  0  0
  -27.0597  -13.5709   20.8237 C   0  0  0  0  0  0  0  0  0  0  0  0
  -29.4791  -13.6700   20.0210 C   0  0  0  0  0  0  0  0  0  0  0  0
  -18.1347  -28.1721   21.5921 C   0  0  0  0  0  0  0  0  0  0  0  0
  -24.1648  -25.4895   20.8077 C   0  0  0  0  0  0  0  0  0  0  0  0
  -19.5040  -28.2844   21.2839 C   0  0  0  0  0  0  0  0  0  0  0  0
  -25.3348  -26.1357   21.2314 C   0  0  0  0  0  0  0  0  0  0  0  0
  -24.4909  -12.4864   20.9108 C   0  0  0  0  0  0  0  0  0  0  0  0
  -26.0929  -26.2491   18.9244 C   0  0  0  0  0  0  0  0  0  0  0  0
  -23.1230  -10.5819   21.0648 C   0  0  0  0  0  0  0  0  0  0  0  0
  -22.8919   -7.8112   21.2943 C   0  0  0  0  0  0  0  0  0  0  0  0
  -23.6675   -9.7530   20.0840 C   0  0  0  0  0  0  0  0  0  0  0  0
  -28.3862  -14.1318   20.7786 C   0  0  0  0  0  0  0  0  0  0  0  0
  -29.7024  -23.2475   18.8207 C   0  0  0  0  0  0  0  0  0  0  0  0
  -29.9600  -21.5940   20.2471 C   0  0  0  0  0  0  0  0  0  0  0  0
  -30.4994  -14.5374   20.3261 C   0  0  0  0  0  0  0  0  0  0  0  0
  -29.5645  -12.5565   19.1219 C   0  0  0  0  0  0  0  0  0  0  0  0
  -22.6125  -27.2209   22.9748 C   0  0  0  0  0  0  0  0  0  0  0  0
  -24.7674  -25.8975   25.0063 C   0  0  0  0  0  0  0  0  0  0  0  0
  -27.8257  -24.4475   25.4437 C   0  0  0  0  0  0  0  0  0  0  0  0
  -30.6107  -20.1970   22.2399 C   0  0  0  0  0  0  0  0  0  0  0  0
  -17.6256  -28.3109   23.0050 C   0  0  0  0  0  0  0  0  0  0  0  0
  -23.1336  -25.0470   21.8093 C   0  0  0  0  0  0  0  0  0  0  0  0
  -25.5911  -26.4400   22.6841 C   0  0  0  0  0  0  0  0  0  0  0  0
  -18.7119  -28.1387   24.0635 C   0  0  0  0  0  0  0  0  0  0  0  0
  -32.0741  -17.3766   23.8466 C   0  0  0  0  0  0  0  0  0  0  0  0
  -19.9510  -28.9478   23.6934 C   0  0  0  0  0  0  0  0  0  0  0  0
  -31.3983  -16.1823   23.1690 C   0  0  0  0  0  0  0  0  0  0  0  0
  -31.1083  -18.5461   24.0293 C   0  0  0  0  0  0  0  0  0  0  0  0
  -29.7379  -17.7799   22.1308 C   0  0  0  0  0  0  0  0  0  0  0  0
  -20.5471  -28.4672   22.3649 C   0  0  1  0  0  0  0  0  0  0  0  0
  -23.1872  -25.8394   23.1118 C   0  0  1  0  0  0  0  0  0  0  0  0
  -30.6884  -16.6008   21.8665 C   0  0  2  0  0  0  0  0  0  0  0  0
  -29.3233  -23.5069   27.2240 C   0  0  0  0  0  0  0  0  0  0  0  0
  -31.0220  -25.4177   16.9239 C   0  0  0  0  0  0  0  0  0  0  0  0
  -25.4627  -28.7268   25.9128 C   0  0  0  0  0  0  0  0  0  0  0  0
  -27.5532  -27.8089   26.9404 C   0  0  0  0  0  0  0  0  0  0  0  0
  -25.3239  -27.0446   27.7582 C   0  0  0  0  0  0  0  0  0  0  0  0
  -27.8294  -21.7677   24.1876 C   0  0  0  0  0  0  0  0  0  0  0  0
  -28.6039  -25.8550   16.3698 C   0  0  0  0  0  0  0  0  0  0  0  0
  -27.1530  -25.8190   16.8394 C   0  0  0  0  0  0  0  0  0  1  0  0
  -26.1456  -26.2721   25.4954 C   0  0  1  0  0  0  0  0  0  0  0  0
  -28.2497  -23.1969   26.1925 C   0  0  2  0  0  0  0  0  0  0  0  0
  -29.5814  -25.3038   17.4126 C   0  0  1  0  0  0  0  0  0  0  0  0
  -26.1159  -27.4592   26.4990 C   0  0  0  0  0  0  0  0  0  0  0  0
  -28.6842  -15.2089   21.5101 N   0  0  0  0  0  0  0  0  0  0  0  0
  -30.4185  -23.7742   19.8176 N   0  0  0  0  0  0  0  0  0  0  0  0
  -30.5587  -22.7443   20.6696 N   0  0  0  0  0  0  0  0  0  0  0  0
  -29.9760  -15.4311   21.2136 N   0  0  0  0  0  0  0  0  0  0  0  0
  -24.5502  -25.9929   23.6244 N   0  0  0  0  0  0  0  0  0  0  0  0
  -30.4766  -18.8897   22.7535 N   0  0  0  0  0  0  0  0  0  0  0  0
  -31.7842  -14.6152   19.9192 N   0  0  0  0  0  0  0  0  0  0  0  0
  -28.4223  -11.7689   18.9233 N   0  0  0  0  0  0  0  0  0  0  0  0
  -29.2870  -23.9115   17.6804 N   0  0  0  0  0  0  0  0  0  0  0  0
  -29.9952  -20.3971   21.0047 N   0  0  0  0  0  0  0  0  0  0  0  0
  -21.2947  -27.2434   22.5596 N   0  0  0  0  0  0  0  0  0  0  0  0
  -26.7342  -25.0501   26.0326 N   0  0  0  0  0  0  0  0  0  0  0  0
  -28.7890  -22.1826   25.2432 N   0  3  0  0  0  0  0  0  0  0  0  0
  -30.6269  -12.2586   18.5251 O   0  0  0  0  0  0  0  0  0  0  0  0
  -23.3123  -28.1943   23.2284 O   0  0  0  0  0  0  0  0  0  0  0  0
  -23.9172  -25.5269   25.8195 O   0  0  0  0  0  0  0  0  0  0  0  0
  -28.4071  -24.8516   24.4391 O   0  0  0  0  0  0  0  0  0  0  0  0
  -31.2492  -21.0668   22.8379 O   0  0  0  0  0  0  0  0  0  0  0  0
  -23.2376  -11.9574   20.9528 O   0  0  0  0  0  0  0  0  0  0  0  0
  -27.0300  -26.6237   18.0114 O   0  0  0  0  0  0  0  0  0  1  0  0
  -22.7822   -6.4809   21.4054 F   0  0  0  0  0  0  0  0  0  0  0  0
  -24.3039  -10.2817   19.0298 F   0  0  0  0  0  0  0  0  0  0  0  0
  1  2  1  0  0  0  0
  1  5  2  0  0  0  0
  2  6  2  0  0  0  0
  3  8  2  0  0  0  0
  3 16  1  0  0  0  0
  4  9  1  0  0  0  0
  4 16  2  0  0  0  0
  5 18  1  0  0  0  0
  6 20  1  0  0  0  0
  7 10  2  0  0  0  0
  7 19  1  0  0  0  0
  8 22  1  0  0  0  0
  9 22  2  0  0  0  0
 10 23  1  0  0  0  0
 11 12  2  0  0  0  0
 11 24  1  0  0  0  0
 12 25  1  0  0  0  0
 13 21  1  0  0  0  0
 13 23  2  0  0  0  0
 14 25  2  0  0  0  0
 14 26  1  0  0  0  0
 15 28  1  0  0  0  0
 15 29  2  0  0  0  0
 16 27  1  0  0  0  0
 17 27  1  0  0  0  0
 17 30  2  0  0  0  0
 17 31  1  0  0  0  0
 18 20  2  0  0  0  0
 18 36  1  0  0  0  0
 19 21  2  0  0  0  0
 19 37  1  0  0  0  0
 20 45  1  0  0  0  0
 21 38  1  0  0  0  0
 22 78  1  0  0  0  0
 23 79  1  0  0  0  0
 24 26  2  0  0  0  0
 24 78  1  0  0  0  0
 25 80  1  0  0  0  0
 26 81  1  0  0  0  0
 27 60  2  0  0  0  0
 28 61  2  0  0  0  0
 28 68  1  0  0  0  0
 29 62  1  0  0  0  0
 29 69  1  0  0  0  0
 30 63  1  0  0  0  0
 30 66  1  0  0  0  0
 31 67  1  0  0  0  0
 31 73  2  0  0  0  0
 32 46  1  0  0  0  0
 32 70  1  0  0  0  0
 32 74  2  0  0  0  0
 33 56  1  0  0  0  0
 33 64  1  0  0  0  0
 33 75  2  0  0  0  0
 34 57  1  0  0  0  0
 34 71  1  0  0  0  0
 34 76  2  0  0  0  0
 35 65  1  0  0  0  0
 35 69  1  0  0  0  0
 35 77  2  0  0  0  0
 36 39  1  0  0  0  0
 37 46  1  0  0  0  0
 38 64  1  0  0  0  0
 39 41  1  0  0  0  0
 40 42  1  0  0  0  0
 40 43  1  0  0  0  0
 41 45  1  0  0  0  0
 42 47  1  0  0  0  0
 43 65  1  0  0  0  0
 44 47  1  0  0  0  0
 44 65  1  0  0  0  0
 45 70  1  0  0  0  0
 46 64  1  0  0  0  0
 47 63  1  0  0  0  0
 48 57  1  0  0  0  0
 49 58  1  0  0  0  0
 50 59  1  0  0  0  0
 51 59  1  0  0  0  0
 52 59  1  0  0  0  0
 53 72  1  0  0  0  0
 54 55  1  0  0  0  0
 54 58  1  0  0  0  0
 55 79  1  0  0  0  0
 56 59  1  0  0  0  0
 56 71  1  0  0  0  0
 57 72  1  0  0  0  0
 58 68  1  0  0  0  0
 60 63  1  0  0  0  0
 61 62  1  0  0  0  0
M  CHG  1  72   1
M  ISO  4  35 100  55 101  69 100  79 101
M  END
> <Batch ID>
0197

> <Smiles>
CNC(C)C(=O)NC(C(=O)N1Cc2cc([101O:1][101CH2:1]CC(C)Nc3cc([100NH:0][100C:0](=O)N4CCCC(n5nc(-c6ccc(Oc7ccc(F)cc7F)cc6)c(C(N)=O)c5N)C4)n[nH]3)ccc2CC1C(=O)NC1CCCc2ccccc21)C(C)(C)C

> <Shape>
0.245

> <Color>
0.074

> <Negative vol penalty>
0.000

$$$$

  -OEChem-04052305413D

 83 91  0     1  0  0  0  0  0999 V2000
  -34.0166  -33.4973   15.6330 C   0  0  0  0  0  0  0  0  0  0  0  0
  -33.8646  -32.7802   16.8154 C   0  0  0  0  0  0  0  0  0  0  0  0
  -23.0764   -9.8644   19.9418 C   0  0  0  0  0  0  0  0  0  0  0  0
  -23.8361   -9.8744   22.2352 C   0  0  0  0  0  0  0  0  0  0  0  0
  -33.4248  -33.0356   14.4581 C   0  0  0  0  0  0  0  0  0  0  0  0
  -33.1198  -31.6013   16.8238 C   0  0  0  0  0  0  0  0  0  0  0  0
  -34.1752  -26.6037   20.2024 C   0  0  0  0  0  0  0  0  0  0  0  0
  -22.3337   -8.7107   20.1928 C   0  0  0  0  0  0  0  0  0  0  0  0
  -23.0935   -8.7207   22.4863 C   0  0  0  0  0  0  0  0  0  0  0  0
  -33.6249  -26.1472   21.3993 C   0  0  0  0  0  0  0  0  0  0  0  0
  -19.8662   -7.9199   23.0894 C   0  0  0  0  0  0  0  0  0  0  0  0
  -19.1092   -7.8803   24.2603 C   0  0  0  0  0  0  0  0  0  0  0  0
  -32.0893  -24.7616   20.1578 C   0  0  0  0  0  0  0  0  0  0  0  0
  -20.3527   -5.9449   24.9986 C   0  0  0  0  0  0  0  0  0  0  0  0
  -29.7672  -17.7309   22.7112 C   0  0  0  0  0  0  0  0  0  0  0  0
  -23.8276  -10.4463   20.9630 C   0  0  0  0  0  0  0  0  0  0  0  0
  -24.1667  -12.9717   20.8406 C   0  0  0  0  0  0  0  0  0  0  0  0
  -32.6804  -31.8454   14.4500 C   0  0  0  0  0  0  0  0  0  0  0  0
  -33.6786  -26.1501   18.9720 C   0  0  0  0  0  0  0  0  0  0  0  0
  -32.5164  -31.1239   15.6479 C   0  0  0  0  0  0  0  0  0  0  0  0
  -32.6368  -25.2120   18.9468 C   0  0  0  0  0  0  0  0  0  0  0  0
  -22.3423   -8.1388   21.4650 C   0  0  0  0  0  0  0  0  0  0  0  0
  -32.5799  -25.2283   21.3771 C   0  0  0  0  0  0  0  0  0  0  0  0
  -20.8664   -6.9720   22.8730 C   0  0  0  0  0  0  0  0  0  0  0  0
  -19.3525   -6.8928   25.2149 C   0  0  0  0  0  0  0  0  0  0  0  0
  -21.1096   -5.9845   23.8277 C   0  0  0  0  0  0  0  0  0  0  0  0
  -24.5954  -11.6377   20.7042 C   0  0  0  0  0  0  0  0  0  0  0  0
  -30.5661  -16.9558   21.8997 C   0  0  0  0  0  0  0  0  0  0  0  0
  -31.3902  -19.3408   22.7716 C   0  0  0  0  0  0  0  0  0  0  0  0
  -32.1895  -18.5654   21.9608 C   0  0  0  0  0  0  0  0  0  0  0  0
  -25.2581  -13.7220   20.4767 C   0  0  0  0  0  0  0  0  0  0  0  0
  -22.8956  -13.4865   21.2590 C   0  0  0  0  0  0  0  0  0  0  0  0
  -32.2857  -27.5288   16.4695 C   0  0  0  0  0  0  0  0  0  0  0  0
  -32.5595  -24.5659   15.1778 C   0  0  0  0  0  0  0  0  0  0  0  0
  -32.8617  -21.2037   15.6786 C   0  0  0  0  0  0  0  0  0  0  0  0
  -30.7231  -14.7737   20.6507 C   0  0  0  0  0  0  0  0  0  0  0  0
  -32.0200  -31.4110   13.1655 C   0  0  0  0  0  0  0  0  0  0  0  0
  -34.3010  -26.6319   17.6902 C   0  0  0  0  0  0  0  0  0  0  0  0
  -32.0812  -24.6784   17.6525 C   0  0  0  0  0  0  0  0  0  0  0  0
  -31.5598  -29.9555   13.1792 C   0  0  0  0  0  0  0  0  0  0  0  0
  -29.6114  -12.3565   18.2846 C   0  0  0  0  0  0  0  0  0  0  0  0
  -30.8209  -29.6414   14.4761 C   0  0  0  0  0  0  0  0  0  0  0  0
  -28.1721  -12.0637   18.7144 C   0  0  0  0  0  0  0  0  0  0  0  0
  -30.5262  -12.5874   19.4861 C   0  0  0  0  0  0  0  0  0  0  0  0
  -28.6184  -13.3111   20.8666 C   0  0  0  0  0  0  0  0  0  0  0  0
  -31.7367  -29.8277   15.6919 C   0  0  1  0  0  0  0  0  0  0  0  0
  -33.3739  -26.4929   16.4866 C   0  0  1  0  0  0  0  0  0  0  0  0
  -27.6458  -13.1357   19.6889 C   0  0  2  0  0  0  0  0  0  0  0  0
  -33.0241  -19.0328   14.4302 C   0  0  0  0  0  0  0  0  0  0  0  0
  -31.1591  -20.9463   25.4952 C   0  0  0  0  0  0  0  0  0  0  0  0
  -29.5665  -24.6798   14.5953 C   0  0  0  0  0  0  0  0  0  0  0  0
  -29.6108  -22.2010   14.2467 C   0  0  0  0  0  0  0  0  0  0  0  0
  -30.9495  -23.6917   12.7608 C   0  0  0  0  0  0  0  0  0  0  0  0
  -35.5313  -20.6171   16.8135 C   0  0  0  0  0  0  0  0  0  0  0  0
  -31.6170  -22.8853   23.9538 C   0  0  0  0  0  0  0  0  0  0  0  0
  -31.5002  -23.4608   22.5459 C   0  0  0  0  0  0  0  0  0  1  0  0
  -31.6955  -23.3282   15.1489 C   0  0  1  0  0  0  0  0  0  0  0  0
  -33.7978  -20.1748   15.0705 C   0  0  2  0  0  0  0  0  0  0  0  0
  -31.0784  -21.4551   24.0593 C   0  0  1  0  0  0  0  0  0  0  0  0
  -30.4645  -23.4865   14.2124 C   0  0  0  0  0  0  0  0  0  0  0  0
  -30.1648  -18.9373   23.1617 N   0  0  0  0  0  0  0  0  0  0  0  0
  -25.8604  -11.5429   20.2861 N   0  0  0  0  0  0  0  0  0  0  0  0
  -31.7917  -17.3592   21.5100 N   0  0  0  0  0  0  0  0  0  0  0  0
  -26.2359  -12.8268   20.1565 N   0  0  0  0  0  0  0  0  0  0  0  0
  -32.7189  -25.1846   16.4258 N   0  0  0  0  0  0  0  0  0  0  0  0
  -29.9661  -13.6185   20.3625 N   0  0  0  0  0  0  0  0  0  0  0  0
  -33.4673  -19.0365   21.5818 N   0  0  0  0  0  0  0  0  0  0  0  0
  -25.4670  -15.0536   20.4025 N   0  0  0  0  0  0  0  0  0  0  0  0
  -21.8847  -12.5765   21.5971 N   0  0  0  0  0  0  0  0  0  0  0  0
  -30.0747  -15.6988   21.4682 N   0  0  0  0  0  0  0  0  0  0  0  0
  -31.8465  -20.5722   23.2063 N   0  0  0  0  0  0  0  0  0  0  0  0
  -32.6347  -28.7007   15.8256 N   0  0  0  0  0  0  0  0  0  0  0  0
  -32.5783  -22.2224   14.7937 N   0  0  0  0  0  0  0  0  0  0  0  0
  -34.6936  -19.6068   16.1174 N   0  3  0  0  0  0  0  0  0  0  0  0
  -22.6580  -14.7169   21.3152 O   0  0  0  0  0  0  0  0  0  0  0  0
  -31.2087  -27.2827   16.9997 O   0  0  0  0  0  0  0  0  0  0  0  0
  -33.0796  -24.9648   14.1329 O   0  0  0  0  0  0  0  0  0  0  0  0
  -32.4227  -21.1108   16.8228 O   0  0  0  0  0  0  0  0  0  0  0  0
  -31.8520  -14.9433   20.1830 O   0  0  0  0  0  0  0  0  0  0  0  0
  -21.6175   -7.0132   21.7104 O   0  0  0  0  0  0  0  0  0  0  0  0
  -32.0405  -24.7816   22.5439 O   0  0  0  0  0  0  0  0  0  1  0  0
  -18.6265   -6.8557   26.3400 F   0  0  0  0  0  0  0  0  0  0  0  0
  -22.0700   -5.0719   23.6259 F   0  0  0  0  0  0  0  0  0  0  0  0
  1  2  1  0  0  0  0
  1  5  2  0  0  0  0
  2  6  2  0  0  0  0
  3  8  2  0  0  0  0
  3 16  1  0  0  0  0
  4  9  1  0  0  0  0
  4 16  2  0  0  0  0
  5 18  1  0  0  0  0
  6 20  1  0  0  0  0
  7 10  2  0  0  0  0
  7 19  1  0  0  0  0
  8 22  1  0  0  0  0
  9 22  2  0  0  0  0
 10 23  1  0  0  0  0
 11 12  2  0  0  0  0
 11 24  1  0  0  0  0
 12 25  1  0  0  0  0
 13 21  1  0  0  0  0
 13 23  2  0  0  0  0
 14 25  2  0  0  0  0
 14 26  1  0  0  0  0
 15 28  1  0  0  0  0
 15 61  2  0  0  0  0
 16 27  1  0  0  0  0
 17 27  1  0  0  0  0
 17 31  2  0  0  0  0
 17 32  1  0  0  0  0
 18 20  2  0  0  0  0
 18 37  1  0  0  0  0
 19 21  2  0  0  0  0
 19 38  1  0  0  0  0
 20 46  1  0  0  0  0
 21 39  1  0  0  0  0
 22 80  1  0  0  0  0
 23 81  1  0  0  0  0
 24 26  2  0  0  0  0
 24 80  1  0  0  0  0
 25 82  1  0  0  0  0
 26 83  1  0  0  0  0
 27 62  2  0  0  0  0
 28 63  2  0  0  0  0
 28 70  1  0  0  0  0
 29 30  2  0  0  0  0
 29 61  1  0  0  0  0
 29 71  1  0  0  0  0
 30 63  1  0  0  0  0
 30 67  1  0  0  0  0
 31 64  1  0  0  0  0
 31 68  1  0  0  0  0
 32 69  1  0  0  0  0
 32 75  2  0  0  0  0
 33 47  1  0  0  0  0
 33 72  1  0  0  0  0
 33 76  2  0  0  0  0
 34 57  1  0  0  0  0
 34 65  1  0  0  0  0
 34 77  2  0  0  0  0
 35 58  1  0  0  0  0
 35 73  1  0  0  0  0
 35 78  2  0  0  0  0
 36 66  1  0  0  0  0
 36 70  1  0  0  0  0
 36 79  2  0  0  0  0
 37 40  1  0  0  0  0
 38 47  1  0  0  0  0
 39 65  1  0  0  0  0
 40 42  1  0  0  0  0
 41 43  1  0  0  0  0
 41 44  1  0  0  0  0
 42 46  1  0  0  0  0
 43 48  1  0  0  0  0
 44 66  1  0  0  0  0
 45 48  1  0  0  0  0
 45 66  1  0  0  0  0
 46 72  1  0  0  0  0
 47 65  1  0  0  0  0
 48 64  1  0  0  0  0
 49 58  1  0  0  0  0
 50 59  1  0  0  0  0
 51 60  1  0  0  0  0
 52 60  1  0  0  0  0
 53 60  1  0  0  0  0
 54 74  1  0  0  0  0
 55 56  1  0  0  0  0
 55 59  1  0  0  0  0
 56 81  1  0  0  0  0
 57 60  1  0  0  0  0
 57 73  1  0  0  0  0
 58 74  1  0  0  0  0
 59 71  1  0  0  0  0
 62 64  1  0  0  0  0
M  CHG  1  74   1
M  ISO  4  36 100  56 101  70 100  81 101
M  END
> <Batch ID>
0197

> <Smiles>
CNC(C)C(=O)NC(C(=O)N1Cc2cc([101O:1][101CH2:1]CC(C)Nc3ncc([100NH:0][100C:0](=O)N4CCCC(n5nc(-c6ccc(Oc7ccc(F)cc7F)cc6)c(C(N)=O)c5N)C4)nc3N)ccc2CC1C(=O)NC1CCCc2ccccc21)C(C)(C)C

> <Shape>
0.180

> <Color>
0.180

> <Negative vol penalty>
0.000

$$$$

  -OEChem-04052305413D

 85 93  0     1  0  0  0  0  0999 V2000
  -16.2129  -19.6498   30.2582 C   0  0  0  0  0  0  0  0  0  0  0  0
  -16.9002  -20.0244   29.1081 C   0  0  0  0  0  0  0  0  0  0  0  0
  -23.0698   -9.8510   19.9062 C   0  0  0  0  0  0  0  0  0  0  0  0
  -23.8417   -9.8102   22.1952 C   0  0  0  0  0  0  0  0  0  0  0  0
  -16.9167  -19.3630   31.4271 C   0  0  0  0  0  0  0  0  0  0  0  0
  -18.2916  -20.1134   29.1266 C   0  0  0  0  0  0  0  0  0  0  0  0
  -22.1264  -18.7930   24.5378 C   0  0  0  0  0  0  0  0  0  0  0  0
  -22.3489   -8.6777   20.1283 C   0  0  0  0  0  0  0  0  0  0  0  0
  -23.1208   -8.6369   22.4174 C   0  0  0  0  0  0  0  0  0  0  0  0
  -22.7761  -19.5929   23.5988 C   0  0  0  0  0  0  0  0  0  0  0  0
  -20.0160   -5.8906   20.1938 C   0  0  0  0  0  0  0  0  0  0  0  0
  -18.7088   -5.8313   19.7108 C   0  0  0  0  0  0  0  0  0  0  0  0
  -24.7442  -19.6211   24.9935 C   0  0  0  0  0  0  0  0  0  0  0  0
  -18.1146   -7.7268   21.0860 C   0  0  0  0  0  0  0  0  0  0  0  0
  -29.2087  -18.7187   21.0710 C   0  0  0  0  0  0  0  0  0  0  0  0
  -23.8163  -10.4172   20.9396 C   0  0  0  0  0  0  0  0  0  0  0  0
  -24.1103  -12.9507   20.8866 C   0  0  0  0  0  0  0  0  0  0  0  0
  -18.3181  -19.4392   31.4573 C   0  0  0  0  0  0  0  0  0  0  0  0
  -22.7780  -18.4095   25.7188 C   0  0  0  0  0  0  0  0  0  0  0  0
  -19.0147  -19.8287   30.2974 C   0  0  0  0  0  0  0  0  0  0  0  0
  -24.1014  -18.8142   25.9447 C   0  0  0  0  0  0  0  0  0  0  0  0
  -22.3744   -8.0707   21.3839 C   0  0  0  0  0  0  0  0  0  0  0  0
  -24.0842  -20.0095   23.8279 C   0  0  0  0  0  0  0  0  0  0  0  0
  -20.3725   -6.8679   21.1231 C   0  0  0  0  0  0  0  0  0  0  0  0
  -17.7581   -6.7494   20.1568 C   0  0  0  0  0  0  0  0  0  0  0  0
  -19.4218   -7.7860   21.5691 C   0  0  0  0  0  0  0  0  0  0  0  0
  -24.5616  -11.6289   20.7106 C   0  0  0  0  0  0  0  0  0  0  0  0
  -30.4379  -18.0914   21.0770 C   0  0  0  0  0  0  0  0  0  0  0  0
  -29.0695  -19.7506   20.1654 C   0  0  0  0  0  0  0  0  0  0  0  0
  -25.1863  -13.7301   20.5385 C   0  0  0  0  0  0  0  0  0  0  0  0
  -31.1996  -19.4577   19.4277 C   0  0  0  0  0  0  0  0  0  0  0  0
  -22.8327  -13.4310   21.3255 C   0  0  0  0  0  0  0  0  0  0  0  0
  -22.2685  -18.8902   28.8193 C   0  0  0  0  0  0  0  0  0  0  0  0
  -24.7520  -16.8295   29.1488 C   0  0  0  0  0  0  0  0  0  0  0  0
  -27.5496  -15.4234   27.7913 C   0  0  0  0  0  0  0  0  0  0  0  0
  -30.6510  -14.8465   20.7278 C   0  0  0  0  0  0  0  0  0  0  0  0
  -19.0322  -19.1657   32.7573 C   0  0  0  0  0  0  0  0  0  0  0  0
  -22.0725  -17.5244   26.7093 C   0  0  0  0  0  0  0  0  0  0  0  0
  -24.8522  -18.4131   27.1872 C   0  0  0  0  0  0  0  0  0  0  0  0
  -20.5295  -18.9204   32.5898 C   0  0  0  0  0  0  0  0  0  0  0  0
  -29.5453  -12.5065   18.2827 C   0  0  0  0  0  0  0  0  0  0  0  0
  -21.1437  -19.9735   31.6730 C   0  0  0  0  0  0  0  0  0  0  0  0
  -28.1159  -12.1742   18.7144 C   0  0  0  0  0  0  0  0  0  0  0  0
  -30.4646  -12.7119   19.4846 C   0  0  0  0  0  0  0  0  0  0  0  0
  -28.5570  -13.3694   20.8998 C   0  0  0  0  0  0  0  0  0  0  0  0
  -20.5255  -19.9125   30.2710 C   0  0  1  0  0  0  0  0  0  0  0  0
  -22.6545  -17.6196   28.1163 C   0  0  1  0  0  0  0  0  0  0  0  0
  -27.5800  -13.2084   19.7226 C   0  0  2  0  0  0  0  0  0  0  0  0
  -29.3912  -13.8011   28.3147 C   0  0  0  0  0  0  0  0  0  0  0  0
  -26.0963  -18.9274   30.9099 C   0  0  0  0  0  0  0  0  0  0  0  0
  -28.2536  -17.6916   30.6150 C   0  0  0  0  0  0  0  0  0  0  0  0
  -26.3218  -16.5761   31.7314 C   0  0  0  0  0  0  0  0  0  0  0  0
  -33.5250  -19.2074   18.5587 C   0  0  0  0  0  0  0  0  0  0  0  0
  -26.7683  -13.6389   25.5633 C   0  0  0  0  0  0  0  0  0  0  0  0
  -30.6834  -16.9636   22.0223 C   0  0  0  0  0  0  0  0  0  0  0  0
  -26.7323  -20.0668   20.9795 C   0  0  0  0  0  0  0  0  0  0  0  0
  -24.3441  -20.6285   21.5464 C   0  0  0  0  0  0  0  0  0  1  0  0
  -26.2527  -16.9689   29.2348 C   0  0  1  0  0  0  0  0  0  0  0  0
  -28.0101  -13.9796   27.7035 C   0  0  2  0  0  0  0  0  0  0  0  0
  -25.5386  -20.9647   20.6602 C   0  0  1  0  0  0  0  0  0  0  0  0
  -26.7166  -17.5503   30.6001 C   0  0  0  0  0  0  0  0  0  0  0  0
  -25.8258  -11.5682   20.2837 N   0  0  0  0  0  0  0  0  0  0  0  0
  -31.4595  -18.4364   20.2661 N   0  0  0  0  0  0  0  0  0  0  0  0
  -30.0479  -20.1482   19.3257 N   0  0  0  0  0  0  0  0  0  0  0  0
  -26.1780  -12.8616   20.1885 N   0  0  0  0  0  0  0  0  0  0  0  0
  -24.1172  -17.5522   28.1286 N   0  0  0  0  0  0  0  0  0  0  0  0
  -29.8997  -13.7056   20.4009 N   0  0  0  0  0  0  0  0  0  0  0  0
  -25.3715  -15.0668   20.5006 N   0  0  0  0  0  0  0  0  0  0  0  0
  -21.8397  -12.4942   21.6429 N   0  0  0  0  0  0  0  0  0  0  0  0
  -27.8505  -20.4060   20.1282 N   0  0  0  0  0  0  0  0  0  0  0  0
  -32.2463  -19.8461   18.5634 N   0  0  0  0  0  0  0  0  0  0  0  0
  -21.0812  -18.8064   29.5212 N   0  0  0  0  0  0  0  0  0  0  0  0
  -26.8032  -15.6533   28.9276 N   0  0  0  0  0  0  0  0  0  0  0  0
  -30.0392  -15.7408   21.5976 N   0  0  0  0  0  0  0  0  0  0  0  0
  -28.0652  -13.5390   26.2809 N   0  3  0  0  0  0  0  0  0  0  0  0
  -22.5738  -14.6549   21.4174 O   0  0  0  0  0  0  0  0  0  0  0  0
  -22.9950  -19.8733   28.7327 O   0  0  0  0  0  0  0  0  0  0  0  0
  -24.1653  -16.1005   29.9525 O   0  0  0  0  0  0  0  0  0  0  0  0
  -27.8277  -16.2643   26.9391 O   0  0  0  0  0  0  0  0  0  0  0  0
  -31.7811  -15.0555   20.2736 O   0  0  0  0  0  0  0  0  0  0  0  0
  -25.8969  -22.3252   20.9111 O   0  0  0  0  0  0  0  0  0  0  0  0
  -21.6709   -6.9260   21.6011 O   0  0  0  0  0  0  0  0  0  0  0  0
  -24.7205  -20.7908   22.9132 O   0  0  0  0  0  0  0  0  0  1  0  0
  -16.5033   -6.6933   19.6917 F   0  0  0  0  0  0  0  0  0  0  0  0
  -19.7587   -8.7279   22.4608 F   0  0  0  0  0  0  0  0  0  0  0  0
  1  2  1  0  0  0  0
  1  5  2  0  0  0  0
  2  6  2  0  0  0  0
  3  8  2  0  0  0  0
  3 16  1  0  0  0  0
  4  9  1  0  0  0  0
  4 16  2  0  0  0  0
  5 18  1  0  0  0  0
  6 20  1  0  0  0  0
  7 10  2  0  0  0  0
  7 19  1  0  0  0  0
  8 22  1  0  0  0  0
  9 22  2  0  0  0  0
 10 23  1  0  0  0  0
 11 12  2  0  0  0  0
 11 24  1  0  0  0  0
 12 25  1  0  0  0  0
 13 21  1  0  0  0  0
 13 23  2  0  0  0  0
 14 25  2  0  0  0  0
 14 26  1  0  0  0  0
 15 28  1  0  0  0  0
 15 29  2  0  0  0  0
 16 27  1  0  0  0  0
 17 27  1  0  0  0  0
 17 30  2  0  0  0  0
 17 32  1  0  0  0  0
 18 20  2  0  0  0  0
 18 37  1  0  0  0  0
 19 21  2  0  0  0  0
 19 38  1  0  0  0  0
 20 46  1  0  0  0  0
 21 39  1  0  0  0  0
 22 82  1  0  0  0  0
 23 83  1  0  0  0  0
 24 26  2  0  0  0  0
 24 82  1  0  0  0  0
 25 84  1  0  0  0  0
 26 85  1  0  0  0  0
 27 62  2  0  0  0  0
 28 55  1  0  0  0  0
 28 63  2  0  0  0  0
 29 64  1  0  0  0  0
 29 70  1  0  0  0  0
 30 65  1  0  0  0  0
 30 68  1  0  0  0  0
 31 63  1  0  0  0  0
 31 64  2  0  0  0  0
 31 71  1  0  0  0  0
 32 69  1  0  0  0  0
 32 76  2  0  0  0  0
 33 47  1  0  0  0  0
 33 72  1  0  0  0  0
 33 77  2  0  0  0  0
 34 58  1  0  0  0  0
 34 66  1  0  0  0  0
 34 78  2  0  0  0  0
 35 59  1  0  0  0  0
 35 73  1  0  0  0  0
 35 79  2  0  0  0  0
 36 67  1  0  0  0  0
 36 74  1  0  0  0  0
 36 80  2  0  0  0  0
 37 40  1  0  0  0  0
 38 47  1  0  0  0  0
 39 66  1  0  0  0  0
 40 42  1  0  0  0  0
 41 43  1  0  0  0  0
 41 44  1  0  0  0  0
 42 46  1  0  0  0  0
 43 48  1  0  0  0  0
 44 67  1  0  0  0  0
 45 48  1  0  0  0  0
 45 67  1  0  0  0  0
 46 72  1  0  0  0  0
 47 66  1  0  0  0  0
 48 65  1  0  0  0  0
 49 59  1  0  0  0  0
 50 61  1  0  0  0  0
 51 61  1  0  0  0  0
 52 61  1  0  0  0  0
 53 71  1  0  0  0  0
 54 75  1  0  0  0  0
 55 74  1  0  0  0  0
 56 60  1  0  0  0  0
 56 70  1  0  0  0  0
 57 60  1  0  0  0  0
 57 83  1  0  0  0  0
 58 61  1  0  0  0  0
 58 73  1  0  0  0  0
 59 75  1  0  0  0  0
 60 81  1  0  0  0  0
 62 65  1  0  0  0  0
M  CHG  1  75   1
M  ISO  4  36 100  57 101  74 100  83 101
M  END
> <Batch ID>
0197

> <Smiles>
CNc1nc(C[100NH:0][100C:0](=O)N2CCCC(n3nc(-c4ccc(Oc5ccc(F)cc5F)cc4)c(C(N)=O)c3N)C2)cc(NCC(O)[101CH2:1][101O:1]c2ccc3c(c2)CN(C(=O)C(NC(=O)C(C)NC)C(C)(C)C)C(C(=O)NC2CCCc4ccccc42)C3)n1

> <Shape>
0.173

> <Color>
0.186

> <Negative vol penalty>
0.000

$$$$

  -OEChem-04052305413D

 88 96  0     1  0  0  0  0  0999 V2000
  -37.3042  -31.5256   21.2637 C   0  0  0  0  0  0  0  0  0  0  0  0
  -36.2993  -30.5736   21.1244 C   0  0  0  0  0  0  0  0  0  0  0  0
  -23.2182   -9.7083   21.5142 C   0  0  0  0  0  0  0  0  0  0  0  0
  -23.8354  -10.7901   23.5844 C   0  0  0  0  0  0  0  0  0  0  0  0
  -37.2519  -32.4447   22.3108 C   0  0  0  0  0  0  0  0  0  0  0  0
  -35.2420  -30.5395   22.0329 C   0  0  0  0  0  0  0  0  0  0  0  0
  -30.7481  -29.9894   19.7641 C   0  0  0  0  0  0  0  0  0  0  0  0
  -22.5630   -8.7079   22.2323 C   0  0  0  0  0  0  0  0  0  0  0  0
  -23.1802   -9.7898   24.3025 C   0  0  0  0  0  0  0  0  0  0  0  0
  -30.4067  -28.7094   19.3297 C   0  0  0  0  0  0  0  0  0  0  0  0
  -23.4013   -5.9251   23.9578 C   0  0  0  0  0  0  0  0  0  0  0  0
  -23.6132   -4.6030   23.5668 C   0  0  0  0  0  0  0  0  0  0  0  0
  -29.0363  -28.4152   21.2930 C   0  0  0  0  0  0  0  0  0  0  0  0
  -21.2487   -4.3506   23.1394 C   0  0  0  0  0  0  0  0  0  0  0  0
  -29.0351  -18.6401   20.6737 C   0  0  0  0  0  0  0  0  0  0  0  0
  -23.8544  -10.7494   22.1903 C   0  0  0  0  0  0  0  0  0  0  0  0
  -23.9835  -12.9918   20.9810 C   0  0  0  0  0  0  0  0  0  0  0  0
  -36.1884  -32.4280   23.2269 C   0  0  0  0  0  0  0  0  0  0  0  0
  -30.2440  -30.4886   20.9737 C   0  0  0  0  0  0  0  0  0  0  0  0
  -35.1761  -31.4584   23.0940 C   0  0  0  0  0  0  0  0  0  0  0  0
  -29.3708  -29.7028   21.7393 C   0  0  0  0  0  0  0  0  0  0  0  0
  -22.5440   -8.7487   23.6264 C   0  0  0  0  0  0  0  0  0  0  0  0
  -29.5529  -27.9210   20.0956 C   0  0  0  0  0  0  0  0  0  0  0  0
  -22.1131   -6.4599   23.9397 C   0  0  0  0  0  0  0  0  0  0  0  0
  -22.5369   -3.8158   23.1576 C   0  0  0  0  0  0  0  0  0  0  0  0
  -21.0369   -5.6727   23.5304 C   0  0  0  0  0  0  0  0  0  0  0  0
  -24.5319  -11.7827   21.4491 C   0  0  0  0  0  0  0  0  0  0  0  0
  -30.5070  -20.2743   20.0474 C   0  0  0  0  0  0  0  0  0  0  0  0
  -29.9444  -17.6765   20.2966 C   0  0  0  0  0  0  0  0  0  0  0  0
  -31.4167  -19.3108   19.6710 C   0  0  0  0  0  0  0  0  0  0  0  0
  -25.0266  -13.6180   20.3437 C   0  0  0  0  0  0  0  0  0  0  0  0
  -22.6503  -13.5032   21.1106 C   0  0  0  0  0  0  0  0  0  0  0  0
  -31.5339  -31.4465   23.7164 C   0  0  0  0  0  0  0  0  0  0  0  0
  -28.4802  -32.2960   24.4058 C   0  0  0  0  0  0  0  0  0  0  0  0
  -25.1468  -31.8430   23.8310 C   0  0  0  0  0  0  0  0  0  0  0  0
  -30.3617  -15.1977   20.1310 C   0  0  0  0  0  0  0  0  0  0  0  0
  -36.1996  -33.4115   24.3703 C   0  0  0  0  0  0  0  0  0  0  0  0
  -30.6007  -31.8816   21.4151 C   0  0  0  0  0  0  0  0  0  0  0  0
  -28.7864  -30.2000   23.0353 C   0  0  0  0  0  0  0  0  0  0  0  0
  -34.8500  -33.5469   25.0705 C   0  0  0  0  0  0  0  0  0  0  0  0
  -29.6043  -11.8932   19.0430 C   0  0  0  0  0  0  0  0  0  0  0  0
  -34.2526  -32.1713   25.3490 C   0  0  0  0  0  0  0  0  0  0  0  0
  -28.1720  -11.6693   19.5334 C   0  0  0  0  0  0  0  0  0  0  0  0
  -30.4223  -12.7152   20.0373 C   0  0  0  0  0  0  0  0  0  0  0  0
  -28.3804  -13.7653   20.9300 C   0  0  0  0  0  0  0  0  0  0  0  0
  -33.9999  -31.4053   24.0448 C   0  0  1  0  0  0  0  0  0  0  0  0
  -30.4377  -32.0925   22.9172 C   0  0  1  0  0  0  0  0  0  0  0  0
  -27.4987  -12.9973   19.9317 C   0  0  2  0  0  0  0  0  0  0  0  0
  -22.8916  -32.6558   24.5731 C   0  0  0  0  0  0  0  0  0  0  0  0
  -30.9201  -24.4602   23.6192 C   0  0  0  0  0  0  0  0  0  0  0  0
  -33.3094  -24.0779   22.9805 C   0  0  0  0  0  0  0  0  0  0  0  0
  -28.7350  -30.6574   26.9671 C   0  0  0  0  0  0  0  0  0  0  0  0
  -26.2403  -30.7151   27.1696 C   0  0  0  0  0  0  0  0  0  0  0  0
  -27.5450  -32.8401   27.2392 C   0  0  0  0  0  0  0  0  0  0  0  0
  -24.4776  -32.8194   21.1185 C   0  0  0  0  0  0  0  0  0  0  0  0
  -30.8058  -21.7386   19.9146 C   0  0  0  0  0  0  0  0  0  0  0  0
  -31.5903  -24.3051   21.1596 C   0  0  0  0  0  0  0  0  0  0  0  0
  -30.1820  -25.9712   18.8878 C   0  0  0  0  0  0  0  0  0  1  0  0
  -27.2977  -31.6088   25.0449 C   0  0  1  0  0  0  0  0  0  0  0  0
  -24.0251  -32.8333   23.5749 C   0  0  2  0  0  0  0  0  0  0  0  0
  -31.8511  -23.8061   22.5976 C   0  0  0  0  0  0  0  0  0  0  0  0
  -30.1801  -24.0579   20.5988 C   0  0  1  0  0  0  0  0  0  0  0  0
  -30.0151  -24.4713   19.1249 C   0  0  1  0  0  0  0  0  0  0  0  0
  -27.4669  -31.4449   26.5818 C   0  0  0  0  0  0  0  0  0  0  0  0
  -29.3000  -19.9563   20.5558 N   0  0  0  0  0  0  0  0  0  0  0  0
  -25.8231  -11.6467   21.1358 N   0  0  0  0  0  0  0  0  0  0  0  0
  -31.1515  -17.9946   19.7886 N   0  0  0  0  0  0  0  0  0  0  0  0
  -26.0948  -12.7784   20.4638 N   0  0  0  0  0  0  0  0  0  0  0  0
  -29.1702  -31.5661   23.4275 N   0  0  0  0  0  0  0  0  0  0  0  0
  -29.7247  -13.9606   20.3648 N   0  0  0  0  0  0  0  0  0  0  0  0
  -32.6666  -19.7081   19.1457 N   0  0  0  0  0  0  0  0  0  0  0  0
  -25.1253  -14.7993   19.6978 N   0  0  0  0  0  0  0  0  0  0  0  0
  -21.7022  -12.7312   21.7959 N   0  0  0  0  0  0  0  0  0  0  0  0
  -29.5888  -16.3136   20.4504 N   0  0  0  0  0  0  0  0  0  0  0  0
  -32.8018  -31.8932   23.3961 N   0  0  0  0  0  0  0  0  0  0  0  0
  -26.1194  -32.3739   24.6517 N   0  0  0  0  0  0  0  0  0  0  0  0
  -23.4754  -32.6496   22.2019 N   0  3  0  0  0  0  0  0  0  0  0  0
  -29.8719  -22.5942   20.6847 N   0  3  0  0  0  0  0  0  0  0  0  0
  -22.3056  -14.6045   20.6188 O   0  0  0  0  0  0  0  0  0  0  0  0
  -31.2503  -30.6062   24.5620 O   0  0  0  0  0  0  0  0  0  0  0  0
  -28.7763  -33.4410   24.7565 O   0  0  0  0  0  0  0  0  0  0  0  0
  -25.1573  -30.7104   23.3540 O   0  0  0  0  0  0  0  0  0  0  0  0
  -31.4980  -15.2628   19.6552 O   0  0  0  0  0  0  0  0  0  0  0  0
  -28.6876  -24.1142   18.7183 O   0  0  0  0  0  0  0  0  0  0  0  0
  -21.9046   -7.7728   24.3275 O   0  0  0  0  0  0  0  0  0  0  0  0
  -29.2185  -26.6710   19.6742 O   0  0  0  0  0  0  0  0  0  1  0  0
  -22.7407   -2.5467   22.7806 F   0  0  0  0  0  0  0  0  0  0  0  0
  -19.7972   -6.1813   23.5098 F   0  0  0  0  0  0  0  0  0  0  0  0
  1  2  1  0  0  0  0
  1  5  2  0  0  0  0
  2  6  2  0  0  0  0
  3  8  2  0  0  0  0
  3 16  1  0  0  0  0
  4  9  1  0  0  0  0
  4 16  2  0  0  0  0
  5 18  1  0  0  0  0
  6 20  1  0  0  0  0
  7 10  2  0  0  0  0
  7 19  1  0  0  0  0
  8 22  1  0  0  0  0
  9 22  2  0  0  0  0
 10 23  1  0  0  0  0
 11 12  2  0  0  0  0
 11 24  1  0  0  0  0
 12 25  1  0  0  0  0
 13 21  1  0  0  0  0
 13 23  2  0  0  0  0
 14 25  2  0  0  0  0
 14 26  1  0  0  0  0
 15 29  1  0  0  0  0
 15 65  2  0  0  0  0
 16 27  1  0  0  0  0
 17 27  1  0  0  0  0
 17 31  2  0  0  0  0
 17 32  1  0  0  0  0
 18 20  2  0  0  0  0
 18 37  1  0  0  0  0
 19 21  2  0  0  0  0
 19 38  1  0  0  0  0
 20 46  1  0  0  0  0
 21 39  1  0  0  0  0
 22 85  1  0  0  0  0
 23 86  1  0  0  0  0
 24 26  2  0  0  0  0
 24 85  1  0  0  0  0
 25 87  1  0  0  0  0
 26 88  1  0  0  0  0
 27 66  2  0  0  0  0
 28 30  2  0  0  0  0
 28 56  1  0  0  0  0
 28 65  1  0  0  0  0
 29 67  2  0  0  0  0
 29 74  1  0  0  0  0
 30 67  1  0  0  0  0
 30 71  1  0  0  0  0
 31 68  1  0  0  0  0
 31 72  1  0  0  0  0
 32 73  1  0  0  0  0
 32 79  2  0  0  0  0
 33 47  1  0  0  0  0
 33 75  1  0  0  0  0
 33 80  2  0  0  0  0
 34 59  1  0  0  0  0
 34 69  1  0  0  0  0
 34 81  2  0  0  0  0
 35 60  1  0  0  0  0
 35 76  1  0  0  0  0
 35 82  2  0  0  0  0
 36 70  1  0  0  0  0
 36 74  1  0  0  0  0
 36 83  2  0  0  0  0
 37 40  1  0  0  0  0
 38 47  1  0  0  0  0
 39 69  1  0  0  0  0
 40 42  1  0  0  0  0
 41 43  1  0  0  0  0
 41 44  1  0  0  0  0
 42 46  1  0  0  0  0
 43 48  1  0  0  0  0
 44 70  1  0  0  0  0
 45 48  1  0  0  0  0
 45 70  1  0  0  0  0
 46 75  1  0  0  0  0
 47 69  1  0  0  0  0
 48 68  1  0  0  0  0
 49 60  1  0  0  0  0
 50 61  1  0  0  0  0
 51 61  1  0  0  0  0
 52 64  1  0  0  0  0
 53 64  1  0  0  0  0
 54 64  1  0  0  0  0
 55 77  1  0  0  0  0
 56 78  1  0  0  0  0
 57 61  1  0  0  0  0
 57 62  1  0  0  0  0
 58 63  1  0  0  0  0
 58 86  1  0  0  0  0
 59 64  1  0  0  0  0
 59 76  1  0  0  0  0
 60 77  1  0  0  0  0
 62 63  1  0  0  0  0
 62 78  1  0  0  0  0
 63 84  1  0  0  0  0
 66 68  1  0  0  0  0
M  CHG  2  77   1  78   1
M  ISO  4  36 100  58 101  74 100  86 101
M  END
> <Batch ID>
0197

> <Smiles>
CNC(C)C(=O)NC(C(=O)N1Cc2cc([101O:1][101CH2:1]C(O)C(CC(C)C)NCc3ncc([100NH:0][100C:0](=O)N4CCCC(n5nc(-c6ccc(Oc7ccc(F)cc7F)cc6)c(C(N)=O)c5N)C4)nc3N)ccc2CC1C(=O)NC1CCCc2ccccc21)C(C)(C)C

> <Shape>
0.285

> <Color>
0.153

> <Negative vol penalty>
0.000

$$$$

  -OEChem-04052305413D

 84 92  0     1  0  0  0  0  0999 V2000
  -18.0451  -31.2259   20.7702 C   0  0  0  0  0  0  0  0  0  0  0  0
  -19.4222  -31.1517   20.5874 C   0  0  0  0  0  0  0  0  0  0  0  0
  -26.4110  -12.6839   21.5808 C   0  0  0  0  0  0  0  0  0  0  0  0
  -25.9191  -13.5544   19.3814 C   0  0  0  0  0  0  0  0  0  0  0  0
  -17.3894  -30.2519   21.5221 C   0  0  0  0  0  0  0  0  0  0  0  0
  -20.1447  -30.1041   21.1573 C   0  0  0  0  0  0  0  0  0  0  0  0
  -25.0702  -27.3234   18.8094 C   0  0  0  0  0  0  0  0  0  0  0  0
  -25.1807  -12.0269   21.5959 C   0  0  0  0  0  0  0  0  0  0  0  0
  -24.6888  -12.8973   19.3965 C   0  0  0  0  0  0  0  0  0  0  0  0
  -26.4358  -27.4783   19.0440 C   0  0  0  0  0  0  0  0  0  0  0  0
  -23.8449   -9.2097   20.2875 C   0  0  0  0  0  0  0  0  0  0  0  0
  -23.8224   -7.8858   20.7263 C   0  0  0  0  0  0  0  0  0  0  0  0
  -26.3694  -25.6421   20.6070 C   0  0  0  0  0  0  0  0  0  0  0  0
  -22.3022   -8.4999   22.5009 C   0  0  0  0  0  0  0  0  0  0  0  0
  -26.7802  -13.4477   20.4735 C   0  0  0  0  0  0  0  0  0  0  0  0
  -29.2776  -13.6245   19.9840 C   0  0  0  0  0  0  0  0  0  0  0  0
  -18.1028  -29.1864   22.0935 C   0  0  0  0  0  0  0  0  0  0  0  0
  -24.3406  -26.3320   19.4811 C   0  0  0  0  0  0  0  0  0  0  0  0
  -19.4981  -29.1156   21.9187 C   0  0  0  0  0  0  0  0  0  0  0  0
  -24.9952  -25.4750   20.3773 C   0  0  0  0  0  0  0  0  0  0  0  0
  -29.1559  -23.1953   16.3009 C   0  0  0  0  0  0  0  0  0  0  0  0
  -24.3196  -12.1336   20.5038 C   0  0  0  0  0  0  0  0  0  0  0  0
  -27.0850  -26.6395   19.9451 C   0  0  0  0  0  0  0  0  0  0  0  0
  -23.0962  -10.1787   20.9555 C   0  0  0  0  0  0  0  0  0  0  0  0
  -23.0510   -7.5309   21.8329 C   0  0  0  0  0  0  0  0  0  0  0  0
  -22.3248   -9.8238   22.0621 C   0  0  0  0  0  0  0  0  0  0  0  0
  -28.0508  -14.1271   20.4575 C   0  0  0  0  0  0  0  0  0  0  0  0
  -28.6803  -21.9140   16.1095 C   0  0  0  0  0  0  0  0  0  0  0  0
  -29.6170  -23.4775   17.5705 C   0  0  0  0  0  0  0  0  0  0  0  0
  -30.1700  -14.6484   20.1887 C   0  0  0  0  0  0  0  0  0  0  0  0
  -29.1297  -21.3704   18.2704 C   0  0  0  0  0  0  0  0  0  0  0  0
  -29.5831  -12.3466   19.4103 C   0  0  0  0  0  0  0  0  0  0  0  0
  -21.8978  -26.3351   21.5150 C   0  0  0  0  0  0  0  0  0  0  0  0
  -22.0771  -23.1194   21.1284 C   0  0  0  0  0  0  0  0  0  0  0  0
  -23.9685  -20.4017   20.3017 C   0  0  0  0  0  0  0  0  0  0  0  0
  -29.5527  -20.5758   20.6233 C   0  0  0  0  0  0  0  0  0  0  0  0
  -17.3572  -28.1834   22.9376 C   0  0  0  0  0  0  0  0  0  0  0  0
  -22.8735  -26.1605   19.1969 C   0  0  0  0  0  0  0  0  0  0  0  0
  -24.2614  -24.3819   21.1088 C   0  0  0  0  0  0  0  0  0  0  0  0
  -18.1426  -26.8999   23.1946 C   0  0  0  0  0  0  0  0  0  0  0  0
  -30.9730  -18.3987   23.0564 C   0  0  0  0  0  0  0  0  0  0  0  0
  -19.5739  -27.2241   23.6105 C   0  0  0  0  0  0  0  0  0  0  0  0
  -30.5015  -17.0099   22.6195 C   0  0  0  0  0  0  0  0  0  0  0  0
  -29.9029  -19.4623   22.8170 C   0  0  0  0  0  0  0  0  0  0  0  0
  -28.8967  -18.1196   21.0132 C   0  0  0  0  0  0  0  0  0  0  0  0
  -20.3130  -27.9808   22.5003 C   0  0  1  0  0  0  0  0  0  0  0  0
  -22.1260  -25.4510   20.3217 C   0  0  1  0  0  0  0  0  0  0  0  0
  -29.9648  -17.0257   21.1747 C   0  0  2  0  0  0  0  0  0  0  0  0
  -29.1665  -24.2002   15.2024 C   0  0  0  0  0  0  0  0  0  0  0  0
  -28.1550  -21.4925   14.7766 C   0  0  0  0  0  0  0  0  0  0  0  0
  -23.8500  -17.9019   20.1163 C   0  0  0  0  0  0  0  0  0  0  0  0
  -32.0293  -24.6129   19.2853 C   0  0  0  0  0  0  0  0  0  0  0  0
  -22.2387  -22.8889   24.1666 C   0  0  0  0  0  0  0  0  0  0  0  0
  -23.0604  -20.5419   23.8751 C   0  0  0  0  0  0  0  0  0  0  0  0
  -20.7872  -21.1752   23.0661 C   0  0  0  0  0  0  0  0  0  0  0  0
  -24.5732  -20.4718   17.4054 C   0  0  0  0  0  0  0  0  0  0  0  0
  -30.6118  -26.6938   19.2071 C   0  0  0  0  0  0  0  0  0  0  0  0
  -29.2114  -27.2893   19.1013 C   0  0  0  0  0  0  0  0  0  1  0  0
  -22.8229  -22.0001   21.8139 C   0  0  1  0  0  0  0  0  0  0  0  0
  -23.6936  -19.2250   19.3829 C   0  0  2  0  0  0  0  0  0  0  0  0
  -30.6177  -25.1648   19.1123 C   0  0  1  0  0  0  0  0  0  0  0  0
  -22.2410  -21.6733   23.2182 C   0  0  0  0  0  0  0  0  0  0  0  0
  -28.1510  -15.3732   20.9277 N   0  0  0  0  0  0  0  0  0  0  0  0
  -28.6523  -20.9727   17.0757 N   0  0  0  0  0  0  0  0  0  0  0  0
  -29.6185  -22.5857   18.5830 N   0  0  0  0  0  0  0  0  0  0  0  0
  -29.4515  -15.6623   20.7508 N   0  0  0  0  0  0  0  0  0  0  0  0
  -22.8268  -24.2583   20.8017 N   0  0  0  0  0  0  0  0  0  0  0  0
  -29.4451  -19.4208   21.4265 N   0  0  0  0  0  0  0  0  0  0  0  0
  -31.4913  -14.7712   19.9410 N   0  0  0  0  0  0  0  0  0  0  0  0
  -28.5483  -11.4114   19.2725 N   0  0  0  0  0  0  0  0  0  0  0  0
  -30.1064  -24.7463   17.8237 N   0  0  0  0  0  0  0  0  0  0  0  0
  -29.1160  -20.4074   19.3097 N   0  0  0  0  0  0  0  0  0  0  0  0
  -20.7280  -27.0683   21.4565 N   0  0  0  0  0  0  0  0  0  0  0  0
  -22.8125  -20.8743   20.8861 N   0  0  0  0  0  0  0  0  0  0  0  0
  -24.6369  -19.2371   18.2292 N   0  3  0  0  0  0  0  0  0  0  0  0
  -30.7429  -12.0369   19.0463 O   0  0  0  0  0  0  0  0  0  0  0  0
  -22.7213  -26.3498   22.4223 O   0  0  0  0  0  0  0  0  0  0  0  0
  -20.8752  -22.9852   20.8850 O   0  0  0  0  0  0  0  0  0  0  0  0
  -25.0964  -20.8539   20.4856 O   0  0  0  0  0  0  0  0  0  0  0  0
  -30.0247  -21.6286   21.0604 O   0  0  0  0  0  0  0  0  0  0  0  0
  -23.1191  -11.4924   20.5182 O   0  0  0  0  0  0  0  0  0  0  0  0
  -28.4176  -26.7890   20.1765 O   0  0  0  0  0  0  0  0  0  1  0  0
  -23.0282   -6.2593   22.2532 F   0  0  0  0  0  0  0  0  0  0  0  0
  -21.6025  -10.7501   22.7071 F   0  0  0  0  0  0  0  0  0  0  0  0
  1  2  1  0  0  0  0
  1  5  2  0  0  0  0
  2  6  2  0  0  0  0
  3  8  2  0  0  0  0
  3 15  1  0  0  0  0
  4  9  1  0  0  0  0
  4 15  2  0  0  0  0
  5 17  1  0  0  0  0
  6 19  1  0  0  0  0
  7 10  2  0  0  0  0
  7 18  1  0  0  0  0
  8 22  1  0  0  0  0
  9 22  2  0  0  0  0
 10 23  1  0  0  0  0
 11 12  2  0  0  0  0
 11 24  1  0  0  0  0
 12 25  1  0  0  0  0
 13 20  1  0  0  0  0
 13 23  2  0  0  0  0
 14 25  2  0  0  0  0
 14 26  1  0  0  0  0
 15 27  1  0  0  0  0
 16 27  1  0  0  0  0
 16 30  2  0  0  0  0
 16 32  1  0  0  0  0
 17 19  2  0  0  0  0
 17 37  1  0  0  0  0
 18 20  2  0  0  0  0
 18 38  1  0  0  0  0
 19 46  1  0  0  0  0
 20 39  1  0  0  0  0
 21 28  1  0  0  0  0
 21 29  2  0  0  0  0
 21 49  1  0  0  0  0
 22 81  1  0  0  0  0
 23 82  1  0  0  0  0
 24 26  2  0  0  0  0
 24 81  1  0  0  0  0
 25 83  1  0  0  0  0
 26 84  1  0  0  0  0
 27 63  2  0  0  0  0
 28 50  1  0  0  0  0
 28 64  2  0  0  0  0
 29 65  1  0  0  0  0
 29 71  1  0  0  0  0
 30 66  1  0  0  0  0
 30 69  1  0  0  0  0
 31 64  1  0  0  0  0
 31 65  2  0  0  0  0
 31 72  1  0  0  0  0
 32 70  1  0  0  0  0
 32 76  2  0  0  0  0
 33 47  1  0  0  0  0
 33 73  1  0  0  0  0
 33 77  2  0  0  0  0
 34 59  1  0  0  0  0
 34 67  1  0  0  0  0
 34 78  2  0  0  0  0
 35 60  1  0  0  0  0
 35 74  1  0  0  0  0
 35 79  2  0  0  0  0
 36 68  1  0  0  0  0
 36 72  1  0  0  0  0
 36 80  2  0  0  0  0
 37 40  1  0  0  0  0
 38 47  1  0  0  0  0
 39 67  1  0  0  0  0
 40 42  1  0  0  0  0
 41 43  1  0  0  0  0
 41 44  1  0  0  0  0
 42 46  1  0  0  0  0
 43 48  1  0  0  0  0
 44 68  1  0  0  0  0
 45 48  1  0  0  0  0
 45 68  1  0  0  0  0
 46 73  1  0  0  0  0
 47 67  1  0  0  0  0
 48 66  1  0  0  0  0
 51 60  1  0  0  0  0
 52 61  1  0  0  0  0
 53 62  1  0  0  0  0
 54 62  1  0  0  0  0
 55 62  1  0  0  0  0
 56 75  1  0  0  0  0
 57 58  1  0  0  0  0
 57 61  1  0  0  0  0
 58 82  1  0  0  0  0
 59 62  1  0  0  0  0
 59 74  1  0  0  0  0
 60 75  1  0  0  0  0
 61 71  1  0  0  0  0
 63 66  1  0  0  0  0
M  CHG  1  75   1
M  ISO  4  36 100  58 101  72 100  82 101
M  END
> <Batch ID>
0197

> <Smiles>
CNC(C)C(=O)NC(C(=O)N1Cc2cc([101O:1][101CH2:1]CC(C)Nc3nc([100NH:0][100C:0](=O)N4CCCC(n5nc(-c6ccc(Oc7ccc(F)cc7F)cc6)c(C(N)=O)c5N)C4)nc(C)c3C)ccc2CC1C(=O)NC1CCCc2ccccc21)C(C)(C)C

> <Shape>
0.270

> <Color>
0.092

> <Negative vol penalty>
0.000

$$$$

  -OEChem-04052305413D

 83 91  0     1  0  0  0  0  0999 V2000
  -22.7112  -26.8617   24.7269 C   0  0  0  0  0  0  0  0  0  0  0  0
  -22.7234  -25.4762   24.6022 C   0  0  0  0  0  0  0  0  0  0  0  0
  -30.0202  -23.7037   19.1642 C   0  0  0  0  0  0  0  0  0  0  0  0
  -28.8937  -23.7975   21.2994 C   0  0  0  0  0  0  0  0  0  0  0  0
  -21.9483  -27.6326   23.8507 C   0  0  0  0  0  0  0  0  0  0  0  0
  -21.9718  -24.8606   23.6019 C   0  0  0  0  0  0  0  0  0  0  0  0
  -23.4399  -19.8001   20.4807 C   0  0  0  0  0  0  0  0  0  0  0  0
  -29.6950  -25.0404   18.9339 C   0  0  0  0  0  0  0  0  0  0  0  0
  -28.5684  -25.1343   21.0691 C   0  0  0  0  0  0  0  0  0  0  0  0
  -23.0636  -18.4656   20.6269 C   0  0  0  0  0  0  0  0  0  0  0  0
  -26.2832  -26.8698   19.2812 C   0  0  0  0  0  0  0  0  0  0  0  0
  -24.9791  -27.2771   19.5621 C   0  0  0  0  0  0  0  0  0  0  0  0
  -21.3448  -18.7742   18.9627 C   0  0  0  0  0  0  0  0  0  0  0  0
  -25.8235  -28.8751   21.1654 C   0  0  0  0  0  0  0  0  0  0  0  0
  -23.0845  -11.8375   19.4213 C   0  0  0  0  0  0  0  0  0  0  0  0
  -29.6195  -23.0823   20.3470 C   0  0  0  0  0  0  0  0  0  0  0  0
  -31.1102  -21.2038   21.2170 C   0  0  0  0  0  0  0  0  0  0  0  0
  -21.1946  -27.0268   22.8331 C   0  0  0  0  0  0  0  0  0  0  0  0
  -22.7632  -20.6359   19.5808 C   0  0  0  0  0  0  0  0  0  0  0  0
  -21.1970  -25.6241   22.7121 C   0  0  0  0  0  0  0  0  0  0  0  0
  -21.7161  -20.1182   18.8051 C   0  0  0  0  0  0  0  0  0  0  0  0
  -24.0897  -12.4940   20.1017 C   0  0  0  0  0  0  0  0  0  0  0  0
  -28.9691  -25.7557   19.8863 C   0  0  0  0  0  0  0  0  0  0  0  0
  -22.0141  -17.9532   19.8700 C   0  0  0  0  0  0  0  0  0  0  0  0
  -27.3575  -27.4651   19.9425 C   0  0  0  0  0  0  0  0  0  0  0  0
  -24.7492  -28.2798   20.5041 C   0  0  0  0  0  0  0  0  0  0  0  0
  -27.1277  -28.4677   20.8845 C   0  0  0  0  0  0  0  0  0  0  0  0
  -29.9547  -21.7013   20.5853 C   0  0  0  0  0  0  0  0  0  0  0  0
  -23.7181  -13.6630   20.7338 C   0  0  0  0  0  0  0  0  0  0  0  0
  -30.9532  -19.8395   21.1950 C   0  0  0  0  0  0  0  0  0  0  0  0
  -21.5746  -13.4302   20.0137 C   0  0  0  0  0  0  0  0  0  0  0  0
  -32.2258  -21.9117   21.7740 C   0  0  0  0  0  0  0  0  0  0  0  0
  -21.0395  -23.2931   19.8495 C   0  0  0  0  0  0  0  0  0  0  0  0
  -21.0817  -23.1838   16.6078 C   0  0  0  0  0  0  0  0  0  0  0  0
  -21.4078  -21.3070   13.7762 C   0  0  0  0  0  0  0  0  0  0  0  0
  -26.1318  -16.4380   20.9957 C   0  0  0  0  0  0  0  0  0  0  0  0
  -20.3482  -27.8986   21.9396 C   0  0  0  0  0  0  0  0  0  0  0  0
  -23.1986  -22.0661   19.4154 C   0  0  0  0  0  0  0  0  0  0  0  0
  -20.9707  -20.9686   17.8103 C   0  0  0  0  0  0  0  0  0  0  0  0
  -19.8751  -27.1932   20.6713 C   0  0  0  0  0  0  0  0  0  0  0  0
  -28.8895  -16.3481   18.6537 C   0  0  0  0  0  0  0  0  0  0  0  0
  -19.3288  -25.8081   21.0029 C   0  0  0  0  0  0  0  0  0  0  0  0
  -29.5857  -17.6770   18.9525 C   0  0  0  0  0  0  0  0  0  0  0  0
  -27.3727  -16.4850   18.7484 C   0  0  0  0  0  0  0  0  0  0  0  0
  -27.5768  -18.3457   20.3514 C   0  0  0  0  0  0  0  0  0  0  0  0
  -20.4144  -24.9211   21.6243 C   0  0  1  0  0  0  0  0  0  0  0  0
  -22.1043  -22.9615   18.8426 C   0  0  1  0  0  0  0  0  0  0  0  0
  -29.1133  -18.2679   20.2941 C   0  0  2  0  0  0  0  0  0  0  0  0
  -21.3570  -21.4913   11.2741 C   0  0  0  0  0  0  0  0  0  0  0  0
  -18.3473  -15.0915   20.8178 C   0  0  0  0  0  0  0  0  0  0  0  0
  -18.0376  -23.3779   16.6864 C   0  0  0  0  0  0  0  0  0  0  0  0
  -17.9968  -22.6112   14.3034 C   0  0  0  0  0  0  0  0  0  0  0  0
  -19.1250  -24.7537   14.9033 C   0  0  0  0  0  0  0  0  0  0  0  0
  -24.2060  -20.3740   13.5347 C   0  0  0  0  0  0  0  0  0  0  0  0
  -24.7201  -14.4612   21.5020 C   0  0  0  0  0  0  0  0  0  0  0  0
  -20.2723  -16.3366   19.7773 C   0  0  0  0  0  0  0  0  0  1  0  0
  -20.2060  -22.5609   15.5476 C   0  0  1  0  0  0  0  0  0  0  0  0
  -22.2312  -21.5165   12.5182 C   0  0  2  0  0  0  0  0  0  0  0  0
  -19.8572  -15.1346   20.6229 C   0  0  2  0  0  0  0  0  0  0  0  0
  -18.8539  -23.3101   15.3802 C   0  0  0  0  0  0  0  0  0  0  0  0
  -21.8112  -12.2789   19.3563 N   0  0  0  0  0  0  0  0  0  0  0  0
  -29.1249  -20.7319   20.1906 N   0  0  0  0  0  0  0  0  0  0  0  0
  -22.4649  -14.1622   20.7102 N   0  0  0  0  0  0  0  0  0  0  0  0
  -29.7598  -19.6116   20.5753 N   0  0  0  0  0  0  0  0  0  0  0  0
  -21.4297  -22.3623   17.6894 N   0  0  0  0  0  0  0  0  0  0  0  0
  -26.9882  -17.0352   20.0559 N   0  0  0  0  0  0  0  0  0  0  0  0
  -25.3952  -11.9898   20.1370 N   0  0  0  0  0  0  0  0  0  0  0  0
  -31.7209  -18.8246   21.6455 N   0  0  0  0  0  0  0  0  0  0  0  0
  -32.2269  -23.3118   21.7122 N   0  0  0  0  0  0  0  0  0  0  0  0
  -20.2795  -13.9123   19.9687 N   0  0  0  0  0  0  0  0  0  0  0  0
  -21.3068  -24.4221   20.6000 N   0  0  0  0  0  0  0  0  0  0  0  0
  -21.0124  -22.5048   14.3332 N   0  0  0  0  0  0  0  0  0  0  0  0
  -25.6112  -15.2009   20.6361 N   0  0  0  0  0  0  0  0  0  0  0  0
  -23.2621  -20.4480   12.3899 N   0  3  0  0  0  0  0  0  0  0  0  0
  -33.2007  -21.3194   22.2959 O   0  0  0  0  0  0  0  0  0  0  0  0
  -20.0480  -22.5784   19.9379 O   0  0  0  0  0  0  0  0  0  0  0  0
  -21.4495  -24.3541   16.4775 O   0  0  0  0  0  0  0  0  0  0  0  0
  -21.1389  -20.1923   14.2184 O   0  0  0  0  0  0  0  0  0  0  0  0
  -25.8557  -16.9658   22.0784 O   0  0  0  0  0  0  0  0  0  0  0  0
  -28.6517  -27.0601   19.6619 O   0  0  0  0  0  0  0  0  0  0  0  0
  -21.6444  -16.6512   20.0112 O   0  0  0  0  0  0  0  0  0  1  0  0
  -23.4969  -28.6719   20.7726 F   0  0  0  0  0  0  0  0  0  0  0  0
  -28.1558  -29.0441   21.5221 F   0  0  0  0  0  0  0  0  0  0  0  0
  1  2  1  0  0  0  0
  1  5  2  0  0  0  0
  2  6  2  0  0  0  0
  3  8  2  0  0  0  0
  3 16  1  0  0  0  0
  4  9  1  0  0  0  0
  4 16  2  0  0  0  0
  5 18  1  0  0  0  0
  6 20  1  0  0  0  0
  7 10  2  0  0  0  0
  7 19  1  0  0  0  0
  8 23  1  0  0  0  0
  9 23  2  0  0  0  0
 10 24  1  0  0  0  0
 11 12  2  0  0  0  0
 11 25  1  0  0  0  0
 12 26  1  0  0  0  0
 13 21  1  0  0  0  0
 13 24  2  0  0  0  0
 14 26  2  0  0  0  0
 14 27  1  0  0  0  0
 15 22  1  0  0  0  0
 15 61  2  0  0  0  0
 16 28  1  0  0  0  0
 17 28  1  0  0  0  0
 17 30  2  0  0  0  0
 17 32  1  0  0  0  0
 18 20  2  0  0  0  0
 18 37  1  0  0  0  0
 19 21  2  0  0  0  0
 19 38  1  0  0  0  0
 20 46  1  0  0  0  0
 21 39  1  0  0  0  0
 22 29  2  0  0  0  0
 22 67  1  0  0  0  0
 23 80  1  0  0  0  0
 24 81  1  0  0  0  0
 25 27  2  0  0  0  0
 25 80  1  0  0  0  0
 26 82  1  0  0  0  0
 27 83  1  0  0  0  0
 28 62  2  0  0  0  0
 29 55  1  0  0  0  0
 29 63  1  0  0  0  0
 30 64  1  0  0  0  0
 30 68  1  0  0  0  0
 31 61  1  0  0  0  0
 31 63  2  0  0  0  0
 31 70  1  0  0  0  0
 32 69  1  0  0  0  0
 32 75  2  0  0  0  0
 33 47  1  0  0  0  0
 33 71  1  0  0  0  0
 33 76  2  0  0  0  0
 34 57  1  0  0  0  0
 34 65  1  0  0  0  0
 34 77  2  0  0  0  0
 35 58  1  0  0  0  0
 35 72  1  0  0  0  0
 35 78  2  0  0  0  0
 36 66  1  0  0  0  0
 36 73  1  0  0  0  0
 36 79  2  0  0  0  0
 37 40  1  0  0  0  0
 38 47  1  0  0  0  0
 39 65  1  0  0  0  0
 40 42  1  0  0  0  0
 41 43  1  0  0  0  0
 41 44  1  0  0  0  0
 42 46  1  0  0  0  0
 43 48  1  0  0  0  0
 44 66  1  0  0  0  0
 45 48  1  0  0  0  0
 45 66  1  0  0  0  0
 46 71  1  0  0  0  0
 47 65  1  0  0  0  0
 48 64  1  0  0  0  0
 49 58  1  0  0  0  0
 50 59  1  0  0  0  0
 51 60  1  0  0  0  0
 52 60  1  0  0  0  0
 53 60  1  0  0  0  0
 54 74  1  0  0  0  0
 55 73  1  0  0  0  0
 56 59  1  0  0  0  0
 56 81  1  0  0  0  0
 57 60  1  0  0  0  0
 57 72  1  0  0  0  0
 58 74  1  0  0  0  0
 59 70  1  0  0  0  0
 62 64  1  0  0  0  0
M  CHG  1  74   1
M  ISO  4  36 100  56 101  73 100  81 101
M  END
> <Batch ID>
0197

> <Smiles>
CNC(C)C(=O)NC(C(=O)N1Cc2cc([101O:1][101CH2:1]C(C)Nc3ncc(N)c(C[100NH:0][100C:0](=O)N4CCCC(n5nc(-c6ccc(Oc7ccc(F)cc7F)cc6)c(C(N)=O)c5N)C4)n3)ccc2CC1C(=O)NC1CCCc2ccccc21)C(C)(C)C

> <Shape>
0.184

> <Color>
0.089

> <Negative vol penalty>
0.000

$$$$

  -OEChem-04052305413D

 81 89  0     1  0  0  0  0  0999 V2000
  -21.4908  -12.3191   20.4746 C   0  0  0  0  0  0  0  0  0  0  0  0
  -21.6625  -13.3167   21.4289 C   0  0  0  0  0  0  0  0  0  0  0  0
  -25.0323  -28.6227   19.2812 C   0  0  0  0  0  0  0  0  0  0  0  0
  -25.9438  -27.2145   21.0199 C   0  0  0  0  0  0  0  0  0  0  0  0
  -22.5979  -11.7952   19.8085 C   0  0  0  0  0  0  0  0  0  0  0  0
  -22.9418  -13.7902   21.7185 C   0  0  0  0  0  0  0  0  0  0  0  0
  -23.1219  -18.8423   22.0169 C   0  0  0  0  0  0  0  0  0  0  0  0
  -26.2580  -29.2792   19.1703 C   0  0  0  0  0  0  0  0  0  0  0  0
  -27.1696  -27.8710   20.9090 C   0  0  0  0  0  0  0  0  0  0  0  0
  -22.6474  -19.4281   23.1896 C   0  0  0  0  0  0  0  0  0  0  0  0
  -29.8442  -27.8172   18.8440 C   0  0  0  0  0  0  0  0  0  0  0  0
  -30.9975  -27.0332   18.8178 C   0  0  0  0  0  0  0  0  0  0  0  0
  -24.9141  -19.6700   23.9787 C   0  0  0  0  0  0  0  0  0  0  0  0
  -31.8001  -28.1475   20.8056 C   0  0  0  0  0  0  0  0  0  0  0  0
  -24.8752  -27.5904   20.2060 C   0  0  0  0  0  0  0  0  0  0  0  0
  -23.1898  -25.7688   19.6155 C   0  0  0  0  0  0  0  0  0  0  0  0
  -23.8904  -12.2693   20.0831 C   0  0  0  0  0  0  0  0  0  0  0  0
  -24.4978  -18.6556   21.8206 C   0  0  0  0  0  0  0  0  0  0  0  0
  -24.0674  -13.2712   21.0564 C   0  0  0  0  0  0  0  0  0  0  0  0
  -25.4037  -19.0839   22.8015 C   0  0  0  0  0  0  0  0  0  0  0  0
  -27.3266  -28.9033   19.9841 C   0  0  0  0  0  0  0  0  0  0  0  0
  -23.5434  -19.8395   24.1720 C   0  0  0  0  0  0  0  0  0  0  0  0
  -29.6688  -28.7665   19.8509 C   0  0  0  0  0  0  0  0  0  0  0  0
  -31.9754  -27.1983   19.7986 C   0  0  0  0  0  0  0  0  0  0  0  0
  -30.6467  -28.9316   20.8317 C   0  0  0  0  0  0  0  0  0  0  0  0
  -23.6091  -26.9122   20.3215 C   0  0  0  0  0  0  0  0  0  0  0  0
  -21.9217  -25.5229   20.0823 C   0  0  0  0  0  0  0  0  0  0  0  0
  -20.6136  -24.0919   27.0950 C   0  0  0  0  0  0  0  0  0  0  0  0
  -21.7347  -22.3942   27.4697 C   0  0  0  0  0  0  0  0  0  0  0  0
  -23.8845  -24.9977   18.6263 C   0  0  0  0  0  0  0  0  0  0  0  0
  -26.3824  -16.1294   21.4082 C   0  0  0  0  0  0  0  0  0  0  0  0
  -28.6504  -18.3926   20.9018 C   0  0  0  0  0  0  0  0  0  0  0  0
  -29.7088  -21.5975   21.4068 C   0  0  0  0  0  0  0  0  0  0  0  0
  -19.1307  -26.8683   25.2060 C   0  0  0  0  0  0  0  0  0  0  0  0
  -25.0613  -11.6390   19.3715 C   0  0  0  0  0  0  0  0  0  0  0  0
  -24.9951  -18.0464   20.5385 C   0  0  0  0  0  0  0  0  0  0  0  0
  -26.8916  -18.9246   22.6306 C   0  0  0  0  0  0  0  0  0  0  0  0
  -26.3454  -12.4588   19.4673 C   0  0  0  0  0  0  0  0  0  0  0  0
  -18.1072  -27.7561   21.9134 C   0  0  0  0  0  0  0  0  0  0  0  0
  -26.5773  -12.9219   20.9020 C   0  0  0  0  0  0  0  0  0  0  0  0
  -19.3633  -27.5373   21.0684 C   0  0  0  0  0  0  0  0  0  0  0  0
  -18.4472  -28.2964   23.3007 C   0  0  0  0  0  0  0  0  0  0  0  0
  -20.6898  -27.2787   23.2066 C   0  0  0  0  0  0  0  0  0  0  0  0
  -25.4366  -13.8282   21.3804 C   0  0  1  0  0  0  0  0  0  0  0  0
  -26.3876  -17.4366   20.6673 C   0  0  1  0  0  0  0  0  0  0  0  0
  -20.4018  -26.6817   21.8185 C   0  0  2  0  0  0  0  0  0  0  0  0
  -31.6201  -23.1434   20.9025 C   0  0  0  0  0  0  0  0  0  0  0  0
  -23.6222  -19.5324   28.9083 C   0  0  0  0  0  0  0  0  0  0  0  0
  -30.3311  -17.0080   23.0391 C   0  0  0  0  0  0  0  0  0  0  0  0
  -31.7424  -19.0720   23.1674 C   0  0  0  0  0  0  0  0  0  0  0  0
  -31.6175  -17.7790   21.0378 C   0  0  0  0  0  0  0  0  0  0  0  0
  -27.9616  -23.4556   19.9055 C   0  0  0  0  0  0  0  0  0  0  0  0
  -19.9520  -25.4022   27.0322 C   0  0  0  0  0  0  0  0  0  0  0  0
  -23.8618  -20.2191   26.4981 C   0  0  0  0  0  0  0  0  0  1  0  0
  -29.6231  -19.1459   21.7766 C   0  0  1  0  0  0  0  0  0  0  0  0
  -30.2587  -22.6394   20.4494 C   0  0  2  0  0  0  0  0  0  0  0  0
  -22.9609  -20.2369   27.7311 C   0  0  2  0  0  0  0  0  0  0  0  0
  -30.8004  -18.2526   22.2596 C   0  0  0  0  0  0  0  0  0  0  0  0
  -22.6825  -27.3618   21.1720 N   0  0  0  0  0  0  0  0  0  0  0  0
  -21.5502  -23.6732   27.9080 N   0  0  0  0  0  0  0  0  0  0  0  0
  -20.9680  -22.0157   26.4427 N   0  0  0  0  0  0  0  0  0  0  0  0
  -21.6683  -26.4963   21.0034 N   0  0  0  0  0  0  0  0  0  0  0  0
  -27.3283  -18.3176   21.3624 N   0  0  0  0  0  0  0  0  0  0  0  0
  -19.4356  -27.4387   23.9591 N   0  0  0  0  0  0  0  0  0  0  0  0
  -21.0098  -24.5712   19.7906 N   0  0  0  0  0  0  0  0  0  0  0  0
  -25.1803  -25.3890   18.2628 N   0  0  0  0  0  0  0  0  0  0  0  0
  -22.6780  -21.6081   28.1054 N   0  0  0  0  0  0  0  0  0  0  0  0
  -25.5847  -15.1593   20.8320 N   0  0  0  0  0  0  0  0  0  0  0  0
  -30.0367  -20.3177   21.0122 N   0  0  0  0  0  0  0  0  0  0  0  0
  -20.1202  -26.0636   25.7574 N   0  0  0  0  0  0  0  0  0  0  0  0
  -29.3319  -23.8031   20.3622 N   0  3  0  0  0  0  0  0  0  0  0  0
  -23.3650  -24.0012   18.0688 O   0  0  0  0  0  0  0  0  0  0  0  0
  -27.0538  -16.0093   22.4263 O   0  0  0  0  0  0  0  0  0  0  0  0
  -29.0475  -17.8953   19.8451 O   0  0  0  0  0  0  0  0  0  0  0  0
  -29.0569  -21.8900   22.4068 O   0  0  0  0  0  0  0  0  0  0  0  0
  -18.0542  -27.0576   25.7824 O   0  0  0  0  0  0  0  0  0  0  0  0
  -20.2083  -23.1645   26.1883 O   0  0  0  0  0  0  0  0  0  0  0  0
  -28.5229  -29.5436   19.8760 O   0  0  0  0  0  0  0  0  0  0  0  0
  -23.0828  -20.4111   25.3179 O   0  0  0  0  0  0  0  0  0  1  0  0
  -33.0822  -26.4442   19.7742 F   0  0  0  0  0  0  0  0  0  0  0  0
  -30.4833  -29.8410   21.8023 F   0  0  0  0  0  0  0  0  0  0  0  0
  1  2  1  0  0  0  0
  1  5  2  0  0  0  0
  2  6  2  0  0  0  0
  3  8  2  0  0  0  0
  3 15  1  0  0  0  0
  4  9  1  0  0  0  0
  4 15  2  0  0  0  0
  5 17  1  0  0  0  0
  6 19  1  0  0  0  0
  7 10  2  0  0  0  0
  7 18  1  0  0  0  0
  8 21  1  0  0  0  0
  9 21  2  0  0  0  0
 10 22  1  0  0  0  0
 11 12  2  0  0  0  0
 11 23  1  0  0  0  0
 12 24  1  0  0  0  0
 13 20  1  0  0  0  0
 13 22  2  0  0  0  0
 14 24  2  0  0  0  0
 14 25  1  0  0  0  0
 15 26  1  0  0  0  0
 16 26  1  0  0  0  0
 16 27  2  0  0  0  0
 16 30  1  0  0  0  0
 17 19  2  0  0  0  0
 17 35  1  0  0  0  0
 18 20  2  0  0  0  0
 18 36  1  0  0  0  0
 19 44  1  0  0  0  0
 20 37  1  0  0  0  0
 21 78  1  0  0  0  0
 22 79  1  0  0  0  0
 23 25  2  0  0  0  0
 23 78  1  0  0  0  0
 24 80  1  0  0  0  0
 25 81  1  0  0  0  0
 26 59  2  0  0  0  0
 27 62  1  0  0  0  0
 27 65  1  0  0  0  0
 28 53  1  0  0  0  0
 28 60  2  0  0  0  0
 28 77  1  0  0  0  0
 29 60  1  0  0  0  0
 29 61  2  0  0  0  0
 29 67  1  0  0  0  0
 30 66  1  0  0  0  0
 30 72  2  0  0  0  0
 31 45  1  0  0  0  0
 31 68  1  0  0  0  0
 31 73  2  0  0  0  0
 32 55  1  0  0  0  0
 32 63  1  0  0  0  0
 32 74  2  0  0  0  0
 33 56  1  0  0  0  0
 33 69  1  0  0  0  0
 33 75  2  0  0  0  0
 34 64  1  0  0  0  0
 34 70  1  0  0  0  0
 34 76  2  0  0  0  0
 35 38  1  0  0  0  0
 36 45  1  0  0  0  0
 37 63  1  0  0  0  0
 38 40  1  0  0  0  0
 39 41  1  0  0  0  0
 39 42  1  0  0  0  0
 40 44  1  0  0  0  0
 41 46  1  0  0  0  0
 42 64  1  0  0  0  0
 43 46  1  0  0  0  0
 43 64  1  0  0  0  0
 44 68  1  0  0  0  0
 45 63  1  0  0  0  0
 46 62  1  0  0  0  0
 47 56  1  0  0  0  0
 48 57  1  0  0  0  0
 49 58  1  0  0  0  0
 50 58  1  0  0  0  0
 51 58  1  0  0  0  0
 52 71  1  0  0  0  0
 53 70  1  0  0  0  0
 54 57  1  0  0  0  0
 54 79  1  0  0  0  0
 55 58  1  0  0  0  0
 55 69  1  0  0  0  0
 56 71  1  0  0  0  0
 57 67  1  0  0  0  0
 59 62  1  0  0  0  0
 61 77  1  0  0  0  0
M  CHG  1  71   1
M  ISO  4  34 100  54 101  70 100  79 101
M  END
> <Batch ID>
0197

> <Smiles>
CNC(C)C(=O)NC(C(=O)N1Cc2cc([101O:1][101CH2:1]C(C)Nc3noc(C[100NH:0][100C:0](=O)N4CCCC(n5nc(-c6ccc(Oc7ccc(F)cc7F)cc6)c(C(N)=O)c5N)C4)n3)ccc2CC1C(=O)NC1CCCc2ccccc21)C(C)(C)C

> <Shape>
0.200

> <Color>
0.073

> <Negative vol penalty>
0.000

$$$$

  -OEChem-04052305413D

 82 90  0     1  0  0  0  0  0999 V2000
  -28.2233  -25.9999   33.3482 C   0  0  0  0  0  0  0  0  0  0  0  0
  -28.8850  -24.7761   33.3564 C   0  0  0  0  0  0  0  0  0  0  0  0
  -23.1897   -9.8193   19.9323 C   0  0  0  0  0  0  0  0  0  0  0  0
  -23.5702   -9.9994   22.3114 C   0  0  0  0  0  0  0  0  0  0  0  0
  -27.1118  -26.1844   32.5270 C   0  0  0  0  0  0  0  0  0  0  0  0
  -28.4349  -23.7359   32.5443 C   0  0  0  0  0  0  0  0  0  0  0  0
  -31.8639  -19.5088   29.7372 C   0  0  0  0  0  0  0  0  0  0  0  0
  -22.4237   -8.6725   20.1416 C   0  0  0  0  0  0  0  0  0  0  0  0
  -22.8041   -8.8526   22.5207 C   0  0  0  0  0  0  0  0  0  0  0  0
  -32.1852  -18.1925   30.0656 C   0  0  0  0  0  0  0  0  0  0  0  0
  -23.2053   -5.5060   22.2558 C   0  0  0  0  0  0  0  0  0  0  0  0
  -23.7045   -4.5446   23.1344 C   0  0  0  0  0  0  0  0  0  0  0  0
  -30.3902  -17.4092   28.6572 C   0  0  0  0  0  0  0  0  0  0  0  0
  -21.7492   -4.8043   24.5296 C   0  0  0  0  0  0  0  0  0  0  0  0
  -32.9151  -13.6131   25.4707 C   0  0  0  0  0  0  0  0  0  0  0  0
  -23.7630  -10.4827   21.0172 C   0  0  0  0  0  0  0  0  0  0  0  0
  -24.1013  -12.9994   20.7735 C   0  0  0  0  0  0  0  0  0  0  0  0
  -26.6536  -25.1490   31.6972 C   0  0  0  0  0  0  0  0  0  0  0  0
  -30.7945  -19.7861   28.8735 C   0  0  0  0  0  0  0  0  0  0  0  0
  -27.3153  -23.9063   31.7122 C   0  0  0  0  0  0  0  0  0  0  0  0
  -30.0589  -18.7298   28.3174 C   0  0  0  0  0  0  0  0  0  0  0  0
  -22.2309   -8.1892   21.4358 C   0  0  0  0  0  0  0  0  0  0  0  0
  -31.4466  -17.1426   29.5278 C   0  0  0  0  0  0  0  0  0  0  0  0
  -21.9780   -6.1167   22.5141 C   0  0  0  0  0  0  0  0  0  0  0  0
  -22.9765   -4.1937   24.2713 C   0  0  0  0  0  0  0  0  0  0  0  0
  -21.2500   -5.7657   23.6510 C   0  0  0  0  0  0  0  0  0  0  0  0
  -24.5548  -11.6670   20.8016 C   0  0  0  0  0  0  0  0  0  0  0  0
  -31.8911  -13.4279   26.3759 C   0  0  0  0  0  0  0  0  0  0  0  0
  -25.2322  -13.7422   20.5372 C   0  0  0  0  0  0  0  0  0  0  0  0
  -31.3220  -13.0779   24.0616 C   0  0  0  0  0  0  0  0  0  0  0  0
  -22.7762  -13.5192   20.9456 C   0  0  0  0  0  0  0  0  0  0  0  0
  -32.0028  -13.5863   27.8398 C   0  0  0  0  0  0  0  0  0  0  0  0
  -28.0417  -21.3524   29.1427 C   0  0  0  0  0  0  0  0  0  0  0  0
  -27.8482  -20.7719   25.9571 C   0  0  0  0  0  0  0  0  0  0  0  0
  -28.7831  -18.8427   23.3017 C   0  0  0  0  0  0  0  0  0  0  0  0
  -31.0377  -12.7818   21.5761 C   0  0  0  0  0  0  0  0  0  0  0  0
  -25.4193  -25.3804   30.8619 C   0  0  0  0  0  0  0  0  0  0  0  0
  -30.4775  -21.2103   28.5081 C   0  0  0  0  0  0  0  0  0  0  0  0
  -28.9143  -18.9733   27.3692 C   0  0  0  0  0  0  0  0  0  0  0  0
  -25.2322  -24.3485   29.7527 C   0  0  0  0  0  0  0  0  0  0  0  0
  -29.5222  -13.4639   18.4272 C   0  0  0  0  0  0  0  0  0  0  0  0
  -25.4453  -22.9383   30.2939 C   0  0  0  0  0  0  0  0  0  0  0  0
  -28.0344  -13.2077   18.6778 C   0  0  0  0  0  0  0  0  0  0  0  0
  -30.4041  -12.4788   19.1924 C   0  0  0  0  0  0  0  0  0  0  0  0
  -28.6459  -12.1369   20.8839 C   0  0  0  0  0  0  0  0  0  0  0  0
  -26.8722  -22.7617   30.8270 C   0  0  1  0  0  0  0  0  0  0  0  0
  -29.0432  -21.3978   28.0234 C   0  0  1  0  0  0  0  0  0  0  0  0
  -27.7193  -13.1455   20.1853 C   0  0  2  0  0  0  0  0  0  0  0  0
  -28.4325  -18.5907   20.8296 C   0  0  0  0  0  0  0  0  0  0  0  0
  -34.8696  -13.7590   30.0748 C   0  0  0  0  0  0  0  0  0  0  0  0
  -25.1014  -19.5481   26.4739 C   0  0  0  0  0  0  0  0  0  0  0  0
  -25.2242  -18.4887   24.2087 C   0  0  0  0  0  0  0  0  0  0  0  0
  -25.2392  -20.9739   24.4239 C   0  0  0  0  0  0  0  0  0  0  0  0
  -31.6539  -19.2824   22.7323 C   0  0  0  0  0  0  0  0  0  0  0  0
  -33.1243  -15.5742   30.1455 C   0  0  0  0  0  0  0  0  0  1  0  0
  -27.2879  -19.6585   25.1054 C   0  0  1  0  0  0  0  0  0  0  0  0
  -29.2931  -19.2100   21.9198 C   0  0  2  0  0  0  0  0  0  0  0  0
  -33.4229  -14.1249   29.7866 C   0  0  1  0  0  0  0  0  0  0  0  0
  -25.7335  -19.6624   25.0723 C   0  0  0  0  0  0  0  0  0  0  0  0
  -32.5907  -13.4125   24.1432 N   0  0  0  0  0  0  0  0  0  0  0  0
  -25.8712  -11.5661   20.5992 N   0  0  0  0  0  0  0  0  0  0  0  0
  -26.2545  -12.8445   20.4416 N   0  0  0  0  0  0  0  0  0  0  0  0
  -28.6392  -20.3835   27.0476 N   0  0  0  0  0  0  0  0  0  0  0  0
  -30.0517  -12.4771   20.6139 N   0  0  0  0  0  0  0  0  0  0  0  0
  -25.4419  -15.0691   20.4040 N   0  0  0  0  0  0  0  0  0  0  0  0
  -21.7298  -12.6168   21.1805 N   0  0  0  0  0  0  0  0  0  0  0  0
  -30.9153  -13.3701   28.5798 N   0  0  0  0  0  0  0  0  0  0  0  0
  -30.5781  -12.7813   22.8927 N   0  0  0  0  0  0  0  0  0  0  0  0
  -27.8015  -22.5786   29.7327 N   0  0  0  0  0  0  0  0  0  0  0  0
  -27.9138  -19.7929   23.7944 N   0  0  0  0  0  0  0  0  0  0  0  0
  -33.1864  -13.9402   28.3474 N   0  3  0  0  0  0  0  0  0  0  0  0
  -30.6936  -18.7330   21.7409 N   0  3  0  0  0  0  0  0  0  0  0  0
  -22.5248  -14.7462   20.8763 O   0  0  0  0  0  0  0  0  0  0  0  0
  -27.5241  -20.2842   29.4473 O   0  0  0  0  0  0  0  0  0  0  0  0
  -27.5993  -21.9433   25.6614 O   0  0  0  0  0  0  0  0  0  0  0  0
  -29.1192  -17.8139   23.8840 O   0  0  0  0  0  0  0  0  0  0  0  0
  -32.1974  -13.0521   21.2537 O   0  0  0  0  0  0  0  0  0  0  0  0
  -21.4833   -7.0704   21.6404 O   0  0  0  0  0  0  0  0  0  0  0  0
  -31.7577  -15.8569   29.8472 O   0  0  0  0  0  0  0  0  0  1  0  0
  -23.4554   -3.2694   25.1142 F   0  0  0  0  0  0  0  0  0  0  0  0
  -20.0698   -6.3480   23.9038 F   0  0  0  0  0  0  0  0  0  0  0  0
  -30.4590  -12.9863   25.5421 S   0  0  0  0  0  0  0  0  0  0  0  0
  1  2  1  0  0  0  0
  1  5  2  0  0  0  0
  2  6  2  0  0  0  0
  3  8  2  0  0  0  0
  3 16  1  0  0  0  0
  4  9  1  0  0  0  0
  4 16  2  0  0  0  0
  5 18  1  0  0  0  0
  6 20  1  0  0  0  0
  7 10  2  0  0  0  0
  7 19  1  0  0  0  0
  8 22  1  0  0  0  0
  9 22  2  0  0  0  0
 10 23  1  0  0  0  0
 11 12  2  0  0  0  0
 11 24  1  0  0  0  0
 12 25  1  0  0  0  0
 13 21  1  0  0  0  0
 13 23  2  0  0  0  0
 14 25  2  0  0  0  0
 14 26  1  0  0  0  0
 15 28  2  0  0  0  0
 15 60  1  0  0  0  0
 16 27  1  0  0  0  0
 17 27  1  0  0  0  0
 17 29  2  0  0  0  0
 17 31  1  0  0  0  0
 18 20  2  0  0  0  0
 18 37  1  0  0  0  0
 19 21  2  0  0  0  0
 19 38  1  0  0  0  0
 20 46  1  0  0  0  0
 21 39  1  0  0  0  0
 22 78  1  0  0  0  0
 23 79  1  0  0  0  0
 24 26  2  0  0  0  0
 24 78  1  0  0  0  0
 25 80  1  0  0  0  0
 26 81  1  0  0  0  0
 27 61  2  0  0  0  0
 28 32  1  0  0  0  0
 28 82  1  0  0  0  0
 29 62  1  0  0  0  0
 29 65  1  0  0  0  0
 30 60  2  0  0  0  0
 30 68  1  0  0  0  0
 30 82  1  0  0  0  0
 31 66  1  0  0  0  0
 31 73  2  0  0  0  0
 32 67  1  0  0  0  0
 32 71  2  0  0  0  0
 33 47  1  0  0  0  0
 33 69  1  0  0  0  0
 33 74  2  0  0  0  0
 34 56  1  0  0  0  0
 34 63  1  0  0  0  0
 34 75  2  0  0  0  0
 35 57  1  0  0  0  0
 35 70  1  0  0  0  0
 35 76  2  0  0  0  0
 36 64  1  0  0  0  0
 36 68  1  0  0  0  0
 36 77  2  0  0  0  0
 37 40  1  0  0  0  0
 38 47  1  0  0  0  0
 39 63  1  0  0  0  0
 40 42  1  0  0  0  0
 41 43  1  0  0  0  0
 41 44  1  0  0  0  0
 42 46  1  0  0  0  0
 43 48  1  0  0  0  0
 44 64  1  0  0  0  0
 45 48  1  0  0  0  0
 45 64  1  0  0  0  0
 46 69  1  0  0  0  0
 47 63  1  0  0  0  0
 48 62  1  0  0  0  0
 49 57  1  0  0  0  0
 50 58  1  0  0  0  0
 51 59  1  0  0  0  0
 52 59  1  0  0  0  0
 53 59  1  0  0  0  0
 54 72  1  0  0  0  0
 55 58  1  0  0  0  0
 55 79  1  0  0  0  0
 56 59  1  0  0  0  0
 56 70  1  0  0  0  0
 57 72  1  0  0  0  0
 58 71  1  0  0  0  0
 61 62  1  0  0  0  0
M  CHG  2  71   1  72   1
M  ISO  4  36 100  55 101  68 100  79 101
M  END
> <Batch ID>
0197

> <Smiles>
CNC(C)C(=O)NC(C(=O)N1Cc2cc([101O:1][101CH2:1]C(C)NC(=N)c3cnc([100NH:0][100C:0](=O)N4CCCC(n5nc(-c6ccc(Oc7ccc(F)cc7F)cc6)c(C(N)=O)c5N)C4)s3)ccc2CC1C(=O)NC1CCCc2ccccc21)C(C)(C)C

> <Shape>
0.157

> <Color>
0.175

> <Negative vol penalty>
0.000

$$$$

  -OEChem-04052305413D

 83 91  0     1  0  0  0  0  0999 V2000
  -29.3604  -35.9173   25.8856 C   0  0  0  0  0  0  0  0  0  0  0  0
  -29.7782  -35.1455   24.8061 C   0  0  0  0  0  0  0  0  0  0  0  0
  -22.2332  -10.2028   20.5825 C   0  0  0  0  0  0  0  0  0  0  0  0
  -24.2104   -9.4397   21.7424 C   0  0  0  0  0  0  0  0  0  0  0  0
  -28.4027  -35.4191   26.7679 C   0  0  0  0  0  0  0  0  0  0  0  0
  -29.2394  -33.8746   24.6090 C   0  0  0  0  0  0  0  0  0  0  0  0
  -27.4528  -29.3180   19.3781 C   0  0  0  0  0  0  0  0  0  0  0  0
  -21.7177   -8.9071   20.6088 C   0  0  0  0  0  0  0  0  0  0  0  0
  -23.6949   -8.1439   21.7687 C   0  0  0  0  0  0  0  0  0  0  0  0
  -27.6610  -27.9975   18.9823 C   0  0  0  0  0  0  0  0  0  0  0  0
  -22.7393   -4.7050   22.4608 C   0  0  0  0  0  0  0  0  0  0  0  0
  -22.8306   -3.9940   23.6574 C   0  0  0  0  0  0  0  0  0  0  0  0
  -25.9549  -27.2722   20.5258 C   0  0  0  0  0  0  0  0  0  0  0  0
  -27.7481  -20.2953   21.9299 C   0  0  0  0  0  0  0  0  0  0  0  0
  -21.5152   -5.6905   24.7658 C   0  0  0  0  0  0  0  0  0  0  0  0
  -29.0745  -20.7930   20.0195 C   0  0  0  0  0  0  0  0  0  0  0  0
  -23.4797  -10.4692   21.1493 C   0  0  0  0  0  0  0  0  0  0  0  0
  -23.8340  -12.8138   22.0899 C   0  0  0  0  0  0  0  0  0  0  0  0
  -27.8447  -34.1453   26.5760 C   0  0  0  0  0  0  0  0  0  0  0  0
  -26.5001  -29.6249   20.3603 C   0  0  0  0  0  0  0  0  0  0  0  0
  -28.2743  -33.3584   25.4904 C   0  0  0  0  0  0  0  0  0  0  0  0
  -25.7348  -28.5977   20.9305 C   0  0  0  0  0  0  0  0  0  0  0  0
  -28.1045  -21.1891   20.9262 C   0  0  0  0  0  0  0  0  0  0  0  0
  -28.3640  -19.0504   21.9954 C   0  0  0  0  0  0  0  0  0  0  0  0
  -22.4484   -7.8776   21.2019 C   0  0  0  0  0  0  0  0  0  0  0  0
  -26.9141  -26.9741   19.5582 C   0  0  0  0  0  0  0  0  0  0  0  0
  -22.0360   -5.9088   22.4168 C   0  0  0  0  0  0  0  0  0  0  0  0
  -22.2186   -4.4867   24.8099 C   0  0  0  0  0  0  0  0  0  0  0  0
  -21.4239   -6.4015   23.5693 C   0  0  0  0  0  0  0  0  0  0  0  0
  -24.0131  -11.8074   21.1220 C   0  0  0  0  0  0  0  0  0  0  0  0
  -29.3222  -18.7500   21.0408 C   0  0  0  0  0  0  0  0  0  0  0  0
  -24.5362  -13.8885   21.6017 C   0  0  0  0  0  0  0  0  0  0  0  0
  -23.0987  -12.7802   23.3203 C   0  0  0  0  0  0  0  0  0  0  0  0
  -26.6037  -30.9385   23.2529 C   0  0  0  0  0  0  0  0  0  0  0  0
  -23.3730  -30.7585   23.0237 C   0  0  0  0  0  0  0  0  0  0  0  0
  -27.7460  -23.4552   19.8916 C   0  0  0  0  0  0  0  0  0  0  0  0
  -20.6471  -29.2590   21.6208 C   0  0  0  0  0  0  0  0  0  0  0  0
  -29.0976  -16.0438   19.2155 C   0  0  0  0  0  0  0  0  0  0  0  0
  -26.8471  -33.6306   27.5832 C   0  0  0  0  0  0  0  0  0  0  0  0
  -26.2688  -31.0572   20.7570 C   0  0  0  0  0  0  0  0  0  0  0  0
  -24.6854  -28.8765   21.9743 C   0  0  0  0  0  0  0  0  0  0  0  0
  -26.0512  -32.4246   27.0906 C   0  0  0  0  0  0  0  0  0  0  0  0
  -26.6189  -14.6717   17.0591 C   0  0  0  0  0  0  0  0  0  0  0  0
  -26.9799  -31.3971   26.4514 C   0  0  0  0  0  0  0  0  0  0  0  0
  -25.7095  -13.8826   18.0026 C   0  0  0  0  0  0  0  0  0  0  0  0
  -28.0827  -14.5893   17.4861 C   0  0  0  0  0  0  0  0  0  0  0  0
  -27.4329  -14.1867   19.8290 C   0  0  0  0  0  0  0  0  0  0  0  0
  -27.6951  -31.9850   25.2289 C   0  0  1  0  0  0  0  0  0  0  0  0
  -25.6329  -31.2000   22.1363 C   0  0  1  0  0  0  0  0  0  0  0  0
  -25.9401  -14.2860   19.4714 C   0  0  2  0  0  0  0  0  0  0  0  0
  -18.1383  -29.3009   21.6587 C   0  0  0  0  0  0  0  0  0  0  0  0
  -23.3911  -29.2812   25.6934 C   0  0  0  0  0  0  0  0  0  0  0  0
  -21.0502  -28.5327   25.2157 C   0  0  0  0  0  0  0  0  0  0  0  0
  -21.5580  -30.9642   25.4448 C   0  0  0  0  0  0  0  0  0  0  0  0
  -20.5002  -29.9765   18.7533 C   0  0  0  0  0  0  0  0  0  0  0  0
  -30.0183  -17.4278   21.0583 C   0  0  0  0  0  0  0  0  0  0  0  0
  -26.8756  -24.6709   20.1498 C   0  0  0  0  0  0  0  0  0  1  0  0
  -22.3318  -29.7255   23.3811 C   0  0  1  0  0  0  0  0  0  0  0  0
  -19.3938  -29.8366   20.9883 C   0  0  2  0  0  0  0  0  0  0  0  0
  -22.1038  -29.6201   24.9155 C   0  0  0  0  0  0  0  0  0  0  0  0
  -29.6948  -19.5923   20.0511 N   0  0  0  0  0  0  0  0  0  0  0  0
  -24.7696  -12.2071   20.0964 N   0  0  0  0  0  0  0  0  0  0  0  0
  -25.0721  -13.4767   20.4171 N   0  0  0  0  0  0  0  0  0  0  0  0
  -24.5008  -30.2923   22.3334 N   0  0  0  0  0  0  0  0  0  0  0  0
  -28.2331  -14.9862   18.8881 N   0  0  0  0  0  0  0  0  0  0  0  0
  -28.0109  -18.1389   23.0067 N   0  0  0  0  0  0  0  0  0  0  0  0
  -24.7414  -15.1363   22.0745 N   0  0  0  0  0  0  0  0  0  0  0  0
  -22.4355  -11.5961   23.6702 N   0  0  0  0  0  0  0  0  0  0  0  0
  -27.4954  -22.4630   20.8333 N   0  0  0  0  0  0  0  0  0  0  0  0
  -26.8030  -32.0199   24.0898 N   0  0  0  0  0  0  0  0  0  0  0  0
  -21.1353  -30.0721   22.6217 N   0  0  0  0  0  0  0  0  0  0  0  0
  -29.1769  -16.3599   20.5662 N   0  0  0  0  0  0  0  0  0  0  0  0
  -19.3376  -29.4900   19.5399 N   0  3  0  0  0  0  0  0  0  0  0  0
  -23.0182  -13.7760   24.0788 O   0  0  0  0  0  0  0  0  0  0  0  0
  -27.1316  -29.8368   23.3490 O   0  0  0  0  0  0  0  0  0  0  0  0
  -23.1889  -31.9368   23.3388 O   0  0  0  0  0  0  0  0  0  0  0  0
  -28.5422  -23.4214   18.9591 O   0  0  0  0  0  0  0  0  0  0  0  0
  -21.1413  -28.1914   21.2652 O   0  0  0  0  0  0  0  0  0  0  0  0
  -29.7463  -16.6643   18.3663 O   0  0  0  0  0  0  0  0  0  0  0  0
  -21.9455   -6.6131   21.2279 O   0  0  0  0  0  0  0  0  0  0  0  0
  -27.1157  -25.6842   19.1741 O   0  0  0  0  0  0  0  0  0  1  0  0
  -22.3051   -3.8031   25.9585 F   0  0  0  0  0  0  0  0  0  0  0  0
  -20.7459   -7.5568   23.5328 F   0  0  0  0  0  0  0  0  0  0  0  0
  1  2  1  0  0  0  0
  1  5  2  0  0  0  0
  2  6  2  0  0  0  0
  3  8  2  0  0  0  0
  3 17  1  0  0  0  0
  4  9  1  0  0  0  0
  4 17  2  0  0  0  0
  5 19  1  0  0  0  0
  6 21  1  0  0  0  0
  7 10  2  0  0  0  0
  7 20  1  0  0  0  0
  8 25  1  0  0  0  0
  9 25  2  0  0  0  0
 10 26  1  0  0  0  0
 11 12  2  0  0  0  0
 11 27  1  0  0  0  0
 12 28  1  0  0  0  0
 13 22  1  0  0  0  0
 13 26  2  0  0  0  0
 14 23  2  0  0  0  0
 14 24  1  0  0  0  0
 15 28  2  0  0  0  0
 15 29  1  0  0  0  0
 16 23  1  0  0  0  0
 16 61  2  0  0  0  0
 17 30  1  0  0  0  0
 18 30  1  0  0  0  0
 18 32  2  0  0  0  0
 18 33  1  0  0  0  0
 19 21  2  0  0  0  0
 19 39  1  0  0  0  0
 20 22  2  0  0  0  0
 20 40  1  0  0  0  0
 21 48  1  0  0  0  0
 22 41  1  0  0  0  0
 23 69  1  0  0  0  0
 24 31  2  0  0  0  0
 24 66  1  0  0  0  0
 25 80  1  0  0  0  0
 26 81  1  0  0  0  0
 27 29  2  0  0  0  0
 27 80  1  0  0  0  0
 28 82  1  0  0  0  0
 29 83  1  0  0  0  0
 30 62  2  0  0  0  0
 31 56  1  0  0  0  0
 31 61  1  0  0  0  0
 32 63  1  0  0  0  0
 32 67  1  0  0  0  0
 33 68  1  0  0  0  0
 33 74  2  0  0  0  0
 34 49  1  0  0  0  0
 34 70  1  0  0  0  0
 34 75  2  0  0  0  0
 35 58  1  0  0  0  0
 35 64  1  0  0  0  0
 35 76  2  0  0  0  0
 36 57  1  0  0  0  0
 36 69  1  0  0  0  0
 36 77  2  0  0  0  0
 37 59  1  0  0  0  0
 37 71  1  0  0  0  0
 37 78  2  0  0  0  0
 38 65  1  0  0  0  0
 38 72  1  0  0  0  0
 38 79  2  0  0  0  0
 39 42  1  0  0  0  0
 40 49  1  0  0  0  0
 41 64  1  0  0  0  0
 42 44  1  0  0  0  0
 43 45  1  0  0  0  0
 43 46  1  0  0  0  0
 44 48  1  0  0  0  0
 45 50  1  0  0  0  0
 46 65  1  0  0  0  0
 47 50  1  0  0  0  0
 47 65  1  0  0  0  0
 48 70  1  0  0  0  0
 49 64  1  0  0  0  0
 50 63  1  0  0  0  0
 51 59  1  0  0  0  0
 52 60  1  0  0  0  0
 53 60  1  0  0  0  0
 54 60  1  0  0  0  0
 55 73  1  0  0  0  0
 56 72  1  0  0  0  0
 57 81  1  0  0  0  0
 58 60  1  0  0  0  0
 58 71  1  0  0  0  0
 59 73  1  0  0  0  0
 62 63  1  0  0  0  0
M  CHG  1  73   1
M  ISO  4  38 100  57 101  72 100  81 101
M  END
> <Batch ID>
0197

> <Smiles>
CNC(C)C(=O)NC(C(=O)N1Cc2cc([101O:1][101CH2:1]C(=O)Nc3cnc(C[100NH:0][100C:0](=O)N4CCCC(n5nc(-c6ccc(Oc7ccc(F)cc7F)cc6)c(C(N)=O)c5N)C4)c(N)c3)ccc2CC1C(=O)NC1CCCc2ccccc21)C(C)(C)C

> <Shape>
0.328

> <Color>
0.128

> <Negative vol penalty>
0.000

$$$$

  -OEChem-04052305413D

 83 91  0     1  0  0  0  0  0999 V2000
  -17.1771  -30.4908   21.2174 C   0  0  0  0  0  0  0  0  0  0  0  0
  -18.3985  -30.4813   20.5513 C   0  0  0  0  0  0  0  0  0  0  0  0
  -26.5820  -12.9024   21.7761 C   0  0  0  0  0  0  0  0  0  0  0  0
  -26.0072  -14.2514   19.8560 C   0  0  0  0  0  0  0  0  0  0  0  0
  -17.1277  -30.2201   22.5842 C   0  0  0  0  0  0  0  0  0  0  0  0
  -19.5713  -30.2020   21.2520 C   0  0  0  0  0  0  0  0  0  0  0  0
  -24.4819  -27.1983   19.1616 C   0  0  0  0  0  0  0  0  0  0  0  0
  -25.3118  -12.3266   21.7519 C   0  0  0  0  0  0  0  0  0  0  0  0
  -24.7369  -13.6756   19.8317 C   0  0  0  0  0  0  0  0  0  0  0  0
  -25.7050  -27.6371   18.6564 C   0  0  0  0  0  0  0  0  0  0  0  0
  -23.6941   -9.9351   19.9922 C   0  0  0  0  0  0  0  0  0  0  0  0
  -23.6067   -8.5512   20.1430 C   0  0  0  0  0  0  0  0  0  0  0  0
  -26.6961  -27.3688   20.8393 C   0  0  0  0  0  0  0  0  0  0  0  0
  -22.2564   -8.8523   22.1237 C   0  0  0  0  0  0  0  0  0  0  0  0
  -30.2734  -24.1115   19.8811 C   0  0  0  0  0  0  0  0  0  0  0  0
  -26.9297  -13.8648   20.8282 C   0  0  0  0  0  0  0  0  0  0  0  0
  -29.3949  -14.0044   20.1871 C   0  0  0  0  0  0  0  0  0  0  0  0
  -18.2993  -29.9278   23.3000 C   0  0  0  0  0  0  0  0  0  0  0  0
  -24.3538  -26.8513   20.5143 C   0  0  0  0  0  0  0  0  0  0  0  0
  -19.5376  -29.9284   22.6299 C   0  0  0  0  0  0  0  0  0  0  0  0
  -25.4709  -26.9235   21.3587 C   0  0  0  0  0  0  0  0  0  0  0  0
  -29.7093  -24.1352   18.6219 C   0  0  0  0  0  0  0  0  0  0  0  0
  -24.3892  -12.7132   20.7797 C   0  0  0  0  0  0  0  0  0  0  0  0
  -26.8116  -27.7252   19.4959 C   0  0  0  0  0  0  0  0  0  0  0  0
  -23.0627  -10.7777   20.9072 C   0  0  0  0  0  0  0  0  0  0  0  0
  -22.8878   -8.0098   21.2087 C   0  0  0  0  0  0  0  0  0  0  0  0
  -22.3438  -10.2363   21.9729 C   0  0  0  0  0  0  0  0  0  0  0  0
  -28.2415  -14.4604   20.8531 C   0  0  0  0  0  0  0  0  0  0  0  0
  -29.1320  -22.9535   18.2041 C   0  0  0  0  0  0  0  0  0  0  0  0
  -30.3697  -14.9092   20.5300 C   0  0  0  0  0  0  0  0  0  0  0  0
  -29.6849  -21.9336   20.1589 C   0  0  0  0  0  0  0  0  0  0  0  0
  -29.5695  -12.8648   19.3348 C   0  0  0  0  0  0  0  0  0  0  0  0
  -22.6351  -27.9404   22.9563 C   0  0  0  0  0  0  0  0  0  0  0  0
  -23.9054  -25.3784   24.4876 C   0  0  0  0  0  0  0  0  0  0  0  0
  -26.4241  -23.0854   24.6990 C   0  0  0  0  0  0  0  0  0  0  0  0
  -30.2068  -20.6294   22.2500 C   0  0  0  0  0  0  0  0  0  0  0  0
  -18.2015  -29.6880   24.7858 C   0  0  0  0  0  0  0  0  0  0  0  0
  -23.0341  -26.3544   21.0377 C   0  0  0  0  0  0  0  0  0  0  0  0
  -25.3909  -26.5434   22.8139 C   0  0  0  0  0  0  0  0  0  0  0  0
  -19.4456  -29.0330   25.3803 C   0  0  0  0  0  0  0  0  0  0  0  0
  -31.6281  -17.9047   24.0482 C   0  0  0  0  0  0  0  0  0  0  0  0
  -20.7070  -29.7255   24.8742 C   0  0  0  0  0  0  0  0  0  0  0  0
  -31.0307  -16.6706   23.3683 C   0  0  0  0  0  0  0  0  0  0  0  0
  -30.6229  -19.0524   24.1249 C   0  0  0  0  0  0  0  0  0  0  0  0
  -29.4050  -18.1869   22.1661 C   0  0  0  0  0  0  0  0  0  0  0  0
  -20.8287  -29.6055   23.3503 C   0  0  1  0  0  0  0  0  0  0  0  0
  -22.8907  -26.5173   22.5478 C   0  0  1  0  0  0  0  0  0  0  0  0
  -30.4009  -17.0264   22.0073 C   0  0  2  0  0  0  0  0  0  0  0  0
  -27.2070  -21.1406   26.0783 C   0  0  0  0  0  0  0  0  0  0  0  0
  -31.8526  -26.4182   18.1287 C   0  0  0  0  0  0  0  0  0  0  0  0
  -24.8470  -27.3020   26.6608 C   0  0  0  0  0  0  0  0  0  0  0  0
  -26.3922  -25.5103   27.4797 C   0  0  0  0  0  0  0  0  0  0  0  0
  -23.9258  -25.1379   27.5108 C   0  0  0  0  0  0  0  0  0  0  0  0
  -26.2635  -21.2365   22.3936 C   0  0  0  0  0  0  0  0  0  0  0  0
  -29.7853  -27.6930   17.4606 C   0  0  0  0  0  0  0  0  0  0  0  0
  -28.2810  -27.8793   17.6323 C   0  0  0  0  0  0  0  0  0  1  0  0
  -25.1529  -25.1291   25.3003 C   0  0  1  0  0  0  0  0  0  0  0  0
  -26.4014  -21.5765   24.8643 C   0  0  2  0  0  0  0  0  0  0  0  0
  -30.3388  -26.5258   18.2840 C   0  0  1  0  0  0  0  0  0  0  0  0
  -25.0808  -25.7789   26.7110 C   0  0  0  0  0  0  0  0  0  0  0  0
  -30.2791  -23.0240   20.6796 N   0  0  0  0  0  0  0  0  0  0  0  0
  -28.4615  -15.5687   21.5652 N   0  0  0  0  0  0  0  0  0  0  0  0
  -29.1018  -21.8292   18.9494 N   0  0  0  0  0  0  0  0  0  0  0  0
  -29.7645  -15.8167   21.3488 N   0  0  0  0  0  0  0  0  0  0  0  0
  -24.0772  -26.0694   23.2798 N   0  0  0  0  0  0  0  0  0  0  0  0
  -30.0712  -19.3364   22.7983 N   0  0  0  0  0  0  0  0  0  0  0  0
  -28.5348  -22.9121   16.9194 N   0  0  0  0  0  0  0  0  0  0  0  0
  -31.6769  -15.0091   20.2079 N   0  0  0  0  0  0  0  0  0  0  0  0
  -28.4638  -12.0399   19.0872 N   0  0  0  0  0  0  0  0  0  0  0  0
  -29.7346  -25.2832   17.8506 N   0  0  0  0  0  0  0  0  0  0  0  0
  -29.6722  -20.7718   20.9700 N   0  0  0  0  0  0  0  0  0  0  0  0
  -21.2976  -28.2866   22.9830 N   0  0  0  0  0  0  0  0  0  0  0  0
  -25.3466  -23.6832   25.3177 N   0  0  0  0  0  0  0  0  0  0  0  0
  -26.9740  -20.9146   23.6580 N   0  3  0  0  0  0  0  0  0  0  0  0
  -30.6773  -12.5770   18.8215 O   0  0  0  0  0  0  0  0  0  0  0  0
  -23.5812  -28.6700   23.2287 O   0  0  0  0  0  0  0  0  0  0  0  0
  -22.8195  -24.9687   24.9054 O   0  0  0  0  0  0  0  0  0  0  0  0
  -27.3112  -23.6750   24.0858 O   0  0  0  0  0  0  0  0  0  0  0  0
  -30.7808  -21.5357   22.8593 O   0  0  0  0  0  0  0  0  0  0  0  0
  -23.1498  -12.1514   20.7556 O   0  0  0  0  0  0  0  0  0  0  0  0
  -28.0065  -28.1537   19.0055 O   0  0  0  0  0  0  0  0  0  1  0  0
  -22.8027   -6.6808   21.3526 F   0  0  0  0  0  0  0  0  0  0  0  0
  -21.7341  -11.0406   22.8544 F   0  0  0  0  0  0  0  0  0  0  0  0
  1  2  1  0  0  0  0
  1  5  2  0  0  0  0
  2  6  2  0  0  0  0
  3  8  2  0  0  0  0
  3 16  1  0  0  0  0
  4  9  1  0  0  0  0
  4 16  2  0  0  0  0
  5 18  1  0  0  0  0
  6 20  1  0  0  0  0
  7 10  2  0  0  0  0
  7 19  1  0  0  0  0
  8 23  1  0  0  0  0
  9 23  2  0  0  0  0
 10 24  1  0  0  0  0
 11 12  2  0  0  0  0
 11 25  1  0  0  0  0
 12 26  1  0  0  0  0
 13 21  1  0  0  0  0
 13 24  2  0  0  0  0
 14 26  2  0  0  0  0
 14 27  1  0  0  0  0
 15 22  1  0  0  0  0
 15 61  2  0  0  0  0
 16 28  1  0  0  0  0
 17 28  1  0  0  0  0
 17 30  2  0  0  0  0
 17 32  1  0  0  0  0
 18 20  2  0  0  0  0
 18 37  1  0  0  0  0
 19 21  2  0  0  0  0
 19 38  1  0  0  0  0
 20 46  1  0  0  0  0
 21 39  1  0  0  0  0
 22 29  2  0  0  0  0
 22 70  1  0  0  0  0
 23 80  1  0  0  0  0
 24 81  1  0  0  0  0
 25 27  2  0  0  0  0
 25 80  1  0  0  0  0
 26 82  1  0  0  0  0
 27 83  1  0  0  0  0
 28 62  2  0  0  0  0
 29 63  1  0  0  0  0
 29 67  1  0  0  0  0
 30 64  1  0  0  0  0
 30 68  1  0  0  0  0
 31 61  1  0  0  0  0
 31 63  2  0  0  0  0
 31 71  1  0  0  0  0
 32 69  1  0  0  0  0
 32 75  2  0  0  0  0
 33 47  1  0  0  0  0
 33 72  1  0  0  0  0
 33 76  2  0  0  0  0
 34 57  1  0  0  0  0
 34 65  1  0  0  0  0
 34 77  2  0  0  0  0
 35 58  1  0  0  0  0
 35 73  1  0  0  0  0
 35 78  2  0  0  0  0
 36 66  1  0  0  0  0
 36 71  1  0  0  0  0
 36 79  2  0  0  0  0
 37 40  1  0  0  0  0
 38 47  1  0  0  0  0
 39 65  1  0  0  0  0
 40 42  1  0  0  0  0
 41 43  1  0  0  0  0
 41 44  1  0  0  0  0
 42 46  1  0  0  0  0
 43 48  1  0  0  0  0
 44 66  1  0  0  0  0
 45 48  1  0  0  0  0
 45 66  1  0  0  0  0
 46 72  1  0  0  0  0
 47 65  1  0  0  0  0
 48 64  1  0  0  0  0
 49 58  1  0  0  0  0
 50 59  1  0  0  0  0
 51 60  1  0  0  0  0
 52 60  1  0  0  0  0
 53 60  1  0  0  0  0
 54 74  1  0  0  0  0
 55 56  1  0  0  0  0
 55 59  1  0  0  0  0
 56 81  1  0  0  0  0
 57 60  1  0  0  0  0
 57 73  1  0  0  0  0
 58 74  1  0  0  0  0
 59 70  1  0  0  0  0
 62 64  1  0  0  0  0
M  CHG  1  74   1
M  ISO  4  36 100  56 101  71 100  81 101
M  END
> <Batch ID>
0197

> <Smiles>
CNC(C)C(=O)NC(C(=O)N1Cc2cc([101O:1][101CH2:1]CC(C)Nc3cnc([100NH:0][100C:0](=O)N4CCCC(n5nc(-c6ccc(Oc7ccc(F)cc7F)cc6)c(C(N)=O)c5N)C4)nc3N)ccc2CC1C(=O)NC1CCCc2ccccc21)C(C)(C)C

> <Shape>
0.261

> <Color>
0.078

> <Negative vol penalty>
0.000

$$$$

  -OEChem-04052305413D

 84 92  0     1  0  0  0  0  0999 V2000
  -16.8573  -28.2580   21.5174 C   0  0  0  0  0  0  0  0  0  0  0  0
  -18.0497  -28.0676   20.8264 C   0  0  0  0  0  0  0  0  0  0  0  0
  -27.0379  -13.4349   21.1421 C   0  0  0  0  0  0  0  0  0  0  0  0
  -26.9261  -13.9803   18.7911 C   0  0  0  0  0  0  0  0  0  0  0  0
  -16.8793  -28.7566   22.8192 C   0  0  0  0  0  0  0  0  0  0  0  0
  -19.2648  -28.3767   21.4367 C   0  0  0  0  0  0  0  0  0  0  0  0
  -24.5981  -25.4559   20.7087 C   0  0  0  0  0  0  0  0  0  0  0  0
  -26.2695  -12.2934   20.9139 C   0  0  0  0  0  0  0  0  0  0  0  0
  -26.1577  -12.8388   18.5628 C   0  0  0  0  0  0  0  0  0  0  0  0
  -25.7148  -25.7251   19.9186 C   0  0  0  0  0  0  0  0  0  0  0  0
  -23.0094  -11.5405   20.4353 C   0  0  0  0  0  0  0  0  0  0  0  0
  -21.9646  -11.2758   21.3207 C   0  0  0  0  0  0  0  0  0  0  0  0
  -26.7733  -26.8105   21.7949 C   0  0  0  0  0  0  0  0  0  0  0  0
  -22.9868   -9.1634   21.8953 C   0  0  0  0  0  0  0  0  0  0  0  0
  -32.9204  -23.7727   17.7861 C   0  0  0  0  0  0  0  0  0  0  0  0
  -27.3662  -14.2784   20.0808 C   0  0  0  0  0  0  0  0  0  0  0  0
  -29.5627  -15.5614   20.2730 C   0  0  0  0  0  0  0  0  0  0  0  0
  -18.0958  -29.0629   23.4492 C   0  0  0  0  0  0  0  0  0  0  0  0
  -24.5561  -25.8723   22.0471 C   0  0  0  0  0  0  0  0  0  0  0  0
  -19.3030  -28.8812   22.7477 C   0  0  0  0  0  0  0  0  0  0  0  0
  -25.6560  -26.5431   22.6006 C   0  0  0  0  0  0  0  0  0  0  0  0
  -25.8295  -11.9953   19.6242 C   0  0  0  0  0  0  0  0  0  0  0  0
  -26.8014  -26.4051   20.4608 C   0  0  0  0  0  0  0  0  0  0  0  0
  -24.0429  -10.6167   20.2799 C   0  0  0  0  0  0  0  0  0  0  0  0
  -21.9533  -10.0873   22.0507 C   0  0  0  0  0  0  0  0  0  0  0  0
  -24.0316   -9.4282   21.0099 C   0  0  0  0  0  0  0  0  0  0  0  0
  -28.1594  -15.4581   20.3160 C   0  0  0  0  0  0  0  0  0  0  0  0
  -32.1133  -24.7001   18.4112 C   0  0  0  0  0  0  0  0  0  0  0  0
  -29.8192  -16.8786   20.5656 C   0  0  0  0  0  0  0  0  0  0  0  0
  -30.9118  -22.9058   18.7944 C   0  0  0  0  0  0  0  0  0  0  0  0
  -30.5465  -14.5565   19.9936 C   0  0  0  0  0  0  0  0  0  0  0  0
  -22.7107  -27.8410   23.7269 C   0  0  0  0  0  0  0  0  0  0  0  0
  -24.4429  -26.7072   26.2242 C   0  0  0  0  0  0  0  0  0  0  0  0
  -27.3338  -25.2691   27.3293 C   0  0  0  0  0  0  0  0  0  0  0  0
  -28.7473  -22.3061   19.9353 C   0  0  0  0  0  0  0  0  0  0  0  0
  -18.0667  -29.6440   24.8406 C   0  0  0  0  0  0  0  0  0  0  0  0
  -23.3552  -25.5506   22.8936 C   0  0  0  0  0  0  0  0  0  0  0  0
  -25.6690  -26.9935   24.0378 C   0  0  0  0  0  0  0  0  0  0  0  0
  -19.4173  -29.5936   25.5502 C   0  0  0  0  0  0  0  0  0  0  0  0
  -26.7627  -20.5244   22.2941 C   0  0  0  0  0  0  0  0  0  0  0  0
  -20.5263  -30.0792   24.6222 C   0  0  0  0  0  0  0  0  0  0  0  0
  -27.0646  -19.0560   21.9863 C   0  0  0  0  0  0  0  0  0  0  0  0
  -26.7181  -21.3726   21.0244 C   0  0  0  0  0  0  0  0  0  0  0  0
  -28.2034  -19.7935   19.8541 C   0  0  0  0  0  0  0  0  0  0  0  0
  -20.6426  -29.1814   23.3845 C   0  0  1  0  0  0  0  0  0  0  0  0
  -23.2096  -26.4736   24.0996 C   0  0  1  0  0  0  0  0  0  0  0  0
  -28.3227  -18.9115   21.1077 C   0  0  2  0  0  0  0  0  0  0  0  0
  -28.4738  -24.4988   29.4279 C   0  0  0  0  0  0  0  0  0  0  0  0
  -25.0612  -29.6058   26.9494 C   0  0  0  0  0  0  0  0  0  0  0  0
  -26.9147  -28.7716   28.4112 C   0  0  0  0  0  0  0  0  0  0  0  0
  -24.5554  -28.1271   28.9018 C   0  0  0  0  0  0  0  0  0  0  0  0
  -28.2967  -28.7504   17.6914 C   0  0  0  0  0  0  0  0  0  0  0  0
  -30.1138  -29.6849   19.1280 C   0  0  0  0  0  0  0  0  0  0  0  0
  -33.6377  -26.5779   17.8541 C   0  0  0  0  0  0  0  0  0  0  0  0
  -27.4684  -22.4732   26.3681 C   0  0  0  0  0  0  0  0  0  0  0  0
  -30.3917  -27.3877   18.1801 C   0  0  0  0  0  0  0  0  0  0  0  0
  -31.5294  -27.0035   19.1278 C   0  0  0  0  0  0  0  0  0  0  0  0
  -28.6370  -27.8464   20.0035 C   0  0  0  0  0  0  0  0  0  1  0  0
  -25.7280  -27.1119   26.9052 C   0  0  1  0  0  0  0  0  0  0  0  0
  -27.5837  -24.0977   28.2619 C   0  0  2  0  0  0  0  0  0  0  0  0
  -25.5641  -28.3974   27.7642 C   0  0  0  0  0  0  0  0  0  0  0  0
  -29.3545  -28.3945   18.7512 C   0  0  0  0  0  0  0  0  0  0  0  0
  -27.5659  -16.6173   20.6127 N   0  0  0  0  0  0  0  0  0  0  0  0
  -30.9609  -24.2049   18.9896 N   0  0  0  0  0  0  0  0  0  0  0  0
  -28.6013  -17.4615   20.7588 N   0  0  0  0  0  0  0  0  0  0  0  0
  -24.4688  -26.6611   24.8231 N   0  0  0  0  0  0  0  0  0  0  0  0
  -27.9442  -21.1880   20.2449 N   0  0  0  0  0  0  0  0  0  0  0  0
  -30.9653  -17.5836   20.6739 N   0  0  0  0  0  0  0  0  0  0  0  0
  -30.1105  -13.2544   19.7130 N   0  0  0  0  0  0  0  0  0  0  0  0
  -29.9045  -22.0039   19.2183 N   0  0  0  0  0  0  0  0  0  0  0  0
  -21.3334  -27.9532   23.7141 N   0  0  0  0  0  0  0  0  0  0  0  0
  -26.1771  -25.9446   27.6562 N   0  0  0  0  0  0  0  0  0  0  0  0
  -32.4142  -26.0670   18.4724 N   0  0  3  0  0  0  0  0  0  0  0  0
  -28.2455  -22.9827   27.5272 N   0  3  0  0  0  0  0  0  0  0  0  0
  -31.7765  -14.8021   20.0089 O   0  0  0  0  0  0  0  0  0  0  0  0
  -23.5156  -28.7290   23.4715 O   0  0  0  0  0  0  0  0  0  0  0  0
  -23.4546  -26.4349   26.9103 O   0  0  0  0  0  0  0  0  0  0  0  0
  -28.0912  -25.5584   26.4055 O   0  0  0  0  0  0  0  0  0  0  0  0
  -28.4456  -23.4439   20.3044 O   0  0  0  0  0  0  0  0  0  0  0  0
  -25.0799  -10.8814   19.4011 O   0  0  0  0  0  0  0  0  0  0  0  0
  -27.8924  -26.6697   19.6916 O   0  0  0  0  0  0  0  0  0  1  0  0
  -20.9507   -9.8339   22.9020 F   0  0  0  0  0  0  0  0  0  0  0  0
  -25.0223   -8.5374   20.8657 F   0  0  0  0  0  0  0  0  0  0  0  0
  -32.2186  -22.2138   17.9236 S   0  0  0  0  0  0  0  0  0  0  0  0
  1  2  1  0  0  0  0
  1  5  2  0  0  0  0
  2  6  2  0  0  0  0
  3  8  2  0  0  0  0
  3 16  1  0  0  0  0
  4  9  1  0  0  0  0
  4 16  2  0  0  0  0
  5 18  1  0  0  0  0
  6 20  1  0  0  0  0
  7 10  2  0  0  0  0
  7 19  1  0  0  0  0
  8 22  1  0  0  0  0
  9 22  2  0  0  0  0
 10 23  1  0  0  0  0
 11 12  2  0  0  0  0
 11 24  1  0  0  0  0
 12 25  1  0  0  0  0
 13 21  1  0  0  0  0
 13 23  2  0  0  0  0
 14 25  2  0  0  0  0
 14 26  1  0  0  0  0
 15 28  2  0  0  0  0
 15 84  1  0  0  0  0
 16 27  1  0  0  0  0
 17 27  1  0  0  0  0
 17 29  2  0  0  0  0
 17 31  1  0  0  0  0
 18 20  2  0  0  0  0
 18 36  1  0  0  0  0
 19 21  2  0  0  0  0
 19 37  1  0  0  0  0
 20 45  1  0  0  0  0
 21 38  1  0  0  0  0
 22 80  1  0  0  0  0
 23 81  1  0  0  0  0
 24 26  2  0  0  0  0
 24 80  1  0  0  0  0
 25 82  1  0  0  0  0
 26 83  1  0  0  0  0
 27 63  2  0  0  0  0
 28 64  1  0  0  0  0
 28 73  1  0  0  0  0
 29 65  1  0  0  0  0
 29 68  1  0  0  0  0
 30 64  2  0  0  0  0
 30 70  1  0  0  0  0
 30 84  1  0  0  0  0
 31 69  1  0  0  0  0
 31 75  2  0  0  0  0
 32 46  1  0  0  0  0
 32 71  1  0  0  0  0
 32 76  2  0  0  0  0
 33 59  1  0  0  0  0
 33 66  1  0  0  0  0
 33 77  2  0  0  0  0
 34 60  1  0  0  0  0
 34 72  1  0  0  0  0
 34 78  2  0  0  0  0
 35 67  1  0  0  0  0
 35 70  1  0  0  0  0
 35 79  2  0  0  0  0
 36 39  1  0  0  0  0
 37 46  1  0  0  0  0
 38 66  1  0  0  0  0
 39 41  1  0  0  0  0
 40 42  1  0  0  0  0
 40 43  1  0  0  0  0
 41 45  1  0  0  0  0
 42 47  1  0  0  0  0
 43 67  1  0  0  0  0
 44 47  1  0  0  0  0
 44 67  1  0  0  0  0
 45 71  1  0  0  0  0
 46 66  1  0  0  0  0
 47 65  1  0  0  0  0
 48 60  1  0  0  0  0
 49 61  1  0  0  0  0
 50 61  1  0  0  0  0
 51 61  1  0  0  0  0
 52 62  1  0  0  0  0
 53 62  1  0  0  0  0
 54 73  1  0  0  0  0
 55 74  1  0  0  0  0
 56 57  1  0  0  0  0
 56 62  1  0  0  0  0
 57 73  1  0  0  0  0
 58 62  1  0  0  0  0
 58 81  1  0  0  0  0
 59 61  1  0  0  0  0
 59 72  1  0  0  0  0
 60 74  1  0  0  0  0
 63 65  1  0  0  0  0
M  CHG  1  74   1
M  ISO  4  35 100  58 101  70 100  81 101
M  END
> <Batch ID>
0197

> <Smiles>
CNC(C)C(=O)NC(C(=O)N1Cc2cc([101O:1][101CH2:1]C(C)(C)CCN(C)c3csc([100NH:0][100C:0](=O)N4CCCC(n5nc(-c6ccc(Oc7ccc(F)cc7F)cc6)c(C(N)=O)c5N)C4)n3)ccc2CC1C(=O)NC1CCCc2ccccc21)C(C)(C)C

> <Shape>
0.233

> <Color>
0.077

> <Negative vol penalty>
0.000

$$$$

  -OEChem-04052305413D

 86 94  0     1  0  0  0  0  0999 V2000
  -23.5463   -8.4943   22.0797 C   0  0  0  0  0  0  0  0  0  0  0  0
  -24.6938   -9.2593   21.8969 C   0  0  0  0  0  0  0  0  0  0  0  0
  -18.8529  -28.4341   23.2987 C   0  0  0  0  0  0  0  0  0  0  0  0
  -20.0425  -26.5177   22.4331 C   0  0  0  0  0  0  0  0  0  0  0  0
  -22.3359   -8.9125   21.5283 C   0  0  0  0  0  0  0  0  0  0  0  0
  -24.6318  -10.4425   21.1617 C   0  0  0  0  0  0  0  0  0  0  0  0
  -27.8395  -15.5646   22.1517 C   0  0  0  0  0  0  0  0  0  0  0  0
  -17.6390  -27.8188   22.9929 C   0  0  0  0  0  0  0  0  0  0  0  0
  -18.8286  -25.9023   22.1273 C   0  0  0  0  0  0  0  0  0  0  0  0
  -28.9995  -16.0725   21.5682 C   0  0  0  0  0  0  0  0  0  0  0  0
  -16.4759  -26.0987   19.7072 C   0  0  0  0  0  0  0  0  0  0  0  0
  -16.3552  -25.4881   18.4590 C   0  0  0  0  0  0  0  0  0  0  0  0
  -27.6562  -17.4174   20.0829 C   0  0  0  0  0  0  0  0  0  0  0  0
  -15.9290  -23.3684   19.5371 C   0  0  0  0  0  0  0  0  0  0  0  0
  -27.4908  -24.8219   19.7960 C   0  0  0  0  0  0  0  0  0  0  0  0
  -30.0587  -25.5018   19.5297 C   0  0  0  0  0  0  0  0  0  0  0  0
  -20.0546  -27.7836   23.0187 C   0  0  0  0  0  0  0  0  0  0  0  0
  -21.7577  -28.8315   24.6028 C   0  0  0  0  0  0  0  0  0  0  0  0
  -22.2570  -10.1063   20.7941 C   0  0  0  0  0  0  0  0  0  0  0  0
  -26.5770  -15.9718   21.6970 C   0  0  0  0  0  0  0  0  0  0  0  0
  -23.4195  -10.8764   20.5988 C   0  0  0  0  0  0  0  0  0  0  0  0
  -26.4818  -16.9151   20.6640 C   0  0  0  0  0  0  0  0  0  0  0  0
  -17.6269  -26.5529   22.4072 C   0  0  0  0  0  0  0  0  0  0  0  0
  -28.9079  -16.9968   20.5317 C   0  0  0  0  0  0  0  0  0  0  0  0
  -16.3232  -25.3442   20.8704 C   0  0  0  0  0  0  0  0  0  0  0  0
  -16.0818  -24.1229   18.3739 C   0  0  0  0  0  0  0  0  0  0  0  0
  -16.0498  -23.9790   20.7854 C   0  0  0  0  0  0  0  0  0  0  0  0
  -21.3089  -28.4190   23.3338 C   0  0  0  0  0  0  0  0  0  0  0  0
  -27.8847  -26.1413   19.8368 C   0  0  0  0  0  0  0  0  0  0  0  0
  -29.6650  -24.1824   19.4896 C   0  0  0  0  0  0  0  0  0  0  0  0
  -22.9983  -29.3725   24.3690 C   0  0  0  0  0  0  0  0  0  0  0  0
  -21.1110  -28.7343   25.8787 C   0  0  0  0  0  0  0  0  0  0  0  0
  -24.0893  -14.5030   20.3714 C   0  0  0  0  0  0  0  0  0  0  0  0
  -22.6895  -17.4098   20.7085 C   0  0  0  0  0  0  0  0  0  0  0  0
  -23.0649  -20.7873   21.0219 C   0  0  0  0  0  0  0  0  0  0  0  0
  -27.0857  -28.5164   20.0952 C   0  0  0  0  0  0  0  0  0  0  0  0
  -20.9363  -10.4932   20.1772 C   0  0  0  0  0  0  0  0  0  0  0  0
  -25.3356  -15.4347   22.3549 C   0  0  0  0  0  0  0  0  0  0  0  0
  -25.1506  -17.4000   20.1530 C   0  0  0  0  0  0  0  0  0  0  0  0
  -20.8774  -11.9511   19.7284 C   0  0  0  0  0  0  0  0  0  0  0  0
  -25.5329  -31.5987   20.9699 C   0  0  0  0  0  0  0  0  0  0  0  0
  -22.1371  -12.3220   18.9522 C   0  0  0  0  0  0  0  0  0  0  0  0
  -24.3177  -31.1709   21.7960 C   0  0  0  0  0  0  0  0  0  0  0  0
  -25.8075  -30.6297   19.8213 C   0  0  0  0  0  0  0  0  0  0  0  0
  -24.7090  -28.7915   21.0394 C   0  0  0  0  0  0  0  0  0  0  0  0
  -23.3873  -12.1785   19.8284 C   0  0  1  0  0  0  0  0  0  0  0  0
  -24.0991  -15.5315   21.4667 C   0  0  1  0  0  0  0  0  0  0  0  0
  -24.4320  -29.7016   22.2472 C   0  0  2  0  0  0  0  0  0  0  0  0
  -21.7365  -22.9051   21.2401 C   0  0  0  0  0  0  0  0  0  0  0  0
  -32.2620  -22.3378   21.7004 C   0  0  0  0  0  0  0  0  0  0  0  0
  -29.8332  -22.7947   22.1229 C   0  0  0  0  0  0  0  0  0  0  0  0
  -31.0116  -20.9842   17.5155 C   0  0  0  0  0  0  0  0  0  0  0  0
  -22.0187  -17.2927   17.7343 C   0  0  0  0  0  0  0  0  0  0  0  0
  -21.5731  -19.7552   17.8090 C   0  0  0  0  0  0  0  0  0  0  0  0
  -20.1904  -18.1970   19.1812 C   0  0  0  0  0  0  0  0  0  0  0  0
  -24.2584  -21.4011   23.6597 C   0  0  0  0  0  0  0  0  0  0  0  0
  -31.3553  -19.4537   19.5094 C   0  0  0  0  0  0  0  0  0  0  0  0
  -29.9710  -18.8169   19.4304 C   0  0  0  0  0  0  0  0  0  1  0  0
  -22.5843  -18.6511   19.8558 C   0  0  1  0  0  0  0  0  0  0  0  0
  -22.4458  -21.7846   21.9845 C   0  0  2  0  0  0  0  0  0  0  0  0
  -30.8307  -21.9029   21.3700 C   0  0  0  0  0  0  0  0  0  0  0  0
  -31.4190  -20.9099   18.9987 C   0  0  2  0  0  0  0  0  0  0  0  0
  -30.5259  -21.8679   19.8469 C   0  0  2  0  0  0  0  0  0  0  0  0
  -21.6168  -18.4636   18.6532 C   0  0  0  0  0  0  0  0  0  0  0  0
  -29.1756  -26.5050   19.7041 N   0  0  0  0  0  0  0  0  0  0  0  0
  -28.3739  -23.8188   19.6219 N   0  0  0  0  0  0  0  0  0  0  0  0
  -22.1924  -28.6761   22.3657 N   0  0  0  0  0  0  0  0  0  0  0  0
  -23.2088  -29.2560   23.0265 N   0  0  0  0  0  0  0  0  0  0  0  0
  -23.9656  -16.8407   20.8243 N   0  0  0  0  0  0  0  0  0  0  0  0
  -25.9075  -29.2580   20.3245 N   0  0  0  0  0  0  0  0  0  0  0  0
  -23.9187  -29.9318   25.1829 N   0  0  0  0  0  0  0  0  0  0  0  0
  -21.3249  -27.5840   26.6503 N   0  0  0  0  0  0  0  0  0  0  0  0
  -26.8942  -27.1369   20.0255 N   0  0  0  0  0  0  0  0  0  0  0  0
  -30.6321  -23.2154   19.3084 N   0  0  0  0  0  0  0  0  0  0  0  0
  -23.5040  -13.3040   20.7307 N   0  0  0  0  0  0  0  0  0  0  0  0
  -22.2129  -19.7358   20.7579 N   0  0  0  0  0  0  0  0  0  0  0  0
  -23.4966  -22.3882   22.8519 N   0  3  0  0  0  0  0  0  0  0  0  0
  -20.3524  -29.6334   26.3143 O   0  0  0  0  0  0  0  0  0  0  0  0
  -24.5753  -14.7775   19.2804 O   0  0  0  0  0  0  0  0  0  0  0  0
  -21.6781  -16.9658   21.2576 O   0  0  0  0  0  0  0  0  0  0  0  0
  -24.1902  -20.9290   20.5484 O   0  0  0  0  0  0  0  0  0  0  0  0
  -28.1875  -29.0626   19.9970 O   0  0  0  0  0  0  0  0  0  0  0  0
  -16.4426  -25.9520   22.1090 O   0  0  0  0  0  0  0  0  0  0  0  0
  -30.0461  -17.4969   19.9562 O   0  0  0  0  0  0  0  0  0  1  0  0
  -15.9643  -23.5370   17.1751 F   0  0  0  0  0  0  0  0  0  0  0  0
  -15.9009  -23.2492   21.8994 F   0  0  0  0  0  0  0  0  0  0  0  0
  1  2  1  0  0  0  0
  1  5  2  0  0  0  0
  2  6  2  0  0  0  0
  3  8  2  0  0  0  0
  3 17  1  0  0  0  0
  4  9  1  0  0  0  0
  4 17  2  0  0  0  0
  5 19  1  0  0  0  0
  6 21  1  0  0  0  0
  7 10  2  0  0  0  0
  7 20  1  0  0  0  0
  8 23  1  0  0  0  0
  9 23  2  0  0  0  0
 10 24  1  0  0  0  0
 11 12  2  0  0  0  0
 11 25  1  0  0  0  0
 12 26  1  0  0  0  0
 13 22  1  0  0  0  0
 13 24  2  0  0  0  0
 14 26  2  0  0  0  0
 14 27  1  0  0  0  0
 15 29  2  0  0  0  0
 15 66  1  0  0  0  0
 16 30  1  0  0  0  0
 16 65  2  0  0  0  0
 17 28  1  0  0  0  0
 18 28  1  0  0  0  0
 18 31  2  0  0  0  0
 18 32  1  0  0  0  0
 19 21  2  0  0  0  0
 19 37  1  0  0  0  0
 20 22  2  0  0  0  0
 20 38  1  0  0  0  0
 21 46  1  0  0  0  0
 22 39  1  0  0  0  0
 23 83  1  0  0  0  0
 24 84  1  0  0  0  0
 25 27  2  0  0  0  0
 25 83  1  0  0  0  0
 26 85  1  0  0  0  0
 27 86  1  0  0  0  0
 28 67  2  0  0  0  0
 29 65  1  0  0  0  0
 29 73  1  0  0  0  0
 30 66  2  0  0  0  0
 30 74  1  0  0  0  0
 31 68  1  0  0  0  0
 31 71  1  0  0  0  0
 32 72  1  0  0  0  0
 32 78  2  0  0  0  0
 33 47  1  0  0  0  0
 33 75  1  0  0  0  0
 33 79  2  0  0  0  0
 34 59  1  0  0  0  0
 34 69  1  0  0  0  0
 34 80  2  0  0  0  0
 35 60  1  0  0  0  0
 35 76  1  0  0  0  0
 35 81  2  0  0  0  0
 36 70  1  0  0  0  0
 36 73  1  0  0  0  0
 36 82  2  0  0  0  0
 37 40  1  0  0  0  0
 38 47  1  0  0  0  0
 39 69  1  0  0  0  0
 40 42  1  0  0  0  0
 41 43  1  0  0  0  0
 41 44  1  0  0  0  0
 42 46  1  0  0  0  0
 43 48  1  0  0  0  0
 44 70  1  0  0  0  0
 45 48  1  0  0  0  0
 45 70  1  0  0  0  0
 46 75  1  0  0  0  0
 47 69  1  0  0  0  0
 48 68  1  0  0  0  0
 49 60  1  0  0  0  0
 50 61  1  0  0  0  0
 51 61  1  0  0  0  0
 52 62  1  0  0  0  0
 53 64  1  0  0  0  0
 54 64  1  0  0  0  0
 55 64  1  0  0  0  0
 56 77  1  0  0  0  0
 57 58  1  0  0  0  0
 57 62  1  0  0  0  0
 58 84  1  0  0  0  0
 59 64  1  0  0  0  0
 59 76  1  0  0  0  0
 60 77  1  0  0  0  0
 61 63  1  0  0  0  0
 62 63  1  0  0  0  0
 63 74  1  0  0  0  0
 67 68  1  0  0  0  0
M  CHG  1  77   1
M  ISO  4  36 100  58 101  73 100  84 101
M  END
> <Batch ID>
0197

> <Smiles>
CNC(C)C(=O)NC(C(=O)N1Cc2cc([101O:1][101CH2:1]CC(C)C(Nc3cnc([100NH:0][100C:0](=O)N4CCCC(n5nc(-c6ccc(Oc7ccc(F)cc7F)cc6)c(C(N)=O)c5N)C4)cn3)C(C)C)ccc2CC1C(=O)NC1CCCc2ccccc21)C(C)(C)C

> <Shape>
0.241

> <Color>
0.073

> <Negative vol penalty>
0.000

$$$$

  -OEChem-04052305413D

 81 89  0     1  0  0  0  0  0999 V2000
  -33.2658  -30.5583   16.7539 C   0  0  0  0  0  0  0  0  0  0  0  0
  -32.4517  -29.7920   17.5819 C   0  0  0  0  0  0  0  0  0  0  0  0
  -24.0841   -9.3874   20.4557 C   0  0  0  0  0  0  0  0  0  0  0  0
  -24.5834  -10.0294   22.7307 C   0  0  0  0  0  0  0  0  0  0  0  0
  -33.5517  -31.8809   17.0897 C   0  0  0  0  0  0  0  0  0  0  0  0
  -31.9238  -30.3477   18.7468 C   0  0  0  0  0  0  0  0  0  0  0  0
  -27.0210  -29.2471   19.3757 C   0  0  0  0  0  0  0  0  0  0  0  0
  -23.7033   -8.1201   20.8969 C   0  0  0  0  0  0  0  0  0  0  0  0
  -24.2026   -8.7621   23.1719 C   0  0  0  0  0  0  0  0  0  0  0  0
  -26.7101  -27.9738   19.8509 C   0  0  0  0  0  0  0  0  0  0  0  0
  -23.0197   -5.8135   24.9396 C   0  0  0  0  0  0  0  0  0  0  0  0
  -22.2037   -5.7370   26.0682 C   0  0  0  0  0  0  0  0  0  0  0  0
  -26.4102  -28.8804   22.0662 C   0  0  0  0  0  0  0  0  0  0  0  0
  -20.5076   -7.0268   24.9293 C   0  0  0  0  0  0  0  0  0  0  0  0
  -29.9100  -19.5967   20.9947 C   0  0  0  0  0  0  0  0  0  0  0  0
  -27.9124  -19.4672   21.9046 C   0  0  0  0  0  0  0  0  0  0  0  0
  -24.5242  -10.3420   21.3726 C   0  0  0  0  0  0  0  0  0  0  0  0
  -24.0965  -12.7856   20.7779 C   0  0  0  0  0  0  0  0  0  0  0  0
  -33.0192  -32.4561   18.2543 C   0  0  0  0  0  0  0  0  0  0  0  0
  -27.0395  -30.3467   20.2458 C   0  0  0  0  0  0  0  0  0  0  0  0
  -32.2039  -31.6789   19.0992 C   0  0  0  0  0  0  0  0  0  0  0  0
  -26.7191  -30.1670   21.5991 C   0  0  0  0  0  0  0  0  0  0  0  0
  -28.8790  -18.6921   21.3120 C   0  0  0  0  0  0  0  0  0  0  0  0
  -23.7625   -7.8075   22.2550 C   0  0  0  0  0  0  0  0  0  0  0  0
  -26.4075  -27.7898   21.1969 C   0  0  0  0  0  0  0  0  0  0  0  0
  -22.5798   -6.4967   23.8058 C   0  0  0  0  0  0  0  0  0  0  0  0
  -20.9476   -6.3436   26.0631 C   0  0  0  0  0  0  0  0  0  0  0  0
  -21.3237   -7.1033   23.8007 C   0  0  0  0  0  0  0  0  0  0  0  0
  -24.9183  -11.6511   20.9175 C   0  0  0  0  0  0  0  0  0  0  0  0
  -24.9405  -13.7662   20.3168 C   0  0  0  0  0  0  0  0  0  0  0  0
  -22.6956  -12.9393   21.0415 C   0  0  0  0  0  0  0  0  0  0  0  0
  -29.2590  -32.4085   21.2082 C   0  0  0  0  0  0  0  0  0  0  0  0
  -26.7407  -33.8388   22.6693 C   0  0  0  0  0  0  0  0  0  0  0  0
  -23.6017  -33.5475   23.9764 C   0  0  0  0  0  0  0  0  0  0  0  0
  -29.7918  -16.4936   20.4874 C   0  0  0  0  0  0  0  0  0  0  0  0
  -33.3947  -33.8753   18.6001 C   0  0  0  0  0  0  0  0  0  0  0  0
  -27.3507  -31.7181   19.7123 C   0  0  0  0  0  0  0  0  0  0  0  0
  -26.7052  -31.3181   22.5703 C   0  0  0  0  0  0  0  0  0  0  0  0
  -32.4916  -34.5037   19.6583 C   0  0  0  0  0  0  0  0  0  0  0  0
  -29.6911  -13.4806   18.5929 C   0  0  0  0  0  0  0  0  0  0  0  0
  -32.2841  -33.5410   20.8231 C   0  0  0  0  0  0  0  0  0  0  0  0
  -28.3728  -12.8294   19.0173 C   0  0  0  0  0  0  0  0  0  0  0  0
  -30.3749  -14.1900   19.7604 C   0  0  0  0  0  0  0  0  0  0  0  0
  -28.2152  -14.5043   20.9033 C   0  0  0  0  0  0  0  0  0  0  0  0
  -31.5924  -32.2537   20.3584 C   0  0  1  0  0  0  0  0  0  0  0  0
  -27.8420  -32.6808   20.7890 C   0  0  1  0  0  0  0  0  0  0  0  0
  -27.4577  -13.8327   19.7463 C   0  0  2  0  0  0  0  0  0  0  0  0
  -21.8185  -34.8804   25.1344 C   0  0  0  0  0  0  0  0  0  0  0  0
  -28.3370  -33.7133   25.2666 C   0  0  0  0  0  0  0  0  0  0  0  0
  -26.2112  -34.1555   26.5130 C   0  0  0  0  0  0  0  0  0  0  0  0
  -27.0912  -35.8523   24.9102 C   0  0  0  0  0  0  0  0  0  0  0  0
  -21.6668  -33.0793   21.7864 C   0  0  0  0  0  0  0  0  0  0  0  0
  -26.8790  -24.3017   22.0005 C   0  0  0  0  0  0  0  0  0  0  0  0
  -27.7133  -21.9665   22.4537 C   0  0  0  0  0  0  0  0  0  0  0  0
  -26.7088  -25.4390   20.9990 C   0  0  0  0  0  0  0  0  0  1  0  0
  -26.0765  -33.7149   24.0193 C   0  0  1  0  0  0  0  0  0  0  0  0
  -22.3535  -34.3926   23.7970 C   0  0  2  0  0  0  0  0  0  0  0  0
  -27.5423  -23.0614   21.3915 C   0  0  1  0  0  0  0  0  0  0  0  0
  -26.9311  -34.3368   25.1596 C   0  0  0  0  0  0  0  0  0  0  0  0
  -29.6249  -20.8506   21.3557 N   0  0  0  0  0  0  0  0  0  0  0  0
  -26.1868  -11.8877   20.5728 N   0  0  0  0  0  0  0  0  0  0  0  0
  -28.4038  -20.7395   21.9059 N   0  0  0  0  0  0  0  0  0  0  0  0
  -26.1685  -13.1821   20.2120 N   0  0  0  0  0  0  0  0  0  0  0  0
  -27.0224  -32.6385   22.0017 N   0  0  0  0  0  0  0  0  0  0  0  0
  -29.4492  -15.1277   20.3998 N   0  0  0  0  0  0  0  0  0  0  0  0
  -24.7445  -15.0625   19.9948 N   0  0  0  0  0  0  0  0  0  0  0  0
  -21.9785  -11.8304   21.5110 N   0  0  0  0  0  0  0  0  0  0  0  0
  -28.8199  -17.2945   21.0863 N   0  0  0  0  0  0  0  0  0  0  0  0
  -30.1746  -32.4795   20.1757 N   0  0  0  0  0  0  0  0  0  0  0  0
  -24.7498  -34.3047   23.8771 N   0  0  0  0  0  0  0  0  0  0  0  0
  -21.2848  -33.6017   23.1236 N   0  3  0  0  0  0  0  0  0  0  0  0
  -22.0941  -14.0233   20.8503 O   0  0  0  0  0  0  0  0  0  0  0  0
  -29.5037  -32.1545   22.3817 O   0  0  0  0  0  0  0  0  0  0  0  0
  -26.9937  -34.9596   22.2205 O   0  0  0  0  0  0  0  0  0  0  0  0
  -23.5622  -32.3374   24.1874 O   0  0  0  0  0  0  0  0  0  0  0  0
  -30.8563  -16.9258   20.0381 O   0  0  0  0  0  0  0  0  0  0  0  0
  -26.7186  -22.5457   20.3469 O   0  0  0  0  0  0  0  0  0  0  0  0
  -23.3908   -6.5711   22.6858 O   0  0  0  0  0  0  0  0  0  0  0  0
  -26.1044  -26.5479   21.6635 O   0  0  0  0  0  0  0  0  0  1  0  0
  -20.1634   -6.2688   27.1464 F   0  0  0  0  0  0  0  0  0  0  0  0
  -20.8951   -7.7600   22.7140 F   0  0  0  0  0  0  0  0  0  0  0  0
  1  2  1  0  0  0  0
  1  5  2  0  0  0  0
  2  6  2  0  0  0  0
  3  8  2  0  0  0  0
  3 17  1  0  0  0  0
  4  9  1  0  0  0  0
  4 17  2  0  0  0  0
  5 19  1  0  0  0  0
  6 21  1  0  0  0  0
  7 10  2  0  0  0  0
  7 20  1  0  0  0  0
  8 24  1  0  0  0  0
  9 24  2  0  0  0  0
 10 25  1  0  0  0  0
 11 12  2  0  0  0  0
 11 26  1  0  0  0  0
 12 27  1  0  0  0  0
 13 22  1  0  0  0  0
 13 25  2  0  0  0  0
 14 27  2  0  0  0  0
 14 28  1  0  0  0  0
 15 23  1  0  0  0  0
 15 60  2  0  0  0  0
 16 23  2  0  0  0  0
 16 62  1  0  0  0  0
 17 29  1  0  0  0  0
 18 29  1  0  0  0  0
 18 30  2  0  0  0  0
 18 31  1  0  0  0  0
 19 21  2  0  0  0  0
 19 36  1  0  0  0  0
 20 22  2  0  0  0  0
 20 37  1  0  0  0  0
 21 45  1  0  0  0  0
 22 38  1  0  0  0  0
 23 68  1  0  0  0  0
 24 78  1  0  0  0  0
 25 79  1  0  0  0  0
 26 28  2  0  0  0  0
 26 78  1  0  0  0  0
 27 80  1  0  0  0  0
 28 81  1  0  0  0  0
 29 61  2  0  0  0  0
 30 63  1  0  0  0  0
 30 66  1  0  0  0  0
 31 67  1  0  0  0  0
 31 72  2  0  0  0  0
 32 46  1  0  0  0  0
 32 69  1  0  0  0  0
 32 73  2  0  0  0  0
 33 56  1  0  0  0  0
 33 64  1  0  0  0  0
 33 74  2  0  0  0  0
 34 57  1  0  0  0  0
 34 70  1  0  0  0  0
 34 75  2  0  0  0  0
 35 65  1  0  0  0  0
 35 68  1  0  0  0  0
 35 76  2  0  0  0  0
 36 39  1  0  0  0  0
 37 46  1  0  0  0  0
 38 64  1  0  0  0  0
 39 41  1  0  0  0  0
 40 42  1  0  0  0  0
 40 43  1  0  0  0  0
 41 45  1  0  0  0  0
 42 47  1  0  0  0  0
 43 65  1  0  0  0  0
 44 47  1  0  0  0  0
 44 65  1  0  0  0  0
 45 69  1  0  0  0  0
 46 64  1  0  0  0  0
 47 63  1  0  0  0  0
 48 57  1  0  0  0  0
 49 59  1  0  0  0  0
 50 59  1  0  0  0  0
 51 59  1  0  0  0  0
 52 71  1  0  0  0  0
 53 55  1  0  0  0  0
 53 58  1  0  0  0  0
 54 58  1  0  0  0  0
 54 62  1  0  0  0  0
 55 79  1  0  0  0  0
 56 59  1  0  0  0  0
 56 70  1  0  0  0  0
 57 71  1  0  0  0  0
 58 77  1  0  0  0  0
 60 62  1  0  0  0  0
 61 63  1  0  0  0  0
M  CHG  1  71   1
M  ISO  4  35 100  55 101  68 100  79 101
M  END
> <Batch ID>
0197

> <Smiles>
CNC(C)C(=O)NC(C(=O)N1Cc2cc([101O:1][101CH2:1]CC(O)Cn3cc([100NH:0][100C:0](=O)N4CCCC(n5nc(-c6ccc(Oc7ccc(F)cc7F)cc6)c(C(N)=O)c5N)C4)cn3)ccc2CC1C(=O)NC1CCCc2ccccc21)C(C)(C)C

> <Shape>
0.255

> <Color>
0.144

> <Negative vol penalty>
0.000

$$$$

  -OEChem-04052305413D

 86 94  0     1  0  0  0  0  0999 V2000
  -28.0977  -37.6925   25.4206 C   0  0  0  0  0  0  0  0  0  0  0  0
  -27.7232  -36.6408   26.2507 C   0  0  0  0  0  0  0  0  0  0  0  0
  -23.5244   -9.5590   20.9520 C   0  0  0  0  0  0  0  0  0  0  0  0
  -24.0726  -10.3885   23.1539 C   0  0  0  0  0  0  0  0  0  0  0  0
  -27.4900  -37.8465   24.1752 C   0  0  0  0  0  0  0  0  0  0  0  0
  -26.7400  -35.7430   25.8363 C   0  0  0  0  0  0  0  0  0  0  0  0
  -28.1378  -28.6960   25.3093 C   0  0  0  0  0  0  0  0  0  0  0  0
  -22.9263   -8.4362   21.5238 C   0  0  0  0  0  0  0  0  0  0  0  0
  -23.4744   -9.2656   23.7258 C   0  0  0  0  0  0  0  0  0  0  0  0
  -28.2658  -27.3089   25.3855 C   0  0  0  0  0  0  0  0  0  0  0  0
  -23.9195   -5.5003   22.8725 C   0  0  0  0  0  0  0  0  0  0  0  0
  -24.2084   -4.2565   22.3113 C   0  0  0  0  0  0  0  0  0  0  0  0
  -26.0152  -27.0442   24.5411 C   0  0  0  0  0  0  0  0  0  0  0  0
  -21.8636   -3.9291   21.8297 C   0  0  0  0  0  0  0  0  0  0  0  0
  -24.0976  -10.5352   21.7670 C   0  0  0  0  0  0  0  0  0  0  0  0
  -24.1000  -12.9225   20.8681 C   0  0  0  0  0  0  0  0  0  0  0  0
  -26.5058  -36.9445   23.7413 C   0  0  0  0  0  0  0  0  0  0  0  0
  -26.9521  -29.2628   24.8336 C   0  0  0  0  0  0  0  0  0  0  0  0
  -26.1177  -35.8858   24.5845 C   0  0  0  0  0  0  0  0  0  0  0  0
  -25.8857  -28.4326   24.4508 C   0  0  0  0  0  0  0  0  0  0  0  0
  -22.9012   -8.2895   22.9107 C   0  0  0  0  0  0  0  0  0  0  0  0
  -27.2070  -26.4851   25.0026 C   0  0  0  0  0  0  0  0  0  0  0  0
  -22.6026   -5.9586   22.9123 C   0  0  0  0  0  0  0  0  0  0  0  0
  -23.1805   -3.4709   21.7899 C   0  0  0  0  0  0  0  0  0  0  0  0
  -21.5747   -5.1730   22.3909 C   0  0  0  0  0  0  0  0  0  0  0  0
  -24.7161  -11.6950   21.1769 C   0  0  0  0  0  0  0  0  0  0  0  0
  -30.7298  -19.9575   20.6902 C   0  0  0  0  0  0  0  0  0  0  0  0
  -25.1069  -13.6865   20.3306 C   0  0  0  0  0  0  0  0  0  0  0  0
  -29.5273  -20.3564   21.2352 C   0  0  0  0  0  0  0  0  0  0  0  0
  -29.7820  -17.9883   20.8748 C   0  0  0  0  0  0  0  0  0  0  0  0
  -31.8001  -20.8512   20.3397 C   0  0  0  0  0  0  0  0  0  0  0  0
  -22.7392  -13.3353   21.0509 C   0  0  0  0  0  0  0  0  0  0  0  0
  -25.0600  -32.3938   24.0014 C   0  0  0  0  0  0  0  0  0  0  0  0
  -24.4409  -30.3633   21.7868 C   0  0  0  0  0  0  0  0  0  0  0  0
  -24.3507  -27.9923   19.3359 C   0  0  0  0  0  0  0  0  0  0  0  0
  -30.3423  -15.5815   20.3851 C   0  0  0  0  0  0  0  0  0  0  0  0
  -25.8437  -37.1793   22.4067 C   0  0  0  0  0  0  0  0  0  0  0  0
  -26.7476  -30.7529   24.7925 C   0  0  0  0  0  0  0  0  0  0  0  0
  -24.6165  -29.0873   23.9780 C   0  0  0  0  0  0  0  0  0  0  0  0
  -25.0771  -35.9665   21.8854 C   0  0  0  0  0  0  0  0  0  0  0  0
  -29.7800  -12.4141   18.8593 C   0  0  0  0  0  0  0  0  0  0  0  0
  -24.2119  -35.3668   22.9894 C   0  0  0  0  0  0  0  0  0  0  0  0
  -28.3618  -12.0456   19.3008 C   0  0  0  0  0  0  0  0  0  0  0  0
  -30.5466  -13.1413   19.9626 C   0  0  0  0  0  0  0  0  0  0  0  0
  -28.4450  -13.9450   20.9659 C   0  0  0  0  0  0  0  0  0  0  0  0
  -25.0727  -34.8769   24.1600 C   0  0  1  0  0  0  0  0  0  0  0  0
  -25.8918  -31.2119   23.5983 C   0  0  1  0  0  0  0  0  0  0  0  0
  -27.6118  -13.2681   19.8653 C   0  0  2  0  0  0  0  0  0  0  0  0
  -25.9245  -22.8798   18.8443 C   0  0  0  0  0  0  0  0  0  0  0  0
  -23.3387  -27.5198   17.0886 C   0  0  0  0  0  0  0  0  0  0  0  0
  -21.7676  -29.7534   23.1230 C   0  0  0  0  0  0  0  0  0  0  0  0
  -21.1365  -28.4289   21.0943 C   0  0  0  0  0  0  0  0  0  0  0  0
  -21.5888  -30.8739   20.8943 C   0  0  0  0  0  0  0  0  0  0  0  0
  -27.0091  -27.8095   18.0481 C   0  0  0  0  0  0  0  0  0  0  0  0
  -26.9705  -22.9686   19.9448 C   0  0  0  0  0  0  0  0  0  0  0  0
  -28.5713  -23.2250   24.2388 C   0  0  0  0  0  0  0  0  0  0  0  0
  -26.7322  -21.9124   21.0296 C   0  0  0  0  0  0  0  0  0  0  0  0
  -27.8836  -23.2837   22.8670 C   0  0  0  0  0  0  0  0  0  0  0  0
  -28.6520  -24.5988   24.8968 C   0  0  0  0  0  0  0  0  0  1  0  0
  -23.5163  -29.2845   21.2822 C   0  0  1  0  0  0  0  0  0  0  0  0
  -24.5365  -28.0897   17.8324 C   0  0  2  0  0  0  0  0  0  0  0  0
  -27.8142  -21.9406   22.1191 C   0  0  2  0  0  0  0  0  0  0  0  0
  -22.0259  -29.5789   21.6130 C   0  0  0  0  0  0  0  0  0  0  0  0
  -26.0139  -11.6758   20.8616 N   0  0  0  0  0  0  0  0  0  0  0  0
  -30.8778  -18.5999   20.4832 N   0  0  0  0  0  0  0  0  0  0  0  0
  -32.9387  -20.4638   19.8225 N   0  0  0  0  0  0  0  0  0  0  0  0
  -26.2215  -12.9006   20.3490 N   0  0  0  0  0  0  0  0  0  0  0  0
  -24.9343  -30.2155   23.0888 N   0  0  0  0  0  0  0  0  0  0  0  0
  -29.7773  -14.2901   20.4456 N   0  0  0  0  0  0  0  0  0  0  0  0
  -25.1388  -14.9471   19.8486 N   0  0  0  0  0  0  0  0  0  0  0  0
  -21.8355  -12.4261   21.6175 N   0  0  0  0  0  0  0  0  0  0  0  0
  -29.1111  -21.6374   21.5471 N   0  0  0  0  0  0  0  0  0  0  0  0
  -29.5054  -16.5990   20.8422 N   0  0  0  0  0  0  0  0  0  0  0  0
  -25.6937  -33.6105   23.8355 N   0  0  0  0  0  0  0  0  0  0  0  0
  -23.7951  -29.1415   19.8574 N   0  0  0  0  0  0  0  0  0  0  0  0
  -25.7525  -27.3383   17.4110 N   0  3  0  0  0  0  0  0  0  0  0  0
  -22.3327  -14.4710   20.7064 O   0  0  0  0  0  0  0  0  0  0  0  0
  -23.9258  -32.2164   24.4301 O   0  0  0  0  0  0  0  0  0  0  0  0
  -24.7154  -31.3153   21.0508 O   0  0  0  0  0  0  0  0  0  0  0  0
  -24.6633  -26.9949   19.9824 O   0  0  0  0  0  0  0  0  0  0  0  0
  -31.4742  -15.7742   19.9339 O   0  0  0  0  0  0  0  0  0  0  0  0
  -22.3174   -7.1940   23.4691 O   0  0  0  0  0  0  0  0  0  0  0  0
  -27.3403  -25.1317   25.0752 O   0  0  0  0  0  0  0  0  0  1  0  0
  -23.4584   -2.2771   21.2496 F   0  0  0  0  0  0  0  0  0  0  0  0
  -20.3078   -5.6084   22.4253 F   0  0  0  0  0  0  0  0  0  0  0  0
  -28.5331  -18.9845   21.5016 S   0  0  0  0  0  0  0  0  0  0  0  0
  1  2  1  0  0  0  0
  1  5  2  0  0  0  0
  2  6  2  0  0  0  0
  3  8  2  0  0  0  0
  3 15  1  0  0  0  0
  4  9  1  0  0  0  0
  4 15  2  0  0  0  0
  5 17  1  0  0  0  0
  6 19  1  0  0  0  0
  7 10  2  0  0  0  0
  7 18  1  0  0  0  0
  8 21  1  0  0  0  0
  9 21  2  0  0  0  0
 10 22  1  0  0  0  0
 11 12  2  0  0  0  0
 11 23  1  0  0  0  0
 12 24  1  0  0  0  0
 13 20  1  0  0  0  0
 13 22  2  0  0  0  0
 14 24  2  0  0  0  0
 14 25  1  0  0  0  0
 15 26  1  0  0  0  0
 16 26  1  0  0  0  0
 16 28  2  0  0  0  0
 16 32  1  0  0  0  0
 17 19  2  0  0  0  0
 17 37  1  0  0  0  0
 18 20  2  0  0  0  0
 18 38  1  0  0  0  0
 19 46  1  0  0  0  0
 20 39  1  0  0  0  0
 21 82  1  0  0  0  0
 22 83  1  0  0  0  0
 23 25  2  0  0  0  0
 23 82  1  0  0  0  0
 24 84  1  0  0  0  0
 25 85  1  0  0  0  0
 26 64  2  0  0  0  0
 27 29  2  0  0  0  0
 27 31  1  0  0  0  0
 27 65  1  0  0  0  0
 28 67  1  0  0  0  0
 28 70  1  0  0  0  0
 29 72  1  0  0  0  0
 29 86  1  0  0  0  0
 30 65  2  0  0  0  0
 30 73  1  0  0  0  0
 30 86  1  0  0  0  0
 31 66  2  0  0  0  0
 32 71  1  0  0  0  0
 32 77  2  0  0  0  0
 33 47  1  0  0  0  0
 33 74  1  0  0  0  0
 33 78  2  0  0  0  0
 34 60  1  0  0  0  0
 34 68  1  0  0  0  0
 34 79  2  0  0  0  0
 35 61  1  0  0  0  0
 35 75  1  0  0  0  0
 35 80  2  0  0  0  0
 36 69  1  0  0  0  0
 36 73  1  0  0  0  0
 36 81  2  0  0  0  0
 37 40  1  0  0  0  0
 38 47  1  0  0  0  0
 39 68  1  0  0  0  0
 40 42  1  0  0  0  0
 41 43  1  0  0  0  0
 41 44  1  0  0  0  0
 42 46  1  0  0  0  0
 43 48  1  0  0  0  0
 44 69  1  0  0  0  0
 45 48  1  0  0  0  0
 45 69  1  0  0  0  0
 46 74  1  0  0  0  0
 47 68  1  0  0  0  0
 48 67  1  0  0  0  0
 49 55  1  0  0  0  0
 50 61  1  0  0  0  0
 51 63  1  0  0  0  0
 52 63  1  0  0  0  0
 53 63  1  0  0  0  0
 54 76  1  0  0  0  0
 55 57  1  0  0  0  0
 56 58  1  0  0  0  0
 56 59  1  0  0  0  0
 57 62  1  0  0  0  0
 58 62  1  0  0  0  0
 59 83  1  0  0  0  0
 60 63  1  0  0  0  0
 60 75  1  0  0  0  0
 61 76  1  0  0  0  0
 62 72  1  0  0  0  0
 64 67  1  0  0  0  0
M  CHG  1  76   1
M  ISO  4  36 100  59 101  73 100  83 101
M  END
> <Batch ID>
0197

> <Smiles>
CCCC(CC[101CH2:1][101O:1]c1ccc2c(c1)CN(C(=O)C(NC(=O)C(C)NC)C(C)(C)C)C(C(=O)NC1CCCc3ccccc31)C2)Nc1sc([100NH:0][100C:0](=O)N2CCCC(n3nc(-c4ccc(Oc5ccc(F)cc5F)cc4)c(C(N)=O)c3N)C2)nc1C=N

> <Shape>
0.358

> <Color>
0.152

> <Negative vol penalty>
0.000

$$$$

  -OEChem-04052305413D

 86 94  0     1  0  0  0  0  0999 V2000
  -21.0236  -12.7654   24.9389 C   0  0  0  0  0  0  0  0  0  0  0  0
  -22.0921  -13.6535   25.0097 C   0  0  0  0  0  0  0  0  0  0  0  0
  -23.0732   -9.8667   19.9448 C   0  0  0  0  0  0  0  0  0  0  0  0
  -23.8309   -9.8800   22.2388 C   0  0  0  0  0  0  0  0  0  0  0  0
  -19.7215  -13.2267   25.1279 C   0  0  0  0  0  0  0  0  0  0  0  0
  -21.8590  -15.0037   25.2686 C   0  0  0  0  0  0  0  0  0  0  0  0
  -25.0629  -16.9056   28.6982 C   0  0  0  0  0  0  0  0  0  0  0  0
  -22.3289   -8.7144   20.1972 C   0  0  0  0  0  0  0  0  0  0  0  0
  -23.0866   -8.7277   22.4913 C   0  0  0  0  0  0  0  0  0  0  0  0
  -26.3498  -17.2187   28.2626 C   0  0  0  0  0  0  0  0  0  0  0  0
  -22.9003   -5.3967   20.4980 C   0  0  0  0  0  0  0  0  0  0  0  0
  -22.9679   -4.3644   19.5623 C   0  0  0  0  0  0  0  0  0  0  0  0
  -25.7236  -19.5429   28.1026 C   0  0  0  0  0  0  0  0  0  0  0  0
  -20.5837   -4.5297   19.2079 C   0  0  0  0  0  0  0  0  0  0  0  0
  -23.8243  -10.4495   20.9656 C   0  0  0  0  0  0  0  0  0  0  0  0
  -24.1667  -12.9742   20.8388 C   0  0  0  0  0  0  0  0  0  0  0  0
  -19.4731  -14.5815   25.3987 C   0  0  0  0  0  0  0  0  0  0  0  0
  -24.0920  -17.9089   28.8291 C   0  0  0  0  0  0  0  0  0  0  0  0
  -20.5523  -15.4838   25.4600 C   0  0  0  0  0  0  0  0  0  0  0  0
  -24.4260  -19.2403   28.5426 C   0  0  0  0  0  0  0  0  0  0  0  0
  -22.3356   -8.1449   21.4705 C   0  0  0  0  0  0  0  0  0  0  0  0
  -26.6795  -18.5371   27.9619 C   0  0  0  0  0  0  0  0  0  0  0  0
  -21.6745   -5.9954   20.7887 C   0  0  0  0  0  0  0  0  0  0  0  0
  -21.8096   -3.9309   18.9172 C   0  0  0  0  0  0  0  0  0  0  0  0
  -20.5162   -5.5619   20.1436 C   0  0  0  0  0  0  0  0  0  0  0  0
  -24.5939  -11.6395   20.7052 C   0  0  0  0  0  0  0  0  0  0  0  0
  -31.8082  -18.7299   22.2379 C   0  0  0  0  0  0  0  0  0  0  0  0
  -25.2594  -13.7225   20.4745 C   0  0  0  0  0  0  0  0  0  0  0  0
  -30.7058  -19.0993   22.9797 C   0  0  0  0  0  0  0  0  0  0  0  0
  -30.5703  -16.9520   21.8965 C   0  0  0  0  0  0  0  0  0  0  0  0
  -22.8959  -13.4914   21.2550 C   0  0  0  0  0  0  0  0  0  0  0  0
  -21.2729  -18.4918   27.4813 C   0  0  0  0  0  0  0  0  0  0  0  0
  -21.1619  -20.8878   29.6652 C   0  0  0  0  0  0  0  0  0  0  0  0
  -22.8639  -23.0243   31.7110 C   0  0  0  0  0  0  0  0  0  0  0  0
  -30.7256  -14.7675   20.6515 C   0  0  0  0  0  0  0  0  0  0  0  0
  -18.0447  -15.0418   25.5490 C   0  0  0  0  0  0  0  0  0  0  0  0
  -22.7161  -17.5587   29.3258 C   0  0  0  0  0  0  0  0  0  0  0  0
  -23.4258  -20.3572   28.6861 C   0  0  0  0  0  0  0  0  0  0  0  0
  -17.9134  -16.4208   26.1904 C   0  0  0  0  0  0  0  0  0  0  0  0
  -29.6129  -12.3474   18.2888 C   0  0  0  0  0  0  0  0  0  0  0  0
  -18.8914  -17.4019   25.5518 C   0  0  0  0  0  0  0  0  0  0  0  0
  -28.1728  -12.0573   18.7178 C   0  0  0  0  0  0  0  0  0  0  0  0
  -30.5270  -12.5793   19.4907 C   0  0  0  0  0  0  0  0  0  0  0  0
  -28.6189  -13.3079   20.8682 C   0  0  0  0  0  0  0  0  0  0  0  0
  -20.3419  -16.9514   25.7634 C   0  0  1  0  0  0  0  0  0  0  0  0
  -21.6589  -18.5850   28.9304 C   0  0  1  0  0  0  0  0  0  0  0  0
  -27.6471  -13.1316   19.6899 C   0  0  2  0  0  0  0  0  0  0  0  0
  -22.5022  -24.8931   33.3463 C   0  0  0  0  0  0  0  0  0  0  0  0
  -27.9853  -22.5669   22.4767 C   0  0  0  0  0  0  0  0  0  0  0  0
  -29.0704  -24.3998   23.7872 C   0  0  0  0  0  0  0  0  0  0  0  0
  -20.6114  -22.8011   27.3530 C   0  0  0  0  0  0  0  0  0  0  0  0
  -21.2010  -24.6994   28.8751 C   0  0  0  0  0  0  0  0  0  0  0  0
  -19.2554  -23.2326   29.4097 C   0  0  0  0  0  0  0  0  0  0  0  0
  -24.1057  -21.4902   33.9164 C   0  0  0  0  0  0  0  0  0  0  0  0
  -29.1624  -22.0543   24.6881 C   0  0  0  0  0  0  0  0  0  0  0  0
  -28.0660  -19.9606   26.6554 C   0  0  0  0  0  0  0  0  0  1  0  0
  -21.6010  -22.3319   29.6911 C   0  0  1  0  0  0  0  0  0  0  0  0
  -22.6678  -23.3916   33.1709 C   0  0  2  0  0  0  0  0  0  0  0  0
  -29.1470  -22.9179   23.4074 C   0  0  0  0  0  0  0  0  0  0  0  0
  -29.2921  -20.5400   24.4465 C   0  0  2  0  0  0  0  0  0  0  0  0
  -29.2849  -19.7354   25.7612 C   0  0  1  0  0  0  0  0  0  0  0  0
  -20.6857  -23.2452   28.8276 C   0  0  0  0  0  0  0  0  0  0  0  0
  -25.8591  -11.5423   20.2884 N   0  0  0  0  0  0  0  0  0  0  0  0
  -31.7325  -17.4987   21.6164 N   0  0  0  0  0  0  0  0  0  0  0  0
  -26.2364  -12.8254   20.1568 N   0  0  0  0  0  0  0  0  0  0  0  0
  -22.0920  -19.9633   29.1691 N   0  0  0  0  0  0  0  0  0  0  0  0
  -29.9674  -13.6126   20.3647 N   0  0  0  0  0  0  0  0  0  0  0  0
  -25.4701  -15.0537   20.3979 N   0  0  0  0  0  0  0  0  0  0  0  0
  -21.8835  -12.5834   21.5939 N   0  0  0  0  0  0  0  0  0  0  0  0
  -30.5052  -20.2608   23.7005 N   0  0  0  0  0  0  0  0  0  0  0  0
  -30.0777  -15.6949   21.4668 N   0  0  0  0  0  0  0  0  0  0  0  0
  -20.7749  -17.2575   27.1100 N   0  0  0  0  0  0  0  0  0  0  0  0
  -21.6688  -22.7127   31.0978 N   0  0  0  0  0  0  0  0  0  0  0  0
  -23.8404  -22.9506   33.9780 N   0  3  0  0  0  0  0  0  0  0  0  0
  -22.6598  -14.7223   21.3087 O   0  0  0  0  0  0  0  0  0  0  0  0
  -21.4149  -19.4680   26.7542 O   0  0  0  0  0  0  0  0  0  0  0  0
  -20.0379  -20.5900   30.0768 O   0  0  0  0  0  0  0  0  0  0  0  0
  -23.9664  -23.0182   31.1680 O   0  0  0  0  0  0  0  0  0  0  0  0
  -31.8552  -14.9347   20.1845 O   0  0  0  0  0  0  0  0  0  0  0  0
  -30.4626  -20.0863   26.4972 O   0  0  0  0  0  0  0  0  0  0  0  0
  -21.6092   -7.0206   21.7173 O   0  0  0  0  0  0  0  0  0  0  0  0
  -27.9346  -18.8453   27.5359 O   0  0  0  0  0  0  0  0  0  1  0  0
  -21.8749   -2.9407   18.0176 F   0  0  0  0  0  0  0  0  0  0  0  0
  -19.3358   -6.1340   20.4179 F   0  0  0  0  0  0  0  0  0  0  0  0
  -29.5193  -17.8633   22.9014 S   0  0  0  0  0  0  0  0  0  0  0  0
  -33.2244  -19.6839   22.0486 Cl  0  0  0  0  0  0  0  0  0  0  0  0
  1  2  1  0  0  0  0
  1  5  2  0  0  0  0
  2  6  2  0  0  0  0
  3  8  2  0  0  0  0
  3 15  1  0  0  0  0
  4  9  1  0  0  0  0
  4 15  2  0  0  0  0
  5 17  1  0  0  0  0
  6 19  1  0  0  0  0
  7 10  2  0  0  0  0
  7 18  1  0  0  0  0
  8 21  1  0  0  0  0
  9 21  2  0  0  0  0
 10 22  1  0  0  0  0
 11 12  2  0  0  0  0
 11 23  1  0  0  0  0
 12 24  1  0  0  0  0
 13 20  1  0  0  0  0
 13 22  2  0  0  0  0
 14 24  2  0  0  0  0
 14 25  1  0  0  0  0
 15 26  1  0  0  0  0
 16 26  1  0  0  0  0
 16 28  2  0  0  0  0
 16 31  1  0  0  0  0
 17 19  2  0  0  0  0
 17 36  1  0  0  0  0
 18 20  2  0  0  0  0
 18 37  1  0  0  0  0
 19 45  1  0  0  0  0
 20 38  1  0  0  0  0
 21 81  1  0  0  0  0
 22 82  1  0  0  0  0
 23 25  2  0  0  0  0
 23 81  1  0  0  0  0
 24 83  1  0  0  0  0
 25 84  1  0  0  0  0
 26 63  2  0  0  0  0
 27 29  2  0  0  0  0
 27 64  1  0  0  0  0
 27 86  1  0  0  0  0
 28 65  1  0  0  0  0
 28 68  1  0  0  0  0
 29 70  1  0  0  0  0
 29 85  1  0  0  0  0
 30 64  2  0  0  0  0
 30 71  1  0  0  0  0
 30 85  1  0  0  0  0
 31 69  1  0  0  0  0
 31 75  2  0  0  0  0
 32 46  1  0  0  0  0
 32 72  1  0  0  0  0
 32 76  2  0  0  0  0
 33 57  1  0  0  0  0
 33 66  1  0  0  0  0
 33 77  2  0  0  0  0
 34 58  1  0  0  0  0
 34 73  1  0  0  0  0
 34 78  2  0  0  0  0
 35 67  1  0  0  0  0
 35 71  1  0  0  0  0
 35 79  2  0  0  0  0
 36 39  1  0  0  0  0
 37 46  1  0  0  0  0
 38 66  1  0  0  0  0
 39 41  1  0  0  0  0
 40 42  1  0  0  0  0
 40 43  1  0  0  0  0
 41 45  1  0  0  0  0
 42 47  1  0  0  0  0
 43 67  1  0  0  0  0
 44 47  1  0  0  0  0
 44 67  1  0  0  0  0
 45 72  1  0  0  0  0
 46 66  1  0  0  0  0
 47 65  1  0  0  0  0
 48 58  1  0  0  0  0
 49 59  1  0  0  0  0
 50 59  1  0  0  0  0
 51 62  1  0  0  0  0
 52 62  1  0  0  0  0
 53 62  1  0  0  0  0
 54 74  1  0  0  0  0
 55 59  1  0  0  0  0
 55 60  1  0  0  0  0
 56 61  1  0  0  0  0
 56 82  1  0  0  0  0
 57 62  1  0  0  0  0
 57 73  1  0  0  0  0
 58 74  1  0  0  0  0
 60 61  1  0  0  0  0
 60 70  1  0  0  0  0
 61 80  1  0  0  0  0
 63 65  1  0  0  0  0
M  CHG  1  74   1
M  ISO  4  35 100  56 101  71 100  82 101
M  END
> <Batch ID>
0197

> <Smiles>
CNC(C)C(=O)NC(C(=O)N1Cc2cc([101O:1][101CH2:1]C(O)C(CC(C)C)Nc3sc([100NH:0][100C:0](=O)N4CCCC(n5nc(-c6ccc(Oc7ccc(F)cc7F)cc6)c(C(N)=O)c5N)C4)nc3Cl)ccc2CC1C(=O)NC1CCCc2ccccc21)C(C)(C)C

> <Shape>
0.153

> <Color>
0.180

> <Negative vol penalty>
0.000

$$$$

  -OEChem-04052305413D

 84 92  0     1  0  0  0  0  0999 V2000
  -27.3923  -23.6615   17.4766 C   0  0  0  0  0  0  0  0  0  0  0  0
  -26.3549  -24.5592   17.7024 C   0  0  0  0  0  0  0  0  0  0  0  0
  -26.8090  -15.1596   19.5407 C   0  0  0  0  0  0  0  0  0  0  0  0
  -24.5041  -15.1462   20.2647 C   0  0  0  0  0  0  0  0  0  0  0  0
  -28.4664  -23.6065   18.3623 C   0  0  0  0  0  0  0  0  0  0  0  0
  -26.3970  -25.4104   18.8072 C   0  0  0  0  0  0  0  0  0  0  0  0
  -22.8928  -28.8499   19.1135 C   0  0  0  0  0  0  0  0  0  0  0  0
  -26.9083  -13.7991   19.8314 C   0  0  0  0  0  0  0  0  0  0  0  0
  -24.6033  -13.7855   20.5554 C   0  0  0  0  0  0  0  0  0  0  0  0
  -21.5666  -28.5494   19.4212 C   0  0  0  0  0  0  0  0  0  0  0  0
  -24.5530  -10.8664   18.8535 C   0  0  0  0  0  0  0  0  0  0  0  0
  -23.5112  -10.0383   18.4357 C   0  0  0  0  0  0  0  0  0  0  0  0
  -21.9089  -29.3647   21.6656 C   0  0  0  0  0  0  0  0  0  0  0  0
  -23.0992   -9.3996   20.7291 C   0  0  0  0  0  0  0  0  0  0  0  0
  -25.6069  -15.8332   19.7574 C   0  0  0  0  0  0  0  0  0  0  0  0
  -25.6955  -17.8579   18.2081 C   0  0  0  0  0  0  0  0  0  0  0  0
  -28.5148  -24.4491   19.4851 C   0  0  0  0  0  0  0  0  0  0  0  0
  -23.7414  -29.4008   20.0844 C   0  0  0  0  0  0  0  0  0  0  0  0
  -27.4841  -25.3866   19.6995 C   0  0  0  0  0  0  0  0  0  0  0  0
  -23.2447  -29.6736   21.3669 C   0  0  0  0  0  0  0  0  0  0  0  0
  -25.8055  -13.1120   20.3387 C   0  0  0  0  0  0  0  0  0  0  0  0
  -21.0752  -28.8041   20.6982 C   0  0  0  0  0  0  0  0  0  0  0  0
  -24.8679  -10.9611   20.2091 C   0  0  0  0  0  0  0  0  0  0  0  0
  -22.7843   -9.3049   19.3735 C   0  0  0  0  0  0  0  0  0  0  0  0
  -24.1410  -10.2277   21.1468 C   0  0  0  0  0  0  0  0  0  0  0  0
  -25.5038  -17.2388   19.4578 C   0  0  0  0  0  0  0  0  0  0  0  0
  -18.0235  -22.9059   22.1796 C   0  0  0  0  0  0  0  0  0  0  0  0
  -25.4856  -19.1934   18.4507 C   0  0  0  0  0  0  0  0  0  0  0  0
  -17.5713  -21.8422   21.4272 C   0  0  0  0  0  0  0  0  0  0  0  0
  -19.9302  -21.8550   21.9150 C   0  0  0  0  0  0  0  0  0  0  0  0
  -26.0330  -17.2777   16.9411 C   0  0  0  0  0  0  0  0  0  0  0  0
  -26.4341  -28.4739   21.4964 C   0  0  0  0  0  0  0  0  0  0  0  0
  -26.3204  -31.4463   22.7905 C   0  0  0  0  0  0  0  0  0  0  0  0
  -24.4340  -34.1443   23.6900 C   0  0  0  0  0  0  0  0  0  0  0  0
  -22.3410  -22.1463   22.5856 C   0  0  0  0  0  0  0  0  0  0  0  0
  -29.7048  -24.3530   20.4070 C   0  0  0  0  0  0  0  0  0  0  0  0
  -25.1621  -29.7440   19.7288 C   0  0  0  0  0  0  0  0  0  0  0  0
  -24.1093  -30.2831   22.4391 C   0  0  0  0  0  0  0  0  0  0  0  0
  -29.4476  -24.9734   21.7764 C   0  0  0  0  0  0  0  0  0  0  0  0
  -25.8260  -22.4660   21.9304 C   0  0  0  0  0  0  0  0  0  0  0  0
  -28.8558  -26.3654   21.6134 C   0  0  0  0  0  0  0  0  0  0  0  0
  -26.1551  -21.2213   21.1031 C   0  0  0  0  0  0  0  0  0  0  0  0
  -24.7889  -22.1701   23.0123 C   0  0  0  0  0  0  0  0  0  0  0  0
  -23.8853  -20.2873   21.7054 C   0  0  0  0  0  0  0  0  0  0  0  0
  -27.4935  -26.3008   20.9113 C   0  0  1  0  0  0  0  0  0  0  0  0
  -26.0794  -29.8259   20.9450 C   0  0  1  0  0  0  0  0  0  0  0  0
  -24.8774  -20.5510   20.5609 C   0  0  2  0  0  0  0  0  0  0  0  0
  -16.1435  -23.5044   23.7213 C   0  0  0  0  0  0  0  0  0  0  0  0
  -24.6164  -36.4069   24.7598 C   0  0  0  0  0  0  0  0  0  0  0  0
  -16.5865  -25.9697   19.3608 C   0  0  0  0  0  0  0  0  0  0  0  0
  -26.5778  -30.1275   25.5299 C   0  0  0  0  0  0  0  0  0  0  0  0
  -25.8094  -32.2765   26.5593 C   0  0  0  0  0  0  0  0  0  0  0  0
  -27.9286  -32.2128   25.2449 C   0  0  0  0  0  0  0  0  0  0  0  0
  -23.4427  -35.5037   21.2552 C   0  0  0  0  0  0  0  0  0  0  0  0
  -18.1171  -26.7985   21.2017 C   0  0  0  0  0  0  0  0  0  0  0  0
  -16.4535  -24.8477   21.6067 C   0  0  0  0  0  0  0  0  0  0  0  0
  -19.1823  -27.4191   20.3050 C   0  0  0  0  0  0  0  0  0  1  0  0
  -17.1697  -24.0425   22.7150 C   0  0  2  0  0  0  0  0  0  0  0  0
  -25.7145  -32.0478   24.0355 C   0  0  1  0  0  0  0  0  0  0  0  0
  -24.6249  -35.6313   23.4517 C   0  0  2  0  0  0  0  0  0  0  0  0
  -17.3827  -25.5797   20.6120 C   0  0  1  0  0  0  0  0  0  0  0  0
  -26.4915  -31.6529   25.3230 C   0  0  0  0  0  0  0  0  0  0  0  0
  -25.1960  -18.1095   20.4227 N   0  0  0  0  0  0  0  0  0  0  0  0
  -19.3758  -22.9147   22.4606 N   0  0  0  0  0  0  0  0  0  0  0  0
  -25.1928  -19.2894   19.7793 N   0  0  0  0  0  0  0  0  0  0  0  0
  -25.4930  -30.5950   22.0445 N   0  0  0  0  0  0  0  0  0  0  0  0
  -23.6047  -21.5399   22.4244 N   0  0  0  0  0  0  0  0  0  0  0  0
  -25.5250  -20.2833   17.6551 N   0  0  0  0  0  0  0  0  0  0  0  0
  -24.9931  -16.8654   16.0968 N   0  0  0  0  0  0  0  0  0  0  0  0
  -21.2943  -21.4739   21.9554 N   0  0  0  0  0  0  0  0  0  0  0  0
  -27.0643  -27.6439   20.5890 N   0  0  0  0  0  0  0  0  0  0  0  0
  -25.6404  -33.4856   23.7997 N   0  0  0  0  0  0  0  0  0  0  0  0
  -23.5350  -36.1611   22.5842 N   0  3  0  0  0  0  0  0  0  0  0  0
  -27.2219  -17.1142   16.5758 O   0  0  0  0  0  0  0  0  0  0  0  0
  -26.1580  -28.2044   22.6595 O   0  0  0  0  0  0  0  0  0  0  0  0
  -27.4825  -31.7272   22.4870 O   0  0  0  0  0  0  0  0  0  0  0  0
  -23.3255  -33.6201   23.7743 O   0  0  0  0  0  0  0  0  0  0  0  0
  -22.2019  -23.2000   23.2118 O   0  0  0  0  0  0  0  0  0  0  0  0
  -25.9019  -11.7843   20.6223 O   0  0  0  0  0  0  0  0  0  0  0  0
  -19.7813  -28.5112   21.0014 O   0  0  0  0  0  0  0  0  0  1  0  0
  -21.7829   -8.5109   18.9723 F   0  0  0  0  0  0  0  0  0  0  0  0
  -24.4381  -10.3155   22.4506 F   0  0  0  0  0  0  0  0  0  0  0  0
  -16.3062  -21.6463   21.0467 F   0  0  0  0  0  0  0  0  0  0  0  0
  -18.8843  -20.8056   21.0490 S   0  0  0  0  0  0  0  0  0  0  0  0
  1  2  1  0  0  0  0
  1  5  2  0  0  0  0
  2  6  2  0  0  0  0
  3  8  2  0  0  0  0
  3 15  1  0  0  0  0
  4  9  1  0  0  0  0
  4 15  2  0  0  0  0
  5 17  1  0  0  0  0
  6 19  1  0  0  0  0
  7 10  2  0  0  0  0
  7 18  1  0  0  0  0
  8 21  1  0  0  0  0
  9 21  2  0  0  0  0
 10 22  1  0  0  0  0
 11 12  2  0  0  0  0
 11 23  1  0  0  0  0
 12 24  1  0  0  0  0
 13 20  1  0  0  0  0
 13 22  2  0  0  0  0
 14 24  2  0  0  0  0
 14 25  1  0  0  0  0
 15 26  1  0  0  0  0
 16 26  1  0  0  0  0
 16 28  2  0  0  0  0
 16 31  1  0  0  0  0
 17 19  2  0  0  0  0
 17 36  1  0  0  0  0
 18 20  2  0  0  0  0
 18 37  1  0  0  0  0
 19 45  1  0  0  0  0
 20 38  1  0  0  0  0
 21 79  1  0  0  0  0
 22 80  1  0  0  0  0
 23 25  2  0  0  0  0
 23 79  1  0  0  0  0
 24 81  1  0  0  0  0
 25 82  1  0  0  0  0
 26 63  2  0  0  0  0
 27 29  2  0  0  0  0
 27 58  1  0  0  0  0
 27 64  1  0  0  0  0
 28 65  1  0  0  0  0
 28 68  1  0  0  0  0
 29 83  1  0  0  0  0
 29 84  1  0  0  0  0
 30 64  2  0  0  0  0
 30 70  1  0  0  0  0
 30 84  1  0  0  0  0
 31 69  1  0  0  0  0
 31 74  2  0  0  0  0
 32 46  1  0  0  0  0
 32 71  1  0  0  0  0
 32 75  2  0  0  0  0
 33 59  1  0  0  0  0
 33 66  1  0  0  0  0
 33 76  2  0  0  0  0
 34 60  1  0  0  0  0
 34 72  1  0  0  0  0
 34 77  2  0  0  0  0
 35 67  1  0  0  0  0
 35 70  1  0  0  0  0
 35 78  2  0  0  0  0
 36 39  1  0  0  0  0
 37 46  1  0  0  0  0
 38 66  1  0  0  0  0
 39 41  1  0  0  0  0
 40 42  1  0  0  0  0
 40 43  1  0  0  0  0
 41 45  1  0  0  0  0
 42 47  1  0  0  0  0
 43 67  1  0  0  0  0
 44 47  1  0  0  0  0
 44 67  1  0  0  0  0
 45 71  1  0  0  0  0
 46 66  1  0  0  0  0
 47 65  1  0  0  0  0
 48 58  1  0  0  0  0
 49 60  1  0  0  0  0
 50 61  1  0  0  0  0
 51 62  1  0  0  0  0
 52 62  1  0  0  0  0
 53 62  1  0  0  0  0
 54 73  1  0  0  0  0
 55 57  1  0  0  0  0
 55 61  1  0  0  0  0
 56 58  1  0  0  0  0
 56 61  1  0  0  0  0
 57 80  1  0  0  0  0
 59 62  1  0  0  0  0
 59 72  1  0  0  0  0
 60 73  1  0  0  0  0
 63 65  1  0  0  0  0
M  CHG  1  73   1
M  ISO  4  35 100  57 101  70 100  80 101
M  END
> <Batch ID>
0197

> <Smiles>
CNC(C)C(=O)NC(C(=O)N1Cc2cc([101O:1][101CH2:1]CC(C)CC(C)c3nc([100NH:0][100C:0](=O)N4CCCC(n5nc(-c6ccc(Oc7ccc(F)cc7F)cc6)c(C(N)=O)c5N)C4)sc3F)ccc2CC1C(=O)NC1CCCc2ccccc21)C(C)(C)C

> <Shape>
0.240

> <Color>
0.068

> <Negative vol penalty>
0.000

$$$$

  -OEChem-04052305413D

 76 83  0     1  0  0  0  0  0999 V2000
  -30.9254  -22.8005   14.8471 C   0  0  0  0  0  0  0  0  0  0  0  0
  -30.5219  -22.5869   16.1613 C   0  0  0  0  0  0  0  0  0  0  0  0
  -27.9682  -13.8919   22.9088 C   0  0  0  0  0  0  0  0  0  0  0  0
  -26.3465  -15.4963   22.1130 C   0  0  0  0  0  0  0  0  0  0  0  0
  -31.0875  -24.1011   14.3716 C   0  0  0  0  0  0  0  0  0  0  0  0
  -30.2812  -23.6738   17.0010 C   0  0  0  0  0  0  0  0  0  0  0  0
  -26.0169  -23.1509   19.6818 C   0  0  0  0  0  0  0  0  0  0  0  0
  -27.3374  -12.8891   22.1724 C   0  0  0  0  0  0  0  0  0  0  0  0
  -25.7158  -14.4935   21.3766 C   0  0  0  0  0  0  0  0  0  0  0  0
  -26.0628  -22.3112   20.7938 C   0  0  0  0  0  0  0  0  0  0  0  0
  -23.5728  -11.9452   21.9633 C   0  0  0  0  0  0  0  0  0  0  0  0
  -22.1806  -11.8788   22.0186 C   0  0  0  0  0  0  0  0  0  0  0  0
  -26.2922  -24.2357   22.2300 C   0  0  0  0  0  0  0  0  0  0  0  0
  -22.0697  -12.2156   19.6287 C   0  0  0  0  0  0  0  0  0  0  0  0
  -27.4727  -15.1955   22.8791 C   0  0  0  0  0  0  0  0  0  0  0  0
  -29.1668  -17.0737   23.2107 C   0  0  0  0  0  0  0  0  0  0  0  0
  -30.8394  -25.2046   15.2030 C   0  0  0  0  0  0  0  0  0  0  0  0
  -26.1194  -24.5410   19.8349 C   0  0  0  0  0  0  0  0  0  0  0  0
  -30.4415  -24.9903   16.5365 C   0  0  0  0  0  0  0  0  0  0  0  0
  -26.2447  -25.0910   21.1186 C   0  0  0  0  0  0  0  0  0  0  0  0
  -26.2113  -13.1899   21.4063 C   0  0  0  0  0  0  0  0  0  0  0  0
  -26.2034  -22.8533   22.0679 C   0  0  0  0  0  0  0  0  0  0  0  0
  -24.2135  -12.1468   20.7408 C   0  0  0  0  0  0  0  0  0  0  0  0
  -21.4291  -12.0140   20.8513 C   0  0  0  0  0  0  0  0  0  0  0  0
  -23.4619  -12.2820   19.5735 C   0  0  0  0  0  0  0  0  0  0  0  0
  -28.1234  -16.2317   23.6400 C   0  0  0  0  0  0  0  0  0  0  0  0
  -29.4280  -17.8764   24.2942 C   0  0  0  0  0  0  0  0  0  0  0  0
  -29.8397  -17.1256   21.9457 C   0  0  0  0  0  0  0  0  0  0  0  0
  -28.1737  -26.7601   18.8556 C   0  0  0  0  0  0  0  0  0  0  0  0
  -26.0077  -28.7878   20.1668 C   0  0  0  0  0  0  0  0  0  0  0  0
  -23.4797  -29.2733   22.4074 C   0  0  0  0  0  0  0  0  0  0  0  0
  -27.1613  -21.1425   28.3576 C   0  0  0  0  0  0  0  0  0  0  0  0
  -31.0739  -26.5913   14.6582 C   0  0  0  0  0  0  0  0  0  0  0  0
  -26.0413  -25.4347   18.6276 C   0  0  0  0  0  0  0  0  0  0  0  0
  -26.3384  -26.5780   21.3385 C   0  0  0  0  0  0  0  0  0  0  0  0
  -30.4366  -27.6928   15.5013 C   0  0  0  0  0  0  0  0  0  0  0  0
  -27.8631  -17.5818   29.0858 C   0  0  0  0  0  0  0  0  0  0  0  0
  -30.7350  -27.4727   16.9810 C   0  0  0  0  0  0  0  0  0  0  0  0
  -28.0066  -16.9783   27.6897 C   0  0  0  0  0  0  0  0  0  0  0  0
  -26.9383  -18.7952   29.0869 C   0  0  0  0  0  0  0  0  0  0  0  0
  -27.4699  -19.2458   26.7145 C   0  0  0  0  0  0  0  0  0  0  0  0
  -30.1468  -26.1439   17.4707 C   0  0  1  0  0  0  0  0  0  0  0  0
  -26.6718  -26.8049   18.8566 C   0  0  1  0  0  0  0  0  0  0  0  0
  -28.4321  -18.0492   26.6702 C   0  0  2  0  0  0  0  0  0  0  0  0
  -21.9324  -31.0469   23.2777 C   0  0  0  0  0  0  0  0  0  0  0  0
  -28.2983  -29.9882   21.7860 C   0  0  0  0  0  0  0  0  0  0  0  0
  -26.5930  -31.0510   23.2796 C   0  0  0  0  0  0  0  0  0  0  0  0
  -26.6849  -31.6610   20.8625 C   0  0  0  0  0  0  0  0  0  0  0  0
  -27.4144  -23.4814   27.6191 C   0  0  0  0  0  0  0  0  0  0  0  0
  -21.0828  -27.7809   21.5206 C   0  0  0  0  0  0  0  0  0  0  0  0
  -28.3973  -21.7018   26.2217 C   0  0  0  0  0  0  0  0  0  0  0  0
  -27.0099  -22.4867   24.2750 C   0  0  0  0  0  0  0  0  0  1  0  0
  -25.7991  -29.3905   21.5350 C   0  0  1  0  0  0  0  0  0  0  0  0
  -22.1182  -29.9291   22.2635 C   0  0  2  0  0  0  0  0  0  0  0  0
  -27.5489  -21.2754   25.0274 C   0  0  1  0  0  0  0  0  0  0  0  0
  -26.8440  -30.4945   21.8618 C   0  0  0  0  0  0  0  0  0  0  0  0
  -27.7476  -16.4766   24.8980 N   0  0  0  0  0  0  0  0  0  0  0  0
  -28.5593  -17.4815   25.2687 N   0  0  0  0  0  0  0  0  0  0  0  0
  -26.2636  -27.4098   20.1261 N   0  0  0  0  0  0  0  0  0  0  0  0
  -27.3399  -19.7774   28.0794 N   0  0  0  0  0  0  0  0  0  0  0  0
  -30.3138  -18.8743   24.4990 N   0  0  0  0  0  0  0  0  0  0  0  0
  -29.4464  -16.2294   20.9425 N   0  0  0  0  0  0  0  0  0  0  0  0
  -28.7212  -26.2707   17.6850 N   0  0  0  0  0  0  0  0  0  0  0  0
  -24.4145  -29.8484   21.5727 N   0  0  0  0  0  0  0  0  0  0  0  0
  -27.5686  -22.0547   27.3724 N   0  0  0  0  0  0  0  0  0  0  0  0
  -21.0357  -28.9253   22.4667 N   0  3  0  0  0  0  0  0  0  0  0  0
  -30.7734  -17.9316   21.7174 O   0  0  0  0  0  0  0  0  0  0  0  0
  -28.7903  -27.1427   19.8431 O   0  0  0  0  0  0  0  0  0  0  0  0
  -25.9388  -29.5115   19.1702 O   0  0  0  0  0  0  0  0  0  0  0  0
  -23.6936  -28.3463   23.1855 O   0  0  0  0  0  0  0  0  0  0  0  0
  -26.6748  -21.5245   29.4297 O   0  0  0  0  0  0  0  0  0  0  0  0
  -28.3614  -20.5257   24.1222 O   0  0  0  0  0  0  0  0  0  0  0  0
  -25.5957  -12.2117   20.6875 O   0  0  0  0  0  0  0  0  0  0  0  0
  -26.2491  -22.0359   23.1550 O   0  0  0  0  0  0  0  0  0  1  0  0
  -20.0923  -11.9486   20.9043 F   0  0  0  0  0  0  0  0  0  0  0  0
  -24.0718  -12.4747   18.3959 F   0  0  0  0  0  0  0  0  0  0  0  0
  1  2  1  0  0  0  0
  1  5  2  0  0  0  0
  2  6  2  0  0  0  0
  3  8  2  0  0  0  0
  3 15  1  0  0  0  0
  4  9  1  0  0  0  0
  4 15  2  0  0  0  0
  5 17  1  0  0  0  0
  6 19  1  0  0  0  0
  7 10  2  0  0  0  0
  7 18  1  0  0  0  0
  8 21  1  0  0  0  0
  9 21  2  0  0  0  0
 10 22  1  0  0  0  0
 11 12  2  0  0  0  0
 11 23  1  0  0  0  0
 12 24  1  0  0  0  0
 13 20  1  0  0  0  0
 13 22  2  0  0  0  0
 14 24  2  0  0  0  0
 14 25  1  0  0  0  0
 15 26  1  0  0  0  0
 16 26  1  0  0  0  0
 16 27  2  0  0  0  0
 16 28  1  0  0  0  0
 17 19  2  0  0  0  0
 17 33  1  0  0  0  0
 18 20  2  0  0  0  0
 18 34  1  0  0  0  0
 19 42  1  0  0  0  0
 20 35  1  0  0  0  0
 21 73  1  0  0  0  0
 22 74  1  0  0  0  0
 23 25  2  0  0  0  0
 23 73  1  0  0  0  0
 24 75  1  0  0  0  0
 25 76  1  0  0  0  0
 26 57  2  0  0  0  0
 27 58  1  0  0  0  0
 27 61  1  0  0  0  0
 28 62  1  0  0  0  0
 28 67  2  0  0  0  0
 29 43  1  0  0  0  0
 29 63  1  0  0  0  0
 29 68  2  0  0  0  0
 30 53  1  0  0  0  0
 30 59  1  0  0  0  0
 30 69  2  0  0  0  0
 31 54  1  0  0  0  0
 31 64  1  0  0  0  0
 31 70  2  0  0  0  0
 32 60  1  0  0  0  0
 32 65  1  0  0  0  0
 32 71  2  0  0  0  0
 33 36  1  0  0  0  0
 34 43  1  0  0  0  0
 35 59  1  0  0  0  0
 36 38  1  0  0  0  0
 37 39  1  0  0  0  0
 37 40  1  0  0  0  0
 38 42  1  0  0  0  0
 39 44  1  0  0  0  0
 40 60  1  0  0  0  0
 41 44  1  0  0  0  0
 41 60  1  0  0  0  0
 42 63  1  0  0  0  0
 43 59  1  0  0  0  0
 44 58  1  0  0  0  0
 45 54  1  0  0  0  0
 46 56  1  0  0  0  0
 47 56  1  0  0  0  0
 48 56  1  0  0  0  0
 49 65  1  0  0  0  0
 50 66  1  0  0  0  0
 51 55  1  0  0  0  0
 51 65  1  0  0  0  0
 52 55  1  0  0  0  0
 52 74  1  0  0  0  0
 53 56  1  0  0  0  0
 53 64  1  0  0  0  0
 54 66  1  0  0  0  0
 55 72  1  0  0  0  0
 57 58  1  0  0  0  0
M  CHG  1  66   1
M  ISO  4  32 100  52 101  65 100  74 101
M  END
> <Batch ID>
0197

> <Smiles>
CNC(C)C(=O)NC(C(=O)N1Cc2cc([101O:1][101CH2:1]C(O)C[100N:0](C)[100C:0](=O)N3CCCC(n4nc(-c5ccc(Oc6ccc(F)cc6F)cc5)c(C(N)=O)c4N)C3)ccc2CC1C(=O)NC1CCCc2ccccc21)C(C)(C)C

> <Shape>
0.171

> <Color>
0.056

> <Negative vol penalty>
0.000

$$$$

  -OEChem-04052305413D

 81 89  0     1  0  0  0  0  0999 V2000
  -21.5287  -13.0641   19.5269 C   0  0  0  0  0  0  0  0  0  0  0  0
  -21.6017  -14.4169   19.8431 C   0  0  0  0  0  0  0  0  0  0  0  0
  -29.8227  -26.8035   22.3411 C   0  0  0  0  0  0  0  0  0  0  0  0
  -28.1723  -25.0897   22.7605 C   0  0  0  0  0  0  0  0  0  0  0  0
  -22.6180  -12.2309   19.7781 C   0  0  0  0  0  0  0  0  0  0  0  0
  -22.7639  -14.9371   20.4117 C   0  0  0  0  0  0  0  0  0  0  0  0
  -24.1721  -19.3153   18.2919 C   0  0  0  0  0  0  0  0  0  0  0  0
  -30.6844  -26.1975   23.2553 C   0  0  0  0  0  0  0  0  0  0  0  0
  -29.0340  -24.4836   23.6748 C   0  0  0  0  0  0  0  0  0  0  0  0
  -23.4788  -20.4616   18.6779 C   0  0  0  0  0  0  0  0  0  0  0  0
  -31.0447  -26.0426   26.6125 C   0  0  0  0  0  0  0  0  0  0  0  0
  -31.7003  -26.8658   27.5279 C   0  0  0  0  0  0  0  0  0  0  0  0
  -18.7571  -26.3712   23.0261 C   0  0  0  0  0  0  0  0  0  0  0  0
  -25.2771  -21.0364   20.1796 C   0  0  0  0  0  0  0  0  0  0  0  0
  -33.8326  -26.1282   26.6642 C   0  0  0  0  0  0  0  0  0  0  0  0
  -18.6684  -24.9954   23.0862 C   0  0  0  0  0  0  0  0  0  0  0  0
  -28.5666  -26.2496   22.0937 C   0  0  0  0  0  0  0  0  0  0  0  0
  -27.5873  -26.6223   19.7678 C   0  0  0  0  0  0  0  0  0  0  0  0
  -23.7975  -12.7430   20.3411 C   0  0  0  0  0  0  0  0  0  0  0  0
  -25.4203  -19.0147   18.8559 C   0  0  0  0  0  0  0  0  0  0  0  0
  -23.8695  -14.1097   20.6718 C   0  0  0  0  0  0  0  0  0  0  0  0
  -25.9854  -19.8869   19.7972 C   0  0  0  0  0  0  0  0  0  0  0  0
  -30.2900  -25.0375   23.9222 C   0  0  0  0  0  0  0  0  0  0  0  0
  -24.0299  -21.3209   19.6240 C   0  0  0  0  0  0  0  0  0  0  0  0
  -31.7830  -25.2620   25.7229 C   0  0  0  0  0  0  0  0  0  0  0  0
  -33.0942  -26.9087   27.5537 C   0  0  0  0  0  0  0  0  0  0  0  0
  -33.1770  -25.3049   25.7488 C   0  0  0  0  0  0  0  0  0  0  0  0
  -27.6759  -26.8755   21.1498 C   0  0  0  0  0  0  0  0  0  0  0  0
  -19.9453  -26.8720   22.5345 C   0  0  0  0  0  0  0  0  0  0  0  0
  -26.5976  -27.4664   19.3269 C   0  0  0  0  0  0  0  0  0  0  0  0
  -20.7654  -24.7728   22.2375 C   0  0  0  0  0  0  0  0  0  0  0  0
  -28.3330  -25.7060   18.9554 C   0  0  0  0  0  0  0  0  0  0  0  0
  -26.5728  -16.6278   20.6104 C   0  0  0  0  0  0  0  0  0  0  0  0
  -29.3873  -18.1788   20.1682 C   0  0  0  0  0  0  0  0  0  0  0  0
  -31.0073  -21.1044   19.4875 C   0  0  0  0  0  0  0  0  0  0  0  0
  -21.9166  -30.0303   22.0409 C   0  0  0  0  0  0  0  0  0  0  0  0
  -24.9318  -11.7942   20.6378 C   0  0  0  0  0  0  0  0  0  0  0  0
  -26.1676  -17.7881   18.4092 C   0  0  0  0  0  0  0  0  0  0  0  0
  -27.3316  -19.6201   20.4176 C   0  0  0  0  0  0  0  0  0  0  0  0
  -26.2619  -12.4971   20.8966 C   0  0  0  0  0  0  0  0  0  0  0  0
  -24.5558  -31.6797   20.3116 C   0  0  0  0  0  0  0  0  0  0  0  0
  -26.0700  -13.6659   21.8578 C   0  0  0  0  0  0  0  0  0  0  0  0
  -25.6467  -30.6127   20.2056 C   0  0  0  0  0  0  0  0  0  0  0  0
  -23.8014  -31.5860   21.6360 C   0  0  0  0  0  0  0  0  0  0  0  0
  -24.3337  -29.1876   21.8317 C   0  0  0  0  0  0  0  0  0  0  0  0
  -25.1218  -14.7162   21.2668 C   0  0  1  0  0  0  0  0  0  0  0  0
  -27.1985  -17.3123   19.4281 C   0  0  1  0  0  0  0  0  0  0  0  0
  -25.0851  -29.2065   20.4895 C   0  0  2  0  0  0  0  0  0  0  0  0
  -33.3105  -22.0670   19.2301 C   0  0  0  0  0  0  0  0  0  0  0  0
  -29.7349  -18.1516   23.1994 C   0  0  0  0  0  0  0  0  0  0  0  0
  -31.5006  -19.9079   22.9428 C   0  0  0  0  0  0  0  0  0  0  0  0
  -31.8185  -17.6614   21.9060 C   0  0  0  0  0  0  0  0  0  0  0  0
  -30.4957  -21.8781   16.6771 C   0  0  0  0  0  0  0  0  0  0  0  0
  -20.1343  -28.3482   22.4323 C   0  0  0  0  0  0  0  0  0  0  0  0
  -23.0579  -24.4376   21.3114 C   0  0  0  0  0  0  0  0  0  0  0  0
  -23.9787  -23.2761   20.9769 C   0  0  0  0  0  0  0  0  0  1  0  0
  -30.1379  -19.2625   20.9038 C   0  0  1  0  0  0  0  0  0  0  0  0
  -32.1264  -21.4337   18.5161 C   0  0  2  0  0  0  0  0  0  0  0  0
  -30.7717  -18.7502   22.2279 C   0  0  0  0  0  0  0  0  0  0  0  0
  -19.6569  -24.1629   22.6988 N   0  0  0  0  0  0  0  0  0  0  0  0
  -26.8115  -27.8076   21.5597 N   0  0  0  0  0  0  0  0  0  0  0  0
  -20.9743  -26.0988   22.1299 N   0  0  0  0  0  0  0  0  0  0  0  0
  -26.1704  -28.1475   20.4285 N   0  0  0  0  0  0  0  0  0  0  0  0
  -28.0204  -18.4047   19.9529 N   0  0  0  0  0  0  0  0  0  0  0  0
  -23.2933  -30.2278   21.8440 N   0  0  0  0  0  0  0  0  0  0  0  0
  -26.0598  -27.6850   18.1081 N   0  0  0  0  0  0  0  0  0  0  0  0
  -29.3127  -24.9137   19.5690 N   0  0  0  0  0  0  0  0  0  0  0  0
  -21.8013  -23.9484   21.8307 N   0  0  0  0  0  0  0  0  0  0  0  0
  -25.8112  -15.5225   20.2824 N   0  0  0  0  0  0  0  0  0  0  0  0
  -31.0999  -19.8099   19.9535 N   0  0  0  0  0  0  0  0  0  0  0  0
  -21.5183  -28.7118   22.2241 N   0  0  0  0  0  0  0  0  0  0  0  0
  -31.6443  -22.3825   17.4729 N   0  3  0  0  0  0  0  0  0  0  0  0
  -28.1476  -25.6050   17.7189 O   0  0  0  0  0  0  0  0  0  0  0  0
  -26.7680  -17.0689   21.7369 O   0  0  0  0  0  0  0  0  0  0  0  0
  -29.9931  -17.1722   19.7919 O   0  0  0  0  0  0  0  0  0  0  0  0
  -30.1401  -21.9155   19.8044 O   0  0  0  0  0  0  0  0  0  0  0  0
  -21.1021  -30.9595   22.0473 O   0  0  0  0  0  0  0  0  0  0  0  0
  -31.1307  -24.4458   24.8142 O   0  0  0  0  0  0  0  0  0  0  0  0
  -23.3550  -22.4401   20.0030 O   0  0  0  0  0  0  0  0  0  1  0  0
  -33.7237  -27.7005   28.4318 F   0  0  0  0  0  0  0  0  0  0  0  0
  -33.8917  -24.5582   24.8958 F   0  0  0  0  0  0  0  0  0  0  0  0
  1  2  1  0  0  0  0
  1  5  2  0  0  0  0
  2  6  2  0  0  0  0
  3  8  2  0  0  0  0
  3 17  1  0  0  0  0
  4  9  1  0  0  0  0
  4 17  2  0  0  0  0
  5 19  1  0  0  0  0
  6 21  1  0  0  0  0
  7 10  2  0  0  0  0
  7 20  1  0  0  0  0
  8 23  1  0  0  0  0
  9 23  2  0  0  0  0
 10 24  1  0  0  0  0
 11 12  2  0  0  0  0
 11 25  1  0  0  0  0
 12 26  1  0  0  0  0
 13 16  1  0  0  0  0
 13 29  2  0  0  0  0
 14 22  1  0  0  0  0
 14 24  2  0  0  0  0
 15 26  2  0  0  0  0
 15 27  1  0  0  0  0
 16 60  2  0  0  0  0
 17 28  1  0  0  0  0
 18 28  1  0  0  0  0
 18 30  2  0  0  0  0
 18 32  1  0  0  0  0
 19 21  2  0  0  0  0
 19 37  1  0  0  0  0
 20 22  2  0  0  0  0
 20 38  1  0  0  0  0
 21 46  1  0  0  0  0
 22 39  1  0  0  0  0
 23 78  1  0  0  0  0
 24 79  1  0  0  0  0
 25 27  2  0  0  0  0
 25 78  1  0  0  0  0
 26 80  1  0  0  0  0
 27 81  1  0  0  0  0
 28 61  2  0  0  0  0
 29 54  1  0  0  0  0
 29 62  1  0  0  0  0
 30 63  1  0  0  0  0
 30 66  1  0  0  0  0
 31 60  1  0  0  0  0
 31 62  2  0  0  0  0
 31 68  1  0  0  0  0
 32 67  1  0  0  0  0
 32 73  2  0  0  0  0
 33 47  1  0  0  0  0
 33 69  1  0  0  0  0
 33 74  2  0  0  0  0
 34 57  1  0  0  0  0
 34 64  1  0  0  0  0
 34 75  2  0  0  0  0
 35 58  1  0  0  0  0
 35 70  1  0  0  0  0
 35 76  2  0  0  0  0
 36 65  1  0  0  0  0
 36 71  1  0  0  0  0
 36 77  2  0  0  0  0
 37 40  1  0  0  0  0
 38 47  1  0  0  0  0
 39 64  1  0  0  0  0
 40 42  1  0  0  0  0
 41 43  1  0  0  0  0
 41 44  1  0  0  0  0
 42 46  1  0  0  0  0
 43 48  1  0  0  0  0
 44 65  1  0  0  0  0
 45 48  1  0  0  0  0
 45 65  1  0  0  0  0
 46 69  1  0  0  0  0
 47 64  1  0  0  0  0
 48 63  1  0  0  0  0
 49 58  1  0  0  0  0
 50 59  1  0  0  0  0
 51 59  1  0  0  0  0
 52 59  1  0  0  0  0
 53 72  1  0  0  0  0
 54 71  1  0  0  0  0
 55 56  1  0  0  0  0
 55 68  1  0  0  0  0
 56 79  1  0  0  0  0
 57 59  1  0  0  0  0
 57 70  1  0  0  0  0
 58 72  1  0  0  0  0
 61 63  1  0  0  0  0
M  CHG  1  72   1
M  ISO  4  36 100  56 101  71 100  79 101
M  END
> <Batch ID>
0197

> <Smiles>
CNC(C)C(=O)NC(C(=O)N1Cc2cc([101O:1][101CH2:1]CNc3nccc(C[100NH:0][100C:0](=O)N4CCCC(n5nc(-c6ccc(Oc7ccc(F)cc7F)cc6)c(C(N)=O)c5N)C4)n3)ccc2CC1C(=O)NC1CCCc2ccccc21)C(C)(C)C

> <Shape>
0.208

> <Color>
0.071

> <Negative vol penalty>
0.000

$$$$

  -OEChem-04052305413D

 82 90  0     1  0  0  0  0  0999 V2000
  -21.8715  -12.1871   19.2054 C   0  0  0  0  0  0  0  0  0  0  0  0
  -21.7200  -13.5008   19.6376 C   0  0  0  0  0  0  0  0  0  0  0  0
  -30.4284  -26.6659   21.9177 C   0  0  0  0  0  0  0  0  0  0  0  0
  -29.5118  -26.8497   24.1455 C   0  0  0  0  0  0  0  0  0  0  0  0
  -23.0796  -11.5220   19.4103 C   0  0  0  0  0  0  0  0  0  0  0  0
  -22.7764  -14.1497   20.2759 C   0  0  0  0  0  0  0  0  0  0  0  0
  -23.4724  -18.8674   18.5718 C   0  0  0  0  0  0  0  0  0  0  0  0
  -31.7135  -26.5813   22.4533 C   0  0  0  0  0  0  0  0  0  0  0  0
  -30.7969  -26.7651   24.6812 C   0  0  0  0  0  0  0  0  0  0  0  0
  -22.5979  -19.8482   19.0377 C   0  0  0  0  0  0  0  0  0  0  0  0
  -35.2042  -25.9543   23.2513 C   0  0  0  0  0  0  0  0  0  0  0  0
  -36.0591  -24.9805   22.7352 C   0  0  0  0  0  0  0  0  0  0  0  0
  -24.2640  -20.5713   20.6252 C   0  0  0  0  0  0  0  0  0  0  0  0
  -19.9526  -26.6139   22.1170 C   0  0  0  0  0  0  0  0  0  0  0  0
  -34.5049  -23.2583   23.4103 C   0  0  0  0  0  0  0  0  0  0  0  0
  -18.6616  -26.0487   23.9653 C   0  0  0  0  0  0  0  0  0  0  0  0
  -29.3275  -26.8002   22.7637 C   0  0  0  0  0  0  0  0  0  0  0  0
  -27.1206  -25.8233   21.9373 C   0  0  0  0  0  0  0  0  0  0  0  0
  -24.1545  -12.1663   20.0429 C   0  0  0  0  0  0  0  0  0  0  0  0
  -24.7475  -18.7239   19.1376 C   0  0  0  0  0  0  0  0  0  0  0  0
  -23.9995  -13.4922   20.4907 C   0  0  0  0  0  0  0  0  0  0  0  0
  -25.1538  -19.5896   20.1630 C   0  0  0  0  0  0  0  0  0  0  0  0
  -19.3645  -25.5664   22.8833 C   0  0  0  0  0  0  0  0  0  0  0  0
  -31.8977  -26.6309   23.8351 C   0  0  0  0  0  0  0  0  0  0  0  0
  -22.9925  -20.6985   20.0665 C   0  0  0  0  0  0  0  0  0  0  0  0
  -33.9996  -25.5801   23.8470 C   0  0  0  0  0  0  0  0  0  0  0  0
  -35.7095  -23.6325   22.8147 C   0  0  0  0  0  0  0  0  0  0  0  0
  -33.6500  -24.2321   23.9264 C   0  0  0  0  0  0  0  0  0  0  0  0
  -27.9998  -26.8881   22.2110 C   0  0  0  0  0  0  0  0  0  0  0  0
  -19.6764  -27.8571   22.6426 C   0  0  0  0  0  0  0  0  0  0  0  0
  -25.9979  -26.4276   21.4265 C   0  0  0  0  0  0  0  0  0  0  0  0
  -27.3024  -24.4139   22.1280 C   0  0  0  0  0  0  0  0  0  0  0  0
  -26.2568  -16.4094   20.7088 C   0  0  0  0  0  0  0  0  0  0  0  0
  -28.7849  -18.4275   20.4676 C   0  0  0  0  0  0  0  0  0  0  0  0
  -20.1560  -23.5984   21.5252 C   0  0  0  0  0  0  0  0  0  0  0  0
  -29.9129  -21.6248   20.0779 C   0  0  0  0  0  0  0  0  0  0  0  0
  -22.1489  -30.4658   21.5772 C   0  0  0  0  0  0  0  0  0  0  0  0
  -25.4253  -11.3908   20.2844 C   0  0  0  0  0  0  0  0  0  0  0  0
  -25.6889  -17.6784   18.6056 C   0  0  0  0  0  0  0  0  0  0  0  0
  -26.5195  -19.4901   20.7902 C   0  0  0  0  0  0  0  0  0  0  0  0
  -26.6205  -12.2737   20.6338 C   0  0  0  0  0  0  0  0  0  0  0  0
  -25.2185  -31.1953   19.9274 C   0  0  0  0  0  0  0  0  0  0  0  0
  -26.2315  -13.3069   21.6864 C   0  0  0  0  0  0  0  0  0  0  0  0
  -26.1443  -30.0559   20.3568 C   0  0  0  0  0  0  0  0  0  0  0  0
  -24.2801  -31.6159   21.0564 C   0  0  0  0  0  0  0  0  0  0  0  0
  -24.4208  -29.3784   22.0799 C   0  0  0  0  0  0  0  0  0  0  0  0
  -25.1305  -14.2381   21.1649 C   0  0  1  0  0  0  0  0  0  0  0  0
  -26.7737  -17.2874   19.6045 C   0  0  1  0  0  0  0  0  0  0  0  0
  -25.3476  -28.8819   20.9571 C   0  0  2  0  0  0  0  0  0  0  0  0
  -32.0306  -22.9657   19.9584 C   0  0  0  0  0  0  0  0  0  0  0  0
  -29.1033  -18.1898   23.4928 C   0  0  0  0  0  0  0  0  0  0  0  0
  -30.5615  -20.2240   23.4291 C   0  0  0  0  0  0  0  0  0  0  0  0
  -31.2512  -18.1586   22.2122 C   0  0  0  0  0  0  0  0  0  0  0  0
  -29.3089  -22.5503   17.3324 C   0  0  0  0  0  0  0  0  0  0  0  0
  -20.1012  -29.1827   22.1431 C   0  0  0  0  0  0  0  0  0  0  0  0
  -20.0199  -22.0810   21.5793 C   0  0  0  0  0  0  0  0  0  0  0  0
  -20.7439  -21.3751   20.4429 C   0  0  0  0  0  0  0  0  0  1  0  0
  -29.3418  -19.5491   21.3107 C   0  0  1  0  0  0  0  0  0  0  0  0
  -30.9726  -22.2148   19.1650 C   0  0  2  0  0  0  0  0  0  0  0  0
  -30.0379  -19.0312   22.6009 C   0  0  0  0  0  0  0  0  0  0  0  0
  -27.4804  -28.0787   21.8996 N   0  0  0  0  0  0  0  0  0  0  0  0
  -26.2628  -27.7655   21.4249 N   0  0  0  0  0  0  0  0  0  0  0  0
  -27.4016  -18.4477   20.2400 N   0  0  0  0  0  0  0  0  0  0  0  0
  -23.5535  -30.4570   21.5805 N   0  0  0  0  0  0  0  0  0  0  0  0
  -24.8200  -25.9396   20.9829 N   0  0  0  0  0  0  0  0  0  0  0  0
  -28.5166  -23.9634   22.6639 N   0  0  0  0  0  0  0  0  0  0  0  0
  -19.4747  -24.1869   22.5873 N   0  0  0  0  0  0  0  0  0  0  0  0
  -25.6886  -15.2288   20.2696 N   0  0  0  0  0  0  0  0  0  0  0  0
  -30.2108  -20.3263   20.4337 N   0  0  0  0  0  0  0  0  0  0  0  0
  -21.5390  -29.3255   22.0857 N   0  0  0  0  0  0  0  0  0  0  0  0
  -30.3522  -23.1615   18.1955 N   0  3  0  0  0  0  0  0  0  0  0  0
  -26.4209  -23.5776   21.8166 O   0  0  0  0  0  0  0  0  0  0  0  0
  -26.3666  -16.7752   21.8732 O   0  0  0  0  0  0  0  0  0  0  0  0
  -29.5502  -17.5691   20.0212 O   0  0  0  0  0  0  0  0  0  0  0  0
  -20.7908  -24.1658   20.6424 O   0  0  0  0  0  0  0  0  0  0  0  0
  -28.9220  -22.2541   20.4422 O   0  0  0  0  0  0  0  0  0  0  0  0
  -21.4873  -31.4169   21.1475 O   0  0  0  0  0  0  0  0  0  0  0  0
  -33.1516  -26.5482   24.3582 O   0  0  0  0  0  0  0  0  0  0  0  0
  -22.1406  -21.6562   20.5235 O   0  0  0  0  0  0  0  0  0  1  0  0
  -36.5298  -22.6975   22.3176 F   0  0  0  0  0  0  0  0  0  0  0  0
  -32.4936  -23.8666   24.4964 F   0  0  0  0  0  0  0  0  0  0  0  0
  -18.7121  -27.7581   24.0542 S   0  0  0  0  0  0  0  0  0  0  0  0
  1  2  1  0  0  0  0
  1  5  2  0  0  0  0
  2  6  2  0  0  0  0
  3  8  2  0  0  0  0
  3 17  1  0  0  0  0
  4  9  1  0  0  0  0
  4 17  2  0  0  0  0
  5 19  1  0  0  0  0
  6 21  1  0  0  0  0
  7 10  2  0  0  0  0
  7 20  1  0  0  0  0
  8 24  1  0  0  0  0
  9 24  2  0  0  0  0
 10 25  1  0  0  0  0
 11 12  2  0  0  0  0
 11 26  1  0  0  0  0
 12 27  1  0  0  0  0
 13 22  1  0  0  0  0
 13 25  2  0  0  0  0
 14 23  1  0  0  0  0
 14 30  2  0  0  0  0
 15 27  2  0  0  0  0
 15 28  1  0  0  0  0
 16 23  2  0  0  0  0
 16 82  1  0  0  0  0
 17 29  1  0  0  0  0
 18 29  1  0  0  0  0
 18 31  2  0  0  0  0
 18 32  1  0  0  0  0
 19 21  2  0  0  0  0
 19 38  1  0  0  0  0
 20 22  2  0  0  0  0
 20 39  1  0  0  0  0
 21 47  1  0  0  0  0
 22 40  1  0  0  0  0
 23 67  1  0  0  0  0
 24 78  1  0  0  0  0
 25 79  1  0  0  0  0
 26 28  2  0  0  0  0
 26 78  1  0  0  0  0
 27 80  1  0  0  0  0
 28 81  1  0  0  0  0
 29 61  2  0  0  0  0
 30 55  1  0  0  0  0
 30 82  1  0  0  0  0
 31 62  1  0  0  0  0
 31 65  1  0  0  0  0
 32 66  1  0  0  0  0
 32 72  2  0  0  0  0
 33 48  1  0  0  0  0
 33 68  1  0  0  0  0
 33 73  2  0  0  0  0
 34 58  1  0  0  0  0
 34 63  1  0  0  0  0
 34 74  2  0  0  0  0
 35 56  1  0  0  0  0
 35 67  1  0  0  0  0
 35 75  2  0  0  0  0
 36 59  1  0  0  0  0
 36 69  1  0  0  0  0
 36 76  2  0  0  0  0
 37 64  1  0  0  0  0
 37 70  1  0  0  0  0
 37 77  2  0  0  0  0
 38 41  1  0  0  0  0
 39 48  1  0  0  0  0
 40 63  1  0  0  0  0
 41 43  1  0  0  0  0
 42 44  1  0  0  0  0
 42 45  1  0  0  0  0
 43 47  1  0  0  0  0
 44 49  1  0  0  0  0
 45 64  1  0  0  0  0
 46 49  1  0  0  0  0
 46 64  1  0  0  0  0
 47 68  1  0  0  0  0
 48 63  1  0  0  0  0
 49 62  1  0  0  0  0
 50 59  1  0  0  0  0
 51 60  1  0  0  0  0
 52 60  1  0  0  0  0
 53 60  1  0  0  0  0
 54 71  1  0  0  0  0
 55 70  1  0  0  0  0
 56 57  1  0  0  0  0
 57 79  1  0  0  0  0
 58 60  1  0  0  0  0
 58 69  1  0  0  0  0
 59 71  1  0  0  0  0
 61 62  1  0  0  0  0
M  CHG  1  71   1
M  ISO  4  37 100  57 101  70 100  79 101
M  END
> <Batch ID>
0197

> <Smiles>
CNC(C)C(=O)NC(C(=O)N1Cc2cc([101O:1][101CH2:1]CC(=O)Nc3csc(C[100NH:0][100C:0](=O)N4CCCC(n5nc(-c6ccc(Oc7ccc(F)cc7F)cc6)c(C(N)=O)c5N)C4)c3)ccc2CC1C(=O)NC1CCCc2ccccc21)C(C)(C)C

> <Shape>
0.197

> <Color>
0.092

> <Negative vol penalty>
0.000

$$$$

  -OEChem-04052305413D

 86 94  0     1  0  0  0  0  0999 V2000
  -22.7352  -18.3127   20.8899 C   0  0  0  0  0  0  0  0  0  0  0  0
  -24.0109  -18.8670   20.8633 C   0  0  0  0  0  0  0  0  0  0  0  0
  -26.3352  -12.7433   21.5893 C   0  0  0  0  0  0  0  0  0  0  0  0
  -25.8442  -13.6133   19.3895 C   0  0  0  0  0  0  0  0  0  0  0  0
  -21.6341  -19.0821   20.5164 C   0  0  0  0  0  0  0  0  0  0  0  0
  -24.1864  -20.1908   20.4620 C   0  0  0  0  0  0  0  0  0  0  0  0
  -28.3169  -24.1712   22.6071 C   0  0  0  0  0  0  0  0  0  0  0  0
  -25.1158  -12.0661   21.5936 C   0  0  0  0  0  0  0  0  0  0  0  0
  -24.6248  -12.9360   19.3938 C   0  0  0  0  0  0  0  0  0  0  0  0
  -29.5587  -24.5845   22.1267 C   0  0  0  0  0  0  0  0  0  0  0  0
  -23.8358   -9.2319   20.2663 C   0  0  0  0  0  0  0  0  0  0  0  0
  -23.8320   -7.9063   20.7004 C   0  0  0  0  0  0  0  0  0  0  0  0
  -28.5158  -26.5005   21.0969 C   0  0  0  0  0  0  0  0  0  0  0  0
  -22.2897   -8.4890   22.4664 C   0  0  0  0  0  0  0  0  0  0  0  0
  -28.0084  -23.7298   16.8534 C   0  0  0  0  0  0  0  0  0  0  0  0
  -26.6994  -13.5170   20.4872 C   0  0  0  0  0  0  0  0  0  0  0  0
  -29.1968  -13.7366   20.0157 C   0  0  0  0  0  0  0  0  0  0  0  0
  -21.7951  -20.4190   20.1196 C   0  0  0  0  0  0  0  0  0  0  0  0
  -27.1617  -24.9148   22.3263 C   0  0  0  0  0  0  0  0  0  0  0  0
  -23.0866  -20.9785   20.0815 C   0  0  0  0  0  0  0  0  0  0  0  0
  -27.2609  -26.0958   21.5770 C   0  0  0  0  0  0  0  0  0  0  0  0
  -24.2606  -12.1624   20.4959 C   0  0  0  0  0  0  0  0  0  0  0  0
  -29.6579  -25.7478   21.3690 C   0  0  0  0  0  0  0  0  0  0  0  0
  -23.0665  -10.1860   20.9323 C   0  0  0  0  0  0  0  0  0  0  0  0
  -23.0589   -7.5348   21.8004 C   0  0  0  0  0  0  0  0  0  0  0  0
  -22.2935   -9.8146   22.0324 C   0  0  0  0  0  0  0  0  0  0  0  0
  -27.9586  -14.2172   20.4824 C   0  0  0  0  0  0  0  0  0  0  0  0
  -27.1613  -22.6413   16.8974 C   0  0  0  0  0  0  0  0  0  0  0  0
  -28.9960  -23.7570   17.8169 C   0  0  0  0  0  0  0  0  0  0  0  0
  -30.0707  -14.7743   20.2301 C   0  0  0  0  0  0  0  0  0  0  0  0
  -28.2651  -21.7912   18.6934 C   0  0  0  0  0  0  0  0  0  0  0  0
  -29.5273  -12.4659   19.4398 C   0  0  0  0  0  0  0  0  0  0  0  0
  -24.4489  -24.3432   20.7713 C   0  0  0  0  0  0  0  0  0  0  0  0
  -23.6362  -27.2712   21.9064 C   0  0  0  0  0  0  0  0  0  0  0  0
  -24.6564  -30.3145   23.0660 C   0  0  0  0  0  0  0  0  0  0  0  0
  -29.3528  -20.6892   20.6806 C   0  0  0  0  0  0  0  0  0  0  0  0
  -20.5803  -21.1969   19.6794 C   0  0  0  0  0  0  0  0  0  0  0  0
  -25.8335  -24.4697   22.8743 C   0  0  0  0  0  0  0  0  0  0  0  0
  -26.0538  -26.9407   21.2648 C   0  0  0  0  0  0  0  0  0  0  0  0
  -20.8094  -22.7052   19.6255 C   0  0  0  0  0  0  0  0  0  0  0  0
  -30.7920  -18.5273   23.1162 C   0  0  0  0  0  0  0  0  0  0  0  0
  -22.1244  -23.0204   18.9195 C   0  0  0  0  0  0  0  0  0  0  0  0
  -30.3465  -17.1324   22.6712 C   0  0  0  0  0  0  0  0  0  0  0  0
  -29.7061  -19.5739   22.8730 C   0  0  0  0  0  0  0  0  0  0  0  0
  -28.7347  -18.2212   21.0576 C   0  0  0  0  0  0  0  0  0  0  0  0
  -23.3148  -22.4184   19.6759 C   0  0  1  0  0  0  0  0  0  0  0  0
  -24.6476  -25.0281   22.0938 C   0  0  1  0  0  0  0  0  0  0  0  0
  -29.8196  -17.1444   21.2228 C   0  0  2  0  0  0  0  0  0  0  0  0
  -23.7618  -32.5134   23.8794 C   0  0  0  0  0  0  0  0  0  0  0  0
  -31.9359  -22.5441   17.1999 C   0  0  0  0  0  0  0  0  0  0  0  0
  -31.9170  -24.6009   15.7673 C   0  0  0  0  0  0  0  0  0  0  0  0
  -31.4283  -28.2710   19.9692 C   0  0  0  0  0  0  0  0  0  0  0  0
  -22.9835  -28.0656   19.0336 C   0  0  0  0  0  0  0  0  0  0  0  0
  -23.0231  -30.4610   19.7607 C   0  0  0  0  0  0  0  0  0  0  0  0
  -21.3516  -28.8895   20.7402 C   0  0  0  0  0  0  0  0  0  0  0  0
  -25.9213  -29.9790   25.7205 C   0  0  0  0  0  0  0  0  0  0  0  0
  -31.7450  -26.1620   18.6265 C   0  0  0  0  0  0  0  0  0  0  0  0
  -23.7817  -28.6889   21.4086 C   0  0  1  0  0  0  0  0  0  0  0  0
  -24.2333  -31.1238   24.2786 C   0  0  2  0  0  0  0  0  0  0  0  0
  -32.1266  -24.0656   17.1875 C   0  0  0  0  0  0  0  0  0  0  0  0
  -31.2410  -24.7518   18.2595 C   0  0  2  0  0  0  0  0  0  0  0  0
  -30.8778  -26.8822   19.6716 C   0  0  1  0  0  0  0  0  0  1  0  0
  -22.8076  -29.0096   20.2399 C   0  0  0  0  0  0  0  0  0  0  0  0
  -28.0351  -15.4632   20.9575 N   0  0  0  0  0  0  0  0  0  0  0  0
  -27.2612  -21.6500   17.8070 N   0  0  0  0  0  0  0  0  0  0  0  0
  -29.1539  -22.8010   18.7557 N   0  0  0  0  0  0  0  0  0  0  0  0
  -29.3318  -15.7742   20.7906 N   0  0  0  0  0  0  0  0  0  0  0  0
  -24.7766  -26.4604   21.8177 N   0  0  0  0  0  0  0  0  0  0  0  0
  -29.2587  -19.5298   21.4791 N   0  0  0  0  0  0  0  0  0  0  0  0
  -26.1344  -22.5742   15.9243 N   0  0  0  0  0  0  0  0  0  0  0  0
  -31.3916  -14.9197   19.9920 N   0  0  0  0  0  0  0  0  0  0  0  0
  -28.5091  -11.5143   19.2916 N   0  0  0  0  0  0  0  0  0  0  0  0
  -29.8655  -24.8312   17.8064 N   0  0  0  0  0  0  0  0  0  0  0  0
  -28.4005  -20.7688   19.6651 N   0  0  0  0  0  0  0  0  0  0  0  0
  -23.6389  -23.2253   20.8327 N   0  0  0  0  0  0  0  0  0  0  0  0
  -23.6192  -29.5499   22.5751 N   0  0  0  0  0  0  0  0  0  0  0  0
  -25.3730  -31.2689   25.2278 N   0  3  0  0  0  0  0  0  0  0  0  0
  -30.6946  -12.1767   19.0829 O   0  0  0  0  0  0  0  0  0  0  0  0
  -24.9893  -24.7962   19.7690 O   0  0  0  0  0  0  0  0  0  0  0  0
  -22.5528  -26.8991   22.3639 O   0  0  0  0  0  0  0  0  0  0  0  0
  -25.7922  -30.3591   22.5985 O   0  0  0  0  0  0  0  0  0  0  0  0
  -30.2317  -21.5350   20.8657 O   0  0  0  0  0  0  0  0  0  0  0  0
  -23.0707  -11.5015   20.4997 O   0  0  0  0  0  0  0  0  0  0  0  0
  -30.8687  -26.1532   20.8984 O   0  0  0  0  0  0  0  0  0  1  0  0
  -23.0542   -6.2615   22.2162 F   0  0  0  0  0  0  0  0  0  0  0  0
  -21.5515  -10.7266   22.6755 F   0  0  0  0  0  0  0  0  0  0  0  0
  1  2  1  0  0  0  0
  1  5  2  0  0  0  0
  2  6  2  0  0  0  0
  3  8  2  0  0  0  0
  3 16  1  0  0  0  0
  4  9  1  0  0  0  0
  4 16  2  0  0  0  0
  5 18  1  0  0  0  0
  6 20  1  0  0  0  0
  7 10  2  0  0  0  0
  7 19  1  0  0  0  0
  8 22  1  0  0  0  0
  9 22  2  0  0  0  0
 10 23  1  0  0  0  0
 11 12  2  0  0  0  0
 11 24  1  0  0  0  0
 12 25  1  0  0  0  0
 13 21  1  0  0  0  0
 13 23  2  0  0  0  0
 14 25  2  0  0  0  0
 14 26  1  0  0  0  0
 15 28  2  0  0  0  0
 15 29  1  0  0  0  0
 16 27  1  0  0  0  0
 17 27  1  0  0  0  0
 17 30  2  0  0  0  0
 17 32  1  0  0  0  0
 18 20  2  0  0  0  0
 18 37  1  0  0  0  0
 19 21  2  0  0  0  0
 19 38  1  0  0  0  0
 20 46  1  0  0  0  0
 21 39  1  0  0  0  0
 22 83  1  0  0  0  0
 23 84  1  0  0  0  0
 24 26  2  0  0  0  0
 24 83  1  0  0  0  0
 25 85  1  0  0  0  0
 26 86  1  0  0  0  0
 27 64  2  0  0  0  0
 28 65  1  0  0  0  0
 28 70  1  0  0  0  0
 29 66  2  0  0  0  0
 29 73  1  0  0  0  0
 30 67  1  0  0  0  0
 30 71  1  0  0  0  0
 31 65  2  0  0  0  0
 31 66  1  0  0  0  0
 31 74  1  0  0  0  0
 32 72  1  0  0  0  0
 32 78  2  0  0  0  0
 33 47  1  0  0  0  0
 33 75  1  0  0  0  0
 33 79  2  0  0  0  0
 34 58  1  0  0  0  0
 34 68  1  0  0  0  0
 34 80  2  0  0  0  0
 35 59  1  0  0  0  0
 35 76  1  0  0  0  0
 35 81  2  0  0  0  0
 36 69  1  0  0  0  0
 36 74  1  0  0  0  0
 36 82  2  0  0  0  0
 37 40  1  0  0  0  0
 38 47  1  0  0  0  0
 39 68  1  0  0  0  0
 40 42  1  0  0  0  0
 41 43  1  0  0  0  0
 41 44  1  0  0  0  0
 42 46  1  0  0  0  0
 43 48  1  0  0  0  0
 44 69  1  0  0  0  0
 45 48  1  0  0  0  0
 45 69  1  0  0  0  0
 46 75  1  0  0  0  0
 47 68  1  0  0  0  0
 48 67  1  0  0  0  0
 49 59  1  0  0  0  0
 50 60  1  0  0  0  0
 51 60  1  0  0  0  0
 52 62  1  0  0  0  0
 53 63  1  0  0  0  0
 54 63  1  0  0  0  0
 55 63  1  0  0  0  0
 56 77  1  0  0  0  0
 57 61  1  0  0  0  0
 57 62  1  0  0  0  0
 58 63  1  0  0  0  0
 58 76  1  0  0  0  0
 59 77  1  0  0  0  0
 60 61  1  0  0  0  0
 61 73  1  0  0  0  0
 62 84  1  0  0  0  0
 64 67  1  0  0  0  0
M  CHG  1  77   1
M  ISO  4  36 100  62 101  74 100  84 101
M  END
> <Batch ID>
0197

> <Smiles>
CNC(C)C(=O)NC(C(=O)N1Cc2cc([101O:1][101CH:1](C)CC(Nc3cc(N)nc([100NH:0][100C:0](=O)N4CCCC(n5nc(-c6ccc(Oc7ccc(F)cc7F)cc6)c(C(N)=O)c5N)C4)n3)C(C)C)ccc2CC1C(=O)NC1CCCc2ccccc21)C(C)(C)C

> <Shape>
0.276

> <Color>
0.064

> <Negative vol penalty>
0.000

$$$$

  -OEChem-04052305413D

 80 88  0     1  0  0  0  0  0999 V2000
  -25.9528  -11.7817   20.5955 C   0  0  0  0  0  0  0  0  0  0  0  0
  -26.6368  -12.8781   20.0802 C   0  0  0  0  0  0  0  0  0  0  0  0
  -20.6236  -26.8604   22.1255 C   0  0  0  0  0  0  0  0  0  0  0  0
  -19.7536  -28.9258   23.0278 C   0  0  0  0  0  0  0  0  0  0  0  0
  -24.6676  -11.9430   21.1116 C   0  0  0  0  0  0  0  0  0  0  0  0
  -26.0356  -14.1362   20.0797 C   0  0  0  0  0  0  0  0  0  0  0  0
  -28.8072  -19.5411   20.8617 C   0  0  0  0  0  0  0  0  0  0  0  0
  -19.3928  -26.2437   22.3504 C   0  0  0  0  0  0  0  0  0  0  0  0
  -18.5228  -28.3091   23.2526 C   0  0  0  0  0  0  0  0  0  0  0  0
  -29.2435  -20.5107   19.9599 C   0  0  0  0  0  0  0  0  0  0  0  0
  -16.5886  -24.0273   23.0193 C   0  0  0  0  0  0  0  0  0  0  0  0
  -16.5936  -22.7566   23.5944 C   0  0  0  0  0  0  0  0  0  0  0  0
  -27.1842  -21.7257   20.2791 C   0  0  0  0  0  0  0  0  0  0  0  0
  -17.7170  -23.6422   25.5414 C   0  0  0  0  0  0  0  0  0  0  0  0
  -30.5184  -25.5758   20.4192 C   0  0  0  0  0  0  0  0  0  0  0  0
  -28.8368  -25.9635   19.0486 C   0  0  0  0  0  0  0  0  0  0  0  0
  -20.8040  -28.2014   22.4643 C   0  0  0  0  0  0  0  0  0  0  0  0
  -22.4859  -29.5196   21.0709 C   0  0  0  0  0  0  0  0  0  0  0  0
  -24.0541  -13.2056   21.1262 C   0  0  0  0  0  0  0  0  0  0  0  0
  -27.5493  -19.6511   21.4718 C   0  0  0  0  0  0  0  0  0  0  0  0
  -24.7405  -14.3143   20.5952 C   0  0  0  0  0  0  0  0  0  0  0  0
  -26.7353  -20.7576   21.1902 C   0  0  0  0  0  0  0  0  0  0  0  0
  -18.3424  -26.9681   22.9139 C   0  0  0  0  0  0  0  0  0  0  0  0
  -28.4308  -21.6017   19.6662 C   0  0  0  0  0  0  0  0  0  0  0  0
  -17.1478  -25.1055   23.7052 C   0  0  0  0  0  0  0  0  0  0  0  0
  -17.1578  -22.5640   24.8554 C   0  0  0  0  0  0  0  0  0  0  0  0
  -17.7119  -24.9130   24.9662 C   0  0  0  0  0  0  0  0  0  0  0  0
  -22.0753  -28.8389   22.2328 C   0  0  0  0  0  0  0  0  0  0  0  0
  -29.6651  -26.5271   20.9265 C   0  0  0  0  0  0  0  0  0  0  0  0
  -23.7642  -29.9366   21.3510 C   0  0  0  0  0  0  0  0  0  0  0  0
  -21.7753  -29.7540   19.8479 C   0  0  0  0  0  0  0  0  0  0  0  0
  -29.8116  -27.2345   22.2246 C   0  0  0  0  0  0  0  0  0  0  0  0
  -24.8967  -17.8997   21.4746 C   0  0  0  0  0  0  0  0  0  0  0  0
  -23.9440  -20.0509   23.7077 C   0  0  0  0  0  0  0  0  0  0  0  0
  -23.6919  -23.3874   25.0574 C   0  0  0  0  0  0  0  0  0  0  0  0
  -28.5345  -28.2610   24.0790 C   0  0  0  0  0  0  0  0  0  0  0  0
  -22.6451  -13.3219   21.6513 C   0  0  0  0  0  0  0  0  0  0  0  0
  -27.1045  -18.6106   22.4627 C   0  0  0  0  0  0  0  0  0  0  0  0
  -25.3849  -20.9327   21.8338 C   0  0  0  0  0  0  0  0  0  0  0  0
  -22.2252  -14.7576   21.9560 C   0  0  0  0  0  0  0  0  0  0  0  0
  -26.3646  -30.6616   25.5024 C   0  0  0  0  0  0  0  0  0  0  0  0
  -22.6122  -15.6824   20.8063 C   0  0  0  0  0  0  0  0  0  0  0  0
  -25.0771  -30.5129   24.6872 C   0  0  0  0  0  0  0  0  0  0  0  0
  -27.0372  -29.3124   25.7519 C   0  0  0  0  0  0  0  0  0  0  0  0
  -25.9901  -28.3556   23.7404 C   0  0  0  0  0  0  0  0  0  0  0  0
  -24.1316  -15.6997   20.5997 C   0  0  1  0  0  0  0  0  0  0  0  0
  -25.5895  -18.5579   22.6341 C   0  0  1  0  0  0  0  0  0  0  0  0
  -25.3125  -29.6934   23.4025 C   0  0  1  0  0  0  0  0  0  0  0  0
  -22.6778  -24.2079   27.2011 C   0  0  0  0  0  0  0  0  0  0  0  0
  -21.4518  -20.5204   22.0112 C   0  0  0  0  0  0  0  0  0  0  0  0
  -21.0483  -22.6222   23.3103 C   0  0  0  0  0  0  0  0  0  0  0  0
  -21.0324  -20.4160   24.4744 C   0  0  0  0  0  0  0  0  0  0  0  0
  -26.2072  -24.7160   25.8741 C   0  0  0  0  0  0  0  0  0  0  0  0
  -30.5273  -24.2055   18.2488 C   0  0  0  0  0  0  0  0  0  0  0  0
  -30.2606  -22.7734   18.6994 C   0  0  0  0  0  0  0  0  0  1  0  0
  -23.2288  -21.3800   23.6753 C   0  0  1  0  0  0  0  0  0  0  0  0
  -23.9621  -23.8111   26.4898 C   0  0  2  0  0  0  0  0  0  0  0  0
  -21.7149  -21.2307   23.3540 C   0  0  0  0  0  0  0  0  0  0  0  0
  -28.6203  -26.7638   20.0687 N   0  0  0  0  0  0  0  0  0  0  0  0
  -23.0165  -28.8220   23.1803 N   0  0  0  0  0  0  0  0  0  0  0  0
  -29.9745  -25.2239   19.2161 N   0  0  0  0  0  0  0  0  0  0  0  0
  -24.0312  -29.4972   22.6143 N   0  0  0  0  0  0  0  0  0  0  0  0
  -24.9919  -19.8854   22.7910 N   0  0  0  0  0  0  0  0  0  0  0  0
  -27.2332  -28.6037   24.4860 N   0  0  0  0  0  0  0  0  0  0  0  0
  -24.6746  -30.6327   20.6375 N   0  0  0  0  0  0  0  0  0  0  0  0
  -20.4706  -29.2563   19.7273 N   0  0  0  0  0  0  0  0  0  0  0  0
  -28.6197  -27.6247   22.8357 N   0  0  0  0  0  0  0  0  0  0  0  0
  -24.7682  -16.5296   21.5999 N   0  0  0  0  0  0  0  0  0  0  0  0
  -23.5076  -22.0249   24.9539 N   0  0  0  0  0  0  0  0  0  0  0  0
  -24.8940  -24.9737   26.5192 N   0  3  0  0  0  0  0  0  0  0  0  0
  -22.2882  -30.3719   18.8843 O   0  0  0  0  0  0  0  0  0  0  0  0
  -30.9347  -27.3968   22.6938 O   0  0  0  0  0  0  0  0  0  0  0  0
  -24.5063  -18.5845   20.5363 O   0  0  0  0  0  0  0  0  0  0  0  0
  -23.5907  -19.1938   24.5215 O   0  0  0  0  0  0  0  0  0  0  0  0
  -23.6452  -24.1858   24.1241 O   0  0  0  0  0  0  0  0  0  0  0  0
  -29.5375  -28.5321   24.7468 O   0  0  0  0  0  0  0  0  0  0  0  0
  -17.1412  -26.3667   23.1332 O   0  0  0  0  0  0  0  0  0  0  0  0
  -28.8540  -22.5491   18.7858 O   0  0  0  0  0  0  0  0  0  1  0  0
  -17.1612  -21.3439   25.4082 F   0  0  0  0  0  0  0  0  0  0  0  0
  -18.2496  -25.9452   25.6305 F   0  0  0  0  0  0  0  0  0  0  0  0
  1  2  1  0  0  0  0
  1  5  2  0  0  0  0
  2  6  2  0  0  0  0
  3  8  2  0  0  0  0
  3 17  1  0  0  0  0
  4  9  1  0  0  0  0
  4 17  2  0  0  0  0
  5 19  1  0  0  0  0
  6 21  1  0  0  0  0
  7 10  2  0  0  0  0
  7 20  1  0  0  0  0
  8 23  1  0  0  0  0
  9 23  2  0  0  0  0
 10 24  1  0  0  0  0
 11 12  2  0  0  0  0
 11 25  1  0  0  0  0
 12 26  1  0  0  0  0
 13 22  1  0  0  0  0
 13 24  2  0  0  0  0
 14 26  2  0  0  0  0
 14 27  1  0  0  0  0
 15 29  2  0  0  0  0
 15 61  1  0  0  0  0
 16 59  2  0  0  0  0
 16 61  1  0  0  0  0
 17 28  1  0  0  0  0
 18 28  1  0  0  0  0
 18 30  2  0  0  0  0
 18 31  1  0  0  0  0
 19 21  2  0  0  0  0
 19 37  1  0  0  0  0
 20 22  2  0  0  0  0
 20 38  1  0  0  0  0
 21 46  1  0  0  0  0
 22 39  1  0  0  0  0
 23 77  1  0  0  0  0
 24 78  1  0  0  0  0
 25 27  2  0  0  0  0
 25 77  1  0  0  0  0
 26 79  1  0  0  0  0
 27 80  1  0  0  0  0
 28 60  2  0  0  0  0
 29 32  1  0  0  0  0
 29 59  1  0  0  0  0
 30 62  1  0  0  0  0
 30 65  1  0  0  0  0
 31 66  1  0  0  0  0
 31 71  2  0  0  0  0
 32 67  1  0  0  0  0
 32 72  2  0  0  0  0
 33 47  1  0  0  0  0
 33 68  1  0  0  0  0
 33 73  2  0  0  0  0
 34 56  1  0  0  0  0
 34 63  1  0  0  0  0
 34 74  2  0  0  0  0
 35 57  1  0  0  0  0
 35 69  1  0  0  0  0
 35 75  2  0  0  0  0
 36 64  1  0  0  0  0
 36 67  1  0  0  0  0
 36 76  2  0  0  0  0
 37 40  1  0  0  0  0
 38 47  1  0  0  0  0
 39 63  1  0  0  0  0
 40 42  1  0  0  0  0
 41 43  1  0  0  0  0
 41 44  1  0  0  0  0
 42 46  1  0  0  0  0
 43 48  1  0  0  0  0
 44 64  1  0  0  0  0
 45 48  1  0  0  0  0
 45 64  1  0  0  0  0
 46 68  1  0  0  0  0
 47 63  1  0  0  0  0
 48 62  1  0  0  0  0
 49 57  1  0  0  0  0
 50 58  1  0  0  0  0
 51 58  1  0  0  0  0
 52 58  1  0  0  0  0
 53 70  1  0  0  0  0
 54 55  1  0  0  0  0
 54 61  1  0  0  0  0
 55 78  1  0  0  0  0
 56 58  1  0  0  0  0
 56 69  1  0  0  0  0
 57 70  1  0  0  0  0
 60 62  1  0  0  0  0
M  CHG  1  70   1
M  ISO  4  36 100  55 101  67 100  78 101
M  END
> <Batch ID>
0197

> <Smiles>
CNC(C)C(=O)NC(C(=O)N1Cc2cc([101O:1][101CH2:1]Cn3cnc(C(=O)[100NH:0][100C:0](=O)N4CCCC(n5nc(-c6ccc(Oc7ccc(F)cc7F)cc6)c(C(N)=O)c5N)C4)c3)ccc2CC1C(=O)NC1CCCc2ccccc21)C(C)(C)C

> <Shape>
0.232

> <Color>
0.084

> <Negative vol penalty>
0.000

$$$$

  -OEChem-04052305413D

 82 90  0     1  0  0  0  0  0999 V2000
  -32.1056  -15.3839   19.2703 C   0  0  0  0  0  0  0  0  0  0  0  0
  -31.1660  -16.4074   19.2004 C   0  0  0  0  0  0  0  0  0  0  0  0
  -28.7444  -25.7399   19.5924 C   0  0  0  0  0  0  0  0  0  0  0  0
  -26.5649  -24.7247   19.3548 C   0  0  0  0  0  0  0  0  0  0  0  0
  -31.6880  -14.0676   19.4623 C   0  0  0  0  0  0  0  0  0  0  0  0
  -29.8079  -16.1150   19.3214 C   0  0  0  0  0  0  0  0  0  0  0  0
  -25.5120  -19.5988   21.9509 C   0  0  0  0  0  0  0  0  0  0  0  0
  -29.3382  -24.4792   19.5321 C   0  0  0  0  0  0  0  0  0  0  0  0
  -27.1587  -23.4640   19.2945 C   0  0  0  0  0  0  0  0  0  0  0  0
  -24.5697  -20.4820   21.4259 C   0  0  0  0  0  0  0  0  0  0  0  0
  -28.7790  -21.5828   17.0018 C   0  0  0  0  0  0  0  0  0  0  0  0
  -28.3284  -20.7023   16.0184 C   0  0  0  0  0  0  0  0  0  0  0  0
  -22.9134  -18.7286   21.4650 C   0  0  0  0  0  0  0  0  0  0  0  0
  -27.6742  -19.1266   17.7291 C   0  0  0  0  0  0  0  0  0  0  0  0
  -18.4825  -28.1556   22.8902 C   0  0  0  0  0  0  0  0  0  0  0  0
  -27.3577  -25.8627   19.5038 C   0  0  0  0  0  0  0  0  0  0  0  0
  -26.4607  -28.0240   18.4880 C   0  0  0  0  0  0  0  0  0  0  0  0
  -30.3248  -13.7601   19.5954 C   0  0  0  0  0  0  0  0  0  0  0  0
  -25.1645  -18.2686   22.2272 C   0  0  0  0  0  0  0  0  0  0  0  0
  -29.3716  -14.7932   19.5141 C   0  0  0  0  0  0  0  0  0  0  0  0
  -23.8525  -17.8312   21.9959 C   0  0  0  0  0  0  0  0  0  0  0  0
  -28.5454  -23.3413   19.3831 C   0  0  0  0  0  0  0  0  0  0  0  0
  -23.2710  -20.0462   21.1801 C   0  0  0  0  0  0  0  0  0  0  0  0
  -28.6774  -21.2353   18.3489 C   0  0  0  0  0  0  0  0  0  0  0  0
  -27.7759  -19.4742   16.3821 C   0  0  0  0  0  0  0  0  0  0  0  0
  -28.1249  -20.0072   18.7125 C   0  0  0  0  0  0  0  0  0  0  0  0
  -26.7437  -27.1646   19.5666 C   0  0  0  0  0  0  0  0  0  0  0  0
  -19.8219  -28.0393   23.1977 C   0  0  0  0  0  0  0  0  0  0  0  0
  -25.8830  -29.1261   19.0696 C   0  0  0  0  0  0  0  0  0  0  0  0
  -19.5966  -26.2101   22.0089 C   0  0  0  0  0  0  0  0  0  0  0  0
  -26.6987  -27.8423   17.0859 C   0  0  0  0  0  0  0  0  0  0  0  0
  -26.1291  -15.4316   21.1670 C   0  0  0  0  0  0  0  0  0  0  0  0
  -24.1607  -14.3267   23.4965 C   0  0  0  0  0  0  0  0  0  0  0  0
  -21.4657  -14.8798   25.5159 C   0  0  0  0  0  0  0  0  0  0  0  0
  -22.8955  -29.9373   24.1947 C   0  0  0  0  0  0  0  0  0  0  0  0
  -29.9184  -12.3164   19.7544 C   0  0  0  0  0  0  0  0  0  0  0  0
  -26.1855  -17.3356   22.8184 C   0  0  0  0  0  0  0  0  0  0  0  0
  -23.4234  -16.4186   22.2943 C   0  0  0  0  0  0  0  0  0  0  0  0
  -28.4849  -12.1380   20.2480 C   0  0  0  0  0  0  0  0  0  0  0  0
  -25.8524  -31.6233   23.1505 C   0  0  0  0  0  0  0  0  0  0  0  0
  -27.5351  -13.0407   19.4672 C   0  0  0  0  0  0  0  0  0  0  0  0
  -26.3906  -30.7493   22.0162 C   0  0  0  0  0  0  0  0  0  0  0  0
  -25.2227  -30.7837   24.2597 C   0  0  0  0  0  0  0  0  0  0  0  0
  -24.7222  -28.9651   22.6735 C   0  0  0  0  0  0  0  0  0  0  0  0
  -27.8910  -14.5191   19.6656 C   0  0  1  0  0  0  0  0  0  0  0  0
  -25.8593  -15.8645   22.5803 C   0  0  1  0  0  0  0  0  0  0  0  0
  -25.3169  -29.7700   21.5052 C   0  0  2  0  0  0  0  0  0  0  0  0
  -20.0734  -13.7773   27.2889 C   0  0  0  0  0  0  0  0  0  0  0  0
  -22.7988  -12.6220   21.3636 C   0  0  0  0  0  0  0  0  0  0  0  0
  -20.8837  -12.2994   22.9437 C   0  0  0  0  0  0  0  0  0  0  0  0
  -23.1547  -11.4661   23.5526 C   0  0  0  0  0  0  0  0  0  0  0  0
  -22.1424  -16.9629   27.5062 C   0  0  0  0  0  0  0  0  0  0  0  0
  -20.6077  -28.9945   24.0039 C   0  0  0  0  0  0  0  0  0  0  0  0
  -21.2163  -24.4227   21.3708 C   0  0  0  0  0  0  0  0  0  0  0  0
  -22.4962  -22.2870   20.9950 C   0  0  0  0  0  0  0  0  0  1  0  0
  -22.7001  -13.9530   23.5738 C   0  0  1  0  0  0  0  0  0  0  0  0
  -21.2661  -14.6778   27.0071 C   0  0  2  0  0  0  0  0  0  0  0  0
  -21.1207  -22.9451   20.9956 C   0  0  1  0  0  0  0  0  0  0  0  0
  -22.3926  -12.6113   22.8509 C   0  0  0  0  0  0  0  0  0  0  0  0
  -26.3761  -27.6768   20.7441 N   0  0  0  0  0  0  0  0  0  0  0  0
  -20.4623  -26.9241   22.6936 N   0  0  0  0  0  0  0  0  0  0  0  0
  -25.8564  -28.8700   20.4089 N   0  0  0  0  0  0  0  0  0  0  0  0
  -24.4595  -15.5426   22.8655 N   0  0  0  0  0  0  0  0  0  0  0  0
  -24.2120  -29.8776   23.7088 N   0  0  0  0  0  0  0  0  0  0  0  0
  -25.4004  -30.2796   18.5608 N   0  0  0  0  0  0  0  0  0  0  0  0
  -27.3011  -26.6508   16.6594 N   0  0  0  0  0  0  0  0  0  0  0  0
  -19.9008  -25.0224   21.3655 N   0  0  0  0  0  0  0  0  0  0  0  0
  -27.4188  -14.9843   20.9521 N   0  0  0  0  0  0  0  0  0  0  0  0
  -22.3507  -13.9624   24.9902 N   0  0  0  0  0  0  0  0  0  0  0  0
  -21.9991  -29.0484   23.6141 N   0  0  0  0  0  0  0  0  0  0  0  0
  -21.0361  -15.9870   27.6809 N   0  3  0  0  0  0  0  0  0  0  0  0
  -26.4015  -28.7177   16.2381 O   0  0  0  0  0  0  0  0  0  0  0  0
  -25.2332  -15.4970   20.3335 O   0  0  0  0  0  0  0  0  0  0  0  0
  -25.0048  -13.5711   23.9846 O   0  0  0  0  0  0  0  0  0  0  0  0
  -20.8910  -15.7607   24.8802 O   0  0  0  0  0  0  0  0  0  0  0  0
  -22.5436  -30.7282   25.0766 O   0  0  0  0  0  0  0  0  0  0  0  0
  -20.3154  -22.2685   21.9631 O   0  0  0  0  0  0  0  0  0  0  0  0
  -29.1245  -22.1110   19.3240 O   0  0  0  0  0  0  0  0  0  0  0  0
  -22.3494  -20.9060   20.6670 O   0  0  0  0  0  0  0  0  0  1  0  0
  -27.3418  -18.6293   15.4377 F   0  0  0  0  0  0  0  0  0  0  0  0
  -28.0236  -19.6683   20.0051 F   0  0  0  0  0  0  0  0  0  0  0  0
  -17.9949  -26.8211   21.9297 S   0  0  0  0  0  0  0  0  0  0  0  0
  1  2  1  0  0  0  0
  1  5  2  0  0  0  0
  2  6  2  0  0  0  0
  3  8  2  0  0  0  0
  3 16  1  0  0  0  0
  4  9  1  0  0  0  0
  4 16  2  0  0  0  0
  5 18  1  0  0  0  0
  6 20  1  0  0  0  0
  7 10  2  0  0  0  0
  7 19  1  0  0  0  0
  8 22  1  0  0  0  0
  9 22  2  0  0  0  0
 10 23  1  0  0  0  0
 11 12  2  0  0  0  0
 11 24  1  0  0  0  0
 12 25  1  0  0  0  0
 13 21  1  0  0  0  0
 13 23  2  0  0  0  0
 14 25  2  0  0  0  0
 14 26  1  0  0  0  0
 15 28  2  0  0  0  0
 15 82  1  0  0  0  0
 16 27  1  0  0  0  0
 17 27  1  0  0  0  0
 17 29  2  0  0  0  0
 17 31  1  0  0  0  0
 18 20  2  0  0  0  0
 18 36  1  0  0  0  0
 19 21  2  0  0  0  0
 19 37  1  0  0  0  0
 20 45  1  0  0  0  0
 21 38  1  0  0  0  0
 22 78  1  0  0  0  0
 23 79  1  0  0  0  0
 24 26  2  0  0  0  0
 24 78  1  0  0  0  0
 25 80  1  0  0  0  0
 26 81  1  0  0  0  0
 27 60  2  0  0  0  0
 28 53  1  0  0  0  0
 28 61  1  0  0  0  0
 29 62  1  0  0  0  0
 29 65  1  0  0  0  0
 30 61  2  0  0  0  0
 30 67  1  0  0  0  0
 30 82  1  0  0  0  0
 31 66  1  0  0  0  0
 31 72  2  0  0  0  0
 32 46  1  0  0  0  0
 32 68  1  0  0  0  0
 32 73  2  0  0  0  0
 33 56  1  0  0  0  0
 33 63  1  0  0  0  0
 33 74  2  0  0  0  0
 34 57  1  0  0  0  0
 34 69  1  0  0  0  0
 34 75  2  0  0  0  0
 35 64  1  0  0  0  0
 35 70  1  0  0  0  0
 35 76  2  0  0  0  0
 36 39  1  0  0  0  0
 37 46  1  0  0  0  0
 38 63  1  0  0  0  0
 39 41  1  0  0  0  0
 40 42  1  0  0  0  0
 40 43  1  0  0  0  0
 41 45  1  0  0  0  0
 42 47  1  0  0  0  0
 43 64  1  0  0  0  0
 44 47  1  0  0  0  0
 44 64  1  0  0  0  0
 45 68  1  0  0  0  0
 46 63  1  0  0  0  0
 47 62  1  0  0  0  0
 48 57  1  0  0  0  0
 49 59  1  0  0  0  0
 50 59  1  0  0  0  0
 51 59  1  0  0  0  0
 52 71  1  0  0  0  0
 53 70  1  0  0  0  0
 54 58  1  0  0  0  0
 54 67  1  0  0  0  0
 55 58  1  0  0  0  0
 55 79  1  0  0  0  0
 56 59  1  0  0  0  0
 56 69  1  0  0  0  0
 57 71  1  0  0  0  0
 58 77  1  0  0  0  0
 60 62  1  0  0  0  0
M  CHG  1  71   1
M  ISO  4  35 100  55 101  70 100  79 101
M  END
> <Batch ID>
0197

> <Smiles>
CNC(C)C(=O)NC(C(=O)N1Cc2cc([101O:1][101CH2:1]C(O)CNc3nc(C[100NH:0][100C:0](=O)N4CCCC(n5nc(-c6ccc(Oc7ccc(F)cc7F)cc6)c(C(N)=O)c5N)C4)cs3)ccc2CC1C(=O)NC1CCCc2ccccc21)C(C)(C)C

> <Shape>
0.216

> <Color>
0.068

> <Negative vol penalty>
0.000

$$$$

  -OEChem-04052305413D

 87 95  0     1  0  0  0  0  0999 V2000
  -29.3164  -35.8719   21.0123 C   0  0  0  0  0  0  0  0  0  0  0  0
  -29.4186  -34.4844   21.0153 C   0  0  0  0  0  0  0  0  0  0  0  0
  -24.4206  -12.5160   19.5190 C   0  0  0  0  0  0  0  0  0  0  0  0
  -25.5804  -12.5412   21.6382 C   0  0  0  0  0  0  0  0  0  0  0  0
  -28.3048  -36.4968   21.7404 C   0  0  0  0  0  0  0  0  0  0  0  0
  -28.5098  -33.7211   21.7474 C   0  0  0  0  0  0  0  0  0  0  0  0
  -26.7897  -29.7288   19.1498 C   0  0  0  0  0  0  0  0  0  0  0  0
  -24.6987  -11.1560   19.3829 C   0  0  0  0  0  0  0  0  0  0  0  0
  -25.8586  -11.1811   21.5021 C   0  0  0  0  0  0  0  0  0  0  0  0
  -27.6312  -28.6213   19.0534 C   0  0  0  0  0  0  0  0  0  0  0  0
  -26.5631   -7.6349   21.8843 C   0  0  0  0  0  0  0  0  0  0  0  0
  -26.3671   -6.8175   22.9974 C   0  0  0  0  0  0  0  0  0  0  0  0
  -31.1646  -20.9774   24.8877 C   0  0  0  0  0  0  0  0  0  0  0  0
  -26.3964  -27.5370   20.8194 C   0  0  0  0  0  0  0  0  0  0  0  0
  -24.0309   -7.4320   23.0372 C   0  0  0  0  0  0  0  0  0  0  0  0
  -30.5002  -19.7786   25.0483 C   0  0  0  0  0  0  0  0  0  0  0  0
  -24.8615  -13.2086   20.6467 C   0  0  0  0  0  0  0  0  0  0  0  0
  -23.4471  -15.1942   21.3982 C   0  0  0  0  0  0  0  0  0  0  0  0
  -27.3773  -35.7403   22.4740 C   0  0  0  0  0  0  0  0  0  0  0  0
  -25.7503  -29.7531   20.0908 C   0  0  0  0  0  0  0  0  0  0  0  0
  -27.4857  -34.3366   22.4871 C   0  0  0  0  0  0  0  0  0  0  0  0
  -25.5416  -28.6448   20.9240 C   0  0  0  0  0  0  0  0  0  0  0  0
  -25.4177  -10.4885   20.3744 C   0  0  0  0  0  0  0  0  0  0  0  0
  -27.4364  -27.5264   19.8902 C   0  0  0  0  0  0  0  0  0  0  0  0
  -25.4931   -8.3509   21.3476 C   0  0  0  0  0  0  0  0  0  0  0  0
  -25.1010   -6.7160   23.5738 C   0  0  0  0  0  0  0  0  0  0  0  0
  -24.2269   -8.2494   21.9240 C   0  0  0  0  0  0  0  0  0  0  0  0
  -24.5749  -14.6137   20.7876 C   0  0  0  0  0  0  0  0  0  0  0  0
  -30.9840  -21.6016   23.6704 C   0  0  0  0  0  0  0  0  0  0  0  0
  -23.6475  -16.5472   21.2735 C   0  0  0  0  0  0  0  0  0  0  0  0
  -29.6209  -19.9281   22.9575 C   0  0  0  0  0  0  0  0  0  0  0  0
  -22.3193  -14.5665   22.0224 C   0  0  0  0  0  0  0  0  0  0  0  0
  -25.0358  -31.5728   22.5972 C   0  0  0  0  0  0  0  0  0  0  0  0
  -22.3111  -29.8125   22.6061 C   0  0  0  0  0  0  0  0  0  0  0  0
  -20.7332  -26.9116   21.7447 C   0  0  0  0  0  0  0  0  0  0  0  0
  -28.5506  -19.9100   20.6770 C   0  0  0  0  0  0  0  0  0  0  0  0
  -26.3299  -36.4627   23.2837 C   0  0  0  0  0  0  0  0  0  0  0  0
  -24.8347  -30.9443   20.1640 C   0  0  0  0  0  0  0  0  0  0  0  0
  -24.4275  -28.6129   21.9371 C   0  0  0  0  0  0  0  0  0  0  0  0
  -25.1794  -35.5647   23.7312 C   0  0  0  0  0  0  0  0  0  0  0  0
  -25.7787  -19.7724   18.4467 C   0  0  0  0  0  0  0  0  0  0  0  0
  -25.7152  -34.2568   24.3050 C   0  0  0  0  0  0  0  0  0  0  0  0
  -25.0494  -18.4899   18.8535 C   0  0  0  0  0  0  0  0  0  0  0  0
  -27.2951  -19.6203   18.5522 C   0  0  0  0  0  0  0  0  0  0  0  0
  -27.0529  -17.8611   20.2597 C   0  0  0  0  0  0  0  0  0  0  0  0
  -26.5038  -33.4731   23.2489 C   0  0  1  0  0  0  0  0  0  0  0  0
  -24.1276  -31.0726   21.5097 C   0  0  1  0  0  0  0  0  0  0  0  0
  -25.5208  -17.9865   20.2318 C   0  0  2  0  0  0  0  0  0  0  0  0
  -34.2175  -22.8044   20.8818 C   0  0  0  0  0  0  0  0  0  0  0  0
  -18.5170  -25.7476   21.9200 C   0  0  0  0  0  0  0  0  0  0  0  0
  -32.8116  -25.5758   23.2265 C   0  0  0  0  0  0  0  0  0  0  0  0
  -22.8789  -29.1781   25.5361 C   0  0  0  0  0  0  0  0  0  0  0  0
  -21.2208  -27.3086   25.3804 C   0  0  0  0  0  0  0  0  0  0  0  0
  -20.4806  -29.6633   25.0196 C   0  0  0  0  0  0  0  0  0  0  0  0
  -20.4304  -26.7959   18.8029 C   0  0  0  0  0  0  0  0  0  0  0  0
  -34.1086  -23.7904   22.0364 C   0  0  0  0  0  0  0  0  0  0  0  0
  -30.1520  -24.2566   22.2112 C   0  0  0  0  0  0  0  0  0  0  0  0
  -28.4759  -25.6934   20.9927 C   0  0  0  0  0  0  0  0  0  1  0  0
  -21.8767  -28.5181   23.2501 C   0  0  1  0  0  0  0  0  0  0  0  0
  -19.3969  -26.6531   21.0724 C   0  0  2  0  0  0  0  0  0  0  0  0
  -32.7502  -24.5271   22.1067 C   0  0  1  0  0  0  0  0  0  0  0  0
  -31.5351  -23.5705   22.2401 C   0  0  1  0  0  0  0  0  0  0  0  0
  -29.8594  -25.0512   20.9337 C   0  0  2  0  0  0  0  0  0  0  0  0
  -21.6365  -28.6681   24.7789 C   0  0  0  0  0  0  0  0  0  0  0  0
  -29.7172  -19.2227   24.1006 N   0  0  0  0  0  0  0  0  0  0  0  0
  -25.4284  -15.5235   20.3103 N   0  0  0  0  0  0  0  0  0  0  0  0
  -30.2164  -21.1034   22.6790 N   0  0  0  0  0  0  0  0  0  0  0  0
  -24.8366  -16.6894   20.6209 N   0  0  0  0  0  0  0  0  0  0  0  0
  -23.5630  -29.8040   21.9747 N   0  0  0  0  0  0  0  0  0  0  0  0
  -27.6680  -19.1444   19.8861 N   0  0  0  0  0  0  0  0  0  0  0  0
  -22.9207  -17.6174   21.6594 N   0  0  0  0  0  0  0  0  0  0  0  0
  -22.2722  -13.1663   22.0640 N   0  0  0  0  0  0  0  0  0  0  0  0
  -31.6321  -22.8044   23.4706 N   0  0  0  0  0  0  0  0  0  0  0  0
  -28.8065  -19.3742   21.9388 N   0  0  0  0  0  0  0  0  0  0  0  0
  -25.6007  -32.8064   22.3354 N   0  0  0  0  0  0  0  0  0  0  0  0
  -20.7089  -28.0626   22.5036 N   0  0  0  0  0  0  0  0  0  0  0  0
  -19.6011  -26.0032   19.7469 N   0  3  0  0  0  0  0  0  0  0  0  0
  -21.3731  -15.2274   22.5138 O   0  0  0  0  0  0  0  0  0  0  0  0
  -25.2098  -30.8907   23.6003 O   0  0  0  0  0  0  0  0  0  0  0  0
  -21.5641  -30.7928   22.6550 O   0  0  0  0  0  0  0  0  0  0  0  0
  -21.7006  -26.1651   21.6130 O   0  0  0  0  0  0  0  0  0  0  0  0
  -29.0218  -20.9772   20.2757 O   0  0  0  0  0  0  0  0  0  0  0  0
  -29.9068  -24.1643   19.8170 O   0  0  0  0  0  0  0  0  0  0  0  0
  -25.6891   -9.1614   20.2420 O   0  0  0  0  0  0  0  0  0  0  0  0
  -28.2620  -26.4374   19.7981 O   0  0  0  0  0  0  0  0  0  1  0  0
  -24.9126   -5.9298   24.6418 F   0  0  0  0  0  0  0  0  0  0  0  0
  -23.1948   -8.9339   21.4122 F   0  0  0  0  0  0  0  0  0  0  0  0
  1  2  1  0  0  0  0
  1  5  2  0  0  0  0
  2  6  2  0  0  0  0
  3  8  2  0  0  0  0
  3 17  1  0  0  0  0
  4  9  1  0  0  0  0
  4 17  2  0  0  0  0
  5 19  1  0  0  0  0
  6 21  1  0  0  0  0
  7 10  2  0  0  0  0
  7 20  1  0  0  0  0
  8 23  1  0  0  0  0
  9 23  2  0  0  0  0
 10 24  1  0  0  0  0
 11 12  2  0  0  0  0
 11 25  1  0  0  0  0
 12 26  1  0  0  0  0
 13 16  2  0  0  0  0
 13 29  1  0  0  0  0
 14 22  1  0  0  0  0
 14 24  2  0  0  0  0
 15 26  2  0  0  0  0
 15 27  1  0  0  0  0
 16 65  1  0  0  0  0
 17 28  1  0  0  0  0
 18 28  1  0  0  0  0
 18 30  2  0  0  0  0
 18 32  1  0  0  0  0
 19 21  2  0  0  0  0
 19 37  1  0  0  0  0
 20 22  2  0  0  0  0
 20 38  1  0  0  0  0
 21 46  1  0  0  0  0
 22 39  1  0  0  0  0
 23 84  1  0  0  0  0
 24 85  1  0  0  0  0
 25 27  2  0  0  0  0
 25 84  1  0  0  0  0
 26 86  1  0  0  0  0
 27 87  1  0  0  0  0
 28 66  2  0  0  0  0
 29 67  2  0  0  0  0
 29 73  1  0  0  0  0
 30 68  1  0  0  0  0
 30 71  1  0  0  0  0
 31 65  2  0  0  0  0
 31 67  1  0  0  0  0
 31 74  1  0  0  0  0
 32 72  1  0  0  0  0
 32 78  2  0  0  0  0
 33 47  1  0  0  0  0
 33 75  1  0  0  0  0
 33 79  2  0  0  0  0
 34 59  1  0  0  0  0
 34 69  1  0  0  0  0
 34 80  2  0  0  0  0
 35 60  1  0  0  0  0
 35 76  1  0  0  0  0
 35 81  2  0  0  0  0
 36 70  1  0  0  0  0
 36 74  1  0  0  0  0
 36 82  2  0  0  0  0
 37 40  1  0  0  0  0
 38 47  1  0  0  0  0
 39 69  1  0  0  0  0
 40 42  1  0  0  0  0
 41 43  1  0  0  0  0
 41 44  1  0  0  0  0
 42 46  1  0  0  0  0
 43 48  1  0  0  0  0
 44 70  1  0  0  0  0
 45 48  1  0  0  0  0
 45 70  1  0  0  0  0
 46 75  1  0  0  0  0
 47 69  1  0  0  0  0
 48 68  1  0  0  0  0
 49 56  1  0  0  0  0
 50 60  1  0  0  0  0
 51 61  1  0  0  0  0
 52 64  1  0  0  0  0
 53 64  1  0  0  0  0
 54 64  1  0  0  0  0
 55 77  1  0  0  0  0
 56 61  1  0  0  0  0
 57 62  1  0  0  0  0
 57 63  1  0  0  0  0
 58 63  1  0  0  0  0
 58 85  1  0  0  0  0
 59 64  1  0  0  0  0
 59 76  1  0  0  0  0
 60 77  1  0  0  0  0
 61 62  1  0  0  0  0
 62 73  1  0  0  0  0
 63 83  1  0  0  0  0
 66 68  1  0  0  0  0
M  CHG  1  77   1
M  ISO  4  36 100  58 101  74 100  85 101
M  END
> <Batch ID>
0197

> <Smiles>
CCC(C)C(CC(O)[101CH2:1][101O:1]c1ccc2c(c1)CN(C(=O)C(NC(=O)C(C)NC)C(C)(C)C)C(C(=O)NC1CCCc3ccccc31)C2)Nc1ccnc([100NH:0][100C:0](=O)N2CCCC(n3nc(-c4ccc(Oc5ccc(F)cc5F)cc4)c(C(N)=O)c3N)C2)n1

> <Shape>
0.259

> <Color>
0.099

> <Negative vol penalty>
0.000

$$$$

  -OEChem-04052305413D

 85 93  0     1  0  0  0  0  0999 V2000
  -19.7405  -34.1339   23.3591 C   0  0  0  0  0  0  0  0  0  0  0  0
  -21.0411  -33.8397   22.9624 C   0  0  0  0  0  0  0  0  0  0  0  0
  -27.1389  -12.9737   21.0402 C   0  0  0  0  0  0  0  0  0  0  0  0
  -27.0698  -13.3002   18.6473 C   0  0  0  0  0  0  0  0  0  0  0  0
  -18.9405  -33.1371   23.9163 C   0  0  0  0  0  0  0  0  0  0  0  0
  -21.5428  -32.5487   23.1238 C   0  0  0  0  0  0  0  0  0  0  0  0
  -25.4601  -29.6329   19.4280 C   0  0  0  0  0  0  0  0  0  0  0  0
  -26.4037  -11.7966   20.9008 C   0  0  0  0  0  0  0  0  0  0  0  0
  -26.3346  -12.1230   18.5079 C   0  0  0  0  0  0  0  0  0  0  0  0
  -26.8387  -29.4345   19.4914 C   0  0  0  0  0  0  0  0  0  0  0  0
  -23.1747  -10.9188   20.4234 C   0  0  0  0  0  0  0  0  0  0  0  0
  -22.1159  -10.7086   21.3066 C   0  0  0  0  0  0  0  0  0  0  0  0
  -26.4756  -27.2774   20.5083 C   0  0  0  0  0  0  0  0  0  0  0  0
  -31.9396  -21.7325   17.2882 C   0  0  0  0  0  0  0  0  0  0  0  0
  -32.7754  -23.9663   16.9781 C   0  0  0  0  0  0  0  0  0  0  0  0
  -23.1745   -8.6845   22.0938 C   0  0  0  0  0  0  0  0  0  0  0  0
  -27.4719  -13.7256   19.9134 C   0  0  0  0  0  0  0  0  0  0  0  0
  -29.6319  -15.0774   20.0346 C   0  0  0  0  0  0  0  0  0  0  0  0
  -19.4295  -31.8309   24.0757 C   0  0  0  0  0  0  0  0  0  0  0  0
  -24.5777  -28.6580   19.9151 C   0  0  0  0  0  0  0  0  0  0  0  0
  -20.7491  -31.5338   23.6849 C   0  0  0  0  0  0  0  0  0  0  0  0
  -25.0862  -27.4647   20.4476 C   0  0  0  0  0  0  0  0  0  0  0  0
  -32.9215  -22.5936   16.8112 C   0  0  0  0  0  0  0  0  0  0  0  0
  -26.0016  -11.3712   19.6347 C   0  0  0  0  0  0  0  0  0  0  0  0
  -27.3467  -28.2579   20.0342 C   0  0  0  0  0  0  0  0  0  0  0  0
  -24.2335  -10.0119   20.3753 C   0  0  0  0  0  0  0  0  0  0  0  0
  -22.1157   -9.5914   22.1419 C   0  0  0  0  0  0  0  0  0  0  0  0
  -24.2333   -8.8948   21.2105 C   0  0  0  0  0  0  0  0  0  0  0  0
  -28.2308  -14.9420   20.0567 C   0  0  0  0  0  0  0  0  0  0  0  0
  -30.8395  -22.2897   17.9200 C   0  0  0  0  0  0  0  0  0  0  0  0
  -31.6378  -24.4235   17.6236 C   0  0  0  0  0  0  0  0  0  0  0  0
  -29.8497  -16.4220   20.2109 C   0  0  0  0  0  0  0  0  0  0  0  0
  -30.6458  -14.0772   19.8693 C   0  0  0  0  0  0  0  0  0  0  0  0
  -22.3854  -28.5649   22.2149 C   0  0  0  0  0  0  0  0  0  0  0  0
  -21.7708  -25.6316   20.9737 C   0  0  0  0  0  0  0  0  0  0  0  0
  -22.8939  -22.9464   19.1919 C   0  0  0  0  0  0  0  0  0  0  0  0
  -28.6635  -21.7400   19.0642 C   0  0  0  0  0  0  0  0  0  0  0  0
  -18.5434  -30.7984   24.7264 C   0  0  0  0  0  0  0  0  0  0  0  0
  -23.0927  -28.8756   19.8151 C   0  0  0  0  0  0  0  0  0  0  0  0
  -24.1808  -26.3781   20.9655 C   0  0  0  0  0  0  0  0  0  0  0  0
  -19.0242  -29.3647   24.5180 C   0  0  0  0  0  0  0  0  0  0  0  0
  -26.6666  -20.1290   21.5328 C   0  0  0  0  0  0  0  0  0  0  0  0
  -20.5216  -29.2591   24.7891 C   0  0  0  0  0  0  0  0  0  0  0  0
  -27.0108  -18.6471   21.3670 C   0  0  0  0  0  0  0  0  0  0  0  0
  -26.6319  -20.8568   20.1901 C   0  0  0  0  0  0  0  0  0  0  0  0
  -28.1820  -19.2171   19.2013 C   0  0  0  0  0  0  0  0  0  0  0  0
  -21.3210  -30.1393   23.8208 C   0  0  1  0  0  0  0  0  0  0  0  0
  -22.2975  -28.0369   20.8109 C   0  0  1  0  0  0  0  0  0  0  0  0
  -28.2925  -18.4561   20.5326 C   0  0  2  0  0  0  0  0  0  0  0  0
  -22.1762  -20.6848   18.3748 C   0  0  0  0  0  0  0  0  0  0  0  0
  -22.1307  -24.5041   23.7861 C   0  0  0  0  0  0  0  0  0  0  0  0
  -22.3503  -22.2267   22.7696 C   0  0  0  0  0  0  0  0  0  0  0  0
  -20.2294  -23.5117   22.4997 C   0  0  0  0  0  0  0  0  0  0  0  0
  -23.2504  -23.7281   16.3598 C   0  0  0  0  0  0  0  0  0  0  0  0
  -30.3771  -26.4184   18.4339 C   0  0  0  0  0  0  0  0  0  0  0  0
  -29.4868  -28.6813   19.0874 C   0  0  0  0  0  0  0  0  0  1  0  0
  -34.1263  -22.0474   16.1235 C   0  0  1  0  0  0  0  0  0  0  0  0
  -22.2882  -24.2355   21.2231 C   0  0  1  0  0  0  0  0  0  0  0  0
  -22.2734  -22.1666   18.0467 C   0  0  2  0  0  0  0  0  0  0  0  0
  -30.7382  -27.8409   18.8572 C   0  0  1  0  0  0  0  0  0  0  0  0
  -21.7670  -23.6406   22.5617 C   0  0  0  0  0  0  0  0  0  0  0  0
  -27.6029  -16.1075   20.2333 N   0  0  0  0  0  0  0  0  0  0  0  0
  -30.6627  -23.6177   18.1006 N   0  0  0  0  0  0  0  0  0  0  0  0
  -28.6140  -16.9881   20.3238 N   0  0  0  0  0  0  0  0  0  0  0  0
  -22.7367  -26.6406   20.8515 N   0  0  0  0  0  0  0  0  0  0  0  0
  -27.8803  -20.6342   19.4573 N   0  0  0  0  0  0  0  0  0  0  0  0
  -30.9758  -17.1635   20.2788 N   0  0  0  0  0  0  0  0  0  0  0  0
  -30.2479  -12.7441   19.6997 N   0  0  0  0  0  0  0  0  0  0  0  0
  -35.2071  -21.7397   17.0630 N   0  0  0  0  0  0  0  0  0  0  0  0
  -29.8443  -21.4041   18.4028 N   0  0  0  0  0  0  0  0  0  0  0  0
  -31.5060  -25.7926   17.7824 N   0  0  0  0  0  0  0  0  0  0  0  0
  -21.4199  -29.5038   22.5244 N   0  0  0  0  0  0  0  0  0  0  0  0
  -21.9351  -23.4527   20.0437 N   0  0  0  0  0  0  0  0  0  0  0  0
  -23.0918  -22.3216   16.8110 N   0  3  0  0  0  0  0  0  0  0  0  0
  -31.8689  -14.3551   19.8884 O   0  0  0  0  0  0  0  0  0  0  0  0
  -23.2632  -28.1500   22.9626 O   0  0  0  0  0  0  0  0  0  0  0  0
  -20.5549  -25.8188   20.8834 O   0  0  0  0  0  0  0  0  0  0  0  0
  -24.1079  -23.0888   19.3201 O   0  0  0  0  0  0  0  0  0  0  0  0
  -28.3260  -22.8985   19.3211 O   0  0  0  0  0  0  0  0  0  0  0  0
  -31.4620  -27.7925   20.0884 O   0  0  0  0  0  0  0  0  0  0  0  0
  -25.2844  -10.2225   19.4984 O   0  0  0  0  0  0  0  0  0  0  0  0
  -28.6918  -28.0621   20.0978 O   0  0  0  0  0  0  0  0  0  1  0  0
  -21.0996   -9.3904   22.9911 F   0  0  0  0  0  0  0  0  0  0  0  0
  -25.2482   -8.0206   21.1697 F   0  0  0  0  0  0  0  0  0  0  0  0
  -33.8654  -20.9016   15.4161 F   0  0  0  0  0  0  0  0  0  0  0  0
  1  2  1  0  0  0  0
  1  5  2  0  0  0  0
  2  6  2  0  0  0  0
  3  8  2  0  0  0  0
  3 17  1  0  0  0  0
  4  9  1  0  0  0  0
  4 17  2  0  0  0  0
  5 19  1  0  0  0  0
  6 21  1  0  0  0  0
  7 10  2  0  0  0  0
  7 20  1  0  0  0  0
  8 24  1  0  0  0  0
  9 24  2  0  0  0  0
 10 25  1  0  0  0  0
 11 12  2  0  0  0  0
 11 26  1  0  0  0  0
 12 27  1  0  0  0  0
 13 22  1  0  0  0  0
 13 25  2  0  0  0  0
 14 23  1  0  0  0  0
 14 30  2  0  0  0  0
 15 23  2  0  0  0  0
 15 31  1  0  0  0  0
 16 27  2  0  0  0  0
 16 28  1  0  0  0  0
 17 29  1  0  0  0  0
 18 29  1  0  0  0  0
 18 32  2  0  0  0  0
 18 33  1  0  0  0  0
 19 21  2  0  0  0  0
 19 38  1  0  0  0  0
 20 22  2  0  0  0  0
 20 39  1  0  0  0  0
 21 47  1  0  0  0  0
 22 40  1  0  0  0  0
 23 57  1  0  0  0  0
 24 81  1  0  0  0  0
 25 82  1  0  0  0  0
 26 28  2  0  0  0  0
 26 81  1  0  0  0  0
 27 83  1  0  0  0  0
 28 84  1  0  0  0  0
 29 62  2  0  0  0  0
 30 63  1  0  0  0  0
 30 70  1  0  0  0  0
 31 63  2  0  0  0  0
 31 71  1  0  0  0  0
 32 64  1  0  0  0  0
 32 67  1  0  0  0  0
 33 68  1  0  0  0  0
 33 75  2  0  0  0  0
 34 48  1  0  0  0  0
 34 72  1  0  0  0  0
 34 76  2  0  0  0  0
 35 58  1  0  0  0  0
 35 65  1  0  0  0  0
 35 77  2  0  0  0  0
 36 59  1  0  0  0  0
 36 73  1  0  0  0  0
 36 78  2  0  0  0  0
 37 66  1  0  0  0  0
 37 70  1  0  0  0  0
 37 79  2  0  0  0  0
 38 41  1  0  0  0  0
 39 48  1  0  0  0  0
 40 65  1  0  0  0  0
 41 43  1  0  0  0  0
 42 44  1  0  0  0  0
 42 45  1  0  0  0  0
 43 47  1  0  0  0  0
 44 49  1  0  0  0  0
 45 66  1  0  0  0  0
 46 49  1  0  0  0  0
 46 66  1  0  0  0  0
 47 72  1  0  0  0  0
 48 65  1  0  0  0  0
 49 64  1  0  0  0  0
 50 59  1  0  0  0  0
 51 61  1  0  0  0  0
 52 61  1  0  0  0  0
 53 61  1  0  0  0  0
 54 74  1  0  0  0  0
 55 60  1  0  0  0  0
 55 71  1  0  0  0  0
 56 60  1  0  0  0  0
 56 82  1  0  0  0  0
 57 69  1  0  0  0  0
 57 85  1  0  0  0  0
 58 61  1  0  0  0  0
 58 73  1  0  0  0  0
 59 74  1  0  0  0  0
 60 80  1  0  0  0  0
 62 64  1  0  0  0  0
M  CHG  1  74   1
M  ISO  4  37 100  56 101  70 100  82 101
M  END
> <Batch ID>
0197

> <Smiles>
CNC(C)C(=O)NC(C(=O)N1Cc2cc([101O:1][101CH2:1]C(O)CNc3cc(C(N)F)cc([100NH:0][100C:0](=O)N4CCCC(n5nc(-c6ccc(Oc7ccc(F)cc7F)cc6)c(C(N)=O)c5N)C4)n3)ccc2CC1C(=O)NC1CCCc2ccccc21)C(C)(C)C

> <Shape>
0.247

> <Color>
0.097

> <Negative vol penalty>
0.000

$$$$

  -OEChem-04052305413D

 83 91  0     1  0  0  0  0  0999 V2000
  -23.8678  -17.9802   11.4369 C   0  0  0  0  0  0  0  0  0  0  0  0
  -24.3137  -16.9207   12.2205 C   0  0  0  0  0  0  0  0  0  0  0  0
  -26.1431  -27.8161   18.9091 C   0  0  0  0  0  0  0  0  0  0  0  0
  -26.4258  -27.6478   21.3026 C   0  0  0  0  0  0  0  0  0  0  0  0
  -23.6447  -19.2286   12.0164 C   0  0  0  0  0  0  0  0  0  0  0  0
  -24.5378  -17.1092   13.5838 C   0  0  0  0  0  0  0  0  0  0  0  0
  -23.6219  -13.0347   18.0633 C   0  0  0  0  0  0  0  0  0  0  0  0
  -25.0270  -28.6310   19.0982 C   0  0  0  0  0  0  0  0  0  0  0  0
  -25.3097  -28.4628   21.4917 C   0  0  0  0  0  0  0  0  0  0  0  0
  -24.4863  -12.1772   18.7424 C   0  0  0  0  0  0  0  0  0  0  0  0
  -21.9453  -28.1371   21.4148 C   0  0  0  0  0  0  0  0  0  0  0  0
  -21.0143  -27.7478   22.3777 C   0  0  0  0  0  0  0  0  0  0  0  0
  -30.6061  -15.9292   20.8678 C   0  0  0  0  0  0  0  0  0  0  0  0
  -30.3573  -14.5568   20.5767 C   0  0  0  0  0  0  0  0  0  0  0  0
  -24.6988  -13.8027   20.5121 C   0  0  0  0  0  0  0  0  0  0  0  0
  -21.3882  -29.8132   23.5742 C   0  0  0  0  0  0  0  0  0  0  0  0
  -26.8425  -27.3244   20.0114 C   0  0  0  0  0  0  0  0  0  0  0  0
  -29.3357  -26.8922   19.6874 C   0  0  0  0  0  0  0  0  0  0  0  0
  -23.8570  -19.4300   13.3893 C   0  0  0  0  0  0  0  0  0  0  0  0
  -23.2975  -14.2893   18.5991 C   0  0  0  0  0  0  0  0  0  0  0  0
  -24.3187  -18.3618   14.1819 C   0  0  0  0  0  0  0  0  0  0  0  0
  -23.8280  -14.6732   19.8390 C   0  0  0  0  0  0  0  0  0  0  0  0
  -24.6103  -28.9544   20.3895 C   0  0  0  0  0  0  0  0  0  0  0  0
  -25.0272  -12.5623   19.9656 C   0  0  0  0  0  0  0  0  0  0  0  0
  -22.5979  -29.3644   21.5316 C   0  0  0  0  0  0  0  0  0  0  0  0
  -20.7357  -28.5859   23.4574 C   0  0  0  0  0  0  0  0  0  0  0  0
  -22.3193  -30.2024   22.6113 C   0  0  0  0  0  0  0  0  0  0  0  0
  -27.9952  -26.4821   19.8167 C   0  0  0  0  0  0  0  0  0  0  0  0
  -29.5652  -16.5084   21.5597 C   0  0  0  0  0  0  0  0  0  0  0  0
  -30.0380  -25.7234   19.5232 C   0  0  0  0  0  0  0  0  0  0  0  0
  -29.1356  -14.1392   21.0575 C   0  0  0  0  0  0  0  0  0  0  0  0
  -29.8959  -28.2117   19.7136 C   0  0  0  0  0  0  0  0  0  0  0  0
  -23.7096  -17.3006   17.6684 C   0  0  0  0  0  0  0  0  0  0  0  0
  -21.8990  -17.9461   20.2813 C   0  0  0  0  0  0  0  0  0  0  0  0
  -20.7796  -16.9517   23.3481 C   0  0  0  0  0  0  0  0  0  0  0  0
  -28.9816  -11.7114   20.4101 C   0  0  0  0  0  0  0  0  0  0  0  0
  -28.9093  -20.1840   21.2251 C   0  0  0  0  0  0  0  0  0  0  0  0
  -23.6474  -20.8096   13.9616 C   0  0  0  0  0  0  0  0  0  0  0  0
  -22.3425  -15.1916   17.8669 C   0  0  0  0  0  0  0  0  0  0  0  0
  -23.4953  -16.0012   20.4670 C   0  0  0  0  0  0  0  0  0  0  0  0
  -23.5501  -20.8288   15.4849 C   0  0  0  0  0  0  0  0  0  0  0  0
  -29.5565  -21.2710   17.8344 C   0  0  0  0  0  0  0  0  0  0  0  0
  -24.6629  -19.9872   16.1015 C   0  0  0  0  0  0  0  0  0  0  0  0
  -29.3535  -22.7824   17.9555 C   0  0  0  0  0  0  0  0  0  0  0  0
  -28.5599  -20.5081   18.7021 C   0  0  0  0  0  0  0  0  0  0  0  0
  -28.3712  -22.4045   20.2647 C   0  0  0  0  0  0  0  0  0  0  0  0
  -24.5495  -18.5204   15.6690 C   0  0  1  0  0  0  0  0  0  0  0  0
  -22.4865  -16.6587   18.2597 C   0  0  1  0  0  0  0  0  0  0  0  0
  -29.3635  -23.2328   19.4284 C   0  0  2  0  0  0  0  0  0  0  0  0
  -19.3417  -17.7080   25.2606 C   0  0  0  0  0  0  0  0  0  0  0  0
  -24.1085  -19.8448   21.1885 C   0  0  0  0  0  0  0  0  0  0  0  0
  -23.0904  -19.8253   23.4757 C   0  0  0  0  0  0  0  0  0  0  0  0
  -21.7860  -20.7035   21.5393 C   0  0  0  0  0  0  0  0  0  0  0  0
  -18.9393  -14.6567   23.0237 C   0  0  0  0  0  0  0  0  0  0  0  0
  -29.4415  -17.9016   22.0404 C   0  0  0  0  0  0  0  0  0  0  0  0
  -26.6706  -10.8478   19.8401 C   0  0  0  0  0  0  0  0  0  1  0  0
  -22.1836  -18.2147   21.7394 C   0  0  1  0  0  0  0  0  0  0  0  0
  -19.3880  -16.9308   23.9542 C   0  0  2  0  0  0  0  0  0  0  0  0
  -27.9871  -10.5602   20.5540 C   0  0  1  0  0  0  0  0  0  0  0  0
  -22.8001  -19.6228   21.9732 C   0  0  0  0  0  0  0  0  0  0  0  0
  -27.8520  -25.1563   19.7409 N   0  0  0  0  0  0  0  0  0  0  0  0
  -29.1115  -24.7232   19.5621 N   0  0  0  0  0  0  0  0  0  0  0  0
  -22.5619  -16.8510   19.7094 N   0  0  0  0  0  0  0  0  0  0  0  0
  -28.6330  -20.9713   20.0950 N   0  0  0  0  0  0  0  0  0  0  0  0
  -31.3515  -25.4638   19.3505 N   0  0  0  0  0  0  0  0  0  0  0  0
  -29.0320  -29.3010   19.8914 N   0  0  0  0  0  0  0  0  0  0  0  0
  -28.4980  -12.8775   20.9938 N   0  0  0  0  0  0  0  0  0  0  0  0
  -23.5068  -17.8519   16.4177 N   0  0  0  0  0  0  0  0  0  0  0  0
  -20.9295  -17.9862   22.4489 N   0  0  0  0  0  0  0  0  0  0  0  0
  -29.1388  -18.8358   20.9790 N   0  0  0  0  0  0  0  0  0  0  0  0
  -18.9625  -15.5286   24.2262 N   0  3  0  0  0  0  0  0  0  0  0  0
  -31.1241  -28.4199   19.5667 O   0  0  0  0  0  0  0  0  0  0  0  0
  -24.7593  -17.2972   18.3008 O   0  0  0  0  0  0  0  0  0  0  0  0
  -21.1120  -18.6766   19.6742 O   0  0  0  0  0  0  0  0  0  0  0  0
  -21.6481  -16.1344   23.6454 O   0  0  0  0  0  0  0  0  0  0  0  0
  -30.0635  -11.5513   19.8525 O   0  0  0  0  0  0  0  0  0  0  0  0
  -28.9536  -20.6492   22.3691 O   0  0  0  0  0  0  0  0  0  0  0  0
  -28.5493   -9.3763   20.0109 O   0  0  0  0  0  0  0  0  0  0  0  0
  -23.5214  -29.7498   20.5744 O   0  0  0  0  0  0  0  0  0  0  0  0
  -25.8717  -11.7275   20.6303 O   0  0  0  0  0  0  0  0  0  1  0  0
  -19.8405  -28.2126   24.3812 F   0  0  0  0  0  0  0  0  0  0  0  0
  -22.9422  -31.3832   22.7282 F   0  0  0  0  0  0  0  0  0  0  0  0
  -28.2946  -15.3992   21.8558 S   0  0  0  0  0  0  0  0  0  0  0  0
  1  2  1  0  0  0  0
  1  5  2  0  0  0  0
  2  6  2  0  0  0  0
  3  8  2  0  0  0  0
  3 17  1  0  0  0  0
  4  9  1  0  0  0  0
  4 17  2  0  0  0  0
  5 19  1  0  0  0  0
  6 21  1  0  0  0  0
  7 10  2  0  0  0  0
  7 20  1  0  0  0  0
  8 23  1  0  0  0  0
  9 23  2  0  0  0  0
 10 24  1  0  0  0  0
 11 12  2  0  0  0  0
 11 25  1  0  0  0  0
 12 26  1  0  0  0  0
 13 14  1  0  0  0  0
 13 29  2  0  0  0  0
 14 31  2  0  0  0  0
 15 22  1  0  0  0  0
 15 24  2  0  0  0  0
 16 26  2  0  0  0  0
 16 27  1  0  0  0  0
 17 28  1  0  0  0  0
 18 28  1  0  0  0  0
 18 30  2  0  0  0  0
 18 32  1  0  0  0  0
 19 21  2  0  0  0  0
 19 38  1  0  0  0  0
 20 22  2  0  0  0  0
 20 39  1  0  0  0  0
 21 47  1  0  0  0  0
 22 40  1  0  0  0  0
 23 79  1  0  0  0  0
 24 80  1  0  0  0  0
 25 27  2  0  0  0  0
 25 79  1  0  0  0  0
 26 81  1  0  0  0  0
 27 82  1  0  0  0  0
 28 61  2  0  0  0  0
 29 55  1  0  0  0  0
 29 83  1  0  0  0  0
 30 62  1  0  0  0  0
 30 65  1  0  0  0  0
 31 67  1  0  0  0  0
 31 83  1  0  0  0  0
 32 66  1  0  0  0  0
 32 72  2  0  0  0  0
 33 48  1  0  0  0  0
 33 68  1  0  0  0  0
 33 73  2  0  0  0  0
 34 57  1  0  0  0  0
 34 63  1  0  0  0  0
 34 74  2  0  0  0  0
 35 58  1  0  0  0  0
 35 69  1  0  0  0  0
 35 75  2  0  0  0  0
 36 59  1  0  0  0  0
 36 67  1  0  0  0  0
 36 76  2  0  0  0  0
 37 64  1  0  0  0  0
 37 70  1  0  0  0  0
 37 77  2  0  0  0  0
 38 41  1  0  0  0  0
 39 48  1  0  0  0  0
 40 63  1  0  0  0  0
 41 43  1  0  0  0  0
 42 44  1  0  0  0  0
 42 45  1  0  0  0  0
 43 47  1  0  0  0  0
 44 49  1  0  0  0  0
 45 64  1  0  0  0  0
 46 49  1  0  0  0  0
 46 64  1  0  0  0  0
 47 68  1  0  0  0  0
 48 63  1  0  0  0  0
 49 62  1  0  0  0  0
 50 58  1  0  0  0  0
 51 60  1  0  0  0  0
 52 60  1  0  0  0  0
 53 60  1  0  0  0  0
 54 71  1  0  0  0  0
 55 70  1  0  0  0  0
 56 59  1  0  0  0  0
 56 80  1  0  0  0  0
 57 60  1  0  0  0  0
 57 69  1  0  0  0  0
 58 71  1  0  0  0  0
 59 78  1  0  0  0  0
 61 62  1  0  0  0  0
M  CHG  1  71   1
M  ISO  4  37 100  56 101  70 100  80 101
M  END
> <Batch ID>
0197

> <Smiles>
CNC(C)C(=O)NC(C(=O)N1Cc2cc([101O:1][101CH2:1]C(O)C(=O)Nc3ccc(C[100NH:0][100C:0](=O)N4CCCC(n5nc(-c6ccc(Oc7ccc(F)cc7F)cc6)c(C(N)=O)c5N)C4)s3)ccc2CC1C(=O)NC1CCCc2ccccc21)C(C)(C)C

> <Shape>
0.229

> <Color>
0.048

> <Negative vol penalty>
0.000

$$$$

  -OEChem-04052305413D

 82 90  0     1  0  0  0  0  0999 V2000
  -32.1056  -15.3839   19.2703 C   0  0  0  0  0  0  0  0  0  0  0  0
  -31.1660  -16.4074   19.2004 C   0  0  0  0  0  0  0  0  0  0  0  0
  -28.7444  -25.7399   19.5924 C   0  0  0  0  0  0  0  0  0  0  0  0
  -26.5649  -24.7247   19.3548 C   0  0  0  0  0  0  0  0  0  0  0  0
  -31.6880  -14.0676   19.4623 C   0  0  0  0  0  0  0  0  0  0  0  0
  -29.8079  -16.1150   19.3214 C   0  0  0  0  0  0  0  0  0  0  0  0
  -25.5120  -19.5988   21.9509 C   0  0  0  0  0  0  0  0  0  0  0  0
  -29.3382  -24.4792   19.5321 C   0  0  0  0  0  0  0  0  0  0  0  0
  -27.1587  -23.4640   19.2945 C   0  0  0  0  0  0  0  0  0  0  0  0
  -24.5697  -20.4820   21.4259 C   0  0  0  0  0  0  0  0  0  0  0  0
  -28.7790  -21.5828   17.0018 C   0  0  0  0  0  0  0  0  0  0  0  0
  -28.3284  -20.7023   16.0184 C   0  0  0  0  0  0  0  0  0  0  0  0
  -22.9134  -18.7286   21.4650 C   0  0  0  0  0  0  0  0  0  0  0  0
  -27.6742  -19.1266   17.7291 C   0  0  0  0  0  0  0  0  0  0  0  0
  -18.4825  -28.1556   22.8902 C   0  0  0  0  0  0  0  0  0  0  0  0
  -27.3577  -25.8627   19.5038 C   0  0  0  0  0  0  0  0  0  0  0  0
  -26.4607  -28.0240   18.4880 C   0  0  0  0  0  0  0  0  0  0  0  0
  -30.3248  -13.7601   19.5954 C   0  0  0  0  0  0  0  0  0  0  0  0
  -25.1645  -18.2686   22.2272 C   0  0  0  0  0  0  0  0  0  0  0  0
  -29.3716  -14.7932   19.5141 C   0  0  0  0  0  0  0  0  0  0  0  0
  -23.8525  -17.8312   21.9959 C   0  0  0  0  0  0  0  0  0  0  0  0
  -28.5454  -23.3413   19.3831 C   0  0  0  0  0  0  0  0  0  0  0  0
  -23.2710  -20.0462   21.1801 C   0  0  0  0  0  0  0  0  0  0  0  0
  -28.6774  -21.2353   18.3489 C   0  0  0  0  0  0  0  0  0  0  0  0
  -27.7759  -19.4742   16.3821 C   0  0  0  0  0  0  0  0  0  0  0  0
  -28.1249  -20.0072   18.7125 C   0  0  0  0  0  0  0  0  0  0  0  0
  -26.7437  -27.1646   19.5666 C   0  0  0  0  0  0  0  0  0  0  0  0
  -19.8219  -28.0393   23.1977 C   0  0  0  0  0  0  0  0  0  0  0  0
  -25.8830  -29.1261   19.0696 C   0  0  0  0  0  0  0  0  0  0  0  0
  -19.5966  -26.2101   22.0089 C   0  0  0  0  0  0  0  0  0  0  0  0
  -26.6987  -27.8423   17.0859 C   0  0  0  0  0  0  0  0  0  0  0  0
  -26.1291  -15.4316   21.1670 C   0  0  0  0  0  0  0  0  0  0  0  0
  -24.1607  -14.3267   23.4965 C   0  0  0  0  0  0  0  0  0  0  0  0
  -21.4657  -14.8798   25.5159 C   0  0  0  0  0  0  0  0  0  0  0  0
  -22.8955  -29.9373   24.1947 C   0  0  0  0  0  0  0  0  0  0  0  0
  -29.9184  -12.3164   19.7544 C   0  0  0  0  0  0  0  0  0  0  0  0
  -26.1855  -17.3356   22.8184 C   0  0  0  0  0  0  0  0  0  0  0  0
  -23.4234  -16.4186   22.2943 C   0  0  0  0  0  0  0  0  0  0  0  0
  -28.4849  -12.1380   20.2480 C   0  0  0  0  0  0  0  0  0  0  0  0
  -25.8524  -31.6233   23.1505 C   0  0  0  0  0  0  0  0  0  0  0  0
  -27.5351  -13.0407   19.4672 C   0  0  0  0  0  0  0  0  0  0  0  0
  -26.3906  -30.7493   22.0162 C   0  0  0  0  0  0  0  0  0  0  0  0
  -25.2227  -30.7837   24.2597 C   0  0  0  0  0  0  0  0  0  0  0  0
  -24.7222  -28.9651   22.6735 C   0  0  0  0  0  0  0  0  0  0  0  0
  -27.8910  -14.5191   19.6656 C   0  0  1  0  0  0  0  0  0  0  0  0
  -25.8593  -15.8645   22.5803 C   0  0  1  0  0  0  0  0  0  0  0  0
  -25.3169  -29.7700   21.5052 C   0  0  2  0  0  0  0  0  0  0  0  0
  -20.0734  -13.7773   27.2889 C   0  0  0  0  0  0  0  0  0  0  0  0
  -22.7988  -12.6220   21.3636 C   0  0  0  0  0  0  0  0  0  0  0  0
  -20.8837  -12.2994   22.9437 C   0  0  0  0  0  0  0  0  0  0  0  0
  -23.1547  -11.4661   23.5526 C   0  0  0  0  0  0  0  0  0  0  0  0
  -22.1424  -16.9629   27.5062 C   0  0  0  0  0  0  0  0  0  0  0  0
  -20.6077  -28.9945   24.0039 C   0  0  0  0  0  0  0  0  0  0  0  0
  -21.2163  -24.4227   21.3708 C   0  0  0  0  0  0  0  0  0  0  0  0
  -22.4962  -22.2870   20.9950 C   0  0  0  0  0  0  0  0  0  1  0  0
  -22.7001  -13.9530   23.5738 C   0  0  1  0  0  0  0  0  0  0  0  0
  -21.2661  -14.6778   27.0071 C   0  0  2  0  0  0  0  0  0  0  0  0
  -21.1207  -22.9451   20.9956 C   0  0  1  0  0  0  0  0  0  0  0  0
  -22.3926  -12.6113   22.8509 C   0  0  0  0  0  0  0  0  0  0  0  0
  -26.3761  -27.6768   20.7441 N   0  0  0  0  0  0  0  0  0  0  0  0
  -20.4623  -26.9241   22.6936 N   0  0  0  0  0  0  0  0  0  0  0  0
  -25.8564  -28.8700   20.4089 N   0  0  0  0  0  0  0  0  0  0  0  0
  -24.4595  -15.5426   22.8655 N   0  0  0  0  0  0  0  0  0  0  0  0
  -24.2120  -29.8776   23.7088 N   0  0  0  0  0  0  0  0  0  0  0  0
  -25.4004  -30.2796   18.5608 N   0  0  0  0  0  0  0  0  0  0  0  0
  -27.3011  -26.6508   16.6594 N   0  0  0  0  0  0  0  0  0  0  0  0
  -19.9008  -25.0224   21.3655 N   0  0  0  0  0  0  0  0  0  0  0  0
  -27.4188  -14.9843   20.9521 N   0  0  0  0  0  0  0  0  0  0  0  0
  -22.3507  -13.9624   24.9902 N   0  0  0  0  0  0  0  0  0  0  0  0
  -21.9991  -29.0484   23.6141 N   0  0  0  0  0  0  0  0  0  0  0  0
  -21.0361  -15.9870   27.6809 N   0  3  0  0  0  0  0  0  0  0  0  0
  -26.4015  -28.7177   16.2381 O   0  0  0  0  0  0  0  0  0  0  0  0
  -25.2332  -15.4970   20.3335 O   0  0  0  0  0  0  0  0  0  0  0  0
  -25.0048  -13.5711   23.9846 O   0  0  0  0  0  0  0  0  0  0  0  0
  -20.8910  -15.7607   24.8802 O   0  0  0  0  0  0  0  0  0  0  0  0
  -22.5436  -30.7282   25.0766 O   0  0  0  0  0  0  0  0  0  0  0  0
  -20.3154  -22.2685   21.9631 O   0  0  0  0  0  0  0  0  0  0  0  0
  -29.1245  -22.1110   19.3240 O   0  0  0  0  0  0  0  0  0  0  0  0
  -22.3494  -20.9060   20.6670 O   0  0  0  0  0  0  0  0  0  1  0  0
  -27.3418  -18.6293   15.4377 F   0  0  0  0  0  0  0  0  0  0  0  0
  -28.0236  -19.6683   20.0051 F   0  0  0  0  0  0  0  0  0  0  0  0
  -17.9949  -26.8211   21.9297 S   0  0  0  0  0  0  0  0  0  0  0  0
  1  2  1  0  0  0  0
  1  5  2  0  0  0  0
  2  6  2  0  0  0  0
  3  8  2  0  0  0  0
  3 16  1  0  0  0  0
  4  9  1  0  0  0  0
  4 16  2  0  0  0  0
  5 18  1  0  0  0  0
  6 20  1  0  0  0  0
  7 10  2  0  0  0  0
  7 19  1  0  0  0  0
  8 22  1  0  0  0  0
  9 22  2  0  0  0  0
 10 23  1  0  0  0  0
 11 12  2  0  0  0  0
 11 24  1  0  0  0  0
 12 25  1  0  0  0  0
 13 21  1  0  0  0  0
 13 23  2  0  0  0  0
 14 25  2  0  0  0  0
 14 26  1  0  0  0  0
 15 28  2  0  0  0  0
 15 82  1  0  0  0  0
 16 27  1  0  0  0  0
 17 27  1  0  0  0  0
 17 29  2  0  0  0  0
 17 31  1  0  0  0  0
 18 20  2  0  0  0  0
 18 36  1  0  0  0  0
 19 21  2  0  0  0  0
 19 37  1  0  0  0  0
 20 45  1  0  0  0  0
 21 38  1  0  0  0  0
 22 78  1  0  0  0  0
 23 79  1  0  0  0  0
 24 26  2  0  0  0  0
 24 78  1  0  0  0  0
 25 80  1  0  0  0  0
 26 81  1  0  0  0  0
 27 60  2  0  0  0  0
 28 53  1  0  0  0  0
 28 61  1  0  0  0  0
 29 62  1  0  0  0  0
 29 65  1  0  0  0  0
 30 61  2  0  0  0  0
 30 67  1  0  0  0  0
 30 82  1  0  0  0  0
 31 66  1  0  0  0  0
 31 72  2  0  0  0  0
 32 46  1  0  0  0  0
 32 68  1  0  0  0  0
 32 73  2  0  0  0  0
 33 56  1  0  0  0  0
 33 63  1  0  0  0  0
 33 74  2  0  0  0  0
 34 57  1  0  0  0  0
 34 69  1  0  0  0  0
 34 75  2  0  0  0  0
 35 64  1  0  0  0  0
 35 70  1  0  0  0  0
 35 76  2  0  0  0  0
 36 39  1  0  0  0  0
 37 46  1  0  0  0  0
 38 63  1  0  0  0  0
 39 41  1  0  0  0  0
 40 42  1  0  0  0  0
 40 43  1  0  0  0  0
 41 45  1  0  0  0  0
 42 47  1  0  0  0  0
 43 64  1  0  0  0  0
 44 47  1  0  0  0  0
 44 64  1  0  0  0  0
 45 68  1  0  0  0  0
 46 63  1  0  0  0  0
 47 62  1  0  0  0  0
 48 57  1  0  0  0  0
 49 59  1  0  0  0  0
 50 59  1  0  0  0  0
 51 59  1  0  0  0  0
 52 71  1  0  0  0  0
 53 70  1  0  0  0  0
 54 58  1  0  0  0  0
 54 67  1  0  0  0  0
 55 58  1  0  0  0  0
 55 79  1  0  0  0  0
 56 59  1  0  0  0  0
 56 69  1  0  0  0  0
 57 71  1  0  0  0  0
 58 77  1  0  0  0  0
 60 62  1  0  0  0  0
M  CHG  1  71   1
M  ISO  4  35 100  55 101  70 100  79 101
M  END
> <Batch ID>
0197

> <Smiles>
CNC(C)C(=O)NC(C(=O)N1Cc2cc([101O:1][101CH2:1]C(O)CNc3nc(C[100NH:0][100C:0](=O)N4CCCC(n5nc(-c6ccc(Oc7ccc(F)cc7F)cc6)c(C(N)=O)c5N)C4)cs3)ccc2CC1C(=O)NC1CCCc2ccccc21)C(C)(C)C

> <Shape>
0.216

> <Color>
0.068

> <Negative vol penalty>
0.000

$$$$

  -OEChem-04052305413D

 83 91  0     1  0  0  0  0  0999 V2000
  -18.8271  -32.3008   20.3628 C   0  0  0  0  0  0  0  0  0  0  0  0
  -20.1157  -31.9468   19.9760 C   0  0  0  0  0  0  0  0  0  0  0  0
  -24.7271  -10.3102   21.9454 C   0  0  0  0  0  0  0  0  0  0  0  0
  -24.5138  -11.4214   24.0801 C   0  0  0  0  0  0  0  0  0  0  0  0
  -18.3228  -31.8631   21.5867 C   0  0  0  0  0  0  0  0  0  0  0  0
  -20.9012  -31.1556   20.8135 C   0  0  0  0  0  0  0  0  0  0  0  0
  -24.9837  -26.9195   19.1122 C   0  0  0  0  0  0  0  0  0  0  0  0
  -24.3286   -9.1086   22.5310 C   0  0  0  0  0  0  0  0  0  0  0  0
  -24.1153  -10.2198   24.6657 C   0  0  0  0  0  0  0  0  0  0  0  0
  -26.3717  -26.9522   18.9850 C   0  0  0  0  0  0  0  0  0  0  0  0
  -21.4379   -7.6517   23.5077 C   0  0  0  0  0  0  0  0  0  0  0  0
  -20.4949   -6.8807   22.8281 C   0  0  0  0  0  0  0  0  0  0  0  0
  -28.1319  -21.5116   18.0728 C   0  0  0  0  0  0  0  0  0  0  0  0
  -26.5903  -26.0130   21.1962 C   0  0  0  0  0  0  0  0  0  0  0  0
  -29.0906  -21.8729   20.2531 C   0  0  0  0  0  0  0  0  0  0  0  0
  -22.0734   -5.0556   22.7081 C   0  0  0  0  0  0  0  0  0  0  0  0
  -27.5469  -20.3499   18.5564 C   0  0  0  0  0  0  0  0  0  0  0  0
  -24.8197  -11.4666   22.7200 C   0  0  0  0  0  0  0  0  0  0  0  0
  -24.4043  -13.6824   21.5261 C   0  0  0  0  0  0  0  0  0  0  0  0
  -19.0991  -31.0582   22.4353 C   0  0  0  0  0  0  0  0  0  0  0  0
  -24.3878  -26.4427   20.2886 C   0  0  0  0  0  0  0  0  0  0  0  0
  -20.4074  -30.7078   22.0505 C   0  0  0  0  0  0  0  0  0  0  0  0
  -25.1945  -25.9729   21.3348 C   0  0  0  0  0  0  0  0  0  0  0  0
  -28.9112  -22.2781   18.9339 C   0  0  0  0  0  0  0  0  0  0  0  0
  -24.0227   -9.0634   23.8912 C   0  0  0  0  0  0  0  0  0  0  0  0
  -27.1753  -26.5016   20.0282 C   0  0  0  0  0  0  0  0  0  0  0  0
  -22.6987   -7.1247   23.7874 C   0  0  0  0  0  0  0  0  0  0  0  0
  -20.8126   -5.5827   22.4283 C   0  0  0  0  0  0  0  0  0  0  0  0
  -23.0165   -5.8267   23.3877 C   0  0  0  0  0  0  0  0  0  0  0  0
  -25.2318  -12.7081   22.1157 C   0  0  0  0  0  0  0  0  0  0  0  0
  -28.4812  -20.7021   20.6815 C   0  0  0  0  0  0  0  0  0  0  0  0
  -25.2719  -14.6603   21.1047 C   0  0  0  0  0  0  0  0  0  0  0  0
  -22.9789  -13.7019   21.3731 C   0  0  0  0  0  0  0  0  0  0  0  0
  -22.5032  -27.7008   22.5177 C   0  0  0  0  0  0  0  0  0  0  0  0
  -22.4283  -24.6516   23.6218 C   0  0  0  0  0  0  0  0  0  0  0  0
  -23.9334  -21.5933   23.7897 C   0  0  0  0  0  0  0  0  0  0  0  0
  -29.6858  -17.9597   21.9860 C   0  0  0  0  0  0  0  0  0  0  0  0
  -18.5281  -30.6484   23.7698 C   0  0  0  0  0  0  0  0  0  0  0  0
  -22.8887  -26.3891   20.3996 C   0  0  0  0  0  0  0  0  0  0  0  0
  -24.6038  -25.4325   22.6105 C   0  0  0  0  0  0  0  0  0  0  0  0
  -19.2887  -29.5022   24.4317 C   0  0  0  0  0  0  0  0  0  0  0  0
  -30.3201  -14.6683   20.7857 C   0  0  0  0  0  0  0  0  0  0  0  0
  -20.7919  -29.7541   24.3718 C   0  0  0  0  0  0  0  0  0  0  0  0
  -28.9871  -13.9441   20.9819 C   0  0  0  0  0  0  0  0  0  0  0  0
  -30.5969  -15.6572   21.9160 C   0  0  0  0  0  0  0  0  0  0  0  0
  -28.1857  -15.9087   22.3593 C   0  0  0  0  0  0  0  0  0  0  0  0
  -21.2811  -29.8304   22.9205 C   0  0  1  0  0  0  0  0  0  0  0  0
  -22.3971  -26.3623   21.8435 C   0  0  1  0  0  0  0  0  0  0  0  0
  -27.8363  -14.9414   21.2153 C   0  0  2  0  0  0  0  0  0  0  0  0
  -23.6525  -19.3121   24.7970 C   0  0  0  0  0  0  0  0  0  0  0  0
  -31.7151  -23.6666   19.4432 C   0  0  0  0  0  0  0  0  0  0  0  0
  -23.2979  -25.7450   26.3344 C   0  0  0  0  0  0  0  0  0  0  0  0
  -23.9111  -23.4108   27.0006 C   0  0  0  0  0  0  0  0  0  0  0  0
  -21.5443  -23.9651   26.4405 C   0  0  0  0  0  0  0  0  0  0  0  0
  -23.8331  -20.3032   21.1280 C   0  0  0  0  0  0  0  0  0  0  0  0
  -28.6241  -20.2012   22.0725 C   0  0  0  0  0  0  0  0  0  0  0  0
  -30.4229  -25.6941   18.6915 C   0  0  0  0  0  0  0  0  0  0  0  0
  -29.0684  -26.3887   18.5932 C   0  0  0  0  0  0  0  0  0  1  0  0
  -23.2605  -23.8437   24.5880 C   0  0  1  0  0  0  0  0  0  0  0  0
  -23.3905  -20.1907   23.5836 C   0  0  2  0  0  0  0  0  0  0  0  0
  -30.3316  -24.2950   19.3087 C   0  0  1  0  0  0  0  0  0  0  0  0
  -23.0149  -24.2530   26.0677 C   0  0  0  0  0  0  0  0  0  0  0  0
  -26.5257  -13.0369   22.0744 N   0  0  0  0  0  0  0  0  0  0  0  0
  -26.5178  -14.2289   21.4537 N   0  0  0  0  0  0  0  0  0  0  0  0
  -27.7360  -19.9830   19.8312 N   0  3  0  0  0  0  0  0  0  0  0  0
  -23.1331  -25.4065   22.6735 N   0  0  0  0  0  0  0  0  0  0  0  0
  -29.4681  -16.5755   22.0844 N   0  0  0  0  0  0  0  0  0  0  0  0
  -25.0830  -15.8385   20.4734 N   0  0  0  0  0  0  0  0  0  0  0  0
  -22.2394  -12.6168   21.8631 N   0  0  0  0  0  0  0  0  0  0  0  0
  -29.5081  -23.4402   18.4791 N   0  0  0  0  0  0  0  0  0  0  0  0
  -21.3904  -28.5033   22.3535 N   0  0  0  0  0  0  0  0  0  0  0  0
  -22.9745  -22.4423   24.3004 N   0  0  0  0  0  0  0  0  0  0  0  0
  -28.5613  -18.7588   22.1521 N   0  0  0  0  0  0  0  0  0  0  0  0
  -24.0310  -19.5564   22.3969 N   0  3  0  0  0  0  0  0  0  0  0  0
  -22.3802  -14.6457   20.8035 O   0  0  0  0  0  0  0  0  0  0  0  0
  -23.5190  -27.9840   23.1421 O   0  0  0  0  0  0  0  0  0  0  0  0
  -21.1980  -24.6087   23.7007 O   0  0  0  0  0  0  0  0  0  0  0  0
  -25.0934  -21.9037   23.5275 O   0  0  0  0  0  0  0  0  0  0  0  0
  -30.7989  -18.4470   21.7612 O   0  0  0  0  0  0  0  0  0  0  0  0
  -23.6336   -7.8911   24.4629 O   0  0  0  0  0  0  0  0  0  0  0  0
  -28.5304  -26.5330   19.9070 O   0  0  0  0  0  0  0  0  0  1  0  0
  -19.9063   -4.8419   21.7770 F   0  0  0  0  0  0  0  0  0  0  0  0
  -24.2257   -5.3145   23.6546 F   0  0  0  0  0  0  0  0  0  0  0  0
  1  2  1  0  0  0  0
  1  5  2  0  0  0  0
  2  6  2  0  0  0  0
  3  8  2  0  0  0  0
  3 18  1  0  0  0  0
  4  9  1  0  0  0  0
  4 18  2  0  0  0  0
  5 20  1  0  0  0  0
  6 22  1  0  0  0  0
  7 10  2  0  0  0  0
  7 21  1  0  0  0  0
  8 25  1  0  0  0  0
  9 25  2  0  0  0  0
 10 26  1  0  0  0  0
 11 12  2  0  0  0  0
 11 27  1  0  0  0  0
 12 28  1  0  0  0  0
 13 17  2  0  0  0  0
 13 24  1  0  0  0  0
 14 23  1  0  0  0  0
 14 26  2  0  0  0  0
 15 24  2  0  0  0  0
 15 31  1  0  0  0  0
 16 28  2  0  0  0  0
 16 29  1  0  0  0  0
 17 65  1  0  0  0  0
 18 30  1  0  0  0  0
 19 30  1  0  0  0  0
 19 32  2  0  0  0  0
 19 33  1  0  0  0  0
 20 22  2  0  0  0  0
 20 38  1  0  0  0  0
 21 23  2  0  0  0  0
 21 39  1  0  0  0  0
 22 47  1  0  0  0  0
 23 40  1  0  0  0  0
 24 70  1  0  0  0  0
 25 80  1  0  0  0  0
 26 81  1  0  0  0  0
 27 29  2  0  0  0  0
 27 80  1  0  0  0  0
 28 82  1  0  0  0  0
 29 83  1  0  0  0  0
 30 63  2  0  0  0  0
 31 56  1  0  0  0  0
 31 65  2  0  0  0  0
 32 64  1  0  0  0  0
 32 68  1  0  0  0  0
 33 69  1  0  0  0  0
 33 75  2  0  0  0  0
 34 48  1  0  0  0  0
 34 71  1  0  0  0  0
 34 76  2  0  0  0  0
 35 59  1  0  0  0  0
 35 66  1  0  0  0  0
 35 77  2  0  0  0  0
 36 60  1  0  0  0  0
 36 72  1  0  0  0  0
 36 78  2  0  0  0  0
 37 67  1  0  0  0  0
 37 73  1  0  0  0  0
 37 79  2  0  0  0  0
 38 41  1  0  0  0  0
 39 48  1  0  0  0  0
 40 66  1  0  0  0  0
 41 43  1  0  0  0  0
 42 44  1  0  0  0  0
 42 45  1  0  0  0  0
 43 47  1  0  0  0  0
 44 49  1  0  0  0  0
 45 67  1  0  0  0  0
 46 49  1  0  0  0  0
 46 67  1  0  0  0  0
 47 71  1  0  0  0  0
 48 66  1  0  0  0  0
 49 64  1  0  0  0  0
 50 60  1  0  0  0  0
 51 61  1  0  0  0  0
 52 62  1  0  0  0  0
 53 62  1  0  0  0  0
 54 62  1  0  0  0  0
 55 74  1  0  0  0  0
 56 73  1  0  0  0  0
 57 58  1  0  0  0  0
 57 61  1  0  0  0  0
 58 81  1  0  0  0  0
 59 62  1  0  0  0  0
 59 72  1  0  0  0  0
 60 74  1  0  0  0  0
 61 70  1  0  0  0  0
 63 64  1  0  0  0  0
M  CHG  2  65   1  74   1
M  ISO  4  37 100  58 101  73 100  81 101
M  END
> <Batch ID>
0197

> <Smiles>
CNC(C)C(=O)NC(C(=O)N1Cc2cc([101O:1][101CH2:1]CC(C)Nc3ccnc(C[100NH:0][100C:0](=O)N4CCCC(n5nc(-c6ccc(Oc7ccc(F)cc7F)cc6)c(C(N)=O)c5N)C4)c3)ccc2CC1C(=O)NC1CCCc2ccccc21)C(C)(C)C

> <Shape>
0.241

> <Color>
0.106

> <Negative vol penalty>
0.000

$$$$

  -OEChem-04052305413D

 81 89  0     1  0  0  0  0  0999 V2000
  -27.5456  -23.9096   17.3292 C   0  0  0  0  0  0  0  0  0  0  0  0
  -26.4989  -24.7933   17.5664 C   0  0  0  0  0  0  0  0  0  0  0  0
  -27.6383  -14.7605   21.3221 C   0  0  0  0  0  0  0  0  0  0  0  0
  -25.7256  -15.0581   19.8764 C   0  0  0  0  0  0  0  0  0  0  0  0
  -28.6150  -23.8466   18.2200 C   0  0  0  0  0  0  0  0  0  0  0  0
  -26.5269  -25.6228   18.6881 C   0  0  0  0  0  0  0  0  0  0  0  0
  -22.9902  -29.0243   19.0412 C   0  0  0  0  0  0  0  0  0  0  0  0
  -27.3847  -13.3900   21.3756 C   0  0  0  0  0  0  0  0  0  0  0  0
  -25.4720  -13.6875   19.9299 C   0  0  0  0  0  0  0  0  0  0  0  0
  -21.6650  -28.7060   19.3350 C   0  0  0  0  0  0  0  0  0  0  0  0
  -24.0656  -11.4965   22.0868 C   0  0  0  0  0  0  0  0  0  0  0  0
  -22.7472  -11.0888   22.2897 C   0  0  0  0  0  0  0  0  0  0  0  0
  -21.9870  -29.4798   21.5971 C   0  0  0  0  0  0  0  0  0  0  0  0
  -22.7870   -9.9106   20.1808 C   0  0  0  0  0  0  0  0  0  0  0  0
  -21.1737  -21.9669   20.1947 C   0  0  0  0  0  0  0  0  0  0  0  0
  -26.8088  -15.5946   20.5726 C   0  0  0  0  0  0  0  0  0  0  0  0
  -27.8787  -17.6901   19.5869 C   0  0  0  0  0  0  0  0  0  0  0  0
  -28.6494  -24.6672   19.3595 C   0  0  0  0  0  0  0  0  0  0  0  0
  -23.8282  -29.5635   20.0278 C   0  0  0  0  0  0  0  0  0  0  0  0
  -27.6090  -25.5911   19.5862 C   0  0  0  0  0  0  0  0  0  0  0  0
  -23.3217  -29.8064   21.3125 C   0  0  0  0  0  0  0  0  0  0  0  0
  -26.3016  -12.8534   20.6795 C   0  0  0  0  0  0  0  0  0  0  0  0
  -21.1640  -28.9310   20.6139 C   0  0  0  0  0  0  0  0  0  0  0  0
  -24.7447  -11.1112   20.9309 C   0  0  0  0  0  0  0  0  0  0  0  0
  -22.1079  -10.2959   21.3367 C   0  0  0  0  0  0  0  0  0  0  0  0
  -24.1054  -10.3182   19.9779 C   0  0  0  0  0  0  0  0  0  0  0  0
  -27.0699  -17.0105   20.5174 C   0  0  0  0  0  0  0  0  0  0  0  0
  -21.7929  -22.4829   21.3041 C   0  0  0  0  0  0  0  0  0  0  0  0
  -27.7995  -19.0091   19.9619 C   0  0  0  0  0  0  0  0  0  0  0  0
  -20.2771  -24.1566   21.3324 C   0  0  0  0  0  0  0  0  0  0  0  0
  -28.6341  -17.1753   18.4824 C   0  0  0  0  0  0  0  0  0  0  0  0
  -26.5209  -28.6328   21.4374 C   0  0  0  0  0  0  0  0  0  0  0  0
  -26.3729  -31.5779   22.7890 C   0  0  0  0  0  0  0  0  0  0  0  0
  -24.4571  -34.2407   23.7303 C   0  0  0  0  0  0  0  0  0  0  0  0
  -23.6888  -22.1684   22.9329 C   0  0  0  0  0  0  0  0  0  0  0  0
  -29.8349  -24.5635   20.2864 C   0  0  0  0  0  0  0  0  0  0  0  0
  -25.2477  -29.9263   19.6875 C   0  0  0  0  0  0  0  0  0  0  0  0
  -24.1745  -30.4022   22.4016 C   0  0  0  0  0  0  0  0  0  0  0  0
  -29.5642  -25.1544   21.6662 C   0  0  0  0  0  0  0  0  0  0  0  0
  -27.1161  -21.7728   23.8127 C   0  0  0  0  0  0  0  0  0  0  0  0
  -28.9607  -26.5441   21.5272 C   0  0  0  0  0  0  0  0  0  0  0  0
  -27.5685  -20.5723   22.9783 C   0  0  0  0  0  0  0  0  0  0  0  0
  -25.6808  -21.6097   24.3095 C   0  0  0  0  0  0  0  0  0  0  0  0
  -25.1451  -20.1086   22.4310 C   0  0  0  0  0  0  0  0  0  0  0  0
  -27.6032  -26.4812   20.8158 C   0  0  1  0  0  0  0  0  0  0  0  0
  -26.1572  -29.9922   20.9106 C   0  0  1  0  0  0  0  0  0  0  0  0
  -26.5625  -20.2564   21.8541 C   0  0  2  0  0  0  0  0  0  0  0  0
  -24.6130  -36.4833   24.8456 C   0  0  0  0  0  0  0  0  0  0  0  0
  -26.6264  -30.2076   25.5034 C   0  0  0  0  0  0  0  0  0  0  0  0
  -25.8327  -32.3289   26.5704 C   0  0  0  0  0  0  0  0  0  0  0  0
  -27.9599  -32.3101   25.2676 C   0  0  0  0  0  0  0  0  0  0  0  0
  -23.4677  -35.6391   21.3169 C   0  0  0  0  0  0  0  0  0  0  0  0
  -18.3870  -27.2904   22.2403 C   0  0  0  0  0  0  0  0  0  0  0  0
  -18.6326  -26.0312   21.4179 C   0  0  0  0  0  0  0  0  0  0  0  0
  -19.5802  -28.2387   22.2473 C   0  0  0  0  0  0  0  0  0  1  0  0
  -25.7545  -32.1493   24.0420 C   0  0  1  0  0  0  0  0  0  0  0  0
  -24.6360  -35.7338   23.5225 C   0  0  2  0  0  0  0  0  0  0  0  0
  -26.5276  -31.7359   25.3261 C   0  0  0  0  0  0  0  0  0  0  0  0
  -20.0944  -22.5701   19.6644 N   0  0  0  0  0  0  0  0  0  0  0  0
  -26.5176  -17.8300   21.4160 N   0  0  0  0  0  0  0  0  0  0  0  0
  -21.3551  -23.5999   21.9046 N   0  0  0  0  0  0  0  0  0  0  0  0
  -19.6289  -23.6959   20.2446 N   0  0  0  0  0  0  0  0  0  0  0  0
  -26.9802  -19.0381   21.0519 N   0  0  0  0  0  0  0  0  0  0  0  0
  -25.5575  -30.7342   22.0215 N   0  0  0  0  0  0  0  0  0  0  0  0
  -24.7840  -21.3165   23.1894 N   0  0  0  0  0  0  0  0  0  0  0  0
  -28.3514  -20.1352   19.4623 N   0  0  0  0  0  0  0  0  0  0  0  0
  -28.6048  -15.7954   18.2383 N   0  0  0  0  0  0  0  0  0  0  0  0
  -22.9257  -21.8080   21.8228 N   0  0  0  0  0  0  0  0  0  0  0  0
  -19.7827  -25.3141   21.9132 N   0  0  0  0  0  0  0  0  0  0  0  0
  -27.1638  -27.8265   20.5175 N   0  0  0  0  0  0  0  0  0  0  0  0
  -25.6687  -33.5908   23.8342 N   0  0  0  0  0  0  0  0  0  0  0  0
  -23.5464  -36.2709   22.6592 N   0  3  0  0  0  0  0  0  0  0  0  0
  -29.3279  -17.9148   17.7439 O   0  0  0  0  0  0  0  0  0  0  0  0
  -26.2405  -28.3379   22.5932 O   0  0  0  0  0  0  0  0  0  0  0  0
  -27.5342  -31.8751   22.4981 O   0  0  0  0  0  0  0  0  0  0  0  0
  -23.3530  -33.7051   23.7976 O   0  0  0  0  0  0  0  0  0  0  0  0
  -23.4618  -23.1611   23.6293 O   0  0  0  0  0  0  0  0  0  0  0  0
  -26.0539  -11.5161   20.7313 O   0  0  0  0  0  0  0  0  0  0  0  0
  -19.8711  -28.6206   20.9035 O   0  0  0  0  0  0  0  0  0  1  0  0
  -20.8423   -9.9032   21.5324 F   0  0  0  0  0  0  0  0  0  0  0  0
  -24.7531   -9.9440   18.8661 F   0  0  0  0  0  0  0  0  0  0  0  0
  1  2  1  0  0  0  0
  1  5  2  0  0  0  0
  2  6  2  0  0  0  0
  3  8  2  0  0  0  0
  3 16  1  0  0  0  0
  4  9  1  0  0  0  0
  4 16  2  0  0  0  0
  5 18  1  0  0  0  0
  6 20  1  0  0  0  0
  7 10  2  0  0  0  0
  7 19  1  0  0  0  0
  8 22  1  0  0  0  0
  9 22  2  0  0  0  0
 10 23  1  0  0  0  0
 11 12  2  0  0  0  0
 11 24  1  0  0  0  0
 12 25  1  0  0  0  0
 13 21  1  0  0  0  0
 13 23  2  0  0  0  0
 14 25  2  0  0  0  0
 14 26  1  0  0  0  0
 15 28  2  0  0  0  0
 15 59  1  0  0  0  0
 16 27  1  0  0  0  0
 17 27  1  0  0  0  0
 17 29  2  0  0  0  0
 17 31  1  0  0  0  0
 18 20  2  0  0  0  0
 18 36  1  0  0  0  0
 19 21  2  0  0  0  0
 19 37  1  0  0  0  0
 20 45  1  0  0  0  0
 21 38  1  0  0  0  0
 22 78  1  0  0  0  0
 23 79  1  0  0  0  0
 24 26  2  0  0  0  0
 24 78  1  0  0  0  0
 25 80  1  0  0  0  0
 26 81  1  0  0  0  0
 27 60  2  0  0  0  0
 28 61  1  0  0  0  0
 28 68  1  0  0  0  0
 29 63  1  0  0  0  0
 29 66  1  0  0  0  0
 30 61  2  0  0  0  0
 30 62  1  0  0  0  0
 30 69  1  0  0  0  0
 31 67  1  0  0  0  0
 31 73  2  0  0  0  0
 32 46  1  0  0  0  0
 32 70  1  0  0  0  0
 32 74  2  0  0  0  0
 33 56  1  0  0  0  0
 33 64  1  0  0  0  0
 33 75  2  0  0  0  0
 34 57  1  0  0  0  0
 34 71  1  0  0  0  0
 34 76  2  0  0  0  0
 35 65  1  0  0  0  0
 35 68  1  0  0  0  0
 35 77  2  0  0  0  0
 36 39  1  0  0  0  0
 37 46  1  0  0  0  0
 38 64  1  0  0  0  0
 39 41  1  0  0  0  0
 40 42  1  0  0  0  0
 40 43  1  0  0  0  0
 41 45  1  0  0  0  0
 42 47  1  0  0  0  0
 43 65  1  0  0  0  0
 44 47  1  0  0  0  0
 44 65  1  0  0  0  0
 45 70  1  0  0  0  0
 46 64  1  0  0  0  0
 47 63  1  0  0  0  0
 48 57  1  0  0  0  0
 49 58  1  0  0  0  0
 50 58  1  0  0  0  0
 51 58  1  0  0  0  0
 52 72  1  0  0  0  0
 53 54  1  0  0  0  0
 53 55  1  0  0  0  0
 54 69  1  0  0  0  0
 55 79  1  0  0  0  0
 56 58  1  0  0  0  0
 56 71  1  0  0  0  0
 57 72  1  0  0  0  0
 59 62  2  0  0  0  0
 60 63  1  0  0  0  0
M  CHG  1  72   1
M  ISO  4  35 100  55 101  68 100  79 101
M  END
> <Batch ID>
0197

> <Smiles>
CNC(C)C(=O)NC(C(=O)N1Cc2cc([101O:1][101CH2:1]CCNc3nncc([100NH:0][100C:0](=O)N4CCCC(n5nc(-c6ccc(Oc7ccc(F)cc7F)cc6)c(C(N)=O)c5N)C4)n3)ccc2CC1C(=O)NC1CCCc2ccccc21)C(C)(C)C

> <Shape>
0.297

> <Color>
0.075

> <Negative vol penalty>
0.000

$$$$

  -OEChem-04052305413D

 86 94  0     1  0  0  0  0  0999 V2000
  -27.9688  -29.0363   12.9836 C   0  0  0  0  0  0  0  0  0  0  0  0
  -28.8898  -28.2809   13.7023 C   0  0  0  0  0  0  0  0  0  0  0  0
  -23.0027   -9.8651   19.9706 C   0  0  0  0  0  0  0  0  0  0  0  0
  -23.7319   -9.9034   22.2736 C   0  0  0  0  0  0  0  0  0  0  0  0
  -27.0731  -29.8662   13.6566 C   0  0  0  0  0  0  0  0  0  0  0  0
  -28.9163  -28.3557   15.0944 C   0  0  0  0  0  0  0  0  0  0  0  0
  -30.2002  -23.8177   19.0014 C   0  0  0  0  0  0  0  0  0  0  0  0
  -22.2405   -8.7263   20.2308 C   0  0  0  0  0  0  0  0  0  0  0  0
  -22.9696   -8.7646   22.5339 C   0  0  0  0  0  0  0  0  0  0  0  0
  -31.3640  -23.4706   19.6860 C   0  0  0  0  0  0  0  0  0  0  0  0
  -23.2243   -5.4296   22.0396 C   0  0  0  0  0  0  0  0  0  0  0  0
  -23.8166   -4.4095   22.7839 C   0  0  0  0  0  0  0  0  0  0  0  0
  -30.5751  -24.6713   21.6238 C   0  0  0  0  0  0  0  0  0  0  0  0
  -29.7788  -17.6879   22.7225 C   0  0  0  0  0  0  0  0  0  0  0  0
  -22.0949   -4.6356   24.4638 C   0  0  0  0  0  0  0  0  0  0  0  0
  -32.3298  -18.4311   22.0004 C   0  0  0  0  0  0  0  0  0  0  0  0
  -23.7485  -10.4536   20.9919 C   0  0  0  0  0  0  0  0  0  0  0  0
  -24.1251  -12.9716   20.8318 C   0  0  0  0  0  0  0  0  0  0  0  0
  -27.0822  -29.9439   15.0582 C   0  0  0  0  0  0  0  0  0  0  0  0
  -29.2183  -24.6048   19.6202 C   0  0  0  0  0  0  0  0  0  0  0  0
  -28.0208  -29.1884   15.7868 C   0  0  0  0  0  0  0  0  0  0  0  0
  -29.3986  -25.0249   20.9458 C   0  0  0  0  0  0  0  0  0  0  0  0
  -30.2884  -18.9097   23.1515 C   0  0  0  0  0  0  0  0  0  0  0  0
  -31.5771  -19.2895   22.7891 C   0  0  0  0  0  0  0  0  0  0  0  0
  -22.2239   -8.1760   21.5124 C   0  0  0  0  0  0  0  0  0  0  0  0
  -31.5530  -23.8998   20.9964 C   0  0  0  0  0  0  0  0  0  0  0  0
  -22.0673   -6.0529   22.5074 C   0  0  0  0  0  0  0  0  0  0  0  0
  -23.2519   -4.0125   23.9960 C   0  0  0  0  0  0  0  0  0  0  0  0
  -21.5027   -5.6558   23.7194 C   0  0  0  0  0  0  0  0  0  0  0  0
  -24.5365  -11.6296   20.7236 C   0  0  0  0  0  0  0  0  0  0  0  0
  -25.2317  -13.7003   20.4701 C   0  0  0  0  0  0  0  0  0  0  0  0
  -30.5770  -16.8701   21.9354 C   0  0  0  0  0  0  0  0  0  0  0  0
  -22.8560  -13.5112   21.2241 C   0  0  0  0  0  0  0  0  0  0  0  0
  -27.9487  -27.4632   19.0534 C   0  0  0  0  0  0  0  0  0  0  0  0
  -25.9733  -26.6372   21.4902 C   0  0  0  0  0  0  0  0  0  0  0  0
  -33.4013  -21.0216   22.9159 C   0  0  0  0  0  0  0  0  0  0  0  0
  -25.4560  -24.7550   24.2896 C   0  0  0  0  0  0  0  0  0  0  0  0
  -30.7084  -14.6782   20.7006 C   0  0  0  0  0  0  0  0  0  0  0  0
  -26.1261  -30.8910   15.7390 C   0  0  0  0  0  0  0  0  0  0  0  0
  -27.9564  -24.9482   18.8772 C   0  0  0  0  0  0  0  0  0  0  0  0
  -28.3657  -25.8546   21.6621 C   0  0  0  0  0  0  0  0  0  0  0  0
  -25.9705  -30.6288   17.2347 C   0  0  0  0  0  0  0  0  0  0  0  0
  -29.5941  -12.2369   18.3606 C   0  0  0  0  0  0  0  0  0  0  0  0
  -27.3356  -30.4378   17.8881 C   0  0  0  0  0  0  0  0  0  0  0  0
  -28.1451  -11.9717   18.7757 C   0  0  0  0  0  0  0  0  0  0  0  0
  -30.4960  -12.4754   19.5704 C   0  0  0  0  0  0  0  0  0  0  0  0
  -28.5804  -13.2490   20.9125 C   0  0  0  0  0  0  0  0  0  0  0  0
  -28.0641  -29.2237   17.2990 C   0  0  1  0  0  0  0  0  0  0  0  0
  -27.2550  -26.1848   19.4306 C   0  0  1  0  0  0  0  0  0  0  0  0
  -27.6212  -13.0672   19.7248 C   0  0  2  0  0  0  0  0  0  0  0  0
  -24.2182  -23.7726   26.2390 C   0  0  0  0  0  0  0  0  0  0  0  0
  -27.2035  -19.6596   23.1883 C   0  0  0  0  0  0  0  0  0  0  0  0
  -27.7766  -20.2093   25.5790 C   0  0  0  0  0  0  0  0  0  0  0  0
  -26.7378  -29.2670   22.8355 C   0  0  0  0  0  0  0  0  0  0  0  0
  -25.8028  -28.3638   24.9751 C   0  0  0  0  0  0  0  0  0  0  0  0
  -24.3129  -28.6778   22.9992 C   0  0  0  0  0  0  0  0  0  0  0  0
  -24.4390  -22.5045   22.6586 C   0  0  0  0  0  0  0  0  0  0  0  0
  -33.5959  -22.3888   23.5616 C   0  0  0  0  0  0  0  0  0  0  0  0
  -32.5892  -23.4242   23.0835 C   0  0  0  0  0  0  0  0  0  1  0  0
  -26.0023  -26.7970   22.9911 C   0  0  1  0  0  0  0  0  0  0  0  0
  -24.2803  -23.8990   24.7248 C   0  0  2  0  0  0  0  0  0  0  0  0
  -28.1539  -19.3986   24.3478 C   0  0  0  0  0  0  0  0  0  0  0  0
  -25.7345  -28.2624   23.4363 C   0  0  0  0  0  0  0  0  0  0  0  0
  -25.8055  -11.5100   20.3243 N   0  0  0  0  0  0  0  0  0  0  0  0
  -26.2009  -12.7861   20.1784 N   0  0  0  0  0  0  0  0  0  0  0  0
  -31.8146  -17.2603   21.6010 N   0  3  0  0  0  0  0  0  0  0  0  0
  -27.1517  -26.1699   20.8912 N   0  0  0  0  0  0  0  0  0  0  0  0
  -29.9389  -13.5289   20.4216 N   0  0  0  0  0  0  0  0  0  0  0  0
  -25.4606  -15.0274   20.3764 N   0  0  0  0  0  0  0  0  0  0  0  0
  -21.8278  -12.6213   21.5637 N   0  0  0  0  0  0  0  0  0  0  0  0
  -32.1339  -20.5225   23.2043 N   0  0  0  0  0  0  0  0  0  0  0  0
  -29.4817  -19.7486   23.9523 N   0  0  0  0  0  0  0  0  0  0  0  0
  -30.0623  -15.6260   21.4936 N   0  0  0  0  0  0  0  0  0  0  0  0
  -27.5291  -27.9970   17.8499 N   0  0  0  0  0  0  0  0  0  0  0  0
  -25.0510  -25.8274   23.5233 N   0  0  0  0  0  0  0  0  0  0  0  0
  -24.3919  -22.5314   24.1432 N   0  3  0  0  0  0  0  0  0  0  0  0
  -22.6352  -14.7456   21.2564 O   0  0  0  0  0  0  0  0  0  0  0  0
  -28.8004  -27.9313   19.7998 O   0  0  0  0  0  0  0  0  0  0  0  0
  -24.9407  -26.9099   20.8729 O   0  0  0  0  0  0  0  0  0  0  0  0
  -34.2776  -20.4853   22.2461 O   0  0  0  0  0  0  0  0  0  0  0  0
  -26.6171  -24.5000   24.6015 O   0  0  0  0  0  0  0  0  0  0  0  0
  -31.8457  -14.8239   20.2455 O   0  0  0  0  0  0  0  0  0  0  0  0
  -21.4800   -7.0650   21.7668 O   0  0  0  0  0  0  0  0  0  0  0  0
  -32.6884  -23.5629   21.6667 O   0  0  0  0  0  0  0  0  0  1  0  0
  -23.8200   -3.0318   24.7100 F   0  0  0  0  0  0  0  0  0  0  0  0
  -20.3906   -6.2500   24.1734 F   0  0  0  0  0  0  0  0  0  0  0  0
  1  2  1  0  0  0  0
  1  5  2  0  0  0  0
  2  6  2  0  0  0  0
  3  8  2  0  0  0  0
  3 17  1  0  0  0  0
  4  9  1  0  0  0  0
  4 17  2  0  0  0  0
  5 19  1  0  0  0  0
  6 21  1  0  0  0  0
  7 10  2  0  0  0  0
  7 20  1  0  0  0  0
  8 25  1  0  0  0  0
  9 25  2  0  0  0  0
 10 26  1  0  0  0  0
 11 12  2  0  0  0  0
 11 27  1  0  0  0  0
 12 28  1  0  0  0  0
 13 22  1  0  0  0  0
 13 26  2  0  0  0  0
 14 23  1  0  0  0  0
 14 32  2  0  0  0  0
 15 28  2  0  0  0  0
 15 29  1  0  0  0  0
 16 24  1  0  0  0  0
 16 66  2  0  0  0  0
 17 30  1  0  0  0  0
 18 30  1  0  0  0  0
 18 31  2  0  0  0  0
 18 33  1  0  0  0  0
 19 21  2  0  0  0  0
 19 39  1  0  0  0  0
 20 22  2  0  0  0  0
 20 40  1  0  0  0  0
 21 48  1  0  0  0  0
 22 41  1  0  0  0  0
 23 24  2  0  0  0  0
 23 72  1  0  0  0  0
 24 71  1  0  0  0  0
 25 83  1  0  0  0  0
 26 84  1  0  0  0  0
 27 29  2  0  0  0  0
 27 83  1  0  0  0  0
 28 85  1  0  0  0  0
 29 86  1  0  0  0  0
 30 64  2  0  0  0  0
 31 65  1  0  0  0  0
 31 69  1  0  0  0  0
 32 66  1  0  0  0  0
 32 73  1  0  0  0  0
 33 70  1  0  0  0  0
 33 77  2  0  0  0  0
 34 49  1  0  0  0  0
 34 74  1  0  0  0  0
 34 78  2  0  0  0  0
 35 60  1  0  0  0  0
 35 67  1  0  0  0  0
 35 79  2  0  0  0  0
 36 58  1  0  0  0  0
 36 71  1  0  0  0  0
 36 80  2  0  0  0  0
 37 61  1  0  0  0  0
 37 75  1  0  0  0  0
 37 81  2  0  0  0  0
 38 68  1  0  0  0  0
 38 73  1  0  0  0  0
 38 82  2  0  0  0  0
 39 42  1  0  0  0  0
 40 49  1  0  0  0  0
 41 67  1  0  0  0  0
 42 44  1  0  0  0  0
 43 45  1  0  0  0  0
 43 46  1  0  0  0  0
 44 48  1  0  0  0  0
 45 50  1  0  0  0  0
 46 68  1  0  0  0  0
 47 50  1  0  0  0  0
 47 68  1  0  0  0  0
 48 74  1  0  0  0  0
 49 67  1  0  0  0  0
 50 65  1  0  0  0  0
 51 61  1  0  0  0  0
 52 62  1  0  0  0  0
 53 62  1  0  0  0  0
 54 63  1  0  0  0  0
 55 63  1  0  0  0  0
 56 63  1  0  0  0  0
 57 76  1  0  0  0  0
 58 59  1  0  0  0  0
 59 84  1  0  0  0  0
 60 63  1  0  0  0  0
 60 75  1  0  0  0  0
 61 76  1  0  0  0  0
 62 72  1  0  0  0  0
 64 65  1  0  0  0  0
M  CHG  2  66   1  76   1
M  ISO  4  38 100  59 101  73 100  84 101
M  END
> <Batch ID>
0197

> <Smiles>
CNC(C)C(=O)NC(C(=O)N1Cc2cc([101O:1][101CH2:1]CC(=O)Nc3cnc([100NH:0][100C:0](=O)N4CCCC(n5nc(-c6ccc(Oc7ccc(F)cc7F)cc6)c(C(N)=O)c5N)C4)cc3NC(C)C)ccc2CC1C(=O)NC1CCCc2ccccc21)C(C)(C)C

> <Shape>
0.235

> <Color>
0.190

> <Negative vol penalty>
0.000

$$$$

  -OEChem-04052305413D

 83 91  0     1  0  0  0  0  0999 V2000
  -38.7215  -29.0159   25.7801 C   0  0  0  0  0  0  0  0  0  0  0  0
  -37.9914  -28.0607   25.0802 C   0  0  0  0  0  0  0  0  0  0  0  0
  -23.0754   -9.8680   19.9400 C   0  0  0  0  0  0  0  0  0  0  0  0
  -23.8348   -9.8737   22.2335 C   0  0  0  0  0  0  0  0  0  0  0  0
  -38.2383  -30.3192   25.8887 C   0  0  0  0  0  0  0  0  0  0  0  0
  -36.7771  -28.4080   24.4892 C   0  0  0  0  0  0  0  0  0  0  0  0
  -36.3207  -26.6006   19.7807 C   0  0  0  0  0  0  0  0  0  0  0  0
  -22.3313   -8.7149   20.1892 C   0  0  0  0  0  0  0  0  0  0  0  0
  -23.0906   -8.7205   22.4828 C   0  0  0  0  0  0  0  0  0  0  0  0
  -35.9927  -25.2523   19.6453 C   0  0  0  0  0  0  0  0  0  0  0  0
  -19.8622   -7.9230   23.0842 C   0  0  0  0  0  0  0  0  0  0  0  0
  -19.1050   -7.8827   24.2549 C   0  0  0  0  0  0  0  0  0  0  0  0
  -33.6935  -25.8588   19.2391 C   0  0  0  0  0  0  0  0  0  0  0  0
  -20.3459   -5.9446   24.9906 C   0  0  0  0  0  0  0  0  0  0  0  0
  -29.9441  -17.8360   22.7345 C   0  0  0  0  0  0  0  0  0  0  0  0
  -23.8273  -10.4474   20.9622 C   0  0  0  0  0  0  0  0  0  0  0  0
  -24.1696  -12.9726   20.8435 C   0  0  0  0  0  0  0  0  0  0  0  0
  -37.0222  -30.6852   25.2905 C   0  0  0  0  0  0  0  0  0  0  0  0
  -35.3339  -27.5891   19.6569 C   0  0  0  0  0  0  0  0  0  0  0  0
  -36.2766  -29.7172   24.5909 C   0  0  0  0  0  0  0  0  0  0  0  0
  -34.0120  -27.2190   19.3708 C   0  0  0  0  0  0  0  0  0  0  0  0
  -22.3389   -8.1412   21.4606 C   0  0  0  0  0  0  0  0  0  0  0  0
  -34.6784  -24.8811   19.3773 C   0  0  0  0  0  0  0  0  0  0  0  0
  -20.8612   -6.9741   22.8666 C   0  0  0  0  0  0  0  0  0  0  0  0
  -19.3468   -6.8935   25.2081 C   0  0  0  0  0  0  0  0  0  0  0  0
  -21.1031   -5.9850   23.8199 C   0  0  0  0  0  0  0  0  0  0  0  0
  -24.5966  -11.6383   20.7052 C   0  0  0  0  0  0  0  0  0  0  0  0
  -25.2620  -13.7220   20.4809 C   0  0  0  0  0  0  0  0  0  0  0  0
  -30.5857  -16.9335   21.9340 C   0  0  0  0  0  0  0  0  0  0  0  0
  -31.9459  -18.6503   22.2547 C   0  0  0  0  0  0  0  0  0  0  0  0
  -22.8991  -13.4884   21.2624 C   0  0  0  0  0  0  0  0  0  0  0  0
  -34.1277  -29.8086   21.5865 C   0  0  0  0  0  0  0  0  0  0  0  0
  -32.5409  -30.7190   18.9077 C   0  0  0  0  0  0  0  0  0  0  0  0
  -31.3041  -29.8682   15.8429 C   0  0  0  0  0  0  0  0  0  0  0  0
  -30.7283  -14.7664   20.6573 C   0  0  0  0  0  0  0  0  0  0  0  0
  -36.5176  -32.0944   25.4751 C   0  0  0  0  0  0  0  0  0  0  0  0
  -35.7090  -29.0406   19.7793 C   0  0  0  0  0  0  0  0  0  0  0  0
  -32.9193  -28.2427   19.2086 C   0  0  0  0  0  0  0  0  0  0  0  0
  -35.4049  -32.4752   24.5018 C   0  0  0  0  0  0  0  0  0  0  0  0
  -29.6140  -12.3541   18.2875 C   0  0  0  0  0  0  0  0  0  0  0  0
  -34.3560  -31.3699   24.4311 C   0  0  0  0  0  0  0  0  0  0  0  0
  -28.1742  -12.0626   18.7166 C   0  0  0  0  0  0  0  0  0  0  0  0
  -30.5288  -12.5821   19.4895 C   0  0  0  0  0  0  0  0  0  0  0  0
  -28.6217  -13.3062   20.8707 C   0  0  0  0  0  0  0  0  0  0  0  0
  -34.9672  -30.0617   23.9150 C   0  0  1  0  0  0  0  0  0  0  0  0
  -34.5275  -29.9344   20.1435 C   0  0  1  0  0  0  0  0  0  0  0  0
  -27.6491  -13.1338   19.6926 C   0  0  2  0  0  0  0  0  0  0  0  0
  -30.0224  -30.8144   13.9040 C   0  0  0  0  0  0  0  0  0  0  0  0
  -35.0841  -18.1083   22.2219 C   0  0  0  0  0  0  0  0  0  0  0  0
  -29.9585  -30.5193   20.5206 C   0  0  0  0  0  0  0  0  0  0  0  0
  -28.6910  -30.5328   18.3616 C   0  0  0  0  0  0  0  0  0  0  0  0
  -30.0873  -32.4994   18.9984 C   0  0  0  0  0  0  0  0  0  0  0  0
  -30.5276  -20.0735   23.7021 C   0  0  0  0  0  0  0  0  0  0  0  0
  -33.5508  -29.3927   13.9760 C   0  0  0  0  0  0  0  0  0  0  0  0
  -34.2885  -21.4044   20.3208 C   0  0  0  0  0  0  0  0  0  0  0  0
  -35.0794  -20.3804   21.1362 C   0  0  0  0  0  0  0  0  0  0  0  0
  -35.1329  -22.6282   19.9887 C   0  0  0  0  0  0  0  0  0  1  0  0
  -31.2194  -30.3582   18.2733 C   0  0  1  0  0  0  0  0  0  0  0  0
  -31.4005  -30.5540   14.4920 C   0  0  2  0  0  0  0  0  0  0  0  0
  -34.2569  -19.1235   21.4415 C   0  0  2  0  0  0  0  0  0  0  0  0
  -30.0091  -30.9578   19.0434 C   0  0  0  0  0  0  0  0  0  0  0  0
  -25.8616  -11.5424   20.2871 N   0  0  0  0  0  0  0  0  0  0  0  0
  -30.8091  -18.8880   22.9169 N   0  0  0  0  0  0  0  0  0  0  0  0
  -26.2387  -12.8260   20.1596 N   0  0  0  0  0  0  0  0  0  0  0  0
  -31.8219  -17.4632   21.6524 N   0  3  0  0  0  0  0  0  0  0  0  0
  -33.3349  -29.6486   19.3435 N   0  0  0  0  0  0  0  0  0  0  0  0
  -29.9699  -13.6126   20.3673 N   0  0  0  0  0  0  0  0  0  0  0  0
  -25.4726  -15.0535   20.4086 N   0  0  0  0  0  0  0  0  0  0  0  0
  -21.8869  -12.5792   21.5990 N   0  0  0  0  0  0  0  0  0  0  0  0
  -30.0810  -15.6912   21.4761 N   0  0  0  0  0  0  0  0  0  0  0  0
  -33.0499  -19.4672   22.1955 N   0  0  0  0  0  0  0  0  0  0  0  0
  -35.1372  -30.1153   22.4788 N   0  0  0  0  0  0  0  0  0  0  0  0
  -31.3079  -30.7780   16.8790 N   0  0  0  0  0  0  0  0  0  0  0  0
  -32.1676  -29.7076   13.5349 N   0  3  0  0  0  0  0  0  0  0  0  0
  -22.6631  -14.7190   21.3203 O   0  0  0  0  0  0  0  0  0  0  0  0
  -32.9873  -29.4605   21.8693 O   0  0  0  0  0  0  0  0  0  0  0  0
  -32.8602  -31.9064   19.0063 O   0  0  0  0  0  0  0  0  0  0  0  0
  -31.2290  -28.6477   15.9664 O   0  0  0  0  0  0  0  0  0  0  0  0
  -31.8575  -14.9352   20.1900 O   0  0  0  0  0  0  0  0  0  0  0  0
  -21.6127   -7.0161   21.7042 O   0  0  0  0  0  0  0  0  0  0  0  0
  -34.3553  -23.5657   19.2452 O   0  0  0  0  0  0  0  0  0  1  0  0
  -18.6206   -6.8557   26.3330 F   0  0  0  0  0  0  0  0  0  0  0  0
  -22.0623   -5.0714   23.6170 F   0  0  0  0  0  0  0  0  0  0  0  0
  1  2  1  0  0  0  0
  1  5  2  0  0  0  0
  2  6  2  0  0  0  0
  3  8  2  0  0  0  0
  3 16  1  0  0  0  0
  4  9  1  0  0  0  0
  4 16  2  0  0  0  0
  5 18  1  0  0  0  0
  6 20  1  0  0  0  0
  7 10  2  0  0  0  0
  7 19  1  0  0  0  0
  8 22  1  0  0  0  0
  9 22  2  0  0  0  0
 10 23  1  0  0  0  0
 11 12  2  0  0  0  0
 11 24  1  0  0  0  0
 12 25  1  0  0  0  0
 13 21  1  0  0  0  0
 13 23  2  0  0  0  0
 14 25  2  0  0  0  0
 14 26  1  0  0  0  0
 15 29  2  0  0  0  0
 15 63  1  0  0  0  0
 16 27  1  0  0  0  0
 17 27  1  0  0  0  0
 17 28  2  0  0  0  0
 17 31  1  0  0  0  0
 18 20  2  0  0  0  0
 18 36  1  0  0  0  0
 19 21  2  0  0  0  0
 19 37  1  0  0  0  0
 20 45  1  0  0  0  0
 21 38  1  0  0  0  0
 22 80  1  0  0  0  0
 23 81  1  0  0  0  0
 24 26  2  0  0  0  0
 24 80  1  0  0  0  0
 25 82  1  0  0  0  0
 26 83  1  0  0  0  0
 27 62  2  0  0  0  0
 28 64  1  0  0  0  0
 28 68  1  0  0  0  0
 29 65  1  0  0  0  0
 29 70  1  0  0  0  0
 30 63  1  0  0  0  0
 30 65  2  0  0  0  0
 30 71  1  0  0  0  0
 31 69  1  0  0  0  0
 31 75  2  0  0  0  0
 32 46  1  0  0  0  0
 32 72  1  0  0  0  0
 32 76  2  0  0  0  0
 33 58  1  0  0  0  0
 33 66  1  0  0  0  0
 33 77  2  0  0  0  0
 34 59  1  0  0  0  0
 34 73  1  0  0  0  0
 34 78  2  0  0  0  0
 35 67  1  0  0  0  0
 35 70  1  0  0  0  0
 35 79  2  0  0  0  0
 36 39  1  0  0  0  0
 37 46  1  0  0  0  0
 38 66  1  0  0  0  0
 39 41  1  0  0  0  0
 40 42  1  0  0  0  0
 40 43  1  0  0  0  0
 41 45  1  0  0  0  0
 42 47  1  0  0  0  0
 43 67  1  0  0  0  0
 44 47  1  0  0  0  0
 44 67  1  0  0  0  0
 45 72  1  0  0  0  0
 46 66  1  0  0  0  0
 47 64  1  0  0  0  0
 48 59  1  0  0  0  0
 49 60  1  0  0  0  0
 50 61  1  0  0  0  0
 51 61  1  0  0  0  0
 52 61  1  0  0  0  0
 53 63  1  0  0  0  0
 54 74  1  0  0  0  0
 55 56  1  0  0  0  0
 55 57  1  0  0  0  0
 56 60  1  0  0  0  0
 57 81  1  0  0  0  0
 58 61  1  0  0  0  0
 58 73  1  0  0  0  0
 59 74  1  0  0  0  0
 60 71  1  0  0  0  0
 62 64  1  0  0  0  0
M  CHG  2  65   1  74   1
M  ISO  4  35 100  57 101  70 100  81 101
M  END
> <Batch ID>
0197

> <Smiles>
CNC(C)C(=O)NC(C(=O)N1Cc2cc([101O:1][101CH2:1]CCC(C)Nc3nc([100NH:0][100C:0](=O)N4CCCC(n5nc(-c6ccc(Oc7ccc(F)cc7F)cc6)c(C(N)=O)c5N)C4)cn3C)ccc2CC1C(=O)NC1CCCc2ccccc21)C(C)(C)C

> <Shape>
0.172

> <Color>
0.187

> <Negative vol penalty>
0.000

$$$$

  -OEChem-04052305413D

 82 90  0     1  0  0  0  0  0999 V2000
  -30.9255  -35.0036   26.8667 C   0  0  0  0  0  0  0  0  0  0  0  0
  -31.1302  -33.9621   25.9674 C   0  0  0  0  0  0  0  0  0  0  0  0
  -24.4326   -9.3783   21.3802 C   0  0  0  0  0  0  0  0  0  0  0  0
  -24.7658  -10.5764   23.4516 C   0  0  0  0  0  0  0  0  0  0  0  0
  -29.7610  -35.0431   27.6325 C   0  0  0  0  0  0  0  0  0  0  0  0
  -30.1710  -32.9588   25.8342 C   0  0  0  0  0  0  0  0  0  0  0  0
  -28.6627  -29.9648   20.7091 C   0  0  0  0  0  0  0  0  0  0  0  0
  -24.2667   -8.1912   22.0935 C   0  0  0  0  0  0  0  0  0  0  0  0
  -24.5999   -9.3893   24.1649 C   0  0  0  0  0  0  0  0  0  0  0  0
  -29.0364  -28.7195   20.2057 C   0  0  0  0  0  0  0  0  0  0  0  0
  -21.8276   -6.6801   23.8824 C   0  0  0  0  0  0  0  0  0  0  0  0
  -20.7701   -5.8470   23.5176 C   0  0  0  0  0  0  0  0  0  0  0  0
  -27.0388  -27.7469   21.1454 C   0  0  0  0  0  0  0  0  0  0  0  0
  -22.3363   -4.0744   23.0257 C   0  0  0  0  0  0  0  0  0  0  0  0
  -28.9238  -18.8739   22.7799 C   0  0  0  0  0  0  0  0  0  0  0  0
  -24.6822  -10.5710   22.0592 C   0  0  0  0  0  0  0  0  0  0  0  0
  -23.8523  -12.7150   20.9536 C   0  0  0  0  0  0  0  0  0  0  0  0
  -28.7827  -34.0450   27.5016 C   0  0  0  0  0  0  0  0  0  0  0  0
  -27.4776  -30.1085   21.4450 C   0  0  0  0  0  0  0  0  0  0  0  0
  -28.9930  -32.9842   26.5999 C   0  0  0  0  0  0  0  0  0  0  0  0
  -26.6510  -28.9955   21.6548 C   0  0  0  0  0  0  0  0  0  0  0  0
  -24.3503   -8.1967   23.4858 C   0  0  0  0  0  0  0  0  0  0  0  0
  -28.2259  -27.6097   20.4263 C   0  0  0  0  0  0  0  0  0  0  0  0
  -23.1395   -6.2104   23.8189 C   0  0  0  0  0  0  0  0  0  0  0  0
  -21.0244   -4.5441   23.0893 C   0  0  0  0  0  0  0  0  0  0  0  0
  -23.3938   -4.9075   23.3906 C   0  0  0  0  0  0  0  0  0  0  0  0
  -24.8542  -11.7975   21.3229 C   0  0  0  0  0  0  0  0  0  0  0  0
  -30.0660  -18.2884   22.2752 C   0  0  0  0  0  0  0  0  0  0  0  0
  -24.5241  -13.7024   20.2754 C   0  0  0  0  0  0  0  0  0  0  0  0
  -29.6738  -20.5698   21.6089 C   0  0  0  0  0  0  0  0  0  0  0  0
  -22.4406  -12.6779   21.2016 C   0  0  0  0  0  0  0  0  0  0  0  0
  -26.7757  -30.9918   24.4166 C   0  0  0  0  0  0  0  0  0  0  0  0
  -23.7223  -30.7864   23.3411 C   0  0  0  0  0  0  0  0  0  0  0  0
  -21.5253  -29.4549   21.0946 C   0  0  0  0  0  0  0  0  0  0  0  0
  -30.1976  -15.6109   20.4168 C   0  0  0  0  0  0  0  0  0  0  0  0
  -27.5618  -34.1048   28.3851 C   0  0  0  0  0  0  0  0  0  0  0  0
  -27.0752  -31.4639   21.9583 C   0  0  0  0  0  0  0  0  0  0  0  0
  -25.3586  -29.1008   22.4210 C   0  0  0  0  0  0  0  0  0  0  0  0
  -26.4234  -33.2040   27.9129 C   0  0  0  0  0  0  0  0  0  0  0  0
  -28.4118  -14.4135   17.5789 C   0  0  0  0  0  0  0  0  0  0  0  0
  -26.9517  -31.8177   27.5581 C   0  0  0  0  0  0  0  0  0  0  0  0
  -27.2071  -13.6901   18.1833 C   0  0  0  0  0  0  0  0  0  0  0  0
  -29.6661  -14.2296   18.4304 C   0  0  0  0  0  0  0  0  0  0  0  0
  -28.3057  -13.8744   20.4544 C   0  0  0  0  0  0  0  0  0  0  0  0
  -27.9645  -31.8907   26.4090 C   0  0  1  0  0  0  0  0  0  0  0  0
  -26.1050  -31.3938   23.1336 C   0  0  1  0  0  0  0  0  0  0  0  0
  -27.0038  -14.0772   19.6605 C   0  0  2  0  0  0  0  0  0  0  0  0
  -19.0897  -29.4439   20.4905 C   0  0  0  0  0  0  0  0  0  0  0  0
  -23.1478  -28.9392   25.7008 C   0  0  0  0  0  0  0  0  0  0  0  0
  -21.0480  -28.2240   24.5400 C   0  0  0  0  0  0  0  0  0  0  0  0
  -21.3469  -30.6059   25.2182 C   0  0  0  0  0  0  0  0  0  0  0  0
  -22.0670  -30.5765   18.4099 C   0  0  0  0  0  0  0  0  0  0  0  0
  -30.6005  -16.9284   22.4810 C   0  0  0  0  0  0  0  0  0  0  0  0
  -28.7901  -22.8761   21.2548 C   0  0  0  0  0  0  0  0  0  0  0  0
  -28.1665  -25.2449   20.6716 C   0  0  0  0  0  0  0  0  0  1  0  0
  -22.6831  -29.6933   23.2756 C   0  0  1  0  0  0  0  0  0  0  0  0
  -20.4422  -30.0943   20.2446 C   0  0  2  0  0  0  0  0  0  0  0  0
  -29.1788  -24.1237   20.4639 C   0  0  1  0  0  0  0  0  0  0  0  0
  -22.0817  -29.3629   24.6708 C   0  0  0  0  0  0  0  0  0  0  0  0
  -28.6975  -20.1822   22.3993 N   0  0  0  0  0  0  0  0  0  0  0  0
  -26.0699  -12.1689   20.9131 N   0  0  0  0  0  0  0  0  0  0  0  0
  -25.8364  -13.3307   20.2792 N   0  0  0  0  0  0  0  0  0  0  0  0
  -25.0117  -30.4461   22.9082 N   0  0  0  0  0  0  0  0  0  0  0  0
  -29.4065  -14.6158   19.8194 N   0  0  0  0  0  0  0  0  0  0  0  0
  -24.1145  -14.8437   19.6820 N   0  0  0  0  0  0  0  0  0  0  0  0
  -21.9157  -11.5910   21.9139 N   0  0  0  0  0  0  0  0  0  0  0  0
  -29.7651  -21.8299   21.0424 N   0  0  0  0  0  0  0  0  0  0  0  0
  -27.2819  -32.0526   25.1432 N   0  0  0  0  0  0  0  0  0  0  0  0
  -21.6997  -30.1237   22.2877 N   0  0  0  0  0  0  0  0  0  0  0  0
  -29.8808  -15.9213   21.7336 N   0  0  0  0  0  0  0  0  0  0  0  0
  -20.7723  -29.9598   18.7976 N   0  3  0  0  0  0  0  0  0  0  0  0
  -21.6654  -13.5737   20.7892 O   0  0  0  0  0  0  0  0  0  0  0  0
  -26.8287  -29.8071   24.7253 O   0  0  0  0  0  0  0  0  0  0  0  0
  -23.4000  -31.9031   23.7543 O   0  0  0  0  0  0  0  0  0  0  0  0
  -22.1513  -28.4593   20.7375 O   0  0  0  0  0  0  0  0  0  0  0  0
  -31.1147  -16.1843   19.8191 O   0  0  0  0  0  0  0  0  0  0  0  0
  -30.4477  -24.5927   20.9249 O   0  0  0  0  0  0  0  0  0  0  0  0
  -24.1883   -7.0385   24.1822 O   0  0  0  0  0  0  0  0  0  0  0  0
  -28.5887  -26.3930   19.9367 O   0  0  0  0  0  0  0  0  0  1  0  0
  -20.0086   -3.7437   22.7404 F   0  0  0  0  0  0  0  0  0  0  0  0
  -24.6519   -4.4502   23.3286 F   0  0  0  0  0  0  0  0  0  0  0  0
  -30.8971  -19.4117   21.2808 S   0  0  0  0  0  0  0  0  0  0  0  0
  1  2  1  0  0  0  0
  1  5  2  0  0  0  0
  2  6  2  0  0  0  0
  3  8  2  0  0  0  0
  3 16  1  0  0  0  0
  4  9  1  0  0  0  0
  4 16  2  0  0  0  0
  5 18  1  0  0  0  0
  6 20  1  0  0  0  0
  7 10  2  0  0  0  0
  7 19  1  0  0  0  0
  8 22  1  0  0  0  0
  9 22  2  0  0  0  0
 10 23  1  0  0  0  0
 11 12  2  0  0  0  0
 11 24  1  0  0  0  0
 12 25  1  0  0  0  0
 13 21  1  0  0  0  0
 13 23  2  0  0  0  0
 14 25  2  0  0  0  0
 14 26  1  0  0  0  0
 15 28  2  0  0  0  0
 15 60  1  0  0  0  0
 16 27  1  0  0  0  0
 17 27  1  0  0  0  0
 17 29  2  0  0  0  0
 17 31  1  0  0  0  0
 18 20  2  0  0  0  0
 18 36  1  0  0  0  0
 19 21  2  0  0  0  0
 19 37  1  0  0  0  0
 20 45  1  0  0  0  0
 21 38  1  0  0  0  0
 22 78  1  0  0  0  0
 23 79  1  0  0  0  0
 24 26  2  0  0  0  0
 24 78  1  0  0  0  0
 25 80  1  0  0  0  0
 26 81  1  0  0  0  0
 27 61  2  0  0  0  0
 28 53  1  0  0  0  0
 28 82  1  0  0  0  0
 29 62  1  0  0  0  0
 29 65  1  0  0  0  0
 30 60  2  0  0  0  0
 30 67  1  0  0  0  0
 30 82  1  0  0  0  0
 31 66  1  0  0  0  0
 31 72  2  0  0  0  0
 32 46  1  0  0  0  0
 32 68  1  0  0  0  0
 32 73  2  0  0  0  0
 33 56  1  0  0  0  0
 33 63  1  0  0  0  0
 33 74  2  0  0  0  0
 34 57  1  0  0  0  0
 34 69  1  0  0  0  0
 34 75  2  0  0  0  0
 35 64  1  0  0  0  0
 35 70  1  0  0  0  0
 35 76  2  0  0  0  0
 36 39  1  0  0  0  0
 37 46  1  0  0  0  0
 38 63  1  0  0  0  0
 39 41  1  0  0  0  0
 40 42  1  0  0  0  0
 40 43  1  0  0  0  0
 41 45  1  0  0  0  0
 42 47  1  0  0  0  0
 43 64  1  0  0  0  0
 44 47  1  0  0  0  0
 44 64  1  0  0  0  0
 45 68  1  0  0  0  0
 46 63  1  0  0  0  0
 47 62  1  0  0  0  0
 48 57  1  0  0  0  0
 49 59  1  0  0  0  0
 50 59  1  0  0  0  0
 51 59  1  0  0  0  0
 52 71  1  0  0  0  0
 53 70  1  0  0  0  0
 54 58  1  0  0  0  0
 54 67  1  0  0  0  0
 55 58  1  0  0  0  0
 55 79  1  0  0  0  0
 56 59  1  0  0  0  0
 56 69  1  0  0  0  0
 57 71  1  0  0  0  0
 58 77  1  0  0  0  0
 61 62  1  0  0  0  0
M  CHG  1  71   1
M  ISO  4  35 100  55 101  70 100  79 101
M  END
> <Batch ID>
0197

> <Smiles>
CNC(C)C(=O)NC(C(=O)N1Cc2cc([101O:1][101CH2:1]C(O)CNc3ncc(C[100NH:0][100C:0](=O)N4CCCC(n5nc(-c6ccc(Oc7ccc(F)cc7F)cc6)c(C(N)=O)c5N)C4)s3)ccc2CC1C(=O)NC1CCCc2ccccc21)C(C)(C)C

> <Shape>
0.305

> <Color>
0.107

> <Negative vol penalty>
0.000

$$$$

  -OEChem-04052305413D

 83 91  0     1  0  0  0  0  0999 V2000
  -32.0944  -15.3562   19.3841 C   0  0  0  0  0  0  0  0  0  0  0  0
  -31.1358  -16.3639   19.3510 C   0  0  0  0  0  0  0  0  0  0  0  0
  -28.1508  -24.8030   18.6377 C   0  0  0  0  0  0  0  0  0  0  0  0
  -25.9924  -23.7843   19.0132 C   0  0  0  0  0  0  0  0  0  0  0  0
  -31.7015  -14.0266   19.5320 C   0  0  0  0  0  0  0  0  0  0  0  0
  -29.7837  -16.0425   19.4648 C   0  0  0  0  0  0  0  0  0  0  0  0
  -25.4316  -19.3549   22.2202 C   0  0  0  0  0  0  0  0  0  0  0  0
  -28.7685  -23.5690   18.8410 C   0  0  0  0  0  0  0  0  0  0  0  0
  -26.6102  -22.5503   19.2164 C   0  0  0  0  0  0  0  0  0  0  0  0
  -24.4717  -20.2379   21.7275 C   0  0  0  0  0  0  0  0  0  0  0  0
  -30.9411  -20.7579   19.6163 C   0  0  0  0  0  0  0  0  0  0  0  0
  -32.0755  -20.7246   20.4272 C   0  0  0  0  0  0  0  0  0  0  0  0
  -22.8481  -18.4539   21.7102 C   0  0  0  0  0  0  0  0  0  0  0  0
  -30.7804  -21.5888   22.2746 C   0  0  0  0  0  0  0  0  0  0  0  0
  -26.7627  -24.9107   18.7239 C   0  0  0  0  0  0  0  0  0  0  0  0
  -25.6619  -26.7143   17.2946 C   0  0  0  0  0  0  0  0  0  0  0  0
  -30.3446  -13.6897   19.6574 C   0  0  0  0  0  0  0  0  0  0  0  0
  -25.1093  -18.0100   22.4518 C   0  0  0  0  0  0  0  0  0  0  0  0
  -29.3723  -14.7071   19.6132 C   0  0  0  0  0  0  0  0  0  0  0  0
  -23.8050  -17.5565   22.2084 C   0  0  0  0  0  0  0  0  0  0  0  0
  -27.9983  -22.4427   19.1303 C   0  0  0  0  0  0  0  0  0  0  0  0
  -23.1806  -19.7868   21.4696 C   0  0  0  0  0  0  0  0  0  0  0  0
  -29.7263  -21.2067   20.1346 C   0  0  0  0  0  0  0  0  0  0  0  0
  -31.9952  -21.1400   21.7563 C   0  0  0  0  0  0  0  0  0  0  0  0
  -29.6460  -21.6221   21.4637 C   0  0  0  0  0  0  0  0  0  0  0  0
  -26.1240  -26.1852   18.5146 C   0  0  0  0  0  0  0  0  0  0  0  0
  -19.7759  -28.1015   22.7415 C   0  0  0  0  0  0  0  0  0  0  0  0
  -25.1402  -27.9404   17.6278 C   0  0  0  0  0  0  0  0  0  0  0  0
  -18.4032  -28.1275   22.6107 C   0  0  0  0  0  0  0  0  0  0  0  0
  -19.4609  -26.0118   22.1551 C   0  0  0  0  0  0  0  0  0  0  0  0
  -25.7006  -26.1480   15.9780 C   0  0  0  0  0  0  0  0  0  0  0  0
  -26.1231  -15.2289   21.2936 C   0  0  0  0  0  0  0  0  0  0  0  0
  -24.1816  -14.0092   23.5882 C   0  0  0  0  0  0  0  0  0  0  0  0
  -21.4823  -14.4435   25.6307 C   0  0  0  0  0  0  0  0  0  0  0  0
  -22.8997  -30.1732   22.7117 C   0  0  0  0  0  0  0  0  0  0  0  0
  -29.9652  -12.2342   19.7679 C   0  0  0  0  0  0  0  0  0  0  0  0
  -26.1488  -17.0764   23.0088 C   0  0  0  0  0  0  0  0  0  0  0  0
  -23.4027  -16.1269   22.4594 C   0  0  0  0  0  0  0  0  0  0  0  0
  -28.5366  -12.0126   20.2582 C   0  0  0  0  0  0  0  0  0  0  0  0
  -25.6213  -31.4724   20.8191 C   0  0  0  0  0  0  0  0  0  0  0  0
  -27.5683  -12.9236   19.5105 C   0  0  0  0  0  0  0  0  0  0  0  0
  -26.0171  -30.3124   19.9038 C   0  0  0  0  0  0  0  0  0  0  0  0
  -25.1846  -30.9802   22.1972 C   0  0  0  0  0  0  0  0  0  0  0  0
  -24.5172  -28.7981   21.2662 C   0  0  0  0  0  0  0  0  0  0  0  0
  -27.8975  -14.4007   19.7584 C   0  0  1  0  0  0  0  0  0  0  0  0
  -25.8491  -15.6085   22.7213 C   0  0  1  0  0  0  0  0  0  0  0  0
  -24.9117  -29.2408   19.8468 C   0  0  2  0  0  0  0  0  0  0  0  0
  -20.1153  -13.2558   27.3680 C   0  0  0  0  0  0  0  0  0  0  0  0
  -22.8455  -12.3532   21.4013 C   0  0  0  0  0  0  0  0  0  0  0  0
  -20.9410  -11.9417   22.9733 C   0  0  0  0  0  0  0  0  0  0  0  0
  -23.2285  -11.1303   23.5489 C   0  0  0  0  0  0  0  0  0  0  0  0
  -22.1260  -16.4699   27.6895 C   0  0  0  0  0  0  0  0  0  0  0  0
  -20.6388  -29.2382   23.1275 C   0  0  0  0  0  0  0  0  0  0  0  0
  -21.0462  -24.1155   21.8135 C   0  0  0  0  0  0  0  0  0  0  0  0
  -22.3642  -22.0179   21.3626 C   0  0  0  0  0  0  0  0  0  1  0  0
  -22.7283  -13.6063   23.6557 C   0  0  1  0  0  0  0  0  0  0  0  0
  -21.2905  -14.1873   27.1146 C   0  0  2  0  0  0  0  0  0  0  0  0
  -20.9768  -22.6501   21.3884 C   0  0  1  0  0  0  0  0  0  0  0  0
  -22.4436  -12.2844   22.8881 C   0  0  0  0  0  0  0  0  0  0  0  0
  -25.9146  -27.0078   19.5457 N   0  0  0  0  0  0  0  0  0  0  0  0
  -20.3841  -26.8890   22.4811 N   0  0  0  0  0  0  0  0  0  0  0  0
  -25.3151  -28.0664   18.9746 N   0  0  0  0  0  0  0  0  0  0  0  0
  -24.4563  -15.2512   22.9983 N   0  0  0  0  0  0  0  0  0  0  0  0
  -24.1336  -29.9673   22.0728 N   0  0  0  0  0  0  0  0  0  0  0  0
  -24.5536  -28.9123   16.8972 N   0  0  0  0  0  0  0  0  0  0  0  0
  -17.5649  -29.1745   22.8028 N   0  0  0  0  0  0  0  0  0  0  0  0
  -26.2718  -24.8788   15.8130 N   0  0  0  0  0  0  0  0  0  0  0  0
  -19.7199  -24.6907   21.8313 N   0  0  0  0  0  0  0  0  0  0  0  0
  -27.4202  -14.8131   21.0610 N   0  0  0  0  0  0  0  0  0  0  0  0
  -22.3827  -13.5610   25.0723 N   0  0  0  0  0  0  0  0  0  0  0  0
  -21.9570  -29.1674   22.5376 N   0  0  0  0  0  0  0  0  0  0  0  0
  -21.0382  -15.4683   27.8331 N   0  3  0  0  0  0  0  0  0  0  0  0
  -25.2571  -26.7568   14.9748 O   0  0  0  0  0  0  0  0  0  0  0  0
  -25.2239  -15.3061   20.4646 O   0  0  0  0  0  0  0  0  0  0  0  0
  -25.0408  -13.2532   24.0485 O   0  0  0  0  0  0  0  0  0  0  0  0
  -20.8898  -15.3348   25.0266 O   0  0  0  0  0  0  0  0  0  0  0  0
  -22.6544  -31.1813   23.3828 O   0  0  0  0  0  0  0  0  0  0  0  0
  -20.1867  -21.9262   22.3339 O   0  0  0  0  0  0  0  0  0  0  0  0
  -28.6007  -21.2384   19.3285 O   0  0  0  0  0  0  0  0  0  0  0  0
  -22.2419  -20.6464   20.9880 O   0  0  0  0  0  0  0  0  0  1  0  0
  -33.0844  -21.1066   22.5353 F   0  0  0  0  0  0  0  0  0  0  0  0
  -28.4814  -22.0532   21.9676 F   0  0  0  0  0  0  0  0  0  0  0  0
  -17.8406  -26.5769   22.1410 S   0  0  0  0  0  0  0  0  0  0  0  0
  1  2  1  0  0  0  0
  1  5  2  0  0  0  0
  2  6  2  0  0  0  0
  3  8  2  0  0  0  0
  3 15  1  0  0  0  0
  4  9  1  0  0  0  0
  4 15  2  0  0  0  0
  5 17  1  0  0  0  0
  6 19  1  0  0  0  0
  7 10  2  0  0  0  0
  7 18  1  0  0  0  0
  8 21  1  0  0  0  0
  9 21  2  0  0  0  0
 10 22  1  0  0  0  0
 11 12  2  0  0  0  0
 11 23  1  0  0  0  0
 12 24  1  0  0  0  0
 13 20  1  0  0  0  0
 13 22  2  0  0  0  0
 14 24  2  0  0  0  0
 14 25  1  0  0  0  0
 15 26  1  0  0  0  0
 16 26  1  0  0  0  0
 16 28  2  0  0  0  0
 16 31  1  0  0  0  0
 17 19  2  0  0  0  0
 17 36  1  0  0  0  0
 18 20  2  0  0  0  0
 18 37  1  0  0  0  0
 19 45  1  0  0  0  0
 20 38  1  0  0  0  0
 21 79  1  0  0  0  0
 22 80  1  0  0  0  0
 23 25  2  0  0  0  0
 23 79  1  0  0  0  0
 24 81  1  0  0  0  0
 25 82  1  0  0  0  0
 26 60  2  0  0  0  0
 27 29  2  0  0  0  0
 27 53  1  0  0  0  0
 27 61  1  0  0  0  0
 28 62  1  0  0  0  0
 28 65  1  0  0  0  0
 29 66  1  0  0  0  0
 29 83  1  0  0  0  0
 30 61  2  0  0  0  0
 30 68  1  0  0  0  0
 30 83  1  0  0  0  0
 31 67  1  0  0  0  0
 31 73  2  0  0  0  0
 32 46  1  0  0  0  0
 32 69  1  0  0  0  0
 32 74  2  0  0  0  0
 33 56  1  0  0  0  0
 33 63  1  0  0  0  0
 33 75  2  0  0  0  0
 34 57  1  0  0  0  0
 34 70  1  0  0  0  0
 34 76  2  0  0  0  0
 35 64  1  0  0  0  0
 35 71  1  0  0  0  0
 35 77  2  0  0  0  0
 36 39  1  0  0  0  0
 37 46  1  0  0  0  0
 38 63  1  0  0  0  0
 39 41  1  0  0  0  0
 40 42  1  0  0  0  0
 40 43  1  0  0  0  0
 41 45  1  0  0  0  0
 42 47  1  0  0  0  0
 43 64  1  0  0  0  0
 44 47  1  0  0  0  0
 44 64  1  0  0  0  0
 45 69  1  0  0  0  0
 46 63  1  0  0  0  0
 47 62  1  0  0  0  0
 48 57  1  0  0  0  0
 49 59  1  0  0  0  0
 50 59  1  0  0  0  0
 51 59  1  0  0  0  0
 52 72  1  0  0  0  0
 53 71  1  0  0  0  0
 54 58  1  0  0  0  0
 54 68  1  0  0  0  0
 55 58  1  0  0  0  0
 55 80  1  0  0  0  0
 56 59  1  0  0  0  0
 56 70  1  0  0  0  0
 57 72  1  0  0  0  0
 58 78  1  0  0  0  0
 60 62  1  0  0  0  0
M  CHG  1  72   1
M  ISO  4  35 100  55 101  71 100  80 101
M  END
> <Batch ID>
0197

> <Smiles>
CNC(C)C(=O)NC(C(=O)N1Cc2cc([101O:1][101CH2:1]C(O)CNc3nc(C[100NH:0][100C:0](=O)N4CCCC(n5nc(-c6ccc(Oc7ccc(F)cc7F)cc6)c(C(N)=O)c5N)C4)c(N)s3)ccc2CC1C(=O)NC1CCCc2ccccc21)C(C)(C)C

> <Shape>
0.215

> <Color>
0.079

> <Negative vol penalty>
0.000

$$$$

  -OEChem-04052305413D

 86 94  0     1  0  0  0  0  0999 V2000
  -18.4174  -28.2491   24.4532 C   0  0  0  0  0  0  0  0  0  0  0  0
  -19.6885  -27.7371   24.2136 C   0  0  0  0  0  0  0  0  0  0  0  0
  -23.4991   -9.6240   21.7317 C   0  0  0  0  0  0  0  0  0  0  0  0
  -24.0224  -10.9427   23.6873 C   0  0  0  0  0  0  0  0  0  0  0  0
  -17.8173  -29.0889   23.5159 C   0  0  0  0  0  0  0  0  0  0  0  0
  -20.3599  -28.0637   23.0359 C   0  0  0  0  0  0  0  0  0  0  0  0
  -25.2116  -29.2739   23.8370 C   0  0  0  0  0  0  0  0  0  0  0  0
  -22.8834   -8.6689   22.5404 C   0  0  0  0  0  0  0  0  0  0  0  0
  -23.4065   -9.9875   24.4961 C   0  0  0  0  0  0  0  0  0  0  0  0
  -26.1038  -28.2231   24.0457 C   0  0  0  0  0  0  0  0  0  0  0  0
  -23.8322   -6.1250   24.5536 C   0  0  0  0  0  0  0  0  0  0  0  0
  -24.1187   -4.7830   24.3033 C   0  0  0  0  0  0  0  0  0  0  0  0
  -26.8262  -28.3885   21.7501 C   0  0  0  0  0  0  0  0  0  0  0  0
  -21.7785   -4.3634   23.8740 C   0  0  0  0  0  0  0  0  0  0  0  0
  -27.8093  -20.3123   21.0975 C   0  0  0  0  0  0  0  0  0  0  0  0
  -24.0687  -10.7609   22.3051 C   0  0  0  0  0  0  0  0  0  0  0  0
  -24.1042  -12.8719   20.8733 C   0  0  0  0  0  0  0  0  0  0  0  0
  -18.4856  -29.4337   22.3305 C   0  0  0  0  0  0  0  0  0  0  0  0
  -25.1120  -29.8837   22.5782 C   0  0  0  0  0  0  0  0  0  0  0  0
  -19.7676  -28.9078   22.0812 C   0  0  0  0  0  0  0  0  0  0  0  0
  -25.9337  -29.4485   21.5287 C   0  0  0  0  0  0  0  0  0  0  0  0
  -22.8370   -8.8506   23.9226 C   0  0  0  0  0  0  0  0  0  0  0  0
  -26.9092  -27.7784   23.0014 C   0  0  0  0  0  0  0  0  0  0  0  0
  -22.5187   -6.5862   24.4641 C   0  0  0  0  0  0  0  0  0  0  0  0
  -23.0919   -3.9022   23.9635 C   0  0  0  0  0  0  0  0  0  0  0  0
  -21.4919   -5.7054   24.1243 C   0  0  0  0  0  0  0  0  0  0  0  0
  -24.7055  -11.7477   21.4703 C   0  0  0  0  0  0  0  0  0  0  0  0
  -29.4644  -18.7782   20.7278 C   0  0  0  0  0  0  0  0  0  0  0  0
  -28.3546  -20.6042   22.3283 C   0  0  0  0  0  0  0  0  0  0  0  0
  -30.0103  -19.0706   21.9583 C   0  0  0  0  0  0  0  0  0  0  0  0
  -25.1252  -13.4842   20.1884 C   0  0  0  0  0  0  0  0  0  0  0  0
  -22.7444  -13.3225   20.9327 C   0  0  0  0  0  0  0  0  0  0  0  0
  -22.8002  -30.2123   20.4215 C   0  0  0  0  0  0  0  0  0  0  0  0
  -24.9837  -32.0997   18.9408 C   0  0  0  0  0  0  0  0  0  0  0  0
  -28.2636  -32.9196   18.4757 C   0  0  0  0  0  0  0  0  0  0  0  0
  -30.3943  -15.3019   19.9083 C   0  0  0  0  0  0  0  0  0  0  0  0
  -17.7771  -30.3069   21.3254 C   0  0  0  0  0  0  0  0  0  0  0  0
  -24.1637  -31.0336   22.3765 C   0  0  0  0  0  0  0  0  0  0  0  0
  -25.8797  -30.0830   20.1638 C   0  0  0  0  0  0  0  0  0  0  0  0
  -18.7087  -30.9051   20.2744 C   0  0  0  0  0  0  0  0  0  0  0  0
  -29.8028  -11.8795   19.1247 C   0  0  0  0  0  0  0  0  0  0  0  0
  -19.6458  -29.8361   19.7213 C   0  0  0  0  0  0  0  0  0  0  0  0
  -28.3774  -11.6316   19.6213 C   0  0  0  0  0  0  0  0  0  0  0  0
  -30.5625  -12.8341   20.0432 C   0  0  0  0  0  0  0  0  0  0  0  0
  -28.4572  -13.8693   20.7982 C   0  0  0  0  0  0  0  0  0  0  0  0
  -20.5380  -29.2589   20.8268 C   0  0  1  0  0  0  0  0  0  0  0  0
  -23.7779  -31.2408   20.9151 C   0  0  1  0  0  0  0  0  0  0  0  0
  -27.6332  -12.9566   19.8739 C   0  0  2  0  0  0  0  0  0  0  0  0
  -29.8417  -18.0749   18.3352 C   0  0  0  0  0  0  0  0  0  0  0  0
  -29.7393  -34.4784   17.1756 C   0  0  0  0  0  0  0  0  0  0  0  0
  -27.7901  -20.8863   25.4301 C   0  0  0  0  0  0  0  0  0  0  0  0
  -24.5726  -30.3996   16.4406 C   0  0  0  0  0  0  0  0  0  0  0  0
  -26.6938  -31.3616   15.5224 C   0  0  0  0  0  0  0  0  0  0  0  0
  -24.7580  -32.8566   16.0126 C   0  0  0  0  0  0  0  0  0  0  0  0
  -29.3240  -34.1609   20.9442 C   0  0  0  0  0  0  0  0  0  0  0  0
  -28.0108  -24.4204   23.8002 C   0  0  0  0  0  0  0  0  0  0  0  0
  -27.6339  -23.3241   24.8063 C   0  0  0  0  0  0  0  0  0  0  0  0
  -27.4184  -25.7740   24.1759 C   0  0  0  0  0  0  0  0  0  1  0  0
  -30.0700  -17.7608   19.8209 C   0  0  2  0  0  0  0  0  0  0  0  0
  -26.0815  -31.8737   17.9294 C   0  0  1  0  0  0  0  0  0  0  0  0
  -28.9762  -34.2600   18.4728 C   0  0  2  0  0  0  0  0  0  0  0  0
  -28.2070  -21.9528   24.4223 C   0  0  2  0  0  0  0  0  0  0  0  0
  -25.5264  -31.6094   16.5013 C   0  0  0  0  0  0  0  0  0  0  0  0
  -28.3543  -19.3940   20.2752 N   0  0  0  0  0  0  0  0  0  0  0  0
  -26.0075  -11.6490   21.1891 N   0  0  0  0  0  0  0  0  0  0  0  0
  -29.4650  -19.9886   22.7808 N   0  0  0  0  0  0  0  0  0  0  0  0
  -26.2327  -12.7190   20.4078 N   0  0  0  0  0  0  0  0  0  0  0  0
  -24.9320  -31.1998   20.0147 N   0  0  0  0  0  0  0  0  0  0  0  0
  -29.8037  -14.0715   20.2406 N   0  0  0  0  0  0  0  0  0  0  0  0
  -31.1762  -18.3901   22.3758 N   0  0  0  0  0  0  0  0  0  0  0  0
  -25.1747  -14.5970   19.4257 N   0  0  0  0  0  0  0  0  0  0  0  0
  -21.8250  -12.5753   21.6816 N   0  0  0  0  0  0  0  0  0  0  0  0
  -27.7328  -21.5598   23.1117 N   0  0  0  0  0  0  0  0  0  0  0  0
  -21.6171  -30.1730   21.1343 N   0  0  0  0  0  0  0  0  0  0  0  0
  -26.9662  -33.0300   18.0221 N   0  0  0  0  0  0  0  0  0  0  0  0
  -29.6042  -16.4251   20.1203 N   0  0  0  0  0  0  0  0  0  0  0  0
  -29.9425  -34.3354   19.6049 N   0  3  0  0  0  0  0  0  0  0  0  0
  -22.3525  -14.3481   20.3259 O   0  0  0  0  0  0  0  0  0  0  0  0
  -23.0966  -29.5075   19.4638 O   0  0  0  0  0  0  0  0  0  0  0  0
  -24.2053  -33.0442   18.7875 O   0  0  0  0  0  0  0  0  0  0  0  0
  -28.8051  -31.8782   18.8401 O   0  0  0  0  0  0  0  0  0  0  0  0
  -31.5388  -15.3922   19.4513 O   0  0  0  0  0  0  0  0  0  0  0  0
  -22.2360   -7.9189   24.7121 O   0  0  0  0  0  0  0  0  0  0  0  0
  -27.7805  -26.7525   23.2023 O   0  0  0  0  0  0  0  0  0  1  0  0
  -23.3674   -2.6139   23.7217 F   0  0  0  0  0  0  0  0  0  0  0  0
  -20.2284   -6.1428   24.0356 F   0  0  0  0  0  0  0  0  0  0  0  0
  1  2  1  0  0  0  0
  1  5  2  0  0  0  0
  2  6  2  0  0  0  0
  3  8  2  0  0  0  0
  3 16  1  0  0  0  0
  4  9  1  0  0  0  0
  4 16  2  0  0  0  0
  5 18  1  0  0  0  0
  6 20  1  0  0  0  0
  7 10  2  0  0  0  0
  7 19  1  0  0  0  0
  8 22  1  0  0  0  0
  9 22  2  0  0  0  0
 10 23  1  0  0  0  0
 11 12  2  0  0  0  0
 11 24  1  0  0  0  0
 12 25  1  0  0  0  0
 13 21  1  0  0  0  0
 13 23  2  0  0  0  0
 14 25  2  0  0  0  0
 14 26  1  0  0  0  0
 15 29  1  0  0  0  0
 15 64  2  0  0  0  0
 16 27  1  0  0  0  0
 17 27  1  0  0  0  0
 17 31  2  0  0  0  0
 17 32  1  0  0  0  0
 18 20  2  0  0  0  0
 18 37  1  0  0  0  0
 19 21  2  0  0  0  0
 19 38  1  0  0  0  0
 20 46  1  0  0  0  0
 21 39  1  0  0  0  0
 22 83  1  0  0  0  0
 23 84  1  0  0  0  0
 24 26  2  0  0  0  0
 24 83  1  0  0  0  0
 25 85  1  0  0  0  0
 26 86  1  0  0  0  0
 27 65  2  0  0  0  0
 28 30  2  0  0  0  0
 28 59  1  0  0  0  0
 28 64  1  0  0  0  0
 29 66  2  0  0  0  0
 29 73  1  0  0  0  0
 30 66  1  0  0  0  0
 30 70  1  0  0  0  0
 31 67  1  0  0  0  0
 31 71  1  0  0  0  0
 32 72  1  0  0  0  0
 32 78  2  0  0  0  0
 33 47  1  0  0  0  0
 33 74  1  0  0  0  0
 33 79  2  0  0  0  0
 34 60  1  0  0  0  0
 34 68  1  0  0  0  0
 34 80  2  0  0  0  0
 35 61  1  0  0  0  0
 35 75  1  0  0  0  0
 35 81  2  0  0  0  0
 36 69  1  0  0  0  0
 36 76  1  0  0  0  0
 36 82  2  0  0  0  0
 37 40  1  0  0  0  0
 38 47  1  0  0  0  0
 39 68  1  0  0  0  0
 40 42  1  0  0  0  0
 41 43  1  0  0  0  0
 41 44  1  0  0  0  0
 42 46  1  0  0  0  0
 43 48  1  0  0  0  0
 44 69  1  0  0  0  0
 45 48  1  0  0  0  0
 45 69  1  0  0  0  0
 46 74  1  0  0  0  0
 47 68  1  0  0  0  0
 48 67  1  0  0  0  0
 49 59  1  0  0  0  0
 50 61  1  0  0  0  0
 51 62  1  0  0  0  0
 52 63  1  0  0  0  0
 53 63  1  0  0  0  0
 54 63  1  0  0  0  0
 55 77  1  0  0  0  0
 56 57  1  0  0  0  0
 56 58  1  0  0  0  0
 57 62  1  0  0  0  0
 58 84  1  0  0  0  0
 59 76  1  0  0  0  0
 60 63  1  0  0  0  0
 60 75  1  0  0  0  0
 61 77  1  0  0  0  0
 62 73  1  0  0  0  0
 65 67  1  0  0  0  0
M  CHG  1  77   1
M  ISO  4  36 100  58 101  76 100  84 101
M  END
> <Batch ID>
0197

> <Smiles>
CNC(C)C(=O)NC(C(=O)N1Cc2cc([101O:1][101CH2:1]CCC(C)Nc3cnc(C(C)[100NH:0][100C:0](=O)N4CCCC(n5nc(-c6ccc(Oc7ccc(F)cc7F)cc6)c(C(N)=O)c5N)C4)c(N)n3)ccc2CC1C(=O)NC1CCCc2ccccc21)C(C)(C)C

> <Shape>
0.264

> <Color>
0.126

> <Negative vol penalty>
0.000

$$$$

  -OEChem-04052305413D

 84 92  0     1  0  0  0  0  0999 V2000
  -19.8516  -23.9426   21.6507 C   0  0  0  0  0  0  0  0  0  0  0  0
  -20.8140  -24.5177   20.8270 C   0  0  0  0  0  0  0  0  0  0  0  0
  -24.9491  -14.2439   21.3747 C   0  0  0  0  0  0  0  0  0  0  0  0
  -24.0811  -14.9074   19.2199 C   0  0  0  0  0  0  0  0  0  0  0  0
  -19.0524  -24.7518   22.4572 C   0  0  0  0  0  0  0  0  0  0  0  0
  -20.9771  -25.9024   20.8085 C   0  0  0  0  0  0  0  0  0  0  0  0
  -25.8456  -27.2875   20.9620 C   0  0  0  0  0  0  0  0  0  0  0  0
  -24.0433  -13.1839   21.4133 C   0  0  0  0  0  0  0  0  0  0  0  0
  -23.1752  -13.8474   19.2584 C   0  0  0  0  0  0  0  0  0  0  0  0
  -26.5721  -27.1934   19.7758 C   0  0  0  0  0  0  0  0  0  0  0  0
  -23.7674  -10.0930   20.0703 C   0  0  0  0  0  0  0  0  0  0  0  0
  -24.2460   -8.8456   20.4709 C   0  0  0  0  0  0  0  0  0  0  0  0
  -26.2922  -29.5634   19.4234 C   0  0  0  0  0  0  0  0  0  0  0  0
  -22.6839   -8.8382   22.3140 C   0  0  0  0  0  0  0  0  0  0  0  0
  -24.2948  -25.6454   17.4712 C   0  0  0  0  0  0  0  0  0  0  0  0
  -25.2724  -23.2387   16.8553 C   0  0  0  0  0  0  0  0  0  0  0  0
  -24.9679  -15.1057   20.2781 C   0  0  0  0  0  0  0  0  0  0  0  0
  -27.2071  -16.1867   19.7080 C   0  0  0  0  0  0  0  0  0  0  0  0
  -19.2123  -26.1464   22.4558 C   0  0  0  0  0  0  0  0  0  0  0  0
  -25.3268  -28.5204   21.3830 C   0  0  0  0  0  0  0  0  0  0  0  0
  -20.1784  -26.7311   21.6148 C   0  0  0  0  0  0  0  0  0  0  0  0
  -25.5616  -29.6709   20.6167 C   0  0  0  0  0  0  0  0  0  0  0  0
  -23.1564  -12.9856   20.3551 C   0  0  0  0  0  0  0  0  0  0  0  0
  -26.7930  -28.3309   19.0048 C   0  0  0  0  0  0  0  0  0  0  0  0
  -22.7471  -10.7131   20.7916 C   0  0  0  0  0  0  0  0  0  0  0  0
  -23.7042   -8.2182   21.5927 C   0  0  0  0  0  0  0  0  0  0  0  0
  -22.2054  -10.0857   21.9134 C   0  0  0  0  0  0  0  0  0  0  0  0
  -25.9030  -16.2012   20.2380 C   0  0  0  0  0  0  0  0  0  0  0  0
  -24.5925  -25.3112   16.1684 C   0  0  0  0  0  0  0  0  0  0  0  0
  -24.9755  -23.5731   18.1582 C   0  0  0  0  0  0  0  0  0  0  0  0
  -27.6746  -17.4621   19.9115 C   0  0  0  0  0  0  0  0  0  0  0  0
  -27.9312  -15.1162   19.0872 C   0  0  0  0  0  0  0  0  0  0  0  0
  -22.4082  -29.6621   21.9144 C   0  0  0  0  0  0  0  0  0  0  0  0
  -24.0399  -32.2475   22.9986 C   0  0  0  0  0  0  0  0  0  0  0  0
  -26.9136  -34.0878   22.9536 C   0  0  0  0  0  0  0  0  0  0  0  0
  -24.9657  -22.7510   20.5395 C   0  0  0  0  0  0  0  0  0  0  0  0
  -18.2929  -26.9834   23.3096 C   0  0  0  0  0  0  0  0  0  0  0  0
  -24.5681  -28.6100   22.6787 C   0  0  0  0  0  0  0  0  0  0  0  0
  -25.0434  -31.0218   21.0350 C   0  0  0  0  0  0  0  0  0  0  0  0
  -18.7835  -28.4149   23.5105 C   0  0  0  0  0  0  0  0  0  0  0  0
  -27.1824  -21.2053   22.8577 C   0  0  0  0  0  0  0  0  0  0  0  0
  -19.2311  -29.0172   22.1824 C   0  0  0  0  0  0  0  0  0  0  0  0
  -27.2293  -19.7466   22.3971 C   0  0  0  0  0  0  0  0  0  0  0  0
  -25.7899  -21.8097   22.6865 C   0  0  0  0  0  0  0  0  0  0  0  0
  -25.2640  -20.2191   20.8801 C   0  0  0  0  0  0  0  0  0  0  0  0
  -20.4021  -28.2275   21.5853 C   0  0  1  0  0  0  0  0  0  0  0  0
  -23.6471  -29.8241   22.7491 C   0  0  1  0  0  0  0  0  0  0  0  0
  -26.6623  -19.5869   20.9728 C   0  0  2  0  0  0  0  0  0  0  0  0
  -22.9174  -26.7619   14.9508 C   0  0  0  0  0  0  0  0  0  0  0  0
  -27.9352  -36.1691   23.9137 C   0  0  0  0  0  0  0  0  0  0  0  0
  -27.0736  -26.5744   13.8982 C   0  0  0  0  0  0  0  0  0  0  0  0
  -22.3738  -33.9443   21.0868 C   0  0  0  0  0  0  0  0  0  0  0  0
  -24.0418  -35.7881   21.3803 C   0  0  0  0  0  0  0  0  0  0  0  0
  -22.7373  -34.9650   23.3407 C   0  0  0  0  0  0  0  0  0  0  0  0
  -29.0789  -32.5577   24.2687 C   0  0  0  0  0  0  0  0  0  0  0  0
  -27.4663  -28.5177   15.4634 C   0  0  0  0  0  0  0  0  0  0  0  0
  -27.1724  -29.1674   16.8111 C   0  0  0  0  0  0  0  0  0  1  0  0
  -24.3705  -26.3049   15.0516 C   0  0  1  0  0  0  0  0  0  0  0  0
  -24.5700  -33.5159   22.3747 C   0  0  1  0  0  0  0  0  0  0  0  0
  -27.7561  -34.6676   24.0755 C   0  0  2  0  0  0  0  0  0  0  0  0
  -26.6870  -27.2237   15.2205 C   0  0  1  0  0  0  0  0  0  0  0  0
  -23.4390  -34.5277   22.0365 C   0  0  0  0  0  0  0  0  0  0  0  0
  -25.0863  -24.1018   15.8370 N   0  0  0  0  0  0  0  0  0  0  0  0
  -24.4813  -24.7824   18.4895 N   0  0  0  0  0  0  0  0  0  0  0  0
  -25.5638  -17.3913   20.7405 N   0  0  0  0  0  0  0  0  0  0  0  0
  -26.6617  -18.1366   20.5273 N   0  0  0  0  0  0  0  0  0  0  0  0
  -24.3020  -31.0568   22.3064 N   0  0  0  0  0  0  0  0  0  0  0  0
  -25.3194  -21.6246   21.3120 N   0  0  0  0  0  0  0  0  0  0  0  0
  -28.8492  -18.0612   19.6220 N   0  0  0  0  0  0  0  0  0  0  0  0
  -27.3018  -13.8706   18.9580 N   0  0  0  0  0  0  0  0  0  0  0  0
  -25.1997  -22.6090   19.1721 N   0  0  0  0  0  0  0  0  0  0  0  0
  -21.6370  -28.5683   22.2586 N   0  0  0  0  0  0  0  0  0  0  0  0
  -25.5785  -34.0323   23.2938 N   0  0  0  0  0  0  0  0  0  0  0  0
  -29.1042  -34.0326   24.0922 N   0  3  0  0  0  0  0  0  0  0  0  0
  -25.2264  -27.5128   15.1802 N   0  3  0  0  0  0  0  0  0  0  0  0
  -29.1076  -15.2554   18.6745 O   0  0  0  0  0  0  0  0  0  0  0  0
  -22.1689  -30.4704   21.0250 O   0  0  0  0  0  0  0  0  0  0  0  0
  -23.4223  -32.3102   24.0646 O   0  0  0  0  0  0  0  0  0  0  0  0
  -27.3915  -33.7242   21.8813 O   0  0  0  0  0  0  0  0  0  0  0  0
  -24.5157  -23.7769   21.0562 O   0  0  0  0  0  0  0  0  0  0  0  0
  -22.2725  -11.9512   20.3922 O   0  0  0  0  0  0  0  0  0  0  0  0
  -27.5012  -28.2417   17.8462 O   0  0  0  0  0  0  0  0  0  1  0  0
  -24.1629   -7.0196   21.9763 F   0  0  0  0  0  0  0  0  0  0  0  0
  -21.2242  -10.6759   22.6097 F   0  0  0  0  0  0  0  0  0  0  0  0
  1  2  1  0  0  0  0
  1  5  2  0  0  0  0
  2  6  2  0  0  0  0
  3  8  2  0  0  0  0
  3 17  1  0  0  0  0
  4  9  1  0  0  0  0
  4 17  2  0  0  0  0
  5 19  1  0  0  0  0
  6 21  1  0  0  0  0
  7 10  2  0  0  0  0
  7 20  1  0  0  0  0
  8 23  1  0  0  0  0
  9 23  2  0  0  0  0
 10 24  1  0  0  0  0
 11 12  2  0  0  0  0
 11 25  1  0  0  0  0
 12 26  1  0  0  0  0
 13 22  1  0  0  0  0
 13 24  2  0  0  0  0
 14 26  2  0  0  0  0
 14 27  1  0  0  0  0
 15 29  1  0  0  0  0
 15 64  2  0  0  0  0
 16 30  2  0  0  0  0
 16 63  1  0  0  0  0
 17 28  1  0  0  0  0
 18 28  1  0  0  0  0
 18 31  2  0  0  0  0
 18 32  1  0  0  0  0
 19 21  2  0  0  0  0
 19 37  1  0  0  0  0
 20 22  2  0  0  0  0
 20 38  1  0  0  0  0
 21 46  1  0  0  0  0
 22 39  1  0  0  0  0
 23 81  1  0  0  0  0
 24 82  1  0  0  0  0
 25 27  2  0  0  0  0
 25 81  1  0  0  0  0
 26 83  1  0  0  0  0
 27 84  1  0  0  0  0
 28 65  2  0  0  0  0
 29 58  1  0  0  0  0
 29 63  2  0  0  0  0
 30 64  1  0  0  0  0
 30 71  1  0  0  0  0
 31 66  1  0  0  0  0
 31 69  1  0  0  0  0
 32 70  1  0  0  0  0
 32 76  2  0  0  0  0
 33 47  1  0  0  0  0
 33 72  1  0  0  0  0
 33 77  2  0  0  0  0
 34 59  1  0  0  0  0
 34 67  1  0  0  0  0
 34 78  2  0  0  0  0
 35 60  1  0  0  0  0
 35 73  1  0  0  0  0
 35 79  2  0  0  0  0
 36 68  1  0  0  0  0
 36 71  1  0  0  0  0
 36 80  2  0  0  0  0
 37 40  1  0  0  0  0
 38 47  1  0  0  0  0
 39 67  1  0  0  0  0
 40 42  1  0  0  0  0
 41 43  1  0  0  0  0
 41 44  1  0  0  0  0
 42 46  1  0  0  0  0
 43 48  1  0  0  0  0
 44 68  1  0  0  0  0
 45 48  1  0  0  0  0
 45 68  1  0  0  0  0
 46 72  1  0  0  0  0
 47 67  1  0  0  0  0
 48 66  1  0  0  0  0
 49 58  1  0  0  0  0
 50 60  1  0  0  0  0
 51 61  1  0  0  0  0
 52 62  1  0  0  0  0
 53 62  1  0  0  0  0
 54 62  1  0  0  0  0
 55 74  1  0  0  0  0
 56 57  1  0  0  0  0
 56 61  1  0  0  0  0
 57 82  1  0  0  0  0
 58 75  1  0  0  0  0
 59 62  1  0  0  0  0
 59 73  1  0  0  0  0
 60 74  1  0  0  0  0
 61 75  1  0  0  0  0
 65 66  1  0  0  0  0
M  CHG  2  74   1  75   1
M  ISO  4  36 100  57 101  71 100  82 101
M  END
> <Batch ID>
0197

> <Smiles>
CNC(C)C(=O)NC(C(=O)N1Cc2cc([101O:1][101CH2:1]CC(C)NC(C)c3cnc([100NH:0][100C:0](=O)N4CCCC(n5nc(-c6ccc(Oc7ccc(F)cc7F)cc6)c(C(N)=O)c5N)C4)cn3)ccc2CC1C(=O)NC1CCCc2ccccc21)C(C)(C)C

> <Shape>
0.227

> <Color>
0.102

> <Negative vol penalty>
0.000

$$$$

  -OEChem-04052305413D

 83 91  0     1  0  0  0  0  0999 V2000
  -18.0412  -31.2238   20.7615 C   0  0  0  0  0  0  0  0  0  0  0  0
  -19.4179  -31.1482   20.5764 C   0  0  0  0  0  0  0  0  0  0  0  0
  -26.4135  -12.6861   21.5824 C   0  0  0  0  0  0  0  0  0  0  0  0
  -25.9186  -13.5633   19.3864 C   0  0  0  0  0  0  0  0  0  0  0  0
  -17.3865  -30.2537   21.5193 C   0  0  0  0  0  0  0  0  0  0  0  0
  -20.1410  -30.1028   21.1500 C   0  0  0  0  0  0  0  0  0  0  0  0
  -25.0607  -27.3087   18.8058 C   0  0  0  0  0  0  0  0  0  0  0  0
  -25.1829  -12.0295   21.5975 C   0  0  0  0  0  0  0  0  0  0  0  0
  -24.6880  -12.9066   19.4014 C   0  0  0  0  0  0  0  0  0  0  0  0
  -26.4267  -27.4641   19.0371 C   0  0  0  0  0  0  0  0  0  0  0  0
  -23.8442   -9.2166   20.2827 C   0  0  0  0  0  0  0  0  0  0  0  0
  -23.8218   -7.8915   20.7176 C   0  0  0  0  0  0  0  0  0  0  0  0
  -26.3625  -25.6353   20.6089 C   0  0  0  0  0  0  0  0  0  0  0  0
  -22.3045   -8.5009   22.4963 C   0  0  0  0  0  0  0  0  0  0  0  0
  -26.7813  -13.4530   20.4769 C   0  0  0  0  0  0  0  0  0  0  0  0
  -29.2780  -13.6304   19.9841 C   0  0  0  0  0  0  0  0  0  0  0  0
  -18.1005  -29.1907   22.0944 C   0  0  0  0  0  0  0  0  0  0  0  0
  -24.3319  -26.3209   19.4837 C   0  0  0  0  0  0  0  0  0  0  0  0
  -19.4954  -29.1184   21.9173 C   0  0  0  0  0  0  0  0  0  0  0  0
  -24.9878  -25.4678   20.3826 C   0  0  0  0  0  0  0  0  0  0  0  0
  -24.3202  -12.1397   20.5070 C   0  0  0  0  0  0  0  0  0  0  0  0
  -27.0773  -26.6292   19.9409 C   0  0  0  0  0  0  0  0  0  0  0  0
  -23.0968  -10.1839   20.9547 C   0  0  0  0  0  0  0  0  0  0  0  0
  -23.0519   -7.5336   21.8243 C   0  0  0  0  0  0  0  0  0  0  0  0
  -22.3270   -9.8260   22.0614 C   0  0  0  0  0  0  0  0  0  0  0  0
  -28.0521  -14.1320   20.4609 C   0  0  0  0  0  0  0  0  0  0  0  0
  -30.1710  -14.6533   20.1905 C   0  0  0  0  0  0  0  0  0  0  0  0
  -28.6990  -21.9591   16.1685 C   0  0  0  0  0  0  0  0  0  0  0  0
  -29.1304  -21.3814   18.2937 C   0  0  0  0  0  0  0  0  0  0  0  0
  -29.6033  -23.4547   17.5764 C   0  0  0  0  0  0  0  0  0  0  0  0
  -29.5822  -12.3540   19.4062 C   0  0  0  0  0  0  0  0  0  0  0  0
  -21.8930  -26.3348   21.5222 C   0  0  0  0  0  0  0  0  0  0  0  0
  -22.0700  -23.1172   21.1505 C   0  0  0  0  0  0  0  0  0  0  0  0
  -23.9586  -20.3947   20.3331 C   0  0  0  0  0  0  0  0  0  0  0  0
  -29.5566  -20.5797   20.6436 C   0  0  0  0  0  0  0  0  0  0  0  0
  -17.3560  -28.1920   22.9448 C   0  0  0  0  0  0  0  0  0  0  0  0
  -22.8642  -26.1487   19.2031 C   0  0  0  0  0  0  0  0  0  0  0  0
  -24.2549  -24.3785   21.1207 C   0  0  0  0  0  0  0  0  0  0  0  0
  -18.1413  -26.9094   23.2063 C   0  0  0  0  0  0  0  0  0  0  0  0
  -30.9798  -18.3949   23.0681 C   0  0  0  0  0  0  0  0  0  0  0  0
  -19.5736  -27.2349   23.6179 C   0  0  0  0  0  0  0  0  0  0  0  0
  -30.5071  -17.0075   22.6278 C   0  0  0  0  0  0  0  0  0  0  0  0
  -29.9097  -19.4595   22.8335 C   0  0  0  0  0  0  0  0  0  0  0  0
  -28.9003  -18.1225   21.0272 C   0  0  0  0  0  0  0  0  0  0  0  0
  -20.3109  -27.9860   22.5027 C   0  0  1  0  0  0  0  0  0  0  0  0
  -22.1185  -25.4449   20.3327 C   0  0  1  0  0  0  0  0  0  0  0  0
  -29.9682  -17.0277   21.1839 C   0  0  2  0  0  0  0  0  0  0  0  0
  -28.1847  -21.6068   14.8141 C   0  0  0  0  0  0  0  0  0  0  0  0
  -23.8385  -17.8941   20.1599 C   0  0  0  0  0  0  0  0  0  0  0  0
  -32.0194  -24.5972   19.2811 C   0  0  0  0  0  0  0  0  0  0  0  0
  -22.2374  -22.9010   24.1895 C   0  0  0  0  0  0  0  0  0  0  0  0
  -23.0574  -20.5524   23.9076 C   0  0  0  0  0  0  0  0  0  0  0  0
  -20.7830  -21.1829   23.0999 C   0  0  0  0  0  0  0  0  0  0  0  0
  -24.5577  -20.4507   17.4354 C   0  0  0  0  0  0  0  0  0  0  0  0
  -30.6027  -26.6783   19.1958 C   0  0  0  0  0  0  0  0  0  0  0  0
  -29.2024  -27.2739   19.0899 C   0  0  0  0  0  0  0  0  0  1  0  0
  -22.8166  -22.0008   21.8400 C   0  0  1  0  0  0  0  0  0  0  0  0
  -23.6813  -19.2137   19.4205 C   0  0  2  0  0  0  0  0  0  0  0  0
  -30.6077  -25.1489   19.1082 C   0  0  1  0  0  0  0  0  0  0  0  0
  -22.2373  -21.6810   23.2469 C   0  0  0  0  0  0  0  0  0  0  0  0
  -28.1535  -15.3767   20.9347 N   0  0  0  0  0  0  0  0  0  0  0  0
  -28.6534  -20.9931   17.1002 N   0  0  0  0  0  0  0  0  0  0  0  0
  -29.1589  -23.2099   16.3332 N   0  0  0  0  0  0  0  0  0  0  0  0
  -29.6203  -22.5921   18.6053 N   0  0  0  0  0  0  0  0  0  0  0  0
  -29.4538  -15.6658   20.7567 N   0  0  0  0  0  0  0  0  0  0  0  0
  -22.8197  -24.2541   20.8170 N   0  0  0  0  0  0  0  0  0  0  0  0
  -29.4498  -19.4223   21.4436 N   0  0  0  0  0  0  0  0  0  0  0  0
  -31.4921  -14.7764   19.9412 N   0  0  0  0  0  0  0  0  0  0  0  0
  -28.5468  -11.4197   19.2672 N   0  0  0  0  0  0  0  0  0  0  0  0
  -29.1179  -20.4153   19.3302 N   0  0  0  0  0  0  0  0  0  0  0  0
  -30.0938  -24.7245   17.8227 N   0  0  0  0  0  0  0  0  0  0  0  0
  -20.7235  -27.0683   21.4625 N   0  0  0  0  0  0  0  0  0  0  0  0
  -22.8039  -20.8707   20.9175 N   0  0  0  0  0  0  0  0  0  0  0  0
  -24.6224  -19.2200   18.2649 N   0  3  0  0  0  0  0  0  0  0  0  0
  -30.7413  -12.0450   19.0395 O   0  0  0  0  0  0  0  0  0  0  0  0
  -22.7183  -26.3534   22.4279 O   0  0  0  0  0  0  0  0  0  0  0  0
  -20.8677  -22.9824   20.9101 O   0  0  0  0  0  0  0  0  0  0  0  0
  -25.0871  -20.8472   20.5127 O   0  0  0  0  0  0  0  0  0  0  0  0
  -30.0297  -21.6309   21.0831 O   0  0  0  0  0  0  0  0  0  0  0  0
  -23.1195  -11.4990   20.5213 O   0  0  0  0  0  0  0  0  0  0  0  0
  -28.4105  -26.7791   20.1689 O   0  0  0  0  0  0  0  0  0  1  0  0
  -23.0293   -6.2608   22.2409 F   0  0  0  0  0  0  0  0  0  0  0  0
  -21.6059  -10.7507   22.7103 F   0  0  0  0  0  0  0  0  0  0  0  0
  1  2  1  0  0  0  0
  1  5  2  0  0  0  0
  2  6  2  0  0  0  0
  3  8  2  0  0  0  0
  3 15  1  0  0  0  0
  4  9  1  0  0  0  0
  4 15  2  0  0  0  0
  5 17  1  0  0  0  0
  6 19  1  0  0  0  0
  7 10  2  0  0  0  0
  7 18  1  0  0  0  0
  8 21  1  0  0  0  0
  9 21  2  0  0  0  0
 10 22  1  0  0  0  0
 11 12  2  0  0  0  0
 11 23  1  0  0  0  0
 12 24  1  0  0  0  0
 13 20  1  0  0  0  0
 13 22  2  0  0  0  0
 14 24  2  0  0  0  0
 14 25  1  0  0  0  0
 15 26  1  0  0  0  0
 16 26  1  0  0  0  0
 16 27  2  0  0  0  0
 16 31  1  0  0  0  0
 17 19  2  0  0  0  0
 17 36  1  0  0  0  0
 18 20  2  0  0  0  0
 18 37  1  0  0  0  0
 19 45  1  0  0  0  0
 20 38  1  0  0  0  0
 21 80  1  0  0  0  0
 22 81  1  0  0  0  0
 23 25  2  0  0  0  0
 23 80  1  0  0  0  0
 24 82  1  0  0  0  0
 25 83  1  0  0  0  0
 26 61  2  0  0  0  0
 27 65  1  0  0  0  0
 27 68  1  0  0  0  0
 28 48  1  0  0  0  0
 28 62  1  0  0  0  0
 28 63  2  0  0  0  0
 29 62  2  0  0  0  0
 29 64  1  0  0  0  0
 29 70  1  0  0  0  0
 30 63  1  0  0  0  0
 30 64  2  0  0  0  0
 30 71  1  0  0  0  0
 31 69  1  0  0  0  0
 31 75  2  0  0  0  0
 32 46  1  0  0  0  0
 32 72  1  0  0  0  0
 32 76  2  0  0  0  0
 33 57  1  0  0  0  0
 33 66  1  0  0  0  0
 33 77  2  0  0  0  0
 34 58  1  0  0  0  0
 34 73  1  0  0  0  0
 34 78  2  0  0  0  0
 35 67  1  0  0  0  0
 35 70  1  0  0  0  0
 35 79  2  0  0  0  0
 36 39  1  0  0  0  0
 37 46  1  0  0  0  0
 38 66  1  0  0  0  0
 39 41  1  0  0  0  0
 40 42  1  0  0  0  0
 40 43  1  0  0  0  0
 41 45  1  0  0  0  0
 42 47  1  0  0  0  0
 43 67  1  0  0  0  0
 44 47  1  0  0  0  0
 44 67  1  0  0  0  0
 45 72  1  0  0  0  0
 46 66  1  0  0  0  0
 47 65  1  0  0  0  0
 49 58  1  0  0  0  0
 50 59  1  0  0  0  0
 51 60  1  0  0  0  0
 52 60  1  0  0  0  0
 53 60  1  0  0  0  0
 54 74  1  0  0  0  0
 55 56  1  0  0  0  0
 55 59  1  0  0  0  0
 56 81  1  0  0  0  0
 57 60  1  0  0  0  0
 57 73  1  0  0  0  0
 58 74  1  0  0  0  0
 59 71  1  0  0  0  0
 61 65  1  0  0  0  0
M  CHG  1  74   1
M  ISO  4  35 100  56 101  70 100  81 101
M  END
> <Batch ID>
0197

> <Smiles>
CNC(C)C(=O)NC(C(=O)N1Cc2cc([101O:1][101CH2:1]CC(C)Nc3nc(C)nc([100NH:0][100C:0](=O)N4CCCC(n5nc(-c6ccc(Oc7ccc(F)cc7F)cc6)c(C(N)=O)c5N)C4)n3)ccc2CC1C(=O)NC1CCCc2ccccc21)C(C)(C)C

> <Shape>
0.271

> <Color>
0.091

> <Negative vol penalty>
0.000

$$$$

  -OEChem-04052305413D

 80 88  0     1  0  0  0  0  0999 V2000
  -31.3822  -21.9797   16.4120 C   0  0  0  0  0  0  0  0  0  0  0  0
  -31.0298  -22.1156   17.7509 C   0  0  0  0  0  0  0  0  0  0  0  0
  -24.4934  -14.0935   19.9715 C   0  0  0  0  0  0  0  0  0  0  0  0
  -25.6361  -12.9772   21.7840 C   0  0  0  0  0  0  0  0  0  0  0  0
  -31.3846  -23.0958   15.5763 C   0  0  0  0  0  0  0  0  0  0  0  0
  -30.6807  -23.3679   18.2553 C   0  0  0  0  0  0  0  0  0  0  0  0
  -26.5543  -23.2004   21.1861 C   0  0  0  0  0  0  0  0  0  0  0  0
  -24.1464  -12.8565   19.4284 C   0  0  0  0  0  0  0  0  0  0  0  0
  -25.2891  -11.7401   21.2409 C   0  0  0  0  0  0  0  0  0  0  0  0
  -26.7169  -22.7293   22.4882 C   0  0  0  0  0  0  0  0  0  0  0  0
  -24.3964   -8.2889   20.5267 C   0  0  0  0  0  0  0  0  0  0  0  0
  -23.9111   -7.3115   21.3954 C   0  0  0  0  0  0  0  0  0  0  0  0
  -26.7488  -25.0009   23.2996 C   0  0  0  0  0  0  0  0  0  0  0  0
  -22.0786   -8.7633   22.0049 C   0  0  0  0  0  0  0  0  0  0  0  0
  -31.9778  -20.9736   26.9874 C   0  0  0  0  0  0  0  0  0  0  0  0
  -25.2383  -14.1538   21.1493 C   0  0  0  0  0  0  0  0  0  0  0  0
  -24.8610  -16.1883   22.6414 C   0  0  0  0  0  0  0  0  0  0  0  0
  -31.0260  -24.3607   16.0683 C   0  0  0  0  0  0  0  0  0  0  0  0
  -26.4986  -24.5778   20.9293 C   0  0  0  0  0  0  0  0  0  0  0  0
  -30.6796  -24.5021   17.4257 C   0  0  0  0  0  0  0  0  0  0  0  0
  -26.5829  -25.4868   21.9936 C   0  0  0  0  0  0  0  0  0  0  0  0
  -24.5442  -11.6798   20.0631 C   0  0  0  0  0  0  0  0  0  0  0  0
  -26.8171  -23.6297   23.5449 C   0  0  0  0  0  0  0  0  0  0  0  0
  -23.7229   -9.5035   20.3971 C   0  0  0  0  0  0  0  0  0  0  0  0
  -22.7521   -7.5487   22.1345 C   0  0  0  0  0  0  0  0  0  0  0  0
  -22.5640   -9.7407   21.1361 C   0  0  0  0  0  0  0  0  0  0  0  0
  -25.5975  -15.4314   21.7106 C   0  0  0  0  0  0  0  0  0  0  0  0
  -31.2069  -20.0478   26.3161 C   0  0  0  0  0  0  0  0  0  0  0  0
  -25.6245  -17.3104   22.8522 C   0  0  0  0  0  0  0  0  0  0  0  0
  -29.6190  -21.4505   26.8826 C   0  0  0  0  0  0  0  0  0  0  0  0
  -23.5996  -15.9027   23.2601 C   0  0  0  0  0  0  0  0  0  0  0  0
  -28.2653  -26.6202   19.2526 C   0  0  0  0  0  0  0  0  0  0  0  0
  -25.9041  -28.7018   20.0362 C   0  0  0  0  0  0  0  0  0  0  0  0
  -23.3780  -29.5483   22.1691 C   0  0  0  0  0  0  0  0  0  0  0  0
  -31.1667  -18.9355   23.2496 C   0  0  0  0  0  0  0  0  0  0  0  0
  -31.0892  -25.5461   15.1380 C   0  0  0  0  0  0  0  0  0  0  0  0
  -26.2961  -25.0692   19.5222 C   0  0  0  0  0  0  0  0  0  0  0  0
  -26.5086  -26.9749   21.7734 C   0  0  0  0  0  0  0  0  0  0  0  0
  -30.3445  -26.7715   15.6615 C   0  0  0  0  0  0  0  0  0  0  0  0
  -29.2175  -19.6016   20.3455 C   0  0  0  0  0  0  0  0  0  0  0  0
  -30.6930  -27.0231   17.1251 C   0  0  0  0  0  0  0  0  0  0  0  0
  -28.0168  -18.6645   20.4880 C   0  0  0  0  0  0  0  0  0  0  0  0
  -30.5012  -18.9568   20.8635 C   0  0  0  0  0  0  0  0  0  0  0  0
  -29.2203  -17.5005   22.3841 C   0  0  0  0  0  0  0  0  0  0  0  0
  -30.2709  -25.8395   18.0040 C   0  0  1  0  0  0  0  0  0  0  0  0
  -26.7686  -26.5052   19.3170 C   0  0  1  0  0  0  0  0  0  0  0  0
  -27.8923  -18.1275   21.9265 C   0  0  2  0  0  0  0  0  0  0  0  0
  -21.6525  -31.3252   22.5722 C   0  0  0  0  0  0  0  0  0  0  0  0
  -28.0700  -30.5544   21.1255 C   0  0  0  0  0  0  0  0  0  0  0  0
  -26.2809  -31.8196   22.3366 C   0  0  0  0  0  0  0  0  0  0  0  0
  -26.2580  -31.7078   19.8447 C   0  0  0  0  0  0  0  0  0  0  0  0
  -21.1535  -27.6194   21.8696 C   0  0  0  0  0  0  0  0  0  0  0  0
  -31.7049  -18.8175   25.6694 C   0  0  0  0  0  0  0  0  0  0  0  0
  -27.1571  -21.4401   26.4769 C   0  0  0  0  0  0  0  0  0  0  0  0
  -27.0329  -21.7580   24.9962 C   0  0  0  0  0  0  0  0  0  1  0  0
  -25.6523  -29.6503   21.1833 C   0  0  1  0  0  0  0  0  0  0  0  0
  -21.9476  -29.9871   21.9126 C   0  0  2  0  0  0  0  0  0  0  0  0
  -26.5686  -30.9051   21.1268 C   0  0  0  0  0  0  0  0  0  0  0  0
  -26.7410  -16.0228   21.3545 N   0  0  0  0  0  0  0  0  0  0  0  0
  -29.8540  -20.3193   26.2554 N   0  0  0  0  0  0  0  0  0  0  0  0
  -26.7287  -17.1633   22.0653 N   0  0  0  0  0  0  0  0  0  0  0  0
  -26.3163  -27.4062   20.3790 N   0  0  0  0  0  0  0  0  0  0  0  0
  -30.3166  -18.4701   22.2328 N   0  0  0  0  0  0  0  0  0  0  0  0
  -25.4523  -18.3988   23.6321 N   0  0  0  0  0  0  0  0  0  0  0  0
  -22.9500  -14.7051   22.9311 N   0  0  0  0  0  0  0  0  0  0  0  0
  -28.3647  -22.0227   27.0156 N   0  0  0  0  0  0  0  0  0  0  0  0
  -28.8443  -25.8725   18.2451 N   0  0  0  0  0  0  0  0  0  0  0  0
  -24.2249  -29.9512   21.1583 N   0  0  0  0  0  0  0  0  0  0  0  0
  -30.9191  -18.4288   24.5195 N   0  0  0  0  0  0  0  0  0  0  0  0
  -20.9919  -28.9775   22.4494 N   0  3  0  0  0  0  0  0  0  0  0  0
  -23.0565  -16.6938   24.0680 O   0  0  0  0  0  0  0  0  0  0  0  0
  -28.8514  -27.3356   20.0566 O   0  0  0  0  0  0  0  0  0  0  0  0
  -25.7341  -29.0936   18.8790 O   0  0  0  0  0  0  0  0  0  0  0  0
  -23.7114  -28.9148   23.1682 O   0  0  0  0  0  0  0  0  0  0  0  0
  -32.0753  -19.7469   23.0420 O   0  0  0  0  0  0  0  0  0  0  0  0
  -24.2056  -10.4725   19.5335 O   0  0  0  0  0  0  0  0  0  0  0  0
  -26.9764  -23.1726   24.8167 O   0  0  0  0  0  0  0  0  0  1  0  0
  -22.2853   -6.6094   22.9676 F   0  0  0  0  0  0  0  0  0  0  0  0
  -21.9119  -10.9051   21.0150 F   0  0  0  0  0  0  0  0  0  0  0  0
  -30.9790  -22.2408   27.5686 S   0  0  0  0  0  0  0  0  0  0  0  0
  1  2  1  0  0  0  0
  1  5  2  0  0  0  0
  2  6  2  0  0  0  0
  3  8  2  0  0  0  0
  3 16  1  0  0  0  0
  4  9  1  0  0  0  0
  4 16  2  0  0  0  0
  5 18  1  0  0  0  0
  6 20  1  0  0  0  0
  7 10  2  0  0  0  0
  7 19  1  0  0  0  0
  8 22  1  0  0  0  0
  9 22  2  0  0  0  0
 10 23  1  0  0  0  0
 11 12  2  0  0  0  0
 11 24  1  0  0  0  0
 12 25  1  0  0  0  0
 13 21  1  0  0  0  0
 13 23  2  0  0  0  0
 14 25  2  0  0  0  0
 14 26  1  0  0  0  0
 15 28  2  0  0  0  0
 15 80  1  0  0  0  0
 16 27  1  0  0  0  0
 17 27  1  0  0  0  0
 17 29  2  0  0  0  0
 17 31  1  0  0  0  0
 18 20  2  0  0  0  0
 18 36  1  0  0  0  0
 19 21  2  0  0  0  0
 19 37  1  0  0  0  0
 20 45  1  0  0  0  0
 21 38  1  0  0  0  0
 22 76  1  0  0  0  0
 23 77  1  0  0  0  0
 24 26  2  0  0  0  0
 24 76  1  0  0  0  0
 25 78  1  0  0  0  0
 26 79  1  0  0  0  0
 27 59  2  0  0  0  0
 28 53  1  0  0  0  0
 28 60  1  0  0  0  0
 29 61  1  0  0  0  0
 29 64  1  0  0  0  0
 30 60  2  0  0  0  0
 30 66  1  0  0  0  0
 30 80  1  0  0  0  0
 31 65  1  0  0  0  0
 31 71  2  0  0  0  0
 32 46  1  0  0  0  0
 32 67  1  0  0  0  0
 32 72  2  0  0  0  0
 33 56  1  0  0  0  0
 33 62  1  0  0  0  0
 33 73  2  0  0  0  0
 34 57  1  0  0  0  0
 34 68  1  0  0  0  0
 34 74  2  0  0  0  0
 35 63  1  0  0  0  0
 35 69  1  0  0  0  0
 35 75  2  0  0  0  0
 36 39  1  0  0  0  0
 37 46  1  0  0  0  0
 38 62  1  0  0  0  0
 39 41  1  0  0  0  0
 40 42  1  0  0  0  0
 40 43  1  0  0  0  0
 41 45  1  0  0  0  0
 42 47  1  0  0  0  0
 43 63  1  0  0  0  0
 44 47  1  0  0  0  0
 44 63  1  0  0  0  0
 45 67  1  0  0  0  0
 46 62  1  0  0  0  0
 47 61  1  0  0  0  0
 48 57  1  0  0  0  0
 49 58  1  0  0  0  0
 50 58  1  0  0  0  0
 51 58  1  0  0  0  0
 52 70  1  0  0  0  0
 53 69  1  0  0  0  0
 54 55  1  0  0  0  0
 54 66  1  0  0  0  0
 55 77  1  0  0  0  0
 56 58  1  0  0  0  0
 56 68  1  0  0  0  0
 57 70  1  0  0  0  0
 59 61  1  0  0  0  0
M  CHG  1  70   1
M  ISO  4  35 100  55 101  69 100  77 101
M  END
> <Batch ID>
0197

> <Smiles>
CNC(C)C(=O)NC(C(=O)N1Cc2cc([101O:1][101CH2:1]CNc3nc(C[100NH:0][100C:0](=O)N4CCCC(n5nc(-c6ccc(Oc7ccc(F)cc7F)cc6)c(C(N)=O)c5N)C4)cs3)ccc2CC1C(=O)NC1CCCc2ccccc21)C(C)(C)C

> <Shape>
0.220

> <Color>
0.070

> <Negative vol penalty>
0.000

$$$$

  -OEChem-04052305413D

 81 89  0     1  0  0  0  0  0999 V2000
  -17.6566  -16.2152   20.5593 C   0  0  0  0  0  0  0  0  0  0  0  0
  -18.9243  -16.7065   20.8538 C   0  0  0  0  0  0  0  0  0  0  0  0
  -23.0724   -9.8702   19.9430 C   0  0  0  0  0  0  0  0  0  0  0  0
  -23.8351   -9.8781   22.2355 C   0  0  0  0  0  0  0  0  0  0  0  0
  -16.7810  -15.8844   21.5927 C   0  0  0  0  0  0  0  0  0  0  0  0
  -19.3169  -16.8683   22.1820 C   0  0  0  0  0  0  0  0  0  0  0  0
  -24.9387  -16.0831   24.4810 C   0  0  0  0  0  0  0  0  0  0  0  0
  -22.3290   -8.7170   20.1943 C   0  0  0  0  0  0  0  0  0  0  0  0
  -23.0916   -8.7249   22.4868 C   0  0  0  0  0  0  0  0  0  0  0  0
  -25.9590  -16.9811   24.7913 C   0  0  0  0  0  0  0  0  0  0  0  0
  -19.3826   -7.9206   21.6495 C   0  0  0  0  0  0  0  0  0  0  0  0
  -18.0752   -7.8740   21.1659 C   0  0  0  0  0  0  0  0  0  0  0  0
  -25.2220  -17.0157   27.0880 C   0  0  0  0  0  0  0  0  0  0  0  0
  -18.6335   -5.9305   19.8436 C   0  0  0  0  0  0  0  0  0  0  0  0
  -29.5004  -18.4782   23.4661 C   0  0  0  0  0  0  0  0  0  0  0  0
  -23.8255  -10.4507   20.9636 C   0  0  0  0  0  0  0  0  0  0  0  0
  -24.1668  -12.9759   20.8423 C   0  0  0  0  0  0  0  0  0  0  0  0
  -17.1666  -16.0331   22.9343 C   0  0  0  0  0  0  0  0  0  0  0  0
  -24.0441  -15.6524   25.4713 C   0  0  0  0  0  0  0  0  0  0  0  0
  -18.4452  -16.5404   23.2343 C   0  0  0  0  0  0  0  0  0  0  0  0
  -24.1927  -16.1103   26.7883 C   0  0  0  0  0  0  0  0  0  0  0  0
  -22.3386   -8.1444   21.4662 C   0  0  0  0  0  0  0  0  0  0  0  0
  -26.0990  -17.4498   26.0943 C   0  0  0  0  0  0  0  0  0  0  0  0
  -20.3156   -6.9722   21.2302 C   0  0  0  0  0  0  0  0  0  0  0  0
  -17.7006   -6.8789   20.2630 C   0  0  0  0  0  0  0  0  0  0  0  0
  -19.9410   -5.9771   20.3272 C   0  0  0  0  0  0  0  0  0  0  0  0
  -24.5941  -11.6416   20.7045 C   0  0  0  0  0  0  0  0  0  0  0  0
  -30.3363  -17.4160   23.1922 C   0  0  0  0  0  0  0  0  0  0  0  0
  -25.2584  -13.7254   20.4774 C   0  0  0  0  0  0  0  0  0  0  0  0
  -29.8861  -17.8233   25.5233 C   0  0  0  0  0  0  0  0  0  0  0  0
  -22.8968  -13.4917   21.2626 C   0  0  0  0  0  0  0  0  0  0  0  0
  -20.9048  -15.8843   25.9126 C   0  0  0  0  0  0  0  0  0  0  0  0
  -21.5095  -13.9412   28.4387 C   0  0  0  0  0  0  0  0  0  0  0  0
  -23.7567  -12.7865   30.7329 C   0  0  0  0  0  0  0  0  0  0  0  0
  -30.7423  -14.7452   20.6587 C   0  0  0  0  0  0  0  0  0  0  0  0
  -16.1685  -15.7067   24.0169 C   0  0  0  0  0  0  0  0  0  0  0  0
  -22.9652  -14.6628   25.1261 C   0  0  0  0  0  0  0  0  0  0  0  0
  -23.2709  -15.6628   27.8922 C   0  0  0  0  0  0  0  0  0  0  0  0
  -16.7975  -15.5543   25.3994 C   0  0  0  0  0  0  0  0  0  0  0  0
  -29.6021  -12.3597   18.2741 C   0  0  0  0  0  0  0  0  0  0  0  0
  -17.7649  -16.7011   25.6751 C   0  0  0  0  0  0  0  0  0  0  0  0
  -28.1652  -12.0660   18.7089 C   0  0  0  0  0  0  0  0  0  0  0  0
  -30.5206  -12.5811   19.4738 C   0  0  0  0  0  0  0  0  0  0  0  0
  -28.6205  -13.3124   20.8625 C   0  0  0  0  0  0  0  0  0  0  0  0
  -18.9167  -16.7066   24.6627 C   0  0  1  0  0  0  0  0  0  0  0  0
  -21.7950  -14.6891   26.1045 C   0  0  1  0  0  0  0  0  0  0  0  0
  -27.6449  -13.1373   19.6861 C   0  0  2  0  0  0  0  0  0  0  0  0
  -23.9478  -11.2319   32.6935 C   0  0  0  0  0  0  0  0  0  0  0  0
  -29.6659  -18.6813   29.1341 C   0  0  0  0  0  0  0  0  0  0  0  0
  -20.0639  -15.9780   30.1914 C   0  0  0  0  0  0  0  0  0  0  0  0
  -21.0950  -14.8833   32.1930 C   0  0  0  0  0  0  0  0  0  0  0  0
  -19.5478  -13.5898   30.7248 C   0  0  0  0  0  0  0  0  0  0  0  0
  -25.7886  -11.1250   29.3655 C   0  0  0  0  0  0  0  0  0  0  0  0
  -30.8093  -16.8963   21.8947 C   0  0  0  0  0  0  0  0  0  0  0  0
  -27.6185  -18.2777   27.7258 C   0  0  0  0  0  0  0  0  0  1  0  0
  -21.8665  -14.1542   29.8899 C   0  0  1  0  0  0  0  0  0  0  0  0
  -24.0991  -11.3792   31.1875 C   0  0  2  0  0  0  0  0  0  0  0  0
  -29.0896  -18.6875   27.7243 C   0  0  2  0  0  0  0  0  0  0  0  0
  -20.6596  -14.6614   30.7288 C   0  0  0  0  0  0  0  0  0  0  0  0
  -29.2408  -18.7130   24.8022 N   0  0  0  0  0  0  0  0  0  0  0  0
  -25.8585  -11.5458   20.2847 N   0  0  0  0  0  0  0  0  0  0  0  0
  -26.2350  -12.8294   20.1555 N   0  0  0  0  0  0  0  0  0  0  0  0
  -22.2279  -14.6993   27.5033 N   0  0  0  0  0  0  0  0  0  0  0  0
  -29.9710  -13.6099   20.3601 N   0  0  0  0  0  0  0  0  0  0  0  0
  -25.4686  -15.0568   20.4036 N   0  0  0  0  0  0  0  0  0  0  0  0
  -21.8854  -12.5825   21.6014 N   0  0  0  0  0  0  0  0  0  0  0  0
  -29.8493  -17.7651   26.9043 N   0  0  0  0  0  0  0  0  0  0  0  0
  -19.8885  -15.6877   24.9972 N   0  0  0  0  0  0  0  0  0  0  0  0
  -22.4337  -12.8950   30.3599 N   0  0  0  0  0  0  0  0  0  0  0  0
  -30.1440  -15.6743   21.5011 N   0  0  0  0  0  0  0  0  0  0  0  0
  -25.5043  -11.0440   30.8214 N   0  3  0  0  0  0  0  0  0  0  0  0
  -22.6604  -14.7223   21.3197 O   0  0  0  0  0  0  0  0  0  0  0  0
  -21.1229  -16.9085   26.5491 O   0  0  0  0  0  0  0  0  0  0  0  0
  -20.6307  -13.1267   28.1453 O   0  0  0  0  0  0  0  0  0  0  0  0
  -24.5796  -13.6992   30.7143 O   0  0  0  0  0  0  0  0  0  0  0  0
  -31.8776  -14.9207   20.2036 O   0  0  0  0  0  0  0  0  0  0  0  0
  -21.6131   -7.0193   21.7118 O   0  0  0  0  0  0  0  0  0  0  0  0
  -27.0937  -18.3269   26.3997 O   0  0  0  0  0  0  0  0  0  1  0  0
  -16.4446   -6.8334   19.7998 F   0  0  0  0  0  0  0  0  0  0  0  0
  -20.8326   -5.0626   19.9217 F   0  0  0  0  0  0  0  0  0  0  0  0
  -30.8246  -16.6750   24.6598 S   0  0  0  0  0  0  0  0  0  0  0  0
  1  2  1  0  0  0  0
  1  5  2  0  0  0  0
  2  6  2  0  0  0  0
  3  8  2  0  0  0  0
  3 16  1  0  0  0  0
  4  9  1  0  0  0  0
  4 16  2  0  0  0  0
  5 18  1  0  0  0  0
  6 20  1  0  0  0  0
  7 10  2  0  0  0  0
  7 19  1  0  0  0  0
  8 22  1  0  0  0  0
  9 22  2  0  0  0  0
 10 23  1  0  0  0  0
 11 12  2  0  0  0  0
 11 24  1  0  0  0  0
 12 25  1  0  0  0  0
 13 21  1  0  0  0  0
 13 23  2  0  0  0  0
 14 25  2  0  0  0  0
 14 26  1  0  0  0  0
 15 28  2  0  0  0  0
 15 60  1  0  0  0  0
 16 27  1  0  0  0  0
 17 27  1  0  0  0  0
 17 29  2  0  0  0  0
 17 31  1  0  0  0  0
 18 20  2  0  0  0  0
 18 36  1  0  0  0  0
 19 21  2  0  0  0  0
 19 37  1  0  0  0  0
 20 45  1  0  0  0  0
 21 38  1  0  0  0  0
 22 77  1  0  0  0  0
 23 78  1  0  0  0  0
 24 26  2  0  0  0  0
 24 77  1  0  0  0  0
 25 79  1  0  0  0  0
 26 80  1  0  0  0  0
 27 61  2  0  0  0  0
 28 54  1  0  0  0  0
 28 81  1  0  0  0  0
 29 62  1  0  0  0  0
 29 65  1  0  0  0  0
 30 60  2  0  0  0  0
 30 67  1  0  0  0  0
 30 81  1  0  0  0  0
 31 66  1  0  0  0  0
 31 72  2  0  0  0  0
 32 46  1  0  0  0  0
 32 68  1  0  0  0  0
 32 73  2  0  0  0  0
 33 56  1  0  0  0  0
 33 63  1  0  0  0  0
 33 74  2  0  0  0  0
 34 57  1  0  0  0  0
 34 69  1  0  0  0  0
 34 75  2  0  0  0  0
 35 64  1  0  0  0  0
 35 70  1  0  0  0  0
 35 76  2  0  0  0  0
 36 39  1  0  0  0  0
 37 46  1  0  0  0  0
 38 63  1  0  0  0  0
 39 41  1  0  0  0  0
 40 42  1  0  0  0  0
 40 43  1  0  0  0  0
 41 45  1  0  0  0  0
 42 47  1  0  0  0  0
 43 64  1  0  0  0  0
 44 47  1  0  0  0  0
 44 64  1  0  0  0  0
 45 68  1  0  0  0  0
 46 63  1  0  0  0  0
 47 62  1  0  0  0  0
 48 57  1  0  0  0  0
 49 58  1  0  0  0  0
 50 59  1  0  0  0  0
 51 59  1  0  0  0  0
 52 59  1  0  0  0  0
 53 71  1  0  0  0  0
 54 70  1  0  0  0  0
 55 58  1  0  0  0  0
 55 78  1  0  0  0  0
 56 59  1  0  0  0  0
 56 69  1  0  0  0  0
 57 71  1  0  0  0  0
 58 67  1  0  0  0  0
 61 62  1  0  0  0  0
M  CHG  1  71   1
M  ISO  4  35 100  55 101  70 100  78 101
M  END
> <Batch ID>
0197

> <Smiles>
CNC(C)C(=O)NC(C(=O)N1Cc2cc([101O:1][101CH2:1]C(C)Nc3ncc(C[100NH:0][100C:0](=O)N4CCCC(n5nc(-c6ccc(Oc7ccc(F)cc7F)cc6)c(C(N)=O)c5N)C4)s3)ccc2CC1C(=O)NC1CCCc2ccccc21)C(C)(C)C

> <Shape>
0.146

> <Color>
0.191

> <Negative vol penalty>
0.000

$$$$

  -OEChem-04052305413D

 84 92  0     1  0  0  0  0  0999 V2000
  -34.1352  -27.4510   17.6468 C   0  0  0  0  0  0  0  0  0  0  0  0
  -33.2763  -26.6735   18.4171 C   0  0  0  0  0  0  0  0  0  0  0  0
  -31.9574  -19.1798   21.2523 C   0  0  0  0  0  0  0  0  0  0  0  0
  -24.0645   -9.4878   21.6819 C   0  0  0  0  0  0  0  0  0  0  0  0
  -24.5160  -10.7559   23.6882 C   0  0  0  0  0  0  0  0  0  0  0  0
  -34.2840  -28.8088   17.9263 C   0  0  0  0  0  0  0  0  0  0  0  0
  -32.5665  -27.2533   19.4681 C   0  0  0  0  0  0  0  0  0  0  0  0
  -27.7108  -25.8182   19.5582 C   0  0  0  0  0  0  0  0  0  0  0  0
  -32.1966  -17.8416   21.5647 C   0  0  0  0  0  0  0  0  0  0  0  0
  -30.8334  -19.8260   21.7668 C   0  0  0  0  0  0  0  0  0  0  0  0
  -23.6191   -8.4180   22.4583 C   0  0  0  0  0  0  0  0  0  0  0  0
  -24.0705   -9.6861   24.4646 C   0  0  0  0  0  0  0  0  0  0  0  0
  -27.4299  -24.5543   20.0752 C   0  0  0  0  0  0  0  0  0  0  0  0
  -20.8242   -7.5707   24.1623 C   0  0  0  0  0  0  0  0  0  0  0  0
  -19.6415   -6.9390   23.7779 C   0  0  0  0  0  0  0  0  0  0  0  0
  -26.7870  -25.5612   22.1710 C   0  0  0  0  0  0  0  0  0  0  0  0
  -20.8383   -4.8562   23.5188 C   0  0  0  0  0  0  0  0  0  0  0  0
  -24.5131  -10.6567   22.2969 C   0  0  0  0  0  0  0  0  0  0  0  0
  -24.2034  -12.8285   20.9948 C   0  0  0  0  0  0  0  0  0  0  0  0
  -33.5684  -29.4075   18.9751 C   0  0  0  0  0  0  0  0  0  0  0  0
  -27.5420  -26.9642   20.3485 C   0  0  0  0  0  0  0  0  0  0  0  0
  -32.7070  -28.6201   19.7627 C   0  0  0  0  0  0  0  0  0  0  0  0
  -27.0640  -26.8387   21.6607 C   0  0  0  0  0  0  0  0  0  0  0  0
  -31.3118  -17.1495   22.3916 C   0  0  0  0  0  0  0  0  0  0  0  0
  -29.9485  -19.1339   22.5937 C   0  0  0  0  0  0  0  0  0  0  0  0
  -23.6220   -8.5172   23.8496 C   0  0  0  0  0  0  0  0  0  0  0  0
  -26.9707  -24.4254   21.3828 C   0  0  0  0  0  0  0  0  0  0  0  0
  -22.0140   -6.8452   24.2249 C   0  0  0  0  0  0  0  0  0  0  0  0
  -19.6485   -5.5817   23.4562 C   0  0  0  0  0  0  0  0  0  0  0  0
  -22.0210   -5.4880   23.9032 C   0  0  0  0  0  0  0  0  0  0  0  0
  -30.1878  -17.7957   22.9061 C   0  0  0  0  0  0  0  0  0  0  0  0
  -24.9739  -11.7619   21.4954 C   0  0  0  0  0  0  0  0  0  0  0  0
  -25.1006  -13.6051   20.3031 C   0  0  0  0  0  0  0  0  0  0  0  0
  -22.8021  -13.0936   21.1421 C   0  0  0  0  0  0  0  0  0  0  0  0
  -29.4729  -29.2421   21.4380 C   0  0  0  0  0  0  0  0  0  0  0  0
  -26.6958  -30.5569   22.4779 C   0  0  0  0  0  0  0  0  0  0  0  0
  -23.4426  -30.1016   23.4033 C   0  0  0  0  0  0  0  0  0  0  0  0
  -31.0266  -14.3486   20.7276 C   0  0  0  0  0  0  0  0  0  0  0  0
  -33.7981  -30.8689   19.2692 C   0  0  0  0  0  0  0  0  0  0  0  0
  -27.8240  -28.3225   19.7672 C   0  0  0  0  0  0  0  0  0  0  0  0
  -26.8466  -28.0393   22.5437 C   0  0  0  0  0  0  0  0  0  0  0  0
  -32.7257  -31.4861   20.1632 C   0  0  0  0  0  0  0  0  0  0  0  0
  -29.1998  -13.3101   17.8535 C   0  0  0  0  0  0  0  0  0  0  0  0
  -32.4373  -30.5790   21.3551 C   0  0  0  0  0  0  0  0  0  0  0  0
  -27.8401  -12.8918   18.4158 C   0  0  0  0  0  0  0  0  0  0  0  0
  -30.3391  -12.9479   18.8037 C   0  0  0  0  0  0  0  0  0  0  0  0
  -28.8209  -13.0330   20.7432 C   0  0  0  0  0  0  0  0  0  0  0  0
  -31.9010  -29.2179   20.8955 C   0  0  1  0  0  0  0  0  0  0  0  0
  -28.1060  -29.3804   20.8296 C   0  0  1  0  0  0  0  0  0  0  0  0
  -27.6356  -13.4277   19.8456 C   0  0  2  0  0  0  0  0  0  0  0  0
  -21.4383  -31.3584   24.2404 C   0  0  0  0  0  0  0  0  0  0  0  0
  -27.9508  -30.7038   25.2551 C   0  0  0  0  0  0  0  0  0  0  0  0
  -25.6574  -31.0528   26.1968 C   0  0  0  0  0  0  0  0  0  0  0  0
  -26.6169  -32.7170   24.6054 C   0  0  0  0  0  0  0  0  0  0  0  0
  -21.8412  -29.3612   21.0272 C   0  0  0  0  0  0  0  0  0  0  0  0
  -31.5710  -15.7189   22.7239 C   0  0  0  0  0  0  0  0  0  0  0  0
  -28.5127  -21.1608   22.8295 C   0  0  0  0  0  0  0  0  0  0  0  0
  -26.8734  -23.0146   23.2949 C   0  0  0  0  0  0  0  0  0  1  0  0
  -25.8741  -30.4603   23.7406 C   0  0  1  0  0  0  0  0  0  0  0  0
  -22.1725  -30.8368   23.0150 C   0  0  2  0  0  0  0  0  0  0  0  0
  -27.2362  -21.5590   23.5678 C   0  0  1  0  0  0  0  0  0  0  0  0
  -26.5306  -31.2105   24.9337 C   0  0  0  0  0  0  0  0  0  0  0  0
  -26.2614  -11.8496   21.1508 N   0  0  0  0  0  0  0  0  0  0  0  0
  -26.3068  -12.9806   20.4263 N   0  0  0  0  0  0  0  0  0  0  0  0
  -27.1425  -29.3453   21.9318 N   0  0  0  0  0  0  0  0  0  0  0  0
  -30.0845  -13.4871   20.1417 N   0  0  0  0  0  0  0  0  0  0  0  0
  -24.9674  -14.7543   19.6075 N   0  0  0  0  0  0  0  0  0  0  0  0
  -22.0262  -12.1932   21.8848 N   0  0  0  0  0  0  0  0  0  0  0  0
  -28.8337  -19.7779   23.1032 N   0  0  0  0  0  0  0  0  0  0  0  0
  -30.5062  -29.3234   20.5242 N   0  0  0  0  0  0  0  0  0  0  0  0
  -24.5391  -30.9376   23.3964 N   0  0  0  0  0  0  0  0  0  0  0  0
  -30.7049  -14.8196   21.9947 N   0  0  0  0  0  0  0  0  0  0  0  0
  -21.2559  -29.9289   22.2690 N   0  3  0  0  0  0  0  0  0  0  0  0
  -22.2511  -14.0903   20.6163 O   0  0  0  0  0  0  0  0  0  0  0  0
  -29.5820  -29.0755   22.6472 O   0  0  0  0  0  0  0  0  0  0  0  0
  -26.9265  -31.6661   21.9899 O   0  0  0  0  0  0  0  0  0  0  0  0
  -23.4597  -28.9062   23.6882 O   0  0  0  0  0  0  0  0  0  0  0  0
  -32.0742  -14.6783   20.1611 O   0  0  0  0  0  0  0  0  0  0  0  0
  -26.1554  -20.7472   23.1038 O   0  0  0  0  0  0  0  0  0  0  0  0
  -23.1871   -7.4736   24.6075 O   0  0  0  0  0  0  0  0  0  0  0  0
  -26.6964  -23.1929   21.8901 O   0  0  0  0  0  0  0  0  0  1  0  0
  -18.5124   -4.9749   23.0885 F   0  0  0  0  0  0  0  0  0  0  0  0
  -23.1606   -4.7855   23.9627 F   0  0  0  0  0  0  0  0  0  0  0  0
  -29.3375  -17.1297   23.7019 F   0  0  0  0  0  0  0  0  0  0  0  0
  1  2  1  0  0  0  0
  1  6  2  0  0  0  0
  2  7  2  0  0  0  0
  3  9  1  0  0  0  0
  3 10  2  0  0  0  0
  4 11  2  0  0  0  0
  4 18  1  0  0  0  0
  5 12  1  0  0  0  0
  5 18  2  0  0  0  0
  6 20  1  0  0  0  0
  7 22  1  0  0  0  0
  8 13  2  0  0  0  0
  8 21  1  0  0  0  0
  9 24  2  0  0  0  0
 10 25  1  0  0  0  0
 11 26  1  0  0  0  0
 12 26  2  0  0  0  0
 13 27  1  0  0  0  0
 14 15  2  0  0  0  0
 14 28  1  0  0  0  0
 15 29  1  0  0  0  0
 16 23  1  0  0  0  0
 16 27  2  0  0  0  0
 17 29  2  0  0  0  0
 17 30  1  0  0  0  0
 18 32  1  0  0  0  0
 19 32  1  0  0  0  0
 19 33  2  0  0  0  0
 19 34  1  0  0  0  0
 20 22  2  0  0  0  0
 20 39  1  0  0  0  0
 21 23  2  0  0  0  0
 21 40  1  0  0  0  0
 22 48  1  0  0  0  0
 23 41  1  0  0  0  0
 24 31  1  0  0  0  0
 24 56  1  0  0  0  0
 25 31  2  0  0  0  0
 25 69  1  0  0  0  0
 26 80  1  0  0  0  0
 27 81  1  0  0  0  0
 28 30  2  0  0  0  0
 28 80  1  0  0  0  0
 29 82  1  0  0  0  0
 30 83  1  0  0  0  0
 31 84  1  0  0  0  0
 32 63  2  0  0  0  0
 33 64  1  0  0  0  0
 33 67  1  0  0  0  0
 34 68  1  0  0  0  0
 34 74  2  0  0  0  0
 35 49  1  0  0  0  0
 35 70  1  0  0  0  0
 35 75  2  0  0  0  0
 36 59  1  0  0  0  0
 36 65  1  0  0  0  0
 36 76  2  0  0  0  0
 37 60  1  0  0  0  0
 37 71  1  0  0  0  0
 37 77  2  0  0  0  0
 38 66  1  0  0  0  0
 38 72  1  0  0  0  0
 38 78  2  0  0  0  0
 39 42  1  0  0  0  0
 40 49  1  0  0  0  0
 41 65  1  0  0  0  0
 42 44  1  0  0  0  0
 43 45  1  0  0  0  0
 43 46  1  0  0  0  0
 44 48  1  0  0  0  0
 45 50  1  0  0  0  0
 46 66  1  0  0  0  0
 47 50  1  0  0  0  0
 47 66  1  0  0  0  0
 48 70  1  0  0  0  0
 49 65  1  0  0  0  0
 50 64  1  0  0  0  0
 51 60  1  0  0  0  0
 52 62  1  0  0  0  0
 53 62  1  0  0  0  0
 54 62  1  0  0  0  0
 55 73  1  0  0  0  0
 56 72  1  0  0  0  0
 57 61  1  0  0  0  0
 57 69  1  0  0  0  0
 58 61  1  0  0  0  0
 58 81  1  0  0  0  0
 59 62  1  0  0  0  0
 59 71  1  0  0  0  0
 60 73  1  0  0  0  0
 61 79  1  0  0  0  0
 63 64  1  0  0  0  0
M  CHG  1  73   1
M  ISO  4  38 100  58 101  72 100  81 101
M  END
> <Batch ID>
0197

> <Smiles>
CNC(C)C(=O)NC(C(=O)N1Cc2cc([101O:1][101CH2:1]C(O)CNc3cccc(C[100NH:0][100C:0](=O)N4CCCC(n5nc(-c6ccc(Oc7ccc(F)cc7F)cc6)c(C(N)=O)c5N)C4)c3F)ccc2CC1C(=O)NC1CCCc2ccccc21)C(C)(C)C

> <Shape>
0.279

> <Color>
0.168

> <Negative vol penalty>
0.000

$$$$

  -OEChem-04052305413D

 82 90  0     1  0  0  0  0  0999 V2000
  -23.6129  -21.9901   15.5531 C   0  0  0  0  0  0  0  0  0  0  0  0
  -24.1752  -20.7309   15.3769 C   0  0  0  0  0  0  0  0  0  0  0  0
  -25.7483  -27.5901   20.5450 C   0  0  0  0  0  0  0  0  0  0  0  0
  -26.5467  -26.5411   22.5697 C   0  0  0  0  0  0  0  0  0  0  0  0
  -23.2495  -22.4145   16.8295 C   0  0  0  0  0  0  0  0  0  0  0  0
  -24.3635  -19.8910   16.4751 C   0  0  0  0  0  0  0  0  0  0  0  0
  -26.9976  -14.4105   16.8654 C   0  0  0  0  0  0  0  0  0  0  0  0
  -24.7042  -28.1763   21.2603 C   0  0  0  0  0  0  0  0  0  0  0  0
  -25.5025  -27.1274   23.2851 C   0  0  0  0  0  0  0  0  0  0  0  0
  -28.2658  -13.8947   17.1288 C   0  0  0  0  0  0  0  0  0  0  0  0
  -24.2765  -30.8151   23.3307 C   0  0  0  0  0  0  0  0  0  0  0  0
  -24.0061  -32.1631   23.0954 C   0  0  0  0  0  0  0  0  0  0  0  0
  -27.6440  -13.5600   19.4354 C   0  0  0  0  0  0  0  0  0  0  0  0
  -21.7685  -31.5905   22.3867 C   0  0  0  0  0  0  0  0  0  0  0  0
  -26.6696  -26.7725   21.1996 C   0  0  0  0  0  0  0  0  0  0  0  0
  -29.0297  -26.7025   20.2339 C   0  0  0  0  0  0  0  0  0  0  0  0
  -23.4452  -21.5837   17.9451 C   0  0  0  0  0  0  0  0  0  0  0  0
  -26.0451  -14.5152   17.8891 C   0  0  0  0  0  0  0  0  0  0  0  0
  -23.9812  -20.2919   17.7681 C   0  0  0  0  0  0  0  0  0  0  0  0
  -26.3636  -14.0751   19.1818 C   0  0  0  0  0  0  0  0  0  0  0  0
  -24.5813  -27.9449   22.6304 C   0  0  0  0  0  0  0  0  0  0  0  0
  -28.5901  -13.4720   18.4146 C   0  0  0  0  0  0  0  0  0  0  0  0
  -23.2929  -29.8548   23.0939 C   0  0  0  0  0  0  0  0  0  0  0  0
  -22.7521  -32.5508   22.6234 C   0  0  0  0  0  0  0  0  0  0  0  0
  -22.0389  -30.2425   22.6220 C   0  0  0  0  0  0  0  0  0  0  0  0
  -27.7480  -26.1662   20.4611 C   0  0  0  0  0  0  0  0  0  0  0  0
  -29.6739  -25.7474   19.4861 C   0  0  0  0  0  0  0  0  0  0  0  0
  -30.7895  -17.0226   21.8180 C   0  0  0  0  0  0  0  0  0  0  0  0
  -29.9105  -18.8594   21.0507 C   0  0  0  0  0  0  0  0  0  0  0  0
  -29.5879  -27.9523   20.6607 C   0  0  0  0  0  0  0  0  0  0  0  0
  -24.4838  -16.9191   19.2630 C   0  0  0  0  0  0  0  0  0  0  0  0
  -22.9202  -14.5196   20.7861 C   0  0  0  0  0  0  0  0  0  0  0  0
  -22.9307  -11.2830   21.8682 C   0  0  0  0  0  0  0  0  0  0  0  0
  -28.9713  -19.8397   18.9285 C   0  0  0  0  0  0  0  0  0  0  0  0
  -23.0267  -22.0903   19.3028 C   0  0  0  0  0  0  0  0  0  0  0  0
  -24.6727  -15.0491   17.5827 C   0  0  0  0  0  0  0  0  0  0  0  0
  -25.3700  -14.1475   20.3114 C   0  0  0  0  0  0  0  0  0  0  0  0
  -23.6687  -21.3169   20.4498 C   0  0  0  0  0  0  0  0  0  0  0  0
  -28.8113  -22.2587   16.3208 C   0  0  0  0  0  0  0  0  0  0  0  0
  -23.4990  -19.8214   20.2276 C   0  0  0  0  0  0  0  0  0  0  0  0
  -28.6432  -23.5847   17.0662 C   0  0  0  0  0  0  0  0  0  0  0  0
  -28.0555  -21.1224   17.0074 C   0  0  0  0  0  0  0  0  0  0  0  0
  -28.1874  -22.2765   19.1799 C   0  0  0  0  0  0  0  0  0  0  0  0
  -24.2236  -19.3732   18.9520 C   0  0  1  0  0  0  0  0  0  0  0  0
  -23.9520  -15.5871   18.8150 C   0  0  1  0  0  0  0  0  0  0  0  0
  -28.9838  -23.4374   18.5621 C   0  0  2  0  0  0  0  0  0  0  0  0
  -21.5272   -9.6186   23.1162 C   0  0  0  0  0  0  0  0  0  0  0  0
  -23.6389  -15.8893   23.4162 C   0  0  0  0  0  0  0  0  0  0  0  0
  -23.0702  -13.7582   24.6009 C   0  0  0  0  0  0  0  0  0  0  0  0
  -21.3125  -14.9767   23.3169 C   0  0  0  0  0  0  0  0  0  0  0  0
  -22.8010   -9.4679   19.5342 C   0  0  0  0  0  0  0  0  0  0  0  0
  -31.2786  -15.6078   21.7175 C   0  0  0  0  0  0  0  0  0  0  0  0
  -31.9928  -13.7735   20.1800 C   0  0  0  0  0  0  0  0  0  0  0  0
  -30.9087  -13.4631   17.8853 C   0  0  0  0  0  0  0  0  0  1  0  0
  -23.1335  -13.7476   22.0658 C   0  0  1  0  0  0  0  0  0  0  0  0
  -21.8959  -10.1784   21.7512 C   0  0  2  0  0  0  0  0  0  0  0  0
  -32.1888  -13.4028   18.7125 C   0  0  1  0  0  0  0  0  0  0  0  0
  -22.8084  -14.5933   23.3293 C   0  0  0  0  0  0  0  0  0  0  0  0
  -27.5858  -24.9638   19.9027 N   0  0  0  0  0  0  0  0  0  0  0  0
  -30.2584  -17.6411   20.6989 N   0  0  0  0  0  0  0  0  0  0  0  0
  -30.8699  -17.6685   22.9812 N   0  0  0  0  0  0  0  0  0  0  0  0
  -28.7739  -24.7366   19.3171 N   0  0  0  0  0  0  0  0  0  0  0  0
  -24.0435  -14.6828   19.9631 N   0  0  0  0  0  0  0  0  0  0  0  0
  -28.4320  -21.0404   18.4203 N   0  0  0  0  0  0  0  0  0  0  0  0
  -30.9167  -25.6820   18.9630 N   0  0  0  0  0  0  0  0  0  0  0  0
  -28.7887  -28.8157   21.4223 N   0  0  0  0  0  0  0  0  0  0  0  0
  -29.3223  -19.8907   20.2772 N   0  0  0  0  0  0  0  0  0  0  0  0
  -23.8675  -18.0012   18.6642 N   0  0  0  0  0  0  0  0  0  0  0  0
  -22.3425  -12.5279   21.9433 N   0  0  0  0  0  0  0  0  0  0  0  0
  -22.4206   -9.0640   20.9123 N   0  3  0  0  0  0  0  0  0  0  0  0
  -31.4523  -15.1494   20.3125 N   0  3  0  0  0  0  0  0  0  0  0  0
  -30.7553  -28.3004   20.3613 O   0  0  0  0  0  0  0  0  0  0  0  0
  -25.3855  -16.9619   20.0918 O   0  0  0  0  0  0  0  0  0  0  0  0
  -21.7966  -14.9555   20.5230 O   0  0  0  0  0  0  0  0  0  0  0  0
  -24.1396  -11.0632   21.8945 O   0  0  0  0  0  0  0  0  0  0  0  0
  -29.1368  -18.8485   18.2129 O   0  0  0  0  0  0  0  0  0  0  0  0
  -33.1497  -14.2800   18.1228 O   0  0  0  0  0  0  0  0  0  0  0  0
  -23.5627  -28.5170   23.3288 O   0  0  0  0  0  0  0  0  0  0  0  0
  -29.8275  -12.9688   18.6746 O   0  0  0  0  0  0  0  0  0  1  0  0
  -22.4920  -33.8455   22.3990 F   0  0  0  0  0  0  0  0  0  0  0  0
  -21.0896  -29.3246   22.3938 F   0  0  0  0  0  0  0  0  0  0  0  0
  -30.2385  -19.1929   22.7017 S   0  0  0  0  0  0  0  0  0  0  0  0
  1  2  1  0  0  0  0
  1  5  2  0  0  0  0
  2  6  2  0  0  0  0
  3  8  2  0  0  0  0
  3 15  1  0  0  0  0
  4  9  1  0  0  0  0
  4 15  2  0  0  0  0
  5 17  1  0  0  0  0
  6 19  1  0  0  0  0
  7 10  2  0  0  0  0
  7 18  1  0  0  0  0
  8 21  1  0  0  0  0
  9 21  2  0  0  0  0
 10 22  1  0  0  0  0
 11 12  2  0  0  0  0
 11 23  1  0  0  0  0
 12 24  1  0  0  0  0
 13 20  1  0  0  0  0
 13 22  2  0  0  0  0
 14 24  2  0  0  0  0
 14 25  1  0  0  0  0
 15 26  1  0  0  0  0
 16 26  1  0  0  0  0
 16 27  2  0  0  0  0
 16 30  1  0  0  0  0
 17 19  2  0  0  0  0
 17 35  1  0  0  0  0
 18 20  2  0  0  0  0
 18 36  1  0  0  0  0
 19 44  1  0  0  0  0
 20 37  1  0  0  0  0
 21 78  1  0  0  0  0
 22 79  1  0  0  0  0
 23 25  2  0  0  0  0
 23 78  1  0  0  0  0
 24 80  1  0  0  0  0
 25 81  1  0  0  0  0
 26 59  2  0  0  0  0
 27 62  1  0  0  0  0
 27 65  1  0  0  0  0
 28 52  1  0  0  0  0
 28 60  1  0  0  0  0
 28 61  2  0  0  0  0
 29 60  2  0  0  0  0
 29 67  1  0  0  0  0
 29 82  1  0  0  0  0
 30 66  1  0  0  0  0
 30 72  2  0  0  0  0
 31 45  1  0  0  0  0
 31 68  1  0  0  0  0
 31 73  2  0  0  0  0
 32 55  1  0  0  0  0
 32 63  1  0  0  0  0
 32 74  2  0  0  0  0
 33 56  1  0  0  0  0
 33 69  1  0  0  0  0
 33 75  2  0  0  0  0
 34 64  1  0  0  0  0
 34 67  1  0  0  0  0
 34 76  2  0  0  0  0
 35 38  1  0  0  0  0
 36 45  1  0  0  0  0
 37 63  1  0  0  0  0
 38 40  1  0  0  0  0
 39 41  1  0  0  0  0
 39 42  1  0  0  0  0
 40 44  1  0  0  0  0
 41 46  1  0  0  0  0
 42 64  1  0  0  0  0
 43 46  1  0  0  0  0
 43 64  1  0  0  0  0
 44 68  1  0  0  0  0
 45 63  1  0  0  0  0
 46 62  1  0  0  0  0
 47 56  1  0  0  0  0
 48 58  1  0  0  0  0
 49 58  1  0  0  0  0
 50 58  1  0  0  0  0
 51 70  1  0  0  0  0
 52 71  1  0  0  0  0
 53 57  1  0  0  0  0
 53 71  1  0  0  0  0
 54 57  1  0  0  0  0
 54 79  1  0  0  0  0
 55 58  1  0  0  0  0
 55 69  1  0  0  0  0
 56 70  1  0  0  0  0
 57 77  1  0  0  0  0
 59 62  1  0  0  0  0
 61 82  1  0  0  0  0
M  CHG  2  70   1  71   1
M  ISO  4  34 100  54 101  67 100  79 101
M  END
> <Batch ID>
0197

> <Smiles>
CNC(C)C(=O)NC(C(=O)N1Cc2cc([101O:1][101CH2:1]C(O)CNCc3nsc([100NH:0][100C:0](=O)N4CCCC(n5nc(-c6ccc(Oc7ccc(F)cc7F)cc6)c(C(N)=O)c5N)C4)n3)ccc2CC1C(=O)NC1CCCc2ccccc21)C(C)(C)C

> <Shape>
0.246

> <Color>
0.066

> <Negative vol penalty>
0.000

$$$$

  -OEChem-04052305413D

 83 91  0     1  0  0  0  0  0999 V2000
  -25.3062  -21.2125   21.4075 C   0  0  0  0  0  0  0  0  0  0  0  0
  -26.5799  -20.8722   21.8515 C   0  0  0  0  0  0  0  0  0  0  0  0
  -22.9989   -9.8926   19.9823 C   0  0  0  0  0  0  0  0  0  0  0  0
  -23.7242   -9.9463   22.2862 C   0  0  0  0  0  0  0  0  0  0  0  0
  -24.7092  -22.3940   21.8451 C   0  0  0  0  0  0  0  0  0  0  0  0
  -27.2579  -21.7139   22.7326 C   0  0  0  0  0  0  0  0  0  0  0  0
  -29.4650  -19.1850   26.5246 C   0  0  0  0  0  0  0  0  0  0  0  0
  -22.2326   -8.7584   20.2499 C   0  0  0  0  0  0  0  0  0  0  0  0
  -22.9578   -8.8120   22.5539 C   0  0  0  0  0  0  0  0  0  0  0  0
  -30.6623  -18.5295   26.2408 C   0  0  0  0  0  0  0  0  0  0  0  0
  -21.4768   -5.7201   23.7608 C   0  0  0  0  0  0  0  0  0  0  0  0
  -22.0630   -4.7052   24.5171 C   0  0  0  0  0  0  0  0  0  0  0  0
  -31.8893  -20.3531   27.2349 C   0  0  0  0  0  0  0  0  0  0  0  0
  -23.7893   -4.4564   22.8453 C   0  0  0  0  0  0  0  0  0  0  0  0
  -23.7448  -10.4866   21.0004 C   0  0  0  0  0  0  0  0  0  0  0  0
  -24.1298  -13.0021   20.8216 C   0  0  0  0  0  0  0  0  0  0  0  0
  -25.3763  -23.2458   22.7396 C   0  0  0  0  0  0  0  0  0  0  0  0
  -29.4713  -20.4367   27.1569 C   0  0  0  0  0  0  0  0  0  0  0  0
  -26.6698  -22.9086   23.1816 C   0  0  0  0  0  0  0  0  0  0  0  0
  -30.6906  -21.0213   27.5278 C   0  0  0  0  0  0  0  0  0  0  0  0
  -22.2120   -8.2180   21.5357 C   0  0  0  0  0  0  0  0  0  0  0  0
  -31.8748  -19.1149   26.5934 C   0  0  0  0  0  0  0  0  0  0  0  0
  -22.0468   -6.1031   22.5466 C   0  0  0  0  0  0  0  0  0  0  0  0
  -23.2192   -4.0734   24.0594 C   0  0  0  0  0  0  0  0  0  0  0  0
  -23.2030   -5.4713   22.0889 C   0  0  0  0  0  0  0  0  0  0  0  0
  -24.5371  -11.6580   20.7245 C   0  0  0  0  0  0  0  0  0  0  0  0
  -25.2394  -13.7244   20.4563 C   0  0  0  0  0  0  0  0  0  0  0  0
  -32.1188  -18.4393   21.9577 C   0  0  0  0  0  0  0  0  0  0  0  0
  -30.5810  -16.9014   21.8815 C   0  0  0  0  0  0  0  0  0  0  0  0
  -22.8617  -13.5487   21.2076 C   0  0  0  0  0  0  0  0  0  0  0  0
  -28.4942  -23.3555   26.3635 C   0  0  0  0  0  0  0  0  0  0  0  0
  -29.3069  -24.0379   29.4288 C   0  0  0  0  0  0  0  0  0  0  0  0
  -31.1683  -23.2463   32.1775 C   0  0  0  0  0  0  0  0  0  0  0  0
  -30.7187  -14.6866   20.6889 C   0  0  0  0  0  0  0  0  0  0  0  0
  -24.7097  -24.5357   23.1476 C   0  0  0  0  0  0  0  0  0  0  0  0
  -28.1701  -21.1185   27.4800 C   0  0  0  0  0  0  0  0  0  0  0  0
  -30.7508  -22.3541   28.2267 C   0  0  0  0  0  0  0  0  0  0  0  0
  -25.3431  -25.1872   24.3743 C   0  0  0  0  0  0  0  0  0  0  0  0
  -29.6008  -12.2308   18.3660 C   0  0  0  0  0  0  0  0  0  0  0  0
  -26.8627  -25.2065   24.2436 C   0  0  0  0  0  0  0  0  0  0  0  0
  -28.1502  -11.9734   18.7805 C   0  0  0  0  0  0  0  0  0  0  0  0
  -30.5013  -12.4758   19.5754 C   0  0  0  0  0  0  0  0  0  0  0  0
  -28.5858  -13.2659   20.9080 C   0  0  0  0  0  0  0  0  0  0  0  0
  -27.4272  -23.7834   24.1569 C   0  0  1  0  0  0  0  0  0  0  0  0
  -28.3151  -22.6259   27.6647 C   0  0  1  0  0  0  0  0  0  0  0  0
  -27.6282  -13.0780   19.7201 C   0  0  2  0  0  0  0  0  0  0  0  0
  -33.1638  -20.5781   21.1057 C   0  0  0  0  0  0  0  0  0  0  0  0
  -31.6467  -24.0104   34.5194 C   0  0  0  0  0  0  0  0  0  0  0  0
  -35.4279  -17.4015   22.8946 C   0  0  0  0  0  0  0  0  0  0  0  0
  -31.0364  -26.3009   28.3346 C   0  0  0  0  0  0  0  0  0  0  0  0
  -32.1915  -26.3975   30.5538 C   0  0  0  0  0  0  0  0  0  0  0  0
  -29.7484  -26.8771   30.3994 C   0  0  0  0  0  0  0  0  0  0  0  0
  -30.1821  -20.7058   33.3316 C   0  0  0  0  0  0  0  0  0  0  0  0
  -35.1225  -18.5567   25.1201 C   0  0  0  0  0  0  0  0  0  0  0  0
  -34.1880  -19.2957   26.0715 C   0  0  0  0  0  0  0  0  0  1  0  0
  -33.3970  -19.2232   21.7693 C   0  0  1  0  0  0  0  0  0  0  0  0
  -30.5647  -24.5002   30.1238 C   0  0  1  0  0  0  0  0  0  0  0  0
  -30.7936  -23.1076   33.6420 C   0  0  2  0  0  0  0  0  0  0  0  0
  -34.4814  -18.2055   23.7761 C   0  0  1  0  0  0  0  0  0  0  0  0
  -30.8845  -25.9947   29.8380 C   0  0  0  0  0  0  0  0  0  0  0  0
  -25.8064  -11.5312   20.3284 N   0  0  0  0  0  0  0  0  0  0  0  0
  -31.8570  -17.2467   21.4694 N   0  0  0  0  0  0  0  0  0  0  0  0
  -29.8596  -17.7305   22.6355 N   0  0  0  0  0  0  0  0  0  0  0  0
  -26.2062  -12.8049   20.1733 N   0  0  0  0  0  0  0  0  0  0  0  0
  -29.4519  -22.9843   28.5152 N   0  0  0  0  0  0  0  0  0  0  0  0
  -29.9461  -13.5376   20.4175 N   0  0  0  0  0  0  0  0  0  0  0  0
  -25.4727  -15.0500   20.3528 N   0  0  0  0  0  0  0  0  0  0  0  0
  -21.8301  -12.6648   21.5521 N   0  0  0  0  0  0  0  0  0  0  0  0
  -30.0743  -15.6426   21.4733 N   0  0  0  0  0  0  0  0  0  0  0  0
  -27.4582  -23.1712   25.4679 N   0  0  0  0  0  0  0  0  0  0  0  0
  -30.3888  -24.1866   31.5377 N   0  0  0  0  0  0  0  0  0  0  0  0
  -30.9812  -21.6998   34.0935 N   0  3  0  0  0  0  0  0  0  0  0  0
  -34.1222  -19.4529   23.0457 N   0  3  0  0  0  0  0  0  0  0  0  0
  -22.6449  -14.7840   21.2299 O   0  0  0  0  0  0  0  0  0  0  0  0
  -29.4974  -24.0365   26.1858 O   0  0  0  0  0  0  0  0  0  0  0  0
  -28.2339  -24.5865   29.6923 O   0  0  0  0  0  0  0  0  0  0  0  0
  -32.0656  -22.5891   31.6544 O   0  0  0  0  0  0  0  0  0  0  0  0
  -31.8573  -14.8252   20.2347 O   0  0  0  0  0  0  0  0  0  0  0  0
  -21.4641   -7.1113   21.7973 O   0  0  0  0  0  0  0  0  0  0  0  0
  -33.0450  -18.4775   26.3170 O   0  0  0  0  0  0  0  0  0  1  0  0
  -23.7829   -3.0999   24.7865 F   0  0  0  0  0  0  0  0  0  0  0  0
  -23.7559   -5.8357   20.9238 F   0  0  0  0  0  0  0  0  0  0  0  0
  -30.8210  -19.0781   22.8809 S   0  0  0  0  0  0  0  0  0  0  0  0
  1  2  1  0  0  0  0
  1  5  2  0  0  0  0
  2  6  2  0  0  0  0
  3  8  2  0  0  0  0
  3 15  1  0  0  0  0
  4  9  1  0  0  0  0
  4 15  2  0  0  0  0
  5 17  1  0  0  0  0
  6 19  1  0  0  0  0
  7 10  2  0  0  0  0
  7 18  1  0  0  0  0
  8 21  1  0  0  0  0
  9 21  2  0  0  0  0
 10 22  1  0  0  0  0
 11 12  2  0  0  0  0
 11 23  1  0  0  0  0
 12 24  1  0  0  0  0
 13 20  1  0  0  0  0
 13 22  2  0  0  0  0
 14 24  2  0  0  0  0
 14 25  1  0  0  0  0
 15 26  1  0  0  0  0
 16 26  1  0  0  0  0
 16 27  2  0  0  0  0
 16 30  1  0  0  0  0
 17 19  2  0  0  0  0
 17 35  1  0  0  0  0
 18 20  2  0  0  0  0
 18 36  1  0  0  0  0
 19 44  1  0  0  0  0
 20 37  1  0  0  0  0
 21 79  1  0  0  0  0
 22 80  1  0  0  0  0
 23 25  2  0  0  0  0
 23 79  1  0  0  0  0
 24 81  1  0  0  0  0
 25 82  1  0  0  0  0
 26 61  2  0  0  0  0
 27 64  1  0  0  0  0
 27 67  1  0  0  0  0
 28 56  1  0  0  0  0
 28 62  2  0  0  0  0
 28 83  1  0  0  0  0
 29 62  1  0  0  0  0
 29 63  2  0  0  0  0
 29 69  1  0  0  0  0
 30 68  1  0  0  0  0
 30 74  2  0  0  0  0
 31 45  1  0  0  0  0
 31 70  1  0  0  0  0
 31 75  2  0  0  0  0
 32 57  1  0  0  0  0
 32 65  1  0  0  0  0
 32 76  2  0  0  0  0
 33 58  1  0  0  0  0
 33 71  1  0  0  0  0
 33 77  2  0  0  0  0
 34 66  1  0  0  0  0
 34 69  1  0  0  0  0
 34 78  2  0  0  0  0
 35 38  1  0  0  0  0
 36 45  1  0  0  0  0
 37 65  1  0  0  0  0
 38 40  1  0  0  0  0
 39 41  1  0  0  0  0
 39 42  1  0  0  0  0
 40 44  1  0  0  0  0
 41 46  1  0  0  0  0
 42 66  1  0  0  0  0
 43 46  1  0  0  0  0
 43 66  1  0  0  0  0
 44 70  1  0  0  0  0
 45 65  1  0  0  0  0
 46 64  1  0  0  0  0
 47 56  1  0  0  0  0
 48 58  1  0  0  0  0
 49 59  1  0  0  0  0
 50 60  1  0  0  0  0
 51 60  1  0  0  0  0
 52 60  1  0  0  0  0
 53 72  1  0  0  0  0
 54 55  1  0  0  0  0
 54 59  1  0  0  0  0
 55 80  1  0  0  0  0
 56 73  1  0  0  0  0
 57 60  1  0  0  0  0
 57 71  1  0  0  0  0
 58 72  1  0  0  0  0
 59 73  1  0  0  0  0
 61 64  1  0  0  0  0
 63 83  1  0  0  0  0
M  CHG  2  72   1  73   1
M  ISO  4  34 100  55 101  69 100  80 101
M  END
> <Batch ID>
0197

> <Smiles>
CNC(C)C(=O)NC(C(=O)N1Cc2cc([101O:1][101CH2:1]CC(C)NC(C)c3nc([100NH:0][100C:0](=O)N4CCCC(n5nc(-c6ccc(Oc7ccc(F)cc7F)cc6)c(C(N)=O)c5N)C4)ns3)ccc2CC1C(=O)NC1CCCc2ccccc21)C(C)(C)C

> <Shape>
0.175

> <Color>
0.190

> <Negative vol penalty>
0.000

$$$$

  -OEChem-04052305413D

 83 91  0     1  0  0  0  0  0999 V2000
  -22.6917  -23.6869   19.2275 C   0  0  0  0  0  0  0  0  0  0  0  0
  -23.8544  -23.0084   19.5786 C   0  0  0  0  0  0  0  0  0  0  0  0
  -19.9754  -29.0169   21.6101 C   0  0  0  0  0  0  0  0  0  0  0  0
  -20.7204  -27.6717   23.4736 C   0  0  0  0  0  0  0  0  0  0  0  0
  -21.4478  -23.1642   19.5790 C   0  0  0  0  0  0  0  0  0  0  0  0
  -23.7739  -21.8073   20.2824 C   0  0  0  0  0  0  0  0  0  0  0  0
  -26.8687  -18.2557   18.4241 C   0  0  0  0  0  0  0  0  0  0  0  0
  -18.6519  -28.6853   21.8999 C   0  0  0  0  0  0  0  0  0  0  0  0
  -19.3968  -27.3401   23.7634 C   0  0  0  0  0  0  0  0  0  0  0  0
  -28.2194  -18.3513   18.7559 C   0  0  0  0  0  0  0  0  0  0  0  0
  -15.0525  -28.4832   22.3681 C   0  0  0  0  0  0  0  0  0  0  0  0
  -14.1086  -29.5099   22.3531 C   0  0  0  0  0  0  0  0  0  0  0  0
  -27.9141  -16.6693   20.4580 C   0  0  0  0  0  0  0  0  0  0  0  0
  -15.3284  -30.6568   24.0950 C   0  0  0  0  0  0  0  0  0  0  0  0
  -29.1768  -22.5748   23.6327 C   0  0  0  0  0  0  0  0  0  0  0  0
  -21.0096  -28.5100   22.3969 C   0  0  0  0  0  0  0  0  0  0  0  0
  -23.1082  -29.9466   22.5961 C   0  0  0  0  0  0  0  0  0  0  0  0
  -21.3517  -21.9512   20.2791 C   0  0  0  0  0  0  0  0  0  0  0  0
  -26.0267  -17.3726   19.1153 C   0  0  0  0  0  0  0  0  0  0  0  0
  -22.5276  -21.2686   20.6448 C   0  0  0  0  0  0  0  0  0  0  0  0
  -26.5536  -16.5626   20.1313 C   0  0  0  0  0  0  0  0  0  0  0  0
  -18.3626  -27.8469   22.9765 C   0  0  0  0  0  0  0  0  0  0  0  0
  -28.7418  -17.5601   19.7749 C   0  0  0  0  0  0  0  0  0  0  0  0
  -16.1344  -28.5431   23.2466 C   0  0  0  0  0  0  0  0  0  0  0  0
  -14.2465  -30.5968   23.2165 C   0  0  0  0  0  0  0  0  0  0  0  0
  -16.2724  -29.6300   24.1099 C   0  0  0  0  0  0  0  0  0  0  0  0
  -22.3771  -28.8517   22.0978 C   0  0  0  0  0  0  0  0  0  0  0  0
  -29.8177  -22.5257   22.4124 C   0  0  0  0  0  0  0  0  0  0  0  0
  -24.3467  -29.8256   22.0147 C   0  0  0  0  0  0  0  0  0  0  0  0
  -28.1931  -23.8982   21.8766 C   0  0  0  0  0  0  0  0  0  0  0  0
  -22.7041  -30.9805   23.5035 C   0  0  0  0  0  0  0  0  0  0  0  0
  -23.4408  -17.7000   20.9345 C   0  0  0  0  0  0  0  0  0  0  0  0
  -23.4393  -14.4576   20.8375 C   0  0  0  0  0  0  0  0  0  0  0  0
  -25.2074  -11.5714   20.4015 C   0  0  0  0  0  0  0  0  0  0  0  0
  -27.4030  -25.1695   19.8503 C   0  0  0  0  0  0  0  0  0  0  0  0
  -19.9866  -21.4497   20.6784 C   0  0  0  0  0  0  0  0  0  0  0  0
  -24.5777  -17.2621   18.7273 C   0  0  0  0  0  0  0  0  0  0  0  0
  -25.6963  -15.5840   20.8901 C   0  0  0  0  0  0  0  0  0  0  0  0
  -19.9753  -19.9816   21.0967 C   0  0  0  0  0  0  0  0  0  0  0  0
  -26.4883  -28.1228   18.0844 C   0  0  0  0  0  0  0  0  0  0  0  0
  -21.1254  -19.6910   22.0557 C   0  0  0  0  0  0  0  0  0  0  0  0
  -25.4011  -28.7476   18.9616 C   0  0  0  0  0  0  0  0  0  0  0  0
  -26.4050  -26.5974   18.0783 C   0  0  0  0  0  0  0  0  0  0  0  0
  -25.3069  -26.5958   20.2836 C   0  0  0  0  0  0  0  0  0  0  0  0
  -22.4806  -19.9504   21.3866 C   0  0  1  0  0  0  0  0  0  0  0  0
  -23.7016  -16.7008   19.8431 C   0  0  1  0  0  0  0  0  0  0  0  0
  -25.3906  -28.1283   20.3729 C   0  0  2  0  0  0  0  0  0  0  0  0
  -24.9408   -9.0762   20.4193 C   0  0  0  0  0  0  0  0  0  0  0  0
  -32.4514  -22.9911   20.7262 C   0  0  0  0  0  0  0  0  0  0  0  0
  -23.3525  -14.4911   23.8873 C   0  0  0  0  0  0  0  0  0  0  0  0
  -24.0395  -12.0836   23.8638 C   0  0  0  0  0  0  0  0  0  0  0  0
  -21.8810  -12.7732   22.8205 C   0  0  0  0  0  0  0  0  0  0  0  0
  -26.0353  -11.3465   17.5690 C   0  0  0  0  0  0  0  0  0  0  0  0
  -32.5280  -20.4752   20.8287 C   0  0  0  0  0  0  0  0  0  0  0  0
  -30.6918  -18.9156   19.9014 C   0  0  0  0  0  0  0  0  0  1  0  0
  -24.0559  -13.3627   21.6741 C   0  0  1  0  0  0  0  0  0  0  0  0
  -24.9276  -10.3351   19.5662 C   0  0  2  0  0  0  0  0  0  0  0  0
  -31.6301  -21.7169   20.9004 C   0  0  1  0  0  0  0  0  0  0  0  0
  -31.7845  -19.1345   20.9452 C   0  0  1  0  0  0  0  0  0  0  0  0
  -23.3482  -13.1974   23.0486 C   0  0  0  0  0  0  0  0  0  0  0  0
  -23.0914  -28.0913   21.2639 N   0  0  0  0  0  0  0  0  0  0  0  0
  -29.2549  -23.2836   21.4042 N   0  0  0  0  0  0  0  0  0  0  0  0
  -24.2844  -28.7093   21.2336 N   0  0  0  0  0  0  0  0  0  0  0  0
  -24.2844  -15.5171   20.4781 N   0  0  0  0  0  0  0  0  0  0  0  0
  -26.4041  -26.0815   19.4490 N   0  0  0  0  0  0  0  0  0  0  0  0
  -25.4720  -30.5664   22.1005 N   0  0  0  0  0  0  0  0  0  0  0  0
  -21.3962  -30.9544   24.0065 N   0  0  0  0  0  0  0  0  0  0  0  0
  -30.9550  -21.7729   22.1797 N   0  0  0  0  0  0  0  0  0  0  0  0
  -27.3197  -24.7736   21.1849 N   0  0  0  0  0  0  0  0  0  0  0  0
  -22.8245  -18.8584   20.5013 N   0  0  0  0  0  0  0  0  0  0  0  0
  -24.0433  -12.1609   20.8471 N   0  0  0  0  0  0  0  0  0  0  0  0
  -25.9552  -10.1890   18.4968 N   0  3  0  0  0  0  0  0  0  0  0  0
  -23.4747  -31.9096   23.8449 O   0  0  0  0  0  0  0  0  0  0  0  0
  -23.7728  -17.4387   22.0848 O   0  0  0  0  0  0  0  0  0  0  0  0
  -22.2535  -14.3724   20.5087 O   0  0  0  0  0  0  0  0  0  0  0  0
  -26.3450  -11.9717   20.6384 O   0  0  0  0  0  0  0  0  0  0  0  0
  -28.2847  -24.7901   19.0753 O   0  0  0  0  0  0  0  0  0  0  0  0
  -32.7388  -18.0791   20.7989 O   0  0  0  0  0  0  0  0  0  0  0  0
  -17.0712  -27.5233   23.2597 O   0  0  0  0  0  0  0  0  0  0  0  0
  -30.0597  -17.6519   20.1012 O   0  0  0  0  0  0  0  0  0  1  0  0
  -13.3408  -31.5834   23.2010 F   0  0  0  0  0  0  0  0  0  0  0  0
  -17.3102  -29.6937   24.9553 F   0  0  0  0  0  0  0  0  0  0  0  0
  -27.8139  -23.6104   23.5254 S   0  0  0  0  0  0  0  0  0  0  0  0
  1  2  1  0  0  0  0
  1  5  2  0  0  0  0
  2  6  2  0  0  0  0
  3  8  2  0  0  0  0
  3 16  1  0  0  0  0
  4  9  1  0  0  0  0
  4 16  2  0  0  0  0
  5 18  1  0  0  0  0
  6 20  1  0  0  0  0
  7 10  2  0  0  0  0
  7 19  1  0  0  0  0
  8 22  1  0  0  0  0
  9 22  2  0  0  0  0
 10 23  1  0  0  0  0
 11 12  2  0  0  0  0
 11 24  1  0  0  0  0
 12 25  1  0  0  0  0
 13 21  1  0  0  0  0
 13 23  2  0  0  0  0
 14 25  2  0  0  0  0
 14 26  1  0  0  0  0
 15 28  2  0  0  0  0
 15 83  1  0  0  0  0
 16 27  1  0  0  0  0
 17 27  1  0  0  0  0
 17 29  2  0  0  0  0
 17 31  1  0  0  0  0
 18 20  2  0  0  0  0
 18 36  1  0  0  0  0
 19 21  2  0  0  0  0
 19 37  1  0  0  0  0
 20 45  1  0  0  0  0
 21 38  1  0  0  0  0
 22 79  1  0  0  0  0
 23 80  1  0  0  0  0
 24 26  2  0  0  0  0
 24 79  1  0  0  0  0
 25 81  1  0  0  0  0
 26 82  1  0  0  0  0
 27 61  2  0  0  0  0
 28 62  1  0  0  0  0
 28 68  1  0  0  0  0
 29 63  1  0  0  0  0
 29 66  1  0  0  0  0
 30 62  2  0  0  0  0
 30 69  1  0  0  0  0
 30 83  1  0  0  0  0
 31 67  1  0  0  0  0
 31 73  2  0  0  0  0
 32 46  1  0  0  0  0
 32 70  1  0  0  0  0
 32 74  2  0  0  0  0
 33 56  1  0  0  0  0
 33 64  1  0  0  0  0
 33 75  2  0  0  0  0
 34 57  1  0  0  0  0
 34 71  1  0  0  0  0
 34 76  2  0  0  0  0
 35 65  1  0  0  0  0
 35 69  1  0  0  0  0
 35 77  2  0  0  0  0
 36 39  1  0  0  0  0
 37 46  1  0  0  0  0
 38 64  1  0  0  0  0
 39 41  1  0  0  0  0
 40 42  1  0  0  0  0
 40 43  1  0  0  0  0
 41 45  1  0  0  0  0
 42 47  1  0  0  0  0
 43 65  1  0  0  0  0
 44 47  1  0  0  0  0
 44 65  1  0  0  0  0
 45 70  1  0  0  0  0
 46 64  1  0  0  0  0
 47 63  1  0  0  0  0
 48 57  1  0  0  0  0
 49 58  1  0  0  0  0
 50 60  1  0  0  0  0
 51 60  1  0  0  0  0
 52 60  1  0  0  0  0
 53 72  1  0  0  0  0
 54 58  1  0  0  0  0
 54 59  1  0  0  0  0
 55 59  1  0  0  0  0
 55 80  1  0  0  0  0
 56 60  1  0  0  0  0
 56 71  1  0  0  0  0
 57 72  1  0  0  0  0
 58 68  1  0  0  0  0
 59 78  1  0  0  0  0
 61 63  1  0  0  0  0
M  CHG  1  72   1
M  ISO  4  35 100  55 101  69 100  80 101
M  END
> <Batch ID>
0197

> <Smiles>
CNC(C)C(=O)NC(C(=O)N1Cc2cc([101O:1][101CH2:1]C(O)CC(C)Nc3csc([100NH:0][100C:0](=O)N4CCCC(n5nc(-c6ccc(Oc7ccc(F)cc7F)cc6)c(C(N)=O)c5N)C4)n3)ccc2CC1C(=O)NC1CCCc2ccccc21)C(C)(C)C

> <Shape>
0.209

> <Color>
0.084

> <Negative vol penalty>
0.000

$$$$

  -OEChem-04052305413D

 83 91  0     1  0  0  0  0  0999 V2000
  -29.8721  -27.8557   31.3975 C   0  0  0  0  0  0  0  0  0  0  0  0
  -30.4479  -26.5895   31.4183 C   0  0  0  0  0  0  0  0  0  0  0  0
  -23.1906   -9.8196   19.9319 C   0  0  0  0  0  0  0  0  0  0  0  0
  -23.5706   -9.9993   22.3110 C   0  0  0  0  0  0  0  0  0  0  0  0
  -28.4923  -27.9905   31.2488 C   0  0  0  0  0  0  0  0  0  0  0  0
  -29.6440  -25.4571   31.2916 C   0  0  0  0  0  0  0  0  0  0  0  0
  -31.5757  -22.0532   28.0780 C   0  0  0  0  0  0  0  0  0  0  0  0
  -22.4248   -8.6727   20.1408 C   0  0  0  0  0  0  0  0  0  0  0  0
  -22.8047   -8.8524   22.5200 C   0  0  0  0  0  0  0  0  0  0  0  0
  -32.6164  -21.2531   28.5477 C   0  0  0  0  0  0  0  0  0  0  0  0
  -23.2066   -5.5059   22.2545 C   0  0  0  0  0  0  0  0  0  0  0  0
  -23.7059   -4.5444   23.1330 C   0  0  0  0  0  0  0  0  0  0  0  0
  -31.0535  -19.4560   28.9312 C   0  0  0  0  0  0  0  0  0  0  0  0
  -21.7502   -4.8034   24.5279 C   0  0  0  0  0  0  0  0  0  0  0  0
  -33.2649  -13.6740   25.1119 C   0  0  0  0  0  0  0  0  0  0  0  0
  -30.6813  -13.0233   25.2821 C   0  0  0  0  0  0  0  0  0  0  0  0
  -23.7635  -10.4829   21.0170 C   0  0  0  0  0  0  0  0  0  0  0  0
  -24.1014  -12.9998   20.7739 C   0  0  0  0  0  0  0  0  0  0  0  0
  -27.6723  -26.8595   31.1105 C   0  0  0  0  0  0  0  0  0  0  0  0
  -30.2622  -21.5636   28.0415 C   0  0  0  0  0  0  0  0  0  0  0  0
  -28.2519  -25.5768   31.1422 C   0  0  0  0  0  0  0  0  0  0  0  0
  -29.9984  -20.2510   28.4582 C   0  0  0  0  0  0  0  0  0  0  0  0
  -22.2318   -8.1890   21.4348 C   0  0  0  0  0  0  0  0  0  0  0  0
  -32.3549  -19.9552   28.9771 C   0  0  0  0  0  0  0  0  0  0  0  0
  -21.9791   -6.1162   22.5126 C   0  0  0  0  0  0  0  0  0  0  0  0
  -22.9777   -4.1931   24.2697 C   0  0  0  0  0  0  0  0  0  0  0  0
  -21.2509   -5.7649   23.6493 C   0  0  0  0  0  0  0  0  0  0  0  0
  -24.5552  -11.6674   20.8018 C   0  0  0  0  0  0  0  0  0  0  0  0
  -32.6246  -13.6186   26.3303 C   0  0  0  0  0  0  0  0  0  0  0  0
  -31.3213  -13.0793   24.0636 C   0  0  0  0  0  0  0  0  0  0  0  0
  -25.2322  -13.7428   20.5380 C   0  0  0  0  0  0  0  0  0  0  0  0
  -22.7761  -13.5192   20.9458 C   0  0  0  0  0  0  0  0  0  0  0  0
  -27.5225  -22.3860   29.4276 C   0  0  0  0  0  0  0  0  0  0  0  0
  -26.3023  -20.0903   27.4877 C   0  0  0  0  0  0  0  0  0  0  0  0
  -26.8328  -17.2526   25.6677 C   0  0  0  0  0  0  0  0  0  0  0  0
  -31.0376  -12.7835   21.5780 C   0  0  0  0  0  0  0  0  0  0  0  0
  -26.1807  -27.0536   30.9997 C   0  0  0  0  0  0  0  0  0  0  0  0
  -29.1551  -22.4302   27.5070 C   0  0  0  0  0  0  0  0  0  0  0  0
  -28.6089  -19.6711   28.4201 C   0  0  0  0  0  0  0  0  0  0  0  0
  -25.4414  -25.8169   30.4955 C   0  0  0  0  0  0  0  0  0  0  0  0
  -29.5227  -13.4657   18.4289 C   0  0  0  0  0  0  0  0  0  0  0  0
  -25.9228  -24.5703   31.2310 C   0  0  0  0  0  0  0  0  0  0  0  0
  -28.0349  -13.2091   18.6791 C   0  0  0  0  0  0  0  0  0  0  0  0
  -30.4047  -12.4807   19.1941 C   0  0  0  0  0  0  0  0  0  0  0  0
  -28.6462  -12.1382   20.8851 C   0  0  0  0  0  0  0  0  0  0  0  0
  -27.4161  -24.3254   30.9828 C   0  0  1  0  0  0  0  0  0  0  0  0
  -27.7741  -22.0047   27.9962 C   0  0  1  0  0  0  0  0  0  0  0  0
  -27.7195  -13.1466   20.1865 C   0  0  2  0  0  0  0  0  0  0  0  0
  -25.6359  -15.5874   24.2213 C   0  0  0  0  0  0  0  0  0  0  0  0
  -36.0460  -15.0875   28.8176 C   0  0  0  0  0  0  0  0  0  0  0  0
  -25.0681  -18.8221   29.9733 C   0  0  0  0  0  0  0  0  0  0  0  0
  -24.7197  -16.7277   28.6465 C   0  0  0  0  0  0  0  0  0  0  0  0
  -23.5807  -18.8391   27.9628 C   0  0  0  0  0  0  0  0  0  0  0  0
  -28.5300  -17.8904   23.3285 C   0  0  0  0  0  0  0  0  0  0  0  0
  -33.3692  -13.9238   27.5965 C   0  0  0  0  0  0  0  0  0  0  0  0
  -34.6331  -17.1641   29.0853 C   0  0  0  0  0  0  0  0  0  0  0  0
  -33.2404  -17.7642   29.2441 C   0  0  0  0  0  0  0  0  0  1  0  0
  -26.0724  -18.6029   27.6049 C   0  0  1  0  0  0  0  0  0  0  0  0
  -26.4411  -16.8772   24.2499 C   0  0  2  0  0  0  0  0  0  0  0  0
  -34.6313  -15.6463   28.8923 C   0  0  1  0  0  0  0  0  0  0  0  0
  -24.8862  -18.2593   28.5495 C   0  0  0  0  0  0  0  0  0  0  0  0
  -31.3215  -13.2919   26.4373 N   0  0  0  0  0  0  0  0  0  0  0  0
  -32.6247  -13.4056   23.9566 N   0  0  0  0  0  0  0  0  0  0  0  0
  -25.8716  -11.5668   20.5997 N   0  0  0  0  0  0  0  0  0  0  0  0
  -26.2547  -12.8453   20.4424 N   0  0  0  0  0  0  0  0  0  0  0  0
  -27.5591  -20.5598   27.8952 N   0  0  0  0  0  0  0  0  0  0  0  0
  -30.0519  -12.4787   20.6155 N   0  0  0  0  0  0  0  0  0  0  0  0
  -25.4416  -15.0698   20.4051 N   0  0  0  0  0  0  0  0  0  0  0  0
  -21.7299  -12.6166   21.1803 N   0  0  0  0  0  0  0  0  0  0  0  0
  -30.5778  -12.7827   22.8945 N   0  0  0  0  0  0  0  0  0  0  0  0
  -27.6219  -23.7420   29.6745 N   0  0  0  0  0  0  0  0  0  0  0  0
  -25.9146  -18.1057   26.2424 N   0  0  0  0  0  0  0  0  0  0  0  0
  -27.6571  -16.6910   23.4087 N   0  3  0  0  0  0  0  0  0  0  0  0
  -33.9327  -15.2985   27.6236 N   0  3  0  0  0  0  0  0  0  0  0  0
  -22.5245  -14.7462   20.8767 O   0  0  0  0  0  0  0  0  0  0  0  0
  -27.2563  -21.5147   30.2472 O   0  0  0  0  0  0  0  0  0  0  0  0
  -25.4026  -20.8083   27.0441 O   0  0  0  0  0  0  0  0  0  0  0  0
  -27.8496  -16.8282   26.2123 O   0  0  0  0  0  0  0  0  0  0  0  0
  -32.1974  -13.0540   21.2559 O   0  0  0  0  0  0  0  0  0  0  0  0
  -21.4844   -7.0700   21.6391 O   0  0  0  0  0  0  0  0  0  0  0  0
  -33.3687  -19.1723   29.4366 O   0  0  0  0  0  0  0  0  0  1  0  0
  -23.4565   -3.2687   25.1125 F   0  0  0  0  0  0  0  0  0  0  0  0
  -20.0706   -6.3469   23.9020 F   0  0  0  0  0  0  0  0  0  0  0  0
  1  2  1  0  0  0  0
  1  5  2  0  0  0  0
  2  6  2  0  0  0  0
  3  8  2  0  0  0  0
  3 17  1  0  0  0  0
  4  9  1  0  0  0  0
  4 17  2  0  0  0  0
  5 19  1  0  0  0  0
  6 21  1  0  0  0  0
  7 10  2  0  0  0  0
  7 20  1  0  0  0  0
  8 23  1  0  0  0  0
  9 23  2  0  0  0  0
 10 24  1  0  0  0  0
 11 12  2  0  0  0  0
 11 25  1  0  0  0  0
 12 26  1  0  0  0  0
 13 22  1  0  0  0  0
 13 24  2  0  0  0  0
 14 26  2  0  0  0  0
 14 27  1  0  0  0  0
 15 29  1  0  0  0  0
 15 63  2  0  0  0  0
 16 30  2  0  0  0  0
 16 62  1  0  0  0  0
 17 28  1  0  0  0  0
 18 28  1  0  0  0  0
 18 31  2  0  0  0  0
 18 32  1  0  0  0  0
 19 21  2  0  0  0  0
 19 37  1  0  0  0  0
 20 22  2  0  0  0  0
 20 38  1  0  0  0  0
 21 46  1  0  0  0  0
 22 39  1  0  0  0  0
 23 80  1  0  0  0  0
 24 81  1  0  0  0  0
 25 27  2  0  0  0  0
 25 80  1  0  0  0  0
 26 82  1  0  0  0  0
 27 83  1  0  0  0  0
 28 64  2  0  0  0  0
 29 55  1  0  0  0  0
 29 62  2  0  0  0  0
 30 63  1  0  0  0  0
 30 70  1  0  0  0  0
 31 65  1  0  0  0  0
 31 68  1  0  0  0  0
 32 69  1  0  0  0  0
 32 75  2  0  0  0  0
 33 47  1  0  0  0  0
 33 71  1  0  0  0  0
 33 76  2  0  0  0  0
 34 58  1  0  0  0  0
 34 66  1  0  0  0  0
 34 77  2  0  0  0  0
 35 59  1  0  0  0  0
 35 72  1  0  0  0  0
 35 78  2  0  0  0  0
 36 67  1  0  0  0  0
 36 70  1  0  0  0  0
 36 79  2  0  0  0  0
 37 40  1  0  0  0  0
 38 47  1  0  0  0  0
 39 66  1  0  0  0  0
 40 42  1  0  0  0  0
 41 43  1  0  0  0  0
 41 44  1  0  0  0  0
 42 46  1  0  0  0  0
 43 48  1  0  0  0  0
 44 67  1  0  0  0  0
 45 48  1  0  0  0  0
 45 67  1  0  0  0  0
 46 71  1  0  0  0  0
 47 66  1  0  0  0  0
 48 65  1  0  0  0  0
 49 59  1  0  0  0  0
 50 60  1  0  0  0  0
 51 61  1  0  0  0  0
 52 61  1  0  0  0  0
 53 61  1  0  0  0  0
 54 73  1  0  0  0  0
 55 74  1  0  0  0  0
 56 57  1  0  0  0  0
 56 60  1  0  0  0  0
 57 81  1  0  0  0  0
 58 61  1  0  0  0  0
 58 72  1  0  0  0  0
 59 73  1  0  0  0  0
 60 74  1  0  0  0  0
 64 65  1  0  0  0  0
M  CHG  2  73   1  74   1
M  ISO  4  36 100  57 101  70 100  81 101
M  END
> <Batch ID>
0197

> <Smiles>
CNC(C)C(=O)NC(C(=O)N1Cc2cc([101O:1][101CH2:1]CC(C)NCc3cnc([100NH:0][100C:0](=O)N4CCCC(n5nc(-c6ccc(Oc7ccc(F)cc7F)cc6)c(C(N)=O)c5N)C4)cn3)ccc2CC1C(=O)NC1CCCc2ccccc21)C(C)(C)C

> <Shape>
0.142

> <Color>
0.175

> <Negative vol penalty>
0.000

$$$$

  -OEChem-04052305413D

 88 96  0     1  0  0  0  0  0999 V2000
  -27.8804  -33.9025   14.7531 C   0  0  0  0  0  0  0  0  0  0  0  0
  -28.6759  -32.8314   15.1473 C   0  0  0  0  0  0  0  0  0  0  0  0
  -23.1464   -9.7507   19.8761 C   0  0  0  0  0  0  0  0  0  0  0  0
  -23.8043   -9.8178   22.1998 C   0  0  0  0  0  0  0  0  0  0  0  0
  -27.3173  -34.7417   15.7136 C   0  0  0  0  0  0  0  0  0  0  0  0
  -28.9098  -32.5997   16.5023 C   0  0  0  0  0  0  0  0  0  0  0  0
  -29.5564  -27.1646   19.2497 C   0  0  0  0  0  0  0  0  0  0  0  0
  -22.4375   -8.5726   20.1108 C   0  0  0  0  0  0  0  0  0  0  0  0
  -23.0954   -8.6397   22.4345 C   0  0  0  0  0  0  0  0  0  0  0  0
  -30.6810  -26.4379   19.6383 C   0  0  0  0  0  0  0  0  0  0  0  0
  -21.7567   -5.4565   23.5684 C   0  0  0  0  0  0  0  0  0  0  0  0
  -22.3777   -4.4671   24.3305 C   0  0  0  0  0  0  0  0  0  0  0  0
  -30.4843  -27.3375   21.8679 C   0  0  0  0  0  0  0  0  0  0  0  0
  -24.1602   -4.3338   22.7051 C   0  0  0  0  0  0  0  0  0  0  0  0
  -31.8291  -18.8172   22.1661 C   0  0  0  0  0  0  0  0  0  0  0  0
  -29.4092  -17.9005   22.8225 C   0  0  0  0  0  0  0  0  0  0  0  0
  -23.8299  -10.3733   20.9206 C   0  0  0  0  0  0  0  0  0  0  0  0
  -24.0787  -12.9081   20.7780 C   0  0  0  0  0  0  0  0  0  0  0  0
  -27.5365  -34.5144   17.0814 C   0  0  0  0  0  0  0  0  0  0  0  0
  -28.8927  -27.9930   20.1660 C   0  0  0  0  0  0  0  0  0  0  0  0
  -28.3502  -33.4374   17.4820 C   0  0  0  0  0  0  0  0  0  0  0  0
  -29.3501  -28.0717   21.4891 C   0  0  0  0  0  0  0  0  0  0  0  0
  -22.4119   -8.0171   21.3900 C   0  0  0  0  0  0  0  0  0  0  0  0
  -31.1468  -26.5265   20.9468 C   0  0  0  0  0  0  0  0  0  0  0  0
  -22.3374   -5.8847   22.3745 C   0  0  0  0  0  0  0  0  0  0  0  0
  -23.5795   -3.9057   23.8989 C   0  0  0  0  0  0  0  0  0  0  0  0
  -23.5392   -5.3233   21.9429 C   0  0  0  0  0  0  0  0  0  0  0  0
  -24.5629  -11.5900   20.6787 C   0  0  0  0  0  0  0  0  0  0  0  0
  -30.9667  -19.5714   22.9308 C   0  0  0  0  0  0  0  0  0  0  0  0
  -30.2712  -17.1465   22.0571 C   0  0  0  0  0  0  0  0  0  0  0  0
  -25.1559  -13.6951   20.4511 C   0  0  0  0  0  0  0  0  0  0  0  0
  -22.7721  -13.3791   21.1339 C   0  0  0  0  0  0  0  0  0  0  0  0
  -28.3016  -31.1107   20.3519 C   0  0  0  0  0  0  0  0  0  0  0  0
  -26.5352  -30.2265   22.9249 C   0  0  0  0  0  0  0  0  0  0  0  0
  -25.9569  -27.9454   25.3966 C   0  0  0  0  0  0  0  0  0  0  0  0
  -30.5647  -14.9569   20.8464 C   0  0  0  0  0  0  0  0  0  0  0  0
  -26.9454  -35.4767   18.0811 C   0  0  0  0  0  0  0  0  0  0  0  0
  -27.6652  -28.7497   19.7381 C   0  0  0  0  0  0  0  0  0  0  0  0
  -28.6612  -28.9309   22.5166 C   0  0  0  0  0  0  0  0  0  0  0  0
  -26.9356  -34.9405   19.5103 C   0  0  0  0  0  0  0  0  0  0  0  0
  -29.6492  -12.4702   18.4683 C   0  0  0  0  0  0  0  0  0  0  0  0
  -28.2875  -34.3262   19.8594 C   0  0  0  0  0  0  0  0  0  0  0  0
  -28.2045  -12.1279   18.8395 C   0  0  0  0  0  0  0  0  0  0  0  0
  -30.5013  -12.7506   19.7049 C   0  0  0  0  0  0  0  0  0  0  0  0
  -28.5091  -13.4177   20.9915 C   0  0  0  0  0  0  0  0  0  0  0  0
  -28.6069  -33.1387   18.9431 C   0  0  1  0  0  0  0  0  0  0  0  0
  -27.3724  -29.9605   20.6189 C   0  0  1  0  0  0  0  0  0  0  0  0
  -27.5962  -13.1908   19.7754 C   0  0  2  0  0  0  0  0  0  0  0  0
  -24.7932  -26.8581   27.3359 C   0  0  0  0  0  0  0  0  0  0  0  0
  -28.8261  -23.5592   26.4010 C   0  0  0  0  0  0  0  0  0  0  0  0
  -28.2665  -24.4152   24.1173 C   0  0  0  0  0  0  0  0  0  0  0  0
  -28.1004  -32.2815   24.5486 C   0  0  0  0  0  0  0  0  0  0  0  0
  -27.2726  -31.1641   26.6305 C   0  0  0  0  0  0  0  0  0  0  0  0
  -25.6508  -32.2050   25.0466 C   0  0  0  0  0  0  0  0  0  0  0  0
  -24.2039  -26.3670   23.6093 C   0  0  0  0  0  0  0  0  0  0  0  0
  -31.3704  -20.9327   23.4155 C   0  0  0  0  0  0  0  0  0  0  0  0
  -30.6095  -23.5345   24.6310 C   0  0  0  0  0  0  0  0  0  0  0  0
  -32.5687  -23.6224   23.0341 C   0  0  0  0  0  0  0  0  0  0  0  0
  -32.4825  -24.5802   20.6572 C   0  0  0  0  0  0  0  0  0  1  0  0
  -26.8072  -30.0519   24.3995 C   0  0  1  0  0  0  0  0  0  0  0  0
  -24.6772  -27.2887   25.8820 C   0  0  2  0  0  0  0  0  0  0  0  0
  -29.0963  -23.3985   24.9016 C   0  0  0  0  0  0  0  0  0  0  0  0
  -31.0542  -23.3975   23.1640 C   0  0  1  0  0  0  0  0  0  0  0  0
  -33.1428  -23.5872   21.6104 C   0  0  1  0  0  0  0  0  0  0  0  0
  -26.9721  -31.4109   25.1367 C   0  0  0  0  0  0  0  0  0  0  0  0
  -29.7414  -19.1266   23.2730 N   0  0  0  0  0  0  0  0  0  0  0  0
  -31.4967  -17.5913   21.7152 N   0  0  0  0  0  0  0  0  0  0  0  0
  -25.8476  -11.5384   20.3169 N   0  0  0  0  0  0  0  0  0  0  0  0
  -26.1798  -12.8340   20.1860 N   0  0  0  0  0  0  0  0  0  0  0  0
  -27.4689  -29.6564   22.0480 N   0  0  0  0  0  0  0  0  0  0  0  0
  -29.8650  -13.7701   20.5418 N   0  0  0  0  0  0  0  0  0  0  0  0
  -25.3176  -15.0327   20.3675 N   0  0  0  0  0  0  0  0  0  0  0  0
  -21.7823  -12.4354   21.4406 N   0  0  0  0  0  0  0  0  0  0  0  0
  -29.8468  -15.8665   21.6222 N   0  0  0  0  0  0  0  0  0  0  0  0
  -27.8664  -31.9666   19.3582 N   0  0  0  0  0  0  0  0  0  0  0  0
  -25.7281  -29.2181   24.9178 N   0  0  0  0  0  0  0  0  0  0  0  0
  -24.3679  -26.0856   25.0587 N   0  3  0  0  0  0  0  0  0  0  0  0
  -30.7127  -22.0358   22.6677 N   0  3  0  0  0  0  0  0  0  0  0  0
  -22.4861  -14.6001   21.1626 O   0  0  0  0  0  0  0  0  0  0  0  0
  -29.3360  -31.2148   21.0006 O   0  0  0  0  0  0  0  0  0  0  0  0
  -25.5274  -30.8397   22.5643 O   0  0  0  0  0  0  0  0  0  0  0  0
  -27.0507  -27.3868   25.4414 O   0  0  0  0  0  0  0  0  0  0  0  0
  -31.7058  -15.1637   20.4256 O   0  0  0  0  0  0  0  0  0  0  0  0
  -34.5383  -23.8999   21.6924 O   0  0  0  0  0  0  0  0  0  0  0  0
  -21.7200   -6.8677   21.6194 O   0  0  0  0  0  0  0  0  0  0  0  0
  -32.2512  -25.8145   21.3308 O   0  0  0  0  0  0  0  0  0  1  0  0
  -24.1765   -2.9566   24.6316 F   0  0  0  0  0  0  0  0  0  0  0  0
  -24.1025   -5.7314   20.7975 F   0  0  0  0  0  0  0  0  0  0  0  0
  1  2  1  0  0  0  0
  1  5  2  0  0  0  0
  2  6  2  0  0  0  0
  3  8  2  0  0  0  0
  3 17  1  0  0  0  0
  4  9  1  0  0  0  0
  4 17  2  0  0  0  0
  5 19  1  0  0  0  0
  6 21  1  0  0  0  0
  7 10  2  0  0  0  0
  7 20  1  0  0  0  0
  8 23  1  0  0  0  0
  9 23  2  0  0  0  0
 10 24  1  0  0  0  0
 11 12  2  0  0  0  0
 11 25  1  0  0  0  0
 12 26  1  0  0  0  0
 13 22  1  0  0  0  0
 13 24  2  0  0  0  0
 14 26  2  0  0  0  0
 14 27  1  0  0  0  0
 15 29  1  0  0  0  0
 15 67  2  0  0  0  0
 16 30  2  0  0  0  0
 16 66  1  0  0  0  0
 17 28  1  0  0  0  0
 18 28  1  0  0  0  0
 18 31  2  0  0  0  0
 18 32  1  0  0  0  0
 19 21  2  0  0  0  0
 19 37  1  0  0  0  0
 20 22  2  0  0  0  0
 20 38  1  0  0  0  0
 21 46  1  0  0  0  0
 22 39  1  0  0  0  0
 23 85  1  0  0  0  0
 24 86  1  0  0  0  0
 25 27  2  0  0  0  0
 25 85  1  0  0  0  0
 26 87  1  0  0  0  0
 27 88  1  0  0  0  0
 28 68  2  0  0  0  0
 29 56  1  0  0  0  0
 29 66  2  0  0  0  0
 30 67  1  0  0  0  0
 30 74  1  0  0  0  0
 31 69  1  0  0  0  0
 31 72  1  0  0  0  0
 32 73  1  0  0  0  0
 32 79  2  0  0  0  0
 33 47  1  0  0  0  0
 33 75  1  0  0  0  0
 33 80  2  0  0  0  0
 34 60  1  0  0  0  0
 34 70  1  0  0  0  0
 34 81  2  0  0  0  0
 35 61  1  0  0  0  0
 35 76  1  0  0  0  0
 35 82  2  0  0  0  0
 36 71  1  0  0  0  0
 36 74  1  0  0  0  0
 36 83  2  0  0  0  0
 37 40  1  0  0  0  0
 38 47  1  0  0  0  0
 39 70  1  0  0  0  0
 40 42  1  0  0  0  0
 41 43  1  0  0  0  0
 41 44  1  0  0  0  0
 42 46  1  0  0  0  0
 43 48  1  0  0  0  0
 44 71  1  0  0  0  0
 45 48  1  0  0  0  0
 45 71  1  0  0  0  0
 46 75  1  0  0  0  0
 47 70  1  0  0  0  0
 48 69  1  0  0  0  0
 49 61  1  0  0  0  0
 50 62  1  0  0  0  0
 51 62  1  0  0  0  0
 52 65  1  0  0  0  0
 53 65  1  0  0  0  0
 54 65  1  0  0  0  0
 55 77  1  0  0  0  0
 56 78  1  0  0  0  0
 57 62  1  0  0  0  0
 57 63  1  0  0  0  0
 58 63  1  0  0  0  0
 58 64  1  0  0  0  0
 59 64  1  0  0  0  0
 59 86  1  0  0  0  0
 60 65  1  0  0  0  0
 60 76  1  0  0  0  0
 61 77  1  0  0  0  0
 63 78  1  0  0  0  0
 64 84  1  0  0  0  0
 68 69  1  0  0  0  0
M  CHG  2  77   1  78   1
M  ISO  4  36 100  59 101  74 100  86 101
M  END
> <Batch ID>
0197

> <Smiles>
CNC(C)C(=O)NC(C(=O)N1Cc2cc([101O:1][101CH2:1]C(O)CC(CC(C)C)NCc3cnc([100NH:0][100C:0](=O)N4CCCC(n5nc(-c6ccc(Oc7ccc(F)cc7F)cc6)c(C(N)=O)c5N)C4)cn3)ccc2CC1C(=O)NC1CCCc2ccccc21)C(C)(C)C

> <Shape>
0.277

> <Color>
0.188

> <Negative vol penalty>
0.000

$$$$

  -OEChem-04052305413D

 85 93  0     1  0  0  0  0  0999 V2000
  -17.1760  -30.9988   23.7117 C   0  0  0  0  0  0  0  0  0  0  0  0
  -18.3943  -30.6323   24.2745 C   0  0  0  0  0  0  0  0  0  0  0  0
  -24.8200  -13.7820   20.5913 C   0  0  0  0  0  0  0  0  0  0  0  0
  -27.0305  -13.0801   19.9142 C   0  0  0  0  0  0  0  0  0  0  0  0
  -16.4764  -30.0927   22.9157 C   0  0  0  0  0  0  0  0  0  0  0  0
  -18.9133  -29.3590   24.0425 C   0  0  0  0  0  0  0  0  0  0  0  0
  -25.3681  -28.4896   20.9651 C   0  0  0  0  0  0  0  0  0  0  0  0
  -24.3349  -12.4991   20.3374 C   0  0  0  0  0  0  0  0  0  0  0  0
  -26.5453  -11.7972   19.6604 C   0  0  0  0  0  0  0  0  0  0  0  0
  -26.6844  -28.2429   20.5743 C   0  0  0  0  0  0  0  0  0  0  0  0
  -24.3378   -9.4860   21.8718 C   0  0  0  0  0  0  0  0  0  0  0  0
  -23.4939   -8.9122   22.8227 C   0  0  0  0  0  0  0  0  0  0  0  0
  -26.2742  -25.8611   20.6581 C   0  0  0  0  0  0  0  0  0  0  0  0
  -21.7450   -8.7372   21.1650 C   0  0  0  0  0  0  0  0  0  0  0  0
  -26.1678  -14.0725   20.3796 C   0  0  0  0  0  0  0  0  0  0  0  0
  -27.1953  -15.8837   21.8532 C   0  0  0  0  0  0  0  0  0  0  0  0
  -16.9918  -28.8110   22.6660 C   0  0  0  0  0  0  0  0  0  0  0  0
  -24.4945  -27.4219   21.1892 C   0  0  0  0  0  0  0  0  0  0  0  0
  -18.2194  -28.4345   23.2436 C   0  0  0  0  0  0  0  0  0  0  0  0
  -24.9511  -26.1023   21.0376 C   0  0  0  0  0  0  0  0  0  0  0  0
  -33.6817  -23.2593   20.7061 C   0  0  0  0  0  0  0  0  0  0  0  0
  -25.1975  -11.5067   19.8720 C   0  0  0  0  0  0  0  0  0  0  0  0
  -27.1363  -26.9319   20.4214 C   0  0  0  0  0  0  0  0  0  0  0  0
  -23.8852   -9.6856   20.5675 C   0  0  0  0  0  0  0  0  0  0  0  0
  -22.1976   -8.5377   22.4693 C   0  0  0  0  0  0  0  0  0  0  0  0
  -22.5889   -9.3111   20.2141 C   0  0  0  0  0  0  0  0  0  0  0  0
  -26.6695  -15.3976   20.6412 C   0  0  0  0  0  0  0  0  0  0  0  0
  -33.4175  -22.0327   21.2804 C   0  0  0  0  0  0  0  0  0  0  0  0
  -32.8724  -23.6081   19.6442 C   0  0  0  0  0  0  0  0  0  0  0  0
  -27.5283  -17.1888   21.5842 C   0  0  0  0  0  0  0  0  0  0  0  0
  -31.7206  -21.6559   19.8156 C   0  0  0  0  0  0  0  0  0  0  0  0
  -27.3675  -15.2152   23.1099 C   0  0  0  0  0  0  0  0  0  0  0  0
  -21.0364  -26.3159   22.1351 C   0  0  0  0  0  0  0  0  0  0  0  0
  -21.9686  -24.4796   19.8614 C   0  0  0  0  0  0  0  0  0  0  0  0
  -23.2020  -22.9512   17.0722 C   0  0  0  0  0  0  0  0  0  0  0  0
  -29.8097  -21.0536   18.2885 C   0  0  0  0  0  0  0  0  0  0  0  0
  -16.1767  -27.8496   21.8378 C   0  0  0  0  0  0  0  0  0  0  0  0
  -23.0858  -27.6393   21.6710 C   0  0  0  0  0  0  0  0  0  0  0  0
  -23.9858  -24.9845   21.3231 C   0  0  0  0  0  0  0  0  0  0  0  0
  -16.9758  -26.6502   21.3344 C   0  0  0  0  0  0  0  0  0  0  0  0
  -26.4483  -20.1081   17.5925 C   0  0  0  0  0  0  0  0  0  0  0  0
  -17.8106  -26.0534   22.4630 C   0  0  0  0  0  0  0  0  0  0  0  0
  -26.2495  -18.8383   18.4233 C   0  0  0  0  0  0  0  0  0  0  0  0
  -27.8593  -20.1914   17.0128 C   0  0  0  0  0  0  0  0  0  0  0  0
  -28.7440  -18.7747   18.8238 C   0  0  0  0  0  0  0  0  0  0  0  0
  -18.8270  -27.0710   22.9949 C   0  0  1  0  0  0  0  0  0  0  0  0
  -22.0896  -26.6101   21.1076 C   0  0  1  0  0  0  0  0  0  0  0  0
  -27.3580  -18.6782   19.4821 C   0  0  2  0  0  0  0  0  0  0  0  0
  -34.2264  -21.5444   22.4377 C   0  0  0  0  0  0  0  0  0  0  0  0
  -22.6386  -21.1834   15.3826 C   0  0  0  0  0  0  0  0  0  0  0  0
  -22.6311  -22.3173   21.9083 C   0  0  0  0  0  0  0  0  0  0  0  0
  -22.9857  -20.7266   20.0078 C   0  0  0  0  0  0  0  0  0  0  0  0
  -20.7417  -21.7541   20.3698 C   0  0  0  0  0  0  0  0  0  0  0  0
  -23.2805  -24.8944   14.8413 C   0  0  0  0  0  0  0  0  0  0  0  0
  -31.1129  -26.2515   19.1023 C   0  0  0  0  0  0  0  0  0  0  0  0
  -32.0987  -25.4975   18.2099 C   0  0  0  0  0  0  0  0  0  0  0  0
  -29.0368  -27.6799   19.2023 C   0  0  0  0  0  0  0  0  0  1  0  0
  -22.6279  -23.1799   19.4748 C   0  0  1  0  0  0  0  0  0  0  0  0
  -22.5752  -22.6651   15.7196 C   0  0  2  0  0  0  0  0  0  0  0  0
  -30.0462  -26.9900   18.2900 C   0  0  2  0  0  0  0  0  0  0  0  0
  -22.2613  -22.0188   20.4416 C   0  0  0  0  0  0  0  0  0  0  0  0
  -26.6664  -16.3190   19.6741 N   0  0  0  0  0  0  0  0  0  0  0  0
  -32.4411  -21.2024   20.8591 N   0  0  0  0  0  0  0  0  0  0  0  0
  -31.8788  -22.8276   19.1709 N   0  0  0  0  0  0  0  0  0  0  0  0
  -27.1943  -17.3971   20.2783 N   0  0  0  0  0  0  0  0  0  0  0  0
  -22.6668  -25.3021   20.7539 N   0  0  0  0  0  0  0  0  0  0  0  0
  -28.8564  -20.0358   18.0741 N   0  0  0  0  0  0  0  0  0  0  0  0
  -34.7083  -24.0916   21.1772 N   0  0  0  0  0  0  0  0  0  0  0  0
  -28.0711  -18.1671   22.3396 N   0  0  0  0  0  0  0  0  0  0  0  0
  -26.9726  -13.8745   23.2131 N   0  0  0  0  0  0  0  0  0  0  0  0
  -33.0864  -24.8281   19.0232 N   0  0  0  0  0  0  0  0  0  0  0  0
  -30.6856  -20.8098   19.3458 N   0  0  0  0  0  0  0  0  0  0  0  0
  -19.9555  -27.1759   22.0949 N   0  0  0  0  0  0  0  0  0  0  0  0
  -22.2645  -22.9360   18.0831 N   0  0  0  0  0  0  0  0  0  0  0  0
  -23.2849  -23.4212   14.6493 N   0  3  0  0  0  0  0  0  0  0  0  0
  -27.8420  -15.7947   24.1162 O   0  0  0  0  0  0  0  0  0  0  0  0
  -21.1911  -25.3770   22.9072 O   0  0  0  0  0  0  0  0  0  0  0  0
  -20.8620  -24.7579   19.3910 O   0  0  0  0  0  0  0  0  0  0  0  0
  -24.4039  -23.1632   17.2179 O   0  0  0  0  0  0  0  0  0  0  0  0
  -29.8291  -22.0794   17.6034 O   0  0  0  0  0  0  0  0  0  0  0  0
  -29.3550  -26.0459   17.4724 O   0  0  0  0  0  0  0  0  0  0  0  0
  -24.7245  -10.2547   19.6244 O   0  0  0  0  0  0  0  0  0  0  0  0
  -28.4213  -26.6983   20.0353 O   0  0  0  0  0  0  0  0  0  1  0  0
  -21.3879   -7.9853   23.3821 F   0  0  0  0  0  0  0  0  0  0  0  0
  -22.1489   -9.4992   18.9624 F   0  0  0  0  0  0  0  0  0  0  0  0
  1  2  1  0  0  0  0
  1  5  2  0  0  0  0
  2  6  2  0  0  0  0
  3  8  2  0  0  0  0
  3 15  1  0  0  0  0
  4  9  1  0  0  0  0
  4 15  2  0  0  0  0
  5 17  1  0  0  0  0
  6 19  1  0  0  0  0
  7 10  2  0  0  0  0
  7 18  1  0  0  0  0
  8 22  1  0  0  0  0
  9 22  2  0  0  0  0
 10 23  1  0  0  0  0
 11 12  2  0  0  0  0
 11 24  1  0  0  0  0
 12 25  1  0  0  0  0
 13 20  1  0  0  0  0
 13 23  2  0  0  0  0
 14 25  2  0  0  0  0
 14 26  1  0  0  0  0
 15 27  1  0  0  0  0
 16 27  1  0  0  0  0
 16 30  2  0  0  0  0
 16 32  1  0  0  0  0
 17 19  2  0  0  0  0
 17 37  1  0  0  0  0
 18 20  2  0  0  0  0
 18 38  1  0  0  0  0
 19 46  1  0  0  0  0
 20 39  1  0  0  0  0
 21 28  1  0  0  0  0
 21 29  2  0  0  0  0
 21 68  1  0  0  0  0
 22 82  1  0  0  0  0
 23 83  1  0  0  0  0
 24 26  2  0  0  0  0
 24 82  1  0  0  0  0
 25 84  1  0  0  0  0
 26 85  1  0  0  0  0
 27 62  2  0  0  0  0
 28 49  1  0  0  0  0
 28 63  2  0  0  0  0
 29 64  1  0  0  0  0
 29 71  1  0  0  0  0
 30 65  1  0  0  0  0
 30 69  1  0  0  0  0
 31 63  1  0  0  0  0
 31 64  2  0  0  0  0
 31 72  1  0  0  0  0
 32 70  1  0  0  0  0
 32 76  2  0  0  0  0
 33 47  1  0  0  0  0
 33 73  1  0  0  0  0
 33 77  2  0  0  0  0
 34 58  1  0  0  0  0
 34 66  1  0  0  0  0
 34 78  2  0  0  0  0
 35 59  1  0  0  0  0
 35 74  1  0  0  0  0
 35 79  2  0  0  0  0
 36 67  1  0  0  0  0
 36 72  1  0  0  0  0
 36 80  2  0  0  0  0
 37 40  1  0  0  0  0
 38 47  1  0  0  0  0
 39 66  1  0  0  0  0
 40 42  1  0  0  0  0
 41 43  1  0  0  0  0
 41 44  1  0  0  0  0
 42 46  1  0  0  0  0
 43 48  1  0  0  0  0
 44 67  1  0  0  0  0
 45 48  1  0  0  0  0
 45 67  1  0  0  0  0
 46 73  1  0  0  0  0
 47 66  1  0  0  0  0
 48 65  1  0  0  0  0
 50 59  1  0  0  0  0
 51 61  1  0  0  0  0
 52 61  1  0  0  0  0
 53 61  1  0  0  0  0
 54 75  1  0  0  0  0
 55 56  1  0  0  0  0
 55 60  1  0  0  0  0
 56 71  1  0  0  0  0
 57 60  1  0  0  0  0
 57 83  1  0  0  0  0
 58 61  1  0  0  0  0
 58 74  1  0  0  0  0
 59 75  1  0  0  0  0
 60 81  1  0  0  0  0
 62 65  1  0  0  0  0
M  CHG  1  75   1
M  ISO  4  36 100  57 101  72 100  83 101
M  END
> <Batch ID>
0197

> <Smiles>
CNC(C)C(=O)NC(C(=O)N1Cc2cc([101O:1][101CH2:1]C(O)CCNc3nc([100NH:0][100C:0](=O)N4CCCC(n5nc(-c6ccc(Oc7ccc(F)cc7F)cc6)c(C(N)=O)c5N)C4)nc(C)c3N)ccc2CC1C(=O)NC1CCCc2ccccc21)C(C)(C)C

> <Shape>
0.223

> <Color>
0.064

> <Negative vol penalty>
0.000

$$$$

  -OEChem-04052305413D

 83 91  0     1  0  0  0  0  0999 V2000
  -25.7679  -37.7676   19.6241 C   0  0  0  0  0  0  0  0  0  0  0  0
  -26.4730  -36.5860   19.4188 C   0  0  0  0  0  0  0  0  0  0  0  0
  -24.5567  -10.5040   22.9615 C   0  0  0  0  0  0  0  0  0  0  0  0
  -24.6113  -12.2137   24.6677 C   0  0  0  0  0  0  0  0  0  0  0  0
  -24.8769  -37.8699   20.6915 C   0  0  0  0  0  0  0  0  0  0  0  0
  -26.2882  -35.5063   20.2816 C   0  0  0  0  0  0  0  0  0  0  0  0
  -26.4203  -29.5607   18.8194 C   0  0  0  0  0  0  0  0  0  0  0  0
  -24.1471   -9.5687   23.9118 C   0  0  0  0  0  0  0  0  0  0  0  0
  -24.2017  -11.2783   25.6180 C   0  0  0  0  0  0  0  0  0  0  0  0
  -27.4151  -28.5900   18.9279 C   0  0  0  0  0  0  0  0  0  0  0  0
  -21.2831   -8.7149   25.4934 C   0  0  0  0  0  0  0  0  0  0  0  0
  -20.2370   -7.8582   25.1508 C   0  0  0  0  0  0  0  0  0  0  0  0
  -26.4716  -27.8663   21.0268 C   0  0  0  0  0  0  0  0  0  0  0  0
  -21.6894   -5.9550   25.4755 C   0  0  0  0  0  0  0  0  0  0  0  0
  -29.7409  -20.3883   19.2112 C   0  0  0  0  0  0  0  0  0  0  0  0
  -24.7888  -11.8265   23.3395 C   0  0  0  0  0  0  0  0  0  0  0  0
  -24.3902  -13.6133   21.5630 C   0  0  0  0  0  0  0  0  0  0  0  0
  -24.6739  -36.7876   21.5622 C   0  0  0  0  0  0  0  0  0  0  0  0
  -25.4485  -29.6989   19.8208 C   0  0  0  0  0  0  0  0  0  0  0  0
  -25.3946  -35.5947   21.3626 C   0  0  0  0  0  0  0  0  0  0  0  0
  -25.4640  -28.8379   20.9273 C   0  0  0  0  0  0  0  0  0  0  0  0
  -23.9696   -9.9558   25.2400 C   0  0  0  0  0  0  0  0  0  0  0  0
  -27.4426  -27.7445   20.0331 C   0  0  0  0  0  0  0  0  0  0  0  0
  -22.5324   -8.1917   25.8269 C   0  0  0  0  0  0  0  0  0  0  0  0
  -20.4401   -6.4783   25.1419 C   0  0  0  0  0  0  0  0  0  0  0  0
  -22.7355   -6.8117   25.8180 C   0  0  0  0  0  0  0  0  0  0  0  0
  -25.2125  -12.7930   22.3584 C   0  0  0  0  0  0  0  0  0  0  0  0
  -29.1782  -21.6567   18.8904 C   0  0  0  0  0  0  0  0  0  0  0  0
  -25.2687  -14.3456   20.8023 C   0  0  0  0  0  0  0  0  0  0  0  0
  -28.7844  -19.5768   19.7816 C   0  0  0  0  0  0  0  0  0  0  0  0
  -22.9602  -13.7053   21.5160 C   0  0  0  0  0  0  0  0  0  0  0  0
  -24.6148  -32.0137   21.8333 C   0  0  0  0  0  0  0  0  0  0  0  0
  -22.1999  -29.9751   22.5645 C   0  0  0  0  0  0  0  0  0  0  0  0
  -21.0391  -26.7667   22.6386 C   0  0  0  0  0  0  0  0  0  0  0  0
  -29.9088  -17.3798   20.2870 C   0  0  0  0  0  0  0  0  0  0  0  0
  -23.7356  -36.9615   22.7301 C   0  0  0  0  0  0  0  0  0  0  0  0
  -24.3663  -30.7334   19.6758 C   0  0  0  0  0  0  0  0  0  0  0  0
  -24.4315  -28.9318   22.0199 C   0  0  0  0  0  0  0  0  0  0  0  0
  -23.3178  -35.6436   23.3773 C   0  0  0  0  0  0  0  0  0  0  0  0
  -30.2605  -13.8401   20.1330 C   0  0  0  0  0  0  0  0  0  0  0  0
  -24.5326  -34.7471   23.5951 C   0  0  0  0  0  0  0  0  0  0  0  0
  -28.9109  -13.3196   20.6328 C   0  0  0  0  0  0  0  0  0  0  0  0
  -30.6953  -15.0988   20.8815 C   0  0  0  0  0  0  0  0  0  0  0  0
  -28.3543  -15.6613   21.4032 C   0  0  0  0  0  0  0  0  0  0  0  0
  -25.2030  -34.3930   22.2622 C   0  0  1  0  0  0  0  0  0  0  0  0
  -23.7305  -31.1237   21.0065 C   0  0  1  0  0  0  0  0  0  0  0  0
  -27.8436  -14.4316   20.6346 C   0  0  2  0  0  0  0  0  0  0  0  0
  -30.5341  -23.6660   15.6240 C   0  0  0  0  0  0  0  0  0  0  0  0
  -19.0437  -25.4092   23.3262 C   0  0  0  0  0  0  0  0  0  0  0  0
  -23.0349  -30.2328   25.4879 C   0  0  0  0  0  0  0  0  0  0  0  0
  -21.6787  -28.1874   25.9832 C   0  0  0  0  0  0  0  0  0  0  0  0
  -20.5636  -30.2386   25.1045 C   0  0  0  0  0  0  0  0  0  0  0  0
  -20.5803  -25.8254   19.8705 C   0  0  0  0  0  0  0  0  0  0  0  0
  -30.4313  -24.5423   16.8669 C   0  0  0  0  0  0  0  0  0  0  0  0
  -28.9344  -26.2586   18.9273 C   0  0  0  0  0  0  0  0  0  1  0  0
  -22.0100  -28.8557   23.5594 C   0  0  1  0  0  0  0  0  0  0  0  0
  -19.7205  -26.1620   22.1913 C   0  0  2  0  0  0  0  0  0  0  0  0
  -29.5102  -23.9384   17.9369 C   0  0  2  0  0  0  0  0  0  0  0  0
  -29.4042  -24.8282   19.1891 C   0  0  1  0  0  0  0  0  0  0  0  0
  -21.8425  -29.3779   25.0143 C   0  0  0  0  0  0  0  0  0  0  0  0
  -26.5134  -12.9854   22.1246 N   0  0  0  0  0  0  0  0  0  0  0  0
  -27.8917  -21.8424   19.1766 N   0  0  0  0  0  0  0  0  0  0  0  0
  -26.5152  -13.9350   21.1737 N   0  0  0  0  0  0  0  0  0  0  0  0
  -23.3975  -29.9635   21.8356 N   0  0  0  0  0  0  0  0  0  0  0  0
  -29.6364  -16.1095   20.8373 N   0  0  0  0  0  0  0  0  0  0  0  0
  -25.0888  -15.2940   19.8587 N   0  0  0  0  0  0  0  0  0  0  0  0
  -22.2093  -12.8809   22.3651 N   0  0  0  0  0  0  0  0  0  0  0  0
  -29.9819  -22.6159   18.3054 N   0  0  0  0  0  0  0  0  0  0  0  0
  -28.8166  -18.2467   20.2690 N   0  0  0  0  0  0  0  0  0  0  0  0
  -24.4530  -33.3620   21.5774 N   0  0  0  0  0  0  0  0  0  0  0  0
  -20.8835  -28.0655   23.0748 N   0  0  0  0  0  0  0  0  0  0  0  0
  -19.9419  -25.2129   21.0639 N   0  3  0  0  0  0  0  0  0  0  0  0
  -22.3654  -14.4834   20.7322 O   0  0  0  0  0  0  0  0  0  0  0  0
  -25.3856  -31.5143   22.6445 O   0  0  0  0  0  0  0  0  0  0  0  0
  -21.3148  -30.8244   22.4337 O   0  0  0  0  0  0  0  0  0  0  0  0
  -22.1003  -26.1475   22.6079 O   0  0  0  0  0  0  0  0  0  0  0  0
  -31.0213  -17.6676   19.8381 O   0  0  0  0  0  0  0  0  0  0  0  0
  -30.6947  -24.8744   19.8078 O   0  0  0  0  0  0  0  0  0  0  0  0
  -23.5697   -9.0435   26.1676 O   0  0  0  0  0  0  0  0  0  0  0  0
  -28.4129  -26.7965   20.1419 O   0  0  0  0  0  0  0  0  0  1  0  0
  -19.4351   -5.6556   24.8144 F   0  0  0  0  0  0  0  0  0  0  0  0
  -23.9331   -6.3031   26.1387 F   0  0  0  0  0  0  0  0  0  0  0  0
  -27.3103  -20.4451   19.8633 S   0  0  0  0  0  0  0  0  0  0  0  0
  1  2  1  0  0  0  0
  1  5  2  0  0  0  0
  2  6  2  0  0  0  0
  3  8  2  0  0  0  0
  3 16  1  0  0  0  0
  4  9  1  0  0  0  0
  4 16  2  0  0  0  0
  5 18  1  0  0  0  0
  6 20  1  0  0  0  0
  7 10  2  0  0  0  0
  7 19  1  0  0  0  0
  8 22  1  0  0  0  0
  9 22  2  0  0  0  0
 10 23  1  0  0  0  0
 11 12  2  0  0  0  0
 11 24  1  0  0  0  0
 12 25  1  0  0  0  0
 13 21  1  0  0  0  0
 13 23  2  0  0  0  0
 14 25  2  0  0  0  0
 14 26  1  0  0  0  0
 15 28  1  0  0  0  0
 15 30  2  0  0  0  0
 16 27  1  0  0  0  0
 17 27  1  0  0  0  0
 17 29  2  0  0  0  0
 17 31  1  0  0  0  0
 18 20  2  0  0  0  0
 18 36  1  0  0  0  0
 19 21  2  0  0  0  0
 19 37  1  0  0  0  0
 20 45  1  0  0  0  0
 21 38  1  0  0  0  0
 22 79  1  0  0  0  0
 23 80  1  0  0  0  0
 24 26  2  0  0  0  0
 24 79  1  0  0  0  0
 25 81  1  0  0  0  0
 26 82  1  0  0  0  0
 27 61  2  0  0  0  0
 28 62  2  0  0  0  0
 28 68  1  0  0  0  0
 29 63  1  0  0  0  0
 29 66  1  0  0  0  0
 30 69  1  0  0  0  0
 30 83  1  0  0  0  0
 31 67  1  0  0  0  0
 31 73  2  0  0  0  0
 32 46  1  0  0  0  0
 32 70  1  0  0  0  0
 32 74  2  0  0  0  0
 33 56  1  0  0  0  0
 33 64  1  0  0  0  0
 33 75  2  0  0  0  0
 34 57  1  0  0  0  0
 34 71  1  0  0  0  0
 34 76  2  0  0  0  0
 35 65  1  0  0  0  0
 35 69  1  0  0  0  0
 35 77  2  0  0  0  0
 36 39  1  0  0  0  0
 37 46  1  0  0  0  0
 38 64  1  0  0  0  0
 39 41  1  0  0  0  0
 40 42  1  0  0  0  0
 40 43  1  0  0  0  0
 41 45  1  0  0  0  0
 42 47  1  0  0  0  0
 43 65  1  0  0  0  0
 44 47  1  0  0  0  0
 44 65  1  0  0  0  0
 45 70  1  0  0  0  0
 46 64  1  0  0  0  0
 47 63  1  0  0  0  0
 48 54  1  0  0  0  0
 49 57  1  0  0  0  0
 50 60  1  0  0  0  0
 51 60  1  0  0  0  0
 52 60  1  0  0  0  0
 53 72  1  0  0  0  0
 54 58  1  0  0  0  0
 55 59  1  0  0  0  0
 55 80  1  0  0  0  0
 56 60  1  0  0  0  0
 56 71  1  0  0  0  0
 57 72  1  0  0  0  0
 58 59  1  0  0  0  0
 58 68  1  0  0  0  0
 59 78  1  0  0  0  0
 61 63  1  0  0  0  0
 62 83  1  0  0  0  0
M  CHG  1  72   1
M  ISO  4  35 100  55 101  69 100  80 101
M  END
> <Batch ID>
0197

> <Smiles>
CCC(Nc1cc([100NH:0][100C:0](=O)N2CCCC(n3nc(-c4ccc(Oc5ccc(F)cc5F)cc4)c(C(N)=O)c3N)C2)sn1)C(O)[101CH2:1][101O:1]c1ccc2c(c1)CN(C(=O)C(NC(=O)C(C)NC)C(C)(C)C)C(C(=O)NC1CCCc3ccccc31)C2

> <Shape>
0.308

> <Color>
0.143

> <Negative vol penalty>
0.000

$$$$

  -OEChem-04052305413D

 84 92  0     1  0  0  0  0  0999 V2000
  -30.6329  -22.4767   15.1960 C   0  0  0  0  0  0  0  0  0  0  0  0
  -30.6663  -22.4228   16.5857 C   0  0  0  0  0  0  0  0  0  0  0  0
  -25.4190  -13.5401   19.2195 C   0  0  0  0  0  0  0  0  0  0  0  0
  -25.1232  -13.3507   21.6098 C   0  0  0  0  0  0  0  0  0  0  0  0
  -30.2364  -23.6493   14.5543 C   0  0  0  0  0  0  0  0  0  0  0  0
  -30.3040  -23.5418   17.3346 C   0  0  0  0  0  0  0  0  0  0  0  0
  -27.4312  -23.5797   22.7431 C   0  0  0  0  0  0  0  0  0  0  0  0
  -25.3250  -12.1538   19.0980 C   0  0  0  0  0  0  0  0  0  0  0  0
  -25.0292  -11.9643   21.4883 C   0  0  0  0  0  0  0  0  0  0  0  0
  -27.8957  -23.7107   24.0510 C   0  0  0  0  0  0  0  0  0  0  0  0
  -24.3505   -8.4033   21.7655 C   0  0  0  0  0  0  0  0  0  0  0  0
  -23.3362   -7.7570   22.4720 C   0  0  0  0  0  0  0  0  0  0  0  0
  -27.4088  -26.0723   23.9810 C   0  0  0  0  0  0  0  0  0  0  0  0
  -21.6808   -9.0494   21.2777 C   0  0  0  0  0  0  0  0  0  0  0  0
  -25.3182  -14.1386   20.4754 C   0  0  0  0  0  0  0  0  0  0  0  0
  -24.3623  -16.5027   20.5454 C   0  0  0  0  0  0  0  0  0  0  0  0
  -29.8598  -24.7802   15.2959 C   0  0  0  0  0  0  0  0  0  0  0  0
  -26.9613  -24.6978   22.0392 C   0  0  0  0  0  0  0  0  0  0  0  0
  -29.9033  -24.7311   16.7023 C   0  0  0  0  0  0  0  0  0  0  0  0
  -26.9364  -25.9523   22.6651 C   0  0  0  0  0  0  0  0  0  0  0  0
  -25.1301  -11.3659   20.2324 C   0  0  0  0  0  0  0  0  0  0  0  0
  -27.8873  -24.9577   24.6692 C   0  0  0  0  0  0  0  0  0  0  0  0
  -24.0299   -9.3728   20.8152 C   0  0  0  0  0  0  0  0  0  0  0  0
  -22.0014   -8.0800   22.2280 C   0  0  0  0  0  0  0  0  0  0  0  0
  -22.6951   -9.6958   20.5713 C   0  0  0  0  0  0  0  0  0  0  0  0
  -25.4158  -15.5706   20.6017 C   0  0  0  0  0  0  0  0  0  0  0  0
  -30.3392  -20.1378   27.6989 C   0  0  0  0  0  0  0  0  0  0  0  0
  -24.9723  -17.7211   20.7183 C   0  0  0  0  0  0  0  0  0  0  0  0
  -29.3854  -19.2995   28.2370 C   0  0  0  0  0  0  0  0  0  0  0  0
  -29.6005  -19.2417   25.8384 C   0  0  0  0  0  0  0  0  0  0  0  0
  -22.9579  -16.2866   20.3541 C   0  0  0  0  0  0  0  0  0  0  0  0
  -27.8445  -26.2136   19.3886 C   0  0  0  0  0  0  0  0  0  0  0  0
  -25.1305  -27.9092   19.9195 C   0  0  0  0  0  0  0  0  0  0  0  0
  -22.7880  -29.0051   22.1462 C   0  0  0  0  0  0  0  0  0  0  0  0
  -30.0588  -19.4006   23.3664 C   0  0  0  0  0  0  0  0  0  0  0  0
  -29.4836  -26.0403   14.5574 C   0  0  0  0  0  0  0  0  0  0  0  0
  -26.4387  -24.5349   20.6383 C   0  0  0  0  0  0  0  0  0  0  0  0
  -26.4232  -27.1803   21.9599 C   0  0  0  0  0  0  0  0  0  0  0  0
  -28.7562  -27.0620   15.4274 C   0  0  0  0  0  0  0  0  0  0  0  0
  -29.1382  -19.9627   19.9732 C   0  0  0  0  0  0  0  0  0  0  0  0
  -29.4728  -27.2324   16.7632 C   0  0  0  0  0  0  0  0  0  0  0  0
  -27.9792  -18.9893   19.7460 C   0  0  0  0  0  0  0  0  0  0  0  0
  -30.2084  -19.3670   20.8861 C   0  0  0  0  0  0  0  0  0  0  0  0
  -28.5543  -17.8771   21.9412 C   0  0  0  0  0  0  0  0  0  0  0  0
  -29.4940  -25.9162   17.5497 C   0  0  1  0  0  0  0  0  0  0  0  0
  -26.4619  -25.8331   19.8372 C   0  0  1  0  0  0  0  0  0  0  0  0
  -27.4204  -18.4572   21.0802 C   0  0  2  0  0  0  0  0  0  0  0  0
  -32.7249  -20.7789   28.2379 C   0  0  0  0  0  0  0  0  0  0  0  0
  -20.7105  -30.4053   22.2907 C   0  0  0  0  0  0  0  0  0  0  0  0
  -30.1804  -23.4820   30.2202 C   0  0  0  0  0  0  0  0  0  0  0  0
  -26.8272  -30.4395   19.7498 C   0  0  0  0  0  0  0  0  0  0  0  0
  -24.9424  -31.6915   20.8214 C   0  0  0  0  0  0  0  0  0  0  0  0
  -24.6080  -30.5929   18.6069 C   0  0  0  0  0  0  0  0  0  0  0  0
  -21.1656  -26.7097   23.0725 C   0  0  0  0  0  0  0  0  0  0  0  0
  -29.2835  -24.2721   27.9949 C   0  0  0  0  0  0  0  0  0  0  0  0
  -28.8110  -23.9065   26.5921 C   0  0  0  0  0  0  0  0  0  1  0  0
  -31.2445  -21.0716   28.4686 C   0  0  1  0  0  0  0  0  0  0  0  0
  -24.7865  -29.1640   20.6850 C   0  0  1  0  0  0  0  0  0  0  0  0
  -21.2708  -29.0053   22.0938 C   0  0  2  0  0  0  0  0  0  0  0  0
  -29.7949  -23.0780   28.8033 C   0  0  1  0  0  0  0  0  0  0  0  0
  -25.3026  -30.4494   19.9787 C   0  0  0  0  0  0  0  0  0  0  0  0
  -26.6048  -16.1474   20.7950 N   0  0  0  0  0  0  0  0  0  0  0  0
  -30.4643  -20.1057   26.3237 N   0  0  0  0  0  0  0  0  0  0  0  0
  -26.3023  -17.4551   20.8617 N   0  0  0  0  0  0  0  0  0  0  0  0
  -25.9287  -26.9708   20.5891 N   0  0  0  0  0  0  0  0  0  0  0  0
  -29.6063  -18.8878   22.1322 N   0  0  0  0  0  0  0  0  0  0  0  0
  -24.4954  -18.9834   20.7600 N   0  0  0  0  0  0  0  0  0  0  0  0
  -29.0589  -19.1332   29.5417 N   0  0  0  0  0  0  0  0  0  0  0  0
  -22.5002  -14.9717   20.1925 N   0  0  0  0  0  0  0  0  0  0  0  0
  -29.3900  -18.8951   24.4807 N   0  0  0  0  0  0  0  0  0  0  0  0
  -28.2078  -25.6764   18.1684 N   0  0  0  0  0  0  0  0  0  0  0  0
  -23.3424  -29.1339   20.8903 N   0  0  0  0  0  0  0  0  0  0  0  0
  -20.7156  -28.1229   23.1587 N   0  3  0  0  0  0  0  0  0  0  0  0
  -31.0009  -22.5016   28.1462 N   0  3  0  0  0  0  0  0  0  0  0  0
  -22.1353  -17.2326   20.3108 O   0  0  0  0  0  0  0  0  0  0  0  0
  -28.5302  -26.9420   20.0963 O   0  0  0  0  0  0  0  0  0  0  0  0
  -24.7009  -27.7636   18.7724 O   0  0  0  0  0  0  0  0  0  0  0  0
  -23.4182  -28.9047   23.1966 O   0  0  0  0  0  0  0  0  0  0  0  0
  -30.9538  -20.2474   23.4283 O   0  0  0  0  0  0  0  0  0  0  0  0
  -25.0380  -10.0131   20.1141 O   0  0  0  0  0  0  0  0  0  0  0  0
  -28.3408  -25.0885   25.9455 O   0  0  0  0  0  0  0  0  0  1  0  0
  -21.0274   -7.4581   22.9054 F   0  0  0  0  0  0  0  0  0  0  0  0
  -22.3809  -10.6255   19.6587 F   0  0  0  0  0  0  0  0  0  0  0  0
  -28.6060  -18.4325   26.9791 S   0  0  0  0  0  0  0  0  0  0  0  0
  1  2  1  0  0  0  0
  1  5  2  0  0  0  0
  2  6  2  0  0  0  0
  3  8  2  0  0  0  0
  3 15  1  0  0  0  0
  4  9  1  0  0  0  0
  4 15  2  0  0  0  0
  5 17  1  0  0  0  0
  6 19  1  0  0  0  0
  7 10  2  0  0  0  0
  7 18  1  0  0  0  0
  8 21  1  0  0  0  0
  9 21  2  0  0  0  0
 10 22  1  0  0  0  0
 11 12  2  0  0  0  0
 11 23  1  0  0  0  0
 12 24  1  0  0  0  0
 13 20  1  0  0  0  0
 13 22  2  0  0  0  0
 14 24  2  0  0  0  0
 14 25  1  0  0  0  0
 15 26  1  0  0  0  0
 16 26  1  0  0  0  0
 16 28  2  0  0  0  0
 16 31  1  0  0  0  0
 17 19  2  0  0  0  0
 17 36  1  0  0  0  0
 18 20  2  0  0  0  0
 18 37  1  0  0  0  0
 19 45  1  0  0  0  0
 20 38  1  0  0  0  0
 21 80  1  0  0  0  0
 22 81  1  0  0  0  0
 23 25  2  0  0  0  0
 23 80  1  0  0  0  0
 24 82  1  0  0  0  0
 25 83  1  0  0  0  0
 26 62  2  0  0  0  0
 27 29  2  0  0  0  0
 27 57  1  0  0  0  0
 27 63  1  0  0  0  0
 28 64  1  0  0  0  0
 28 67  1  0  0  0  0
 29 68  1  0  0  0  0
 29 84  1  0  0  0  0
 30 63  2  0  0  0  0
 30 70  1  0  0  0  0
 30 84  1  0  0  0  0
 31 69  1  0  0  0  0
 31 75  2  0  0  0  0
 32 46  1  0  0  0  0
 32 71  1  0  0  0  0
 32 76  2  0  0  0  0
 33 58  1  0  0  0  0
 33 65  1  0  0  0  0
 33 77  2  0  0  0  0
 34 59  1  0  0  0  0
 34 72  1  0  0  0  0
 34 78  2  0  0  0  0
 35 66  1  0  0  0  0
 35 70  1  0  0  0  0
 35 79  2  0  0  0  0
 36 39  1  0  0  0  0
 37 46  1  0  0  0  0
 38 65  1  0  0  0  0
 39 41  1  0  0  0  0
 40 42  1  0  0  0  0
 40 43  1  0  0  0  0
 41 45  1  0  0  0  0
 42 47  1  0  0  0  0
 43 66  1  0  0  0  0
 44 47  1  0  0  0  0
 44 66  1  0  0  0  0
 45 71  1  0  0  0  0
 46 65  1  0  0  0  0
 47 64  1  0  0  0  0
 48 57  1  0  0  0  0
 49 59  1  0  0  0  0
 50 60  1  0  0  0  0
 51 61  1  0  0  0  0
 52 61  1  0  0  0  0
 53 61  1  0  0  0  0
 54 73  1  0  0  0  0
 55 56  1  0  0  0  0
 55 60  1  0  0  0  0
 56 81  1  0  0  0  0
 57 74  1  0  0  0  0
 58 61  1  0  0  0  0
 58 72  1  0  0  0  0
 59 73  1  0  0  0  0
 60 74  1  0  0  0  0
 62 64  1  0  0  0  0
M  CHG  2  73   1  74   1
M  ISO  4  35 100  56 101  70 100  81 101
M  END
> <Batch ID>
0197

> <Smiles>
CNC(C)C(=O)NC(C(=O)N1Cc2cc([101O:1][101CH2:1]CC(C)NC(C)c3nc([100NH:0][100C:0](=O)N4CCCC(n5nc(-c6ccc(Oc7ccc(F)cc7F)cc6)c(C(N)=O)c5N)C4)sc3N)ccc2CC1C(=O)NC1CCCc2ccccc21)C(C)(C)C

> <Shape>
0.214

> <Color>
0.067

> <Negative vol penalty>
0.000

$$$$
