
  -OEChem-04052305443D

 84 92  0     1  0  0  0  0  0999 V2000
  -20.0508  -26.1704   25.4509 C   0  0  0  0  0  0  0  0  0  0  0  0
  -21.1557  -25.9817   24.6268 C   0  0  0  0  0  0  0  0  0  0  0  0
  -24.6706  -10.4428   23.2204 C   0  0  0  0  0  0  0  0  0  0  0  0
  -24.6289  -12.2332   24.8421 C   0  0  0  0  0  0  0  0  0  0  0  0
  -19.0678  -27.0935   25.0965 C   0  0  0  0  0  0  0  0  0  0  0  0
  -21.2776  -26.7153   23.4472 C   0  0  0  0  0  0  0  0  0  0  0  0
  -25.9451  -28.5640   22.7829 C   0  0  0  0  0  0  0  0  0  0  0  0
  -24.2660   -9.5415   24.2050 C   0  0  0  0  0  0  0  0  0  0  0  0
  -24.2242  -11.3319   25.8267 C   0  0  0  0  0  0  0  0  0  0  0  0
  -26.9211  -27.6797   22.3253 C   0  0  0  0  0  0  0  0  0  0  0  0
  -21.3902   -8.6732   25.7571 C   0  0  0  0  0  0  0  0  0  0  0  0
  -20.3801   -7.7680   25.4317 C   0  0  0  0  0  0  0  0  0  0  0  0
  -26.6570  -28.5532   20.0923 C   0  0  0  0  0  0  0  0  0  0  0  0
  -21.8818   -5.9300   25.8835 C   0  0  0  0  0  0  0  0  0  0  0  0
  -29.6537  -21.2443   18.6021 C   0  0  0  0  0  0  0  0  0  0  0  0
  -27.4827  -20.1359   19.6909 C   0  0  0  0  0  0  0  0  0  0  0  0
  -24.8521  -11.7887   23.5389 C   0  0  0  0  0  0  0  0  0  0  0  0
  -24.4440  -13.4746   21.6684 C   0  0  0  0  0  0  0  0  0  0  0  0
  -19.1826  -27.8457   23.9168 C   0  0  0  0  0  0  0  0  0  0  0  0
  -25.3090  -29.4435   21.8950 C   0  0  0  0  0  0  0  0  0  0  0  0
  -20.2946  -27.6483   23.0760 C   0  0  0  0  0  0  0  0  0  0  0  0
  -25.6752  -29.4494   20.5415 C   0  0  0  0  0  0  0  0  0  0  0  0
  -24.0427   -9.9860   25.5082 C   0  0  0  0  0  0  0  0  0  0  0  0
  -27.2751  -27.6722   20.9793 C   0  0  0  0  0  0  0  0  0  0  0  0
  -22.6461   -8.2069   26.1457 C   0  0  0  0  0  0  0  0  0  0  0  0
  -20.6259   -6.3964   25.4949 C   0  0  0  0  0  0  0  0  0  0  0  0
  -22.8919   -6.8353   26.2089 C   0  0  0  0  0  0  0  0  0  0  0  0
  -25.2706  -12.7201   22.5224 C   0  0  0  0  0  0  0  0  0  0  0  0
  -28.4469  -21.9085   18.6149 C   0  0  0  0  0  0  0  0  0  0  0  0
  -28.6892  -19.4714   19.6774 C   0  0  0  0  0  0  0  0  0  0  0  0
  -25.3186  -14.1973   20.8943 C   0  0  0  0  0  0  0  0  0  0  0  0
  -23.0135  -13.5183   21.5827 C   0  0  0  0  0  0  0  0  0  0  0  0
  -22.3130  -29.8718   20.9232 C   0  0  0  0  0  0  0  0  0  0  0  0
  -23.5834  -32.4453   19.4112 C   0  0  0  0  0  0  0  0  0  0  0  0
  -26.3385  -33.9520   18.0749 C   0  0  0  0  0  0  0  0  0  0  0  0
  -29.8745  -17.3505   20.3432 C   0  0  0  0  0  0  0  0  0  0  0  0
  -18.0711  -28.7975   23.5518 C   0  0  0  0  0  0  0  0  0  0  0  0
  -24.2773  -30.4097   22.4093 C   0  0  0  0  0  0  0  0  0  0  0  0
  -25.0367  -30.3877   19.5514 C   0  0  0  0  0  0  0  0  0  0  0  0
  -18.4616  -29.8052   22.4737 C   0  0  0  0  0  0  0  0  0  0  0  0
  -30.3391  -13.8205   20.3705 C   0  0  0  0  0  0  0  0  0  0  0  0
  -19.1770  -29.1051   21.3226 C   0  0  0  0  0  0  0  0  0  0  0  0
  -28.9939  -13.2816   20.8625 C   0  0  0  0  0  0  0  0  0  0  0  0
  -30.7157  -15.1271   21.0669 C   0  0  0  0  0  0  0  0  0  0  0  0
  -28.3458  -15.6386   21.5041 C   0  0  0  0  0  0  0  0  0  0  0  0
  -20.4748  -28.4430   21.8008 C   0  0  1  0  0  0  0  0  0  0  0  0
  -23.3283  -30.9051   21.3223 C   0  0  1  0  0  0  0  0  0  0  0  0
  -27.8932  -14.3576   20.7844 C   0  0  2  0  0  0  0  0  0  0  0  0
  -27.7264  -22.3721   15.6887 C   0  0  0  0  0  0  0  0  0  0  0  0
  -27.0572  -36.0359   16.8757 C   0  0  0  0  0  0  0  0  0  0  0  0
  -22.3378  -31.3888   16.8340 C   0  0  0  0  0  0  0  0  0  0  0  0
  -23.8425  -32.9296   15.5573 C   0  0  0  0  0  0  0  0  0  0  0  0
  -22.1574  -33.8641   17.1415 C   0  0  0  0  0  0  0  0  0  0  0  0
  -28.1990  -34.7019   20.2510 C   0  0  0  0  0  0  0  0  0  0  0  0
  -27.3351  -23.3201   16.8164 C   0  0  0  0  0  0  0  0  0  0  0  0
  -27.9000  -24.3563   19.0552 C   0  0  0  0  0  0  0  0  0  0  0  0
  -28.3544  -25.5666   21.2192 C   0  0  0  0  0  0  0  0  0  1  0  0
  -28.3232  -23.2963   18.0063 C   0  0  1  0  0  0  0  0  0  0  0  0
  -24.2019  -32.6915   18.0563 C   0  0  1  0  0  0  0  0  0  0  0  0
  -26.8910  -35.3578   18.2267 C   0  0  2  0  0  0  0  0  0  0  0  0
  -28.8628  -24.5081   20.2436 C   0  0  2  0  0  0  0  0  0  0  0  0
  -23.1457  -32.6994   16.9153 C   0  0  0  0  0  0  0  0  0  0  0  0
  -27.3399  -21.3664   19.1598 N   0  0  0  0  0  0  0  0  0  0  0  0
  -29.7964  -20.0137   19.1329 N   0  0  0  0  0  0  0  0  0  0  0  0
  -26.5705  -12.9427   22.3108 N   0  0  0  0  0  0  0  0  0  0  0  0
  -26.5673  -13.8452   21.3150 N   0  0  0  0  0  0  0  0  0  0  0  0
  -24.0289  -31.3091   20.1016 N   0  0  0  0  0  0  0  0  0  0  0  0
  -29.6275  -16.1000   20.9481 N   0  0  0  0  0  0  0  0  0  0  0  0
  -25.1337  -15.0931   19.9015 N   0  0  0  0  0  0  0  0  0  0  0  0
  -22.2670  -12.7119   22.4526 N   0  0  0  0  0  0  0  0  0  0  0  0
  -28.7569  -18.1800   20.2567 N   0  0  0  0  0  0  0  0  0  0  0  0
  -21.5171  -29.4336   21.9643 N   0  0  0  0  0  0  0  0  0  0  0  0
  -24.9634  -33.9303   18.1743 N   0  0  0  0  0  0  0  0  0  0  0  0
  -28.2194  -35.3222   18.9013 N   0  3  0  0  0  0  0  0  0  0  0  0
  -22.4152  -14.2385   20.7479 O   0  0  0  0  0  0  0  0  0  0  0  0
  -22.2549  -29.5008   19.7567 O   0  0  0  0  0  0  0  0  0  0  0  0
  -22.7413  -33.2359   19.8443 O   0  0  0  0  0  0  0  0  0  0  0  0
  -27.0548  -32.9719   17.8834 O   0  0  0  0  0  0  0  0  0  0  0  0
  -30.9888  -17.6519   19.9076 O   0  0  0  0  0  0  0  0  0  0  0  0
  -30.1455  -24.9283   19.7805 O   0  0  0  0  0  0  0  0  0  0  0  0
  -23.6476   -9.1068   26.4692 O   0  0  0  0  0  0  0  0  0  0  0  0
  -28.2269  -26.8096   20.5300 O   0  0  0  0  0  0  0  0  0  1  0  0
  -19.6553   -5.5272   25.1839 F   0  0  0  0  0  0  0  0  0  0  0  0
  -24.0960   -6.3813   26.5826 F   0  0  0  0  0  0  0  0  0  0  0  0
  1  2  1  0  0  0  0
  1  5  2  0  0  0  0
  2  6  2  0  0  0  0
  3  8  2  0  0  0  0
  3 17  1  0  0  0  0
  4  9  1  0  0  0  0
  4 17  2  0  0  0  0
  5 19  1  0  0  0  0
  6 21  1  0  0  0  0
  7 10  2  0  0  0  0
  7 20  1  0  0  0  0
  8 23  1  0  0  0  0
  9 23  2  0  0  0  0
 10 24  1  0  0  0  0
 11 12  2  0  0  0  0
 11 25  1  0  0  0  0
 12 26  1  0  0  0  0
 13 22  1  0  0  0  0
 13 24  2  0  0  0  0
 14 26  2  0  0  0  0
 14 27  1  0  0  0  0
 15 29  1  0  0  0  0
 15 64  2  0  0  0  0
 16 30  2  0  0  0  0
 16 63  1  0  0  0  0
 17 28  1  0  0  0  0
 18 28  1  0  0  0  0
 18 31  2  0  0  0  0
 18 32  1  0  0  0  0
 19 21  2  0  0  0  0
 19 37  1  0  0  0  0
 20 22  2  0  0  0  0
 20 38  1  0  0  0  0
 21 46  1  0  0  0  0
 22 39  1  0  0  0  0
 23 81  1  0  0  0  0
 24 82  1  0  0  0  0
 25 27  2  0  0  0  0
 25 81  1  0  0  0  0
 26 83  1  0  0  0  0
 27 84  1  0  0  0  0
 28 65  2  0  0  0  0
 29 58  1  0  0  0  0
 29 63  2  0  0  0  0
 30 64  1  0  0  0  0
 30 71  1  0  0  0  0
 31 66  1  0  0  0  0
 31 69  1  0  0  0  0
 32 70  1  0  0  0  0
 32 75  2  0  0  0  0
 33 47  1  0  0  0  0
 33 72  1  0  0  0  0
 33 76  2  0  0  0  0
 34 59  1  0  0  0  0
 34 67  1  0  0  0  0
 34 77  2  0  0  0  0
 35 60  1  0  0  0  0
 35 73  1  0  0  0  0
 35 78  2  0  0  0  0
 36 68  1  0  0  0  0
 36 71  1  0  0  0  0
 36 79  2  0  0  0  0
 37 40  1  0  0  0  0
 38 47  1  0  0  0  0
 39 67  1  0  0  0  0
 40 42  1  0  0  0  0
 41 43  1  0  0  0  0
 41 44  1  0  0  0  0
 42 46  1  0  0  0  0
 43 48  1  0  0  0  0
 44 68  1  0  0  0  0
 45 48  1  0  0  0  0
 45 68  1  0  0  0  0
 46 72  1  0  0  0  0
 47 67  1  0  0  0  0
 48 66  1  0  0  0  0
 49 55  1  0  0  0  0
 50 60  1  0  0  0  0
 51 62  1  0  0  0  0
 52 62  1  0  0  0  0
 53 62  1  0  0  0  0
 54 74  1  0  0  0  0
 55 58  1  0  0  0  0
 56 58  1  0  0  0  0
 56 61  1  0  0  0  0
 57 61  1  0  0  0  0
 57 82  1  0  0  0  0
 59 62  1  0  0  0  0
 59 73  1  0  0  0  0
 60 74  1  0  0  0  0
 61 80  1  0  0  0  0
 65 66  1  0  0  0  0
M  CHG  1  74   1
M  ISO  4  36 100  57 101  71 100  82 101
M  END
> <Batch ID>
0198

> <Smiles>
CCC(CC(O)[101CH2:1][101O:1]c1ccc2c(c1)CN(C(=O)C(NC(=O)C(C)NC)C(C)(C)C)C(C(=O)NC1CCCc3ccccc31)C2)c1cnc([100NH:0][100C:0](=O)N2CCCC(n3nc(-c4ccc(Oc5ccc(F)cc5F)cc4)c(C(N)=O)c3N)C2)cn1

> <Shape>
0.244

> <Color>
0.155

> <Negative vol penalty>
0.000

$$$$

  -OEChem-04052305443D

 81 89  0     1  0  0  0  0  0999 V2000
  -17.6719  -30.5164   20.2755 C   0  0  0  0  0  0  0  0  0  0  0  0
  -19.0401  -30.5218   20.0235 C   0  0  0  0  0  0  0  0  0  0  0  0
  -26.5186  -12.9076   18.8866 C   0  0  0  0  0  0  0  0  0  0  0  0
  -26.3249  -12.8577   21.2943 C   0  0  0  0  0  0  0  0  0  0  0  0
  -17.1474  -29.6708   21.2521 C   0  0  0  0  0  0  0  0  0  0  0  0
  -19.8848  -29.6823   20.7489 C   0  0  0  0  0  0  0  0  0  0  0  0
  -24.9425  -26.8949   18.7103 C   0  0  0  0  0  0  0  0  0  0  0  0
  -25.2904  -12.2560   18.7743 C   0  0  0  0  0  0  0  0  0  0  0  0
  -25.0967  -12.2061   21.1820 C   0  0  0  0  0  0  0  0  0  0  0  0
  -26.2962  -27.2103   18.8197 C   0  0  0  0  0  0  0  0  0  0  0  0
  -23.9862   -9.0702   20.5791 C   0  0  0  0  0  0  0  0  0  0  0  0
  -23.7543   -7.9764   21.4129 C   0  0  0  0  0  0  0  0  0  0  0  0
  -26.4772  -25.7454   20.7276 C   0  0  0  0  0  0  0  0  0  0  0  0
  -21.8494   -9.1115   22.3722 C   0  0  0  0  0  0  0  0  0  0  0  0
  -29.2733  -22.5881   16.9108 C   0  0  0  0  0  0  0  0  0  0  0  0
  -27.0359  -13.2084   20.1467 C   0  0  0  0  0  0  0  0  0  0  0  0
  -29.5523  -13.4303   19.7920 C   0  0  0  0  0  0  0  0  0  0  0  0
  -17.9849  -28.8135   21.9831 C   0  0  0  0  0  0  0  0  0  0  0  0
  -24.3425  -26.0093   19.6170 C   0  0  0  0  0  0  0  0  0  0  0  0
  -19.3712  -28.8254   21.7371 C   0  0  0  0  0  0  0  0  0  0  0  0
  -25.1163  -25.4184   20.6261 C   0  0  0  0  0  0  0  0  0  0  0  0
  -24.5795  -11.9053   19.9220 C   0  0  0  0  0  0  0  0  0  0  0  0
  -27.0631  -26.6378   19.8302 C   0  0  0  0  0  0  0  0  0  0  0  0
  -23.1498  -10.1848   20.6418 C   0  0  0  0  0  0  0  0  0  0  0  0
  -22.6859   -7.9970   22.3095 C   0  0  0  0  0  0  0  0  0  0  0  0
  -22.0814  -10.2054   21.5384 C   0  0  0  0  0  0  0  0  0  0  0  0
  -28.3048  -13.8810   20.2633 C   0  0  0  0  0  0  0  0  0  0  0  0
  -29.7761  -23.2716   17.9980 C   0  0  0  0  0  0  0  0  0  0  0  0
  -30.4330  -14.4218   20.1493 C   0  0  0  0  0  0  0  0  0  0  0  0
  -29.4686  -21.3195   18.9492 C   0  0  0  0  0  0  0  0  0  0  0  0
  -29.8853  -12.2233   19.0934 C   0  0  0  0  0  0  0  0  0  0  0  0
  -22.0056  -26.2346   21.7598 C   0  0  0  0  0  0  0  0  0  0  0  0
  -22.4746  -23.0364   22.0316 C   0  0  0  0  0  0  0  0  0  0  0  0
  -24.5783  -20.3749   21.6610 C   0  0  0  0  0  0  0  0  0  0  0  0
  -29.7873  -20.2658   21.2151 C   0  0  0  0  0  0  0  0  0  0  0  0
  -17.3779  -27.9515   23.0616 C   0  0  0  0  0  0  0  0  0  0  0  0
  -22.8873  -25.6588   19.4692 C   0  0  0  0  0  0  0  0  0  0  0  0
  -24.5246  -24.4460   21.6123 C   0  0  0  0  0  0  0  0  0  0  0  0
  -18.2936  -26.8217   23.5257 C   0  0  0  0  0  0  0  0  0  0  0  0
  -31.1010  -17.8259   23.4508 C   0  0  0  0  0  0  0  0  0  0  0  0
  -19.7047  -27.3457   23.7731 C   0  0  0  0  0  0  0  0  0  0  0  0
  -30.6517  -16.4962   22.8409 C   0  0  0  0  0  0  0  0  0  0  0  0
  -30.0409  -18.9132   23.2842 C   0  0  0  0  0  0  0  0  0  0  0  0
  -29.1185  -17.7836   21.2987 C   0  0  0  0  0  0  0  0  0  0  0  0
  -20.3167  -27.9113   22.4858 C   0  0  1  0  0  0  0  0  0  0  0  0
  -22.2630  -25.1415   20.7615 C   0  0  1  0  0  0  0  0  0  0  0  0
  -30.1801  -16.6749   21.3845 C   0  0  2  0  0  0  0  0  0  0  0  0
  -24.6917  -17.8912   22.0013 C   0  0  0  0  0  0  0  0  0  0  0  0
  -32.1438  -24.9418   19.2839 C   0  0  0  0  0  0  0  0  0  0  0  0
  -22.7953  -23.4651   25.0354 C   0  0  0  0  0  0  0  0  0  0  0  0
  -23.8241  -21.1872   25.1802 C   0  0  0  0  0  0  0  0  0  0  0  0
  -21.4664  -21.4420   24.4064 C   0  0  0  0  0  0  0  0  0  0  0  0
  -25.0414  -19.8843   18.7793 C   0  0  0  0  0  0  0  0  0  0  0  0
  -30.5313  -26.8325   18.8712 C   0  0  0  0  0  0  0  0  0  0  0  0
  -29.0769  -27.2722   18.7357 C   0  0  0  0  0  0  0  0  0  1  0  0
  -23.3546  -22.1534   22.8830 C   0  0  1  0  0  0  0  0  0  0  0  0
  -24.3761  -19.0122   21.0233 C   0  0  2  0  0  0  0  0  0  0  0  0
  -30.6794  -25.3239   19.0924 C   0  0  1  0  0  0  0  0  0  0  0  0
  -22.8711  -22.0817   24.3590 C   0  0  0  0  0  0  0  0  0  0  0  0
  -28.3819  -15.0665   20.8738 N   0  0  0  0  0  0  0  0  0  0  0  0
  -29.8885  -22.5459   19.1679 N   0  0  0  0  0  0  0  0  0  0  0  0
  -29.6885  -15.3691   20.7885 N   0  0  0  0  0  0  0  0  0  0  0  0
  -23.0961  -24.1400   21.4302 N   0  0  0  0  0  0  0  0  0  0  0  0
  -29.6458  -19.0288   21.8787 N   0  0  0  0  0  0  0  0  0  0  0  0
  -31.7639  -14.5670   19.9762 N   0  0  0  0  0  0  0  0  0  0  0  0
  -30.2420  -11.0941   19.8432 N   0  0  0  0  0  0  0  0  0  0  0  0
  -30.1527  -24.6020   17.9531 N   0  0  0  0  0  0  0  0  0  0  0  0
  -29.4100  -20.2466   19.8728 N   0  0  0  0  0  0  0  0  0  0  0  0
  -20.7694  -26.8378   21.6273 N   0  0  0  0  0  0  0  0  0  0  0  0
  -23.4101  -20.8608   22.2090 N   0  0  0  0  0  0  0  0  0  0  0  0
  -25.2605  -18.8607   19.8334 N   0  3  0  0  0  0  0  0  0  0  0  0
  -29.8830  -12.1530   17.8410 O   0  0  0  0  0  0  0  0  0  0  0  0
  -22.8642  -26.5093   22.5898 O   0  0  0  0  0  0  0  0  0  0  0  0
  -21.2813  -22.7531   21.8989 O   0  0  0  0  0  0  0  0  0  0  0  0
  -25.6649  -20.9490   21.6750 O   0  0  0  0  0  0  0  0  0  0  0  0
  -30.2376  -21.2616   21.7876 O   0  0  0  0  0  0  0  0  0  0  0  0
  -23.3809  -11.2696   19.8128 O   0  0  0  0  0  0  0  0  0  0  0  0
  -28.3844  -26.9444   19.9396 O   0  0  0  0  0  0  0  0  0  1  0  0
  -22.4624   -6.9459   23.1091 F   0  0  0  0  0  0  0  0  0  0  0  0
  -21.2738  -11.2728   21.6024 F   0  0  0  0  0  0  0  0  0  0  0  0
  -28.9253  -20.9698   17.3594 S   0  0  0  0  0  0  0  0  0  0  0  0
  1  2  1  0  0  0  0
  1  5  2  0  0  0  0
  2  6  2  0  0  0  0
  3  8  2  0  0  0  0
  3 16  1  0  0  0  0
  4  9  1  0  0  0  0
  4 16  2  0  0  0  0
  5 18  1  0  0  0  0
  6 20  1  0  0  0  0
  7 10  2  0  0  0  0
  7 19  1  0  0  0  0
  8 22  1  0  0  0  0
  9 22  2  0  0  0  0
 10 23  1  0  0  0  0
 11 12  2  0  0  0  0
 11 24  1  0  0  0  0
 12 25  1  0  0  0  0
 13 21  1  0  0  0  0
 13 23  2  0  0  0  0
 14 25  2  0  0  0  0
 14 26  1  0  0  0  0
 15 28  2  0  0  0  0
 15 81  1  0  0  0  0
 16 27  1  0  0  0  0
 17 27  1  0  0  0  0
 17 29  2  0  0  0  0
 17 31  1  0  0  0  0
 18 20  2  0  0  0  0
 18 36  1  0  0  0  0
 19 21  2  0  0  0  0
 19 37  1  0  0  0  0
 20 45  1  0  0  0  0
 21 38  1  0  0  0  0
 22 77  1  0  0  0  0
 23 78  1  0  0  0  0
 24 26  2  0  0  0  0
 24 77  1  0  0  0  0
 25 79  1  0  0  0  0
 26 80  1  0  0  0  0
 27 60  2  0  0  0  0
 28 61  1  0  0  0  0
 28 67  1  0  0  0  0
 29 62  1  0  0  0  0
 29 65  1  0  0  0  0
 30 61  2  0  0  0  0
 30 68  1  0  0  0  0
 30 81  1  0  0  0  0
 31 66  1  0  0  0  0
 31 72  2  0  0  0  0
 32 46  1  0  0  0  0
 32 69  1  0  0  0  0
 32 73  2  0  0  0  0
 33 56  1  0  0  0  0
 33 63  1  0  0  0  0
 33 74  2  0  0  0  0
 34 57  1  0  0  0  0
 34 70  1  0  0  0  0
 34 75  2  0  0  0  0
 35 64  1  0  0  0  0
 35 68  1  0  0  0  0
 35 76  2  0  0  0  0
 36 39  1  0  0  0  0
 37 46  1  0  0  0  0
 38 63  1  0  0  0  0
 39 41  1  0  0  0  0
 40 42  1  0  0  0  0
 40 43  1  0  0  0  0
 41 45  1  0  0  0  0
 42 47  1  0  0  0  0
 43 64  1  0  0  0  0
 44 47  1  0  0  0  0
 44 64  1  0  0  0  0
 45 69  1  0  0  0  0
 46 63  1  0  0  0  0
 47 62  1  0  0  0  0
 48 57  1  0  0  0  0
 49 58  1  0  0  0  0
 50 59  1  0  0  0  0
 51 59  1  0  0  0  0
 52 59  1  0  0  0  0
 53 71  1  0  0  0  0
 54 55  1  0  0  0  0
 54 58  1  0  0  0  0
 55 78  1  0  0  0  0
 56 59  1  0  0  0  0
 56 70  1  0  0  0  0
 57 71  1  0  0  0  0
 58 67  1  0  0  0  0
 60 62  1  0  0  0  0
M  CHG  1  71   1
M  ISO  4  35 100  55 101  68 100  78 101
M  END
> <Batch ID>
0198

> <Smiles>
CNC(C)C(=O)NC(C(=O)N1Cc2cc([101O:1][101CH2:1]CC(C)Nc3csc([100NH:0][100C:0](=O)N4CCCC(n5nc(-c6ccc(Oc7ccc(F)cc7F)cc6)c(C(N)=O)c5N)C4)n3)ccc2CC1C(=O)NC1CCCc2ccccc21)C(C)(C)C

> <Shape>
0.269

> <Color>
0.085

> <Negative vol penalty>
0.000

$$$$

  -OEChem-04052305443D

 81 89  0     1  0  0  0  0  0999 V2000
  -23.0481   -4.8554   28.5835 C   0  0  0  0  0  0  0  0  0  0  0  0
  -24.3334   -5.2749   28.2557 C   0  0  0  0  0  0  0  0  0  0  0  0
  -23.1930   -9.8181   19.9307 C   0  0  0  0  0  0  0  0  0  0  0  0
  -23.5684   -9.9994   22.3105 C   0  0  0  0  0  0  0  0  0  0  0  0
  -22.6776   -4.7284   29.9216 C   0  0  0  0  0  0  0  0  0  0  0  0
  -25.2486   -5.5687   29.2659 C   0  0  0  0  0  0  0  0  0  0  0  0
  -29.8286   -3.6026   28.3698 C   0  0  0  0  0  0  0  0  0  0  0  0
  -22.4270   -8.6711   20.1389 C   0  0  0  0  0  0  0  0  0  0  0  0
  -22.8023   -8.8524   22.5187 C   0  0  0  0  0  0  0  0  0  0  0  0
  -30.6390   -4.2690   27.4516 C   0  0  0  0  0  0  0  0  0  0  0  0
  -23.2054   -5.5058   22.2561 C   0  0  0  0  0  0  0  0  0  0  0  0
  -23.7032   -4.5450   23.1362 C   0  0  0  0  0  0  0  0  0  0  0  0
  -31.8439   -5.2975   29.2709 C   0  0  0  0  0  0  0  0  0  0  0  0
  -21.7448   -4.8045   24.5271 C   0  0  0  0  0  0  0  0  0  0  0  0
  -31.5033  -10.7158   25.1370 C   0  0  0  0  0  0  0  0  0  0  0  0
  -33.6922  -10.4603   25.1450 C   0  0  0  0  0  0  0  0  0  0  0  0
  -23.7637  -10.4822   21.0165 C   0  0  0  0  0  0  0  0  0  0  0  0
  -24.1015  -12.9989   20.7724 C   0  0  0  0  0  0  0  0  0  0  0  0
  -23.5918   -5.0114   30.9487 C   0  0  0  0  0  0  0  0  0  0  0  0
  -30.0130   -3.7875   29.7475 C   0  0  0  0  0  0  0  0  0  0  0  0
  -24.8896   -5.4466   30.6190 C   0  0  0  0  0  0  0  0  0  0  0  0
  -31.0362   -4.6304   30.2044 C   0  0  0  0  0  0  0  0  0  0  0  0
  -22.2317   -8.1883   21.4328 C   0  0  0  0  0  0  0  0  0  0  0  0
  -31.6450   -5.1188   27.9021 C   0  0  0  0  0  0  0  0  0  0  0  0
  -21.9773   -6.1161   22.5115 C   0  0  0  0  0  0  0  0  0  0  0  0
  -22.9729   -4.1943   24.2717 C   0  0  0  0  0  0  0  0  0  0  0  0
  -21.2470   -5.7654   23.6470 C   0  0  0  0  0  0  0  0  0  0  0  0
  -24.5555  -11.6667   20.8021 C   0  0  0  0  0  0  0  0  0  0  0  0
  -32.1375  -11.7941   24.5665 C   0  0  0  0  0  0  0  0  0  0  0  0
  -25.2326  -13.7421   20.5382 C   0  0  0  0  0  0  0  0  0  0  0  0
  -22.7758  -13.5183   20.9415 C   0  0  0  0  0  0  0  0  0  0  0  0
  -28.2284   -4.9320   32.1158 C   0  0  0  0  0  0  0  0  0  0  0  0
  -30.7080   -3.9261   33.9494 C   0  0  0  0  0  0  0  0  0  0  0  0
  -34.0224   -3.1410   34.1619 C   0  0  0  0  0  0  0  0  0  0  0  0
  -31.0466  -12.7552   21.5746 C   0  0  0  0  0  0  0  0  0  0  0  0
  -23.1306   -4.9049   32.3807 C   0  0  0  0  0  0  0  0  0  0  0  0
  -29.1477   -3.0406   30.7253 C   0  0  0  0  0  0  0  0  0  0  0  0
  -31.2883   -4.8472   31.6734 C   0  0  0  0  0  0  0  0  0  0  0  0
  -24.2764   -4.8756   33.3890 C   0  0  0  0  0  0  0  0  0  0  0  0
  -29.5226  -13.4710   18.4374 C   0  0  0  0  0  0  0  0  0  0  0  0
  -25.2954   -5.9652   33.0709 C   0  0  0  0  0  0  0  0  0  0  0  0
  -28.0358  -13.2099   18.6850 C   0  0  0  0  0  0  0  0  0  0  0  0
  -30.4035  -12.4822   19.1980 C   0  0  0  0  0  0  0  0  0  0  0  0
  -28.6481  -12.1391   20.8935 C   0  0  0  0  0  0  0  0  0  0  0  0
  -25.9184   -5.7508   31.6863 C   0  0  1  0  0  0  0  0  0  0  0  0
  -29.0908   -3.7017   32.0990 C   0  0  1  0  0  0  0  0  0  0  0  0
  -27.7210  -13.1462   20.1917 C   0  0  2  0  0  0  0  0  0  0  0  0
  -35.7672   -2.3875   35.8006 C   0  0  0  0  0  0  0  0  0  0  0  0
  -30.8236   -6.7424   35.1176 C   0  0  0  0  0  0  0  0  0  0  0  0
  -33.1071   -6.2096   35.9950 C   0  0  0  0  0  0  0  0  0  0  0  0
  -31.1331   -4.9068   36.7877 C   0  0  0  0  0  0  0  0  0  0  0  0
  -34.5408   -0.6541   32.6435 C   0  0  0  0  0  0  0  0  0  0  0  0
  -31.5338  -13.0074   23.9949 C   0  0  0  0  0  0  0  0  0  0  0  0
  -32.3541   -8.5303   26.1830 C   0  0  0  0  0  0  0  0  0  0  0  0
  -31.8584   -6.0978   25.7452 C   0  0  0  0  0  0  0  0  0  1  0  0
  -31.9954   -4.5442   34.4388 C   0  0  1  0  0  0  0  0  0  0  0  0
  -34.7381   -1.9486   34.7705 C   0  0  2  0  0  0  0  0  0  0  0  0
  -32.5264   -7.3607   25.2082 C   0  0  2  0  0  0  0  0  0  0  0  0
  -31.7590   -5.5984   35.5570 C   0  0  0  0  0  0  0  0  0  0  0  0
  -33.5000  -11.6288   24.5742 N   0  0  0  0  0  0  0  0  0  0  0  0
  -25.8724  -11.5662   20.6025 N   0  0  0  0  0  0  0  0  0  0  0  0
  -32.5121   -9.8695   25.5023 N   0  0  0  0  0  0  0  0  0  0  0  0
  -26.2555  -12.8447   20.4451 N   0  0  0  0  0  0  0  0  0  0  0  0
  -30.4118   -4.0995   32.5900 N   0  0  0  0  0  0  0  0  0  0  0  0
  -30.0553  -12.4713   20.6208 N   0  0  0  0  0  0  0  0  0  0  0  0
  -25.4420  -15.0690   20.4048 N   0  0  0  0  0  0  0  0  0  0  0  0
  -21.7293  -12.6156   21.1746 N   0  0  0  0  0  0  0  0  0  0  0  0
  -26.9185   -4.7060   31.7383 N   0  0  0  0  0  0  0  0  0  0  0  0
  -32.8558   -3.4349   34.8357 N   0  0  0  0  0  0  0  0  0  0  0  0
  -30.6309  -12.7301   22.9002 N   0  0  0  0  0  0  0  0  0  0  0  0
  -35.4373   -1.1680   33.7109 N   0  3  0  0  0  0  0  0  0  0  0  0
  -22.5241  -14.7451   20.8712 O   0  0  0  0  0  0  0  0  0  0  0  0
  -28.7149   -6.0064   32.4482 O   0  0  0  0  0  0  0  0  0  0  0  0
  -29.9952   -3.3059   34.7424 O   0  0  0  0  0  0  0  0  0  0  0  0
  -34.4569   -3.7531   33.1887 O   0  0  0  0  0  0  0  0  0  0  0  0
  -32.2144  -13.0173   21.2672 O   0  0  0  0  0  0  0  0  0  0  0  0
  -33.9233   -7.1006   25.0532 O   0  0  0  0  0  0  0  0  0  0  0  0
  -21.4841   -7.0692   21.6364 O   0  0  0  0  0  0  0  0  0  0  0  0
  -32.4370   -5.7710   27.0081 O   0  0  0  0  0  0  0  0  0  1  0  0
  -23.4503   -3.2705   25.1159 F   0  0  0  0  0  0  0  0  0  0  0  0
  -20.0661   -6.3473   23.8971 F   0  0  0  0  0  0  0  0  0  0  0  0
  1  2  1  0  0  0  0
  1  5  2  0  0  0  0
  2  6  2  0  0  0  0
  3  8  2  0  0  0  0
  3 17  1  0  0  0  0
  4  9  1  0  0  0  0
  4 17  2  0  0  0  0
  5 19  1  0  0  0  0
  6 21  1  0  0  0  0
  7 10  2  0  0  0  0
  7 20  1  0  0  0  0
  8 23  1  0  0  0  0
  9 23  2  0  0  0  0
 10 24  1  0  0  0  0
 11 12  2  0  0  0  0
 11 25  1  0  0  0  0
 12 26  1  0  0  0  0
 13 22  1  0  0  0  0
 13 24  2  0  0  0  0
 14 26  2  0  0  0  0
 14 27  1  0  0  0  0
 15 29  2  0  0  0  0
 15 62  1  0  0  0  0
 16 60  2  0  0  0  0
 16 62  1  0  0  0  0
 17 28  1  0  0  0  0
 18 28  1  0  0  0  0
 18 30  2  0  0  0  0
 18 31  1  0  0  0  0
 19 21  2  0  0  0  0
 19 36  1  0  0  0  0
 20 22  2  0  0  0  0
 20 37  1  0  0  0  0
 21 45  1  0  0  0  0
 22 38  1  0  0  0  0
 23 78  1  0  0  0  0
 24 79  1  0  0  0  0
 25 27  2  0  0  0  0
 25 78  1  0  0  0  0
 26 80  1  0  0  0  0
 27 81  1  0  0  0  0
 28 61  2  0  0  0  0
 29 53  1  0  0  0  0
 29 60  1  0  0  0  0
 30 63  1  0  0  0  0
 30 66  1  0  0  0  0
 31 67  1  0  0  0  0
 31 72  2  0  0  0  0
 32 46  1  0  0  0  0
 32 68  1  0  0  0  0
 32 73  2  0  0  0  0
 33 56  1  0  0  0  0
 33 64  1  0  0  0  0
 33 74  2  0  0  0  0
 34 57  1  0  0  0  0
 34 69  1  0  0  0  0
 34 75  2  0  0  0  0
 35 65  1  0  0  0  0
 35 70  1  0  0  0  0
 35 76  2  0  0  0  0
 36 39  1  0  0  0  0
 37 46  1  0  0  0  0
 38 64  1  0  0  0  0
 39 41  1  0  0  0  0
 40 42  1  0  0  0  0
 40 43  1  0  0  0  0
 41 45  1  0  0  0  0
 42 47  1  0  0  0  0
 43 65  1  0  0  0  0
 44 47  1  0  0  0  0
 44 65  1  0  0  0  0
 45 68  1  0  0  0  0
 46 64  1  0  0  0  0
 47 63  1  0  0  0  0
 48 57  1  0  0  0  0
 49 59  1  0  0  0  0
 50 59  1  0  0  0  0
 51 59  1  0  0  0  0
 52 71  1  0  0  0  0
 53 70  1  0  0  0  0
 54 58  1  0  0  0  0
 54 62  1  0  0  0  0
 55 58  1  0  0  0  0
 55 79  1  0  0  0  0
 56 59  1  0  0  0  0
 56 69  1  0  0  0  0
 57 71  1  0  0  0  0
 58 77  1  0  0  0  0
 61 63  1  0  0  0  0
M  CHG  1  71   1
M  ISO  4  35 100  55 101  70 100  79 101
M  END
> <Batch ID>
0198

> <Smiles>
CNC(C)C(=O)NC(C(=O)N1Cc2cc([101O:1][101CH2:1]C(O)Cn3cnc(C[100NH:0][100C:0](=O)N4CCCC(n5nc(-c6ccc(Oc7ccc(F)cc7F)cc6)c(C(N)=O)c5N)C4)c3)ccc2CC1C(=O)NC1CCCc2ccccc21)C(C)(C)C

> <Shape>
0.141

> <Color>
0.175

> <Negative vol penalty>
0.000

$$$$

  -OEChem-04052305443D

 83 91  0     1  0  0  0  0  0999 V2000
  -18.7073  -25.1370   22.1886 C   0  0  0  0  0  0  0  0  0  0  0  0
  -19.9702  -25.3005   21.6283 C   0  0  0  0  0  0  0  0  0  0  0  0
  -26.1081  -12.5327   21.3742 C   0  0  0  0  0  0  0  0  0  0  0  0
  -25.3073  -13.4747   19.2985 C   0  0  0  0  0  0  0  0  0  0  0  0
  -17.9518  -26.2549   22.5400 C   0  0  0  0  0  0  0  0  0  0  0  0
  -20.4778  -26.5821   21.4181 C   0  0  0  0  0  0  0  0  0  0  0  0
  -25.3080  -27.0215   22.8745 C   0  0  0  0  0  0  0  0  0  0  0  0
  -25.6253  -11.2810   20.9925 C   0  0  0  0  0  0  0  0  0  0  0  0
  -24.8246  -12.2229   18.9167 C   0  0  0  0  0  0  0  0  0  0  0  0
  -26.2803  -26.5040   22.0198 C   0  0  0  0  0  0  0  0  0  0  0  0
  -24.2841   -7.9119   20.7203 C   0  0  0  0  0  0  0  0  0  0  0  0
  -23.5833   -7.1683   21.6698 C   0  0  0  0  0  0  0  0  0  0  0  0
  -26.7171  -28.7237   21.1825 C   0  0  0  0  0  0  0  0  0  0  0  0
  -21.9467   -8.9366   21.8469 C   0  0  0  0  0  0  0  0  0  0  0  0
  -24.2346  -23.8362   20.4055 C   0  0  0  0  0  0  0  0  0  0  0  0
  -25.9490  -13.6296   20.5273 C   0  0  0  0  0  0  0  0  0  0  0  0
  -27.7259  -15.4545   20.6689 C   0  0  0  0  0  0  0  0  0  0  0  0
  -18.4544  -27.5507   22.3429 C   0  0  0  0  0  0  0  0  0  0  0  0
  -25.0248  -28.3949   22.8818 C   0  0  0  0  0  0  0  0  0  0  0  0
  -19.7278  -27.7184   21.7659 C   0  0  0  0  0  0  0  0  0  0  0  0
  -25.7425  -29.2565   22.0400 C   0  0  0  0  0  0  0  0  0  0  0  0
  -24.9836  -11.1261   19.7637 C   0  0  0  0  0  0  0  0  0  0  0  0
  -26.9831  -27.3547   21.1715 C   0  0  0  0  0  0  0  0  0  0  0  0
  -23.8162   -9.1680   20.3341 C   0  0  0  0  0  0  0  0  0  0  0  0
  -22.4146   -7.6806   22.2330 C   0  0  0  0  0  0  0  0  0  0  0  0
  -22.6474   -9.6803   20.8974 C   0  0  0  0  0  0  0  0  0  0  0  0
  -26.4470  -14.9230   20.9213 C   0  0  0  0  0  0  0  0  0  0  0  0
  -27.6992  -16.7014   21.2441 C   0  0  0  0  0  0  0  0  0  0  0  0
  -24.6172  -22.5501   20.0865 C   0  0  0  0  0  0  0  0  0  0  0  0
  -24.9431  -24.2001   18.3621 C   0  0  0  0  0  0  0  0  0  0  0  0
  -28.8386  -14.8731   19.9763 C   0  0  0  0  0  0  0  0  0  0  0  0
  -22.4604  -30.1599   22.2396 C   0  0  0  0  0  0  0  0  0  0  0  0
  -24.3372  -32.5780   23.3132 C   0  0  0  0  0  0  0  0  0  0  0  0
  -27.4845  -33.7766   23.8655 C   0  0  0  0  0  0  0  0  0  0  0  0
  -24.1208  -21.1497   22.1209 C   0  0  0  0  0  0  0  0  0  0  0  0
  -17.5816  -28.7292   22.6948 C   0  0  0  0  0  0  0  0  0  0  0  0
  -23.9917  -28.9410   23.8288 C   0  0  0  0  0  0  0  0  0  0  0  0
  -25.4906  -30.7413   22.0241 C   0  0  0  0  0  0  0  0  0  0  0  0
  -18.3457  -30.0476   22.7853 C   0  0  0  0  0  0  0  0  0  0  0  0
  -24.9409  -18.8720   24.7318 C   0  0  0  0  0  0  0  0  0  0  0  0
  -19.2742  -30.2099   21.5860 C   0  0  0  0  0  0  0  0  0  0  0  0
  -25.5382  -17.6726   23.9922 C   0  0  0  0  0  0  0  0  0  0  0  0
  -23.7887  -19.5027   23.9518 C   0  0  0  0  0  0  0  0  0  0  0  0
  -24.6992  -18.6613   21.8230 C   0  0  0  0  0  0  0  0  0  0  0  0
  -20.3231  -29.0920   21.5452 C   0  0  1  0  0  0  0  0  0  0  0  0
  -23.4255  -30.2861   23.3844 C   0  0  1  0  0  0  0  0  0  0  0  0
  -25.9055  -18.0324   22.5392 C   0  0  2  0  0  0  0  0  0  0  0  0
  -24.0859  -25.5955   16.4356 C   0  0  0  0  0  0  0  0  0  0  0  0
  -28.7007  -35.7996   24.7175 C   0  0  0  0  0  0  0  0  0  0  0  0
  -28.1828  -24.3771   16.8200 C   0  0  0  0  0  0  0  0  0  0  0  0
  -23.7391  -34.0352   20.6999 C   0  0  0  0  0  0  0  0  0  0  0  0
  -25.6760  -35.5470   21.1806 C   0  0  0  0  0  0  0  0  0  0  0  0
  -23.7243  -35.4912   22.7332 C   0  0  0  0  0  0  0  0  0  0  0  0
  -28.7503  -32.2375   26.0537 C   0  0  0  0  0  0  0  0  0  0  0  0
  -28.6159  -26.5357   18.0582 C   0  0  0  0  0  0  0  0  0  0  0  0
  -28.1424  -27.5399   19.1033 C   0  0  0  0  0  0  0  0  0  1  0  0
  -25.2919  -24.9124   17.0756 C   0  0  1  0  0  0  0  0  0  0  0  0
  -25.3204  -33.5312   22.6777 C   0  0  1  0  0  0  0  0  0  0  0  0
  -28.1096  -34.4451   25.0766 C   0  0  2  0  0  0  0  0  0  0  0  0
  -27.6300  -25.3920   17.8118 C   0  0  1  0  0  0  0  0  0  0  0  0
  -24.6186  -34.6229   21.8215 C   0  0  0  0  0  0  0  0  0  0  0  0
  -24.4211  -24.7838   19.4180 N   0  0  0  0  0  0  0  0  0  0  0  0
  -25.6648  -15.7634   21.6038 N   0  0  0  0  0  0  0  0  0  0  0  0
  -26.4544  -16.8357   21.7853 N   0  0  0  0  0  0  0  0  0  0  0  0
  -24.4663  -31.2263   22.9638 N   0  0  0  0  0  0  0  0  0  0  0  0
  -24.2114  -19.8208   22.5862 N   0  0  0  0  0  0  0  0  0  0  0  0
  -28.6192  -17.6852   21.3348 N   0  0  0  0  0  0  0  0  0  0  0  0
  -28.6960  -13.5832   19.4469 N   0  0  0  0  0  0  0  0  0  0  0  0
  -24.5821  -21.3373   20.8184 N   0  0  0  0  0  0  0  0  0  0  0  0
  -21.3736  -29.3494   22.5067 N   0  0  0  0  0  0  0  0  0  0  0  0
  -26.1385  -34.0584   23.7645 N   0  0  0  0  0  0  0  0  0  0  0  0
  -29.1957  -33.5919   25.6363 N   0  3  0  0  0  0  0  0  0  0  0  0
  -26.3581  -25.9317   17.2554 N   0  3  0  0  0  0  0  0  0  0  0  0
  -29.9325  -15.4729   19.8455 O   0  0  0  0  0  0  0  0  0  0  0  0
  -22.6845  -30.7551   21.1921 O   0  0  0  0  0  0  0  0  0  0  0  0
  -23.4907  -33.0157   24.0964 O   0  0  0  0  0  0  0  0  0  0  0  0
  -28.1268  -33.0775   23.0849 O   0  0  0  0  0  0  0  0  0  0  0  0
  -23.6926  -22.0597   22.8355 O   0  0  0  0  0  0  0  0  0  0  0  0
  -24.5126   -9.9048   19.3908 O   0  0  0  0  0  0  0  0  0  0  0  0
  -27.9322  -26.8521   20.3358 O   0  0  0  0  0  0  0  0  0  1  0  0
  -21.7410   -6.9657   23.1437 F   0  0  0  0  0  0  0  0  0  0  0  0
  -22.1924  -10.8859   20.5295 F   0  0  0  0  0  0  0  0  0  0  0  0
  -25.2352  -22.5137   18.4871 S   0  0  0  0  0  0  0  0  0  0  0  0
  1  2  1  0  0  0  0
  1  5  2  0  0  0  0
  2  6  2  0  0  0  0
  3  8  2  0  0  0  0
  3 16  1  0  0  0  0
  4  9  1  0  0  0  0
  4 16  2  0  0  0  0
  5 18  1  0  0  0  0
  6 20  1  0  0  0  0
  7 10  2  0  0  0  0
  7 19  1  0  0  0  0
  8 22  1  0  0  0  0
  9 22  2  0  0  0  0
 10 23  1  0  0  0  0
 11 12  2  0  0  0  0
 11 24  1  0  0  0  0
 12 25  1  0  0  0  0
 13 21  1  0  0  0  0
 13 23  2  0  0  0  0
 14 25  2  0  0  0  0
 14 26  1  0  0  0  0
 15 29  2  0  0  0  0
 15 62  1  0  0  0  0
 16 27  1  0  0  0  0
 17 27  1  0  0  0  0
 17 28  2  0  0  0  0
 17 31  1  0  0  0  0
 18 20  2  0  0  0  0
 18 36  1  0  0  0  0
 19 21  2  0  0  0  0
 19 37  1  0  0  0  0
 20 45  1  0  0  0  0
 21 38  1  0  0  0  0
 22 79  1  0  0  0  0
 23 80  1  0  0  0  0
 24 26  2  0  0  0  0
 24 79  1  0  0  0  0
 25 81  1  0  0  0  0
 26 82  1  0  0  0  0
 27 63  2  0  0  0  0
 28 64  1  0  0  0  0
 28 67  1  0  0  0  0
 29 69  1  0  0  0  0
 29 83  1  0  0  0  0
 30 57  1  0  0  0  0
 30 62  2  0  0  0  0
 30 83  1  0  0  0  0
 31 68  1  0  0  0  0
 31 74  2  0  0  0  0
 32 46  1  0  0  0  0
 32 70  1  0  0  0  0
 32 75  2  0  0  0  0
 33 58  1  0  0  0  0
 33 65  1  0  0  0  0
 33 76  2  0  0  0  0
 34 59  1  0  0  0  0
 34 71  1  0  0  0  0
 34 77  2  0  0  0  0
 35 66  1  0  0  0  0
 35 69  1  0  0  0  0
 35 78  2  0  0  0  0
 36 39  1  0  0  0  0
 37 46  1  0  0  0  0
 38 65  1  0  0  0  0
 39 41  1  0  0  0  0
 40 42  1  0  0  0  0
 40 43  1  0  0  0  0
 41 45  1  0  0  0  0
 42 47  1  0  0  0  0
 43 66  1  0  0  0  0
 44 47  1  0  0  0  0
 44 66  1  0  0  0  0
 45 70  1  0  0  0  0
 46 65  1  0  0  0  0
 47 64  1  0  0  0  0
 48 57  1  0  0  0  0
 49 59  1  0  0  0  0
 50 60  1  0  0  0  0
 51 61  1  0  0  0  0
 52 61  1  0  0  0  0
 53 61  1  0  0  0  0
 54 72  1  0  0  0  0
 55 56  1  0  0  0  0
 55 60  1  0  0  0  0
 56 80  1  0  0  0  0
 57 73  1  0  0  0  0
 58 61  1  0  0  0  0
 58 71  1  0  0  0  0
 59 72  1  0  0  0  0
 60 73  1  0  0  0  0
 63 64  1  0  0  0  0
M  CHG  2  72   1  73   1
M  ISO  4  35 100  56 101  69 100  80 101
M  END
> <Batch ID>
0198

> <Smiles>
CNC(C)C(=O)NC(C(=O)N1Cc2cc([101O:1][101CH2:1]CC(C)NC(C)c3ncc([100NH:0][100C:0](=O)N4CCCC(n5nc(-c6ccc(Oc7ccc(F)cc7F)cc6)c(C(N)=O)c5N)C4)s3)ccc2CC1C(=O)NC1CCCc2ccccc21)C(C)(C)C

> <Shape>
0.252

> <Color>
0.085

> <Negative vol penalty>
0.000

$$$$

  -OEChem-04052305443D

 81 89  0     1  0  0  0  0  0999 V2000
  -28.4492  -13.2552   18.4123 C   0  0  0  0  0  0  0  0  0  0  0  0
  -27.7940  -14.4633   18.1967 C   0  0  0  0  0  0  0  0  0  0  0  0
  -28.3244  -24.8068   19.0758 C   0  0  0  0  0  0  0  0  0  0  0  0
  -26.1980  -23.7471   19.5149 C   0  0  0  0  0  0  0  0  0  0  0  0
  -27.8622  -12.2790   19.2164 C   0  0  0  0  0  0  0  0  0  0  0  0
  -26.5508  -14.6955   18.7841 C   0  0  0  0  0  0  0  0  0  0  0  0
  -22.5653  -19.9871   21.5102 C   0  0  0  0  0  0  0  0  0  0  0  0
  -28.9825  -23.6200   19.3985 C   0  0  0  0  0  0  0  0  0  0  0  0
  -26.8561  -22.5603   19.8376 C   0  0  0  0  0  0  0  0  0  0  0  0
  -21.2931  -20.5459   21.3958 C   0  0  0  0  0  0  0  0  0  0  0  0
  -28.5443  -21.2853   22.4749 C   0  0  0  0  0  0  0  0  0  0  0  0
  -28.1290  -20.6045   23.6192 C   0  0  0  0  0  0  0  0  0  0  0  0
  -20.4117  -18.8180   22.8300 C   0  0  0  0  0  0  0  0  0  0  0  0
  -27.5788  -18.6758   22.2721 C   0  0  0  0  0  0  0  0  0  0  0  0
  -18.7397  -27.9907   21.8532 C   0  0  0  0  0  0  0  0  0  0  0  0
  -26.9321  -24.8703   19.1341 C   0  0  0  0  0  0  0  0  0  0  0  0
  -25.7907  -26.4951   17.5326 C   0  0  0  0  0  0  0  0  0  0  0  0
  -26.6157  -12.5031   19.8218 C   0  0  0  0  0  0  0  0  0  0  0  0
  -22.7686  -18.8313   22.2778 C   0  0  0  0  0  0  0  0  0  0  0  0
  -25.9460  -13.7209   19.5959 C   0  0  0  0  0  0  0  0  0  0  0  0
  -21.6879  -18.2479   22.9545 C   0  0  0  0  0  0  0  0  0  0  0  0
  -28.2484  -22.4968   19.7793 C   0  0  0  0  0  0  0  0  0  0  0  0
  -20.2156  -19.9597   22.0534 C   0  0  0  0  0  0  0  0  0  0  0  0
  -28.4768  -20.6615   21.2291 C   0  0  0  0  0  0  0  0  0  0  0  0
  -27.6463  -19.2997   23.5178 C   0  0  0  0  0  0  0  0  0  0  0  0
  -27.9941  -19.3568   21.1277 C   0  0  0  0  0  0  0  0  0  0  0  0
  -26.2518  -26.0961   18.8014 C   0  0  0  0  0  0  0  0  0  0  0  0
  -19.7708  -28.1556   22.7542 C   0  0  0  0  0  0  0  0  0  0  0  0
  -25.2203  -27.7262   17.7460 C   0  0  0  0  0  0  0  0  0  0  0  0
  -18.7782  -25.9618   22.6852 C   0  0  0  0  0  0  0  0  0  0  0  0
  -25.8707  -25.8138   16.2736 C   0  0  0  0  0  0  0  0  0  0  0  0
  -23.7734  -15.8788   21.6638 C   0  0  0  0  0  0  0  0  0  0  0  0
  -23.6199  -15.5737   24.8896 C   0  0  0  0  0  0  0  0  0  0  0  0
  -22.2762  -16.6401   27.8399 C   0  0  0  0  0  0  0  0  0  0  0  0
  -22.8202  -30.3257   22.5765 C   0  0  0  0  0  0  0  0  0  0  0  0
  -25.9992  -11.3995   20.6444 C   0  0  0  0  0  0  0  0  0  0  0  0
  -24.1518  -18.2562   22.4128 C   0  0  0  0  0  0  0  0  0  0  0  0
  -21.8569  -17.0181   23.8075 C   0  0  0  0  0  0  0  0  0  0  0  0
  -24.8516  -11.8710   21.5337 C   0  0  0  0  0  0  0  0  0  0  0  0
  -25.5236  -31.5480   20.6082 C   0  0  0  0  0  0  0  0  0  0  0  0
  -23.8959  -12.7606   20.7451 C   0  0  0  0  0  0  0  0  0  0  0  0
  -25.9752  -30.3254   19.8075 C   0  0  0  0  0  0  0  0  0  0  0  0
  -25.0827  -31.1668   22.0197 C   0  0  0  0  0  0  0  0  0  0  0  0
  -24.5087  -28.8862   21.2829 C   0  0  0  0  0  0  0  0  0  0  0  0
  -24.6076  -14.0198   20.2358 C   0  0  1  0  0  0  0  0  0  0  0  0
  -24.1503  -16.7817   22.8042 C   0  0  1  0  0  0  0  0  0  0  0  0
  -24.9099  -29.2129   19.8342 C   0  0  2  0  0  0  0  0  0  0  0  0
  -22.3152  -16.1729   30.3052 C   0  0  0  0  0  0  0  0  0  0  0  0
  -21.8723  -13.1118   24.4482 C   0  0  0  0  0  0  0  0  0  0  0  0
  -21.1789  -13.2595   26.8494 C   0  0  0  0  0  0  0  0  0  0  0  0
  -23.5730  -12.8716   26.2660 C   0  0  0  0  0  0  0  0  0  0  0  0
  -23.2888  -19.3521   28.4555 C   0  0  0  0  0  0  0  0  0  0  0  0
  -20.5877  -29.3491   23.0469 C   0  0  0  0  0  0  0  0  0  0  0  0
  -17.5879  -22.4214   22.3432 C   0  0  0  0  0  0  0  0  0  0  0  0
  -17.4147  -23.9288   22.2019 C   0  0  0  0  0  0  0  0  0  0  0  0
  -18.8956  -21.9142   21.7470 C   0  0  0  0  0  0  0  0  0  1  0  0
  -22.5557  -15.1527   25.8742 C   0  0  1  0  0  0  0  0  0  0  0  0
  -22.9172  -16.9881   29.1712 C   0  0  2  0  0  0  0  0  0  0  0  0
  -22.2911  -13.6209   25.8419 C   0  0  0  0  0  0  0  0  0  0  0  0
  -18.1696  -26.7333   21.8119 N   0  0  0  0  0  0  0  0  0  0  0  0
  -25.9965  -27.0005   19.7506 N   0  0  0  0  0  0  0  0  0  0  0  0
  -25.3689  -27.9800   19.0778 N   0  0  0  0  0  0  0  0  0  0  0  0
  -23.2276  -16.4895   23.9030 N   0  0  0  0  0  0  0  0  0  0  0  0
  -24.0707  -30.1086   21.9748 N   0  0  0  0  0  0  0  0  0  0  0  0
  -24.6111  -28.6055   16.9226 N   0  0  0  0  0  0  0  0  0  0  0  0
  -26.4894  -24.5569   16.2322 N   0  0  0  0  0  0  0  0  0  0  0  0
  -18.4594  -24.6312   22.9072 N   0  0  0  0  0  0  0  0  0  0  0  0
  -24.7615  -14.9813   21.3065 N   0  0  0  0  0  0  0  0  0  0  0  0
  -22.9803  -15.6585   27.1751 N   0  0  0  0  0  0  0  0  0  0  0  0
  -21.9169  -29.2740   22.4827 N   0  0  0  0  0  0  0  0  0  0  0  0
  -22.7235  -18.4337   29.4773 N   0  3  0  0  0  0  0  0  0  0  0  0
  -25.4219  -26.3123   15.2136 O   0  0  0  0  0  0  0  0  0  0  0  0
  -22.6674  -15.9873   21.1474 O   0  0  0  0  0  0  0  0  0  0  0  0
  -24.7590  -15.1126   24.9964 O   0  0  0  0  0  0  0  0  0  0  0  0
  -21.2512  -17.1821   27.4323 O   0  0  0  0  0  0  0  0  0  0  0  0
  -22.5283  -31.3807   23.1498 O   0  0  0  0  0  0  0  0  0  0  0  0
  -28.8902  -21.3385   20.0940 O   0  0  0  0  0  0  0  0  0  0  0  0
  -18.9727  -20.5028   21.9429 O   0  0  0  0  0  0  0  0  0  1  0  0
  -27.2490  -18.6454   24.6170 F   0  0  0  0  0  0  0  0  0  0  0  0
  -27.9280  -18.7518   19.9338 F   0  0  0  0  0  0  0  0  0  0  0  0
  -20.0448  -26.6836   23.5906 S   0  0  0  0  0  0  0  0  0  0  0  0
  1  2  1  0  0  0  0
  1  5  2  0  0  0  0
  2  6  2  0  0  0  0
  3  8  2  0  0  0  0
  3 16  1  0  0  0  0
  4  9  1  0  0  0  0
  4 16  2  0  0  0  0
  5 18  1  0  0  0  0
  6 20  1  0  0  0  0
  7 10  2  0  0  0  0
  7 19  1  0  0  0  0
  8 22  1  0  0  0  0
  9 22  2  0  0  0  0
 10 23  1  0  0  0  0
 11 12  2  0  0  0  0
 11 24  1  0  0  0  0
 12 25  1  0  0  0  0
 13 21  1  0  0  0  0
 13 23  2  0  0  0  0
 14 25  2  0  0  0  0
 14 26  1  0  0  0  0
 15 28  2  0  0  0  0
 15 60  1  0  0  0  0
 16 27  1  0  0  0  0
 17 27  1  0  0  0  0
 17 29  2  0  0  0  0
 17 31  1  0  0  0  0
 18 20  2  0  0  0  0
 18 36  1  0  0  0  0
 19 21  2  0  0  0  0
 19 37  1  0  0  0  0
 20 45  1  0  0  0  0
 21 38  1  0  0  0  0
 22 77  1  0  0  0  0
 23 78  1  0  0  0  0
 24 26  2  0  0  0  0
 24 77  1  0  0  0  0
 25 79  1  0  0  0  0
 26 80  1  0  0  0  0
 27 61  2  0  0  0  0
 28 53  1  0  0  0  0
 28 81  1  0  0  0  0
 29 62  1  0  0  0  0
 29 65  1  0  0  0  0
 30 60  2  0  0  0  0
 30 67  1  0  0  0  0
 30 81  1  0  0  0  0
 31 66  1  0  0  0  0
 31 72  2  0  0  0  0
 32 46  1  0  0  0  0
 32 68  1  0  0  0  0
 32 73  2  0  0  0  0
 33 57  1  0  0  0  0
 33 63  1  0  0  0  0
 33 74  2  0  0  0  0
 34 58  1  0  0  0  0
 34 69  1  0  0  0  0
 34 75  2  0  0  0  0
 35 64  1  0  0  0  0
 35 70  1  0  0  0  0
 35 76  2  0  0  0  0
 36 39  1  0  0  0  0
 37 46  1  0  0  0  0
 38 63  1  0  0  0  0
 39 41  1  0  0  0  0
 40 42  1  0  0  0  0
 40 43  1  0  0  0  0
 41 45  1  0  0  0  0
 42 47  1  0  0  0  0
 43 64  1  0  0  0  0
 44 47  1  0  0  0  0
 44 64  1  0  0  0  0
 45 68  1  0  0  0  0
 46 63  1  0  0  0  0
 47 62  1  0  0  0  0
 48 58  1  0  0  0  0
 49 59  1  0  0  0  0
 50 59  1  0  0  0  0
 51 59  1  0  0  0  0
 52 71  1  0  0  0  0
 53 70  1  0  0  0  0
 54 55  1  0  0  0  0
 54 56  1  0  0  0  0
 55 67  1  0  0  0  0
 56 78  1  0  0  0  0
 57 59  1  0  0  0  0
 57 69  1  0  0  0  0
 58 71  1  0  0  0  0
 61 62  1  0  0  0  0
M  CHG  1  71   1
M  ISO  4  35 100  56 101  70 100  78 101
M  END
> <Batch ID>
0198

> <Smiles>
CNC(C)C(=O)NC(C(=O)N1Cc2cc([101O:1][101CH2:1]CCNc3ncc(C[100NH:0][100C:0](=O)N4CCCC(n5nc(-c6ccc(Oc7ccc(F)cc7F)cc6)c(C(N)=O)c5N)C4)s3)ccc2CC1C(=O)NC1CCCc2ccccc21)C(C)(C)C

> <Shape>
0.196

> <Color>
0.082

> <Negative vol penalty>
0.000

$$$$

  -OEChem-04052305443D

 82 90  0     1  0  0  0  0  0999 V2000
  -22.9172  -36.1784   18.6282 C   0  0  0  0  0  0  0  0  0  0  0  0
  -23.8111  -35.1434   18.3728 C   0  0  0  0  0  0  0  0  0  0  0  0
  -23.0832  -10.5418   19.9132 C   0  0  0  0  0  0  0  0  0  0  0  0
  -24.3865  -10.0181   21.8790 C   0  0  0  0  0  0  0  0  0  0  0  0
  -22.3842  -36.3381   19.9066 C   0  0  0  0  0  0  0  0  0  0  0  0
  -24.1734  -34.2682   19.3961 C   0  0  0  0  0  0  0  0  0  0  0  0
  -25.4017  -28.2919   18.8661 C   0  0  0  0  0  0  0  0  0  0  0  0
  -22.5645   -9.2470   19.9122 C   0  0  0  0  0  0  0  0  0  0  0  0
  -23.8677   -8.7233   21.8780 C   0  0  0  0  0  0  0  0  0  0  0  0
  -26.5999  -27.5851   18.7735 C   0  0  0  0  0  0  0  0  0  0  0  0
  -21.0080   -7.1868   22.8169 C   0  0  0  0  0  0  0  0  0  0  0  0
  -20.5779   -6.6617   24.0354 C   0  0  0  0  0  0  0  0  0  0  0  0
  -26.5348  -27.1754   21.1499 C   0  0  0  0  0  0  0  0  0  0  0  0
  -22.1801   -4.8654   23.8268 C   0  0  0  0  0  0  0  0  0  0  0  0
  -30.1808  -20.2200   21.1428 C   0  0  0  0  0  0  0  0  0  0  0  0
  -23.9943  -10.9273   20.8966 C   0  0  0  0  0  0  0  0  0  0  0  0
  -24.0000  -13.3930   21.5508 C   0  0  0  0  0  0  0  0  0  0  0  0
  -22.7326  -35.4585   20.9437 C   0  0  0  0  0  0  0  0  0  0  0  0
  -24.7656  -28.4552   20.1050 C   0  0  0  0  0  0  0  0  0  0  0  0
  -23.6455  -34.4170   20.6899 C   0  0  0  0  0  0  0  0  0  0  0  0
  -25.3272  -27.8824   21.2550 C   0  0  0  0  0  0  0  0  0  0  0  0
  -22.9567   -8.3377   20.8946 C   0  0  0  0  0  0  0  0  0  0  0  0
  -27.1682  -27.0292   19.9160 C   0  0  0  0  0  0  0  0  0  0  0  0
  -22.0241   -6.5512   22.1033 C   0  0  0  0  0  0  0  0  0  0  0  0
  -21.1640   -5.5010   24.5404 C   0  0  0  0  0  0  0  0  0  0  0  0
  -22.6102   -5.3906   22.6082 C   0  0  0  0  0  0  0  0  0  0  0  0
  -24.5310  -12.2645   20.8979 C   0  0  0  0  0  0  0  0  0  0  0  0
  -29.6430  -19.2870   22.0026 C   0  0  0  0  0  0  0  0  0  0  0  0
  -29.2707  -21.3004   20.9618 C   0  0  0  0  0  0  0  0  0  0  0  0
  -24.8720  -14.4090   21.2444 C   0  0  0  0  0  0  0  0  0  0  0  0
  -22.8237  -13.5123   22.3619 C   0  0  0  0  0  0  0  0  0  0  0  0
  -23.9912  -30.9491   21.9174 C   0  0  0  0  0  0  0  0  0  0  0  0
  -22.5100  -28.6895   23.7127 C   0  0  0  0  0  0  0  0  0  0  0  0
  -22.2923  -25.4139   24.6453 C   0  0  0  0  0  0  0  0  0  0  0  0
  -30.0721  -16.3477   20.6564 C   0  0  0  0  0  0  0  0  0  0  0  0
  -22.1670  -35.6996   22.3209 C   0  0  0  0  0  0  0  0  0  0  0  0
  -23.4597  -29.1975   20.1838 C   0  0  0  0  0  0  0  0  0  0  0  0
  -24.6735  -28.0119   22.6057 C   0  0  0  0  0  0  0  0  0  0  0  0
  -22.3130  -34.5030   23.2574 C   0  0  0  0  0  0  0  0  0  0  0  0
  -28.6581  -14.5999   17.8954 C   0  0  0  0  0  0  0  0  0  0  0  0
  -23.7266  -33.9348   23.1812 C   0  0  0  0  0  0  0  0  0  0  0  0
  -27.4188  -13.9250   18.4857 C   0  0  0  0  0  0  0  0  0  0  0  0
  -29.8145  -14.6276   18.8925 C   0  0  0  0  0  0  0  0  0  0  0  0
  -28.2485  -14.5443   20.7937 C   0  0  0  0  0  0  0  0  0  0  0  0
  -24.0438  -33.4321   21.7677 C   0  0  1  0  0  0  0  0  0  0  0  0
  -23.1645  -29.7410   21.5783 C   0  0  1  0  0  0  0  0  0  0  0  0
  -27.0378  -14.5423   19.8448 C   0  0  2  0  0  0  0  0  0  0  0  0
  -21.0085  -23.8776   26.1582 C   0  0  0  0  0  0  0  0  0  0  0  0
  -24.0703  -29.7508   26.1104 C   0  0  0  0  0  0  0  0  0  0  0  0
  -23.4960  -27.6408   27.3297 C   0  0  0  0  0  0  0  0  0  0  0  0
  -21.6818  -29.1840   26.5881 C   0  0  0  0  0  0  0  0  0  0  0  0
  -21.3005  -23.8087   22.3653 C   0  0  0  0  0  0  0  0  0  0  0  0
  -30.1954  -18.0112   22.4939 C   0  0  0  0  0  0  0  0  0  0  0  0
  -28.7849  -23.4919   19.8723 C   0  0  0  0  0  0  0  0  0  0  0  0
  -28.6003  -25.6583   18.6024 C   0  0  0  0  0  0  0  0  0  1  0  0
  -22.9166  -27.8047   24.8663 C   0  0  1  0  0  0  0  0  0  0  0  0
  -21.1037  -24.4772   24.7639 C   0  0  2  0  0  0  0  0  0  0  0  0
  -29.4699  -24.4390   18.8891 C   0  0  1  0  0  0  0  0  0  0  0  0
  -23.0548  -28.5941   26.1986 C   0  0  0  0  0  0  0  0  0  0  0  0
  -25.6533  -12.5375   20.2271 N   0  0  0  0  0  0  0  0  0  0  0  0
  -28.1128  -21.2375   21.6149 N   0  0  0  0  0  0  0  0  0  0  0  0
  -25.8346  -13.8491   20.4569 N   0  0  0  0  0  0  0  0  0  0  0  0
  -23.4012  -28.7522   22.6321 N   0  0  0  0  0  0  0  0  0  0  0  0
  -29.3876  -15.2263   20.1595 N   0  0  0  0  0  0  0  0  0  0  0  0
  -24.9016  -15.7177   21.5743 N   0  0  0  0  0  0  0  0  0  0  0  0
  -22.0408  -12.3696   22.5756 N   0  0  0  0  0  0  0  0  0  0  0  0
  -29.6290  -22.3464   20.1283 N   0  0  0  0  0  0  0  0  0  0  0  0
  -23.4188  -32.1475   21.5360 N   0  0  0  0  0  0  0  0  0  0  0  0
  -21.9417  -26.7204   24.9124 N   0  0  0  0  0  0  0  0  0  0  0  0
  -29.5991  -16.8567   21.8597 N   0  0  0  0  0  0  0  0  0  0  0  0
  -21.2216  -23.3637   23.7805 N   0  3  0  0  0  0  0  0  0  0  0  0
  -22.4682  -14.6035   22.8682 O   0  0  0  0  0  0  0  0  0  0  0  0
  -25.0679  -30.8046   22.4845 O   0  0  0  0  0  0  0  0  0  0  0  0
  -21.4376  -29.2970   23.7652 O   0  0  0  0  0  0  0  0  0  0  0  0
  -23.4200  -25.0250   24.3493 O   0  0  0  0  0  0  0  0  0  0  0  0
  -31.0302  -16.8608   20.0684 O   0  0  0  0  0  0  0  0  0  0  0  0
  -30.6937  -24.9030   19.4628 O   0  0  0  0  0  0  0  0  0  0  0  0
  -22.4505   -7.0743   20.8940 O   0  0  0  0  0  0  0  0  0  0  0  0
  -28.3380  -26.3395   19.8286 O   0  0  0  0  0  0  0  0  0  1  0  0
  -20.7519   -4.9977   25.7113 F   0  0  0  0  0  0  0  0  0  0  0  0
  -23.5876   -4.7762   21.9277 F   0  0  0  0  0  0  0  0  0  0  0  0
  -28.0933  -19.8267   22.4932 S   0  0  0  0  0  0  0  0  0  0  0  0
  1  2  1  0  0  0  0
  1  5  2  0  0  0  0
  2  6  2  0  0  0  0
  3  8  2  0  0  0  0
  3 16  1  0  0  0  0
  4  9  1  0  0  0  0
  4 16  2  0  0  0  0
  5 18  1  0  0  0  0
  6 20  1  0  0  0  0
  7 10  2  0  0  0  0
  7 19  1  0  0  0  0
  8 22  1  0  0  0  0
  9 22  2  0  0  0  0
 10 23  1  0  0  0  0
 11 12  2  0  0  0  0
 11 24  1  0  0  0  0
 12 25  1  0  0  0  0
 13 21  1  0  0  0  0
 13 23  2  0  0  0  0
 14 25  2  0  0  0  0
 14 26  1  0  0  0  0
 15 28  2  0  0  0  0
 15 29  1  0  0  0  0
 16 27  1  0  0  0  0
 17 27  1  0  0  0  0
 17 30  2  0  0  0  0
 17 31  1  0  0  0  0
 18 20  2  0  0  0  0
 18 36  1  0  0  0  0
 19 21  2  0  0  0  0
 19 37  1  0  0  0  0
 20 45  1  0  0  0  0
 21 38  1  0  0  0  0
 22 78  1  0  0  0  0
 23 79  1  0  0  0  0
 24 26  2  0  0  0  0
 24 78  1  0  0  0  0
 25 80  1  0  0  0  0
 26 81  1  0  0  0  0
 27 60  2  0  0  0  0
 28 53  1  0  0  0  0
 28 82  1  0  0  0  0
 29 61  2  0  0  0  0
 29 67  1  0  0  0  0
 30 62  1  0  0  0  0
 30 65  1  0  0  0  0
 31 66  1  0  0  0  0
 31 72  2  0  0  0  0
 32 46  1  0  0  0  0
 32 68  1  0  0  0  0
 32 73  2  0  0  0  0
 33 56  1  0  0  0  0
 33 63  1  0  0  0  0
 33 74  2  0  0  0  0
 34 57  1  0  0  0  0
 34 69  1  0  0  0  0
 34 75  2  0  0  0  0
 35 64  1  0  0  0  0
 35 70  1  0  0  0  0
 35 76  2  0  0  0  0
 36 39  1  0  0  0  0
 37 46  1  0  0  0  0
 38 63  1  0  0  0  0
 39 41  1  0  0  0  0
 40 42  1  0  0  0  0
 40 43  1  0  0  0  0
 41 45  1  0  0  0  0
 42 47  1  0  0  0  0
 43 64  1  0  0  0  0
 44 47  1  0  0  0  0
 44 64  1  0  0  0  0
 45 68  1  0  0  0  0
 46 63  1  0  0  0  0
 47 62  1  0  0  0  0
 48 57  1  0  0  0  0
 49 59  1  0  0  0  0
 50 59  1  0  0  0  0
 51 59  1  0  0  0  0
 52 71  1  0  0  0  0
 53 70  1  0  0  0  0
 54 58  1  0  0  0  0
 54 67  1  0  0  0  0
 55 58  1  0  0  0  0
 55 79  1  0  0  0  0
 56 59  1  0  0  0  0
 56 69  1  0  0  0  0
 57 71  1  0  0  0  0
 58 77  1  0  0  0  0
 60 62  1  0  0  0  0
 61 82  1  0  0  0  0
M  CHG  1  71   1
M  ISO  4  35 100  55 101  70 100  79 101
M  END
> <Batch ID>
0198

> <Smiles>
CNC(C)C(=O)NC(C(=O)N1Cc2cc([101O:1][101CH2:1]C(O)CNc3cc(C[100NH:0][100C:0](=O)N4CCCC(n5nc(-c6ccc(Oc7ccc(F)cc7F)cc6)c(C(N)=O)c5N)C4)sn3)ccc2CC1C(=O)NC1CCCc2ccccc21)C(C)(C)C

> <Shape>
0.293

> <Color>
0.122

> <Negative vol penalty>
0.000

$$$$

  -OEChem-04052305443D

 82 90  0     1  0  0  0  0  0999 V2000
  -24.2516  -33.2836   23.6290 C   0  0  0  0  0  0  0  0  0  0  0  0
  -24.9201  -32.4293   24.5001 C   0  0  0  0  0  0  0  0  0  0  0  0
  -23.3071   -9.6794   19.9474 C   0  0  0  0  0  0  0  0  0  0  0  0
  -23.4319  -10.0952   22.3241 C   0  0  0  0  0  0  0  0  0  0  0  0
  -23.9328  -32.8545   22.3413 C   0  0  0  0  0  0  0  0  0  0  0  0
  -25.2691  -31.1449   24.0843 C   0  0  0  0  0  0  0  0  0  0  0  0
  -30.3540  -26.1780   24.9731 C   0  0  0  0  0  0  0  0  0  0  0  0
  -22.5474   -8.5345   20.1875 C   0  0  0  0  0  0  0  0  0  0  0  0
  -22.6721   -8.9503   22.5643 C   0  0  0  0  0  0  0  0  0  0  0  0
  -30.4980  -24.8308   25.3017 C   0  0  0  0  0  0  0  0  0  0  0  0
  -23.1683   -5.6076   22.6684 C   0  0  0  0  0  0  0  0  0  0  0  0
  -23.5924   -4.7493   23.6828 C   0  0  0  0  0  0  0  0  0  0  0  0
  -29.9659  -24.2257   23.0279 C   0  0  0  0  0  0  0  0  0  0  0  0
  -21.4965   -5.0793   24.8384 C   0  0  0  0  0  0  0  0  0  0  0  0
  -23.7494  -10.4597   21.0157 C   0  0  0  0  0  0  0  0  0  0  0  0
  -24.0590  -12.9513   20.5645 C   0  0  0  0  0  0  0  0  0  0  0  0
  -24.2867  -31.5676   21.9063 C   0  0  0  0  0  0  0  0  0  0  0  0
  -30.0037  -26.5594   23.6699 C   0  0  0  0  0  0  0  0  0  0  0  0
  -24.9535  -30.6977   22.7900 C   0  0  0  0  0  0  0  0  0  0  0  0
  -29.8207  -25.5786   22.6848 C   0  0  0  0  0  0  0  0  0  0  0  0
  -22.2298   -8.1700   21.4960 C   0  0  0  0  0  0  0  0  0  0  0  0
  -30.3011  -23.8542   24.3297 C   0  0  0  0  0  0  0  0  0  0  0  0
  -21.9083   -6.2018   22.7390 C   0  0  0  0  0  0  0  0  0  0  0  0
  -22.7566   -4.4852   24.7678 C   0  0  0  0  0  0  0  0  0  0  0  0
  -21.0724   -5.9376   23.8239 C   0  0  0  0  0  0  0  0  0  0  0  0
  -24.5347  -11.6422   20.7683 C   0  0  0  0  0  0  0  0  0  0  0  0
  -25.1928  -13.7029   20.3743 C   0  0  0  0  0  0  0  0  0  0  0  0
  -31.1662  -14.9530   24.6738 C   0  0  0  0  0  0  0  0  0  0  0  0
  -30.7264  -17.2240   25.1389 C   0  0  0  0  0  0  0  0  0  0  0  0
  -22.7126  -13.4440   20.5485 C   0  0  0  0  0  0  0  0  0  0  0  0
  -27.5478  -28.1008   22.3675 C   0  0  0  0  0  0  0  0  0  0  0  0
  -29.3466  -27.8921   19.6762 C   0  0  0  0  0  0  0  0  0  0  0  0
  -30.6306  -19.7160   25.4916 C   0  0  0  0  0  0  0  0  0  0  0  0
  -31.8129  -26.2759   17.9580 C   0  0  0  0  0  0  0  0  0  0  0  0
  -30.8883  -12.9940   22.0800 C   0  0  0  0  0  0  0  0  0  0  0  0
  -23.8788  -31.1318   20.5212 C   0  0  0  0  0  0  0  0  0  0  0  0
  -29.8785  -28.0181   23.3251 C   0  0  0  0  0  0  0  0  0  0  0  0
  -29.4634  -25.9365   21.2661 C   0  0  0  0  0  0  0  0  0  0  0  0
  -24.6159  -29.8876   20.0324 C   0  0  0  0  0  0  0  0  0  0  0  0
  -29.6808  -13.3649   18.7512 C   0  0  0  0  0  0  0  0  0  0  0  0
  -24.6309  -28.8153   21.1172 C   0  0  0  0  0  0  0  0  0  0  0  0
  -28.1820  -13.0835   18.8723 C   0  0  0  0  0  0  0  0  0  0  0  0
  -30.4988  -12.4792   19.6884 C   0  0  0  0  0  0  0  0  0  0  0  0
  -28.5857  -12.2444   21.2242 C   0  0  0  0  0  0  0  0  0  0  0  0
  -25.3710  -29.3058   22.3675 C   0  0  1  0  0  0  0  0  0  0  0  0
  -29.0154  -28.2687   22.0924 C   0  0  1  0  0  0  0  0  0  0  0  0
  -27.7153  -13.1525   20.3388 C   0  0  2  0  0  0  0  0  0  0  0  0
  -33.0363  -26.3123   15.7672 C   0  0  0  0  0  0  0  0  0  0  0  0
  -26.9276  -26.6334   18.3072 C   0  0  0  0  0  0  0  0  0  0  0  0
  -28.4561  -25.8412   16.4894 C   0  0  0  0  0  0  0  0  0  0  0  0
  -28.1774  -28.2850   16.9055 C   0  0  0  0  0  0  0  0  0  0  0  0
  -34.4131  -26.7609   19.2856 C   0  0  0  0  0  0  0  0  0  0  0  0
  -31.1186  -13.4875   24.5013 C   0  0  0  0  0  0  0  0  0  0  0  0
  -29.6141  -20.7300   26.0042 C   0  0  0  0  0  0  0  0  0  0  0  0
  -30.1357  -22.1588   25.9893 C   0  0  0  0  0  0  0  0  0  1  0  0
  -29.4847  -26.8875   18.5578 C   0  0  1  0  0  0  0  0  0  0  0  0
  -33.0261  -26.7968   17.2087 C   0  0  2  0  0  0  0  0  0  0  0  0
  -28.2663  -26.9046   17.5921 C   0  0  0  0  0  0  0  0  0  0  0  0
  -25.8669  -11.5631   20.7127 N   0  0  0  0  0  0  0  0  0  0  0  0
  -32.1974  -15.7184   24.3861 N   0  0  0  0  0  0  0  0  0  0  0  0
  -31.9398  -17.0503   24.6599 N   0  0  0  0  0  0  0  0  0  0  0  0
  -26.2379  -12.8321   20.4717 N   0  0  0  0  0  0  0  0  0  0  0  0
  -29.3462  -27.3759   20.9798 N   0  0  0  0  0  0  0  0  0  0  0  0
  -30.0063  -12.5918   21.0635 N   0  0  0  0  0  0  0  0  0  0  0  0
  -25.3877  -15.0171   20.1349 N   0  0  0  0  0  0  0  0  0  0  0  0
  -21.6664  -12.5361   20.7615 N   0  0  0  0  0  0  0  0  0  0  0  0
  -30.0976  -18.4303   25.5290 N   0  0  0  0  0  0  0  0  0  0  0  0
  -26.8025  -29.2463   22.1634 N   0  0  0  0  0  0  0  0  0  0  0  0
  -30.7626  -27.1682   17.9125 N   0  0  0  0  0  0  0  0  0  0  0  0
  -30.3389  -13.0812   23.3533 N   0  0  0  0  0  0  0  0  0  0  0  0
  -34.2800  -26.3351   17.8686 N   0  3  0  0  0  0  0  0  0  0  0  0
  -22.4445  -14.6507   20.3349 O   0  0  0  0  0  0  0  0  0  0  0  0
  -27.1229  -27.0121   22.7361 O   0  0  0  0  0  0  0  0  0  0  0  0
  -29.2502  -29.0912   19.4035 O   0  0  0  0  0  0  0  0  0  0  0  0
  -31.7490  -20.0474   25.1125 O   0  0  0  0  0  0  0  0  0  0  0  0
  -31.7972  -25.1849   18.5236 O   0  0  0  0  0  0  0  0  0  0  0  0
  -32.0759  -13.2612   21.8676 O   0  0  0  0  0  0  0  0  0  0  0  0
  -21.4883   -7.0530   21.7306 O   0  0  0  0  0  0  0  0  0  0  0  0
  -30.4403  -22.5384   24.6479 O   0  0  0  0  0  0  0  0  0  1  0  0
  -23.1634   -3.6598   25.7411 F   0  0  0  0  0  0  0  0  0  0  0  0
  -19.8603   -6.5046   23.8967 F   0  0  0  0  0  0  0  0  0  0  0  0
  -29.8030  -15.7873   25.2961 S   0  0  0  0  0  0  0  0  0  0  0  0
  1  2  1  0  0  0  0
  1  5  2  0  0  0  0
  2  6  2  0  0  0  0
  3  8  2  0  0  0  0
  3 15  1  0  0  0  0
  4  9  1  0  0  0  0
  4 15  2  0  0  0  0
  5 17  1  0  0  0  0
  6 19  1  0  0  0  0
  7 10  2  0  0  0  0
  7 18  1  0  0  0  0
  8 21  1  0  0  0  0
  9 21  2  0  0  0  0
 10 22  1  0  0  0  0
 11 12  2  0  0  0  0
 11 23  1  0  0  0  0
 12 24  1  0  0  0  0
 13 20  1  0  0  0  0
 13 22  2  0  0  0  0
 14 24  2  0  0  0  0
 14 25  1  0  0  0  0
 15 26  1  0  0  0  0
 16 26  1  0  0  0  0
 16 27  2  0  0  0  0
 16 30  1  0  0  0  0
 17 19  2  0  0  0  0
 17 36  1  0  0  0  0
 18 20  2  0  0  0  0
 18 37  1  0  0  0  0
 19 45  1  0  0  0  0
 20 38  1  0  0  0  0
 21 78  1  0  0  0  0
 22 79  1  0  0  0  0
 23 25  2  0  0  0  0
 23 78  1  0  0  0  0
 24 80  1  0  0  0  0
 25 81  1  0  0  0  0
 26 59  2  0  0  0  0
 27 62  1  0  0  0  0
 27 65  1  0  0  0  0
 28 53  1  0  0  0  0
 28 60  2  0  0  0  0
 28 82  1  0  0  0  0
 29 61  2  0  0  0  0
 29 67  1  0  0  0  0
 29 82  1  0  0  0  0
 30 66  1  0  0  0  0
 30 72  2  0  0  0  0
 31 46  1  0  0  0  0
 31 68  1  0  0  0  0
 31 73  2  0  0  0  0
 32 56  1  0  0  0  0
 32 63  1  0  0  0  0
 32 74  2  0  0  0  0
 33 54  1  0  0  0  0
 33 67  1  0  0  0  0
 33 75  2  0  0  0  0
 34 57  1  0  0  0  0
 34 69  1  0  0  0  0
 34 76  2  0  0  0  0
 35 64  1  0  0  0  0
 35 70  1  0  0  0  0
 35 77  2  0  0  0  0
 36 39  1  0  0  0  0
 37 46  1  0  0  0  0
 38 63  1  0  0  0  0
 39 41  1  0  0  0  0
 40 42  1  0  0  0  0
 40 43  1  0  0  0  0
 41 45  1  0  0  0  0
 42 47  1  0  0  0  0
 43 64  1  0  0  0  0
 44 47  1  0  0  0  0
 44 64  1  0  0  0  0
 45 68  1  0  0  0  0
 46 63  1  0  0  0  0
 47 62  1  0  0  0  0
 48 57  1  0  0  0  0
 49 58  1  0  0  0  0
 50 58  1  0  0  0  0
 51 58  1  0  0  0  0
 52 71  1  0  0  0  0
 53 70  1  0  0  0  0
 54 55  1  0  0  0  0
 55 79  1  0  0  0  0
 56 58  1  0  0  0  0
 56 69  1  0  0  0  0
 57 71  1  0  0  0  0
 59 62  1  0  0  0  0
 60 61  1  0  0  0  0
M  CHG  1  71   1
M  ISO  4  35 100  55 101  70 100  79 101
M  END
> <Batch ID>
0198

> <Smiles>
CNC(C)C(=O)NC(C(=O)N1Cc2cc([101O:1][101CH2:1]CC(=O)Nc3nnc(C[100NH:0][100C:0](=O)N4CCCC(n5nc(-c6ccc(Oc7ccc(F)cc7F)cc6)c(C(N)=O)c5N)C4)s3)ccc2CC1C(=O)NC1CCCc2ccccc21)C(C)(C)C

> <Shape>
0.247

> <Color>
0.183

> <Negative vol penalty>
0.000

$$$$

  -OEChem-04052305443D

 83 91  0     1  0  0  0  0  0999 V2000
  -30.9394  -22.4993   26.5475 C   0  0  0  0  0  0  0  0  0  0  0  0
  -29.5813  -22.7376   26.3630 C   0  0  0  0  0  0  0  0  0  0  0  0
  -30.1235  -26.0445   18.3662 C   0  0  0  0  0  0  0  0  0  0  0  0
  -30.5019  -25.9595   20.7509 C   0  0  0  0  0  0  0  0  0  0  0  0
  -31.6492  -21.7537   25.6072 C   0  0  0  0  0  0  0  0  0  0  0  0
  -28.9323  -22.2313   25.2374 C   0  0  0  0  0  0  0  0  0  0  0  0
  -23.1598  -20.2118   24.9132 C   0  0  0  0  0  0  0  0  0  0  0  0
  -31.4939  -25.9095   18.1439 C   0  0  0  0  0  0  0  0  0  0  0  0
  -31.8723  -25.8244   20.5286 C   0  0  0  0  0  0  0  0  0  0  0  0
  -21.9800  -20.8103   24.4731 C   0  0  0  0  0  0  0  0  0  0  0  0
  -34.8554  -25.2246   16.9415 C   0  0  0  0  0  0  0  0  0  0  0  0
  -35.2674  -24.3251   15.9582 C   0  0  0  0  0  0  0  0  0  0  0  0
  -18.2340  -27.3099   21.8253 C   0  0  0  0  0  0  0  0  0  0  0  0
  -22.2701  -19.7789   22.3118 C   0  0  0  0  0  0  0  0  0  0  0  0
  -20.2974  -26.7061   22.9035 C   0  0  0  0  0  0  0  0  0  0  0  0
  -34.1972  -22.5223   17.1590 C   0  0  0  0  0  0  0  0  0  0  0  0
  -18.4138  -28.5919   22.3190 C   0  0  0  0  0  0  0  0  0  0  0  0
  -29.6275  -26.0696   19.6697 C   0  0  0  0  0  0  0  0  0  0  0  0
  -27.2630  -25.1762   20.0139 C   0  0  0  0  0  0  0  0  0  0  0  0
  -31.0066  -21.2299   24.4744 C   0  0  0  0  0  0  0  0  0  0  0  0
  -23.9106  -19.3998   24.0510 C   0  0  0  0  0  0  0  0  0  0  0  0
  -29.6345  -21.4792   24.2804 C   0  0  0  0  0  0  0  0  0  0  0  0
  -23.4577  -19.1692   22.7441 C   0  0  0  0  0  0  0  0  0  0  0  0
  -19.1983  -26.3548   22.1276 C   0  0  0  0  0  0  0  0  0  0  0  0
  -32.3683  -25.7994   19.2251 C   0  0  0  0  0  0  0  0  0  0  0  0
  -21.5365  -20.5963   23.1713 C   0  0  0  0  0  0  0  0  0  0  0  0
  -34.1144  -24.7729   18.0336 C   0  0  0  0  0  0  0  0  0  0  0  0
  -34.9382  -22.9740   16.0670 C   0  0  0  0  0  0  0  0  0  0  0  0
  -33.7853  -23.4218   18.1423 C   0  0  0  0  0  0  0  0  0  0  0  0
  -28.2121  -26.2096   19.9000 C   0  0  0  0  0  0  0  0  0  0  0  0
  -20.3849  -28.0153   23.3488 C   0  0  0  0  0  0  0  0  0  0  0  0
  -26.0718  -25.8259   20.2269 C   0  0  0  0  0  0  0  0  0  0  0  0
  -27.4421  -23.7559   19.9344 C   0  0  0  0  0  0  0  0  0  0  0  0
  -26.8476  -19.5252   22.8421 C   0  0  0  0  0  0  0  0  0  0  0  0
  -26.0796  -16.5909   21.6923 C   0  0  0  0  0  0  0  0  0  0  0  0
  -19.9248  -23.9585   21.8558 C   0  0  0  0  0  0  0  0  0  0  0  0
  -23.6423  -14.3905   20.7622 C   0  0  0  0  0  0  0  0  0  0  0  0
  -23.0754  -29.7850   22.7751 C   0  0  0  0  0  0  0  0  0  0  0  0
  -31.8258  -20.4699   23.4614 C   0  0  0  0  0  0  0  0  0  0  0  0
  -25.1670  -18.7399   24.5493 C   0  0  0  0  0  0  0  0  0  0  0  0
  -24.2164  -18.2896   21.7855 C   0  0  0  0  0  0  0  0  0  0  0  0
  -30.9828  -19.6519   22.4865 C   0  0  0  0  0  0  0  0  0  0  0  0
  -24.8838  -30.7288   19.8570 C   0  0  0  0  0  0  0  0  0  0  0  0
  -29.8245  -20.4876   21.9509 C   0  0  0  0  0  0  0  0  0  0  0  0
  -25.8363  -29.5553   19.6214 C   0  0  0  0  0  0  0  0  0  0  0  0
  -24.6881  -31.0068   21.3457 C   0  0  0  0  0  0  0  0  0  0  0  0
  -25.2186  -28.6666   21.9077 C   0  0  0  0  0  0  0  0  0  0  0  0
  -28.8898  -20.9258   23.0848 C   0  0  1  0  0  0  0  0  0  0  0  0
  -26.1213  -18.3466   23.4259 C   0  0  1  0  0  0  0  0  0  0  0  0
  -25.4037  -28.3125   20.4223 C   0  0  2  0  0  0  0  0  0  0  0  0
  -23.3234  -12.0839   19.8268 C   0  0  0  0  0  0  0  0  0  0  0  0
  -26.8663  -17.6071   18.9249 C   0  0  0  0  0  0  0  0  0  0  0  0
  -25.6563  -15.6497   17.9387 C   0  0  0  0  0  0  0  0  0  0  0  0
  -27.6184  -15.2767   19.4333 C   0  0  0  0  0  0  0  0  0  0  0  0
  -22.1601  -13.4962   23.1627 C   0  0  0  0  0  0  0  0  0  0  0  0
  -21.5505  -28.4267   24.1855 C   0  0  0  0  0  0  0  0  0  0  0  0
  -19.3984  -22.7071   21.1625 C   0  0  0  0  0  0  0  0  0  0  0  0
  -20.2997  -21.4961   21.3502 C   0  0  0  0  0  0  0  0  0  1  0  0
  -25.4352  -16.0726   20.4293 C   0  0  1  0  0  0  0  0  0  0  0  0
  -23.4312  -12.9235   21.0902 C   0  0  2  0  0  0  0  0  0  0  0  0
  -26.3805  -16.1697   19.1988 C   0  0  0  0  0  0  0  0  0  0  0  0
  -19.4682  -28.9706   23.0756 N   0  0  0  0  0  0  0  0  0  0  0  0
  -27.6705  -27.4237   20.0297 N   0  0  0  0  0  0  0  0  0  0  0  0
  -26.3682  -27.1572   20.2273 N   0  0  0  0  0  0  0  0  0  0  0  0
  -25.4423  -17.6719   22.3178 N   0  0  0  0  0  0  0  0  0  0  0  0
  -24.2767  -29.7883   22.0472 N   0  0  0  0  0  0  0  0  0  0  0  0
  -24.8102  -25.3827   20.4120 N   0  0  0  0  0  0  0  0  0  0  0  0
  -28.7325  -23.2567   19.7110 N   0  0  0  0  0  0  0  0  0  0  0  0
  -19.0603  -25.0302   21.6489 N   0  0  0  0  0  0  0  0  0  0  0  0
  -28.0323  -19.8307   23.4846 N   0  0  0  0  0  0  0  0  0  0  0  0
  -24.9811  -14.7188   20.7286 N   0  0  0  0  0  0  0  0  0  0  0  0
  -22.7568  -28.5879   23.4046 N   0  0  0  0  0  0  0  0  0  0  0  0
  -22.1812  -12.7443   21.8816 N   0  3  0  0  0  0  0  0  0  0  0  0
  -26.4835  -22.9538   20.0413 O   0  0  0  0  0  0  0  0  0  0  0  0
  -26.3695  -20.1131   21.8790 O   0  0  0  0  0  0  0  0  0  0  0  0
  -27.1064  -16.0518   22.1125 O   0  0  0  0  0  0  0  0  0  0  0  0
  -20.9726  -23.9599   22.4933 O   0  0  0  0  0  0  0  0  0  0  0  0
  -22.7127  -15.1668   20.5528 O   0  0  0  0  0  0  0  0  0  0  0  0
  -22.3386  -30.7738   22.8535 O   0  0  0  0  0  0  0  0  0  0  0  0
  -33.7055  -25.6673   19.0085 O   0  0  0  0  0  0  0  0  0  0  0  0
  -20.3856  -21.1798   22.7391 O   0  0  0  0  0  0  0  0  0  1  0  0
  -35.3326  -22.1106   15.1219 F   0  0  0  0  0  0  0  0  0  0  0  0
  -33.0726  -22.9822   19.1886 F   0  0  0  0  0  0  0  0  0  0  0  0
  1  2  1  0  0  0  0
  1  5  2  0  0  0  0
  2  6  2  0  0  0  0
  3  8  2  0  0  0  0
  3 18  1  0  0  0  0
  4  9  1  0  0  0  0
  4 18  2  0  0  0  0
  5 20  1  0  0  0  0
  6 22  1  0  0  0  0
  7 10  2  0  0  0  0
  7 21  1  0  0  0  0
  8 25  1  0  0  0  0
  9 25  2  0  0  0  0
 10 26  1  0  0  0  0
 11 12  2  0  0  0  0
 11 27  1  0  0  0  0
 12 28  1  0  0  0  0
 13 17  2  0  0  0  0
 13 24  1  0  0  0  0
 14 23  1  0  0  0  0
 14 26  2  0  0  0  0
 15 24  2  0  0  0  0
 15 31  1  0  0  0  0
 16 28  2  0  0  0  0
 16 29  1  0  0  0  0
 17 62  1  0  0  0  0
 18 30  1  0  0  0  0
 19 30  1  0  0  0  0
 19 32  2  0  0  0  0
 19 33  1  0  0  0  0
 20 22  2  0  0  0  0
 20 39  1  0  0  0  0
 21 23  2  0  0  0  0
 21 40  1  0  0  0  0
 22 48  1  0  0  0  0
 23 41  1  0  0  0  0
 24 69  1  0  0  0  0
 25 80  1  0  0  0  0
 26 81  1  0  0  0  0
 27 29  2  0  0  0  0
 27 80  1  0  0  0  0
 28 82  1  0  0  0  0
 29 83  1  0  0  0  0
 30 63  2  0  0  0  0
 31 56  1  0  0  0  0
 31 62  2  0  0  0  0
 32 64  1  0  0  0  0
 32 67  1  0  0  0  0
 33 68  1  0  0  0  0
 33 74  2  0  0  0  0
 34 49  1  0  0  0  0
 34 70  1  0  0  0  0
 34 75  2  0  0  0  0
 35 59  1  0  0  0  0
 35 65  1  0  0  0  0
 35 76  2  0  0  0  0
 36 57  1  0  0  0  0
 36 69  1  0  0  0  0
 36 77  2  0  0  0  0
 37 60  1  0  0  0  0
 37 71  1  0  0  0  0
 37 78  2  0  0  0  0
 38 66  1  0  0  0  0
 38 72  1  0  0  0  0
 38 79  2  0  0  0  0
 39 42  1  0  0  0  0
 40 49  1  0  0  0  0
 41 65  1  0  0  0  0
 42 44  1  0  0  0  0
 43 45  1  0  0  0  0
 43 46  1  0  0  0  0
 44 48  1  0  0  0  0
 45 50  1  0  0  0  0
 46 66  1  0  0  0  0
 47 50  1  0  0  0  0
 47 66  1  0  0  0  0
 48 70  1  0  0  0  0
 49 65  1  0  0  0  0
 50 64  1  0  0  0  0
 51 60  1  0  0  0  0
 52 61  1  0  0  0  0
 53 61  1  0  0  0  0
 54 61  1  0  0  0  0
 55 73  1  0  0  0  0
 56 72  1  0  0  0  0
 57 58  1  0  0  0  0
 58 81  1  0  0  0  0
 59 61  1  0  0  0  0
 59 71  1  0  0  0  0
 60 73  1  0  0  0  0
 63 64  1  0  0  0  0
M  CHG  1  73   1
M  ISO  4  38 100  58 101  72 100  81 101
M  END
> <Batch ID>
0198

> <Smiles>
CNC(C)C(=O)NC(C(=O)N1Cc2cc([101O:1][101CH2:1]CC(=O)Nc3ccnc(C[100NH:0][100C:0](=O)N4CCCC(n5nc(-c6ccc(Oc7ccc(F)cc7F)cc6)c(C(N)=O)c5N)C4)c3)ccc2CC1C(=O)NC1CCCc2ccccc21)C(C)(C)C

> <Shape>
0.187

> <Color>
0.083

> <Negative vol penalty>
0.000

$$$$

  -OEChem-04052305443D

 83 91  0     1  0  0  0  0  0999 V2000
  -30.8298  -33.4022   28.4164 C   0  0  0  0  0  0  0  0  0  0  0  0
  -31.1032  -32.6244   27.2958 C   0  0  0  0  0  0  0  0  0  0  0  0
  -23.8505   -9.6971   21.7218 C   0  0  0  0  0  0  0  0  0  0  0  0
  -24.4805  -10.9150   23.7110 C   0  0  0  0  0  0  0  0  0  0  0  0
  -29.5975  -33.2889   29.0585 C   0  0  0  0  0  0  0  0  0  0  0  0
  -30.1446  -31.7319   26.8173 C   0  0  0  0  0  0  0  0  0  0  0  0
  -29.0899  -30.2476   20.9701 C   0  0  0  0  0  0  0  0  0  0  0  0
  -23.3548   -8.6610   22.5131 C   0  0  0  0  0  0  0  0  0  0  0  0
  -23.9848   -9.8788   24.5024 C   0  0  0  0  0  0  0  0  0  0  0  0
  -29.4896  -29.1627   20.1910 C   0  0  0  0  0  0  0  0  0  0  0  0
  -20.5738   -8.0242   24.3279 C   0  0  0  0  0  0  0  0  0  0  0  0
  -19.3308   -7.4886   23.9906 C   0  0  0  0  0  0  0  0  0  0  0  0
  -27.3942  -28.0628   20.6584 C   0  0  0  0  0  0  0  0  0  0  0  0
  -20.3499   -5.3205   23.6778 C   0  0  0  0  0  0  0  0  0  0  0  0
  -28.6050  -19.1543   20.2138 C   0  0  0  0  0  0  0  0  0  0  0  0
  -24.4134  -10.8241   22.3207 C   0  0  0  0  0  0  0  0  0  0  0  0
  -24.2216  -13.0207   21.0378 C   0  0  0  0  0  0  0  0  0  0  0  0
  -28.6197  -32.4015   28.5819 C   0  0  0  0  0  0  0  0  0  0  0  0
  -27.8417  -30.2435   21.6091 C   0  0  0  0  0  0  0  0  0  0  0  0
  -28.8985  -31.6056   27.4545 C   0  0  0  0  0  0  0  0  0  0  0  0
  -26.9799  -29.1500   21.4430 C   0  0  0  0  0  0  0  0  0  0  0  0
  -23.4219   -8.7518   23.9034 C   0  0  0  0  0  0  0  0  0  0  0  0
  -28.6429  -28.0688   20.0374 C   0  0  0  0  0  0  0  0  0  0  0  0
  -21.7049   -7.2080   24.3401 C   0  0  0  0  0  0  0  0  0  0  0  0
  -19.2189   -6.1368   23.6656 C   0  0  0  0  0  0  0  0  0  0  0  0
  -21.5929   -5.8561   24.0151 C   0  0  0  0  0  0  0  0  0  0  0  0
  -24.9262  -11.8946   21.5038 C   0  0  0  0  0  0  0  0  0  0  0  0
  -29.5864  -18.2786   19.8048 C   0  0  0  0  0  0  0  0  0  0  0  0
  -29.8501  -20.9103   19.4420 C   0  0  0  0  0  0  0  0  0  0  0  0
  -30.8320  -20.0347   19.0337 C   0  0  0  0  0  0  0  0  0  0  0  0
  -25.1478  -13.7290   20.3118 C   0  0  0  0  0  0  0  0  0  0  0  0
  -22.8523  -13.3932   21.2428 C   0  0  0  0  0  0  0  0  0  0  0  0
  -26.8700  -30.3478   24.6338 C   0  0  0  0  0  0  0  0  0  0  0  0
  -23.9322  -30.5587   23.2747 C   0  0  0  0  0  0  0  0  0  0  0  0
  -21.9412  -29.9539   20.5697 C   0  0  0  0  0  0  0  0  0  0  0  0
  -30.2566  -15.8530   19.6865 C   0  0  0  0  0  0  0  0  0  0  0  0
  -27.3201  -32.2794   29.3374 C   0  0  0  0  0  0  0  0  0  0  0  0
  -27.4144  -31.4331   22.4244 C   0  0  0  0  0  0  0  0  0  0  0  0
  -25.6213  -29.1053   22.0915 C   0  0  0  0  0  0  0  0  0  0  0  0
  -26.2178  -31.5818   28.5445 C   0  0  0  0  0  0  0  0  0  0  0  0
  -29.7905  -12.4486   18.7538 C   0  0  0  0  0  0  0  0  0  0  0  0
  -26.7545  -30.3156   27.8846 C   0  0  0  0  0  0  0  0  0  0  0  0
  -28.4255  -12.0936   19.3478 C   0  0  0  0  0  0  0  0  0  0  0  0
  -30.5780  -13.3891   19.6644 C   0  0  0  0  0  0  0  0  0  0  0  0
  -28.4970  -14.2508   20.6625 C   0  0  0  0  0  0  0  0  0  0  0  0
  -27.8750  -30.6440   26.8906 C   0  0  1  0  0  0  0  0  0  0  0  0
  -26.3338  -31.0989   23.4481 C   0  0  1  0  0  0  0  0  0  0  0  0
  -27.6404  -13.3573   19.7507 C   0  0  2  0  0  0  0  0  0  0  0  0
  -19.5758  -30.2032   19.7697 C   0  0  0  0  0  0  0  0  0  0  0  0
  -23.1005  -28.1846   25.0015 C   0  0  0  0  0  0  0  0  0  0  0  0
  -21.1113  -27.8863   23.5107 C   0  0  0  0  0  0  0  0  0  0  0  0
  -21.3832  -29.9934   24.8179 C   0  0  0  0  0  0  0  0  0  0  0  0
  -22.7596  -31.7147   18.3361 C   0  0  0  0  0  0  0  0  0  0  0  0
  -29.0440  -23.2639   19.6326 C   0  0  0  0  0  0  0  0  0  0  0  0
  -28.5200  -25.7268   19.6428 C   0  0  0  0  0  0  0  0  0  1  0  0
  -22.8860  -29.5652   22.8303 C   0  0  1  0  0  0  0  0  0  0  0  0
  -20.9566  -30.8381   19.8259 C   0  0  2  0  0  0  0  0  0  0  0  0
  -29.5286  -24.6575   19.2374 C   0  0  1  0  0  0  0  0  0  0  0  0
  -22.1466  -28.9071   24.0294 C   0  0  0  0  0  0  0  0  0  0  0  0
  -28.7191  -20.4859   20.0397 N   0  0  0  0  0  0  0  0  0  0  0  0
  -26.2015  -11.8837   21.1071 N   0  0  0  0  0  0  0  0  0  0  0  0
  -30.7176  -18.7031   19.2074 N   0  0  0  0  0  0  0  0  0  0  0  0
  -26.3056  -13.0118   20.3841 N   0  0  0  0  0  0  0  0  0  0  0  0
  -25.2516  -30.2898   22.8838 N   0  0  0  0  0  0  0  0  0  0  0  0
  -29.7730  -14.5654   20.0009 N   0  0  0  0  0  0  0  0  0  0  0  0
  -31.9994  -20.5335   18.4120 N   0  0  0  0  0  0  0  0  0  0  0  0
  -25.0765  -14.8890   19.6250 N   0  0  0  0  0  0  0  0  0  0  0  0
  -22.0393  -12.5519   22.0145 N   0  0  0  0  0  0  0  0  0  0  0  0
  -29.3904  -16.8925   20.0240 N   0  0  0  0  0  0  0  0  0  0  0  0
  -30.0171  -22.2698   19.2390 N   0  0  0  0  0  0  0  0  0  0  0  0
  -27.3212  -31.1596   25.6569 N   0  0  0  0  0  0  0  0  0  0  0  0
  -22.0104  -30.2797   21.9077 N   0  0  0  0  0  0  0  0  0  0  0  0
  -21.4231  -31.0728   18.4301 N   0  3  0  0  0  0  0  0  0  0  0  0
  -22.3599  -14.4328   20.7424 O   0  0  0  0  0  0  0  0  0  0  0  0
  -26.8727  -29.1224   24.6220 O   0  0  0  0  0  0  0  0  0  0  0  0
  -23.5903  -31.5410   23.9378 O   0  0  0  0  0  0  0  0  0  0  0  0
  -22.5819  -29.0610   20.0195 O   0  0  0  0  0  0  0  0  0  0  0  0
  -31.3461  -16.0197   19.1322 O   0  0  0  0  0  0  0  0  0  0  0  0
  -30.7545  -24.9361   19.9170 O   0  0  0  0  0  0  0  0  0  0  0  0
  -22.9381   -7.7410   24.6759 O   0  0  0  0  0  0  0  0  0  0  0  0
  -29.0308  -27.0083   19.2780 O   0  0  0  0  0  0  0  0  0  1  0  0
  -18.0249   -5.6223   23.3432 F   0  0  0  0  0  0  0  0  0  0  0  0
  -22.6758   -5.0667   24.0262 F   0  0  0  0  0  0  0  0  0  0  0  0
  1  2  1  0  0  0  0
  1  5  2  0  0  0  0
  2  6  2  0  0  0  0
  3  8  2  0  0  0  0
  3 16  1  0  0  0  0
  4  9  1  0  0  0  0
  4 16  2  0  0  0  0
  5 18  1  0  0  0  0
  6 20  1  0  0  0  0
  7 10  2  0  0  0  0
  7 19  1  0  0  0  0
  8 22  1  0  0  0  0
  9 22  2  0  0  0  0
 10 23  1  0  0  0  0
 11 12  2  0  0  0  0
 11 24  1  0  0  0  0
 12 25  1  0  0  0  0
 13 21  1  0  0  0  0
 13 23  2  0  0  0  0
 14 25  2  0  0  0  0
 14 26  1  0  0  0  0
 15 28  1  0  0  0  0
 15 60  2  0  0  0  0
 16 27  1  0  0  0  0
 17 27  1  0  0  0  0
 17 31  2  0  0  0  0
 17 32  1  0  0  0  0
 18 20  2  0  0  0  0
 18 37  1  0  0  0  0
 19 21  2  0  0  0  0
 19 38  1  0  0  0  0
 20 46  1  0  0  0  0
 21 39  1  0  0  0  0
 22 80  1  0  0  0  0
 23 81  1  0  0  0  0
 24 26  2  0  0  0  0
 24 80  1  0  0  0  0
 25 82  1  0  0  0  0
 26 83  1  0  0  0  0
 27 61  2  0  0  0  0
 28 62  2  0  0  0  0
 28 69  1  0  0  0  0
 29 30  2  0  0  0  0
 29 60  1  0  0  0  0
 29 70  1  0  0  0  0
 30 62  1  0  0  0  0
 30 66  1  0  0  0  0
 31 63  1  0  0  0  0
 31 67  1  0  0  0  0
 32 68  1  0  0  0  0
 32 74  2  0  0  0  0
 33 47  1  0  0  0  0
 33 71  1  0  0  0  0
 33 75  2  0  0  0  0
 34 56  1  0  0  0  0
 34 64  1  0  0  0  0
 34 76  2  0  0  0  0
 35 57  1  0  0  0  0
 35 72  1  0  0  0  0
 35 77  2  0  0  0  0
 36 65  1  0  0  0  0
 36 69  1  0  0  0  0
 36 78  2  0  0  0  0
 37 40  1  0  0  0  0
 38 47  1  0  0  0  0
 39 64  1  0  0  0  0
 40 42  1  0  0  0  0
 41 43  1  0  0  0  0
 41 44  1  0  0  0  0
 42 46  1  0  0  0  0
 43 48  1  0  0  0  0
 44 65  1  0  0  0  0
 45 48  1  0  0  0  0
 45 65  1  0  0  0  0
 46 71  1  0  0  0  0
 47 64  1  0  0  0  0
 48 63  1  0  0  0  0
 49 57  1  0  0  0  0
 50 59  1  0  0  0  0
 51 59  1  0  0  0  0
 52 59  1  0  0  0  0
 53 73  1  0  0  0  0
 54 58  1  0  0  0  0
 54 70  1  0  0  0  0
 55 58  1  0  0  0  0
 55 81  1  0  0  0  0
 56 59  1  0  0  0  0
 56 72  1  0  0  0  0
 57 73  1  0  0  0  0
 58 79  1  0  0  0  0
 61 63  1  0  0  0  0
M  CHG  1  73   1
M  ISO  4  36 100  55 101  69 100  81 101
M  END
> <Batch ID>
0198

> <Smiles>
CNC(C)C(=O)NC(C(=O)N1Cc2cc([101O:1][101CH2:1]C(O)CNc3ncc([100NH:0][100C:0](=O)N4CCCC(n5nc(-c6ccc(Oc7ccc(F)cc7F)cc6)c(C(N)=O)c5N)C4)nc3N)ccc2CC1C(=O)NC1CCCc2ccccc21)C(C)(C)C

> <Shape>
0.322

> <Color>
0.152

> <Negative vol penalty>
0.000

$$$$

  -OEChem-04052305443D

 81 89  0     1  0  0  0  0  0999 V2000
  -20.9587  -35.0426   21.6130 C   0  0  0  0  0  0  0  0  0  0  0  0
  -22.0960  -34.3513   21.2079 C   0  0  0  0  0  0  0  0  0  0  0  0
  -26.7606  -12.7133   21.5619 C   0  0  0  0  0  0  0  0  0  0  0  0
  -26.3524  -13.7540   19.4200 C   0  0  0  0  0  0  0  0  0  0  0  0
  -20.1462  -34.5179   22.6172 C   0  0  0  0  0  0  0  0  0  0  0  0
  -22.4220  -33.1353   21.8076 C   0  0  0  0  0  0  0  0  0  0  0  0
  -25.0483  -28.2956   19.1270 C   0  0  0  0  0  0  0  0  0  0  0  0
  -25.4523  -12.2299   21.5764 C   0  0  0  0  0  0  0  0  0  0  0  0
  -25.0441  -13.2705   19.4345 C   0  0  0  0  0  0  0  0  0  0  0  0
  -26.3668  -27.8438   19.0916 C   0  0  0  0  0  0  0  0  0  0  0  0
  -23.7190   -9.6913   20.1680 C   0  0  0  0  0  0  0  0  0  0  0  0
  -23.5232   -8.3621   20.5429 C   0  0  0  0  0  0  0  0  0  0  0  0
  -25.8959  -26.3451   20.9223 C   0  0  0  0  0  0  0  0  0  0  0  0
  -22.1345   -9.0858   22.3827 C   0  0  0  0  0  0  0  0  0  0  0  0
  -30.0884  -21.0337   17.2964 C   0  0  0  0  0  0  0  0  0  0  0  0
  -27.2107  -13.4754   20.4837 C   0  0  0  0  0  0  0  0  0  0  0  0
  -29.6993  -13.3356   19.9405 C   0  0  0  0  0  0  0  0  0  0  0  0
  -20.4570  -33.2902   23.2227 C   0  0  0  0  0  0  0  0  0  0  0  0
  -24.1451  -27.7826   20.0690 C   0  0  0  0  0  0  0  0  0  0  0  0
  -21.6135  -32.5943   22.8217 C   0  0  0  0  0  0  0  0  0  0  0  0
  -24.5659  -26.7902   20.9659 C   0  0  0  0  0  0  0  0  0  0  0  0
  -24.5941  -12.5085   20.5127 C   0  0  0  0  0  0  0  0  0  0  0  0
  -26.7916  -26.8705   19.9912 C   0  0  0  0  0  0  0  0  0  0  0  0
  -23.1227  -10.7177   20.9004 C   0  0  0  0  0  0  0  0  0  0  0  0
  -22.7309   -8.0594   21.6503 C   0  0  0  0  0  0  0  0  0  0  0  0
  -22.3304  -10.4149   22.0078 C   0  0  0  0  0  0  0  0  0  0  0  0
  -28.5619  -13.9755   20.4684 C   0  0  0  0  0  0  0  0  0  0  0  0
  -30.5839  -21.1069   18.6058 C   0  0  0  0  0  0  0  0  0  0  0  0
  -30.7272  -14.2167   20.1717 C   0  0  0  0  0  0  0  0  0  0  0  0
  -29.8161  -12.0590   19.2985 C   0  0  0  0  0  0  0  0  0  0  0  0
  -22.4646  -29.0161   22.4686 C   0  0  0  0  0  0  0  0  0  0  0  0
  -21.1860  -26.0373   22.5901 C   0  0  0  0  0  0  0  0  0  0  0  0
  -21.5202  -22.7109   21.9044 C   0  0  0  0  0  0  0  0  0  0  0  0
  -30.9370  -20.1430   20.9064 C   0  0  0  0  0  0  0  0  0  0  0  0
  -19.5743  -32.7861   24.3369 C   0  0  0  0  0  0  0  0  0  0  0  0
  -22.7192  -28.2612   20.0767 C   0  0  0  0  0  0  0  0  0  0  0  0
  -23.6301  -26.1925   21.9834 C   0  0  0  0  0  0  0  0  0  0  0  0
  -19.7852  -31.3093   24.6604 C   0  0  0  0  0  0  0  0  0  0  0  0
  -32.0895  -17.6714   23.1955 C   0  0  0  0  0  0  0  0  0  0  0  0
  -21.2739  -30.9923   24.7618 C   0  0  0  0  0  0  0  0  0  0  0  0
  -31.4240  -16.3838   22.7042 C   0  0  0  0  0  0  0  0  0  0  0  0
  -31.1712  -18.8816   23.0345 C   0  0  0  0  0  0  0  0  0  0  0  0
  -29.9575  -17.7822   21.1940 C   0  0  0  0  0  0  0  0  0  0  0  0
  -21.9869  -31.2603   23.4309 C   0  0  1  0  0  0  0  0  0  0  0  0
  -22.0219  -28.0401   21.4154 C   0  0  1  0  0  0  0  0  0  0  0  0
  -30.8682  -16.5463   21.2759 C   0  0  2  0  0  0  0  0  0  0  0  0
  -20.3260  -20.5182   22.1556 C   0  0  0  0  0  0  0  0  0  0  0  0
  -21.9255  -25.9764   25.5497 C   0  0  0  0  0  0  0  0  0  0  0  0
  -21.5974  -23.4947   25.5090 C   0  0  0  0  0  0  0  0  0  0  0  0
  -19.6805  -25.0128   25.0153 C   0  0  0  0  0  0  0  0  0  0  0  0
  -21.4192  -22.2981   18.9755 C   0  0  0  0  0  0  0  0  0  0  0  0
  -30.5073  -25.2837   17.3207 C   0  0  0  0  0  0  0  0  0  0  0  0
  -31.6040  -24.2124   17.2956 C   0  0  0  0  0  0  0  0  0  0  0  0
  -28.7396  -26.4454   18.6949 C   0  0  0  0  0  0  0  0  0  1  0  0
  -21.5289  -24.7553   23.3097 C   0  0  1  0  0  0  0  0  0  0  0  0
  -20.5755  -21.7168   21.2534 C   0  0  2  0  0  0  0  0  0  0  0  0
  -29.7805  -25.3306   18.6677 C   0  0  2  0  0  0  0  0  0  0  0  0
  -21.2015  -24.8222   24.8281 C   0  0  0  0  0  0  0  0  0  0  0  0
  -30.3880  -22.1552   16.6352 N   0  0  0  0  0  0  0  0  0  0  0  0
  -28.8407  -15.1708   20.9954 N   0  0  0  0  0  0  0  0  0  0  0  0
  -31.2051  -22.2752   18.7903 N   0  0  0  0  0  0  0  0  0  0  0  0
  -30.1651  -15.2889   20.7998 N   0  0  0  0  0  0  0  0  0  0  0  0
  -31.0480  -22.8406   17.5827 N   0  0  0  0  0  0  0  0  0  0  0  0
  -22.2475  -26.6978   21.9553 N   0  0  0  0  0  0  0  0  0  0  0  0
  -30.6866  -18.9739   21.6555 N   0  0  0  0  0  0  0  0  0  0  0  0
  -32.0482  -14.1711   19.8969 N   0  0  0  0  0  0  0  0  0  0  0  0
  -28.6604  -11.2816   19.1419 N   0  0  0  0  0  0  0  0  0  0  0  0
  -30.4573  -20.1029   19.5976 N   0  0  0  0  0  0  0  0  0  0  0  0
  -21.7306  -30.1866   22.4950 N   0  0  0  0  0  0  0  0  0  0  0  0
  -20.8360  -23.6885   22.5955 N   0  0  0  0  0  0  0  0  0  0  0  0
  -21.1459  -21.2261   19.9670 N   0  3  0  0  0  0  0  0  0  0  0  0
  -30.9156  -11.6134   18.8909 O   0  0  0  0  0  0  0  0  0  0  0  0
  -23.4017  -28.7279   23.2037 O   0  0  0  0  0  0  0  0  0  0  0  0
  -20.0181  -26.4343   22.5851 O   0  0  0  0  0  0  0  0  0  0  0  0
  -22.7428  -22.6265   21.8124 O   0  0  0  0  0  0  0  0  0  0  0  0
  -31.5568  -21.0980   21.3815 O   0  0  0  0  0  0  0  0  0  0  0  0
  -30.7381  -25.5725   19.6983 O   0  0  0  0  0  0  0  0  0  0  0  0
  -23.3174  -12.0367   20.5264 O   0  0  0  0  0  0  0  0  0  0  0  0
  -28.0781  -26.4281   19.9592 O   0  0  0  0  0  0  0  0  0  1  0  0
  -22.5416   -6.7829   22.0093 F   0  0  0  0  0  0  0  0  0  0  0  0
  -21.7538  -11.3967   22.7146 F   0  0  0  0  0  0  0  0  0  0  0  0
  1  2  1  0  0  0  0
  1  5  2  0  0  0  0
  2  6  2  0  0  0  0
  3  8  2  0  0  0  0
  3 16  1  0  0  0  0
  4  9  1  0  0  0  0
  4 16  2  0  0  0  0
  5 18  1  0  0  0  0
  6 20  1  0  0  0  0
  7 10  2  0  0  0  0
  7 19  1  0  0  0  0
  8 22  1  0  0  0  0
  9 22  2  0  0  0  0
 10 23  1  0  0  0  0
 11 12  2  0  0  0  0
 11 24  1  0  0  0  0
 12 25  1  0  0  0  0
 13 21  1  0  0  0  0
 13 23  2  0  0  0  0
 14 25  2  0  0  0  0
 14 26  1  0  0  0  0
 15 28  1  0  0  0  0
 15 59  2  0  0  0  0
 16 27  1  0  0  0  0
 17 27  1  0  0  0  0
 17 29  2  0  0  0  0
 17 30  1  0  0  0  0
 18 20  2  0  0  0  0
 18 35  1  0  0  0  0
 19 21  2  0  0  0  0
 19 36  1  0  0  0  0
 20 44  1  0  0  0  0
 21 37  1  0  0  0  0
 22 78  1  0  0  0  0
 23 79  1  0  0  0  0
 24 26  2  0  0  0  0
 24 78  1  0  0  0  0
 25 80  1  0  0  0  0
 26 81  1  0  0  0  0
 27 60  2  0  0  0  0
 28 61  2  0  0  0  0
 28 68  1  0  0  0  0
 29 62  1  0  0  0  0
 29 66  1  0  0  0  0
 30 67  1  0  0  0  0
 30 72  2  0  0  0  0
 31 45  1  0  0  0  0
 31 69  1  0  0  0  0
 31 73  2  0  0  0  0
 32 55  1  0  0  0  0
 32 64  1  0  0  0  0
 32 74  2  0  0  0  0
 33 56  1  0  0  0  0
 33 70  1  0  0  0  0
 33 75  2  0  0  0  0
 34 65  1  0  0  0  0
 34 68  1  0  0  0  0
 34 76  2  0  0  0  0
 35 38  1  0  0  0  0
 36 45  1  0  0  0  0
 37 64  1  0  0  0  0
 38 40  1  0  0  0  0
 39 41  1  0  0  0  0
 39 42  1  0  0  0  0
 40 44  1  0  0  0  0
 41 46  1  0  0  0  0
 42 65  1  0  0  0  0
 43 46  1  0  0  0  0
 43 65  1  0  0  0  0
 44 69  1  0  0  0  0
 45 64  1  0  0  0  0
 46 62  1  0  0  0  0
 47 56  1  0  0  0  0
 48 58  1  0  0  0  0
 49 58  1  0  0  0  0
 50 58  1  0  0  0  0
 51 71  1  0  0  0  0
 52 53  1  0  0  0  0
 52 57  1  0  0  0  0
 53 63  1  0  0  0  0
 54 57  1  0  0  0  0
 54 79  1  0  0  0  0
 55 58  1  0  0  0  0
 55 70  1  0  0  0  0
 56 71  1  0  0  0  0
 57 77  1  0  0  0  0
 59 63  1  0  0  0  0
 60 62  1  0  0  0  0
 61 63  1  0  0  0  0
M  CHG  1  71   1
M  ISO  4  34 100  54 101  68 100  79 101
M  END
> <Batch ID>
0198

> <Smiles>
CNC(C)C(=O)NC(C(=O)N1Cc2cc([101O:1][101CH2:1]C(O)CCn3ncc([100NH:0][100C:0](=O)N4CCCC(n5nc(-c6ccc(Oc7ccc(F)cc7F)cc6)c(C(N)=O)c5N)C4)n3)ccc2CC1C(=O)NC1CCCc2ccccc21)C(C)(C)C

> <Shape>
0.258

> <Color>
0.107

> <Negative vol penalty>
0.000

$$$$

  -OEChem-04052305443D

 81 89  0     1  0  0  0  0  0999 V2000
  -30.4095  -25.8357   17.3955 C   0  0  0  0  0  0  0  0  0  0  0  0
  -29.0208  -25.8231   17.4771 C   0  0  0  0  0  0  0  0  0  0  0  0
  -27.0824  -18.6252   22.1356 C   0  0  0  0  0  0  0  0  0  0  0  0
  -26.3042  -20.7791   21.3660 C   0  0  0  0  0  0  0  0  0  0  0  0
  -31.1656  -26.3026   18.4698 C   0  0  0  0  0  0  0  0  0  0  0  0
  -28.3873  -26.2764   18.6337 C   0  0  0  0  0  0  0  0  0  0  0  0
  -23.0390  -29.2395   18.9816 C   0  0  0  0  0  0  0  0  0  0  0  0
  -28.2146  -18.7464   21.3300 C   0  0  0  0  0  0  0  0  0  0  0  0
  -27.4364  -20.9003   20.5604 C   0  0  0  0  0  0  0  0  0  0  0  0
  -21.7448  -28.8084   19.2700 C   0  0  0  0  0  0  0  0  0  0  0  0
  -28.5105  -19.7216   17.5791 C   0  0  0  0  0  0  0  0  0  0  0  0
  -28.3295  -20.1666   16.2696 C   0  0  0  0  0  0  0  0  0  0  0  0
  -22.0478  -29.4593   21.5730 C   0  0  0  0  0  0  0  0  0  0  0  0
  -29.7617  -22.0607   16.7153 C   0  0  0  0  0  0  0  0  0  0  0  0
  -17.4832  -24.1614   22.2220 C   0  0  0  0  0  0  0  0  0  0  0  0
  -26.1271  -19.6415   22.1536 C   0  0  0  0  0  0  0  0  0  0  0  0
  -24.8132  -19.9417   24.3195 C   0  0  0  0  0  0  0  0  0  0  0  0
  -30.5408  -26.7709   19.6364 C   0  0  0  0  0  0  0  0  0  0  0  0
  -23.8525  -29.7745   19.9907 C   0  0  0  0  0  0  0  0  0  0  0  0
  -29.1358  -26.7488   19.7252 C   0  0  0  0  0  0  0  0  0  0  0  0
  -23.3510  -29.8988   21.2942 C   0  0  0  0  0  0  0  0  0  0  0  0
  -28.3916  -19.8840   20.5424 C   0  0  0  0  0  0  0  0  0  0  0  0
  -21.2501  -28.9156   20.5665 C   0  0  0  0  0  0  0  0  0  0  0  0
  -29.3171  -20.4462   18.4568 C   0  0  0  0  0  0  0  0  0  0  0  0
  -28.9551  -21.3361   15.8377 C   0  0  0  0  0  0  0  0  0  0  0  0
  -29.9426  -21.6157   18.0248 C   0  0  0  0  0  0  0  0  0  0  0  0
  -24.9571  -19.5167   22.9851 C   0  0  0  0  0  0  0  0  0  0  0  0
  -23.5262  -19.5967   24.6528 C   0  0  0  0  0  0  0  0  0  0  0  0
  -18.4574  -24.6047   21.3522 C   0  0  0  0  0  0  0  0  0  0  0  0
  -17.7923  -22.3034   21.0985 C   0  0  0  0  0  0  0  0  0  0  0  0
  -25.7584  -20.5904   25.1806 C   0  0  0  0  0  0  0  0  0  0  0  0
  -26.6275  -28.9539   21.3058 C   0  0  0  0  0  0  0  0  0  0  0  0
  -26.2918  -31.7895   22.8450 C   0  0  0  0  0  0  0  0  0  0  0  0
  -24.2066  -34.2422   23.9775 C   0  0  0  0  0  0  0  0  0  0  0  0
  -18.5693  -18.7223   21.4101 C   0  0  0  0  0  0  0  0  0  0  0  0
  -31.4015  -27.2219   20.7899 C   0  0  0  0  0  0  0  0  0  0  0  0
  -25.2367  -30.2597   19.6576 C   0  0  0  0  0  0  0  0  0  0  0  0
  -24.1769  -30.4848   22.4091 C   0  0  0  0  0  0  0  0  0  0  0  0
  -30.6420  -28.0347   21.8352 C   0  0  0  0  0  0  0  0  0  0  0  0
  -20.1193  -16.4004   23.6197 C   0  0  0  0  0  0  0  0  0  0  0  0
  -29.3213  -27.3555   22.1835 C   0  0  0  0  0  0  0  0  0  0  0  0
  -21.5219  -16.9741   23.8280 C   0  0  0  0  0  0  0  0  0  0  0  0
  -19.6251  -16.6222   22.1919 C   0  0  0  0  0  0  0  0  0  0  0  0
  -21.0797  -18.5954   21.9374 C   0  0  0  0  0  0  0  0  0  0  0  0
  -28.4112  -27.2554   20.9533 C   0  0  1  0  0  0  0  0  0  0  0  0
  -26.1591  -30.3139   20.8716 C   0  0  1  0  0  0  0  0  0  0  0  0
  -21.5986  -18.4453   23.3777 C   0  0  2  0  0  0  0  0  0  0  0  0
  -24.2203  -36.4154   25.2323 C   0  0  0  0  0  0  0  0  0  0  0  0
  -17.3255  -27.5565   21.6502 C   0  0  0  0  0  0  0  0  0  0  0  0
  -26.6869  -30.2726   25.4629 C   0  0  0  0  0  0  0  0  0  0  0  0
  -25.7614  -32.2595   26.6729 C   0  0  0  0  0  0  0  0  0  0  0  0
  -27.8630  -32.4766   25.3466 C   0  0  0  0  0  0  0  0  0  0  0  0
  -23.0805  -35.7149   21.6705 C   0  0  0  0  0  0  0  0  0  0  0  0
  -17.6551  -20.9007   20.6498 C   0  0  0  0  0  0  0  0  0  0  0  0
  -19.7467  -28.0090   22.1708 C   0  0  0  0  0  0  0  0  0  1  0  0
  -25.6548  -32.2345   24.1393 C   0  0  1  0  0  0  0  0  0  0  0  0
  -24.2751  -35.7545   23.8638 C   0  0  2  0  0  0  0  0  0  0  0  0
  -18.6352  -26.9619   22.1507 C   0  0  2  0  0  0  0  0  0  0  0  0
  -26.4764  -31.7980   25.3850 C   0  0  0  0  0  0  0  0  0  0  0  0
  -17.1002  -22.8422   22.0777 N   0  0  0  0  0  0  0  0  0  0  0  0
  -23.8500  -18.9452   22.5037 N   0  0  0  0  0  0  0  0  0  0  0  0
  -22.9981  -19.0086   23.5413 N   0  0  0  0  0  0  0  0  0  0  0  0
  -25.5263  -30.9391   22.0347 N   0  0  0  0  0  0  0  0  0  0  0  0
  -19.7226  -18.0378   21.8276 N   0  0  0  0  0  0  0  0  0  0  0  0
  -22.8061  -19.7420   25.7854 N   0  0  0  0  0  0  0  0  0  0  0  0
  -27.0362  -20.8718   24.6784 N   0  0  0  0  0  0  0  0  0  0  0  0
  -19.0154  -25.8677   21.2797 N   0  0  0  0  0  0  0  0  0  0  0  0
  -27.7861  -28.5322   20.6820 N   0  0  0  0  0  0  0  0  0  0  0  0
  -25.4631  -33.6763   24.0253 N   0  0  0  0  0  0  0  0  0  0  0  0
  -18.7482  -20.0624   21.0894 N   0  0  0  0  0  0  0  0  0  0  0  0
  -23.1360  -36.2648   23.0495 N   0  3  0  0  0  0  0  0  0  0  0  0
  -25.4834  -20.8961   26.3657 O   0  0  0  0  0  0  0  0  0  0  0  0
  -25.9860  -28.3337   22.1459 O   0  0  0  0  0  0  0  0  0  0  0  0
  -27.4241  -32.1876   22.5600 O   0  0  0  0  0  0  0  0  0  0  0  0
  -23.1448  -33.6251   24.0235 O   0  0  0  0  0  0  0  0  0  0  0  0
  -17.4611  -18.1808   21.3342 O   0  0  0  0  0  0  0  0  0  0  0  0
  -29.4964  -20.0027   19.7563 O   0  0  0  0  0  0  0  0  0  0  0  0
  -19.9875  -28.4950   20.8509 O   0  0  0  0  0  0  0  0  0  1  0  0
  -28.7824  -21.7625   14.5797 F   0  0  0  0  0  0  0  0  0  0  0  0
  -30.7196  -22.3154   18.8631 F   0  0  0  0  0  0  0  0  0  0  0  0
  -18.9215  -23.3257   20.3081 S   0  0  0  0  0  0  0  0  0  0  0  0
  1  2  1  0  0  0  0
  1  5  2  0  0  0  0
  2  6  2  0  0  0  0
  3  8  2  0  0  0  0
  3 16  1  0  0  0  0
  4  9  1  0  0  0  0
  4 16  2  0  0  0  0
  5 18  1  0  0  0  0
  6 20  1  0  0  0  0
  7 10  2  0  0  0  0
  7 19  1  0  0  0  0
  8 22  1  0  0  0  0
  9 22  2  0  0  0  0
 10 23  1  0  0  0  0
 11 12  2  0  0  0  0
 11 24  1  0  0  0  0
 12 25  1  0  0  0  0
 13 21  1  0  0  0  0
 13 23  2  0  0  0  0
 14 25  2  0  0  0  0
 14 26  1  0  0  0  0
 15 29  2  0  0  0  0
 15 60  1  0  0  0  0
 16 27  1  0  0  0  0
 17 27  1  0  0  0  0
 17 28  2  0  0  0  0
 17 31  1  0  0  0  0
 18 20  2  0  0  0  0
 18 36  1  0  0  0  0
 19 21  2  0  0  0  0
 19 37  1  0  0  0  0
 20 45  1  0  0  0  0
 21 38  1  0  0  0  0
 22 77  1  0  0  0  0
 23 78  1  0  0  0  0
 24 26  2  0  0  0  0
 24 77  1  0  0  0  0
 25 79  1  0  0  0  0
 26 80  1  0  0  0  0
 27 61  2  0  0  0  0
 28 62  1  0  0  0  0
 28 65  1  0  0  0  0
 29 67  1  0  0  0  0
 29 81  1  0  0  0  0
 30 54  1  0  0  0  0
 30 60  2  0  0  0  0
 30 81  1  0  0  0  0
 31 66  1  0  0  0  0
 31 72  2  0  0  0  0
 32 46  1  0  0  0  0
 32 68  1  0  0  0  0
 32 73  2  0  0  0  0
 33 56  1  0  0  0  0
 33 63  1  0  0  0  0
 33 74  2  0  0  0  0
 34 57  1  0  0  0  0
 34 69  1  0  0  0  0
 34 75  2  0  0  0  0
 35 64  1  0  0  0  0
 35 70  1  0  0  0  0
 35 76  2  0  0  0  0
 36 39  1  0  0  0  0
 37 46  1  0  0  0  0
 38 63  1  0  0  0  0
 39 41  1  0  0  0  0
 40 42  1  0  0  0  0
 40 43  1  0  0  0  0
 41 45  1  0  0  0  0
 42 47  1  0  0  0  0
 43 64  1  0  0  0  0
 44 47  1  0  0  0  0
 44 64  1  0  0  0  0
 45 68  1  0  0  0  0
 46 63  1  0  0  0  0
 47 62  1  0  0  0  0
 48 57  1  0  0  0  0
 49 58  1  0  0  0  0
 50 59  1  0  0  0  0
 51 59  1  0  0  0  0
 52 59  1  0  0  0  0
 53 71  1  0  0  0  0
 54 70  1  0  0  0  0
 55 58  1  0  0  0  0
 55 78  1  0  0  0  0
 56 59  1  0  0  0  0
 56 69  1  0  0  0  0
 57 71  1  0  0  0  0
 58 67  1  0  0  0  0
 61 62  1  0  0  0  0
M  CHG  1  71   1
M  ISO  4  35 100  55 101  70 100  78 101
M  END
> <Batch ID>
0198

> <Smiles>
CNC(C)C(=O)NC(C(=O)N1Cc2cc([101O:1][101CH2:1]C(C)Nc3cnc(C[100NH:0][100C:0](=O)N4CCCC(n5nc(-c6ccc(Oc7ccc(F)cc7F)cc6)c(C(N)=O)c5N)C4)s3)ccc2CC1C(=O)NC1CCCc2ccccc21)C(C)(C)C

> <Shape>
0.244

> <Color>
0.069

> <Negative vol penalty>
0.000

$$$$

  -OEChem-04052305443D

 82 90  0     1  0  0  0  0  0999 V2000
  -16.8601  -30.5708   23.9135 C   0  0  0  0  0  0  0  0  0  0  0  0
  -17.6819  -30.0083   24.8850 C   0  0  0  0  0  0  0  0  0  0  0  0
  -26.2878  -16.7556   19.7499 C   0  0  0  0  0  0  0  0  0  0  0  0
  -27.0698  -17.2963   21.9710 C   0  0  0  0  0  0  0  0  0  0  0  0
  -17.0303  -30.2260   22.5733 C   0  0  0  0  0  0  0  0  0  0  0  0
  -18.6736  -29.0997   24.5168 C   0  0  0  0  0  0  0  0  0  0  0  0
  -25.2520  -26.9586   26.3761 C   0  0  0  0  0  0  0  0  0  0  0  0
  -26.5564  -15.4070   19.9836 C   0  0  0  0  0  0  0  0  0  0  0  0
  -27.3384  -15.9476   22.2047 C   0  0  0  0  0  0  0  0  0  0  0  0
  -25.9602  -25.7976   26.6832 C   0  0  0  0  0  0  0  0  0  0  0  0
  -25.1040  -12.8235   21.6112 C   0  0  0  0  0  0  0  0  0  0  0  0
  -24.1362  -11.8942   21.2298 C   0  0  0  0  0  0  0  0  0  0  0  0
  -26.2140  -25.3369   24.3289 C   0  0  0  0  0  0  0  0  0  0  0  0
  -25.7278  -10.8462   19.7447 C   0  0  0  0  0  0  0  0  0  0  0  0
  -32.9493  -23.2282   25.4028 C   0  0  0  0  0  0  0  0  0  0  0  0
  -26.5446  -17.7003   20.7436 C   0  0  0  0  0  0  0  0  0  0  0  0
  -25.0650  -19.7783   20.7596 C   0  0  0  0  0  0  0  0  0  0  0  0
  -18.0309  -29.3202   22.1875 C   0  0  0  0  0  0  0  0  0  0  0  0
  -25.0097  -27.3123   25.0410 C   0  0  0  0  0  0  0  0  0  0  0  0
  -18.8564  -28.7415   23.1704 C   0  0  0  0  0  0  0  0  0  0  0  0
  -25.5047  -26.5043   24.0075 C   0  0  0  0  0  0  0  0  0  0  0  0
  -27.0816  -15.0029   21.2110 C   0  0  0  0  0  0  0  0  0  0  0  0
  -26.4388  -24.9850   25.6596 C   0  0  0  0  0  0  0  0  0  0  0  0
  -26.3837  -12.7642   21.0593 C   0  0  0  0  0  0  0  0  0  0  0  0
  -24.4481  -10.9056   20.2966 C   0  0  0  0  0  0  0  0  0  0  0  0
  -26.6956  -11.7755   20.1261 C   0  0  0  0  0  0  0  0  0  0  0  0
  -26.2679  -19.0936   20.5025 C   0  0  0  0  0  0  0  0  0  0  0  0
  -32.2496  -22.9852   24.2395 C   0  0  0  0  0  0  0  0  0  0  0  0
  -25.3122  -21.0687   20.3593 C   0  0  0  0  0  0  0  0  0  0  0  0
  -30.6562  -22.5450   25.6808 C   0  0  0  0  0  0  0  0  0  0  0  0
  -23.8343  -19.2914   21.3109 C   0  0  0  0  0  0  0  0  0  0  0  0
  -22.4048  -27.7152   23.2645 C   0  0  0  0  0  0  0  0  0  0  0  0
  -24.5460  -28.7320   21.0500 C   0  0  0  0  0  0  0  0  0  0  0  0
  -27.7542  -28.6864   19.8873 C   0  0  0  0  0  0  0  0  0  0  0  0
  -30.3376  -24.2791   19.8210 C   0  0  0  0  0  0  0  0  0  0  0  0
  -18.1458  -28.9421   20.7320 C   0  0  0  0  0  0  0  0  0  0  0  0
  -24.2672  -28.5820   24.7261 C   0  0  0  0  0  0  0  0  0  0  0  0
  -25.2890  -26.8503   22.5576 C   0  0  0  0  0  0  0  0  0  0  0  0
  -19.4647  -28.2574   20.3828 C   0  0  0  0  0  0  0  0  0  0  0  0
  -27.9540  -23.5893   17.2677 C   0  0  0  0  0  0  0  0  0  0  0  0
  -19.7908  -27.1736   21.4056 C   0  0  0  0  0  0  0  0  0  0  0  0
  -27.1431  -22.4207   17.8304 C   0  0  0  0  0  0  0  0  0  0  0  0
  -29.4278  -23.4921   17.6555 C   0  0  0  0  0  0  0  0  0  0  0  0
  -28.8685  -22.1783   19.6642 C   0  0  0  0  0  0  0  0  0  0  0  0
  -19.9596  -27.7711   22.8077 C   0  0  1  0  0  0  0  0  0  0  0  0
  -23.6345  -28.5755   23.3379 C   0  0  1  0  0  0  0  0  0  0  0  0
  -27.3657  -22.2622   19.3465 C   0  0  2  0  0  0  0  0  0  0  0  0
  -29.1917  -29.5842   18.0366 C   0  0  0  0  0  0  0  0  0  0  0  0
  -23.3264  -26.7050   19.1228 C   0  0  0  0  0  0  0  0  0  0  0  0
  -25.3537  -26.9647   17.6767 C   0  0  0  0  0  0  0  0  0  0  0  0
  -23.8668  -28.9224   18.1003 C   0  0  0  0  0  0  0  0  0  0  0  0
  -29.5075  -30.1238   21.7896 C   0  0  0  0  0  0  0  0  0  0  0  0
  -32.7843  -23.1116   22.8691 C   0  0  0  0  0  0  0  0  0  0  0  0
  -32.6161  -24.5107   22.2290 C   0  0  0  0  0  0  0  0  0  0  0  0
  -31.1628  -24.9496   22.0635 C   0  0  0  0  0  0  0  0  0  0  0  0
  -28.2871  -21.8205   25.3834 C   0  0  0  0  0  0  0  0  0  0  0  0
  -27.5912  -23.0651   24.8583 C   0  0  0  0  0  0  0  0  0  1  0  0
  -25.3525  -28.0691   19.9596 C   0  0  1  0  0  0  0  0  0  0  0  0
  -28.6842  -29.8049   19.4531 C   0  0  2  0  0  0  0  0  0  0  0  0
  -24.4774  -27.6575   18.7421 C   0  0  0  0  0  0  0  0  0  0  0  0
  -27.2092  -19.8837   19.9793 N   0  0  0  0  0  0  0  0  0  0  0  0
  -30.9346  -22.5929   24.3969 N   0  0  0  0  0  0  0  0  0  0  0  0
  -26.5979  -21.0781   19.9043 N   0  0  0  0  0  0  0  0  0  0  0  0
  -24.5517  -28.0986   22.3009 N   0  0  0  0  0  0  0  0  0  0  0  0
  -29.5698  -23.3451   19.1061 N   0  0  0  0  0  0  0  0  0  0  0  0
  -24.5529  -22.1850   20.3557 N   0  0  0  0  0  0  0  0  0  0  0  0
  -23.7513  -17.9388   21.6686 N   0  0  0  0  0  0  0  0  0  0  0  0
  -29.4226  -22.1868   26.1987 N   0  0  0  0  0  0  0  0  0  0  0  0
  -21.2541  -28.4055   22.9343 N   0  0  0  0  0  0  0  0  0  0  0  0
  -26.4340  -28.9924   19.6332 N   0  0  0  0  0  0  0  0  0  0  0  0
  -30.4153  -24.0701   21.1925 N   0  0  0  0  0  0  0  0  0  0  0  0
  -29.8593  -29.8853   20.3662 N   0  3  0  0  0  0  0  0  0  0  0  0
  -22.8324  -20.0301   21.4661 O   0  0  0  0  0  0  0  0  0  0  0  0
  -22.4935  -26.5139   23.4893 O   0  0  0  0  0  0  0  0  0  0  0  0
  -23.9392  -29.7772   20.8031 O   0  0  0  0  0  0  0  0  0  0  0  0
  -28.1588  -27.6439   20.3973 O   0  0  0  0  0  0  0  0  0  0  0  0
  -30.9069  -25.2320   19.2780 O   0  0  0  0  0  0  0  0  0  0  0  0
  -27.3436  -13.6870   21.4395 O   0  0  0  0  0  0  0  0  0  0  0  0
  -27.1298  -23.8509   25.9565 O   0  0  0  0  0  0  0  0  0  1  0  0
  -23.5191  -10.0123   19.9316 F   0  0  0  0  0  0  0  0  0  0  0  0
  -27.9236  -11.7127   19.5933 F   0  0  0  0  0  0  0  0  0  0  0  0
  -31.9288  -22.9597   26.7548 S   0  0  0  0  0  0  0  0  0  0  0  0
  1  2  1  0  0  0  0
  1  5  2  0  0  0  0
  2  6  2  0  0  0  0
  3  8  2  0  0  0  0
  3 16  1  0  0  0  0
  4  9  1  0  0  0  0
  4 16  2  0  0  0  0
  5 18  1  0  0  0  0
  6 20  1  0  0  0  0
  7 10  2  0  0  0  0
  7 19  1  0  0  0  0
  8 22  1  0  0  0  0
  9 22  2  0  0  0  0
 10 23  1  0  0  0  0
 11 12  2  0  0  0  0
 11 24  1  0  0  0  0
 12 25  1  0  0  0  0
 13 21  1  0  0  0  0
 13 23  2  0  0  0  0
 14 25  2  0  0  0  0
 14 26  1  0  0  0  0
 15 28  2  0  0  0  0
 15 82  1  0  0  0  0
 16 27  1  0  0  0  0
 17 27  1  0  0  0  0
 17 29  2  0  0  0  0
 17 31  1  0  0  0  0
 18 20  2  0  0  0  0
 18 36  1  0  0  0  0
 19 21  2  0  0  0  0
 19 37  1  0  0  0  0
 20 45  1  0  0  0  0
 21 38  1  0  0  0  0
 22 78  1  0  0  0  0
 23 79  1  0  0  0  0
 24 26  2  0  0  0  0
 24 78  1  0  0  0  0
 25 80  1  0  0  0  0
 26 81  1  0  0  0  0
 27 61  2  0  0  0  0
 28 53  1  0  0  0  0
 28 62  1  0  0  0  0
 29 63  1  0  0  0  0
 29 66  1  0  0  0  0
 30 62  2  0  0  0  0
 30 68  1  0  0  0  0
 30 82  1  0  0  0  0
 31 67  1  0  0  0  0
 31 73  2  0  0  0  0
 32 46  1  0  0  0  0
 32 69  1  0  0  0  0
 32 74  2  0  0  0  0
 33 58  1  0  0  0  0
 33 64  1  0  0  0  0
 33 75  2  0  0  0  0
 34 59  1  0  0  0  0
 34 70  1  0  0  0  0
 34 76  2  0  0  0  0
 35 65  1  0  0  0  0
 35 71  1  0  0  0  0
 35 77  2  0  0  0  0
 36 39  1  0  0  0  0
 37 46  1  0  0  0  0
 38 64  1  0  0  0  0
 39 41  1  0  0  0  0
 40 42  1  0  0  0  0
 40 43  1  0  0  0  0
 41 45  1  0  0  0  0
 42 47  1  0  0  0  0
 43 65  1  0  0  0  0
 44 47  1  0  0  0  0
 44 65  1  0  0  0  0
 45 69  1  0  0  0  0
 46 64  1  0  0  0  0
 47 63  1  0  0  0  0
 48 59  1  0  0  0  0
 49 60  1  0  0  0  0
 50 60  1  0  0  0  0
 51 60  1  0  0  0  0
 52 72  1  0  0  0  0
 53 54  1  0  0  0  0
 54 55  1  0  0  0  0
 55 71  1  0  0  0  0
 56 57  1  0  0  0  0
 56 68  1  0  0  0  0
 57 79  1  0  0  0  0
 58 60  1  0  0  0  0
 58 70  1  0  0  0  0
 59 72  1  0  0  0  0
 61 63  1  0  0  0  0
M  CHG  1  72   1
M  ISO  4  35 100  57 101  71 100  79 101
M  END
> <Batch ID>
0198

> <Smiles>
CNC(C)C(=O)NC(C(=O)N1Cc2cc([101O:1][101CH2:1]CNc3nc(CCC[100NH:0][100C:0](=O)N4CCCC(n5nc(-c6ccc(Oc7ccc(F)cc7F)cc6)c(C(N)=O)c5N)C4)cs3)ccc2CC1C(=O)NC1CCCc2ccccc21)C(C)(C)C

> <Shape>
0.200

> <Color>
0.063

> <Negative vol penalty>
0.000

$$$$

  -OEChem-04052305443D

 83 91  0     1  0  0  0  0  0999 V2000
  -18.3743  -28.1536   23.5445 C   0  0  0  0  0  0  0  0  0  0  0  0
  -19.7082  -28.0088   23.9121 C   0  0  0  0  0  0  0  0  0  0  0  0
  -24.3879  -13.9345   20.4875 C   0  0  0  0  0  0  0  0  0  0  0  0
  -26.7353  -13.6150   20.9618 C   0  0  0  0  0  0  0  0  0  0  0  0
  -17.9590  -27.7750   22.2686 C   0  0  0  0  0  0  0  0  0  0  0  0
  -20.6274  -27.4843   23.0042 C   0  0  0  0  0  0  0  0  0  0  0  0
  -24.9583  -30.1065   22.8905 C   0  0  0  0  0  0  0  0  0  0  0  0
  -24.2479  -12.5657   20.2584 C   0  0  0  0  0  0  0  0  0  0  0  0
  -26.5952  -12.2462   20.7327 C   0  0  0  0  0  0  0  0  0  0  0  0
  -25.8648  -29.8837   23.9260 C   0  0  0  0  0  0  0  0  0  0  0  0
  -23.1942   -9.1049   19.9010 C   0  0  0  0  0  0  0  0  0  0  0  0
  -22.0927   -8.4622   20.4659 C   0  0  0  0  0  0  0  0  0  0  0  0
  -27.1403  -28.4264   22.4878 C   0  0  0  0  0  0  0  0  0  0  0  0
  -22.8476   -9.1048   22.6692 C   0  0  0  0  0  0  0  0  0  0  0  0
  -28.6719  -23.4129   22.8052 C   0  0  0  0  0  0  0  0  0  0  0  0
  -30.1792  -25.2547   21.5955 C   0  0  0  0  0  0  0  0  0  0  0  0
  -25.6316  -14.4591   20.8391 C   0  0  0  0  0  0  0  0  0  0  0  0
  -25.6221  -16.5507   22.2995 C   0  0  0  0  0  0  0  0  0  0  0  0
  -18.8754  -27.2546   21.3413 C   0  0  0  0  0  0  0  0  0  0  0  0
  -25.1302  -29.4812   21.6472 C   0  0  0  0  0  0  0  0  0  0  0  0
  -20.2237  -27.0972   21.7151 C   0  0  0  0  0  0  0  0  0  0  0  0
  -26.2359  -28.6449   21.4373 C   0  0  0  0  0  0  0  0  0  0  0  0
  -25.3515  -11.7216   20.3810 C   0  0  0  0  0  0  0  0  0  0  0  0
  -26.9544  -29.0413   23.7257 C   0  0  0  0  0  0  0  0  0  0  0  0
  -24.1225   -9.7475   20.7202 C   0  0  0  0  0  0  0  0  0  0  0  0
  -21.9194   -8.4621   21.8500 C   0  0  0  0  0  0  0  0  0  0  0  0
  -23.9492   -9.7475   22.1042 C   0  0  0  0  0  0  0  0  0  0  0  0
  -25.7770  -15.8730   21.0754 C   0  0  0  0  0  0  0  0  0  0  0  0
  -29.0393  -23.2753   21.4848 C   0  0  0  0  0  0  0  0  0  0  0  0
  -29.8112  -25.3928   22.9157 C   0  0  0  0  0  0  0  0  0  0  0  0
  -25.8637  -17.8682   21.9956 C   0  0  0  0  0  0  0  0  0  0  0  0
  -25.2897  -16.0354   23.5955 C   0  0  0  0  0  0  0  0  0  0  0  0
  -23.4393  -27.4145   19.9228 C   0  0  0  0  0  0  0  0  0  0  0  0
  -25.7351  -27.9851   17.7034 C   0  0  0  0  0  0  0  0  0  0  0  0
  -28.9251  -28.9923   17.0277 C   0  0  0  0  0  0  0  0  0  0  0  0
  -28.8588  -21.8085   19.4447 C   0  0  0  0  0  0  0  0  0  0  0  0
  -18.3704  -26.8152   19.9898 C   0  0  0  0  0  0  0  0  0  0  0  0
  -24.1581  -29.7529   20.5320 C   0  0  0  0  0  0  0  0  0  0  0  0
  -26.4767  -27.9656   20.1148 C   0  0  0  0  0  0  0  0  0  0  0  0
  -19.4797  -26.6172   18.9599 C   0  0  0  0  0  0  0  0  0  0  0  0
  -26.3447  -20.1812   17.5189 C   0  0  0  0  0  0  0  0  0  0  0  0
  -20.6296  -25.8155   19.5614 C   0  0  0  0  0  0  0  0  0  0  0  0
  -25.9601  -18.9711   18.3732 C   0  0  0  0  0  0  0  0  0  0  0  0
  -27.8394  -20.4845   17.6053 C   0  0  0  0  0  0  0  0  0  0  0  0
  -27.9809  -19.4206   19.8228 C   0  0  0  0  0  0  0  0  0  0  0  0
  -21.2556  -26.5553   20.7498 C   0  0  1  0  0  0  0  0  0  0  0  0
  -24.1479  -28.6592   19.4685 C   0  0  1  0  0  0  0  0  0  0  0  0
  -26.4740  -19.1158   19.8191 C   0  0  2  0  0  0  0  0  0  0  0  0
  -30.5266  -29.3171   15.1232 C   0  0  0  0  0  0  0  0  0  0  0  0
  -30.8175  -25.9074   25.8734 C   0  0  0  0  0  0  0  0  0  0  0  0
  -29.3912  -30.6449   24.9036 C   0  0  0  0  0  0  0  0  0  0  0  0
  -26.1601  -24.9676   17.5493 C   0  0  0  0  0  0  0  0  0  0  0  0
  -28.3412  -25.4036   16.4000 C   0  0  0  0  0  0  0  0  0  0  0  0
  -26.2063  -26.1417   15.3416 C   0  0  0  0  0  0  0  0  0  0  0  0
  -29.1774  -31.8886   17.5814 C   0  0  0  0  0  0  0  0  0  0  0  0
  -30.1191  -28.2641   25.3066 C   0  0  0  0  0  0  0  0  0  0  0  0
  -27.0753  -27.3751   17.3703 C   0  0  1  0  0  0  0  0  0  0  0  0
  -29.4774  -29.9720   16.0081 C   0  0  2  0  0  0  0  0  0  0  0  0
  -29.9207  -26.7724   24.9919 C   0  0  1  0  0  0  0  0  0  0  0  0
  -29.1989  -29.1891   24.4981 C   0  0  1  0  0  0  0  0  0  1  0  0
  -26.9404  -25.9831   16.6909 C   0  0  0  0  0  0  0  0  0  0  0  0
  -29.7998  -24.1935   20.8563 N   0  0  0  0  0  0  0  0  0  0  0  0
  -29.0510  -24.4743   23.5443 N   0  0  0  0  0  0  0  0  0  0  0  0
  -26.0925  -16.6923   20.0687 N   0  0  0  0  0  0  0  0  0  0  0  0
  -26.1376  -17.8984   20.6598 N   0  0  0  0  0  0  0  0  0  0  0  0
  -25.4948  -28.2579   19.0575 N   0  0  0  0  0  0  0  0  0  0  0  0
  -28.2535  -20.6124   19.0043 N   0  0  0  0  0  0  0  0  0  0  0  0
  -25.8664  -18.9922   22.7432 N   0  0  0  0  0  0  0  0  0  0  0  0
  -25.0739  -14.6573   23.7313 N   0  0  0  0  0  0  0  0  0  0  0  0
  -28.5977  -22.1306   20.7761 N   0  0  0  0  0  0  0  0  0  0  0  0
  -30.2418  -26.5129   23.6040 N   0  0  0  0  0  0  0  0  0  0  0  0
  -22.1213  -27.6177   20.2846 N   0  0  0  0  0  0  0  0  0  0  0  0
  -27.7863  -28.3650   16.5684 N   0  0  0  0  0  0  0  0  0  0  0  0
  -30.1031  -31.1370   16.6953 N   0  3  0  0  0  0  0  0  0  0  0  0
  -25.1709  -16.7773   24.6000 O   0  0  0  0  0  0  0  0  0  0  0  0
  -24.0433  -26.3484   19.9423 O   0  0  0  0  0  0  0  0  0  0  0  0
  -24.9340  -28.2178   16.7948 O   0  0  0  0  0  0  0  0  0  0  0  0
  -29.4533  -28.7998   18.1206 O   0  0  0  0  0  0  0  0  0  0  0  0
  -29.5349  -22.5103   18.6882 O   0  0  0  0  0  0  0  0  0  0  0  0
  -25.2152  -10.3858   20.1578 O   0  0  0  0  0  0  0  0  0  0  0  0
  -27.8405  -28.8216   24.7349 O   0  0  0  0  0  0  0  0  0  1  0  0
  -20.8607   -7.8462   22.3922 F   0  0  0  0  0  0  0  0  0  0  0  0
  -24.8370  -10.3641   22.8962 F   0  0  0  0  0  0  0  0  0  0  0  0
  1  2  1  0  0  0  0
  1  5  2  0  0  0  0
  2  6  2  0  0  0  0
  3  8  2  0  0  0  0
  3 17  1  0  0  0  0
  4  9  1  0  0  0  0
  4 17  2  0  0  0  0
  5 19  1  0  0  0  0
  6 21  1  0  0  0  0
  7 10  2  0  0  0  0
  7 20  1  0  0  0  0
  8 23  1  0  0  0  0
  9 23  2  0  0  0  0
 10 24  1  0  0  0  0
 11 12  2  0  0  0  0
 11 25  1  0  0  0  0
 12 26  1  0  0  0  0
 13 22  1  0  0  0  0
 13 24  2  0  0  0  0
 14 26  2  0  0  0  0
 14 27  1  0  0  0  0
 15 29  2  0  0  0  0
 15 63  1  0  0  0  0
 16 30  1  0  0  0  0
 16 62  2  0  0  0  0
 17 28  1  0  0  0  0
 18 28  1  0  0  0  0
 18 31  2  0  0  0  0
 18 32  1  0  0  0  0
 19 21  2  0  0  0  0
 19 37  1  0  0  0  0
 20 22  2  0  0  0  0
 20 38  1  0  0  0  0
 21 46  1  0  0  0  0
 22 39  1  0  0  0  0
 23 80  1  0  0  0  0
 24 81  1  0  0  0  0
 25 27  2  0  0  0  0
 25 80  1  0  0  0  0
 26 82  1  0  0  0  0
 27 83  1  0  0  0  0
 28 64  2  0  0  0  0
 29 62  1  0  0  0  0
 29 70  1  0  0  0  0
 30 63  2  0  0  0  0
 30 71  1  0  0  0  0
 31 65  1  0  0  0  0
 31 68  1  0  0  0  0
 32 69  1  0  0  0  0
 32 75  2  0  0  0  0
 33 47  1  0  0  0  0
 33 72  1  0  0  0  0
 33 76  2  0  0  0  0
 34 57  1  0  0  0  0
 34 66  1  0  0  0  0
 34 77  2  0  0  0  0
 35 58  1  0  0  0  0
 35 73  1  0  0  0  0
 35 78  2  0  0  0  0
 36 67  1  0  0  0  0
 36 70  1  0  0  0  0
 36 79  2  0  0  0  0
 37 40  1  0  0  0  0
 38 47  1  0  0  0  0
 39 66  1  0  0  0  0
 40 42  1  0  0  0  0
 41 43  1  0  0  0  0
 41 44  1  0  0  0  0
 42 46  1  0  0  0  0
 43 48  1  0  0  0  0
 44 67  1  0  0  0  0
 45 48  1  0  0  0  0
 45 67  1  0  0  0  0
 46 72  1  0  0  0  0
 47 66  1  0  0  0  0
 48 65  1  0  0  0  0
 49 58  1  0  0  0  0
 50 59  1  0  0  0  0
 51 60  1  0  0  0  0
 52 61  1  0  0  0  0
 53 61  1  0  0  0  0
 54 61  1  0  0  0  0
 55 74  1  0  0  0  0
 56 59  1  0  0  0  0
 56 60  1  0  0  0  0
 57 61  1  0  0  0  0
 57 73  1  0  0  0  0
 58 74  1  0  0  0  0
 59 71  1  0  0  0  0
 60 81  1  0  0  0  0
 64 65  1  0  0  0  0
M  CHG  1  74   1
M  ISO  4  36 100  60 101  70 100  81 101
M  END
> <Batch ID>
0198

> <Smiles>
CNC(C)C(=O)NC(C(=O)N1Cc2cc([101O:1][101CH:1](C)CC(C)Nc3cnc([100NH:0][100C:0](=O)N4CCCC(n5nc(-c6ccc(Oc7ccc(F)cc7F)cc6)c(C(N)=O)c5N)C4)cn3)ccc2CC1C(=O)NC1CCCc2ccccc21)C(C)(C)C

> <Shape>
0.226

> <Color>
0.074

> <Negative vol penalty>
0.000

$$$$

  -OEChem-04052305443D

 83 91  0     1  0  0  0  0  0999 V2000
  -22.7112  -26.8617   24.7269 C   0  0  0  0  0  0  0  0  0  0  0  0
  -22.7234  -25.4762   24.6022 C   0  0  0  0  0  0  0  0  0  0  0  0
  -30.0202  -23.7037   19.1642 C   0  0  0  0  0  0  0  0  0  0  0  0
  -28.8937  -23.7975   21.2994 C   0  0  0  0  0  0  0  0  0  0  0  0
  -21.9483  -27.6326   23.8507 C   0  0  0  0  0  0  0  0  0  0  0  0
  -21.9718  -24.8606   23.6019 C   0  0  0  0  0  0  0  0  0  0  0  0
  -23.4399  -19.8001   20.4807 C   0  0  0  0  0  0  0  0  0  0  0  0
  -29.6950  -25.0404   18.9339 C   0  0  0  0  0  0  0  0  0  0  0  0
  -28.5684  -25.1343   21.0691 C   0  0  0  0  0  0  0  0  0  0  0  0
  -23.0636  -18.4656   20.6269 C   0  0  0  0  0  0  0  0  0  0  0  0
  -26.2832  -26.8698   19.2812 C   0  0  0  0  0  0  0  0  0  0  0  0
  -24.9791  -27.2771   19.5621 C   0  0  0  0  0  0  0  0  0  0  0  0
  -21.3448  -18.7742   18.9627 C   0  0  0  0  0  0  0  0  0  0  0  0
  -25.8235  -28.8751   21.1654 C   0  0  0  0  0  0  0  0  0  0  0  0
  -23.0845  -11.8375   19.4213 C   0  0  0  0  0  0  0  0  0  0  0  0
  -29.6195  -23.0823   20.3470 C   0  0  0  0  0  0  0  0  0  0  0  0
  -31.1102  -21.2038   21.2170 C   0  0  0  0  0  0  0  0  0  0  0  0
  -21.1946  -27.0268   22.8331 C   0  0  0  0  0  0  0  0  0  0  0  0
  -22.7632  -20.6359   19.5808 C   0  0  0  0  0  0  0  0  0  0  0  0
  -21.1970  -25.6241   22.7121 C   0  0  0  0  0  0  0  0  0  0  0  0
  -21.7161  -20.1182   18.8051 C   0  0  0  0  0  0  0  0  0  0  0  0
  -24.0897  -12.4940   20.1017 C   0  0  0  0  0  0  0  0  0  0  0  0
  -28.9691  -25.7557   19.8863 C   0  0  0  0  0  0  0  0  0  0  0  0
  -22.0141  -17.9532   19.8700 C   0  0  0  0  0  0  0  0  0  0  0  0
  -27.3575  -27.4651   19.9425 C   0  0  0  0  0  0  0  0  0  0  0  0
  -24.7492  -28.2798   20.5041 C   0  0  0  0  0  0  0  0  0  0  0  0
  -27.1277  -28.4677   20.8845 C   0  0  0  0  0  0  0  0  0  0  0  0
  -29.9547  -21.7013   20.5853 C   0  0  0  0  0  0  0  0  0  0  0  0
  -23.7181  -13.6630   20.7338 C   0  0  0  0  0  0  0  0  0  0  0  0
  -30.9532  -19.8395   21.1950 C   0  0  0  0  0  0  0  0  0  0  0  0
  -21.5746  -13.4302   20.0137 C   0  0  0  0  0  0  0  0  0  0  0  0
  -32.2258  -21.9117   21.7740 C   0  0  0  0  0  0  0  0  0  0  0  0
  -21.0395  -23.2931   19.8495 C   0  0  0  0  0  0  0  0  0  0  0  0
  -21.0817  -23.1838   16.6078 C   0  0  0  0  0  0  0  0  0  0  0  0
  -21.4078  -21.3070   13.7762 C   0  0  0  0  0  0  0  0  0  0  0  0
  -26.1318  -16.4380   20.9957 C   0  0  0  0  0  0  0  0  0  0  0  0
  -20.3482  -27.8986   21.9396 C   0  0  0  0  0  0  0  0  0  0  0  0
  -23.1986  -22.0661   19.4154 C   0  0  0  0  0  0  0  0  0  0  0  0
  -20.9707  -20.9686   17.8103 C   0  0  0  0  0  0  0  0  0  0  0  0
  -19.8751  -27.1932   20.6713 C   0  0  0  0  0  0  0  0  0  0  0  0
  -28.8895  -16.3481   18.6537 C   0  0  0  0  0  0  0  0  0  0  0  0
  -19.3288  -25.8081   21.0029 C   0  0  0  0  0  0  0  0  0  0  0  0
  -29.5857  -17.6770   18.9525 C   0  0  0  0  0  0  0  0  0  0  0  0
  -27.3727  -16.4850   18.7484 C   0  0  0  0  0  0  0  0  0  0  0  0
  -27.5768  -18.3457   20.3514 C   0  0  0  0  0  0  0  0  0  0  0  0
  -20.4144  -24.9211   21.6243 C   0  0  1  0  0  0  0  0  0  0  0  0
  -22.1043  -22.9615   18.8426 C   0  0  1  0  0  0  0  0  0  0  0  0
  -29.1133  -18.2679   20.2941 C   0  0  2  0  0  0  0  0  0  0  0  0
  -21.3570  -21.4913   11.2741 C   0  0  0  0  0  0  0  0  0  0  0  0
  -18.3473  -15.0915   20.8178 C   0  0  0  0  0  0  0  0  0  0  0  0
  -18.0376  -23.3779   16.6864 C   0  0  0  0  0  0  0  0  0  0  0  0
  -17.9968  -22.6112   14.3034 C   0  0  0  0  0  0  0  0  0  0  0  0
  -19.1250  -24.7537   14.9033 C   0  0  0  0  0  0  0  0  0  0  0  0
  -24.2060  -20.3740   13.5347 C   0  0  0  0  0  0  0  0  0  0  0  0
  -24.7201  -14.4612   21.5020 C   0  0  0  0  0  0  0  0  0  0  0  0
  -20.2723  -16.3366   19.7773 C   0  0  0  0  0  0  0  0  0  1  0  0
  -20.2060  -22.5609   15.5476 C   0  0  1  0  0  0  0  0  0  0  0  0
  -22.2312  -21.5165   12.5182 C   0  0  2  0  0  0  0  0  0  0  0  0
  -19.8572  -15.1346   20.6229 C   0  0  2  0  0  0  0  0  0  0  0  0
  -18.8539  -23.3101   15.3802 C   0  0  0  0  0  0  0  0  0  0  0  0
  -21.8112  -12.2789   19.3563 N   0  0  0  0  0  0  0  0  0  0  0  0
  -29.1249  -20.7319   20.1906 N   0  0  0  0  0  0  0  0  0  0  0  0
  -22.4649  -14.1622   20.7102 N   0  0  0  0  0  0  0  0  0  0  0  0
  -29.7598  -19.6116   20.5753 N   0  0  0  0  0  0  0  0  0  0  0  0
  -21.4297  -22.3623   17.6894 N   0  0  0  0  0  0  0  0  0  0  0  0
  -26.9882  -17.0352   20.0559 N   0  0  0  0  0  0  0  0  0  0  0  0
  -25.3952  -11.9898   20.1370 N   0  0  0  0  0  0  0  0  0  0  0  0
  -31.7209  -18.8246   21.6455 N   0  0  0  0  0  0  0  0  0  0  0  0
  -32.2269  -23.3118   21.7122 N   0  0  0  0  0  0  0  0  0  0  0  0
  -20.2795  -13.9123   19.9687 N   0  0  0  0  0  0  0  0  0  0  0  0
  -21.3068  -24.4221   20.6000 N   0  0  0  0  0  0  0  0  0  0  0  0
  -21.0124  -22.5048   14.3332 N   0  0  0  0  0  0  0  0  0  0  0  0
  -25.6112  -15.2009   20.6361 N   0  0  0  0  0  0  0  0  0  0  0  0
  -23.2621  -20.4480   12.3899 N   0  3  0  0  0  0  0  0  0  0  0  0
  -33.2007  -21.3194   22.2959 O   0  0  0  0  0  0  0  0  0  0  0  0
  -20.0480  -22.5784   19.9379 O   0  0  0  0  0  0  0  0  0  0  0  0
  -21.4495  -24.3541   16.4775 O   0  0  0  0  0  0  0  0  0  0  0  0
  -21.1389  -20.1923   14.2184 O   0  0  0  0  0  0  0  0  0  0  0  0
  -25.8557  -16.9658   22.0784 O   0  0  0  0  0  0  0  0  0  0  0  0
  -28.6517  -27.0601   19.6619 O   0  0  0  0  0  0  0  0  0  0  0  0
  -21.6444  -16.6512   20.0112 O   0  0  0  0  0  0  0  0  0  1  0  0
  -23.4969  -28.6719   20.7726 F   0  0  0  0  0  0  0  0  0  0  0  0
  -28.1558  -29.0441   21.5221 F   0  0  0  0  0  0  0  0  0  0  0  0
  1  2  1  0  0  0  0
  1  5  2  0  0  0  0
  2  6  2  0  0  0  0
  3  8  2  0  0  0  0
  3 16  1  0  0  0  0
  4  9  1  0  0  0  0
  4 16  2  0  0  0  0
  5 18  1  0  0  0  0
  6 20  1  0  0  0  0
  7 10  2  0  0  0  0
  7 19  1  0  0  0  0
  8 23  1  0  0  0  0
  9 23  2  0  0  0  0
 10 24  1  0  0  0  0
 11 12  2  0  0  0  0
 11 25  1  0  0  0  0
 12 26  1  0  0  0  0
 13 21  1  0  0  0  0
 13 24  2  0  0  0  0
 14 26  2  0  0  0  0
 14 27  1  0  0  0  0
 15 22  1  0  0  0  0
 15 61  2  0  0  0  0
 16 28  1  0  0  0  0
 17 28  1  0  0  0  0
 17 30  2  0  0  0  0
 17 32  1  0  0  0  0
 18 20  2  0  0  0  0
 18 37  1  0  0  0  0
 19 21  2  0  0  0  0
 19 38  1  0  0  0  0
 20 46  1  0  0  0  0
 21 39  1  0  0  0  0
 22 29  2  0  0  0  0
 22 67  1  0  0  0  0
 23 80  1  0  0  0  0
 24 81  1  0  0  0  0
 25 27  2  0  0  0  0
 25 80  1  0  0  0  0
 26 82  1  0  0  0  0
 27 83  1  0  0  0  0
 28 62  2  0  0  0  0
 29 55  1  0  0  0  0
 29 63  1  0  0  0  0
 30 64  1  0  0  0  0
 30 68  1  0  0  0  0
 31 61  1  0  0  0  0
 31 63  2  0  0  0  0
 31 70  1  0  0  0  0
 32 69  1  0  0  0  0
 32 75  2  0  0  0  0
 33 47  1  0  0  0  0
 33 71  1  0  0  0  0
 33 76  2  0  0  0  0
 34 57  1  0  0  0  0
 34 65  1  0  0  0  0
 34 77  2  0  0  0  0
 35 58  1  0  0  0  0
 35 72  1  0  0  0  0
 35 78  2  0  0  0  0
 36 66  1  0  0  0  0
 36 73  1  0  0  0  0
 36 79  2  0  0  0  0
 37 40  1  0  0  0  0
 38 47  1  0  0  0  0
 39 65  1  0  0  0  0
 40 42  1  0  0  0  0
 41 43  1  0  0  0  0
 41 44  1  0  0  0  0
 42 46  1  0  0  0  0
 43 48  1  0  0  0  0
 44 66  1  0  0  0  0
 45 48  1  0  0  0  0
 45 66  1  0  0  0  0
 46 71  1  0  0  0  0
 47 65  1  0  0  0  0
 48 64  1  0  0  0  0
 49 58  1  0  0  0  0
 50 59  1  0  0  0  0
 51 60  1  0  0  0  0
 52 60  1  0  0  0  0
 53 60  1  0  0  0  0
 54 74  1  0  0  0  0
 55 73  1  0  0  0  0
 56 59  1  0  0  0  0
 56 81  1  0  0  0  0
 57 60  1  0  0  0  0
 57 72  1  0  0  0  0
 58 74  1  0  0  0  0
 59 70  1  0  0  0  0
 62 64  1  0  0  0  0
M  CHG  1  74   1
M  ISO  4  36 100  56 101  73 100  81 101
M  END
> <Batch ID>
0198

> <Smiles>
CNC(C)C(=O)NC(C(=O)N1Cc2cc([101O:1][101CH2:1]C(C)Nc3ncc(N)c(C[100NH:0][100C:0](=O)N4CCCC(n5nc(-c6ccc(Oc7ccc(F)cc7F)cc6)c(C(N)=O)c5N)C4)n3)ccc2CC1C(=O)NC1CCCc2ccccc21)C(C)(C)C

> <Shape>
0.184

> <Color>
0.089

> <Negative vol penalty>
0.000

$$$$

  -OEChem-04052305443D

 82 90  0     1  0  0  0  0  0999 V2000
  -28.7309  -24.7514   25.1842 C   0  0  0  0  0  0  0  0  0  0  0  0
  -27.4522  -24.4939   24.7004 C   0  0  0  0  0  0  0  0  0  0  0  0
  -29.7818  -26.4333   18.5635 C   0  0  0  0  0  0  0  0  0  0  0  0
  -29.8648  -26.0049   20.9398 C   0  0  0  0  0  0  0  0  0  0  0  0
  -29.8273  -24.0794   24.6454 C   0  0  0  0  0  0  0  0  0  0  0  0
  -27.2693  -23.5650   23.6767 C   0  0  0  0  0  0  0  0  0  0  0  0
  -23.3765  -20.4474   24.5551 C   0  0  0  0  0  0  0  0  0  0  0  0
  -31.1520  -26.1893   18.4716 C   0  0  0  0  0  0  0  0  0  0  0  0
  -31.2351  -25.7609   20.8479 C   0  0  0  0  0  0  0  0  0  0  0  0
  -22.0958  -20.9464   24.3214 C   0  0  0  0  0  0  0  0  0  0  0  0
  -34.6883  -24.6723   21.1781 C   0  0  0  0  0  0  0  0  0  0  0  0
  -35.1959  -23.5593   21.8481 C   0  0  0  0  0  0  0  0  0  0  0  0
  -22.0474  -19.8091   22.1945 C   0  0  0  0  0  0  0  0  0  0  0  0
  -33.7636  -22.1188   20.5401 C   0  0  0  0  0  0  0  0  0  0  0  0
  -19.9327  -26.6649   22.8122 C   0  0  0  0  0  0  0  0  0  0  0  0
  -29.1382  -26.3411   19.7976 C   0  0  0  0  0  0  0  0  0  0  0  0
  -26.6812  -25.6559   19.7608 C   0  0  0  0  0  0  0  0  0  0  0  0
  -29.6566  -23.1347   23.6212 C   0  0  0  0  0  0  0  0  0  0  0  0
  -24.0076  -19.6330   23.6039 C   0  0  0  0  0  0  0  0  0  0  0  0
  -28.3645  -22.8807   23.1227 C   0  0  0  0  0  0  0  0  0  0  0  0
  -23.3351  -19.2990   22.4198 C   0  0  0  0  0  0  0  0  0  0  0  0
  -31.8787  -25.8531   19.6137 C   0  0  0  0  0  0  0  0  0  0  0  0
  -21.4322  -20.6297   23.1397 C   0  0  0  0  0  0  0  0  0  0  0  0
  -33.7182  -24.5087   20.1892 C   0  0  0  0  0  0  0  0  0  0  0  0
  -34.7336  -22.2825   21.5291 C   0  0  0  0  0  0  0  0  0  0  0  0
  -33.2559  -23.2319   19.8702 C   0  0  0  0  0  0  0  0  0  0  0  0
  -27.7228  -26.5936   19.8933 C   0  0  0  0  0  0  0  0  0  0  0  0
  -19.8835  -28.0847   22.9129 C   0  0  0  0  0  0  0  0  0  0  0  0
  -25.5337  -26.3905   19.9342 C   0  0  0  0  0  0  0  0  0  0  0  0
  -18.9236  -26.2135   21.9894 C   0  0  0  0  0  0  0  0  0  0  0  0
  -26.7451  -24.2467   19.5041 C   0  0  0  0  0  0  0  0  0  0  0  0
  -26.6495  -19.8648   21.8516 C   0  0  0  0  0  0  0  0  0  0  0  0
  -25.8885  -16.8268   21.0068 C   0  0  0  0  0  0  0  0  0  0  0  0
  -23.4817  -14.4319   20.6624 C   0  0  0  0  0  0  0  0  0  0  0  0
  -22.6087  -30.2736   22.6749 C   0  0  0  0  0  0  0  0  0  0  0  0
  -30.8772  -22.4680   23.0377 C   0  0  0  0  0  0  0  0  0  0  0  0
  -25.3786  -19.0809   23.8829 C   0  0  0  0  0  0  0  0  0  0  0  0
  -23.9607  -18.4120   21.3756 C   0  0  0  0  0  0  0  0  0  0  0  0
  -30.5562  -21.2244   22.2127 C   0  0  0  0  0  0  0  0  0  0  0  0
  -24.8263  -31.3955   20.1253 C   0  0  0  0  0  0  0  0  0  0  0  0
  -29.3981  -21.5007   21.2591 C   0  0  0  0  0  0  0  0  0  0  0  0
  -25.6951  -30.1712   19.8315 C   0  0  0  0  0  0  0  0  0  0  0  0
  -24.4795  -31.4985   21.6089 C   0  0  0  0  0  0  0  0  0  0  0  0
  -24.7352  -29.0639   21.8933 C   0  0  0  0  0  0  0  0  0  0  0  0
  -28.1228  -21.8619   22.0302 C   0  0  1  0  0  0  0  0  0  0  0  0
  -26.1306  -18.6807   22.6173 C   0  0  1  0  0  0  0  0  0  0  0  0
  -25.0645  -28.8863   20.4012 C   0  0  2  0  0  0  0  0  0  0  0  0
  -23.1567  -12.0592   19.9128 C   0  0  0  0  0  0  0  0  0  0  0  0
  -26.0684  -17.7241   18.0961 C   0  0  0  0  0  0  0  0  0  0  0  0
  -24.8362  -15.6424   17.4509 C   0  0  0  0  0  0  0  0  0  0  0  0
  -27.0652  -15.4776   18.5586 C   0  0  0  0  0  0  0  0  0  0  0  0
  -22.5431  -13.5922   23.3406 C   0  0  0  0  0  0  0  0  0  0  0  0
  -20.8152  -28.9077   23.7125 C   0  0  0  0  0  0  0  0  0  0  0  0
  -19.3750  -23.7619   22.0977 C   0  0  0  0  0  0  0  0  0  0  0  0
  -19.8153  -21.3442   21.5488 C   0  0  0  0  0  0  0  0  0  1  0  0
  -25.0569  -16.1970   19.9156 C   0  0  1  0  0  0  0  0  0  0  0  0
  -23.4400  -12.9766   21.0922 C   0  0  2  0  0  0  0  0  0  0  0  0
  -18.8014  -22.4817   21.4934 C   0  0  1  0  0  0  0  0  0  0  0  0
  -25.7454  -16.2786   18.5239 C   0  0  0  0  0  0  0  0  0  0  0  0
  -27.2766  -27.8296   20.1322 N   0  0  0  0  0  0  0  0  0  0  0  0
  -18.9253  -28.7107   22.2337 N   0  0  0  0  0  0  0  0  0  0  0  0
  -25.9419  -27.6737   20.1512 N   0  0  0  0  0  0  0  0  0  0  0  0
  -25.3052  -17.9021   21.6918 N   0  0  0  0  0  0  0  0  0  0  0  0
  -23.8839  -30.2482   22.0864 N   0  0  0  0  0  0  0  0  0  0  0  0
  -24.2255  -26.0577   19.9207 N   0  0  0  0  0  0  0  0  0  0  0  0
  -28.0050  -23.6518   19.3521 N   0  0  0  0  0  0  0  0  0  0  0  0
  -18.6273  -24.9087   21.6330 N   0  0  0  0  0  0  0  0  0  0  0  0
  -27.5073  -20.6709   22.5753 N   0  0  0  0  0  0  0  0  0  0  0  0
  -24.7638  -14.8382   20.3585 N   0  0  0  0  0  0  0  0  0  0  0  0
  -22.1152  -29.0443   23.0943 N   0  0  0  0  0  0  0  0  0  0  0  0
  -22.3764  -12.7689   22.1153 N   0  3  0  0  0  0  0  0  0  0  0  0
  -25.7150  -23.5392   19.3960 O   0  0  0  0  0  0  0  0  0  0  0  0
  -26.2987  -20.0338   20.6896 O   0  0  0  0  0  0  0  0  0  0  0  0
  -27.0114  -16.3765   21.2475 O   0  0  0  0  0  0  0  0  0  0  0  0
  -22.4768  -15.1368   20.5988 O   0  0  0  0  0  0  0  0  0  0  0  0
  -21.9560  -31.3140   22.8112 O   0  0  0  0  0  0  0  0  0  0  0  0
  -17.6564  -22.0807   22.2488 O   0  0  0  0  0  0  0  0  0  0  0  0
  -33.2158  -25.6147   19.5244 O   0  0  0  0  0  0  0  0  0  0  0  0
  -20.1824  -21.1160   22.9087 O   0  0  0  0  0  0  0  0  0  1  0  0
  -35.2223  -21.2135   22.1715 F   0  0  0  0  0  0  0  0  0  0  0  0
  -32.3250  -23.0683   18.9202 F   0  0  0  0  0  0  0  0  0  0  0  0
  -18.0300  -27.5637   21.4308 S   0  0  0  0  0  0  0  0  0  0  0  0
  1  2  1  0  0  0  0
  1  5  2  0  0  0  0
  2  6  2  0  0  0  0
  3  8  2  0  0  0  0
  3 16  1  0  0  0  0
  4  9  1  0  0  0  0
  4 16  2  0  0  0  0
  5 18  1  0  0  0  0
  6 20  1  0  0  0  0
  7 10  2  0  0  0  0
  7 19  1  0  0  0  0
  8 22  1  0  0  0  0
  9 22  2  0  0  0  0
 10 23  1  0  0  0  0
 11 12  2  0  0  0  0
 11 24  1  0  0  0  0
 12 25  1  0  0  0  0
 13 21  1  0  0  0  0
 13 23  2  0  0  0  0
 14 25  2  0  0  0  0
 14 26  1  0  0  0  0
 15 28  1  0  0  0  0
 15 30  2  0  0  0  0
 16 27  1  0  0  0  0
 17 27  1  0  0  0  0
 17 29  2  0  0  0  0
 17 31  1  0  0  0  0
 18 20  2  0  0  0  0
 18 36  1  0  0  0  0
 19 21  2  0  0  0  0
 19 37  1  0  0  0  0
 20 45  1  0  0  0  0
 21 38  1  0  0  0  0
 22 78  1  0  0  0  0
 23 79  1  0  0  0  0
 24 26  2  0  0  0  0
 24 78  1  0  0  0  0
 25 80  1  0  0  0  0
 26 81  1  0  0  0  0
 27 60  2  0  0  0  0
 28 53  1  0  0  0  0
 28 61  2  0  0  0  0
 29 62  1  0  0  0  0
 29 65  1  0  0  0  0
 30 67  1  0  0  0  0
 30 82  1  0  0  0  0
 31 66  1  0  0  0  0
 31 72  2  0  0  0  0
 32 46  1  0  0  0  0
 32 68  1  0  0  0  0
 32 73  2  0  0  0  0
 33 56  1  0  0  0  0
 33 63  1  0  0  0  0
 33 74  2  0  0  0  0
 34 57  1  0  0  0  0
 34 69  1  0  0  0  0
 34 75  2  0  0  0  0
 35 64  1  0  0  0  0
 35 70  1  0  0  0  0
 35 76  2  0  0  0  0
 36 39  1  0  0  0  0
 37 46  1  0  0  0  0
 38 63  1  0  0  0  0
 39 41  1  0  0  0  0
 40 42  1  0  0  0  0
 40 43  1  0  0  0  0
 41 45  1  0  0  0  0
 42 47  1  0  0  0  0
 43 64  1  0  0  0  0
 44 47  1  0  0  0  0
 44 64  1  0  0  0  0
 45 68  1  0  0  0  0
 46 63  1  0  0  0  0
 47 62  1  0  0  0  0
 48 57  1  0  0  0  0
 49 59  1  0  0  0  0
 50 59  1  0  0  0  0
 51 59  1  0  0  0  0
 52 71  1  0  0  0  0
 53 70  1  0  0  0  0
 54 58  1  0  0  0  0
 54 67  1  0  0  0  0
 55 58  1  0  0  0  0
 55 79  1  0  0  0  0
 56 59  1  0  0  0  0
 56 69  1  0  0  0  0
 57 71  1  0  0  0  0
 58 77  1  0  0  0  0
 60 62  1  0  0  0  0
 61 82  1  0  0  0  0
M  CHG  1  71   1
M  ISO  4  35 100  55 101  70 100  79 101
M  END
> <Batch ID>
0198

> <Smiles>
CNC(C)C(=O)NC(C(=O)N1Cc2cc([101O:1][101CH2:1]C(O)CNc3cc(C[100NH:0][100C:0](=O)N4CCCC(n5nc(-c6ccc(Oc7ccc(F)cc7F)cc6)c(C(N)=O)c5N)C4)ns3)ccc2CC1C(=O)NC1CCCc2ccccc21)C(C)(C)C

> <Shape>
0.190

> <Color>
0.085

> <Negative vol penalty>
0.000

$$$$

  -OEChem-04052305443D

 82 90  0     1  0  0  0  0  0999 V2000
  -33.8517  -29.9067   12.0196 C   0  0  0  0  0  0  0  0  0  0  0  0
  -33.5100  -28.9611   12.9810 C   0  0  0  0  0  0  0  0  0  0  0  0
  -22.9993   -9.8920   19.9853 C   0  0  0  0  0  0  0  0  0  0  0  0
  -23.7284   -9.9443   22.2881 C   0  0  0  0  0  0  0  0  0  0  0  0
  -34.9972  -29.7289   11.2449 C   0  0  0  0  0  0  0  0  0  0  0  0
  -34.3130  -27.8365   13.1676 C   0  0  0  0  0  0  0  0  0  0  0  0
  -35.4439  -24.9560   18.4524 C   0  0  0  0  0  0  0  0  0  0  0  0
  -22.2329   -8.7579   20.2537 C   0  0  0  0  0  0  0  0  0  0  0  0
  -22.9620   -8.8102   22.5565 C   0  0  0  0  0  0  0  0  0  0  0  0
  -34.8988  -23.8111   19.0320 C   0  0  0  0  0  0  0  0  0  0  0  0
  -23.2048   -5.4709   22.0863 C   0  0  0  0  0  0  0  0  0  0  0  0
  -23.7934   -4.4541   22.8381 C   0  0  0  0  0  0  0  0  0  0  0  0
  -36.7165  -22.5008   18.1388 C   0  0  0  0  0  0  0  0  0  0  0  0
  -22.0724   -4.6984   24.5161 C   0  0  0  0  0  0  0  0  0  0  0  0
  -30.7444  -19.0654   22.9123 C   0  0  0  0  0  0  0  0  0  0  0  0
  -23.7470  -10.4853   21.0025 C   0  0  0  0  0  0  0  0  0  0  0  0
  -24.1326  -13.0006   20.8242 C   0  0  0  0  0  0  0  0  0  0  0  0
  -35.8199  -28.6064   11.4287 C   0  0  0  0  0  0  0  0  0  0  0  0
  -36.6255  -24.8799   17.7012 C   0  0  0  0  0  0  0  0  0  0  0  0
  -35.4698  -27.6428   12.3937 C   0  0  0  0  0  0  0  0  0  0  0  0
  -37.2759  -23.6466   17.5528 C   0  0  0  0  0  0  0  0  0  0  0  0
  -22.2143   -8.2170   21.5393 C   0  0  0  0  0  0  0  0  0  0  0  0
  -35.5335  -22.5828   18.8728 C   0  0  0  0  0  0  0  0  0  0  0  0
  -22.0500   -6.1016   22.5495 C   0  0  0  0  0  0  0  0  0  0  0  0
  -23.2272   -4.0678   24.0529 C   0  0  0  0  0  0  0  0  0  0  0  0
  -21.4839   -5.7153   23.7643 C   0  0  0  0  0  0  0  0  0  0  0  0
  -24.5393  -11.6565   20.7258 C   0  0  0  0  0  0  0  0  0  0  0  0
  -31.8499  -18.6616   22.1933 C   0  0  0  0  0  0  0  0  0  0  0  0
  -25.2419  -13.7227   20.4575 C   0  0  0  0  0  0  0  0  0  0  0  0
  -30.5873  -16.8967   21.8757 C   0  0  0  0  0  0  0  0  0  0  0  0
  -22.8654  -13.5476   21.2125 C   0  0  0  0  0  0  0  0  0  0  0  0
  -37.4034  -25.4750   14.6773 C   0  0  0  0  0  0  0  0  0  0  0  0
  -40.4097  -24.8834   15.7423 C   0  0  0  0  0  0  0  0  0  0  0  0
  -42.4215  -23.3747   18.0496 C   0  0  0  0  0  0  0  0  0  0  0  0
  -30.7220  -14.6826   20.6815 C   0  0  0  0  0  0  0  0  0  0  0  0
  -37.0224  -28.4335   10.5349 C   0  0  0  0  0  0  0  0  0  0  0  0
  -37.2150  -26.1286   17.1049 C   0  0  0  0  0  0  0  0  0  0  0  0
  -38.5577  -23.5148   16.7729 C   0  0  0  0  0  0  0  0  0  0  0  0
  -38.0230  -27.4034   11.0525 C   0  0  0  0  0  0  0  0  0  0  0  0
  -29.5992  -12.2287   18.3590 C   0  0  0  0  0  0  0  0  0  0  0  0
  -37.3020  -26.1335   11.4932 C   0  0  0  0  0  0  0  0  0  0  0  0
  -28.1492  -11.9716   18.7757 C   0  0  0  0  0  0  0  0  0  0  0  0
  -30.5018  -12.4726   19.5670 C   0  0  0  0  0  0  0  0  0  0  0  0
  -28.5889  -13.2627   20.9034 C   0  0  0  0  0  0  0  0  0  0  0  0
  -36.3290  -26.4222   12.6428 C   0  0  1  0  0  0  0  0  0  0  0  0
  -38.1459  -25.8474   15.9294 C   0  0  1  0  0  0  0  0  0  0  0  0
  -27.6292  -13.0759   19.7169 C   0  0  2  0  0  0  0  0  0  0  0  0
  -34.1657  -19.1513   23.0819 C   0  0  0  0  0  0  0  0  0  0  0  0
  -44.8382  -23.0390   18.6366 C   0  0  0  0  0  0  0  0  0  0  0  0
  -33.4244  -19.2755   18.2641 C   0  0  0  0  0  0  0  0  0  0  0  0
  -40.6692  -22.8373   13.4937 C   0  0  0  0  0  0  0  0  0  0  0  0
  -42.6587  -21.8883   14.6809 C   0  0  0  0  0  0  0  0  0  0  0  0
  -42.7032  -24.2446   13.8633 C   0  0  0  0  0  0  0  0  0  0  0  0
  -42.0928  -24.7186   20.6658 C   0  0  0  0  0  0  0  0  0  0  0  0
  -33.5849  -21.4220   19.5878 C   0  0  0  0  0  0  0  0  0  1  0  0
  -33.1222  -19.4564   22.0102 C   0  0  1  0  0  0  0  0  0  0  0  0
  -41.2775  -23.6543   15.8661 C   0  0  1  0  0  0  0  0  0  0  0  0
  -43.6001  -23.8954   18.8523 C   0  0  2  0  0  0  0  0  0  0  0  0
  -33.0888  -19.9805   19.5683 C   0  0  2  0  0  0  0  0  0  0  0  0
  -41.8020  -23.1579   14.4891 C   0  0  0  0  0  0  0  0  0  0  0  0
  -25.8079  -11.5295   20.3275 N   0  0  0  0  0  0  0  0  0  0  0  0
  -31.7617  -17.4181   21.5985 N   0  0  0  0  0  0  0  0  0  0  0  0
  -26.2079  -12.8031   20.1724 N   0  0  0  0  0  0  0  0  0  0  0  0
  -39.0912  -24.7633   16.2037 N   0  0  0  0  0  0  0  0  0  0  0  0
  -29.9485  -13.5341   20.4107 N   0  0  0  0  0  0  0  0  0  0  0  0
  -25.4755  -15.0483   20.3541 N   0  0  0  0  0  0  0  0  0  0  0  0
  -21.8340  -12.6639   21.5584 N   0  0  0  0  0  0  0  0  0  0  0  0
  -30.0793  -15.6385   21.4676 N   0  0  0  0  0  0  0  0  0  0  0  0
  -37.0476  -26.5549   13.8919 N   0  0  0  0  0  0  0  0  0  0  0  0
  -42.3289  -23.9913   16.8197 N   0  0  0  0  0  0  0  0  0  0  0  0
  -43.2764  -23.8957   20.3070 N   0  3  0  0  0  0  0  0  0  0  0  0
  -33.7482  -19.2380   20.6814 N   0  3  0  0  0  0  0  0  0  0  0  0
  -22.6490  -14.7829   21.2359 O   0  0  0  0  0  0  0  0  0  0  0  0
  -37.1718  -24.2952   14.4405 O   0  0  0  0  0  0  0  0  0  0  0  0
  -40.8864  -25.9142   15.2607 O   0  0  0  0  0  0  0  0  0  0  0  0
  -41.6615  -22.5052   18.4699 O   0  0  0  0  0  0  0  0  0  0  0  0
  -31.8599  -14.8210   20.2255 O   0  0  0  0  0  0  0  0  0  0  0  0
  -21.4664   -7.1104   21.8016 O   0  0  0  0  0  0  0  0  0  0  0  0
  -35.0033  -21.4636   19.4369 O   0  0  0  0  0  0  0  0  0  1  0  0
  -23.7917   -3.0903   24.7740 F   0  0  0  0  0  0  0  0  0  0  0  0
  -20.3739   -6.3167   24.2138 F   0  0  0  0  0  0  0  0  0  0  0  0
  -29.5388  -17.8474   22.8463 S   0  0  0  0  0  0  0  0  0  0  0  0
  1  2  1  0  0  0  0
  1  5  2  0  0  0  0
  2  6  2  0  0  0  0
  3  8  2  0  0  0  0
  3 16  1  0  0  0  0
  4  9  1  0  0  0  0
  4 16  2  0  0  0  0
  5 18  1  0  0  0  0
  6 20  1  0  0  0  0
  7 10  2  0  0  0  0
  7 19  1  0  0  0  0
  8 22  1  0  0  0  0
  9 22  2  0  0  0  0
 10 23  1  0  0  0  0
 11 12  2  0  0  0  0
 11 24  1  0  0  0  0
 12 25  1  0  0  0  0
 13 21  1  0  0  0  0
 13 23  2  0  0  0  0
 14 25  2  0  0  0  0
 14 26  1  0  0  0  0
 15 28  2  0  0  0  0
 15 82  1  0  0  0  0
 16 27  1  0  0  0  0
 17 27  1  0  0  0  0
 17 29  2  0  0  0  0
 17 31  1  0  0  0  0
 18 20  2  0  0  0  0
 18 36  1  0  0  0  0
 19 21  2  0  0  0  0
 19 37  1  0  0  0  0
 20 45  1  0  0  0  0
 21 38  1  0  0  0  0
 22 78  1  0  0  0  0
 23 79  1  0  0  0  0
 24 26  2  0  0  0  0
 24 78  1  0  0  0  0
 25 80  1  0  0  0  0
 26 81  1  0  0  0  0
 27 61  2  0  0  0  0
 28 56  1  0  0  0  0
 28 62  1  0  0  0  0
 29 63  1  0  0  0  0
 29 66  1  0  0  0  0
 30 62  2  0  0  0  0
 30 68  1  0  0  0  0
 30 82  1  0  0  0  0
 31 67  1  0  0  0  0
 31 73  2  0  0  0  0
 32 46  1  0  0  0  0
 32 69  1  0  0  0  0
 32 74  2  0  0  0  0
 33 57  1  0  0  0  0
 33 64  1  0  0  0  0
 33 75  2  0  0  0  0
 34 58  1  0  0  0  0
 34 70  1  0  0  0  0
 34 76  2  0  0  0  0
 35 65  1  0  0  0  0
 35 68  1  0  0  0  0
 35 77  2  0  0  0  0
 36 39  1  0  0  0  0
 37 46  1  0  0  0  0
 38 64  1  0  0  0  0
 39 41  1  0  0  0  0
 40 42  1  0  0  0  0
 40 43  1  0  0  0  0
 41 45  1  0  0  0  0
 42 47  1  0  0  0  0
 43 65  1  0  0  0  0
 44 47  1  0  0  0  0
 44 65  1  0  0  0  0
 45 69  1  0  0  0  0
 46 64  1  0  0  0  0
 47 63  1  0  0  0  0
 48 56  1  0  0  0  0
 49 58  1  0  0  0  0
 50 59  1  0  0  0  0
 51 60  1  0  0  0  0
 52 60  1  0  0  0  0
 53 60  1  0  0  0  0
 54 71  1  0  0  0  0
 55 59  1  0  0  0  0
 55 79  1  0  0  0  0
 56 72  1  0  0  0  0
 57 60  1  0  0  0  0
 57 70  1  0  0  0  0
 58 71  1  0  0  0  0
 59 72  1  0  0  0  0
 61 63  1  0  0  0  0
M  CHG  2  71   1  72   1
M  ISO  4  35 100  55 101  68 100  79 101
M  END
> <Batch ID>
0198

> <Smiles>
CNC(C)C(=O)NC(C(=O)N1Cc2cc([101O:1][101CH2:1]C(C)NC(C)c3csc([100NH:0][100C:0](=O)N4CCCC(n5nc(-c6ccc(Oc7ccc(F)cc7F)cc6)c(C(N)=O)c5N)C4)n3)ccc2CC1C(=O)NC1CCCc2ccccc21)C(C)(C)C

> <Shape>
0.175

> <Color>
0.194

> <Negative vol penalty>
0.000

$$$$

  -OEChem-04052305443D

 82 90  0     1  0  0  0  0  0999 V2000
  -32.1752  -29.0085   27.9289 C   0  0  0  0  0  0  0  0  0  0  0  0
  -32.1615  -27.6676   27.5586 C   0  0  0  0  0  0  0  0  0  0  0  0
  -22.9992   -9.8944   19.9809 C   0  0  0  0  0  0  0  0  0  0  0  0
  -23.7235   -9.9453   22.2852 C   0  0  0  0  0  0  0  0  0  0  0  0
  -33.0498  -29.8948   27.3017 C   0  0  0  0  0  0  0  0  0  0  0  0
  -33.0217  -27.2124   26.5600 C   0  0  0  0  0  0  0  0  0  0  0  0
  -35.2922  -22.8559   27.7889 C   0  0  0  0  0  0  0  0  0  0  0  0
  -22.2321   -8.7602   20.2471 C   0  0  0  0  0  0  0  0  0  0  0  0
  -22.9564   -8.8112   22.5514 C   0  0  0  0  0  0  0  0  0  0  0  0
  -34.5403  -21.6885   27.6634 C   0  0  0  0  0  0  0  0  0  0  0  0
  -21.4733   -5.7188   23.7546 C   0  0  0  0  0  0  0  0  0  0  0  0
  -22.0586   -4.7029   24.5101 C   0  0  0  0  0  0  0  0  0  0  0  0
  -35.6189  -21.2277   25.5554 C   0  0  0  0  0  0  0  0  0  0  0  0
  -23.7855   -4.4548   22.8387 C   0  0  0  0  0  0  0  0  0  0  0  0
  -31.8123  -17.5015   21.7157 C   0  0  0  0  0  0  0  0  0  0  0  0
  -23.7449  -10.4869   21.0000 C   0  0  0  0  0  0  0  0  0  0  0  0
  -24.1313  -13.0023   20.8239 C   0  0  0  0  0  0  0  0  0  0  0  0
  -33.9280  -29.4483   26.3016 C   0  0  0  0  0  0  0  0  0  0  0  0
  -36.2067  -23.2242   26.7917 C   0  0  0  0  0  0  0  0  0  0  0  0
  -33.9079  -28.0938   25.9178 C   0  0  0  0  0  0  0  0  0  0  0  0
  -36.3830  -22.3989   25.6719 C   0  0  0  0  0  0  0  0  0  0  0  0
  -22.2107   -8.2186   21.5323 C   0  0  0  0  0  0  0  0  0  0  0  0
  -34.7015  -20.8757   26.5451 C   0  0  0  0  0  0  0  0  0  0  0  0
  -22.0440   -6.1027   22.5411 C   0  0  0  0  0  0  0  0  0  0  0  0
  -23.2147   -4.0709   24.0522 C   0  0  0  0  0  0  0  0  0  0  0  0
  -23.2001   -5.4708   22.0832 C   0  0  0  0  0  0  0  0  0  0  0  0
  -24.5380  -11.6582   20.7255 C   0  0  0  0  0  0  0  0  0  0  0  0
  -25.2415  -13.7244   20.4598 C   0  0  0  0  0  0  0  0  0  0  0  0
  -30.5956  -16.8837   21.9158 C   0  0  0  0  0  0  0  0  0  0  0  0
  -30.8579  -19.0444   22.9480 C   0  0  0  0  0  0  0  0  0  0  0  0
  -22.8634  -13.5493   21.2099 C   0  0  0  0  0  0  0  0  0  0  0  0
  -36.4966  -25.6980   24.8170 C   0  0  0  0  0  0  0  0  0  0  0  0
  -39.3061  -24.2648   24.0589 C   0  0  0  0  0  0  0  0  0  0  0  0
  -41.1570  -21.4001   23.9373 C   0  0  0  0  0  0  0  0  0  0  0  0
  -30.7213  -14.6833   20.6958 C   0  0  0  0  0  0  0  0  0  0  0  0
  -34.8221  -30.4531   25.6191 C   0  0  0  0  0  0  0  0  0  0  0  0
  -37.0294  -24.4727   26.9549 C   0  0  0  0  0  0  0  0  0  0  0  0
  -37.3663  -22.7391   24.5830 C   0  0  0  0  0  0  0  0  0  0  0  0
  -35.9646  -29.8161   24.8322 C   0  0  0  0  0  0  0  0  0  0  0  0
  -29.6029  -12.2307   18.3696 C   0  0  0  0  0  0  0  0  0  0  0  0
  -35.4473  -28.6613   23.9803 C   0  0  0  0  0  0  0  0  0  0  0  0
  -28.1520  -11.9737   18.7832 C   0  0  0  0  0  0  0  0  0  0  0  0
  -30.5030  -12.4738   19.5797 C   0  0  0  0  0  0  0  0  0  0  0  0
  -28.5875  -13.2636   20.9125 C   0  0  0  0  0  0  0  0  0  0  0  0
  -34.8433  -27.5570   24.8562 C   0  0  1  0  0  0  0  0  0  0  0  0
  -37.5593  -25.0163   25.6316 C   0  0  1  0  0  0  0  0  0  0  0  0
  -27.6302  -13.0775   19.7239 C   0  0  2  0  0  0  0  0  0  0  0  0
  -43.4050  -20.5357   23.2326 C   0  0  0  0  0  0  0  0  0  0  0  0
  -32.6300  -18.6303   28.0764 C   0  0  0  0  0  0  0  0  0  0  0  0
  -38.4299  -24.3741   21.1383 C   0  0  0  0  0  0  0  0  0  0  0  0
  -40.2097  -22.6931   20.6139 C   0  0  0  0  0  0  0  0  0  0  0  0
  -40.8376  -24.9282   21.5265 C   0  0  0  0  0  0  0  0  0  0  0  0
  -41.8197  -20.5427   26.6913 C   0  0  0  0  0  0  0  0  0  0  0  0
  -31.6704  -20.5701   24.8398 C   0  0  0  0  0  0  0  0  0  0  0  0
  -31.6182  -19.4940   25.9355 C   0  0  0  0  0  0  0  0  0  0  0  0
  -30.6405  -20.3264   23.7214 C   0  0  1  0  0  0  0  0  0  0  0  0
  -39.7407  -23.2321   23.0471 C   0  0  1  0  0  0  0  0  0  0  0  0
  -42.5784  -21.0998   24.3777 C   0  0  2  0  0  0  0  0  0  0  0  0
  -32.6741  -19.7270   27.0207 C   0  0  2  0  0  0  0  0  0  1  0  0
  -39.7845  -23.8012   21.6009 C   0  0  0  0  0  0  0  0  0  0  0  0
  -31.9644  -18.7407   22.3064 N   0  0  0  0  0  0  0  0  0  0  0  0
  -25.8074  -11.5311   20.3299 N   0  0  0  0  0  0  0  0  0  0  0  0
  -26.2079  -12.8047   20.1763 N   0  0  0  0  0  0  0  0  0  0  0  0
  -38.1428  -23.9735   24.7852 N   0  0  0  0  0  0  0  0  0  0  0  0
  -29.9481  -13.5350   20.4227 N   0  0  0  0  0  0  0  0  0  0  0  0
  -25.4755  -15.0500   20.3577 N   0  0  0  0  0  0  0  0  0  0  0  0
  -21.8312  -12.6656   21.5531 N   0  0  0  0  0  0  0  0  0  0  0  0
  -30.0772  -15.6388   21.4811 N   0  0  0  0  0  0  0  0  0  0  0  0
  -35.8905  -26.7608   25.4593 N   0  0  0  0  0  0  0  0  0  0  0  0
  -41.0166  -22.7074   23.5217 N   0  0  0  0  0  0  0  0  0  0  0  0
  -30.6548  -21.5263   22.8222 N   0  3  0  0  0  0  0  0  0  0  0  0
  -42.5773  -20.1077   25.4898 N   0  3  0  0  0  0  0  0  0  0  0  0
  -22.6472  -14.7847   21.2334 O   0  0  0  0  0  0  0  0  0  0  0  0
  -36.2462  -25.2910   23.6886 O   0  0  0  0  0  0  0  0  0  0  0  0
  -39.9783  -25.2889   24.2047 O   0  0  0  0  0  0  0  0  0  0  0  0
  -40.2618  -20.5583   23.9563 O   0  0  0  0  0  0  0  0  0  0  0  0
  -31.8602  -14.8217   20.2422 O   0  0  0  0  0  0  0  0  0  0  0  0
  -21.4621   -7.1121   21.7925 O   0  0  0  0  0  0  0  0  0  0  0  0
  -33.9684  -19.7360   26.4198 O   0  0  0  0  0  0  0  0  0  1  0  0
  -23.7776   -3.0964   24.7786 F   0  0  0  0  0  0  0  0  0  0  0  0
  -23.7536   -5.8361   20.9187 F   0  0  0  0  0  0  0  0  0  0  0  0
  -29.5942  -17.8852   22.8831 S   0  0  0  0  0  0  0  0  0  0  0  0
  1  2  1  0  0  0  0
  1  5  2  0  0  0  0
  2  6  2  0  0  0  0
  3  8  2  0  0  0  0
  3 16  1  0  0  0  0
  4  9  1  0  0  0  0
  4 16  2  0  0  0  0
  5 18  1  0  0  0  0
  6 20  1  0  0  0  0
  7 10  2  0  0  0  0
  7 19  1  0  0  0  0
  8 22  1  0  0  0  0
  9 22  2  0  0  0  0
 10 23  1  0  0  0  0
 11 12  2  0  0  0  0
 11 24  1  0  0  0  0
 12 25  1  0  0  0  0
 13 21  1  0  0  0  0
 13 23  2  0  0  0  0
 14 25  2  0  0  0  0
 14 26  1  0  0  0  0
 15 29  2  0  0  0  0
 15 61  1  0  0  0  0
 16 27  1  0  0  0  0
 17 27  1  0  0  0  0
 17 28  2  0  0  0  0
 17 31  1  0  0  0  0
 18 20  2  0  0  0  0
 18 36  1  0  0  0  0
 19 21  2  0  0  0  0
 19 37  1  0  0  0  0
 20 45  1  0  0  0  0
 21 38  1  0  0  0  0
 22 78  1  0  0  0  0
 23 79  1  0  0  0  0
 24 26  2  0  0  0  0
 24 78  1  0  0  0  0
 25 80  1  0  0  0  0
 26 81  1  0  0  0  0
 27 62  2  0  0  0  0
 28 63  1  0  0  0  0
 28 66  1  0  0  0  0
 29 68  1  0  0  0  0
 29 82  1  0  0  0  0
 30 56  1  0  0  0  0
 30 61  2  0  0  0  0
 30 82  1  0  0  0  0
 31 67  1  0  0  0  0
 31 73  2  0  0  0  0
 32 46  1  0  0  0  0
 32 69  1  0  0  0  0
 32 74  2  0  0  0  0
 33 57  1  0  0  0  0
 33 64  1  0  0  0  0
 33 75  2  0  0  0  0
 34 58  1  0  0  0  0
 34 70  1  0  0  0  0
 34 76  2  0  0  0  0
 35 65  1  0  0  0  0
 35 68  1  0  0  0  0
 35 77  2  0  0  0  0
 36 39  1  0  0  0  0
 37 46  1  0  0  0  0
 38 64  1  0  0  0  0
 39 41  1  0  0  0  0
 40 42  1  0  0  0  0
 40 43  1  0  0  0  0
 41 45  1  0  0  0  0
 42 47  1  0  0  0  0
 43 65  1  0  0  0  0
 44 47  1  0  0  0  0
 44 65  1  0  0  0  0
 45 69  1  0  0  0  0
 46 64  1  0  0  0  0
 47 63  1  0  0  0  0
 48 58  1  0  0  0  0
 49 59  1  0  0  0  0
 50 60  1  0  0  0  0
 51 60  1  0  0  0  0
 52 60  1  0  0  0  0
 53 72  1  0  0  0  0
 54 55  1  0  0  0  0
 54 56  1  0  0  0  0
 55 59  1  0  0  0  0
 56 71  1  0  0  0  0
 57 60  1  0  0  0  0
 57 70  1  0  0  0  0
 58 72  1  0  0  0  0
 59 79  1  0  0  0  0
 62 63  1  0  0  0  0
M  CHG  2  71   1  72   1
M  ISO  4  35 100  59 101  68 100  79 101
M  END
> <Batch ID>
0198

> <Smiles>
CNC(C)C(=O)NC(C(=O)N1Cc2cc([101O:1][101CH:1](C)CCC(N)c3ncc([100NH:0][100C:0](=O)N4CCCC(n5nc(-c6ccc(Oc7ccc(F)cc7F)cc6)c(C(N)=O)c5N)C4)s3)ccc2CC1C(=O)NC1CCCc2ccccc21)C(C)(C)C

> <Shape>
0.172

> <Color>
0.194

> <Negative vol penalty>
0.000

$$$$

  -OEChem-04052305443D

 82 90  0     1  0  0  0  0  0999 V2000
  -25.3852  -11.2307   19.7588 C   0  0  0  0  0  0  0  0  0  0  0  0
  -25.0460  -12.4471   20.3425 C   0  0  0  0  0  0  0  0  0  0  0  0
  -25.2260  -27.7760   19.3230 C   0  0  0  0  0  0  0  0  0  0  0  0
  -25.7240  -25.7978   20.6175 C   0  0  0  0  0  0  0  0  0  0  0  0
  -26.7009  -10.9906   19.3651 C   0  0  0  0  0  0  0  0  0  0  0  0
  -26.0227  -13.4238   20.5337 C   0  0  0  0  0  0  0  0  0  0  0  0
  -24.4466  -18.0400   19.1727 C   0  0  0  0  0  0  0  0  0  0  0  0
  -26.5825  -28.0997   19.2957 C   0  0  0  0  0  0  0  0  0  0  0  0
  -27.0805  -26.1214   20.5901 C   0  0  0  0  0  0  0  0  0  0  0  0
  -23.6090  -18.7141   20.0602 C   0  0  0  0  0  0  0  0  0  0  0  0
  -29.1686  -28.2425   22.1938 C   0  0  0  0  0  0  0  0  0  0  0  0
  -29.8839  -28.1380   23.3867 C   0  0  0  0  0  0  0  0  0  0  0  0
  -25.4921  -19.9955   20.8547 C   0  0  0  0  0  0  0  0  0  0  0  0
  -31.3509  -26.5130   22.3645 C   0  0  0  0  0  0  0  0  0  0  0  0
  -21.2348  -21.1137   27.5226 C   0  0  0  0  0  0  0  0  0  0  0  0
  -24.7967  -26.6251   19.9840 C   0  0  0  0  0  0  0  0  0  0  0  0
  -22.6899  -25.5041   19.0829 C   0  0  0  0  0  0  0  0  0  0  0  0
  -27.6923  -11.9685   19.5427 C   0  0  0  0  0  0  0  0  0  0  0  0
  -25.8176  -18.3313   19.1272 C   0  0  0  0  0  0  0  0  0  0  0  0
  -27.3532  -13.1960   20.1431 C   0  0  0  0  0  0  0  0  0  0  0  0
  -26.3445  -19.3254   19.9640 C   0  0  0  0  0  0  0  0  0  0  0  0
  -20.3695  -22.1875   27.5733 C   0  0  0  0  0  0  0  0  0  0  0  0
  -27.5098  -27.2723   19.9292 C   0  0  0  0  0  0  0  0  0  0  0  0
  -24.1322  -19.6900   20.9034 C   0  0  0  0  0  0  0  0  0  0  0  0
  -29.5443  -27.4822   21.0863 C   0  0  0  0  0  0  0  0  0  0  0  0
  -30.9751  -27.2733   23.4720 C   0  0  0  0  0  0  0  0  0  0  0  0
  -30.6355  -26.6175   21.1717 C   0  0  0  0  0  0  0  0  0  0  0  0
  -23.3955  -26.2906   20.0130 C   0  0  0  0  0  0  0  0  0  0  0  0
  -20.3419  -22.9856   26.4479 C   0  0  0  0  0  0  0  0  0  0  0  0
  -21.4003  -25.4876   19.5555 C   0  0  0  0  0  0  0  0  0  0  0  0
  -21.8993  -21.6837   25.4249 C   0  0  0  0  0  0  0  0  0  0  0  0
  -23.1581  -24.8470   17.8977 C   0  0  0  0  0  0  0  0  0  0  0  0
  -28.4804  -16.6832   19.6720 C   0  0  0  0  0  0  0  0  0  0  0  0
  -29.9109  -19.3834   18.5833 C   0  0  0  0  0  0  0  0  0  0  0  0
  -29.7313  -22.7527   18.0716 C   0  0  0  0  0  0  0  0  0  0  0  0
  -19.0489  -26.2083   25.0146 C   0  0  0  0  0  0  0  0  0  0  0  0
  -29.1105  -11.6451   19.1444 C   0  0  0  0  0  0  0  0  0  0  0  0
  -26.7030  -17.6139   18.1454 C   0  0  0  0  0  0  0  0  0  0  0  0
  -27.8057  -19.6898   19.9397 C   0  0  0  0  0  0  0  0  0  0  0  0
  -30.0092  -12.8747   19.0398 C   0  0  0  0  0  0  0  0  0  0  0  0
  -18.3102  -28.1109   22.0972 C   0  0  0  0  0  0  0  0  0  0  0  0
  -29.8220  -13.7776   20.2549 C   0  0  0  0  0  0  0  0  0  0  0  0
  -19.4660  -27.7891   21.1483 C   0  0  0  0  0  0  0  0  0  0  0  0
  -18.7766  -28.1870   23.5493 C   0  0  0  0  0  0  0  0  0  0  0  0
  -20.6682  -26.6794   23.0776 C   0  0  0  0  0  0  0  0  0  0  0  0
  -28.3794  -14.2898   20.3446 C   0  0  1  0  0  0  0  0  0  0  0  0
  -28.1750  -17.6299   18.5459 C   0  0  1  0  0  0  0  0  0  0  0  0
  -20.2369  -26.5370   21.6079 C   0  0  2  0  0  0  0  0  0  0  0  0
  -30.4240  -25.0254   17.2638 C   0  0  0  0  0  0  0  0  0  0  0  0
  -31.5636  -19.3922   21.1482 C   0  0  0  0  0  0  0  0  0  0  0  0
  -32.1579  -21.7777   20.6745 C   0  0  0  0  0  0  0  0  0  0  0  0
  -32.8416  -19.9839   19.0816 C   0  0  0  0  0  0  0  0  0  0  0  0
  -28.4314  -22.3428   15.4447 C   0  0  0  0  0  0  0  0  0  0  0  0
  -19.4441  -24.1778   26.3857 C   0  0  0  0  0  0  0  0  0  0  0  0
  -22.6848  -22.2372   23.1222 C   0  0  0  0  0  0  0  0  0  0  0  0
  -23.6742  -21.6890   22.1076 C   0  0  0  0  0  0  0  0  0  1  0  0
  -30.4091  -20.6595   19.2176 C   0  0  1  0  0  0  0  0  0  0  0  0
  -30.0567  -23.6062   16.8591 C   0  0  2  0  0  0  0  0  0  0  0  0
  -31.7158  -20.4453   20.0325 C   0  0  0  0  0  0  0  0  0  0  0  0
  -22.0173  -20.8310   26.4605 N   0  0  0  0  0  0  0  0  0  0  0  0
  -22.6187  -26.7413   21.0017 N   0  0  0  0  0  0  0  0  0  0  0  0
  -21.0963  -22.7623   25.3518 N   0  0  0  0  0  0  0  0  0  0  0  0
  -21.4115  -26.2365   20.6953 N   0  0  0  0  0  0  0  0  0  0  0  0
  -28.6318  -18.9559   18.9669 N   0  0  0  0  0  0  0  0  0  0  0  0
  -19.4990  -26.9685   23.9226 N   0  0  0  0  0  0  0  0  0  0  0  0
  -19.5791  -22.4336   28.7022 N   0  0  0  0  0  0  0  0  0  0  0  0
  -20.2693  -24.9059   19.1030 N   0  0  0  0  0  0  0  0  0  0  0  0
  -24.5127  -24.9667   17.5583 N   0  0  0  0  0  0  0  0  0  0  0  0
  -22.6882  -21.4238   24.3165 N   0  0  0  0  0  0  0  0  0  0  0  0
  -28.1653  -15.3655   19.4004 N   0  0  0  0  0  0  0  0  0  0  0  0
  -30.5315  -21.6317   18.1368 N   0  0  0  0  0  0  0  0  0  0  0  0
  -19.7867  -25.0653   25.2968 N   0  0  0  0  0  0  0  0  0  0  0  0
  -28.8855  -23.6678   15.9397 N   0  3  0  0  0  0  0  0  0  0  0  0
  -22.3945  -24.1872   17.1527 O   0  0  0  0  0  0  0  0  0  0  0  0
  -28.9673  -17.1160   20.7099 O   0  0  0  0  0  0  0  0  0  0  0  0
  -30.6271  -18.7916   17.7719 O   0  0  0  0  0  0  0  0  0  0  0  0
  -28.8574  -23.0526   18.8821 O   0  0  0  0  0  0  0  0  0  0  0  0
  -18.0593  -26.5220   25.6850 O   0  0  0  0  0  0  0  0  0  0  0  0
  -28.8336  -27.5877   19.9025 O   0  0  0  0  0  0  0  0  0  0  0  0
  -23.3169  -20.3491   21.7711 O   0  0  0  0  0  0  0  0  0  1  0  0
  -31.6629  -27.1742   24.6171 F   0  0  0  0  0  0  0  0  0  0  0  0
  -31.0019  -25.8855   20.1107 F   0  0  0  0  0  0  0  0  0  0  0  0
  1  2  1  0  0  0  0
  1  5  2  0  0  0  0
  2  6  2  0  0  0  0
  3  8  2  0  0  0  0
  3 16  1  0  0  0  0
  4  9  1  0  0  0  0
  4 16  2  0  0  0  0
  5 18  1  0  0  0  0
  6 20  1  0  0  0  0
  7 10  2  0  0  0  0
  7 19  1  0  0  0  0
  8 23  1  0  0  0  0
  9 23  2  0  0  0  0
 10 24  1  0  0  0  0
 11 12  2  0  0  0  0
 11 25  1  0  0  0  0
 12 26  1  0  0  0  0
 13 21  1  0  0  0  0
 13 24  2  0  0  0  0
 14 26  2  0  0  0  0
 14 27  1  0  0  0  0
 15 22  1  0  0  0  0
 15 60  2  0  0  0  0
 16 28  1  0  0  0  0
 17 28  1  0  0  0  0
 17 30  2  0  0  0  0
 17 32  1  0  0  0  0
 18 20  2  0  0  0  0
 18 37  1  0  0  0  0
 19 21  2  0  0  0  0
 19 38  1  0  0  0  0
 20 46  1  0  0  0  0
 21 39  1  0  0  0  0
 22 29  2  0  0  0  0
 22 66  1  0  0  0  0
 23 79  1  0  0  0  0
 24 80  1  0  0  0  0
 25 27  2  0  0  0  0
 25 79  1  0  0  0  0
 26 81  1  0  0  0  0
 27 82  1  0  0  0  0
 28 61  2  0  0  0  0
 29 54  1  0  0  0  0
 29 62  1  0  0  0  0
 30 63  1  0  0  0  0
 30 67  1  0  0  0  0
 31 60  1  0  0  0  0
 31 62  2  0  0  0  0
 31 69  1  0  0  0  0
 32 68  1  0  0  0  0
 32 74  2  0  0  0  0
 33 47  1  0  0  0  0
 33 70  1  0  0  0  0
 33 75  2  0  0  0  0
 34 57  1  0  0  0  0
 34 64  1  0  0  0  0
 34 76  2  0  0  0  0
 35 58  1  0  0  0  0
 35 71  1  0  0  0  0
 35 77  2  0  0  0  0
 36 65  1  0  0  0  0
 36 72  1  0  0  0  0
 36 78  2  0  0  0  0
 37 40  1  0  0  0  0
 38 47  1  0  0  0  0
 39 64  1  0  0  0  0
 40 42  1  0  0  0  0
 41 43  1  0  0  0  0
 41 44  1  0  0  0  0
 42 46  1  0  0  0  0
 43 48  1  0  0  0  0
 44 65  1  0  0  0  0
 45 48  1  0  0  0  0
 45 65  1  0  0  0  0
 46 70  1  0  0  0  0
 47 64  1  0  0  0  0
 48 63  1  0  0  0  0
 49 58  1  0  0  0  0
 50 59  1  0  0  0  0
 51 59  1  0  0  0  0
 52 59  1  0  0  0  0
 53 73  1  0  0  0  0
 54 72  1  0  0  0  0
 55 56  1  0  0  0  0
 55 69  1  0  0  0  0
 56 80  1  0  0  0  0
 57 59  1  0  0  0  0
 57 71  1  0  0  0  0
 58 73  1  0  0  0  0
 61 63  1  0  0  0  0
M  CHG  1  73   1
M  ISO  4  36 100  56 101  72 100  80 101
M  END
> <Batch ID>
0198

> <Smiles>
CNC(C)C(=O)NC(C(=O)N1Cc2cc([101O:1][101CH2:1]CNc3ncc(N)c(C[100NH:0][100C:0](=O)N4CCCC(n5nc(-c6ccc(Oc7ccc(F)cc7F)cc6)c(C(N)=O)c5N)C4)n3)ccc2CC1C(=O)NC1CCCc2ccccc21)C(C)(C)C

> <Shape>
0.206

> <Color>
0.064

> <Negative vol penalty>
0.000

$$$$

  -OEChem-04052305443D

 83 91  0     1  0  0  0  0  0999 V2000
  -32.0944  -15.3562   19.3841 C   0  0  0  0  0  0  0  0  0  0  0  0
  -31.1358  -16.3639   19.3510 C   0  0  0  0  0  0  0  0  0  0  0  0
  -28.1508  -24.8030   18.6377 C   0  0  0  0  0  0  0  0  0  0  0  0
  -25.9924  -23.7843   19.0132 C   0  0  0  0  0  0  0  0  0  0  0  0
  -31.7015  -14.0266   19.5320 C   0  0  0  0  0  0  0  0  0  0  0  0
  -29.7837  -16.0425   19.4648 C   0  0  0  0  0  0  0  0  0  0  0  0
  -25.4316  -19.3549   22.2202 C   0  0  0  0  0  0  0  0  0  0  0  0
  -28.7685  -23.5690   18.8410 C   0  0  0  0  0  0  0  0  0  0  0  0
  -26.6102  -22.5503   19.2164 C   0  0  0  0  0  0  0  0  0  0  0  0
  -24.4717  -20.2379   21.7275 C   0  0  0  0  0  0  0  0  0  0  0  0
  -30.9411  -20.7579   19.6163 C   0  0  0  0  0  0  0  0  0  0  0  0
  -32.0755  -20.7246   20.4272 C   0  0  0  0  0  0  0  0  0  0  0  0
  -22.8481  -18.4539   21.7102 C   0  0  0  0  0  0  0  0  0  0  0  0
  -30.7804  -21.5888   22.2746 C   0  0  0  0  0  0  0  0  0  0  0  0
  -26.7627  -24.9107   18.7239 C   0  0  0  0  0  0  0  0  0  0  0  0
  -25.6619  -26.7143   17.2946 C   0  0  0  0  0  0  0  0  0  0  0  0
  -30.3446  -13.6897   19.6574 C   0  0  0  0  0  0  0  0  0  0  0  0
  -25.1093  -18.0100   22.4518 C   0  0  0  0  0  0  0  0  0  0  0  0
  -29.3723  -14.7071   19.6132 C   0  0  0  0  0  0  0  0  0  0  0  0
  -23.8050  -17.5565   22.2084 C   0  0  0  0  0  0  0  0  0  0  0  0
  -27.9983  -22.4427   19.1303 C   0  0  0  0  0  0  0  0  0  0  0  0
  -23.1806  -19.7868   21.4696 C   0  0  0  0  0  0  0  0  0  0  0  0
  -29.7263  -21.2067   20.1346 C   0  0  0  0  0  0  0  0  0  0  0  0
  -31.9952  -21.1400   21.7563 C   0  0  0  0  0  0  0  0  0  0  0  0
  -29.6460  -21.6221   21.4637 C   0  0  0  0  0  0  0  0  0  0  0  0
  -26.1240  -26.1852   18.5146 C   0  0  0  0  0  0  0  0  0  0  0  0
  -19.7759  -28.1015   22.7415 C   0  0  0  0  0  0  0  0  0  0  0  0
  -25.1402  -27.9404   17.6278 C   0  0  0  0  0  0  0  0  0  0  0  0
  -18.4032  -28.1275   22.6107 C   0  0  0  0  0  0  0  0  0  0  0  0
  -19.4609  -26.0118   22.1551 C   0  0  0  0  0  0  0  0  0  0  0  0
  -25.7006  -26.1480   15.9780 C   0  0  0  0  0  0  0  0  0  0  0  0
  -26.1231  -15.2289   21.2936 C   0  0  0  0  0  0  0  0  0  0  0  0
  -24.1816  -14.0092   23.5882 C   0  0  0  0  0  0  0  0  0  0  0  0
  -21.4823  -14.4435   25.6307 C   0  0  0  0  0  0  0  0  0  0  0  0
  -22.8997  -30.1732   22.7117 C   0  0  0  0  0  0  0  0  0  0  0  0
  -29.9652  -12.2342   19.7679 C   0  0  0  0  0  0  0  0  0  0  0  0
  -26.1488  -17.0764   23.0088 C   0  0  0  0  0  0  0  0  0  0  0  0
  -23.4027  -16.1269   22.4594 C   0  0  0  0  0  0  0  0  0  0  0  0
  -28.5366  -12.0126   20.2582 C   0  0  0  0  0  0  0  0  0  0  0  0
  -25.6213  -31.4724   20.8191 C   0  0  0  0  0  0  0  0  0  0  0  0
  -27.5683  -12.9236   19.5105 C   0  0  0  0  0  0  0  0  0  0  0  0
  -26.0171  -30.3124   19.9038 C   0  0  0  0  0  0  0  0  0  0  0  0
  -25.1846  -30.9802   22.1972 C   0  0  0  0  0  0  0  0  0  0  0  0
  -24.5172  -28.7981   21.2662 C   0  0  0  0  0  0  0  0  0  0  0  0
  -27.8975  -14.4007   19.7584 C   0  0  1  0  0  0  0  0  0  0  0  0
  -25.8491  -15.6085   22.7213 C   0  0  1  0  0  0  0  0  0  0  0  0
  -24.9117  -29.2408   19.8468 C   0  0  2  0  0  0  0  0  0  0  0  0
  -20.1153  -13.2558   27.3680 C   0  0  0  0  0  0  0  0  0  0  0  0
  -22.8455  -12.3532   21.4013 C   0  0  0  0  0  0  0  0  0  0  0  0
  -20.9410  -11.9417   22.9733 C   0  0  0  0  0  0  0  0  0  0  0  0
  -23.2285  -11.1303   23.5489 C   0  0  0  0  0  0  0  0  0  0  0  0
  -22.1260  -16.4699   27.6895 C   0  0  0  0  0  0  0  0  0  0  0  0
  -20.6388  -29.2382   23.1275 C   0  0  0  0  0  0  0  0  0  0  0  0
  -21.0462  -24.1155   21.8135 C   0  0  0  0  0  0  0  0  0  0  0  0
  -22.3642  -22.0179   21.3626 C   0  0  0  0  0  0  0  0  0  1  0  0
  -22.7283  -13.6063   23.6557 C   0  0  1  0  0  0  0  0  0  0  0  0
  -21.2905  -14.1873   27.1146 C   0  0  2  0  0  0  0  0  0  0  0  0
  -20.9768  -22.6501   21.3884 C   0  0  1  0  0  0  0  0  0  0  0  0
  -22.4436  -12.2844   22.8881 C   0  0  0  0  0  0  0  0  0  0  0  0
  -25.9146  -27.0078   19.5457 N   0  0  0  0  0  0  0  0  0  0  0  0
  -20.3841  -26.8890   22.4811 N   0  0  0  0  0  0  0  0  0  0  0  0
  -25.3151  -28.0664   18.9746 N   0  0  0  0  0  0  0  0  0  0  0  0
  -24.4563  -15.2512   22.9983 N   0  0  0  0  0  0  0  0  0  0  0  0
  -24.1336  -29.9673   22.0728 N   0  0  0  0  0  0  0  0  0  0  0  0
  -24.5536  -28.9123   16.8972 N   0  0  0  0  0  0  0  0  0  0  0  0
  -17.5649  -29.1745   22.8028 N   0  0  0  0  0  0  0  0  0  0  0  0
  -26.2718  -24.8788   15.8130 N   0  0  0  0  0  0  0  0  0  0  0  0
  -19.7199  -24.6907   21.8313 N   0  0  0  0  0  0  0  0  0  0  0  0
  -27.4202  -14.8131   21.0610 N   0  0  0  0  0  0  0  0  0  0  0  0
  -22.3827  -13.5610   25.0723 N   0  0  0  0  0  0  0  0  0  0  0  0
  -21.9570  -29.1674   22.5376 N   0  0  0  0  0  0  0  0  0  0  0  0
  -21.0382  -15.4683   27.8331 N   0  3  0  0  0  0  0  0  0  0  0  0
  -25.2571  -26.7568   14.9748 O   0  0  0  0  0  0  0  0  0  0  0  0
  -25.2239  -15.3061   20.4646 O   0  0  0  0  0  0  0  0  0  0  0  0
  -25.0408  -13.2532   24.0485 O   0  0  0  0  0  0  0  0  0  0  0  0
  -20.8898  -15.3348   25.0266 O   0  0  0  0  0  0  0  0  0  0  0  0
  -22.6544  -31.1813   23.3828 O   0  0  0  0  0  0  0  0  0  0  0  0
  -20.1867  -21.9262   22.3339 O   0  0  0  0  0  0  0  0  0  0  0  0
  -28.6007  -21.2384   19.3285 O   0  0  0  0  0  0  0  0  0  0  0  0
  -22.2419  -20.6464   20.9880 O   0  0  0  0  0  0  0  0  0  1  0  0
  -33.0844  -21.1066   22.5353 F   0  0  0  0  0  0  0  0  0  0  0  0
  -28.4814  -22.0532   21.9676 F   0  0  0  0  0  0  0  0  0  0  0  0
  -17.8406  -26.5769   22.1410 S   0  0  0  0  0  0  0  0  0  0  0  0
  1  2  1  0  0  0  0
  1  5  2  0  0  0  0
  2  6  2  0  0  0  0
  3  8  2  0  0  0  0
  3 15  1  0  0  0  0
  4  9  1  0  0  0  0
  4 15  2  0  0  0  0
  5 17  1  0  0  0  0
  6 19  1  0  0  0  0
  7 10  2  0  0  0  0
  7 18  1  0  0  0  0
  8 21  1  0  0  0  0
  9 21  2  0  0  0  0
 10 22  1  0  0  0  0
 11 12  2  0  0  0  0
 11 23  1  0  0  0  0
 12 24  1  0  0  0  0
 13 20  1  0  0  0  0
 13 22  2  0  0  0  0
 14 24  2  0  0  0  0
 14 25  1  0  0  0  0
 15 26  1  0  0  0  0
 16 26  1  0  0  0  0
 16 28  2  0  0  0  0
 16 31  1  0  0  0  0
 17 19  2  0  0  0  0
 17 36  1  0  0  0  0
 18 20  2  0  0  0  0
 18 37  1  0  0  0  0
 19 45  1  0  0  0  0
 20 38  1  0  0  0  0
 21 79  1  0  0  0  0
 22 80  1  0  0  0  0
 23 25  2  0  0  0  0
 23 79  1  0  0  0  0
 24 81  1  0  0  0  0
 25 82  1  0  0  0  0
 26 60  2  0  0  0  0
 27 29  2  0  0  0  0
 27 53  1  0  0  0  0
 27 61  1  0  0  0  0
 28 62  1  0  0  0  0
 28 65  1  0  0  0  0
 29 66  1  0  0  0  0
 29 83  1  0  0  0  0
 30 61  2  0  0  0  0
 30 68  1  0  0  0  0
 30 83  1  0  0  0  0
 31 67  1  0  0  0  0
 31 73  2  0  0  0  0
 32 46  1  0  0  0  0
 32 69  1  0  0  0  0
 32 74  2  0  0  0  0
 33 56  1  0  0  0  0
 33 63  1  0  0  0  0
 33 75  2  0  0  0  0
 34 57  1  0  0  0  0
 34 70  1  0  0  0  0
 34 76  2  0  0  0  0
 35 64  1  0  0  0  0
 35 71  1  0  0  0  0
 35 77  2  0  0  0  0
 36 39  1  0  0  0  0
 37 46  1  0  0  0  0
 38 63  1  0  0  0  0
 39 41  1  0  0  0  0
 40 42  1  0  0  0  0
 40 43  1  0  0  0  0
 41 45  1  0  0  0  0
 42 47  1  0  0  0  0
 43 64  1  0  0  0  0
 44 47  1  0  0  0  0
 44 64  1  0  0  0  0
 45 69  1  0  0  0  0
 46 63  1  0  0  0  0
 47 62  1  0  0  0  0
 48 57  1  0  0  0  0
 49 59  1  0  0  0  0
 50 59  1  0  0  0  0
 51 59  1  0  0  0  0
 52 72  1  0  0  0  0
 53 71  1  0  0  0  0
 54 58  1  0  0  0  0
 54 68  1  0  0  0  0
 55 58  1  0  0  0  0
 55 80  1  0  0  0  0
 56 59  1  0  0  0  0
 56 70  1  0  0  0  0
 57 72  1  0  0  0  0
 58 78  1  0  0  0  0
 60 62  1  0  0  0  0
M  CHG  1  72   1
M  ISO  4  35 100  55 101  71 100  80 101
M  END
> <Batch ID>
0198

> <Smiles>
CNC(C)C(=O)NC(C(=O)N1Cc2cc([101O:1][101CH2:1]C(O)CNc3nc(C[100NH:0][100C:0](=O)N4CCCC(n5nc(-c6ccc(Oc7ccc(F)cc7F)cc6)c(C(N)=O)c5N)C4)c(N)s3)ccc2CC1C(=O)NC1CCCc2ccccc21)C(C)(C)C

> <Shape>
0.215

> <Color>
0.079

> <Negative vol penalty>
0.000

$$$$

  -OEChem-04052305443D

 83 91  0     1  0  0  0  0  0999 V2000
  -18.3987  -24.9757   22.5418 C   0  0  0  0  0  0  0  0  0  0  0  0
  -19.6803  -24.8228   22.0225 C   0  0  0  0  0  0  0  0  0  0  0  0
  -26.6999  -15.2221   21.8287 C   0  0  0  0  0  0  0  0  0  0  0  0
  -26.1652  -15.2156   19.4726 C   0  0  0  0  0  0  0  0  0  0  0  0
  -17.8398  -26.2482   22.6522 C   0  0  0  0  0  0  0  0  0  0  0  0
  -20.4032  -25.9424   21.6123 C   0  0  0  0  0  0  0  0  0  0  0  0
  -26.4574  -26.7690   22.0239 C   0  0  0  0  0  0  0  0  0  0  0  0
  -26.4879  -13.8444   21.8806 C   0  0  0  0  0  0  0  0  0  0  0  0
  -25.9532  -13.8379   19.5245 C   0  0  0  0  0  0  0  0  0  0  0  0
  -27.4896  -26.6191   21.0988 C   0  0  0  0  0  0  0  0  0  0  0  0
  -23.8516  -11.7343   22.0268 C   0  0  0  0  0  0  0  0  0  0  0  0
  -23.1041  -11.2341   23.0929 C   0  0  0  0  0  0  0  0  0  0  0  0
  -27.3841  -28.9785   20.6079 C   0  0  0  0  0  0  0  0  0  0  0  0
  -24.9870   -9.8852   23.7802 C   0  0  0  0  0  0  0  0  0  0  0  0
  -26.1269  -26.8344   16.8344 C   0  0  0  0  0  0  0  0  0  0  0  0
  -26.5385  -15.9077   20.6247 C   0  0  0  0  0  0  0  0  0  0  0  0
  -27.9667  -17.9954   20.2940 C   0  0  0  0  0  0  0  0  0  0  0  0
  -18.5600  -27.3848   22.2521 C   0  0  0  0  0  0  0  0  0  0  0  0
  -25.8724  -28.0249   22.2404 C   0  0  0  0  0  0  0  0  0  0  0  0
  -19.8529  -27.2312   21.7162 C   0  0  0  0  0  0  0  0  0  0  0  0
  -26.3464  -29.1422   21.5382 C   0  0  0  0  0  0  0  0  0  0  0  0
  -26.1146  -13.1523   20.7286 C   0  0  0  0  0  0  0  0  0  0  0  0
  -27.9512  -27.7234   20.3885 C   0  0  0  0  0  0  0  0  0  0  0  0
  -25.1667  -11.3099   21.8373 C   0  0  0  0  0  0  0  0  0  0  0  0
  -23.6717  -10.3096   23.9697 C   0  0  0  0  0  0  0  0  0  0  0  0
  -25.7344  -10.3854   22.7140 C   0  0  0  0  0  0  0  0  0  0  0  0
  -26.7569  -17.3309   20.5705 C   0  0  0  0  0  0  0  0  0  0  0  0
  -27.2009  -26.2233   16.2220 C   0  0  0  0  0  0  0  0  0  0  0  0
  -27.6487  -19.3299   20.3616 C   0  0  0  0  0  0  0  0  0  0  0  0
  -25.8603  -24.8127   17.6416 C   0  0  0  0  0  0  0  0  0  0  0  0
  -29.2621  -17.4548   20.0020 C   0  0  0  0  0  0  0  0  0  0  0  0
  -22.9546  -29.2327   21.8785 C   0  0  0  0  0  0  0  0  0  0  0  0
  -24.2758  -31.8298   23.3039 C   0  0  0  0  0  0  0  0  0  0  0  0
  -27.0899  -33.6203   24.0265 C   0  0  0  0  0  0  0  0  0  0  0  0
  -24.2758  -23.5994   19.1791 C   0  0  0  0  0  0  0  0  0  0  0  0
  -17.8958  -28.7356   22.3467 C   0  0  0  0  0  0  0  0  0  0  0  0
  -24.7780  -28.1748   23.2613 C   0  0  0  0  0  0  0  0  0  0  0  0
  -25.7658  -30.5159   21.7486 C   0  0  0  0  0  0  0  0  0  0  0  0
  -18.8726  -29.9036   22.2378 C   0  0  0  0  0  0  0  0  0  0  0  0
  -23.4686  -21.6391   22.0396 C   0  0  0  0  0  0  0  0  0  0  0  0
  -19.8355  -29.6876   21.0746 C   0  0  0  0  0  0  0  0  0  0  0  0
  -24.3516  -20.3982   21.8897 C   0  0  0  0  0  0  0  0  0  0  0  0
  -22.9534  -22.1350   20.6897 C   0  0  0  0  0  0  0  0  0  0  0  0
  -24.8733  -21.1217   19.5251 C   0  0  0  0  0  0  0  0  0  0  0  0
  -20.6782  -28.4236   21.2835 C   0  0  1  0  0  0  0  0  0  0  0  0
  -23.9073  -29.4055   23.0275 C   0  0  1  0  0  0  0  0  0  0  0  0
  -25.4688  -20.6235   20.8521 C   0  0  2  0  0  0  0  0  0  0  0  0
  -27.6125  -27.3877   14.0157 C   0  0  0  0  0  0  0  0  0  0  0  0
  -27.8490  -35.7189   25.1740 C   0  0  0  0  0  0  0  0  0  0  0  0
  -31.3237  -26.9250   15.9454 C   0  0  0  0  0  0  0  0  0  0  0  0
  -23.2700  -33.4813   20.9436 C   0  0  0  0  0  0  0  0  0  0  0  0
  -24.8324  -35.3074   21.6451 C   0  0  0  0  0  0  0  0  0  0  0  0
  -23.0014  -34.5789   23.1746 C   0  0  0  0  0  0  0  0  0  0  0  0
  -28.7488  -32.1052   25.9531 C   0  0  0  0  0  0  0  0  0  0  0  0
  -30.5182  -28.3797   17.8469 C   0  0  0  0  0  0  0  0  0  0  0  0
  -29.3817  -28.7535   18.7921 C   0  0  0  0  0  0  0  0  0  1  0  0
  -28.2332  -26.7981   15.2797 C   0  0  1  0  0  0  0  0  0  0  0  0
  -24.9951  -33.0654   22.8190 C   0  0  1  0  0  0  0  0  0  0  0  0
  -27.5919  -34.2276   25.3241 C   0  0  2  0  0  0  0  0  0  0  0  0
  -30.1353  -27.3195   16.8123 C   0  0  1  0  0  0  0  0  0  0  0  0
  -24.0346  -34.0821   22.1400 C   0  0  0  0  0  0  0  0  0  0  0  0
  -25.3567  -26.0270   17.6485 N   0  0  0  0  0  0  0  0  0  0  0  0
  -25.7458  -18.1737   20.7972 N   0  0  0  0  0  0  0  0  0  0  0  0
  -26.3196  -19.3815   20.6632 N   0  0  0  0  0  0  0  0  0  0  0  0
  -24.6934  -30.6101   22.7529 N   0  0  0  0  0  0  0  0  0  0  0  0
  -24.0676  -22.3303   19.7594 N   0  0  0  0  0  0  0  0  0  0  0  0
  -28.3792  -20.4524   20.1920 N   0  0  0  0  0  0  0  0  0  0  0  0
  -29.4135  -16.0617   19.9722 N   0  0  0  0  0  0  0  0  0  0  0  0
  -25.3846  -23.6732   18.3366 N   0  0  0  0  0  0  0  0  0  0  0  0
  -21.7407  -28.6757   22.2331 N   0  0  0  0  0  0  0  0  0  0  0  0
  -25.7123  -33.5991   23.9718 N   0  0  0  0  0  0  0  0  0  0  0  0
  -28.8620  -33.5718   25.7456 N   0  3  0  0  0  0  0  0  0  0  0  0
  -29.0693  -27.8485   15.9167 N   0  3  0  0  0  0  0  0  0  0  0  0
  -30.2596  -18.1854   19.7903 O   0  0  0  0  0  0  0  0  0  0  0  0
  -23.2950  -29.5804   20.7538 O   0  0  0  0  0  0  0  0  0  0  0  0
  -23.3815  -31.9421   24.1460 O   0  0  0  0  0  0  0  0  0  0  0  0
  -27.8444  -33.2094   23.1476 O   0  0  0  0  0  0  0  0  0  0  0  0
  -23.5418  -24.5577   19.4336 O   0  0  0  0  0  0  0  0  0  0  0  0
  -25.9078  -11.8080   20.7788 O   0  0  0  0  0  0  0  0  0  0  0  0
  -28.9581  -27.5798   19.4845 O   0  0  0  0  0  0  0  0  0  1  0  0
  -22.9543   -9.8306   24.9943 F   0  0  0  0  0  0  0  0  0  0  0  0
  -26.9979   -9.9749   22.5378 F   0  0  0  0  0  0  0  0  0  0  0  0
  -27.2598  -24.5711   16.6783 S   0  0  0  0  0  0  0  0  0  0  0  0
  1  2  1  0  0  0  0
  1  5  2  0  0  0  0
  2  6  2  0  0  0  0
  3  8  2  0  0  0  0
  3 16  1  0  0  0  0
  4  9  1  0  0  0  0
  4 16  2  0  0  0  0
  5 18  1  0  0  0  0
  6 20  1  0  0  0  0
  7 10  2  0  0  0  0
  7 19  1  0  0  0  0
  8 22  1  0  0  0  0
  9 22  2  0  0  0  0
 10 23  1  0  0  0  0
 11 12  2  0  0  0  0
 11 24  1  0  0  0  0
 12 25  1  0  0  0  0
 13 21  1  0  0  0  0
 13 23  2  0  0  0  0
 14 25  2  0  0  0  0
 14 26  1  0  0  0  0
 15 28  2  0  0  0  0
 15 62  1  0  0  0  0
 16 27  1  0  0  0  0
 17 27  1  0  0  0  0
 17 29  2  0  0  0  0
 17 31  1  0  0  0  0
 18 20  2  0  0  0  0
 18 36  1  0  0  0  0
 19 21  2  0  0  0  0
 19 37  1  0  0  0  0
 20 45  1  0  0  0  0
 21 38  1  0  0  0  0
 22 79  1  0  0  0  0
 23 80  1  0  0  0  0
 24 26  2  0  0  0  0
 24 79  1  0  0  0  0
 25 81  1  0  0  0  0
 26 82  1  0  0  0  0
 27 63  2  0  0  0  0
 28 57  1  0  0  0  0
 28 83  1  0  0  0  0
 29 64  1  0  0  0  0
 29 67  1  0  0  0  0
 30 62  2  0  0  0  0
 30 69  1  0  0  0  0
 30 83  1  0  0  0  0
 31 68  1  0  0  0  0
 31 74  2  0  0  0  0
 32 46  1  0  0  0  0
 32 70  1  0  0  0  0
 32 75  2  0  0  0  0
 33 58  1  0  0  0  0
 33 65  1  0  0  0  0
 33 76  2  0  0  0  0
 34 59  1  0  0  0  0
 34 71  1  0  0  0  0
 34 77  2  0  0  0  0
 35 66  1  0  0  0  0
 35 69  1  0  0  0  0
 35 78  2  0  0  0  0
 36 39  1  0  0  0  0
 37 46  1  0  0  0  0
 38 65  1  0  0  0  0
 39 41  1  0  0  0  0
 40 42  1  0  0  0  0
 40 43  1  0  0  0  0
 41 45  1  0  0  0  0
 42 47  1  0  0  0  0
 43 66  1  0  0  0  0
 44 47  1  0  0  0  0
 44 66  1  0  0  0  0
 45 70  1  0  0  0  0
 46 65  1  0  0  0  0
 47 64  1  0  0  0  0
 48 57  1  0  0  0  0
 49 59  1  0  0  0  0
 50 60  1  0  0  0  0
 51 61  1  0  0  0  0
 52 61  1  0  0  0  0
 53 61  1  0  0  0  0
 54 72  1  0  0  0  0
 55 56  1  0  0  0  0
 55 60  1  0  0  0  0
 56 80  1  0  0  0  0
 57 73  1  0  0  0  0
 58 61  1  0  0  0  0
 58 71  1  0  0  0  0
 59 72  1  0  0  0  0
 60 73  1  0  0  0  0
 63 64  1  0  0  0  0
M  CHG  2  72   1  73   1
M  ISO  4  35 100  56 101  69 100  80 101
M  END
> <Batch ID>
0198

> <Smiles>
CNC(C)C(=O)NC(C(=O)N1Cc2cc([101O:1][101CH2:1]CC(C)NC(C)c3cnc([100NH:0][100C:0](=O)N4CCCC(n5nc(-c6ccc(Oc7ccc(F)cc7F)cc6)c(C(N)=O)c5N)C4)s3)ccc2CC1C(=O)NC1CCCc2ccccc21)C(C)(C)C

> <Shape>
0.236

> <Color>
0.097

> <Negative vol penalty>
0.000

$$$$

  -OEChem-04052305443D

 83 91  0     1  0  0  0  0  0999 V2000
  -20.2498  -11.9069   17.7085 C   0  0  0  0  0  0  0  0  0  0  0  0
  -20.6410  -13.2294   17.5260 C   0  0  0  0  0  0  0  0  0  0  0  0
  -21.5851  -24.8385   18.7373 C   0  0  0  0  0  0  0  0  0  0  0  0
  -22.9303  -23.8926   20.5073 C   0  0  0  0  0  0  0  0  0  0  0  0
  -20.8888  -11.1176   18.6638 C   0  0  0  0  0  0  0  0  0  0  0  0
  -21.6707  -13.7638   18.2996 C   0  0  0  0  0  0  0  0  0  0  0  0
  -27.0422  -18.4903   17.9477 C   0  0  0  0  0  0  0  0  0  0  0  0
  -21.5431  -23.5958   18.1051 C   0  0  0  0  0  0  0  0  0  0  0  0
  -22.8882  -22.6499   19.8752 C   0  0  0  0  0  0  0  0  0  0  0  0
  -27.5532  -19.5928   18.6311 C   0  0  0  0  0  0  0  0  0  0  0  0
  -22.8329  -19.1444   18.9128 C   0  0  0  0  0  0  0  0  0  0  0  0
  -22.5759  -18.0231   19.7016 C   0  0  0  0  0  0  0  0  0  0  0  0
  -28.6382  -18.1122   20.1962 C   0  0  0  0  0  0  0  0  0  0  0  0
  -20.4476  -18.9659   20.3484 C   0  0  0  0  0  0  0  0  0  0  0  0
  -29.8118  -27.0178   21.2245 C   0  0  0  0  0  0  0  0  0  0  0  0
  -22.2788  -24.9869   19.9383 C   0  0  0  0  0  0  0  0  0  0  0  0
  -21.4176  -26.7699   21.5467 C   0  0  0  0  0  0  0  0  0  0  0  0
  -21.9334  -11.6397   19.4428 C   0  0  0  0  0  0  0  0  0  0  0  0
  -27.3168  -17.1884   18.3906 C   0  0  0  0  0  0  0  0  0  0  0  0
  -22.3234  -12.9811   19.2672 C   0  0  0  0  0  0  0  0  0  0  0  0
  -28.1316  -16.9948   19.5152 C   0  0  0  0  0  0  0  0  0  0  0  0
  -22.1946  -22.5015   18.6741 C   0  0  0  0  0  0  0  0  0  0  0  0
  -28.3490  -19.4040   19.7572 C   0  0  0  0  0  0  0  0  0  0  0  0
  -21.8973  -20.1765   18.8419 C   0  0  0  0  0  0  0  0  0  0  0  0
  -21.3832  -17.9338   20.4194 C   0  0  0  0  0  0  0  0  0  0  0  0
  -20.7046  -20.0873   19.5596 C   0  0  0  0  0  0  0  0  0  0  0  0
  -22.3231  -26.2705   20.5915 C   0  0  0  0  0  0  0  0  0  0  0  0
  -29.9800  -27.6161   22.4557 C   0  0  0  0  0  0  0  0  0  0  0  0
  -21.8961  -28.0205   21.8525 C   0  0  0  0  0  0  0  0  0  0  0  0
  -29.9153  -25.2082   22.4592 C   0  0  0  0  0  0  0  0  0  0  0  0
  -20.2486  -26.1580   22.1076 C   0  0  0  0  0  0  0  0  0  0  0  0
  -25.5577  -14.7592   19.4430 C   0  0  0  0  0  0  0  0  0  0  0  0
  -28.3911  -13.1818   19.3656 C   0  0  0  0  0  0  0  0  0  0  0  0
  -31.7993  -13.3424   19.4375 C   0  0  0  0  0  0  0  0  0  0  0  0
  -27.3441  -30.4866   21.5553 C   0  0  0  0  0  0  0  0  0  0  0  0
  -22.5623  -10.7620   20.4958 C   0  0  0  0  0  0  0  0  0  0  0  0
  -26.7800  -16.0092   17.6266 C   0  0  0  0  0  0  0  0  0  0  0  0
  -28.4728  -15.6172   20.0195 C   0  0  0  0  0  0  0  0  0  0  0  0
  -23.8962  -11.2933   21.0143 C   0  0  0  0  0  0  0  0  0  0  0  0
  -24.3797  -31.6453   19.9596 C   0  0  0  0  0  0  0  0  0  0  0  0
  -23.7918  -12.7823   21.3287 C   0  0  0  0  0  0  0  0  0  0  0  0
  -23.4348  -30.4443   20.0268 C   0  0  0  0  0  0  0  0  0  0  0  0
  -25.8272  -31.2128   19.7365 C   0  0  0  0  0  0  0  0  0  0  0  0
  -25.3880  -29.0191   20.7702 C   0  0  0  0  0  0  0  0  0  0  0  0
  -23.4529  -13.5896   20.0698 C   0  0  1  0  0  0  0  0  0  0  0  0
  -26.7002  -14.7387   18.4675 C   0  0  1  0  0  0  0  0  0  0  0  0
  -23.9246  -29.4020   21.0500 C   0  0  2  0  0  0  0  0  0  0  0  0
  -33.8414  -11.8845   19.3953 C   0  0  0  0  0  0  0  0  0  0  0  0
  -27.9022  -12.4170   22.2787 C   0  0  0  0  0  0  0  0  0  0  0  0
  -30.3252  -11.8115   22.4536 C   0  0  0  0  0  0  0  0  0  0  0  0
  -28.8464  -10.5841   20.8633 C   0  0  0  0  0  0  0  0  0  0  0  0
  -32.7758  -14.5836   16.9346 C   0  0  0  0  0  0  0  0  0  0  0  0
  -30.0651  -29.0468   22.8070 C   0  0  0  0  0  0  0  0  0  0  0  0
  -28.7678  -29.6286   23.3981 C   0  0  0  0  0  0  0  0  0  0  0  0
  -29.7814  -22.7839   21.8842 C   0  0  0  0  0  0  0  0  0  0  0  0
  -28.0759  -21.6778   20.3983 C   0  0  0  0  0  0  0  0  0  1  0  0
  -29.5208  -12.9646   20.3431 C   0  0  1  0  0  0  0  0  0  0  0  0
  -32.8570  -12.6923   18.5639 C   0  0  2  0  0  0  0  0  0  0  0  0
  -28.3040  -22.4449   21.6962 C   0  0  1  0  0  0  0  0  0  0  0  0
  -29.1408  -11.9704   21.4766 C   0  0  0  0  0  0  0  0  0  0  0  0
  -29.7749  -25.6371   21.2245 N   0  0  0  0  0  0  0  0  0  0  0  0
  -23.3026  -27.1334   20.3089 N   0  0  0  0  0  0  0  0  0  0  0  0
  -23.0153  -28.1878   21.0912 N   0  0  0  0  0  0  0  0  0  0  0  0
  -27.9189  -14.4962   19.2422 N   0  0  0  0  0  0  0  0  0  0  0  0
  -26.2300  -30.2253   20.7407 N   0  0  0  0  0  0  0  0  0  0  0  0
  -21.4645  -28.9824   22.6956 N   0  0  0  0  0  0  0  0  0  0  0  0
  -19.9000  -24.8687   21.6826 N   0  0  0  0  0  0  0  0  0  0  0  0
  -29.9253  -23.8726   22.8245 N   0  0  0  0  0  0  0  0  0  0  0  0
  -24.6295  -13.7551   19.2436 N   0  0  0  0  0  0  0  0  0  0  0  0
  -30.6739  -12.5536   19.5495 N   0  0  0  0  0  0  0  0  0  0  0  0
  -27.6538  -29.5016   22.4851 N   0  0  0  0  0  0  0  0  0  0  0  0
  -33.6175  -13.7302   17.8122 N   0  3  0  0  0  0  0  0  0  0  0  0
  -19.5250  -26.7438   22.9483 O   0  0  0  0  0  0  0  0  0  0  0  0
  -25.5216  -15.6212   20.3133 O   0  0  0  0  0  0  0  0  0  0  0  0
  -27.9488  -12.2219   18.7295 O   0  0  0  0  0  0  0  0  0  0  0  0
  -31.9572  -14.4386   19.9704 O   0  0  0  0  0  0  0  0  0  0  0  0
  -28.0102  -31.5235   21.4644 O   0  0  0  0  0  0  0  0  0  0  0  0
  -27.8750  -21.6115   22.7750 O   0  0  0  0  0  0  0  0  0  0  0  0
  -22.1536  -21.2887   18.0577 O   0  0  0  0  0  0  0  0  0  0  0  0
  -28.8485  -20.4784   20.4265 O   0  0  0  0  0  0  0  0  0  1  0  0
  -21.1359  -16.8563   21.1756 F   0  0  0  0  0  0  0  0  0  0  0  0
  -19.8014  -21.0751   19.4945 F   0  0  0  0  0  0  0  0  0  0  0  0
  -30.0959  -26.4107   23.6701 S   0  0  0  0  0  0  0  0  0  0  0  0
  1  2  1  0  0  0  0
  1  5  2  0  0  0  0
  2  6  2  0  0  0  0
  3  8  2  0  0  0  0
  3 16  1  0  0  0  0
  4  9  1  0  0  0  0
  4 16  2  0  0  0  0
  5 18  1  0  0  0  0
  6 20  1  0  0  0  0
  7 10  2  0  0  0  0
  7 19  1  0  0  0  0
  8 22  1  0  0  0  0
  9 22  2  0  0  0  0
 10 23  1  0  0  0  0
 11 12  2  0  0  0  0
 11 24  1  0  0  0  0
 12 25  1  0  0  0  0
 13 21  1  0  0  0  0
 13 23  2  0  0  0  0
 14 25  2  0  0  0  0
 14 26  1  0  0  0  0
 15 28  2  0  0  0  0
 15 61  1  0  0  0  0
 16 27  1  0  0  0  0
 17 27  1  0  0  0  0
 17 29  2  0  0  0  0
 17 31  1  0  0  0  0
 18 20  2  0  0  0  0
 18 36  1  0  0  0  0
 19 21  2  0  0  0  0
 19 37  1  0  0  0  0
 20 45  1  0  0  0  0
 21 38  1  0  0  0  0
 22 79  1  0  0  0  0
 23 80  1  0  0  0  0
 24 26  2  0  0  0  0
 24 79  1  0  0  0  0
 25 81  1  0  0  0  0
 26 82  1  0  0  0  0
 27 62  2  0  0  0  0
 28 53  1  0  0  0  0
 28 83  1  0  0  0  0
 29 63  1  0  0  0  0
 29 66  1  0  0  0  0
 30 61  2  0  0  0  0
 30 68  1  0  0  0  0
 30 83  1  0  0  0  0
 31 67  1  0  0  0  0
 31 73  2  0  0  0  0
 32 46  1  0  0  0  0
 32 69  1  0  0  0  0
 32 74  2  0  0  0  0
 33 57  1  0  0  0  0
 33 64  1  0  0  0  0
 33 75  2  0  0  0  0
 34 58  1  0  0  0  0
 34 70  1  0  0  0  0
 34 76  2  0  0  0  0
 35 65  1  0  0  0  0
 35 71  1  0  0  0  0
 35 77  2  0  0  0  0
 36 39  1  0  0  0  0
 37 46  1  0  0  0  0
 38 64  1  0  0  0  0
 39 41  1  0  0  0  0
 40 42  1  0  0  0  0
 40 43  1  0  0  0  0
 41 45  1  0  0  0  0
 42 47  1  0  0  0  0
 43 65  1  0  0  0  0
 44 47  1  0  0  0  0
 44 65  1  0  0  0  0
 45 69  1  0  0  0  0
 46 64  1  0  0  0  0
 47 63  1  0  0  0  0
 48 58  1  0  0  0  0
 49 60  1  0  0  0  0
 50 60  1  0  0  0  0
 51 60  1  0  0  0  0
 52 72  1  0  0  0  0
 53 54  1  0  0  0  0
 54 71  1  0  0  0  0
 55 59  1  0  0  0  0
 55 68  1  0  0  0  0
 56 59  1  0  0  0  0
 56 80  1  0  0  0  0
 57 60  1  0  0  0  0
 57 70  1  0  0  0  0
 58 72  1  0  0  0  0
 59 78  1  0  0  0  0
 62 63  1  0  0  0  0
M  CHG  1  72   1
M  ISO  4  35 100  56 101  71 100  80 101
M  END
> <Batch ID>
0198

> <Smiles>
CNC(C)C(=O)NC(C(=O)N1Cc2cc([101O:1][101CH2:1]C(O)CNc3ncc(CC[100NH:0][100C:0](=O)N4CCCC(n5nc(-c6ccc(Oc7ccc(F)cc7F)cc6)c(C(N)=O)c5N)C4)s3)ccc2CC1C(=O)NC1CCCc2ccccc21)C(C)(C)C

> <Shape>
0.228

> <Color>
0.071

> <Negative vol penalty>
0.000

$$$$

  -OEChem-04052305443D

 84 92  0     1  0  0  0  0  0999 V2000
  -17.8723  -25.5980   22.6977 C   0  0  0  0  0  0  0  0  0  0  0  0
  -19.1335  -25.3384   22.1710 C   0  0  0  0  0  0  0  0  0  0  0  0
  -28.4324  -13.2694   21.1357 C   0  0  0  0  0  0  0  0  0  0  0  0
  -29.1243  -14.4243   19.1296 C   0  0  0  0  0  0  0  0  0  0  0  0
  -17.4140  -26.9115   22.7912 C   0  0  0  0  0  0  0  0  0  0  0  0
  -19.9368  -26.3921   21.7365 C   0  0  0  0  0  0  0  0  0  0  0  0
  -26.0401  -26.7555   22.0869 C   0  0  0  0  0  0  0  0  0  0  0  0
  -28.4137  -12.0635   20.4351 C   0  0  0  0  0  0  0  0  0  0  0  0
  -29.1055  -13.2183   18.4289 C   0  0  0  0  0  0  0  0  0  0  0  0
  -27.0493  -26.5116   21.1564 C   0  0  0  0  0  0  0  0  0  0  0  0
  -28.5328   -8.6245   19.2627 C   0  0  0  0  0  0  0  0  0  0  0  0
  -29.1092   -7.5107   19.8732 C   0  0  0  0  0  0  0  0  0  0  0  0
  -27.1213  -28.8640   20.6269 C   0  0  0  0  0  0  0  0  0  0  0  0
  -31.2324   -8.6599   19.9650 C   0  0  0  0  0  0  0  0  0  0  0  0
  -26.7209  -22.2047   17.6388 C   0  0  0  0  0  0  0  0  0  0  0  0
  -28.7877  -14.4498   20.4830 C   0  0  0  0  0  0  0  0  0  0  0  0
  -29.8929  -16.2575   21.9037 C   0  0  0  0  0  0  0  0  0  0  0  0
  -18.2160  -27.9825   22.3666 C   0  0  0  0  0  0  0  0  0  0  0  0
  -25.5556  -28.0562   22.2870 C   0  0  0  0  0  0  0  0  0  0  0  0
  -19.4883  -27.7210   21.8232 C   0  0  0  0  0  0  0  0  0  0  0  0
  -26.1078  -29.1221   21.5624 C   0  0  0  0  0  0  0  0  0  0  0  0
  -28.7502  -12.0379   19.0817 C   0  0  0  0  0  0  0  0  0  0  0  0
  -27.5880  -27.5655   20.4242 C   0  0  0  0  0  0  0  0  0  0  0  0
  -29.3062   -9.7560   19.0032 C   0  0  0  0  0  0  0  0  0  0  0  0
  -30.4590   -7.5284   20.2244 C   0  0  0  0  0  0  0  0  0  0  0  0
  -30.6560   -9.7737   19.3544 C   0  0  0  0  0  0  0  0  0  0  0  0
  -28.8067  -15.6960   21.2061 C   0  0  0  0  0  0  0  0  0  0  0  0
  -26.0208  -24.2578   16.9150 C   0  0  0  0  0  0  0  0  0  0  0  0
  -25.8388  -22.2760   18.6944 C   0  0  0  0  0  0  0  0  0  0  0  0
  -25.1381  -24.3289   17.9701 C   0  0  0  0  0  0  0  0  0  0  0  0
  -29.4026  -17.4356   22.4118 C   0  0  0  0  0  0  0  0  0  0  0  0
  -31.2260  -15.7589   22.0769 C   0  0  0  0  0  0  0  0  0  0  0  0
  -22.7363  -29.4796   21.9278 C   0  0  0  0  0  0  0  0  0  0  0  0
  -24.2665  -31.9896   23.2991 C   0  0  0  0  0  0  0  0  0  0  0  0
  -27.2166  -33.5689   23.9697 C   0  0  0  0  0  0  0  0  0  0  0  0
  -24.9710  -21.0748   20.7317 C   0  0  0  0  0  0  0  0  0  0  0  0
  -17.6587  -29.3818   22.4437 C   0  0  0  0  0  0  0  0  0  0  0  0
  -24.4853  -28.3065   23.3137 C   0  0  0  0  0  0  0  0  0  0  0  0
  -25.6367  -30.5398   21.7544 C   0  0  0  0  0  0  0  0  0  0  0  0
  -18.7215  -30.4691   22.3077 C   0  0  0  0  0  0  0  0  0  0  0  0
  -25.3252  -19.4673   23.8889 C   0  0  0  0  0  0  0  0  0  0  0  0
  -19.6543  -30.1608   21.1407 C   0  0  0  0  0  0  0  0  0  0  0  0
  -26.3616  -18.3728   23.6241 C   0  0  0  0  0  0  0  0  0  0  0  0
  -24.3927  -19.6660   22.6953 C   0  0  0  0  0  0  0  0  0  0  0  0
  -26.1040  -18.8034   21.1472 C   0  0  0  0  0  0  0  0  0  0  0  0
  -20.3990  -28.8390   21.3641 C   0  0  1  0  0  0  0  0  0  0  0  0
  -23.7099  -29.5968   23.0662 C   0  0  1  0  0  0  0  0  0  0  0  0
  -27.1070  -18.6118   22.2965 C   0  0  2  0  0  0  0  0  0  0  0  0
  -28.1454  -35.6209   25.0759 C   0  0  0  0  0  0  0  0  0  0  0  0
  -23.3694  -33.6755   20.9195 C   0  0  0  0  0  0  0  0  0  0  0  0
  -25.0742  -35.3867   21.5781 C   0  0  0  0  0  0  0  0  0  0  0  0
  -23.2065  -34.8263   23.1339 C   0  0  0  0  0  0  0  0  0  0  0  0
  -28.7712  -31.9615   25.9083 C   0  0  0  0  0  0  0  0  0  0  0  0
  -26.1372  -25.3672   15.9005 C   0  0  0  0  0  0  0  0  0  0  0  0
  -26.9802  -26.5552   16.3767 C   0  0  0  0  0  0  0  0  0  0  0  0
  -29.2329  -27.4570   17.1935 C   0  0  0  0  0  0  0  0  0  0  0  0
  -28.6360  -28.2009   18.3860 C   0  0  0  0  0  0  0  0  0  1  0  0
  -25.0744  -33.1580   22.7880 C   0  0  1  0  0  0  0  0  0  0  0  0
  -27.7756  -34.1565   25.2529 C   0  0  2  0  0  0  0  0  0  0  0  0
  -28.4159  -26.2201   16.8094 C   0  0  2  0  0  0  0  0  0  0  0  0
  -24.1889  -34.2348   22.0996 C   0  0  0  0  0  0  0  0  0  0  0  0
  -26.8278  -23.1943   16.7301 N   0  0  0  0  0  0  0  0  0  0  0  0
  -27.7091  -16.4548   21.2638 N   0  0  0  0  0  0  0  0  0  0  0  0
  -25.0315  -23.3393   18.8790 N   0  0  0  0  0  0  0  0  0  0  0  0
  -28.1030  -17.5052   22.0038 N   0  0  0  0  0  0  0  0  0  0  0  0
  -24.5839  -30.7325   22.7653 N   0  0  0  0  0  0  0  0  0  0  0  0
  -25.1689  -19.8913   21.4740 N   0  0  0  0  0  0  0  0  0  0  0  0
  -24.3173  -25.4704   18.1089 N   0  0  0  0  0  0  0  0  0  0  0  0
  -29.9605  -18.4084   23.1633 N   0  0  0  0  0  0  0  0  0  0  0  0
  -31.5623  -14.5324   21.4878 N   0  0  0  0  0  0  0  0  0  0  0  0
  -25.7883  -21.1941   19.6081 N   0  0  0  0  0  0  0  0  0  0  0  0
  -21.4864  -29.0237   22.3011 N   0  0  0  0  0  0  0  0  0  0  0  0
  -25.8410  -33.6532   23.9261 N   0  0  0  0  0  0  0  0  0  0  0  0
  -28.9952  -33.4115   25.6755 N   0  3  0  0  0  0  0  0  0  0  0  0
  -32.0884  -16.3745   22.7483 O   0  0  0  0  0  0  0  0  0  0  0  0
  -23.0922  -29.7819   20.7948 O   0  0  0  0  0  0  0  0  0  0  0  0
  -23.3912  -32.1840   24.1462 O   0  0  0  0  0  0  0  0  0  0  0  0
  -27.9292  -33.0870   23.0919 O   0  0  0  0  0  0  0  0  0  0  0  0
  -24.1572  -21.9329   21.0831 O   0  0  0  0  0  0  0  0  0  0  0  0
  -29.0675  -25.5767   15.7114 O   0  0  0  0  0  0  0  0  0  0  0  0
  -28.7323  -10.8613   18.3977 O   0  0  0  0  0  0  0  0  0  0  0  0
  -28.5726  -27.3301   19.5148 O   0  0  0  0  0  0  0  0  0  1  0  0
  -31.0120   -6.4593   20.8121 F   0  0  0  0  0  0  0  0  0  0  0  0
  -31.4038  -10.8582   19.1088 F   0  0  0  0  0  0  0  0  0  0  0  0
  1  2  1  0  0  0  0
  1  5  2  0  0  0  0
  2  6  2  0  0  0  0
  3  8  2  0  0  0  0
  3 16  1  0  0  0  0
  4  9  1  0  0  0  0
  4 16  2  0  0  0  0
  5 18  1  0  0  0  0
  6 20  1  0  0  0  0
  7 10  2  0  0  0  0
  7 19  1  0  0  0  0
  8 22  1  0  0  0  0
  9 22  2  0  0  0  0
 10 23  1  0  0  0  0
 11 12  2  0  0  0  0
 11 24  1  0  0  0  0
 12 25  1  0  0  0  0
 13 21  1  0  0  0  0
 13 23  2  0  0  0  0
 14 25  2  0  0  0  0
 14 26  1  0  0  0  0
 15 29  1  0  0  0  0
 15 62  2  0  0  0  0
 16 27  1  0  0  0  0
 17 27  1  0  0  0  0
 17 31  2  0  0  0  0
 17 32  1  0  0  0  0
 18 20  2  0  0  0  0
 18 37  1  0  0  0  0
 19 21  2  0  0  0  0
 19 38  1  0  0  0  0
 20 46  1  0  0  0  0
 21 39  1  0  0  0  0
 22 81  1  0  0  0  0
 23 82  1  0  0  0  0
 24 26  2  0  0  0  0
 24 81  1  0  0  0  0
 25 83  1  0  0  0  0
 26 84  1  0  0  0  0
 27 63  2  0  0  0  0
 28 30  2  0  0  0  0
 28 54  1  0  0  0  0
 28 62  1  0  0  0  0
 29 64  2  0  0  0  0
 29 71  1  0  0  0  0
 30 64  1  0  0  0  0
 30 68  1  0  0  0  0
 31 65  1  0  0  0  0
 31 69  1  0  0  0  0
 32 70  1  0  0  0  0
 32 75  2  0  0  0  0
 33 47  1  0  0  0  0
 33 72  1  0  0  0  0
 33 76  2  0  0  0  0
 34 58  1  0  0  0  0
 34 66  1  0  0  0  0
 34 77  2  0  0  0  0
 35 59  1  0  0  0  0
 35 73  1  0  0  0  0
 35 78  2  0  0  0  0
 36 67  1  0  0  0  0
 36 71  1  0  0  0  0
 36 79  2  0  0  0  0
 37 40  1  0  0  0  0
 38 47  1  0  0  0  0
 39 66  1  0  0  0  0
 40 42  1  0  0  0  0
 41 43  1  0  0  0  0
 41 44  1  0  0  0  0
 42 46  1  0  0  0  0
 43 48  1  0  0  0  0
 44 67  1  0  0  0  0
 45 48  1  0  0  0  0
 45 67  1  0  0  0  0
 46 72  1  0  0  0  0
 47 66  1  0  0  0  0
 48 65  1  0  0  0  0
 49 59  1  0  0  0  0
 50 61  1  0  0  0  0
 51 61  1  0  0  0  0
 52 61  1  0  0  0  0
 53 74  1  0  0  0  0
 54 55  1  0  0  0  0
 55 60  1  0  0  0  0
 56 57  1  0  0  0  0
 56 60  1  0  0  0  0
 57 82  1  0  0  0  0
 58 61  1  0  0  0  0
 58 73  1  0  0  0  0
 59 74  1  0  0  0  0
 60 80  1  0  0  0  0
 63 65  1  0  0  0  0
M  CHG  1  74   1
M  ISO  4  36 100  57 101  71 100  82 101
M  END
> <Batch ID>
0198

> <Smiles>
CNC(C)C(=O)NC(C(=O)N1Cc2cc([101O:1][101CH2:1]CC(O)CCc3ncc([100NH:0][100C:0](=O)N4CCCC(n5nc(-c6ccc(Oc7ccc(F)cc7F)cc6)c(C(N)=O)c5N)C4)nc3N)ccc2CC1C(=O)NC1CCCc2ccccc21)C(C)(C)C

> <Shape>
0.233

> <Color>
0.078

> <Negative vol penalty>
0.000

$$$$

  -OEChem-04052305443D

 87 95  0     1  0  0  0  0  0999 V2000
  -31.9551  -32.9802   14.7287 C   0  0  0  0  0  0  0  0  0  0  0  0
  -32.4922  -31.9145   15.4437 C   0  0  0  0  0  0  0  0  0  0  0  0
  -23.0097   -9.8875   19.9731 C   0  0  0  0  0  0  0  0  0  0  0  0
  -23.7385   -9.9327   22.2761 C   0  0  0  0  0  0  0  0  0  0  0  0
  -31.2713  -32.7444   13.5367 C   0  0  0  0  0  0  0  0  0  0  0  0
  -32.3448  -30.6121   14.9676 C   0  0  0  0  0  0  0  0  0  0  0  0
  -36.3709  -26.0262   15.4836 C   0  0  0  0  0  0  0  0  0  0  0  0
  -22.2471   -8.7497   20.2368 C   0  0  0  0  0  0  0  0  0  0  0  0
  -22.9758   -8.7950   22.5399 C   0  0  0  0  0  0  0  0  0  0  0  0
  -36.4642  -24.9555   16.3716 C   0  0  0  0  0  0  0  0  0  0  0  0
  -23.2296   -5.4585   22.0561 C   0  0  0  0  0  0  0  0  0  0  0  0
  -23.8215   -4.4405   22.8037 C   0  0  0  0  0  0  0  0  0  0  0  0
  -35.3341  -23.5420   14.7766 C   0  0  0  0  0  0  0  0  0  0  0  0
  -22.0997   -4.6724   24.4826 C   0  0  0  0  0  0  0  0  0  0  0  0
  -29.8657  -17.7948   22.6774 C   0  0  0  0  0  0  0  0  0  0  0  0
  -23.7554  -10.4790   20.9928 C   0  0  0  0  0  0  0  0  0  0  0  0
  -24.1328  -12.9963   20.8248 C   0  0  0  0  0  0  0  0  0  0  0  0
  -31.1239  -31.4394   13.0409 C   0  0  0  0  0  0  0  0  0  0  0  0
  -35.7477  -25.8654   14.2377 C   0  0  0  0  0  0  0  0  0  0  0  0
  -31.6573  -30.3585   13.7686 C   0  0  0  0  0  0  0  0  0  0  0  0
  -35.2364  -24.6116   13.8736 C   0  0  0  0  0  0  0  0  0  0  0  0
  -22.2301   -8.2035   21.5202 C   0  0  0  0  0  0  0  0  0  0  0  0
  -35.9433  -23.7139   16.0194 C   0  0  0  0  0  0  0  0  0  0  0  0
  -22.0728   -6.0835   22.5217 C   0  0  0  0  0  0  0  0  0  0  0  0
  -23.2565   -4.0474   24.0169 C   0  0  0  0  0  0  0  0  0  0  0  0
  -21.5078   -5.6904   23.7349 C   0  0  0  0  0  0  0  0  0  0  0  0
  -24.5439  -11.6539   20.7209 C   0  0  0  0  0  0  0  0  0  0  0  0
  -30.5743  -16.9097   21.8922 C   0  0  0  0  0  0  0  0  0  0  0  0
  -25.2397  -13.7236   20.4611 C   0  0  0  0  0  0  0  0  0  0  0  0
  -32.0717  -18.5068   22.0222 C   0  0  0  0  0  0  0  0  0  0  0  0
  -22.8638  -13.5375   21.2153 C   0  0  0  0  0  0  0  0  0  0  0  0
  -33.2024  -27.1384   12.8218 C   0  0  0  0  0  0  0  0  0  0  0  0
  -34.6092  -22.1584   21.8843 C   0  0  0  0  0  0  0  0  0  0  0  0
  -34.2550  -25.4350   10.2698 C   0  0  0  0  0  0  0  0  0  0  0  0
  -36.0591  -22.7847    9.1004 C   0  0  0  0  0  0  0  0  0  0  0  0
  -30.7165  -14.7008   20.6893 C   0  0  0  0  0  0  0  0  0  0  0  0
  -30.3357  -31.2296   11.7722 C   0  0  0  0  0  0  0  0  0  0  0  0
  -35.6788  -27.0234   13.2803 C   0  0  0  0  0  0  0  0  0  0  0  0
  -34.5758  -24.3815   12.5397 C   0  0  0  0  0  0  0  0  0  0  0  0
  -30.5476  -29.8547   11.1438 C   0  0  0  0  0  0  0  0  0  0  0  0
  -29.6020  -12.2523   18.3570 C   0  0  0  0  0  0  0  0  0  0  0  0
  -30.4523  -28.7625   12.2044 C   0  0  0  0  0  0  0  0  0  0  0  0
  -28.1529  -11.9888   18.7726 C   0  0  0  0  0  0  0  0  0  0  0  0
  -30.5038  -12.4944   19.5661 C   0  0  0  0  0  0  0  0  0  0  0  0
  -28.5882  -13.2729   20.9054 C   0  0  0  0  0  0  0  0  0  0  0  0
  -31.5397  -28.9339   13.2720 C   0  0  1  0  0  0  0  0  0  0  0  0
  -34.5661  -26.8788   12.2467 C   0  0  1  0  0  0  0  0  0  0  0  0
  -27.6291  -13.0875   19.7181 C   0  0  2  0  0  0  0  0  0  0  0  0
  -36.0955  -23.3633   23.5351 C   0  0  0  0  0  0  0  0  0  0  0  0
  -36.7030  -21.6267    6.9692 C   0  0  0  0  0  0  0  0  0  0  0  0
  -33.1023  -22.6559   19.0496 C   0  0  0  0  0  0  0  0  0  0  0  0
  -31.4662  -24.2093   10.0961 C   0  0  0  0  0  0  0  0  0  0  0  0
  -32.4185  -22.4245    8.6210 C   0  0  0  0  0  0  0  0  0  0  0  0
  -32.4815  -24.8089    7.8906 C   0  0  0  0  0  0  0  0  0  0  0  0
  -38.9399  -23.2765    9.5673 C   0  0  0  0  0  0  0  0  0  0  0  0
  -33.3437  -19.2786   21.8289 C   0  0  0  0  0  0  0  0  0  0  0  0
  -36.0326  -22.4003   22.3627 C   0  0  0  0  0  0  0  0  0  0  0  0
  -34.8379  -21.0054   18.1861 C   0  0  0  0  0  0  0  0  0  0  0  0
  -35.0022  -21.6852   16.8286 C   0  0  0  0  0  0  0  0  0  1  0  0
  -34.4419  -21.2151   20.6964 C   0  0  2  0  0  0  0  0  0  0  0  0
  -34.0184  -24.0396    9.7448 C   0  0  1  0  0  0  0  0  0  0  0  0
  -37.0937  -22.6798    7.9944 C   0  0  2  0  0  0  0  0  0  0  0  0
  -34.4383  -21.9582   19.3392 C   0  0  2  0  0  0  0  0  0  0  0  0
  -32.6068  -23.8751    9.1141 C   0  0  0  0  0  0  0  0  0  0  0  0
  -25.8129  -11.5327   20.3222 N   0  0  0  0  0  0  0  0  0  0  0  0
  -31.8393  -17.3165   21.5151 N   0  0  0  0  0  0  0  0  0  0  0  0
  -26.2087  -12.8082   20.1723 N   0  0  0  0  0  0  0  0  0  0  0  0
  -34.5273  -25.5464   11.6407 N   0  0  0  0  0  0  0  0  0  0  0  0
  -29.9468  -13.5508   20.4139 N   0  0  0  0  0  0  0  0  0  0  0  0
  -25.4689  -15.0503   20.3632 N   0  0  0  0  0  0  0  0  0  0  0  0
  -21.8353  -12.6490   21.5575 N   0  0  0  0  0  0  0  0  0  0  0  0
  -30.0706  -15.6514   21.4791 N   0  0  0  0  0  0  0  0  0  0  0  0
  -32.8149  -28.4640   12.7745 N   0  0  0  0  0  0  0  0  0  0  0  0
  -35.1185  -23.7558    8.8295 N   0  0  0  0  0  0  0  0  0  0  0  0
  -38.4225  -22.3138    8.5611 N   0  3  0  0  0  0  0  0  0  0  0  0
  -33.2025  -20.4014   20.8677 N   0  3  0  0  0  0  0  0  0  0  0  0
  -22.6433  -14.7720   21.2437 O   0  0  0  0  0  0  0  0  0  0  0  0
  -32.5495  -26.2050   13.2737 O   0  0  0  0  0  0  0  0  0  0  0  0
  -33.6427  -22.7037   22.4183 O   0  0  0  0  0  0  0  0  0  0  0  0
  -34.2073  -26.3904    9.4909 O   0  0  0  0  0  0  0  0  0  0  0  0
  -36.0809  -22.0734   10.1025 O   0  0  0  0  0  0  0  0  0  0  0  0
  -31.8540  -14.8448   20.2339 O   0  0  0  0  0  0  0  0  0  0  0  0
  -21.4859   -7.0934   21.7779 O   0  0  0  0  0  0  0  0  0  0  0  0
  -36.0332  -22.6591   16.8913 O   0  0  0  0  0  0  0  0  0  1  0  0
  -23.8242   -3.0688   24.7340 F   0  0  0  0  0  0  0  0  0  0  0  0
  -20.3958   -6.2863   24.1868 F   0  0  0  0  0  0  0  0  0  0  0  0
  -30.8127  -19.1958   22.9632 S   0  0  0  0  0  0  0  0  0  0  0  0
  1  2  1  0  0  0  0
  1  5  2  0  0  0  0
  2  6  2  0  0  0  0
  3  8  2  0  0  0  0
  3 16  1  0  0  0  0
  4  9  1  0  0  0  0
  4 16  2  0  0  0  0
  5 18  1  0  0  0  0
  6 20  1  0  0  0  0
  7 10  2  0  0  0  0
  7 19  1  0  0  0  0
  8 22  1  0  0  0  0
  9 22  2  0  0  0  0
 10 23  1  0  0  0  0
 11 12  2  0  0  0  0
 11 24  1  0  0  0  0
 12 25  1  0  0  0  0
 13 21  1  0  0  0  0
 13 23  2  0  0  0  0
 14 25  2  0  0  0  0
 14 26  1  0  0  0  0
 15 28  2  0  0  0  0
 15 87  1  0  0  0  0
 16 27  1  0  0  0  0
 17 27  1  0  0  0  0
 17 29  2  0  0  0  0
 17 31  1  0  0  0  0
 18 20  2  0  0  0  0
 18 37  1  0  0  0  0
 19 21  2  0  0  0  0
 19 38  1  0  0  0  0
 20 46  1  0  0  0  0
 21 39  1  0  0  0  0
 22 83  1  0  0  0  0
 23 84  1  0  0  0  0
 24 26  2  0  0  0  0
 24 83  1  0  0  0  0
 25 85  1  0  0  0  0
 26 86  1  0  0  0  0
 27 65  2  0  0  0  0
 28 66  1  0  0  0  0
 28 72  1  0  0  0  0
 29 67  1  0  0  0  0
 29 70  1  0  0  0  0
 30 56  1  0  0  0  0
 30 66  2  0  0  0  0
 30 87  1  0  0  0  0
 31 71  1  0  0  0  0
 31 77  2  0  0  0  0
 32 47  1  0  0  0  0
 32 73  1  0  0  0  0
 32 78  2  0  0  0  0
 33 57  1  0  0  0  0
 33 60  1  0  0  0  0
 33 79  2  0  0  0  0
 34 61  1  0  0  0  0
 34 68  1  0  0  0  0
 34 80  2  0  0  0  0
 35 62  1  0  0  0  0
 35 74  1  0  0  0  0
 35 81  2  0  0  0  0
 36 69  1  0  0  0  0
 36 72  1  0  0  0  0
 36 82  2  0  0  0  0
 37 40  1  0  0  0  0
 38 47  1  0  0  0  0
 39 68  1  0  0  0  0
 40 42  1  0  0  0  0
 41 43  1  0  0  0  0
 41 44  1  0  0  0  0
 42 46  1  0  0  0  0
 43 48  1  0  0  0  0
 44 69  1  0  0  0  0
 45 48  1  0  0  0  0
 45 69  1  0  0  0  0
 46 73  1  0  0  0  0
 47 68  1  0  0  0  0
 48 67  1  0  0  0  0
 49 57  1  0  0  0  0
 50 62  1  0  0  0  0
 51 63  1  0  0  0  0
 52 64  1  0  0  0  0
 53 64  1  0  0  0  0
 54 64  1  0  0  0  0
 55 75  1  0  0  0  0
 56 76  1  0  0  0  0
 58 59  1  0  0  0  0
 58 63  1  0  0  0  0
 59 84  1  0  0  0  0
 60 63  1  0  0  0  0
 60 76  1  0  0  0  0
 61 64  1  0  0  0  0
 61 74  1  0  0  0  0
 62 75  1  0  0  0  0
 65 67  1  0  0  0  0
M  CHG  2  75   1  76   1
M  ISO  4  36 100  59 101  72 100  84 101
M  END
> <Batch ID>
0198

> <Smiles>
CCC(=O)C(NCc1nc([100NH:0][100C:0](=O)N2CCCC(n3nc(-c4ccc(Oc5ccc(F)cc5F)cc4)c(C(N)=O)c3N)C2)cs1)C(C)C[101CH2:1][101O:1]c1ccc2c(c1)CN(C(=O)C(NC(=O)C(C)NC)C(C)(C)C)C(C(=O)NC1CCCc3ccccc31)C2

> <Shape>
0.173

> <Color>
0.182

> <Negative vol penalty>
0.000

$$$$

  -OEChem-04052305443D

 86 94  0     1  0  0  0  0  0999 V2000
  -30.0097  -26.1143   13.7393 C   0  0  0  0  0  0  0  0  0  0  0  0
  -29.8603  -25.6435   15.0399 C   0  0  0  0  0  0  0  0  0  0  0  0
  -23.3725   -9.6257   20.0589 C   0  0  0  0  0  0  0  0  0  0  0  0
  -23.7312  -10.0715   22.4061 C   0  0  0  0  0  0  0  0  0  0  0  0
  -29.9788  -27.4853   13.4877 C   0  0  0  0  0  0  0  0  0  0  0  0
  -29.6811  -26.5435   16.0898 C   0  0  0  0  0  0  0  0  0  0  0  0
  -26.0071  -25.1142   19.2683 C   0  0  0  0  0  0  0  0  0  0  0  0
  -22.6753   -8.4628   20.3863 C   0  0  0  0  0  0  0  0  0  0  0  0
  -23.0340   -8.9086   22.7335 C   0  0  0  0  0  0  0  0  0  0  0  0
  -26.3150  -24.1132   20.1886 C   0  0  0  0  0  0  0  0  0  0  0  0
  -19.8106   -7.9181   22.9555 C   0  0  0  0  0  0  0  0  0  0  0  0
  -18.8708   -7.9954   23.9833 C   0  0  0  0  0  0  0  0  0  0  0  0
  -26.6321  -25.7883   21.8953 C   0  0  0  0  0  0  0  0  0  0  0  0
  -20.0955   -6.3263   25.2288 C   0  0  0  0  0  0  0  0  0  0  0  0
  -29.6796  -17.8750   23.6507 C   0  0  0  0  0  0  0  0  0  0  0  0
  -23.9006  -10.4300   21.0688 C   0  0  0  0  0  0  0  0  0  0  0  0
  -24.0893  -12.9241   20.5671 C   0  0  0  0  0  0  0  0  0  0  0  0
  -29.7895  -28.4021   14.5337 C   0  0  0  0  0  0  0  0  0  0  0  0
  -26.0199  -26.4627   19.6525 C   0  0  0  0  0  0  0  0  0  0  0  0
  -29.6490  -27.9281   15.8520 C   0  0  0  0  0  0  0  0  0  0  0  0
  -26.3214  -26.8043   20.9787 C   0  0  0  0  0  0  0  0  0  0  0  0
  -22.5060   -8.1043   21.7236 C   0  0  0  0  0  0  0  0  0  0  0  0
  -26.6305  -24.4503   21.5016 C   0  0  0  0  0  0  0  0  0  0  0  0
  -20.8929   -7.0448   23.0643 C   0  0  0  0  0  0  0  0  0  0  0  0
  -19.0133   -7.1996   25.1200 C   0  0  0  0  0  0  0  0  0  0  0  0
  -21.0353   -6.2490   24.2010 C   0  0  0  0  0  0  0  0  0  0  0  0
  -24.6214  -11.6311   20.7312 C   0  0  0  0  0  0  0  0  0  0  0  0
  -31.6261  -19.1769   22.3687 C   0  0  0  0  0  0  0  0  0  0  0  0
  -30.3229  -17.3087   22.5723 C   0  0  0  0  0  0  0  0  0  0  0  0
  -30.9822  -19.7434   23.4467 C   0  0  0  0  0  0  0  0  0  0  0  0
  -25.1750  -13.7048   20.2538 C   0  0  0  0  0  0  0  0  0  0  0  0
  -22.7349  -13.3787   20.6873 C   0  0  0  0  0  0  0  0  0  0  0  0
  -27.6824  -29.0278   18.7805 C   0  0  0  0  0  0  0  0  0  0  0  0
  -25.6187  -30.5576   20.7612 C   0  0  0  0  0  0  0  0  0  0  0  0
  -23.4888  -30.3826   23.4220 C   0  0  0  0  0  0  0  0  0  0  0  0
  -30.4512  -15.2737   21.0929 C   0  0  0  0  0  0  0  0  0  0  0  0
  -29.8105  -29.8770   14.2190 C   0  0  0  0  0  0  0  0  0  0  0  0
  -25.6593  -27.5288   18.6546 C   0  0  0  0  0  0  0  0  0  0  0  0
  -26.3293  -28.2358   21.4467 C   0  0  0  0  0  0  0  0  0  0  0  0
  -29.2415  -30.7466   15.3371 C   0  0  0  0  0  0  0  0  0  0  0  0
  -29.9163  -12.4176   19.0353 C   0  0  0  0  0  0  0  0  0  0  0  0
  -29.8103  -30.3204   16.6868 C   0  0  0  0  0  0  0  0  0  0  0  0
  -28.4473  -12.0647   19.2796 C   0  0  0  0  0  0  0  0  0  0  0  0
  -30.5977  -12.9210   20.3065 C   0  0  0  0  0  0  0  0  0  0  0  0
  -28.4406  -13.6751   21.2273 C   0  0  0  0  0  0  0  0  0  0  0  0
  -29.4278  -28.8719   17.0141 C   0  0  1  0  0  0  0  0  0  0  0  0
  -26.2052  -28.9041   19.0258 C   0  0  1  0  0  0  0  0  0  0  0  0
  -27.6948  -13.2247   19.9606 C   0  0  2  0  0  0  0  0  0  0  0  0
  -32.7156  -19.8890   21.6406 C   0  0  0  0  0  0  0  0  0  0  0  0
  -21.9762  -31.8050   24.8313 C   0  0  0  0  0  0  0  0  0  0  0  0
  -32.0938  -22.3110   26.3990 C   0  0  0  0  0  0  0  0  0  0  0  0
  -32.0794  -23.9359   24.4896 C   0  0  0  0  0  0  0  0  0  0  0  0
  -28.0498  -31.7226   22.1903 C   0  0  0  0  0  0  0  0  0  0  0  0
  -26.5494  -32.3281   24.1009 C   0  0  0  0  0  0  0  0  0  0  0  0
  -26.1680  -33.3343   21.8504 C   0  0  0  0  0  0  0  0  0  0  0  0
  -21.1050  -28.7989   22.6678 C   0  0  0  0  0  0  0  0  0  0  0  0
  -28.4157  -21.6520   22.9694 C   0  0  0  0  0  0  0  0  0  0  0  0
  -29.5423  -22.5885   23.4314 C   0  0  0  0  0  0  0  0  0  0  0  0
  -27.5427  -22.2895   21.8945 C   0  0  0  0  0  0  0  0  0  1  0  0
  -25.6030  -30.8996   22.2315 C   0  0  1  0  0  0  0  0  0  0  0  0
  -22.0738  -30.8973   23.6150 C   0  0  2  0  0  0  0  0  0  0  0  0
  -31.2231  -22.9856   25.3324 C   0  0  0  0  0  0  0  0  0  0  0  0
  -30.4401  -21.9393   24.5002 C   0  0  2  0  0  0  0  0  0  0  0  0
  -26.5944  -32.0442   22.5843 C   0  0  0  0  0  0  0  0  0  0  0  0
  -29.9977  -19.1026   24.1072 N   0  0  0  0  0  0  0  0  0  0  0  0
  -25.9423  -11.5887   20.5379 N   0  0  0  0  0  0  0  0  0  0  0  0
  -31.3078  -17.9494   21.9120 N   0  0  0  0  0  0  0  0  0  0  0  0
  -26.2494  -12.8647   20.2491 N   0  0  0  0  0  0  0  0  0  0  0  0
  -25.9761  -29.2424   20.4320 N   0  0  0  0  0  0  0  0  0  0  0  0
  -29.8311  -14.0220   20.8939 N   0  0  0  0  0  0  0  0  0  0  0  0
  -25.3059  -15.0212   19.9845 N   0  0  0  0  0  0  0  0  0  0  0  0
  -21.7431  -12.4444   21.0156 N   0  0  0  0  0  0  0  0  0  0  0  0
  -29.9288  -16.0138   22.1530 N   0  0  0  0  0  0  0  0  0  0  0  0
  -31.3534  -21.0061   23.8681 N   0  0  0  0  0  0  0  0  0  0  0  0
  -28.0559  -28.8020   17.4694 N   0  0  0  0  0  0  0  0  0  0  0  0
  -24.2132  -31.1879   22.5687 N   0  0  0  0  0  0  0  0  0  0  0  0
  -21.1295  -29.7594   23.8009 N   0  3  0  0  0  0  0  0  0  0  0  0
  -22.4112  -14.5749   20.4928 O   0  0  0  0  0  0  0  0  0  0  0  0
  -28.4281  -29.3088   19.7115 O   0  0  0  0  0  0  0  0  0  0  0  0
  -25.3178  -31.4233   19.9356 O   0  0  0  0  0  0  0  0  0  0  0  0
  -23.9106  -29.3697   23.9758 O   0  0  0  0  0  0  0  0  0  0  0  0
  -31.3591  -15.6721   20.3589 O   0  0  0  0  0  0  0  0  0  0  0  0
  -21.8255   -6.9697   22.0434 O   0  0  0  0  0  0  0  0  0  0  0  0
  -26.9321  -23.4753   22.4017 O   0  0  0  0  0  0  0  0  0  1  0  0
  -18.1115   -7.2751   26.1075 F   0  0  0  0  0  0  0  0  0  0  0  0
  -22.0736   -5.4090   24.3117 F   0  0  0  0  0  0  0  0  0  0  0  0
  1  2  1  0  0  0  0
  1  5  2  0  0  0  0
  2  6  2  0  0  0  0
  3  8  2  0  0  0  0
  3 16  1  0  0  0  0
  4  9  1  0  0  0  0
  4 16  2  0  0  0  0
  5 18  1  0  0  0  0
  6 20  1  0  0  0  0
  7 10  2  0  0  0  0
  7 19  1  0  0  0  0
  8 22  1  0  0  0  0
  9 22  2  0  0  0  0
 10 23  1  0  0  0  0
 11 12  2  0  0  0  0
 11 24  1  0  0  0  0
 12 25  1  0  0  0  0
 13 21  1  0  0  0  0
 13 23  2  0  0  0  0
 14 25  2  0  0  0  0
 14 26  1  0  0  0  0
 15 29  1  0  0  0  0
 15 65  2  0  0  0  0
 16 27  1  0  0  0  0
 17 27  1  0  0  0  0
 17 31  2  0  0  0  0
 17 32  1  0  0  0  0
 18 20  2  0  0  0  0
 18 37  1  0  0  0  0
 19 21  2  0  0  0  0
 19 38  1  0  0  0  0
 20 46  1  0  0  0  0
 21 39  1  0  0  0  0
 22 83  1  0  0  0  0
 23 84  1  0  0  0  0
 24 26  2  0  0  0  0
 24 83  1  0  0  0  0
 25 85  1  0  0  0  0
 26 86  1  0  0  0  0
 27 66  2  0  0  0  0
 28 30  2  0  0  0  0
 28 49  1  0  0  0  0
 28 67  1  0  0  0  0
 29 67  2  0  0  0  0
 29 73  1  0  0  0  0
 30 65  1  0  0  0  0
 30 74  1  0  0  0  0
 31 68  1  0  0  0  0
 31 71  1  0  0  0  0
 32 72  1  0  0  0  0
 32 78  2  0  0  0  0
 33 47  1  0  0  0  0
 33 75  1  0  0  0  0
 33 79  2  0  0  0  0
 34 60  1  0  0  0  0
 34 69  1  0  0  0  0
 34 80  2  0  0  0  0
 35 61  1  0  0  0  0
 35 76  1  0  0  0  0
 35 81  2  0  0  0  0
 36 70  1  0  0  0  0
 36 73  1  0  0  0  0
 36 82  2  0  0  0  0
 37 40  1  0  0  0  0
 38 47  1  0  0  0  0
 39 69  1  0  0  0  0
 40 42  1  0  0  0  0
 41 43  1  0  0  0  0
 41 44  1  0  0  0  0
 42 46  1  0  0  0  0
 43 48  1  0  0  0  0
 44 70  1  0  0  0  0
 45 48  1  0  0  0  0
 45 70  1  0  0  0  0
 46 75  1  0  0  0  0
 47 69  1  0  0  0  0
 48 68  1  0  0  0  0
 50 61  1  0  0  0  0
 51 62  1  0  0  0  0
 52 62  1  0  0  0  0
 53 64  1  0  0  0  0
 54 64  1  0  0  0  0
 55 64  1  0  0  0  0
 56 77  1  0  0  0  0
 57 58  1  0  0  0  0
 57 59  1  0  0  0  0
 58 63  1  0  0  0  0
 59 84  1  0  0  0  0
 60 64  1  0  0  0  0
 60 76  1  0  0  0  0
 61 77  1  0  0  0  0
 62 63  1  0  0  0  0
 63 74  1  0  0  0  0
 66 68  1  0  0  0  0
M  CHG  1  77   1
M  ISO  4  36 100  59 101  73 100  84 101
M  END
> <Batch ID>
0198

> <Smiles>
CNC(C)C(=O)NC(C(=O)N1Cc2cc([101O:1][101CH2:1]CCC(Nc3ncc([100NH:0][100C:0](=O)N4CCCC(n5nc(-c6ccc(Oc7ccc(F)cc7F)cc6)c(C(N)=O)c5N)C4)nc3C)C(C)C)ccc2CC1C(=O)NC1CCCc2ccccc21)C(C)(C)C

> <Shape>
0.267

> <Color>
0.178

> <Negative vol penalty>
0.000

$$$$

  -OEChem-04052305443D

 83 91  0     1  0  0  0  0  0999 V2000
  -16.6002  -29.5621   23.0070 C   0  0  0  0  0  0  0  0  0  0  0  0
  -17.7303  -29.9881   22.3164 C   0  0  0  0  0  0  0  0  0  0  0  0
  -26.3287  -12.8590   21.6137 C   0  0  0  0  0  0  0  0  0  0  0  0
  -25.7144  -13.8111   19.4799 C   0  0  0  0  0  0  0  0  0  0  0  0
  -16.7016  -28.5285   23.9372 C   0  0  0  0  0  0  0  0  0  0  0  0
  -18.9626  -29.3814   22.5564 C   0  0  0  0  0  0  0  0  0  0  0  0
  -25.0489  -27.5959   19.2269 C   0  0  0  0  0  0  0  0  0  0  0  0
  -25.0884  -12.2252   21.6880 C   0  0  0  0  0  0  0  0  0  0  0  0
  -24.4741  -13.1773   19.5541 C   0  0  0  0  0  0  0  0  0  0  0  0
  -26.4296  -27.7413   19.3554 C   0  0  0  0  0  0  0  0  0  0  0  0
  -22.2228  -10.0654   22.2696 C   0  0  0  0  0  0  0  0  0  0  0  0
  -22.2001   -8.7295   22.6700 C   0  0  0  0  0  0  0  0  0  0  0  0
  -26.4699  -25.9118   20.9271 C   0  0  0  0  0  0  0  0  0  0  0  0
  -23.5895   -8.1405   20.7832 C   0  0  0  0  0  0  0  0  0  0  0  0
  -28.4445  -21.2850   17.1955 C   0  0  0  0  0  0  0  0  0  0  0  0
  -26.6417  -13.6521   20.5097 C   0  0  0  0  0  0  0  0  0  0  0  0
  -29.1055  -13.7979   19.8645 C   0  0  0  0  0  0  0  0  0  0  0  0
  -17.9340  -27.9023   24.1817 C   0  0  0  0  0  0  0  0  0  0  0  0
  -24.3658  -26.6128   19.9571 C   0  0  0  0  0  0  0  0  0  0  0  0
  -19.0809  -28.3394   23.4917 C   0  0  0  0  0  0  0  0  0  0  0  0
  -25.0809  -25.7543   20.8042 C   0  0  0  0  0  0  0  0  0  0  0  0
  -24.1611  -12.3843   20.6582 C   0  0  0  0  0  0  0  0  0  0  0  0
  -27.1399  -26.9011   20.2078 C   0  0  0  0  0  0  0  0  0  0  0  0
  -22.9287  -10.4389   21.1260 C   0  0  0  0  0  0  0  0  0  0  0  0
  -22.8835   -7.7670   21.9269 C   0  0  0  0  0  0  0  0  0  0  0  0
  -23.6121   -9.4764   20.3828 C   0  0  0  0  0  0  0  0  0  0  0  0
  -27.9225  -14.3075   20.4326 C   0  0  0  0  0  0  0  0  0  0  0  0
  -29.0100  -21.5978   18.4120 C   0  0  0  0  0  0  0  0  0  0  0  0
  -28.8941  -23.3973   16.4434 C   0  0  0  0  0  0  0  0  0  0  0  0
  -29.4589  -23.7104   17.6602 C   0  0  0  0  0  0  0  0  0  0  0  0
  -30.0305  -14.7974   20.0432 C   0  0  0  0  0  0  0  0  0  0  0  0
  -29.3466  -12.5341   19.2317 C   0  0  0  0  0  0  0  0  0  0  0  0
  -22.0864  -26.6426   22.1723 C   0  0  0  0  0  0  0  0  0  0  0  0
  -22.2119  -23.4241   21.7876 C   0  0  0  0  0  0  0  0  0  0  0  0
  -24.0143  -20.6888   20.8305 C   0  0  0  0  0  0  0  0  0  0  0  0
  -29.5670  -20.7178   20.7058 C   0  0  0  0  0  0  0  0  0  0  0  0
  -18.0034  -26.8211   25.2309 C   0  0  0  0  0  0  0  0  0  0  0  0
  -22.8800  -26.4514   19.7871 C   0  0  0  0  0  0  0  0  0  0  0  0
  -24.3974  -24.6698   21.5948 C   0  0  0  0  0  0  0  0  0  0  0  0
  -19.2739  -25.9784   25.1541 C   0  0  0  0  0  0  0  0  0  0  0  0
  -31.0952  -18.4347   22.9707 C   0  0  0  0  0  0  0  0  0  0  0  0
  -20.4998  -26.8735   25.0028 C   0  0  0  0  0  0  0  0  0  0  0  0
  -30.5674  -17.0703   22.5213 C   0  0  0  0  0  0  0  0  0  0  0  0
  -30.0344  -19.5257   22.8355 C   0  0  0  0  0  0  0  0  0  0  0  0
  -28.8861  -18.2627   21.0591 C   0  0  0  0  0  0  0  0  0  0  0  0
  -20.4305  -27.6895   23.7063 C   0  0  1  0  0  0  0  0  0  0  0  0
  -22.2158  -25.7521   20.9691 C   0  0  1  0  0  0  0  0  0  0  0  0
  -29.9392  -17.1441   21.1158 C   0  0  2  0  0  0  0  0  0  0  0  0
  -23.8635  -18.1893   20.6660 C   0  0  0  0  0  0  0  0  0  0  0  0
  -32.0039  -24.8341   19.1797 C   0  0  0  0  0  0  0  0  0  0  0  0
  -22.6045  -23.2043   24.8055 C   0  0  0  0  0  0  0  0  0  0  0  0
  -23.3841  -20.8500   24.4624 C   0  0  0  0  0  0  0  0  0  0  0  0
  -21.0603  -21.4975   23.8273 C   0  0  0  0  0  0  0  0  0  0  0  0
  -24.3954  -20.7428   17.8961 C   0  0  0  0  0  0  0  0  0  0  0  0
  -30.5999  -26.9254   19.2011 C   0  0  0  0  0  0  0  0  0  0  0  0
  -29.2000  -27.5312   19.2004 C   0  0  0  0  0  0  0  0  0  1  0  0
  -22.9998  -22.3018   22.4190 C   0  0  1  0  0  0  0  0  0  0  0  0
  -23.6610  -19.5106   19.9409 C   0  0  2  0  0  0  0  0  0  0  0  0
  -30.5873  -25.3961   19.1130 C   0  0  1  0  0  0  0  0  0  0  0  0
  -22.5251  -21.9850   23.8653 C   0  0  0  0  0  0  0  0  0  0  0  0
  -28.3765  -22.1792   16.1893 N   0  0  0  0  0  0  0  0  0  0  0  0
  -28.0790  -15.5353   20.9348 N   0  0  0  0  0  0  0  0  0  0  0  0
  -29.5273  -22.8161   18.6662 N   0  0  0  0  0  0  0  0  0  0  0  0
  -29.3712  -15.8054   20.6829 N   0  0  0  0  0  0  0  0  0  0  0  0
  -22.9426  -24.5559   21.3993 N   0  0  0  0  0  0  0  0  0  0  0  0
  -29.4871  -19.5390   21.4771 N   0  0  0  0  0  0  0  0  0  0  0  0
  -28.8488  -24.3732   15.4218 N   0  0  0  0  0  0  0  0  0  0  0  0
  -31.3354  -14.9034   19.7141 N   0  0  0  0  0  0  0  0  0  0  0  0
  -28.2856  -11.6238   19.1318 N   0  0  0  0  0  0  0  0  0  0  0  0
  -29.0430  -20.6012   19.4188 N   0  0  0  0  0  0  0  0  0  0  0  0
  -29.9756  -24.9765   17.8694 N   0  0  0  0  0  0  0  0  0  0  0  0
  -20.7818  -26.8643   22.5705 N   0  0  0  0  0  0  0  0  0  0  0  0
  -22.9100  -21.1726   21.4997 N   0  0  0  0  0  0  0  0  0  0  0  0
  -24.5130  -19.5110   18.7181 N   0  3  0  0  0  0  0  0  0  0  0  0
  -30.4737  -12.2149   18.7833 O   0  0  0  0  0  0  0  0  0  0  0  0
  -23.0954  -27.0938   22.7014 O   0  0  0  0  0  0  0  0  0  0  0  0
  -20.9939  -23.2982   21.6378 O   0  0  0  0  0  0  0  0  0  0  0  0
  -25.1563  -21.1330   20.9253 O   0  0  0  0  0  0  0  0  0  0  0  0
  -30.0881  -21.7463   21.1446 O   0  0  0  0  0  0  0  0  0  0  0  0
  -22.9508  -11.7658   20.7302 O   0  0  0  0  0  0  0  0  0  0  0  0
  -28.4874  -27.0412   20.3355 O   0  0  0  0  0  0  0  0  0  1  0  0
  -22.8629   -6.4844   22.3123 F   0  0  0  0  0  0  0  0  0  0  0  0
  -24.2930   -9.8294   19.2839 F   0  0  0  0  0  0  0  0  0  0  0  0
  1  2  1  0  0  0  0
  1  5  2  0  0  0  0
  2  6  2  0  0  0  0
  3  8  2  0  0  0  0
  3 16  1  0  0  0  0
  4  9  1  0  0  0  0
  4 16  2  0  0  0  0
  5 18  1  0  0  0  0
  6 20  1  0  0  0  0
  7 10  2  0  0  0  0
  7 19  1  0  0  0  0
  8 22  1  0  0  0  0
  9 22  2  0  0  0  0
 10 23  1  0  0  0  0
 11 12  2  0  0  0  0
 11 24  1  0  0  0  0
 12 25  1  0  0  0  0
 13 21  1  0  0  0  0
 13 23  2  0  0  0  0
 14 25  2  0  0  0  0
 14 26  1  0  0  0  0
 15 28  1  0  0  0  0
 15 61  2  0  0  0  0
 16 27  1  0  0  0  0
 17 27  1  0  0  0  0
 17 31  2  0  0  0  0
 17 32  1  0  0  0  0
 18 20  2  0  0  0  0
 18 37  1  0  0  0  0
 19 21  2  0  0  0  0
 19 38  1  0  0  0  0
 20 46  1  0  0  0  0
 21 39  1  0  0  0  0
 22 80  1  0  0  0  0
 23 81  1  0  0  0  0
 24 26  2  0  0  0  0
 24 80  1  0  0  0  0
 25 82  1  0  0  0  0
 26 83  1  0  0  0  0
 27 62  2  0  0  0  0
 28 63  2  0  0  0  0
 28 70  1  0  0  0  0
 29 30  2  0  0  0  0
 29 61  1  0  0  0  0
 29 67  1  0  0  0  0
 30 63  1  0  0  0  0
 30 71  1  0  0  0  0
 31 64  1  0  0  0  0
 31 68  1  0  0  0  0
 32 69  1  0  0  0  0
 32 75  2  0  0  0  0
 33 47  1  0  0  0  0
 33 72  1  0  0  0  0
 33 76  2  0  0  0  0
 34 57  1  0  0  0  0
 34 65  1  0  0  0  0
 34 77  2  0  0  0  0
 35 58  1  0  0  0  0
 35 73  1  0  0  0  0
 35 78  2  0  0  0  0
 36 66  1  0  0  0  0
 36 70  1  0  0  0  0
 36 79  2  0  0  0  0
 37 40  1  0  0  0  0
 38 47  1  0  0  0  0
 39 65  1  0  0  0  0
 40 42  1  0  0  0  0
 41 43  1  0  0  0  0
 41 44  1  0  0  0  0
 42 46  1  0  0  0  0
 43 48  1  0  0  0  0
 44 66  1  0  0  0  0
 45 48  1  0  0  0  0
 45 66  1  0  0  0  0
 46 72  1  0  0  0  0
 47 65  1  0  0  0  0
 48 64  1  0  0  0  0
 49 58  1  0  0  0  0
 50 59  1  0  0  0  0
 51 60  1  0  0  0  0
 52 60  1  0  0  0  0
 53 60  1  0  0  0  0
 54 74  1  0  0  0  0
 55 56  1  0  0  0  0
 55 59  1  0  0  0  0
 56 81  1  0  0  0  0
 57 60  1  0  0  0  0
 57 73  1  0  0  0  0
 58 74  1  0  0  0  0
 59 71  1  0  0  0  0
 62 64  1  0  0  0  0
M  CHG  1  74   1
M  ISO  4  36 100  56 101  70 100  81 101
M  END
> <Batch ID>
0198

> <Smiles>
CNC(C)C(=O)NC(C(=O)N1Cc2cc([101O:1][101CH2:1]CC(C)Nc3nc([100NH:0][100C:0](=O)N4CCCC(n5nc(-c6ccc(Oc7ccc(F)cc7F)cc6)c(C(N)=O)c5N)C4)cnc3N)ccc2CC1C(=O)NC1CCCc2ccccc21)C(C)(C)C

> <Shape>
0.278

> <Color>
0.089

> <Negative vol penalty>
0.000

$$$$

  -OEChem-04052305443D

 85 93  0     1  0  0  0  0  0999 V2000
  -22.5299  -29.2105   23.1406 C   0  0  0  0  0  0  0  0  0  0  0  0
  -23.0557  -27.9270   23.2486 C   0  0  0  0  0  0  0  0  0  0  0  0
  -27.8906  -23.6272   20.8287 C   0  0  0  0  0  0  0  0  0  0  0  0
  -29.3956  -23.5328   18.9411 C   0  0  0  0  0  0  0  0  0  0  0  0
  -21.1742  -29.3864   22.8664 C   0  0  0  0  0  0  0  0  0  0  0  0
  -22.2258  -26.8187   23.0837 C   0  0  0  0  0  0  0  0  0  0  0  0
  -22.3186  -20.0919   20.6223 C   0  0  0  0  0  0  0  0  0  0  0  0
  -27.3002  -24.7753   20.3007 C   0  0  0  0  0  0  0  0  0  0  0  0
  -28.8052  -24.6810   18.4130 C   0  0  0  0  0  0  0  0  0  0  0  0
  -21.9900  -18.7958   21.0173 C   0  0  0  0  0  0  0  0  0  0  0  0
  -25.0499  -25.5381   17.8950 C   0  0  0  0  0  0  0  0  0  0  0  0
  -23.6570  -25.6101   17.8967 C   0  0  0  0  0  0  0  0  0  0  0  0
  -19.6798  -19.2207   20.4682 C   0  0  0  0  0  0  0  0  0  0  0  0
  -23.7613  -27.5959   19.2689 C   0  0  0  0  0  0  0  0  0  0  0  0
  -25.4130  -15.3432   21.3121 C   0  0  0  0  0  0  0  0  0  0  0  0
  -28.9383  -23.0059   20.1489 C   0  0  0  0  0  0  0  0  0  0  0  0
  -30.1992  -21.6932   21.9363 C   0  0  0  0  0  0  0  0  0  0  0  0
  -20.3292  -28.2797   22.6884 C   0  0  0  0  0  0  0  0  0  0  0  0
  -21.3269  -20.9671   20.1568 C   0  0  0  0  0  0  0  0  0  0  0  0
  -20.8573  -26.9799   22.8082 C   0  0  0  0  0  0  0  0  0  0  0  0
  -19.9988  -20.5265   20.0655 C   0  0  0  0  0  0  0  0  0  0  0  0
  -27.7575  -25.3022   19.0928 C   0  0  0  0  0  0  0  0  0  0  0  0
  -20.6700  -18.3610   20.9430 C   0  0  0  0  0  0  0  0  0  0  0  0
  -25.7986  -26.4949   18.5804 C   0  0  0  0  0  0  0  0  0  0  0  0
  -23.0126  -26.6390   18.5836 C   0  0  0  0  0  0  0  0  0  0  0  0
  -25.1543  -27.5238   19.2673 C   0  0  0  0  0  0  0  0  0  0  0  0
  -29.5489  -21.8202   20.6942 C   0  0  0  0  0  0  0  0  0  0  0  0
  -24.5081  -13.2499   21.4812 C   0  0  0  0  0  0  0  0  0  0  0  0
  -26.4543  -14.8330   20.5685 C   0  0  0  0  0  0  0  0  0  0  0  0
  -25.5490  -12.7397   20.7370 C   0  0  0  0  0  0  0  0  0  0  0  0
  -30.5993  -20.3801   21.9817 C   0  0  0  0  0  0  0  0  0  0  0  0
  -30.4215  -22.6744   22.9578 C   0  0  0  0  0  0  0  0  0  0  0  0
  -20.1664  -23.7625   21.1278 C   0  0  0  0  0  0  0  0  0  0  0  0
  -18.5089  -23.5999   18.3442 C   0  0  0  0  0  0  0  0  0  0  0  0
  -17.1950  -21.6587   15.8637 C   0  0  0  0  0  0  0  0  0  0  0  0
  -28.5857  -15.4057   19.3537 C   0  0  0  0  0  0  0  0  0  0  0  0
  -18.8611  -28.5197   22.4404 C   0  0  0  0  0  0  0  0  0  0  0  0
  -21.7020  -22.3533   19.7093 C   0  0  0  0  0  0  0  0  0  0  0  0
  -18.9001  -21.4205   19.5536 C   0  0  0  0  0  0  0  0  0  0  0  0
  -18.1247  -27.2929   21.9083 C   0  0  0  0  0  0  0  0  0  0  0  0
  -31.8736  -16.7528   19.1263 C   0  0  0  0  0  0  0  0  0  0  0  0
  -18.4946  -26.0549   22.7190 C   0  0  0  0  0  0  0  0  0  0  0  0
  -31.7110  -18.1917   19.6214 C   0  0  0  0  0  0  0  0  0  0  0  0
  -30.6631  -16.2912   18.3168 C   0  0  0  0  0  0  0  0  0  0  0  0
  -29.2046  -17.8990   19.4818 C   0  0  0  0  0  0  0  0  0  0  0  0
  -19.9941  -25.7526   22.6112 C   0  0  1  0  0  0  0  0  0  0  0  0
  -20.5285  -23.3278   19.7359 C   0  0  1  0  0  0  0  0  0  0  0  0
  -30.3707  -18.3864   20.3571 C   0  0  2  0  0  0  0  0  0  0  0  0
  -23.6881  -11.8264   23.4032 C   0  0  0  0  0  0  0  0  0  0  0  0
  -16.0612  -21.1039   13.6949 C   0  0  0  0  0  0  0  0  0  0  0  0
  -20.9866  -12.4440   19.9591 C   0  0  0  0  0  0  0  0  0  0  0  0
  -15.9695  -24.0481   19.9753 C   0  0  0  0  0  0  0  0  0  0  0  0
  -14.6466  -23.2506   18.0050 C   0  0  0  0  0  0  0  0  0  0  0  0
  -16.0548  -25.3006   17.8123 C   0  0  0  0  0  0  0  0  0  0  0  0
  -19.7521  -21.7287   14.3753 C   0  0  0  0  0  0  0  0  0  0  0  0
  -20.6613  -14.7513   20.9343 C   0  0  0  0  0  0  0  0  0  0  0  0
  -21.3477  -16.0925   21.1685 C   0  0  0  0  0  0  0  0  0  1  0  0
  -23.3979  -12.3690   22.0061 C   0  0  1  0  0  0  0  0  0  0  0  0
  -17.1722  -23.0357   17.9272 C   0  0  1  0  0  0  0  0  0  0  0  0
  -17.2550  -21.7794   14.3517 C   0  0  2  0  0  0  0  0  0  0  0  0
  -21.6347  -13.5895   20.7253 C   0  0  1  0  0  0  0  0  0  0  0  0
  -15.9809  -23.8923   18.4415 C   0  0  0  0  0  0  0  0  0  0  0  0
  -24.4212  -14.5608   21.7818 N   0  0  0  0  0  0  0  0  0  0  0  0
  -29.5347  -20.6789   20.0005 N   0  0  0  0  0  0  0  0  0  0  0  0
  -26.5410  -13.5221   20.2676 N   0  0  0  0  0  0  0  0  0  0  0  0
  -30.1810  -19.8222   20.8095 N   0  0  0  0  0  0  0  0  0  0  0  0
  -19.3161  -22.7690   19.1341 N   0  0  0  0  0  0  0  0  0  0  0  0
  -29.4301  -16.5021   19.0785 N   0  0  0  0  0  0  0  0  0  0  0  0
  -25.5830  -11.3559   20.4540 N   0  0  0  0  0  0  0  0  0  0  0  0
  -31.2647  -19.6598   22.9095 N   0  0  0  0  0  0  0  0  0  0  0  0
  -31.5946  -23.4395   22.9053 N   0  0  0  0  0  0  0  0  0  0  0  0
  -27.4595  -15.7217   20.1130 N   0  0  0  0  0  0  0  0  0  0  0  0
  -20.2926  -25.1215   21.3435 N   0  0  0  0  0  0  0  0  0  0  0  0
  -17.2237  -22.8938   16.4762 N   0  0  0  0  0  0  0  0  0  0  0  0
  -18.4991  -21.1456   13.8304 N   0  3  0  0  0  0  0  0  0  0  0  0
  -22.0846  -13.0631   22.0441 N   0  3  0  0  0  0  0  0  0  0  0  0
  -29.6119  -22.8558   23.8986 O   0  0  0  0  0  0  0  0  0  0  0  0
  -19.7983  -22.9270   21.9452 O   0  0  0  0  0  0  0  0  0  0  0  0
  -18.8282  -24.7332   17.9764 O   0  0  0  0  0  0  0  0  0  0  0  0
  -17.1257  -20.5772   16.4435 O   0  0  0  0  0  0  0  0  0  0  0  0
  -28.8565  -14.2653   18.9689 O   0  0  0  0  0  0  0  0  0  0  0  0
  -27.1815  -26.4224   18.5772 O   0  0  0  0  0  0  0  0  0  0  0  0
  -20.3464  -17.0967   21.3285 O   0  0  0  0  0  0  0  0  0  1  0  0
  -21.6750  -26.7089   18.5838 F   0  0  0  0  0  0  0  0  0  0  0  0
  -25.8682  -28.4466   19.9265 F   0  0  0  0  0  0  0  0  0  0  0  0
  1  2  1  0  0  0  0
  1  5  2  0  0  0  0
  2  6  2  0  0  0  0
  3  8  2  0  0  0  0
  3 16  1  0  0  0  0
  4  9  1  0  0  0  0
  4 16  2  0  0  0  0
  5 18  1  0  0  0  0
  6 20  1  0  0  0  0
  7 10  2  0  0  0  0
  7 19  1  0  0  0  0
  8 22  1  0  0  0  0
  9 22  2  0  0  0  0
 10 23  1  0  0  0  0
 11 12  2  0  0  0  0
 11 24  1  0  0  0  0
 12 25  1  0  0  0  0
 13 21  1  0  0  0  0
 13 23  2  0  0  0  0
 14 25  2  0  0  0  0
 14 26  1  0  0  0  0
 15 29  1  0  0  0  0
 15 63  2  0  0  0  0
 16 27  1  0  0  0  0
 17 27  1  0  0  0  0
 17 31  2  0  0  0  0
 17 32  1  0  0  0  0
 18 20  2  0  0  0  0
 18 37  1  0  0  0  0
 19 21  2  0  0  0  0
 19 38  1  0  0  0  0
 20 46  1  0  0  0  0
 21 39  1  0  0  0  0
 22 82  1  0  0  0  0
 23 83  1  0  0  0  0
 24 26  2  0  0  0  0
 24 82  1  0  0  0  0
 25 84  1  0  0  0  0
 26 85  1  0  0  0  0
 27 64  2  0  0  0  0
 28 30  2  0  0  0  0
 28 58  1  0  0  0  0
 28 63  1  0  0  0  0
 29 65  2  0  0  0  0
 29 72  1  0  0  0  0
 30 65  1  0  0  0  0
 30 69  1  0  0  0  0
 31 66  1  0  0  0  0
 31 70  1  0  0  0  0
 32 71  1  0  0  0  0
 32 77  2  0  0  0  0
 33 47  1  0  0  0  0
 33 73  1  0  0  0  0
 33 78  2  0  0  0  0
 34 59  1  0  0  0  0
 34 67  1  0  0  0  0
 34 79  2  0  0  0  0
 35 60  1  0  0  0  0
 35 74  1  0  0  0  0
 35 80  2  0  0  0  0
 36 68  1  0  0  0  0
 36 72  1  0  0  0  0
 36 81  2  0  0  0  0
 37 40  1  0  0  0  0
 38 47  1  0  0  0  0
 39 67  1  0  0  0  0
 40 42  1  0  0  0  0
 41 43  1  0  0  0  0
 41 44  1  0  0  0  0
 42 46  1  0  0  0  0
 43 48  1  0  0  0  0
 44 68  1  0  0  0  0
 45 48  1  0  0  0  0
 45 68  1  0  0  0  0
 46 73  1  0  0  0  0
 47 67  1  0  0  0  0
 48 66  1  0  0  0  0
 49 58  1  0  0  0  0
 50 60  1  0  0  0  0
 51 61  1  0  0  0  0
 52 62  1  0  0  0  0
 53 62  1  0  0  0  0
 54 62  1  0  0  0  0
 55 75  1  0  0  0  0
 56 57  1  0  0  0  0
 56 61  1  0  0  0  0
 57 83  1  0  0  0  0
 58 76  1  0  0  0  0
 59 62  1  0  0  0  0
 59 74  1  0  0  0  0
 60 75  1  0  0  0  0
 61 76  1  0  0  0  0
 64 66  1  0  0  0  0
M  CHG  2  75   1  76   1
M  ISO  4  36 100  57 101  72 100  83 101
M  END
> <Batch ID>
0198

> <Smiles>
CNC(C)C(=O)NC(C(=O)N1Cc2cc([101O:1][101CH2:1]CC(C)NC(C)c3ncc([100NH:0][100C:0](=O)N4CCCC(n5nc(-c6ccc(Oc7ccc(F)cc7F)cc6)c(C(N)=O)c5N)C4)nc3N)ccc2CC1C(=O)NC1CCCc2ccccc21)C(C)(C)C

> <Shape>
0.197

> <Color>
0.065

> <Negative vol penalty>
0.000

$$$$

  -OEChem-04052305443D

 82 90  0     1  0  0  0  0  0999 V2000
  -18.5885  -29.0605   22.5201 C   0  0  0  0  0  0  0  0  0  0  0  0
  -19.9695  -29.1774   22.6410 C   0  0  0  0  0  0  0  0  0  0  0  0
  -28.4594  -13.7418   22.2376 C   0  0  0  0  0  0  0  0  0  0  0  0
  -26.7523  -15.2440   21.4212 C   0  0  0  0  0  0  0  0  0  0  0  0
  -18.0020  -27.7987   22.4315 C   0  0  0  0  0  0  0  0  0  0  0  0
  -20.7647  -28.0325   22.6744 C   0  0  0  0  0  0  0  0  0  0  0  0
  -24.8668  -28.4299   19.7316 C   0  0  0  0  0  0  0  0  0  0  0  0
  -27.7646  -12.6592   21.6983 C   0  0  0  0  0  0  0  0  0  0  0  0
  -26.0576  -14.1613   20.8818 C   0  0  0  0  0  0  0  0  0  0  0  0
  -25.9349  -29.1774   20.2256 C   0  0  0  0  0  0  0  0  0  0  0  0
  -23.6514  -11.7568   19.6018 C   0  0  0  0  0  0  0  0  0  0  0  0
  -22.2722  -11.7060   19.8037 C   0  0  0  0  0  0  0  0  0  0  0  0
  -27.0525  -27.1405   20.8745 C   0  0  0  0  0  0  0  0  0  0  0  0
  -22.6235  -11.6645   22.1936 C   0  0  0  0  0  0  0  0  0  0  0  0
  -30.0694  -25.6736   26.1309 C   0  0  0  0  0  0  0  0  0  0  0  0
  -27.9531  -15.0342   22.0991 C   0  0  0  0  0  0  0  0  0  0  0  0
  -29.6574  -16.9309   22.0228 C   0  0  0  0  0  0  0  0  0  0  0  0
  -18.7913  -26.6380   22.4541 C   0  0  0  0  0  0  0  0  0  0  0  0
  -24.8787  -27.0301   19.8153 C   0  0  0  0  0  0  0  0  0  0  0  0
  -20.1882  -26.7540   22.5874 C   0  0  0  0  0  0  0  0  0  0  0  0
  -25.9845  -26.3774   20.3784 C   0  0  0  0  0  0  0  0  0  0  0  0
  -26.5638  -12.8689   21.0204 C   0  0  0  0  0  0  0  0  0  0  0  0
  -27.0267  -28.5329   20.7998 C   0  0  0  0  0  0  0  0  0  0  0  0
  -24.5167  -11.7615   20.6958 C   0  0  0  0  0  0  0  0  0  0  0  0
  -21.7582  -11.6599   21.0996 C   0  0  0  0  0  0  0  0  0  0  0  0
  -24.0028  -11.7153   21.9917 C   0  0  0  0  0  0  0  0  0  0  0  0
  -28.6700  -16.1529   22.6565 C   0  0  0  0  0  0  0  0  0  0  0  0
  -30.0216  -17.8593   22.9671 C   0  0  0  0  0  0  0  0  0  0  0  0
  -30.2421  -25.7067   24.7629 C   0  0  0  0  0  0  0  0  0  0  0  0
  -29.4913  -23.6076   25.6753 C   0  0  0  0  0  0  0  0  0  0  0  0
  -30.1971  -16.8239   20.6988 C   0  0  0  0  0  0  0  0  0  0  0  0
  -23.0618  -24.8534   21.2520 C   0  0  0  0  0  0  0  0  0  0  0  0
  -24.9472  -22.7737   19.6264 C   0  0  0  0  0  0  0  0  0  0  0  0
  -31.0211  -28.0368   24.2095 C   0  0  0  0  0  0  0  0  0  0  0  0
  -27.9296  -22.1646   18.0834 C   0  0  0  0  0  0  0  0  0  0  0  0
  -28.7149  -21.5585   26.9183 C   0  0  0  0  0  0  0  0  0  0  0  0
  -18.1081  -25.2944   22.4029 C   0  0  0  0  0  0  0  0  0  0  0  0
  -23.7308  -26.2370   19.2535 C   0  0  0  0  0  0  0  0  0  0  0  0
  -26.0552  -24.8759   20.4739 C   0  0  0  0  0  0  0  0  0  0  0  0
  -19.0530  -24.1430   22.0687 C   0  0  0  0  0  0  0  0  0  0  0  0
  -28.9272  -18.1429   27.9011 C   0  0  0  0  0  0  0  0  0  0  0  0
  -20.3268  -24.2386   22.9025 C   0  0  0  0  0  0  0  0  0  0  0  0
  -28.9604  -17.3847   26.5721 C   0  0  0  0  0  0  0  0  0  0  0  0
  -28.0069  -19.3606   27.8364 C   0  0  0  0  0  0  0  0  0  0  0  0
  -28.3083  -19.5249   25.3969 C   0  0  0  0  0  0  0  0  0  0  0  0
  -21.0866  -25.5363   22.6023 C   0  0  1  0  0  0  0  0  0  0  0  0
  -23.6180  -24.8401   19.8563 C   0  0  1  0  0  0  0  0  0  0  0  0
  -29.2723  -18.3273   25.3932 C   0  0  2  0  0  0  0  0  0  0  0  0
  -29.1936  -20.3602   16.8818 C   0  0  0  0  0  0  0  0  0  0  0  0
  -25.5160  -21.4008   22.2913 C   0  0  0  0  0  0  0  0  0  0  0  0
  -27.4627  -20.2586   21.2079 C   0  0  0  0  0  0  0  0  0  0  0  0
  -25.1501  -19.8407   20.3713 C   0  0  0  0  0  0  0  0  0  0  0  0
  -28.0979  -23.7726   15.6045 C   0  0  0  0  0  0  0  0  0  0  0  0
  -31.4075  -28.8133   22.9583 C   0  0  0  0  0  0  0  0  0  0  0  0
  -30.2197  -29.5222   22.3167 C   0  0  0  0  0  0  0  0  0  0  0  0
  -29.1562  -28.5349   21.8586 C   0  0  0  0  0  0  0  0  0  1  0  0
  -26.2519  -22.0686   19.9084 C   0  0  1  0  0  0  0  0  0  0  0  0
  -28.2591  -21.5510   16.7346 C   0  0  2  0  0  0  0  0  0  0  0  0
  -26.0933  -20.9206   20.9448 C   0  0  0  0  0  0  0  0  0  0  0  0
  -29.6385  -24.4708   26.6558 N   0  0  0  0  0  0  0  0  0  0  0  0
  -28.4228  -16.5523   23.9069 N   0  0  0  0  0  0  0  0  0  0  0  0
  -29.2601  -17.5912   24.0665 N   0  0  0  0  0  0  0  0  0  0  0  0
  -24.9054  -24.1448   19.9163 N   0  0  0  0  0  0  0  0  0  0  0  0
  -28.3643  -20.2097   26.6979 N   0  0  0  0  0  0  0  0  0  0  0  0
  -30.9158  -18.8706   22.9562 N   0  0  0  0  0  0  0  0  0  0  0  0
  -29.7105  -15.8131   19.8586 N   0  0  0  0  0  0  0  0  0  0  0  0
  -30.6607  -26.7326   23.8825 N   0  0  0  0  0  0  0  0  0  0  0  0
  -29.0673  -22.2585   25.7649 N   0  0  0  0  0  0  0  0  0  0  0  0
  -21.8066  -25.4227   21.3520 N   0  0  0  0  0  0  0  0  0  0  0  0
  -26.7712  -21.6383   18.6148 N   0  0  0  0  0  0  0  0  0  0  0  0
  -28.9160  -22.5579   15.8540 N   0  3  0  0  0  0  0  0  0  0  0  0
  -31.0962  -17.5913   20.2790 O   0  0  0  0  0  0  0  0  0  0  0  0
  -23.7218  -24.3807   22.1700 O   0  0  0  0  0  0  0  0  0  0  0  0
  -24.0022  -22.1330   19.1593 O   0  0  0  0  0  0  0  0  0  0  0  0
  -31.0441  -28.5461   25.3250 O   0  0  0  0  0  0  0  0  0  0  0  0
  -28.6318  -23.0223   18.6144 O   0  0  0  0  0  0  0  0  0  0  0  0
  -28.7297  -22.0486   28.0504 O   0  0  0  0  0  0  0  0  0  0  0  0
  -25.8857  -11.8128   20.4937 O   0  0  0  0  0  0  0  0  0  0  0  0
  -28.0702  -29.2603   21.2834 O   0  0  0  0  0  0  0  0  0  1  0  0
  -20.4337  -11.6126   21.2933 F   0  0  0  0  0  0  0  0  0  0  0  0
  -24.8291  -11.7207   23.0467 F   0  0  0  0  0  0  0  0  0  0  0  0
  -29.8540  -24.1747   24.0968 S   0  0  0  0  0  0  0  0  0  0  0  0
  1  2  1  0  0  0  0
  1  5  2  0  0  0  0
  2  6  2  0  0  0  0
  3  8  2  0  0  0  0
  3 16  1  0  0  0  0
  4  9  1  0  0  0  0
  4 16  2  0  0  0  0
  5 18  1  0  0  0  0
  6 20  1  0  0  0  0
  7 10  2  0  0  0  0
  7 19  1  0  0  0  0
  8 22  1  0  0  0  0
  9 22  2  0  0  0  0
 10 23  1  0  0  0  0
 11 12  2  0  0  0  0
 11 24  1  0  0  0  0
 12 25  1  0  0  0  0
 13 21  1  0  0  0  0
 13 23  2  0  0  0  0
 14 25  2  0  0  0  0
 14 26  1  0  0  0  0
 15 29  2  0  0  0  0
 15 60  1  0  0  0  0
 16 27  1  0  0  0  0
 17 27  1  0  0  0  0
 17 28  2  0  0  0  0
 17 31  1  0  0  0  0
 18 20  2  0  0  0  0
 18 37  1  0  0  0  0
 19 21  2  0  0  0  0
 19 38  1  0  0  0  0
 20 46  1  0  0  0  0
 21 39  1  0  0  0  0
 22 78  1  0  0  0  0
 23 79  1  0  0  0  0
 24 26  2  0  0  0  0
 24 78  1  0  0  0  0
 25 80  1  0  0  0  0
 26 81  1  0  0  0  0
 27 61  2  0  0  0  0
 28 62  1  0  0  0  0
 28 65  1  0  0  0  0
 29 67  1  0  0  0  0
 29 82  1  0  0  0  0
 30 60  2  0  0  0  0
 30 68  1  0  0  0  0
 30 82  1  0  0  0  0
 31 66  1  0  0  0  0
 31 72  2  0  0  0  0
 32 47  1  0  0  0  0
 32 69  1  0  0  0  0
 32 73  2  0  0  0  0
 33 57  1  0  0  0  0
 33 63  1  0  0  0  0
 33 74  2  0  0  0  0
 34 54  1  0  0  0  0
 34 67  1  0  0  0  0
 34 75  2  0  0  0  0
 35 58  1  0  0  0  0
 35 70  1  0  0  0  0
 35 76  2  0  0  0  0
 36 64  1  0  0  0  0
 36 68  1  0  0  0  0
 36 77  2  0  0  0  0
 37 40  1  0  0  0  0
 38 47  1  0  0  0  0
 39 63  1  0  0  0  0
 40 42  1  0  0  0  0
 41 43  1  0  0  0  0
 41 44  1  0  0  0  0
 42 46  1  0  0  0  0
 43 48  1  0  0  0  0
 44 64  1  0  0  0  0
 45 48  1  0  0  0  0
 45 64  1  0  0  0  0
 46 69  1  0  0  0  0
 47 63  1  0  0  0  0
 48 62  1  0  0  0  0
 49 58  1  0  0  0  0
 50 59  1  0  0  0  0
 51 59  1  0  0  0  0
 52 59  1  0  0  0  0
 53 71  1  0  0  0  0
 54 55  1  0  0  0  0
 55 56  1  0  0  0  0
 56 79  1  0  0  0  0
 57 59  1  0  0  0  0
 57 70  1  0  0  0  0
 58 71  1  0  0  0  0
 61 62  1  0  0  0  0
M  CHG  1  71   1
M  ISO  4  36 100  56 101  68 100  79 101
M  END
> <Batch ID>
0198

> <Smiles>
CNC(C)C(=O)NC(C(=O)N1Cc2cc([101O:1][101CH2:1]CCC(=O)Nc3cnc([100NH:0][100C:0](=O)N4CCCC(n5nc(-c6ccc(Oc7ccc(F)cc7F)cc6)c(C(N)=O)c5N)C4)s3)ccc2CC1C(=O)NC1CCCc2ccccc21)C(C)(C)C

> <Shape>
0.180

> <Color>
0.076

> <Negative vol penalty>
0.000

$$$$

  -OEChem-04052305443D

 85 93  0     1  0  0  0  0  0999 V2000
  -16.8212  -26.7899   25.1578 C   0  0  0  0  0  0  0  0  0  0  0  0
  -17.4073  -25.5323   25.0568 C   0  0  0  0  0  0  0  0  0  0  0  0
  -31.2982  -20.7221   18.8627 C   0  0  0  0  0  0  0  0  0  0  0  0
  -28.8873  -20.6415   18.9969 C   0  0  0  0  0  0  0  0  0  0  0  0
  -17.2900  -27.8414   24.3714 C   0  0  0  0  0  0  0  0  0  0  0  0
  -18.4620  -25.3252   24.1684 C   0  0  0  0  0  0  0  0  0  0  0  0
  -23.2582  -21.5986   24.9527 C   0  0  0  0  0  0  0  0  0  0  0  0
  -31.2118  -21.7590   17.9338 C   0  0  0  0  0  0  0  0  0  0  0  0
  -28.8009  -21.6784   18.0679 C   0  0  0  0  0  0  0  0  0  0  0  0
  -23.5288  -20.3094   24.4962 C   0  0  0  0  0  0  0  0  0  0  0  0
  -30.5693  -22.0982   14.6328 C   0  0  0  0  0  0  0  0  0  0  0  0
  -31.3836  -22.0244   13.5028 C   0  0  0  0  0  0  0  0  0  0  0  0
  -24.7786  -21.2318   22.6505 C   0  0  0  0  0  0  0  0  0  0  0  0
  -32.4341  -24.1097   14.1237 C   0  0  0  0  0  0  0  0  0  0  0  0
  -22.5631  -13.6832   20.2206 C   0  0  0  0  0  0  0  0  0  0  0  0
  -30.1359  -20.1633   19.3943 C   0  0  0  0  0  0  0  0  0  0  0  0
  -30.2983  -19.2089   21.7544 C   0  0  0  0  0  0  0  0  0  0  0  0
  -18.3573  -27.6495   23.4800 C   0  0  0  0  0  0  0  0  0  0  0  0
  -23.7373  -22.7162   24.2543 C   0  0  0  0  0  0  0  0  0  0  0  0
  -18.9446  -26.3748   23.3684 C   0  0  0  0  0  0  0  0  0  0  0  0
  -24.5148  -22.5341   23.1017 C   0  0  0  0  0  0  0  0  0  0  0  0
  -23.6176  -12.8126   20.0345 C   0  0  0  0  0  0  0  0  0  0  0  0
  -29.9632  -22.2372   17.5364 C   0  0  0  0  0  0  0  0  0  0  0  0
  -24.2867  -20.1258   23.3434 C   0  0  0  0  0  0  0  0  0  0  0  0
  -30.6872  -23.1778   15.5082 C   0  0  0  0  0  0  0  0  0  0  0  0
  -32.3161  -23.0301   13.2482 C   0  0  0  0  0  0  0  0  0  0  0  0
  -31.6196  -24.1835   15.2537 C   0  0  0  0  0  0  0  0  0  0  0  0
  -30.2244  -19.0918   20.3535 C   0  0  0  0  0  0  0  0  0  0  0  0
  -24.8743  -13.3450   20.2378 C   0  0  0  0  0  0  0  0  0  0  0  0
  -30.3658  -17.9129   22.2042 C   0  0  0  0  0  0  0  0  0  0  0  0
  -23.9872  -15.3752   20.7461 C   0  0  0  0  0  0  0  0  0  0  0  0
  -30.3051  -20.3841   22.5758 C   0  0  0  0  0  0  0  0  0  0  0  0
  -22.3875  -25.1777   22.7632 C   0  0  0  0  0  0  0  0  0  0  0  0
  -25.4569  -26.1887   22.4814 C   0  0  0  0  0  0  0  0  0  0  0  0
  -28.7737  -25.3901   22.3924 C   0  0  0  0  0  0  0  0  0  0  0  0
  -28.5577  -12.6946   19.8910 C   0  0  0  0  0  0  0  0  0  0  0  0
  -18.7985  -28.8046   22.6164 C   0  0  0  0  0  0  0  0  0  0  0  0
  -23.4592  -24.0998   24.7747 C   0  0  0  0  0  0  0  0  0  0  0  0
  -25.0696  -23.7004   22.3269 C   0  0  0  0  0  0  0  0  0  0  0  0
  -20.1664  -28.5955   21.9718 C   0  0  0  0  0  0  0  0  0  0  0  0
  -31.8640  -13.5648   20.8850 C   0  0  0  0  0  0  0  0  0  0  0  0
  -20.2611  -27.2010   21.3609 C   0  0  0  0  0  0  0  0  0  0  0  0
  -31.8253  -15.0905   20.9879 C   0  0  0  0  0  0  0  0  0  0  0  0
  -31.0033  -13.0550   19.7311 C   0  0  0  0  0  0  0  0  0  0  0  0
  -29.5683  -15.0553   19.8463 C   0  0  0  0  0  0  0  0  0  0  0  0
  -20.1071  -26.1168   22.4344 C   0  0  1  0  0  0  0  0  0  0  0  0
  -23.5640  -25.1754   23.6979 C   0  0  1  0  0  0  0  0  0  0  0  0
  -30.3768  -15.6132   21.0301 C   0  0  2  0  0  0  0  0  0  0  0  0
  -31.0423  -26.4254   22.1116 C   0  0  0  0  0  0  0  0  0  0  0  0
  -24.9633  -26.4507   19.4817 C   0  0  0  0  0  0  0  0  0  0  0  0
  -27.4432  -26.5524   19.1532 C   0  0  0  0  0  0  0  0  0  0  0  0
  -26.2903  -28.3167   20.4876 C   0  0  0  0  0  0  0  0  0  0  0  0
  -29.6405  -24.4993   25.0783 C   0  0  0  0  0  0  0  0  0  0  0  0
  -26.0903  -12.4951   20.0684 C   0  0  0  0  0  0  0  0  0  0  0  0
  -25.4776  -17.2877   21.3352 C   0  0  0  0  0  0  0  0  0  0  0  0
  -25.3344  -18.7539   21.7076 C   0  0  0  0  0  0  0  0  0  1  0  0
  -26.5556  -25.9995   21.4635 C   0  0  1  0  0  0  0  0  0  0  0  0
  -29.9737  -25.9904   23.1024 C   0  0  2  0  0  0  0  0  0  0  0  0
  -23.3874  -11.3990   19.6417 C   0  0  0  0  0  0  0  0  0  0  0  0
  -26.3012  -26.8077   20.1598 C   0  0  0  0  0  0  0  0  0  0  0  0
  -22.7122  -14.9756   20.5778 N   0  0  0  0  0  0  0  0  0  0  0  0
  -30.2435  -17.8217   19.9405 N   0  0  0  0  0  0  0  0  0  0  0  0
  -25.0966  -14.6269   20.5953 N   0  0  0  0  0  0  0  0  0  0  0  0
  -30.3301  -17.1289   21.0888 N   0  0  0  0  0  0  0  0  0  0  0  0
  -24.7650  -25.0335   22.8723 N   0  0  0  0  0  0  0  0  0  0  0  0
  -29.6416  -13.5859   19.8309 N   0  0  0  0  0  0  0  0  0  0  0  0
  -30.4518  -17.3789   23.4411 N   0  0  0  0  0  0  0  0  0  0  0  0
  -30.2292  -21.6363   21.9509 N   0  0  0  0  0  0  0  0  0  0  0  0
  -24.1775  -16.6969   21.1138 N   0  0  0  0  0  0  0  0  0  0  0  0
  -21.3362  -25.9695   23.1840 N   0  0  0  0  0  0  0  0  0  0  0  0
  -27.8026  -26.3363   22.1415 N   0  0  0  0  0  0  0  0  0  0  0  0
  -27.3018  -13.2807   19.9910 N   0  0  0  0  0  0  0  0  0  0  0  0
  -30.5747  -24.9956   24.0353 N   0  3  0  0  0  0  0  0  0  0  0  0
  -30.3929  -20.3260   23.8257 O   0  0  0  0  0  0  0  0  0  0  0  0
  -22.4310  -24.5115   21.7356 O   0  0  0  0  0  0  0  0  0  0  0  0
  -25.2259  -27.3186   22.9190 O   0  0  0  0  0  0  0  0  0  0  0  0
  -28.7062  -24.2014   22.0873 O   0  0  0  0  0  0  0  0  0  0  0  0
  -28.6991  -11.4673   19.8634 O   0  0  0  0  0  0  0  0  0  0  0  0
  -29.8785  -23.2491   16.6301 O   0  0  0  0  0  0  0  0  0  0  0  0
  -24.5518  -18.8685   22.8953 O   0  0  0  0  0  0  0  0  0  1  0  0
  -33.0991  -22.9584   12.1639 F   0  0  0  0  0  0  0  0  0  0  0  0
  -31.7384  -25.2224   16.0917 F   0  0  0  0  0  0  0  0  0  0  0  0
  -22.0665  -11.0738   19.4923 F   0  0  0  0  0  0  0  0  0  0  0  0
  -23.9697  -11.0536   18.4526 F   0  0  0  0  0  0  0  0  0  0  0  0
  -23.8768  -10.5072   20.5553 F   0  0  0  0  0  0  0  0  0  0  0  0
  1  2  1  0  0  0  0
  1  5  2  0  0  0  0
  2  6  2  0  0  0  0
  3  8  2  0  0  0  0
  3 16  1  0  0  0  0
  4  9  1  0  0  0  0
  4 16  2  0  0  0  0
  5 18  1  0  0  0  0
  6 20  1  0  0  0  0
  7 10  2  0  0  0  0
  7 19  1  0  0  0  0
  8 23  1  0  0  0  0
  9 23  2  0  0  0  0
 10 24  1  0  0  0  0
 11 12  2  0  0  0  0
 11 25  1  0  0  0  0
 12 26  1  0  0  0  0
 13 21  1  0  0  0  0
 13 24  2  0  0  0  0
 14 26  2  0  0  0  0
 14 27  1  0  0  0  0
 15 22  1  0  0  0  0
 15 61  2  0  0  0  0
 16 28  1  0  0  0  0
 17 28  1  0  0  0  0
 17 30  2  0  0  0  0
 17 32  1  0  0  0  0
 18 20  2  0  0  0  0
 18 37  1  0  0  0  0
 19 21  2  0  0  0  0
 19 38  1  0  0  0  0
 20 46  1  0  0  0  0
 21 39  1  0  0  0  0
 22 29  2  0  0  0  0
 22 59  1  0  0  0  0
 23 79  1  0  0  0  0
 24 80  1  0  0  0  0
 25 27  2  0  0  0  0
 25 79  1  0  0  0  0
 26 81  1  0  0  0  0
 27 82  1  0  0  0  0
 28 62  2  0  0  0  0
 29 54  1  0  0  0  0
 29 63  1  0  0  0  0
 30 64  1  0  0  0  0
 30 67  1  0  0  0  0
 31 61  1  0  0  0  0
 31 63  2  0  0  0  0
 31 69  1  0  0  0  0
 32 68  1  0  0  0  0
 32 74  2  0  0  0  0
 33 47  1  0  0  0  0
 33 70  1  0  0  0  0
 33 75  2  0  0  0  0
 34 57  1  0  0  0  0
 34 65  1  0  0  0  0
 34 76  2  0  0  0  0
 35 58  1  0  0  0  0
 35 71  1  0  0  0  0
 35 77  2  0  0  0  0
 36 66  1  0  0  0  0
 36 72  1  0  0  0  0
 36 78  2  0  0  0  0
 37 40  1  0  0  0  0
 38 47  1  0  0  0  0
 39 65  1  0  0  0  0
 40 42  1  0  0  0  0
 41 43  1  0  0  0  0
 41 44  1  0  0  0  0
 42 46  1  0  0  0  0
 43 48  1  0  0  0  0
 44 66  1  0  0  0  0
 45 48  1  0  0  0  0
 45 66  1  0  0  0  0
 46 70  1  0  0  0  0
 47 65  1  0  0  0  0
 48 64  1  0  0  0  0
 49 58  1  0  0  0  0
 50 60  1  0  0  0  0
 51 60  1  0  0  0  0
 52 60  1  0  0  0  0
 53 73  1  0  0  0  0
 54 72  1  0  0  0  0
 55 56  1  0  0  0  0
 55 69  1  0  0  0  0
 56 80  1  0  0  0  0
 57 60  1  0  0  0  0
 57 71  1  0  0  0  0
 58 73  1  0  0  0  0
 59 83  1  0  0  0  0
 59 84  1  0  0  0  0
 59 85  1  0  0  0  0
 62 64  1  0  0  0  0
M  CHG  1  73   1
M  ISO  4  36 100  56 101  72 100  80 101
M  END
> <Batch ID>
0198

> <Smiles>
CNC(C)C(=O)NC(C(=O)N1Cc2cc([101O:1][101CH2:1]CNc3ncc(C(F)(F)F)c(C[100NH:0][100C:0](=O)N4CCCC(n5nc(-c6ccc(Oc7ccc(F)cc7F)cc6)c(C(N)=O)c5N)C4)n3)ccc2CC1C(=O)NC1CCCc2ccccc21)C(C)(C)C

> <Shape>
0.210

> <Color>
0.063

> <Negative vol penalty>
0.000

$$$$

  -OEChem-04052305443D

 88 96  0     1  0  0  0  0  0999 V2000
  -21.9265  -29.0300   22.4151 C   0  0  0  0  0  0  0  0  0  0  0  0
  -22.3665  -27.7469   22.1061 C   0  0  0  0  0  0  0  0  0  0  0  0
  -18.5287  -23.5358   24.1174 C   0  0  0  0  0  0  0  0  0  0  0  0
  -19.7723  -22.5392   25.9333 C   0  0  0  0  0  0  0  0  0  0  0  0
  -22.7290  -30.1311   22.1190 C   0  0  0  0  0  0  0  0  0  0  0  0
  -23.6088  -27.5642   21.4996 C   0  0  0  0  0  0  0  0  0  0  0  0
  -27.4807  -22.9001   22.3713 C   0  0  0  0  0  0  0  0  0  0  0  0
  -17.7273  -24.2119   25.0373 C   0  0  0  0  0  0  0  0  0  0  0  0
  -18.9709  -23.2153   26.8532 C   0  0  0  0  0  0  0  0  0  0  0  0
  -27.7257  -21.7360   21.6442 C   0  0  0  0  0  0  0  0  0  0  0  0
  -17.9535  -26.9638   26.9888 C   0  0  0  0  0  0  0  0  0  0  0  0
  -17.6890  -28.3124   26.7501 C   0  0  0  0  0  0  0  0  0  0  0  0
  -29.5719  -22.8238   20.5363 C   0  0  0  0  0  0  0  0  0  0  0  0
  -15.3225  -27.8331   26.6645 C   0  0  0  0  0  0  0  0  0  0  0  0
  -19.5512  -22.6994   24.5654 C   0  0  0  0  0  0  0  0  0  0  0  0
  -21.5817  -22.4531   23.0409 C   0  0  0  0  0  0  0  0  0  0  0  0
  -23.9859  -29.9611   21.5174 C   0  0  0  0  0  0  0  0  0  0  0  0
  -28.2740  -24.0402   22.1780 C   0  0  0  0  0  0  0  0  0  0  0  0
  -24.4282  -28.6642   21.1939 C   0  0  0  0  0  0  0  0  0  0  0  0
  -29.3365  -24.0003   21.2640 C   0  0  0  0  0  0  0  0  0  0  0  0
  -17.9484  -24.0517   26.4051 C   0  0  0  0  0  0  0  0  0  0  0  0
  -28.7696  -21.6986   20.7245 C   0  0  0  0  0  0  0  0  0  0  0  0
  -16.9025  -26.0499   27.0652 C   0  0  0  0  0  0  0  0  0  0  0  0
  -16.3736  -28.7471   26.5880 C   0  0  0  0  0  0  0  0  0  0  0  0
  -15.5871  -26.4845   26.9031 C   0  0  0  0  0  0  0  0  0  0  0  0
  -20.3791  -22.0003   23.6157 C   0  0  0  0  0  0  0  0  0  0  0  0
  -26.9179  -14.8939   20.2374 C   0  0  0  0  0  0  0  0  0  0  0  0
  -21.9730  -21.4299   22.2125 C   0  0  0  0  0  0  0  0  0  0  0  0
  -27.6676  -15.9224   20.7687 C   0  0  0  0  0  0  0  0  0  0  0  0
  -25.2832  -16.1036   21.0586 C   0  0  0  0  0  0  0  0  0  0  0  0
  -22.2825  -23.6883   23.2383 C   0  0  0  0  0  0  0  0  0  0  0  0
  -27.7308  -27.0073   21.1754 C   0  0  0  0  0  0  0  0  0  0  0  0
  -30.8373  -27.4397   22.0030 C   0  0  0  0  0  0  0  0  0  0  0  0
  -33.9108  -26.0584   22.5437 C   0  0  0  0  0  0  0  0  0  0  0  0
  -22.7699  -16.0119   21.2054 C   0  0  0  0  0  0  0  0  0  0  0  0
  -24.7974  -31.1849   21.1732 C   0  0  0  0  0  0  0  0  0  0  0  0
  -28.0135  -25.2796   22.9895 C   0  0  0  0  0  0  0  0  0  0  0  0
  -30.2301  -25.1907   21.0342 C   0  0  0  0  0  0  0  0  0  0  0  0
  -26.2623  -30.8793   20.8715 C   0  0  0  0  0  0  0  0  0  0  0  0
  -19.4879  -17.2918   20.6886 C   0  0  0  0  0  0  0  0  0  0  0  0
  -26.3753  -29.6876   19.9261 C   0  0  0  0  0  0  0  0  0  0  0  0
  -19.5261  -18.6681   21.3568 C   0  0  0  0  0  0  0  0  0  0  0  0
  -20.3110  -16.2630   21.4618 C   0  0  0  0  0  0  0  0  0  0  0  0
  -21.7353  -18.0360   22.4088 C   0  0  0  0  0  0  0  0  0  0  0  0
  -25.7803  -28.4235   20.5583 C   0  0  1  0  0  0  0  0  0  0  0  0
  -28.5618  -26.5459   22.3391 C   0  0  1  0  0  0  0  0  0  0  0  0
  -20.9734  -19.1215   21.6310 C   0  0  2  0  0  0  0  0  0  0  0  0
  -27.8546  -14.0275   18.0791 C   0  0  0  0  0  0  0  0  0  0  0  0
  -36.2620  -26.6694   23.1728 C   0  0  0  0  0  0  0  0  0  0  0  0
  -30.6547  -17.5884   23.6980 C   0  0  0  0  0  0  0  0  0  0  0  0
  -32.7951  -16.4986   22.9975 C   0  0  0  0  0  0  0  0  0  0  0  0
  -31.3057  -28.5241   19.1897 C   0  0  0  0  0  0  0  0  0  0  0  0
  -33.7635  -28.2193   19.5567 C   0  0  0  0  0  0  0  0  0  0  0  0
  -32.4734  -29.7896   21.0033 C   0  0  0  0  0  0  0  0  0  0  0  0
  -33.8177  -24.3819   24.9808 C   0  0  0  0  0  0  0  0  0  0  0  0
  -27.4405  -13.7120   19.5194 C   0  0  0  0  0  0  0  0  0  0  0  0
  -31.1570  -17.1966   21.2233 C   0  0  0  0  0  0  0  0  0  0  0  0
  -29.6850  -17.9390   19.3085 C   0  0  0  0  0  0  0  0  0  0  0  0
  -27.8893  -19.7280   19.7257 C   0  0  0  0  0  0  0  0  0  1  0  0
  -32.1624  -27.2975   21.2938 C   0  0  1  0  0  0  0  0  0  0  0  0
  -34.9015  -26.2200   23.6825 C   0  0  2  0  0  0  0  0  0  0  0  0
  -31.3095  -16.6691   22.6662 C   0  0  0  0  0  0  0  0  0  0  0  0
  -29.7051  -17.3624   20.7370 C   0  0  1  0  0  0  0  0  0  0  0  0
  -28.3365  -18.5376   18.8817 C   0  0  1  0  0  0  0  0  0  0  0  0
  -32.4084  -28.4356   20.2636 C   0  0  0  0  0  0  0  0  0  0  0  0
  -20.0293  -20.7841   23.1884 N   0  0  0  0  0  0  0  0  0  0  0  0
  -25.5505  -14.9959   20.4030 N   0  0  0  0  0  0  0  0  0  0  0  0
  -21.0180  -20.4641   22.3363 N   0  0  0  0  0  0  0  0  0  0  0  0
  -29.9312  -26.3812   21.8471 N   0  0  0  0  0  0  0  0  0  0  0  0
  -21.6715  -16.7591   21.6806 N   0  0  0  0  0  0  0  0  0  0  0  0
  -23.0374  -21.2711   21.3974 N   0  0  0  0  0  0  0  0  0  0  0  0
  -21.7411  -24.6294   24.1245 N   0  0  0  0  0  0  0  0  0  0  0  0
  -29.0422  -16.0745   20.7493 N   0  0  0  0  0  0  0  0  0  0  0  0
  -24.0124  -16.5988   21.4429 N   0  0  0  0  0  0  0  0  0  0  0  0
  -26.7003  -27.8598   21.5229 N   0  0  0  0  0  0  0  0  0  0  0  0
  -33.1768  -27.2075   22.3384 N   0  0  0  0  0  0  0  0  0  0  0  0
  -28.4859  -19.0122   17.4682 N   0  3  0  0  0  0  0  0  0  0  0  0
  -35.0739  -24.9286   24.4062 N   0  3  0  0  0  0  0  0  0  0  0  0
  -23.3484  -23.9565   22.6338 O   0  0  0  0  0  0  0  0  0  0  0  0
  -28.0051  -26.6197   20.0457 O   0  0  0  0  0  0  0  0  0  0  0  0
  -30.6171  -28.4495   22.6764 O   0  0  0  0  0  0  0  0  0  0  0  0
  -33.8017  -25.0182   21.8982 O   0  0  0  0  0  0  0  0  0  0  0  0
  -22.6180  -14.9444   20.6061 O   0  0  0  0  0  0  0  0  0  0  0  0
  -17.1667  -24.7115   27.3030 O   0  0  0  0  0  0  0  0  0  0  0  0
  -29.0120  -20.5566   20.0085 O   0  0  0  0  0  0  0  0  0  1  0  0
  -16.1196  -30.0424   26.3603 F   0  0  0  0  0  0  0  0  0  0  0  0
  -14.5732  -25.6114   26.9767 F   0  0  0  0  0  0  0  0  0  0  0  0
  -26.6286  -17.0702   21.5063 S   0  0  0  0  0  0  0  0  0  0  0  0
  1  2  1  0  0  0  0
  1  5  2  0  0  0  0
  2  6  2  0  0  0  0
  3  8  2  0  0  0  0
  3 15  1  0  0  0  0
  4  9  1  0  0  0  0
  4 15  2  0  0  0  0
  5 17  1  0  0  0  0
  6 19  1  0  0  0  0
  7 10  2  0  0  0  0
  7 18  1  0  0  0  0
  8 21  1  0  0  0  0
  9 21  2  0  0  0  0
 10 22  1  0  0  0  0
 11 12  2  0  0  0  0
 11 23  1  0  0  0  0
 12 24  1  0  0  0  0
 13 20  1  0  0  0  0
 13 22  2  0  0  0  0
 14 24  2  0  0  0  0
 14 25  1  0  0  0  0
 15 26  1  0  0  0  0
 16 26  1  0  0  0  0
 16 28  2  0  0  0  0
 16 31  1  0  0  0  0
 17 19  2  0  0  0  0
 17 36  1  0  0  0  0
 18 20  2  0  0  0  0
 18 37  1  0  0  0  0
 19 45  1  0  0  0  0
 20 38  1  0  0  0  0
 21 84  1  0  0  0  0
 22 85  1  0  0  0  0
 23 25  2  0  0  0  0
 23 84  1  0  0  0  0
 24 86  1  0  0  0  0
 25 87  1  0  0  0  0
 26 66  2  0  0  0  0
 27 29  2  0  0  0  0
 27 56  1  0  0  0  0
 27 67  1  0  0  0  0
 28 68  1  0  0  0  0
 28 71  1  0  0  0  0
 29 73  1  0  0  0  0
 29 88  1  0  0  0  0
 30 67  2  0  0  0  0
 30 74  1  0  0  0  0
 30 88  1  0  0  0  0
 31 72  1  0  0  0  0
 31 79  2  0  0  0  0
 32 46  1  0  0  0  0
 32 75  1  0  0  0  0
 32 80  2  0  0  0  0
 33 60  1  0  0  0  0
 33 69  1  0  0  0  0
 33 81  2  0  0  0  0
 34 61  1  0  0  0  0
 34 76  1  0  0  0  0
 34 82  2  0  0  0  0
 35 70  1  0  0  0  0
 35 74  1  0  0  0  0
 35 83  2  0  0  0  0
 36 39  1  0  0  0  0
 37 46  1  0  0  0  0
 38 69  1  0  0  0  0
 39 41  1  0  0  0  0
 40 42  1  0  0  0  0
 40 43  1  0  0  0  0
 41 45  1  0  0  0  0
 42 47  1  0  0  0  0
 43 70  1  0  0  0  0
 44 47  1  0  0  0  0
 44 70  1  0  0  0  0
 45 75  1  0  0  0  0
 46 69  1  0  0  0  0
 47 68  1  0  0  0  0
 48 56  1  0  0  0  0
 49 61  1  0  0  0  0
 50 62  1  0  0  0  0
 51 62  1  0  0  0  0
 52 65  1  0  0  0  0
 53 65  1  0  0  0  0
 54 65  1  0  0  0  0
 55 78  1  0  0  0  0
 57 62  1  0  0  0  0
 57 63  1  0  0  0  0
 58 63  1  0  0  0  0
 58 64  1  0  0  0  0
 59 64  1  0  0  0  0
 59 85  1  0  0  0  0
 60 65  1  0  0  0  0
 60 76  1  0  0  0  0
 61 78  1  0  0  0  0
 63 73  1  0  0  0  0
 64 77  1  0  0  0  0
 66 68  1  0  0  0  0
M  CHG  2  77   1  78   1
M  ISO  4  35 100  59 101  74 100  85 101
M  END
> <Batch ID>
0198

> <Smiles>
CCc1nc([100NH:0][100C:0](=O)N2CCCC(n3nc(-c4ccc(Oc5ccc(F)cc5F)cc4)c(C(N)=O)c3N)C2)sc1NC(CC(C)C)CC(N)[101CH2:1][101O:1]c1ccc2c(c1)CN(C(=O)C(NC(=O)C(C)NC)C(C)(C)C)C(C(=O)NC1CCCc3ccccc31)C2

> <Shape>
0.176

> <Color>
0.075

> <Negative vol penalty>
0.000

$$$$

  -OEChem-04052305443D

 84 92  0     1  0  0  0  0  0999 V2000
  -29.2329  -31.6241   27.6888 C   0  0  0  0  0  0  0  0  0  0  0  0
  -28.6423  -30.7082   26.8241 C   0  0  0  0  0  0  0  0  0  0  0  0
  -24.6868   -9.5857   21.7983 C   0  0  0  0  0  0  0  0  0  0  0  0
  -24.2622  -11.0859   23.6438 C   0  0  0  0  0  0  0  0  0  0  0  0
  -28.5860  -32.8246   27.9789 C   0  0  0  0  0  0  0  0  0  0  0  0
  -27.4037  -30.9919   26.2498 C   0  0  0  0  0  0  0  0  0  0  0  0
  -27.2600  -29.9048   21.3059 C   0  0  0  0  0  0  0  0  0  0  0  0
  -24.3500   -8.4985   22.6045 C   0  0  0  0  0  0  0  0  0  0  0  0
  -23.9253   -9.9987   24.4501 C   0  0  0  0  0  0  0  0  0  0  0  0
  -27.1087  -28.5646   20.9528 C   0  0  0  0  0  0  0  0  0  0  0  0
  -23.2542   -5.3583   24.0721 C   0  0  0  0  0  0  0  0  0  0  0  0
  -22.4190   -4.3822   23.5288 C   0  0  0  0  0  0  0  0  0  0  0  0
  -24.7581  -28.9394   20.5613 C   0  0  0  0  0  0  0  0  0  0  0  0
  -20.6945   -6.0417   23.1982 C   0  0  0  0  0  0  0  0  0  0  0  0
  -26.2780  -19.9944   19.9416 C   0  0  0  0  0  0  0  0  0  0  0  0
  -24.6430  -10.8794   22.3179 C   0  0  0  0  0  0  0  0  0  0  0  0
  -24.1262  -12.7589   20.6723 C   0  0  0  0  0  0  0  0  0  0  0  0
  -27.3433  -33.1274   27.4003 C   0  0  0  0  0  0  0  0  0  0  0  0
  -26.1575  -30.7713   21.2998 C   0  0  0  0  0  0  0  0  0  0  0  0
  -26.7389  -32.1970   26.5334 C   0  0  0  0  0  0  0  0  0  0  0  0
  -24.8986  -30.2907   20.9122 C   0  0  0  0  0  0  0  0  0  0  0  0
  -23.9692   -8.7049   23.9304 C   0  0  0  0  0  0  0  0  0  0  0  0
  -25.8571  -28.0810   20.5832 C   0  0  0  0  0  0  0  0  0  0  0  0
  -22.8095   -6.6762   24.1785 C   0  0  0  0  0  0  0  0  0  0  0  0
  -21.1391   -4.7239   23.0918 C   0  0  0  0  0  0  0  0  0  0  0  0
  -21.5297   -7.0179   23.7415 C   0  0  0  0  0  0  0  0  0  0  0  0
  -24.9914  -12.0029   21.4857 C   0  0  0  0  0  0  0  0  0  0  0  0
  -27.0435  -22.0234   19.2161 C   0  0  0  0  0  0  0  0  0  0  0  0
  -27.5676  -19.5102   19.9482 C   0  0  0  0  0  0  0  0  0  0  0  0
  -28.3332  -21.5396   19.2234 C   0  0  0  0  0  0  0  0  0  0  0  0
  -24.9377  -13.7032   20.0925 C   0  0  0  0  0  0  0  0  0  0  0  0
  -22.7150  -12.6201   20.4598 C   0  0  0  0  0  0  0  0  0  0  0  0
  -24.6464  -32.4941   23.5026 C   0  0  0  0  0  0  0  0  0  0  0  0
  -23.0015  -33.6117   20.9398 C   0  0  0  0  0  0  0  0  0  0  0  0
  -21.9346  -33.1075   17.7376 C   0  0  0  0  0  0  0  0  0  0  0  0
  -29.0031  -17.4940   20.4182 C   0  0  0  0  0  0  0  0  0  0  0  0
  -26.6602  -34.4170   27.7809 C   0  0  0  0  0  0  0  0  0  0  0  0
  -26.3426  -32.2205   21.6576 C   0  0  0  0  0  0  0  0  0  0  0  0
  -23.6872  -31.1847   20.8697 C   0  0  0  0  0  0  0  0  0  0  0  0
  -25.5245  -34.8061   26.8380 C   0  0  0  0  0  0  0  0  0  0  0  0
  -29.9832  -14.0975   19.9938 C   0  0  0  0  0  0  0  0  0  0  0  0
  -24.6263  -33.6049   26.5600 C   0  0  0  0  0  0  0  0  0  0  0  0
  -28.7007  -13.3119   20.2772 C   0  0  0  0  0  0  0  0  0  0  0  0
  -30.1100  -15.3217   20.8987 C   0  0  0  0  0  0  0  0  0  0  0  0
  -27.6651  -15.4334   21.1793 C   0  0  0  0  0  0  0  0  0  0  0  0
  -25.4077  -32.4794   25.8713 C   0  0  1  0  0  0  0  0  0  0  0  0
  -25.0510  -32.8935   22.1117 C   0  0  1  0  0  0  0  0  0  0  0  0
  -27.4610  -14.2274   20.2479 C   0  0  2  0  0  0  0  0  0  0  0  0
  -26.4268  -23.5702   17.3134 C   0  0  0  0  0  0  0  0  0  0  0  0
  -20.5754  -34.1815   15.9220 C   0  0  0  0  0  0  0  0  0  0  0  0
  -24.6446  -24.4885   21.7583 C   0  0  0  0  0  0  0  0  0  0  0  0
  -20.4390  -32.8444   22.4077 C   0  0  0  0  0  0  0  0  0  0  0  0
  -19.2164  -33.0408   20.2317 C   0  0  0  0  0  0  0  0  0  0  0  0
  -20.3400  -35.0397   21.2139 C   0  0  0  0  0  0  0  0  0  0  0  0
  -24.2544  -33.2119   15.9028 C   0  0  0  0  0  0  0  0  0  0  0  0
  -26.5846  -25.8334   20.8569 C   0  0  0  0  0  0  0  0  0  1  0  0
  -26.7279  -23.4430   18.8047 C   0  0  1  0  0  0  0  0  0  0  0  0
  -21.7476  -33.1951   20.2098 C   0  0  1  0  0  0  0  0  0  0  0  0
  -21.9654  -34.0037   16.5127 C   0  0  2  0  0  0  0  0  0  0  0  0
  -25.9248  -24.4615   20.9392 C   0  0  2  0  0  0  0  0  0  0  0  0
  -20.4580  -33.5125   21.0183 C   0  0  0  0  0  0  0  0  0  0  0  0
  -25.9928  -21.2597   19.5753 N   0  0  0  0  0  0  0  0  0  0  0  0
  -26.2557  -12.4299   21.4302 N   0  0  0  0  0  0  0  0  0  0  0  0
  -28.6184  -20.2741   19.5893 N   0  0  0  0  0  0  0  0  0  0  0  0
  -26.1909  -13.4645   20.5748 N   0  0  0  0  0  0  0  0  0  0  0  0
  -23.9180  -32.5923   21.2344 N   0  0  0  0  0  0  0  0  0  0  0  0
  -28.9010  -16.1441   20.8160 N   0  0  0  0  0  0  0  0  0  0  0  0
  -29.3928  -22.3905   18.8370 N   0  0  0  0  0  0  0  0  0  0  0  0
  -24.6945  -14.7061   19.2222 N   0  0  0  0  0  0  0  0  0  0  0  0
  -22.0353  -11.5967   21.1344 N   0  0  0  0  0  0  0  0  0  0  0  0
  -27.7840  -18.1671   20.3444 N   0  0  0  0  0  0  0  0  0  0  0  0
  -25.5935  -32.7787   24.4676 N   0  0  0  0  0  0  0  0  0  0  0  0
  -21.8051  -33.8366   18.9007 N   0  0  0  0  0  0  0  0  0  0  0  0
  -22.8500  -33.4193   15.4654 N   0  3  0  0  0  0  0  0  0  0  0  0
  -25.5833  -24.0167   19.5570 N   0  3  0  0  0  0  0  0  0  0  0  0
  -22.0787  -13.3707   19.6819 O   0  0  0  0  0  0  0  0  0  0  0  0
  -23.5550  -31.9680   23.6867 O   0  0  0  0  0  0  0  0  0  0  0  0
  -23.1653  -34.7990   21.2315 O   0  0  0  0  0  0  0  0  0  0  0  0
  -22.0135  -31.8829   17.6691 O   0  0  0  0  0  0  0  0  0  0  0  0
  -30.0889  -18.0070   20.1355 O   0  0  0  0  0  0  0  0  0  0  0  0
  -23.6402   -7.6443   24.7174 O   0  0  0  0  0  0  0  0  0  0  0  0
  -25.7065  -26.7731   20.2387 O   0  0  0  0  0  0  0  0  0  1  0  0
  -20.3378   -3.7867   22.5687 F   0  0  0  0  0  0  0  0  0  0  0  0
  -21.0975   -8.2825   23.8401 F   0  0  0  0  0  0  0  0  0  0  0  0
  1  2  1  0  0  0  0
  1  5  2  0  0  0  0
  2  6  2  0  0  0  0
  3  8  2  0  0  0  0
  3 16  1  0  0  0  0
  4  9  1  0  0  0  0
  4 16  2  0  0  0  0
  5 18  1  0  0  0  0
  6 20  1  0  0  0  0
  7 10  2  0  0  0  0
  7 19  1  0  0  0  0
  8 22  1  0  0  0  0
  9 22  2  0  0  0  0
 10 23  1  0  0  0  0
 11 12  2  0  0  0  0
 11 24  1  0  0  0  0
 12 25  1  0  0  0  0
 13 21  1  0  0  0  0
 13 23  2  0  0  0  0
 14 25  2  0  0  0  0
 14 26  1  0  0  0  0
 15 29  1  0  0  0  0
 15 62  2  0  0  0  0
 16 27  1  0  0  0  0
 17 27  1  0  0  0  0
 17 31  2  0  0  0  0
 17 32  1  0  0  0  0
 18 20  2  0  0  0  0
 18 37  1  0  0  0  0
 19 21  2  0  0  0  0
 19 38  1  0  0  0  0
 20 46  1  0  0  0  0
 21 39  1  0  0  0  0
 22 81  1  0  0  0  0
 23 82  1  0  0  0  0
 24 26  2  0  0  0  0
 24 81  1  0  0  0  0
 25 83  1  0  0  0  0
 26 84  1  0  0  0  0
 27 63  2  0  0  0  0
 28 30  2  0  0  0  0
 28 57  1  0  0  0  0
 28 62  1  0  0  0  0
 29 64  2  0  0  0  0
 29 71  1  0  0  0  0
 30 64  1  0  0  0  0
 30 68  1  0  0  0  0
 31 65  1  0  0  0  0
 31 69  1  0  0  0  0
 32 70  1  0  0  0  0
 32 76  2  0  0  0  0
 33 47  1  0  0  0  0
 33 72  1  0  0  0  0
 33 77  2  0  0  0  0
 34 58  1  0  0  0  0
 34 66  1  0  0  0  0
 34 78  2  0  0  0  0
 35 59  1  0  0  0  0
 35 73  1  0  0  0  0
 35 79  2  0  0  0  0
 36 67  1  0  0  0  0
 36 71  1  0  0  0  0
 36 80  2  0  0  0  0
 37 40  1  0  0  0  0
 38 47  1  0  0  0  0
 39 66  1  0  0  0  0
 40 42  1  0  0  0  0
 41 43  1  0  0  0  0
 41 44  1  0  0  0  0
 42 46  1  0  0  0  0
 43 48  1  0  0  0  0
 44 67  1  0  0  0  0
 45 48  1  0  0  0  0
 45 67  1  0  0  0  0
 46 72  1  0  0  0  0
 47 66  1  0  0  0  0
 48 65  1  0  0  0  0
 49 57  1  0  0  0  0
 50 59  1  0  0  0  0
 51 60  1  0  0  0  0
 52 61  1  0  0  0  0
 53 61  1  0  0  0  0
 54 61  1  0  0  0  0
 55 74  1  0  0  0  0
 56 60  1  0  0  0  0
 56 82  1  0  0  0  0
 57 75  1  0  0  0  0
 58 61  1  0  0  0  0
 58 73  1  0  0  0  0
 59 74  1  0  0  0  0
 60 75  1  0  0  0  0
 63 65  1  0  0  0  0
M  CHG  2  74   1  75   1
M  ISO  4  36 100  56 101  71 100  82 101
M  END
> <Batch ID>
0198

> <Smiles>
CNC(C)C(=O)NC(C(=O)N1Cc2cc([101O:1][101CH2:1]C(C)NC(C)c3ncc([100NH:0][100C:0](=O)N4CCCC(n5nc(-c6ccc(Oc7ccc(F)cc7F)cc6)c(C(N)=O)c5N)C4)nc3N)ccc2CC1C(=O)NC1CCCc2ccccc21)C(C)(C)C

> <Shape>
0.262

> <Color>
0.106

> <Negative vol penalty>
0.000

$$$$

  -OEChem-04052305443D

 83 91  0     1  0  0  0  0  0999 V2000
  -30.7735  -33.5703   28.3870 C   0  0  0  0  0  0  0  0  0  0  0  0
  -31.0401  -32.7874   27.2684 C   0  0  0  0  0  0  0  0  0  0  0  0
  -23.9203   -9.6423   21.6709 C   0  0  0  0  0  0  0  0  0  0  0  0
  -24.5212  -10.8498   23.6753 C   0  0  0  0  0  0  0  0  0  0  0  0
  -29.5420  -33.4658   29.0322 C   0  0  0  0  0  0  0  0  0  0  0  0
  -30.0756  -31.8986   26.7949 C   0  0  0  0  0  0  0  0  0  0  0  0
  -28.9998  -30.4013   20.9548 C   0  0  0  0  0  0  0  0  0  0  0  0
  -23.4620   -8.5791   22.4487 C   0  0  0  0  0  0  0  0  0  0  0  0
  -24.0629   -9.7866   24.4532 C   0  0  0  0  0  0  0  0  0  0  0  0
  -29.3918  -29.3117   20.1783 C   0  0  0  0  0  0  0  0  0  0  0  0
  -20.7121   -7.8264   24.2665 C   0  0  0  0  0  0  0  0  0  0  0  0
  -19.4852   -7.2563   23.9269 C   0  0  0  0  0  0  0  0  0  0  0  0
  -27.2914  -28.2249   20.6539 C   0  0  0  0  0  0  0  0  0  0  0  0
  -28.5420  -20.6397   20.0718 C   0  0  0  0  0  0  0  0  0  0  0  0
  -20.5715   -5.1269   23.5766 C   0  0  0  0  0  0  0  0  0  0  0  0
  -24.4499  -10.7777   22.2842 C   0  0  0  0  0  0  0  0  0  0  0  0
  -24.1814  -12.9859   21.0355 C   0  0  0  0  0  0  0  0  0  0  0  0
  -28.5583  -32.5823   28.5606 C   0  0  0  0  0  0  0  0  0  0  0  0
  -27.7530  -30.4062   21.5966 C   0  0  0  0  0  0  0  0  0  0  0  0
  -28.8302  -31.7812   27.4352 C   0  0  0  0  0  0  0  0  0  0  0  0
  -26.8849  -29.3169   21.4359 C   0  0  0  0  0  0  0  0  0  0  0  0
  -28.3682  -19.2827   20.2799 C   0  0  0  0  0  0  0  0  0  0  0  0
  -23.5333   -8.6512   23.8399 C   0  0  0  0  0  0  0  0  0  0  0  0
  -28.5387  -28.2221   20.0301 C   0  0  0  0  0  0  0  0  0  0  0  0
  -21.8688   -7.0467   24.2611 C   0  0  0  0  0  0  0  0  0  0  0  0
  -19.4149   -5.9066   23.5819 C   0  0  0  0  0  0  0  0  0  0  0  0
  -21.7985   -5.6970   23.9162 C   0  0  0  0  0  0  0  0  0  0  0  0
  -24.9240  -11.8761   21.4812 C   0  0  0  0  0  0  0  0  0  0  0  0
  -29.7051  -21.0551   19.4553 C   0  0  0  0  0  0  0  0  0  0  0  0
  -29.3690  -18.4309   19.8575 C   0  0  0  0  0  0  0  0  0  0  0  0
  -25.0808  -13.7343   20.3160 C   0  0  0  0  0  0  0  0  0  0  0  0
  -22.8020  -13.3113   21.2524 C   0  0  0  0  0  0  0  0  0  0  0  0
  -26.7886  -30.5256   24.6230 C   0  0  0  0  0  0  0  0  0  0  0  0
  -23.8490  -30.7483   23.2696 C   0  0  0  0  0  0  0  0  0  0  0  0
  -21.8487  -30.1458   20.5710 C   0  0  0  0  0  0  0  0  0  0  0  0
  -30.1158  -16.0302   19.6994 C   0  0  0  0  0  0  0  0  0  0  0  0
  -27.2597  -32.4698   29.3194 C   0  0  0  0  0  0  0  0  0  0  0  0
  -27.3341  -31.6008   22.4089 C   0  0  0  0  0  0  0  0  0  0  0  0
  -25.5275  -29.2818   22.0875 C   0  0  0  0  0  0  0  0  0  0  0  0
  -26.1518  -31.7758   28.5311 C   0  0  0  0  0  0  0  0  0  0  0  0
  -29.7541  -12.6269   18.7175 C   0  0  0  0  0  0  0  0  0  0  0  0
  -26.6801  -30.5045   27.8742 C   0  0  0  0  0  0  0  0  0  0  0  0
  -28.4042  -12.2195   19.3123 C   0  0  0  0  0  0  0  0  0  0  0  0
  -30.5157  -13.5784   19.6386 C   0  0  0  0  0  0  0  0  0  0  0  0
  -28.4134  -14.3580   20.6591 C   0  0  0  0  0  0  0  0  0  0  0  0
  -27.8002  -30.8235   26.8766 C   0  0  1  0  0  0  0  0  0  0  0  0
  -26.2539  -31.2758   23.4360 C   0  0  1  0  0  0  0  0  0  0  0  0
  -27.5811  -13.4512   19.7379 C   0  0  2  0  0  0  0  0  0  0  0  0
  -19.4830  -30.4056   19.7754 C   0  0  0  0  0  0  0  0  0  0  0  0
  -23.0080  -28.3844   25.0060 C   0  0  0  0  0  0  0  0  0  0  0  0
  -21.0140  -28.0923   23.5205 C   0  0  0  0  0  0  0  0  0  0  0  0
  -21.3004  -30.2021   24.8203 C   0  0  0  0  0  0  0  0  0  0  0  0
  -22.6719  -31.8948   18.3299 C   0  0  0  0  0  0  0  0  0  0  0  0
  -28.9125  -23.4137   19.6400 C   0  0  0  0  0  0  0  0  0  0  0  0
  -28.4020  -25.8795   19.6435 C   0  0  0  0  0  0  0  0  0  1  0  0
  -22.7963  -29.7592   22.8308 C   0  0  1  0  0  0  0  0  0  0  0  0
  -20.8674  -31.0330   19.8265 C   0  0  2  0  0  0  0  0  0  0  0  0
  -29.4038  -24.8033   19.2392 C   0  0  1  0  0  0  0  0  0  0  0  0
  -22.0560  -29.1090   24.0336 C   0  0  0  0  0  0  0  0  0  0  0  0
  -26.1970  -11.9121   21.0785 N   0  0  0  0  0  0  0  0  0  0  0  0
  -30.6679  -20.1991   19.0523 N   0  0  0  0  0  0  0  0  0  0  0  0
  -30.4969  -18.8654   19.2565 N   0  0  0  0  0  0  0  0  0  0  0  0
  -26.2613  -13.0536   20.3721 N   0  0  0  0  0  0  0  0  0  0  0  0
  -25.1660  -30.4709   22.8768 N   0  0  0  0  0  0  0  0  0  0  0  0
  -29.6753  -14.7231   19.9964 N   0  0  0  0  0  0  0  0  0  0  0  0
  -27.1977  -18.8135   20.9051 N   0  0  0  0  0  0  0  0  0  0  0  0
  -24.9690  -14.9016   19.6472 N   0  0  0  0  0  0  0  0  0  0  0  0
  -22.0203  -12.4328   22.0150 N   0  0  0  0  0  0  0  0  0  0  0  0
  -29.2186  -17.0361   20.0565 N   0  0  0  0  0  0  0  0  0  0  0  0
  -29.8792  -22.4129   19.2476 N   0  0  0  0  0  0  0  0  0  0  0  0
  -27.2465  -31.3382   25.6425 N   0  0  0  0  0  0  0  0  0  0  0  0
  -21.9227  -30.4755   21.9078 N   0  0  0  0  0  0  0  0  0  0  0  0
  -21.3321  -31.2606   18.4289 N   0  3  0  0  0  0  0  0  0  0  0  0
  -22.2741  -14.3419   20.7702 O   0  0  0  0  0  0  0  0  0  0  0  0
  -26.7845  -29.3002   24.6151 O   0  0  0  0  0  0  0  0  0  0  0  0
  -23.5140  -31.7347   23.9304 O   0  0  0  0  0  0  0  0  0  0  0  0
  -22.4833  -29.2476   20.0223 O   0  0  0  0  0  0  0  0  0  0  0  0
  -31.1966  -16.2399   19.1427 O   0  0  0  0  0  0  0  0  0  0  0  0
  -30.6327  -25.0773   19.9153 O   0  0  0  0  0  0  0  0  0  0  0  0
  -23.0860   -7.6140   24.5992 O   0  0  0  0  0  0  0  0  0  0  0  0
  -28.9191  -27.1570   19.2733 O   0  0  0  0  0  0  0  0  0  1  0  0
  -18.2364   -5.3590   23.2573 F   0  0  0  0  0  0  0  0  0  0  0  0
  -22.9060   -4.9427   23.9103 F   0  0  0  0  0  0  0  0  0  0  0  0
  1  2  1  0  0  0  0
  1  5  2  0  0  0  0
  2  6  2  0  0  0  0
  3  8  2  0  0  0  0
  3 16  1  0  0  0  0
  4  9  1  0  0  0  0
  4 16  2  0  0  0  0
  5 18  1  0  0  0  0
  6 20  1  0  0  0  0
  7 10  2  0  0  0  0
  7 19  1  0  0  0  0
  8 23  1  0  0  0  0
  9 23  2  0  0  0  0
 10 24  1  0  0  0  0
 11 12  2  0  0  0  0
 11 25  1  0  0  0  0
 12 26  1  0  0  0  0
 13 21  1  0  0  0  0
 13 24  2  0  0  0  0
 14 22  2  0  0  0  0
 14 29  1  0  0  0  0
 15 26  2  0  0  0  0
 15 27  1  0  0  0  0
 16 28  1  0  0  0  0
 17 28  1  0  0  0  0
 17 31  2  0  0  0  0
 17 32  1  0  0  0  0
 18 20  2  0  0  0  0
 18 37  1  0  0  0  0
 19 21  2  0  0  0  0
 19 38  1  0  0  0  0
 20 46  1  0  0  0  0
 21 39  1  0  0  0  0
 22 30  1  0  0  0  0
 22 66  1  0  0  0  0
 23 80  1  0  0  0  0
 24 81  1  0  0  0  0
 25 27  2  0  0  0  0
 25 80  1  0  0  0  0
 26 82  1  0  0  0  0
 27 83  1  0  0  0  0
 28 60  2  0  0  0  0
 29 61  2  0  0  0  0
 29 70  1  0  0  0  0
 30 62  2  0  0  0  0
 30 69  1  0  0  0  0
 31 63  1  0  0  0  0
 31 67  1  0  0  0  0
 32 68  1  0  0  0  0
 32 74  2  0  0  0  0
 33 47  1  0  0  0  0
 33 71  1  0  0  0  0
 33 75  2  0  0  0  0
 34 56  1  0  0  0  0
 34 64  1  0  0  0  0
 34 76  2  0  0  0  0
 35 57  1  0  0  0  0
 35 72  1  0  0  0  0
 35 77  2  0  0  0  0
 36 65  1  0  0  0  0
 36 69  1  0  0  0  0
 36 78  2  0  0  0  0
 37 40  1  0  0  0  0
 38 47  1  0  0  0  0
 39 64  1  0  0  0  0
 40 42  1  0  0  0  0
 41 43  1  0  0  0  0
 41 44  1  0  0  0  0
 42 46  1  0  0  0  0
 43 48  1  0  0  0  0
 44 65  1  0  0  0  0
 45 48  1  0  0  0  0
 45 65  1  0  0  0  0
 46 71  1  0  0  0  0
 47 64  1  0  0  0  0
 48 63  1  0  0  0  0
 49 57  1  0  0  0  0
 50 59  1  0  0  0  0
 51 59  1  0  0  0  0
 52 59  1  0  0  0  0
 53 73  1  0  0  0  0
 54 58  1  0  0  0  0
 54 70  1  0  0  0  0
 55 58  1  0  0  0  0
 55 81  1  0  0  0  0
 56 59  1  0  0  0  0
 56 72  1  0  0  0  0
 57 73  1  0  0  0  0
 58 79  1  0  0  0  0
 60 63  1  0  0  0  0
 61 62  1  0  0  0  0
M  CHG  1  73   1
M  ISO  4  36 100  55 101  69 100  81 101
M  END
> <Batch ID>
0198

> <Smiles>
CNC(C)C(=O)NC(C(=O)N1Cc2cc([101O:1][101CH2:1]C(O)CNc3cc(N)c([100NH:0][100C:0](=O)N4CCCC(n5nc(-c6ccc(Oc7ccc(F)cc7F)cc6)c(C(N)=O)c5N)C4)nn3)ccc2CC1C(=O)NC1CCCc2ccccc21)C(C)(C)C

> <Shape>
0.331

> <Color>
0.137

> <Negative vol penalty>
0.000

$$$$

  -OEChem-04052305443D

 85 93  0     1  0  0  0  0  0999 V2000
  -16.1913  -29.2609   20.2851 C   0  0  0  0  0  0  0  0  0  0  0  0
  -17.4845  -29.3022   19.7740 C   0  0  0  0  0  0  0  0  0  0  0  0
  -26.0638  -12.7768   21.0706 C   0  0  0  0  0  0  0  0  0  0  0  0
  -24.2589  -14.3783   20.9502 C   0  0  0  0  0  0  0  0  0  0  0  0
  -15.9881  -29.2493   21.6645 C   0  0  0  0  0  0  0  0  0  0  0  0
  -18.5754  -29.3331   20.6420 C   0  0  0  0  0  0  0  0  0  0  0  0
  -22.2640  -26.1591   19.2402 C   0  0  0  0  0  0  0  0  0  0  0  0
  -25.1704  -11.8035   21.5179 C   0  0  0  0  0  0  0  0  0  0  0  0
  -23.3654  -13.4050   21.3975 C   0  0  0  0  0  0  0  0  0  0  0  0
  -23.0926  -26.5674   18.1959 C   0  0  0  0  0  0  0  0  0  0  0  0
  -23.3002   -8.7984   22.3467 C   0  0  0  0  0  0  0  0  0  0  0  0
  -23.3830   -7.5296   21.7733 C   0  0  0  0  0  0  0  0  0  0  0  0
  -24.7736  -27.2267   19.7954 C   0  0  0  0  0  0  0  0  0  0  0  0
  -22.9257   -8.4816   19.6004 C   0  0  0  0  0  0  0  0  0  0  0  0
  -28.6560  -22.6472   17.8806 C   0  0  0  0  0  0  0  0  0  0  0  0
  -25.6081  -14.0643   20.7868 C   0  0  0  0  0  0  0  0  0  0  0  0
  -26.8758  -15.3593   18.9915 C   0  0  0  0  0  0  0  0  0  0  0  0
  -17.0774  -29.2703   22.5498 C   0  0  0  0  0  0  0  0  0  0  0  0
  -22.6803  -26.2919   20.5726 C   0  0  0  0  0  0  0  0  0  0  0  0
  -18.3866  -29.3232   22.0345 C   0  0  0  0  0  0  0  0  0  0  0  0
  -23.9495  -26.8170   20.8547 C   0  0  0  0  0  0  0  0  0  0  0  0
  -23.8212  -12.1176   21.6813 C   0  0  0  0  0  0  0  0  0  0  0  0
  -24.3464  -27.1040   18.4735 C   0  0  0  0  0  0  0  0  0  0  0  0
  -23.0301   -9.9089   21.5469 C   0  0  0  0  0  0  0  0  0  0  0  0
  -23.1957   -7.3712   20.4002 C   0  0  0  0  0  0  0  0  0  0  0  0
  -22.8429   -9.7505   20.1738 C   0  0  0  0  0  0  0  0  0  0  0  0
  -26.5306  -15.0703   20.3253 C   0  0  0  0  0  0  0  0  0  0  0  0
  -29.6923  -24.6472   17.4863 C   0  0  0  0  0  0  0  0  0  0  0  0
  -29.2277  -22.5978   19.1329 C   0  0  0  0  0  0  0  0  0  0  0  0
  -30.2635  -24.5983   18.7388 C   0  0  0  0  0  0  0  0  0  0  0  0
  -27.7811  -16.3879   19.0863 C   0  0  0  0  0  0  0  0  0  0  0  0
  -26.4190  -14.7524   17.7755 C   0  0  0  0  0  0  0  0  0  0  0  0
  -21.6259  -27.9021   23.1023 C   0  0  0  0  0  0  0  0  0  0  0  0
  -23.9586  -26.2515   24.6374 C   0  0  0  0  0  0  0  0  0  0  0  0
  -26.9230  -24.5712   24.4481 C   0  0  0  0  0  0  0  0  0  0  0  0
  -29.4220  -21.2483   21.2512 C   0  0  0  0  0  0  0  0  0  0  0  0
  -16.8067  -29.3043   24.0331 C   0  0  0  0  0  0  0  0  0  0  0  0
  -21.7856  -25.8221   21.6867 C   0  0  0  0  0  0  0  0  0  0  0  0
  -24.4517  -26.9620   22.2672 C   0  0  0  0  0  0  0  0  0  0  0  0
  -18.0272  -28.9605   24.8830 C   0  0  0  0  0  0  0  0  0  0  0  0
  -30.1761  -18.3075   23.1113 C   0  0  0  0  0  0  0  0  0  0  0  0
  -19.2539  -29.7198   24.3874 C   0  0  0  0  0  0  0  0  0  0  0  0
  -29.3233  -17.2269   22.4426 C   0  0  0  0  0  0  0  0  0  0  0  0
  -29.4539  -19.6529   23.1561 C   0  0  0  0  0  0  0  0  0  0  0  0
  -28.0924  -19.0473   21.1943 C   0  0  0  0  0  0  0  0  0  0  0  0
  -19.5963  -29.3326   22.9437 C   0  0  1  0  0  0  0  0  0  0  0  0
  -22.1036  -26.4795   23.0261 C   0  0  1  0  0  0  0  0  0  0  0  0
  -28.8034  -17.6900   21.0675 C   0  0  2  0  0  0  0  0  0  0  0  0
  -31.1364  -25.5543   15.6195 C   0  0  0  0  0  0  0  0  0  0  0  0
  -28.8633  -23.1783   25.2179 C   0  0  0  0  0  0  0  0  0  0  0  0
  -25.0085  -28.9288   25.6573 C   0  0  0  0  0  0  0  0  0  0  0  0
  -27.1538  -27.7825   26.2504 C   0  0  0  0  0  0  0  0  0  0  0  0
  -25.0252  -27.0883   27.3504 C   0  0  0  0  0  0  0  0  0  0  0  0
  -25.5178  -22.0481   23.8013 C   0  0  0  0  0  0  0  0  0  0  0  0
  -27.5652  -26.5557   16.4520 C   0  0  0  0  0  0  0  0  0  0  0  0
  -25.0321  -26.8101   16.2153 C   0  0  0  0  0  0  0  0  0  1  0  0
  -29.9439  -25.7990   16.5408 C   0  0  1  0  0  0  0  0  0  0  0  0
  -25.4214  -26.4870   24.9269 C   0  0  1  0  0  0  0  0  0  0  0  0
  -27.3578  -23.2292   25.0089 C   0  0  2  0  0  0  0  0  0  0  0  0
  -26.3872  -26.8080   15.5150 C   0  0  1  0  0  0  0  0  0  0  0  0
  -25.6423  -27.5708   26.0196 C   0  0  0  0  0  0  0  0  0  0  0  0
  -28.8781  -23.6728   17.0348 N   0  0  0  0  0  0  0  0  0  0  0  0
  -27.1650  -15.8520   21.2031 N   0  0  0  0  0  0  0  0  0  0  0  0
  -30.0417  -23.5726   19.5845 N   0  0  0  0  0  0  0  0  0  0  0  0
  -27.9180  -16.6423   20.4192 N   0  0  0  0  0  0  0  0  0  0  0  0
  -23.5376  -26.4941   23.3222 N   0  0  0  0  0  0  0  0  0  0  0  0
  -28.9936  -20.0291   21.8177 N   0  0  0  0  0  0  0  0  0  0  0  0
  -31.1077  -25.6519   19.1550 N   0  0  0  0  0  0  0  0  0  0  0  0
  -28.4654  -17.0905   18.1587 N   0  0  0  0  0  0  0  0  0  0  0  0
  -25.4879  -13.7081   17.8587 N   0  0  0  0  0  0  0  0  0  0  0  0
  -28.9459  -21.4837   19.9618 N   0  0  0  0  0  0  0  0  0  0  0  0
  -20.2656  -28.0498   22.9096 N   0  0  0  0  0  0  0  0  0  0  0  0
  -25.9876  -25.1832   25.2554 N   0  0  0  0  0  0  0  0  0  0  0  0
  -26.9751  -22.1303   24.0778 N   0  3  0  0  0  0  0  0  0  0  0  0
  -28.7622  -26.1150   15.6933 N   0  3  0  0  0  0  0  0  0  0  0  0
  -26.8369  -15.1140   16.6494 O   0  0  0  0  0  0  0  0  0  0  0  0
  -22.4316  -28.7990   23.3213 O   0  0  0  0  0  0  0  0  0  0  0  0
  -23.2184  -25.8596   25.5430 O   0  0  0  0  0  0  0  0  0  0  0  0
  -27.3714  -25.0323   23.4008 O   0  0  0  0  0  0  0  0  0  0  0  0
  -30.1789  -22.0135   21.8542 O   0  0  0  0  0  0  0  0  0  0  0  0
  -26.5592  -28.0655   14.8597 O   0  0  0  0  0  0  0  0  0  0  0  0
  -22.9491  -11.1681   22.1175 O   0  0  0  0  0  0  0  0  0  0  0  0
  -25.1569  -27.5038   17.4561 O   0  0  0  0  0  0  0  0  0  1  0  0
  -23.2767   -6.1528   19.8495 F   0  0  0  0  0  0  0  0  0  0  0  0
  -22.5843  -10.8138   19.4002 F   0  0  0  0  0  0  0  0  0  0  0  0
  1  2  1  0  0  0  0
  1  5  2  0  0  0  0
  2  6  2  0  0  0  0
  3  8  2  0  0  0  0
  3 16  1  0  0  0  0
  4  9  1  0  0  0  0
  4 16  2  0  0  0  0
  5 18  1  0  0  0  0
  6 20  1  0  0  0  0
  7 10  2  0  0  0  0
  7 19  1  0  0  0  0
  8 22  1  0  0  0  0
  9 22  2  0  0  0  0
 10 23  1  0  0  0  0
 11 12  2  0  0  0  0
 11 24  1  0  0  0  0
 12 25  1  0  0  0  0
 13 21  1  0  0  0  0
 13 23  2  0  0  0  0
 14 25  2  0  0  0  0
 14 26  1  0  0  0  0
 15 29  1  0  0  0  0
 15 62  2  0  0  0  0
 16 27  1  0  0  0  0
 17 27  1  0  0  0  0
 17 31  2  0  0  0  0
 17 32  1  0  0  0  0
 18 20  2  0  0  0  0
 18 37  1  0  0  0  0
 19 21  2  0  0  0  0
 19 38  1  0  0  0  0
 20 46  1  0  0  0  0
 21 39  1  0  0  0  0
 22 82  1  0  0  0  0
 23 83  1  0  0  0  0
 24 26  2  0  0  0  0
 24 82  1  0  0  0  0
 25 84  1  0  0  0  0
 26 85  1  0  0  0  0
 27 63  2  0  0  0  0
 28 30  2  0  0  0  0
 28 57  1  0  0  0  0
 28 62  1  0  0  0  0
 29 64  2  0  0  0  0
 29 71  1  0  0  0  0
 30 64  1  0  0  0  0
 30 68  1  0  0  0  0
 31 65  1  0  0  0  0
 31 69  1  0  0  0  0
 32 70  1  0  0  0  0
 32 76  2  0  0  0  0
 33 47  1  0  0  0  0
 33 72  1  0  0  0  0
 33 77  2  0  0  0  0
 34 58  1  0  0  0  0
 34 66  1  0  0  0  0
 34 78  2  0  0  0  0
 35 59  1  0  0  0  0
 35 73  1  0  0  0  0
 35 79  2  0  0  0  0
 36 67  1  0  0  0  0
 36 71  1  0  0  0  0
 36 80  2  0  0  0  0
 37 40  1  0  0  0  0
 38 47  1  0  0  0  0
 39 66  1  0  0  0  0
 40 42  1  0  0  0  0
 41 43  1  0  0  0  0
 41 44  1  0  0  0  0
 42 46  1  0  0  0  0
 43 48  1  0  0  0  0
 44 67  1  0  0  0  0
 45 48  1  0  0  0  0
 45 67  1  0  0  0  0
 46 72  1  0  0  0  0
 47 66  1  0  0  0  0
 48 65  1  0  0  0  0
 49 57  1  0  0  0  0
 50 59  1  0  0  0  0
 51 61  1  0  0  0  0
 52 61  1  0  0  0  0
 53 61  1  0  0  0  0
 54 74  1  0  0  0  0
 55 60  1  0  0  0  0
 55 75  1  0  0  0  0
 56 60  1  0  0  0  0
 56 83  1  0  0  0  0
 57 75  1  0  0  0  0
 58 61  1  0  0  0  0
 58 73  1  0  0  0  0
 59 74  1  0  0  0  0
 60 81  1  0  0  0  0
 63 65  1  0  0  0  0
M  CHG  2  74   1  75   1
M  ISO  4  36 100  56 101  71 100  83 101
M  END
> <Batch ID>
0198

> <Smiles>
CNC(C)C(=O)NC(C(=O)N1Cc2cc([101O:1][101CH2:1]C(O)CNC(C)c3ncc([100NH:0][100C:0](=O)N4CCCC(n5nc(-c6ccc(Oc7ccc(F)cc7F)cc6)c(C(N)=O)c5N)C4)nc3N)ccc2CC1C(=O)NC1CCCc2ccccc21)C(C)(C)C

> <Shape>
0.224

> <Color>
0.057

> <Negative vol penalty>
0.000

$$$$

  -OEChem-04052305443D

 82 90  0     1  0  0  0  0  0999 V2000
  -21.4898  -13.0600   19.5628 C   0  0  0  0  0  0  0  0  0  0  0  0
  -21.5753  -14.4139   19.8711 C   0  0  0  0  0  0  0  0  0  0  0  0
  -30.3379  -27.5997   21.2263 C   0  0  0  0  0  0  0  0  0  0  0  0
  -29.1216  -26.2039   22.7786 C   0  0  0  0  0  0  0  0  0  0  0  0
  -22.5738  -12.2195   19.8127 C   0  0  0  0  0  0  0  0  0  0  0  0
  -22.7447  -14.9280   20.4304 C   0  0  0  0  0  0  0  0  0  0  0  0
  -24.1761  -19.2830   18.2788 C   0  0  0  0  0  0  0  0  0  0  0  0
  -31.5197  -27.3429   21.9212 C   0  0  0  0  0  0  0  0  0  0  0  0
  -30.3035  -25.9470   23.4735 C   0  0  0  0  0  0  0  0  0  0  0  0
  -23.4940  -20.4370   18.6621 C   0  0  0  0  0  0  0  0  0  0  0  0
  -34.9184  -26.7648   23.0741 C   0  0  0  0  0  0  0  0  0  0  0  0
  -36.0558  -26.4570   22.3277 C   0  0  0  0  0  0  0  0  0  0  0  0
  -25.3050  -21.0056   20.1507 C   0  0  0  0  0  0  0  0  0  0  0  0
  -34.9249  -24.5358   21.3966 C   0  0  0  0  0  0  0  0  0  0  0  0
  -19.6808  -24.2161   22.7003 C   0  0  0  0  0  0  0  0  0  0  0  0
  -29.1388  -27.0303   21.6550 C   0  0  0  0  0  0  0  0  0  0  0  0
  -27.3869  -26.5603   19.8612 C   0  0  0  0  0  0  0  0  0  0  0  0
  -23.7605  -12.7253   20.3664 C   0  0  0  0  0  0  0  0  0  0  0  0
  -25.4249  -18.9756   18.8376 C   0  0  0  0  0  0  0  0  0  0  0  0
  -23.8451  -14.0932   20.6891 C   0  0  0  0  0  0  0  0  0  0  0  0
  -26.0021  -19.8485   19.7709 C   0  0  0  0  0  0  0  0  0  0  0  0
  -31.5025  -26.5165   23.0448 C   0  0  0  0  0  0  0  0  0  0  0  0
  -24.0571  -21.2970   19.6004 C   0  0  0  0  0  0  0  0  0  0  0  0
  -33.7843  -25.9580   22.9819 C   0  0  0  0  0  0  0  0  0  0  0  0
  -36.0591  -25.3425   21.4889 C   0  0  0  0  0  0  0  0  0  0  0  0
  -33.7875  -24.8435   22.1431 C   0  0  0  0  0  0  0  0  0  0  0  0
  -27.9176  -27.2958   20.9380 C   0  0  0  0  0  0  0  0  0  0  0  0
  -19.9404  -26.8684   22.5411 C   0  0  0  0  0  0  0  0  0  0  0  0
  -20.8345  -24.7893   22.2124 C   0  0  0  0  0  0  0  0  0  0  0  0
  -18.7865  -26.2950   23.0282 C   0  0  0  0  0  0  0  0  0  0  0  0
  -26.2231  -27.2146   19.5390 C   0  0  0  0  0  0  0  0  0  0  0  0
  -27.9002  -25.3903   19.2106 C   0  0  0  0  0  0  0  0  0  0  0  0
  -26.5680  -16.5893   20.5990 C   0  0  0  0  0  0  0  0  0  0  0  0
  -29.3923  -18.1153   20.1329 C   0  0  0  0  0  0  0  0  0  0  0  0
  -31.0317  -21.0241   19.4272 C   0  0  0  0  0  0  0  0  0  0  0  0
  -21.8539  -30.0625   22.0518 C   0  0  0  0  0  0  0  0  0  0  0  0
  -24.8887  -11.7692   20.6623 C   0  0  0  0  0  0  0  0  0  0  0  0
  -26.1600  -17.7407   18.3936 C   0  0  0  0  0  0  0  0  0  0  0  0
  -27.3495  -19.5743   20.3855 C   0  0  0  0  0  0  0  0  0  0  0  0
  -26.2258  -12.4628   20.9099 C   0  0  0  0  0  0  0  0  0  0  0  0
  -24.4545  -31.7655   20.3159 C   0  0  0  0  0  0  0  0  0  0  0  0
  -26.0485  -13.6384   21.8656 C   0  0  0  0  0  0  0  0  0  0  0  0
  -25.5633  -30.7182   20.1993 C   0  0  0  0  0  0  0  0  0  0  0  0
  -23.7090  -31.6527   21.6439 C   0  0  0  0  0  0  0  0  0  0  0  0
  -24.2842  -29.2631   21.8258 C   0  0  0  0  0  0  0  0  0  0  0  0
  -25.1054  -14.6930   21.2740 C   0  0  1  0  0  0  0  0  0  0  0  0
  -27.1926  -17.2623   19.4096 C   0  0  1  0  0  0  0  0  0  0  0  0
  -25.0279  -29.3012   20.4798 C   0  0  2  0  0  0  0  0  0  0  0  0
  -33.3410  -21.9669   19.1519 C   0  0  0  0  0  0  0  0  0  0  0  0
  -29.7562  -18.1021   23.1623 C   0  0  0  0  0  0  0  0  0  0  0  0
  -31.5344  -19.8428   22.8864 C   0  0  0  0  0  0  0  0  0  0  0  0
  -31.8287  -17.5882   21.8604 C   0  0  0  0  0  0  0  0  0  0  0  0
  -30.5109  -21.7864   16.6154 C   0  0  0  0  0  0  0  0  0  0  0  0
  -20.1034  -28.3477   22.4449 C   0  0  0  0  0  0  0  0  0  0  0  0
  -23.1191  -24.4307   21.2757 C   0  0  0  0  0  0  0  0  0  0  0  0
  -24.0288  -23.2600   20.9427 C   0  0  0  0  0  0  0  0  0  1  0  0
  -30.1555  -19.1970   20.8585 C   0  0  1  0  0  0  0  0  0  0  0  0
  -32.1481  -21.3391   18.4479 C   0  0  2  0  0  0  0  0  0  0  0  0
  -30.7924  -18.6870   22.1819 C   0  0  0  0  0  0  0  0  0  0  0  0
  -18.6361  -24.9586   23.1169 N   0  0  0  0  0  0  0  0  0  0  0  0
  -27.1536  -28.3376   21.2770 N   0  0  0  0  0  0  0  0  0  0  0  0
  -20.9850  -26.1257   22.1241 N   0  0  0  0  0  0  0  0  0  0  0  0
  -26.1311  -28.2616   20.4082 N   0  0  0  0  0  0  0  0  0  0  0  0
  -28.0260  -18.3509   19.9238 N   0  0  0  0  0  0  0  0  0  0  0  0
  -23.2258  -30.2850   21.8484 N   0  0  0  0  0  0  0  0  0  0  0  0
  -17.7259  -27.1284   23.4494 N   0  0  0  0  0  0  0  0  0  0  0  0
  -25.2797  -26.9908   18.5997 N   0  0  0  0  0  0  0  0  0  0  0  0
  -29.1086  -24.8473   19.6679 N   0  0  0  0  0  0  0  0  0  0  0  0
  -21.8616  -23.9543   21.8045 N   0  0  0  0  0  0  0  0  0  0  0  0
  -25.7958  -15.4883   20.2814 N   0  0  0  0  0  0  0  0  0  0  0  0
  -31.1166  -19.7315   19.8999 N   0  0  0  0  0  0  0  0  0  0  0  0
  -21.4796  -28.7364   22.2311 N   0  0  0  0  0  0  0  0  0  0  0  0
  -31.6678  -22.2860   17.4021 N   0  3  0  0  0  0  0  0  0  0  0  0
  -27.3132  -24.8522   18.2414 O   0  0  0  0  0  0  0  0  0  0  0  0
  -26.7728  -17.0350   21.7220 O   0  0  0  0  0  0  0  0  0  0  0  0
  -29.9879  -17.1019   19.7590 O   0  0  0  0  0  0  0  0  0  0  0  0
  -30.1727  -21.8439   19.7443 O   0  0  0  0  0  0  0  0  0  0  0  0
  -21.0233  -30.9773   22.0667 O   0  0  0  0  0  0  0  0  0  0  0  0
  -32.6556  -26.2654   23.7230 O   0  0  0  0  0  0  0  0  0  0  0  0
  -23.3932  -22.4237   19.9768 O   0  0  0  0  0  0  0  0  0  1  0  0
  -37.1509  -25.0480   20.7710 F   0  0  0  0  0  0  0  0  0  0  0  0
  -32.7005  -24.0654   22.0494 F   0  0  0  0  0  0  0  0  0  0  0  0
  1  2  1  0  0  0  0
  1  5  2  0  0  0  0
  2  6  2  0  0  0  0
  3  8  2  0  0  0  0
  3 16  1  0  0  0  0
  4  9  1  0  0  0  0
  4 16  2  0  0  0  0
  5 18  1  0  0  0  0
  6 20  1  0  0  0  0
  7 10  2  0  0  0  0
  7 19  1  0  0  0  0
  8 22  1  0  0  0  0
  9 22  2  0  0  0  0
 10 23  1  0  0  0  0
 11 12  2  0  0  0  0
 11 24  1  0  0  0  0
 12 25  1  0  0  0  0
 13 21  1  0  0  0  0
 13 23  2  0  0  0  0
 14 25  2  0  0  0  0
 14 26  1  0  0  0  0
 15 29  1  0  0  0  0
 15 60  2  0  0  0  0
 16 27  1  0  0  0  0
 17 27  1  0  0  0  0
 17 31  2  0  0  0  0
 17 32  1  0  0  0  0
 18 20  2  0  0  0  0
 18 37  1  0  0  0  0
 19 21  2  0  0  0  0
 19 38  1  0  0  0  0
 20 46  1  0  0  0  0
 21 39  1  0  0  0  0
 22 79  1  0  0  0  0
 23 80  1  0  0  0  0
 24 26  2  0  0  0  0
 24 79  1  0  0  0  0
 25 81  1  0  0  0  0
 26 82  1  0  0  0  0
 27 61  2  0  0  0  0
 28 30  2  0  0  0  0
 28 54  1  0  0  0  0
 28 62  1  0  0  0  0
 29 62  2  0  0  0  0
 29 69  1  0  0  0  0
 30 60  1  0  0  0  0
 30 66  1  0  0  0  0
 31 63  1  0  0  0  0
 31 67  1  0  0  0  0
 32 68  1  0  0  0  0
 32 74  2  0  0  0  0
 33 47  1  0  0  0  0
 33 70  1  0  0  0  0
 33 75  2  0  0  0  0
 34 57  1  0  0  0  0
 34 64  1  0  0  0  0
 34 76  2  0  0  0  0
 35 58  1  0  0  0  0
 35 71  1  0  0  0  0
 35 77  2  0  0  0  0
 36 65  1  0  0  0  0
 36 72  1  0  0  0  0
 36 78  2  0  0  0  0
 37 40  1  0  0  0  0
 38 47  1  0  0  0  0
 39 64  1  0  0  0  0
 40 42  1  0  0  0  0
 41 43  1  0  0  0  0
 41 44  1  0  0  0  0
 42 46  1  0  0  0  0
 43 48  1  0  0  0  0
 44 65  1  0  0  0  0
 45 48  1  0  0  0  0
 45 65  1  0  0  0  0
 46 70  1  0  0  0  0
 47 64  1  0  0  0  0
 48 63  1  0  0  0  0
 49 58  1  0  0  0  0
 50 59  1  0  0  0  0
 51 59  1  0  0  0  0
 52 59  1  0  0  0  0
 53 73  1  0  0  0  0
 54 72  1  0  0  0  0
 55 56  1  0  0  0  0
 55 69  1  0  0  0  0
 56 80  1  0  0  0  0
 57 59  1  0  0  0  0
 57 71  1  0  0  0  0
 58 73  1  0  0  0  0
 61 63  1  0  0  0  0
M  CHG  1  73   1
M  ISO  4  36 100  56 101  72 100  80 101
M  END
> <Batch ID>
0198

> <Smiles>
CNC(C)C(=O)NC(C(=O)N1Cc2cc([101O:1][101CH2:1]CNc3cnc(N)c(C[100NH:0][100C:0](=O)N4CCCC(n5nc(-c6ccc(Oc7ccc(F)cc7F)cc6)c(C(N)=O)c5N)C4)n3)ccc2CC1C(=O)NC1CCCc2ccccc21)C(C)(C)C

> <Shape>
0.225

> <Color>
0.068

> <Negative vol penalty>
0.000

$$$$

  -OEChem-04052305443D

 84 92  0     1  0  0  0  0  0999 V2000
  -26.4912  -35.4616   22.6558 C   0  0  0  0  0  0  0  0  0  0  0  0
  -26.9683  -34.1663   22.4827 C   0  0  0  0  0  0  0  0  0  0  0  0
  -24.7222   -8.8934   20.8205 C   0  0  0  0  0  0  0  0  0  0  0  0
  -23.0084  -10.5734   21.0993 C   0  0  0  0  0  0  0  0  0  0  0  0
  -25.2350  -35.6705   23.2235 C   0  0  0  0  0  0  0  0  0  0  0  0
  -26.1900  -33.0791   22.8784 C   0  0  0  0  0  0  0  0  0  0  0  0
  -26.1186  -29.3802   19.4203 C   0  0  0  0  0  0  0  0  0  0  0  0
  -23.7612   -7.8911   20.9532 C   0  0  0  0  0  0  0  0  0  0  0  0
  -22.0474   -9.5711   21.2320 C   0  0  0  0  0  0  0  0  0  0  0  0
  -27.2352  -28.5479   19.3552 C   0  0  0  0  0  0  0  0  0  0  0  0
  -21.3931   -6.4397   19.0249 C   0  0  0  0  0  0  0  0  0  0  0  0
  -21.4345   -5.3783   18.1210 C   0  0  0  0  0  0  0  0  0  0  0  0
  -26.0547  -26.8744   20.6300 C   0  0  0  0  0  0  0  0  0  0  0  0
  -21.7456   -3.8319   19.9511 C   0  0  0  0  0  0  0  0  0  0  0  0
  -27.9535  -19.0823   20.5817 C   0  0  0  0  0  0  0  0  0  0  0  0
  -24.3458  -10.2346   20.8936 C   0  0  0  0  0  0  0  0  0  0  0  0
  -25.7566  -11.8952   19.5671 C   0  0  0  0  0  0  0  0  0  0  0  0
  -24.4368  -34.5850   23.6174 C   0  0  0  0  0  0  0  0  0  0  0  0
  -24.9636  -28.9696   20.1013 C   0  0  0  0  0  0  0  0  0  0  0  0
  -24.9225  -33.2737   23.4531 C   0  0  0  0  0  0  0  0  0  0  0  0
  -24.9239  -27.7024   20.7001 C   0  0  0  0  0  0  0  0  0  0  0  0
  -22.4239   -8.2300   21.1589 C   0  0  0  0  0  0  0  0  0  0  0  0
  -27.2044  -27.2960   19.9625 C   0  0  0  0  0  0  0  0  0  0  0  0
  -21.5280   -6.1974   20.3920 C   0  0  0  0  0  0  0  0  0  0  0  0
  -21.6107   -4.0744   18.5840 C   0  0  0  0  0  0  0  0  0  0  0  0
  -21.7042   -4.8935   20.8550 C   0  0  0  0  0  0  0  0  0  0  0  0
  -25.3380  -11.2704   20.7572 C   0  0  0  0  0  0  0  0  0  0  0  0
  -28.4658  -18.6540   21.7866 C   0  0  0  0  0  0  0  0  0  0  0  0
  -29.1000  -21.0496   20.7935 C   0  0  0  0  0  0  0  0  0  0  0  0
  -29.6118  -20.6217   21.9987 C   0  0  0  0  0  0  0  0  0  0  0  0
  -26.7080  -12.8000   19.9706 C   0  0  0  0  0  0  0  0  0  0  0  0
  -25.3241  -11.6773   18.2176 C   0  0  0  0  0  0  0  0  0  0  0  0
  -23.3465  -30.0369   22.6212 C   0  0  0  0  0  0  0  0  0  0  0  0
  -21.2531  -27.7082   21.7743 C   0  0  0  0  0  0  0  0  0  0  0  0
  -20.7103  -24.7407   20.1787 C   0  0  0  0  0  0  0  0  0  0  0  0
  -28.4964  -16.7622   23.4498 C   0  0  0  0  0  0  0  0  0  0  0  0
  -23.1055  -34.8619   24.2699 C   0  0  0  0  0  0  0  0  0  0  0  0
  -23.7581  -29.8683   20.1396 C   0  0  0  0  0  0  0  0  0  0  0  0
  -23.7010  -27.2062   21.4260 C   0  0  0  0  0  0  0  0  0  0  0  0
  -22.1859  -33.6444   24.3182 C   0  0  0  0  0  0  0  0  0  0  0  0
  -29.0161  -13.3812   24.4379 C   0  0  0  0  0  0  0  0  0  0  0  0
  -22.9505  -32.4168   24.8032 C   0  0  0  0  0  0  0  0  0  0  0  0
  -28.1399  -12.5821   23.4705 C   0  0  0  0  0  0  0  0  0  0  0  0
  -28.3621  -14.7035   24.8350 C   0  0  0  0  0  0  0  0  0  0  0  0
  -27.0603  -14.7486   22.7440 C   0  0  0  0  0  0  0  0  0  0  0  0
  -24.0973  -32.0678   23.8469 C   0  0  1  0  0  0  0  0  0  0  0  0
  -22.8172  -29.5569   21.2994 C   0  0  1  0  0  0  0  0  0  0  0  0
  -27.7061  -13.4383   22.2646 C   0  0  2  0  0  0  0  0  0  0  0  0
  -31.2801  -22.5606   17.9996 C   0  0  0  0  0  0  0  0  0  0  0  0
  -18.9043  -23.0681   19.6904 C   0  0  0  0  0  0  0  0  0  0  0  0
  -21.4476  -26.6664   24.6356 C   0  0  0  0  0  0  0  0  0  0  0  0
  -20.4213  -24.5220   23.8506 C   0  0  0  0  0  0  0  0  0  0  0  0
  -19.1383  -26.6541   23.6756 C   0  0  0  0  0  0  0  0  0  0  0  0
  -20.9743  -25.1350   17.2575 C   0  0  0  0  0  0  0  0  0  0  0  0
  -29.7900  -22.2562   17.9102 C   0  0  0  0  0  0  0  0  0  0  0  0
  -29.1451  -24.3829   19.1066 C   0  0  0  0  0  0  0  0  0  0  0  0
  -28.0539  -25.0751   19.9172 C   0  0  0  0  0  0  0  0  0  1  0  0
  -21.0845  -26.2470   22.1140 C   0  0  1  0  0  0  0  0  0  0  0  0
  -19.6367  -24.3063   19.1973 C   0  0  2  0  0  0  0  0  0  0  0  0
  -28.9904  -22.8566   19.0764 C   0  0  2  0  0  0  0  0  0  0  0  0
  -20.5468  -26.0322   23.5570 C   0  0  0  0  0  0  0  0  0  0  0  0
  -28.2615  -20.2878   20.0635 N   0  0  0  0  0  0  0  0  0  0  0  0
  -25.9717  -11.7385   21.8358 N   0  0  0  0  0  0  0  0  0  0  0  0
  -29.3041  -19.4161   22.5167 N   0  0  0  0  0  0  0  0  0  0  0  0
  -26.7982  -12.6670   21.3250 N   0  0  0  0  0  0  0  0  0  0  0  0
  -22.5500  -28.1241   21.4413 N   0  0  0  0  0  0  0  0  0  0  0  0
  -27.9817  -15.4626   23.6417 N   0  0  0  0  0  0  0  0  0  0  0  0
  -27.4679  -13.6882   19.2954 N   0  0  0  0  0  0  0  0  0  0  0  0
  -24.3381  -10.7099   17.9800 N   0  0  0  0  0  0  0  0  0  0  0  0
  -28.0910  -17.3736   22.2639 N   0  0  0  0  0  0  0  0  0  0  0  0
  -29.4637  -22.2997   20.3279 N   0  0  0  0  0  0  0  0  0  0  0  0
  -23.5878  -31.3966   22.6703 N   0  0  0  0  0  0  0  0  0  0  0  0
  -20.2374  -25.6803   21.0702 N   0  0  0  0  0  0  0  0  0  0  0  0
  -20.2418  -23.9974   17.8709 N   0  3  0  0  0  0  0  0  0  0  0  0
  -25.8096  -12.3098   17.2493 O   0  0  0  0  0  0  0  0  0  0  0  0
  -23.5216  -29.2333   23.5297 O   0  0  0  0  0  0  0  0  0  0  0  0
  -20.2690  -28.4516   21.7964 O   0  0  0  0  0  0  0  0  0  0  0  0
  -21.8530  -24.2886   20.1591 O   0  0  0  0  0  0  0  0  0  0  0  0
  -29.2638  -17.2830   24.2634 O   0  0  0  0  0  0  0  0  0  0  0  0
  -21.4859   -7.2522   21.2882 O   0  0  0  0  0  0  0  0  0  0  0  0
  -28.2931  -26.4818   19.9010 O   0  0  0  0  0  0  0  0  0  1  0  0
  -21.6489   -3.0549   17.7160 F   0  0  0  0  0  0  0  0  0  0  0  0
  -21.8332   -4.6543   22.1673 F   0  0  0  0  0  0  0  0  0  0  0  0
  -30.4441  -21.4089   22.6970 F   0  0  0  0  0  0  0  0  0  0  0  0
  1  2  1  0  0  0  0
  1  5  2  0  0  0  0
  2  6  2  0  0  0  0
  3  8  2  0  0  0  0
  3 16  1  0  0  0  0
  4  9  1  0  0  0  0
  4 16  2  0  0  0  0
  5 18  1  0  0  0  0
  6 20  1  0  0  0  0
  7 10  2  0  0  0  0
  7 19  1  0  0  0  0
  8 22  1  0  0  0  0
  9 22  2  0  0  0  0
 10 23  1  0  0  0  0
 11 12  2  0  0  0  0
 11 24  1  0  0  0  0
 12 25  1  0  0  0  0
 13 21  1  0  0  0  0
 13 23  2  0  0  0  0
 14 25  2  0  0  0  0
 14 26  1  0  0  0  0
 15 28  1  0  0  0  0
 15 62  2  0  0  0  0
 16 27  1  0  0  0  0
 17 27  1  0  0  0  0
 17 31  2  0  0  0  0
 17 32  1  0  0  0  0
 18 20  2  0  0  0  0
 18 37  1  0  0  0  0
 19 21  2  0  0  0  0
 19 38  1  0  0  0  0
 20 46  1  0  0  0  0
 21 39  1  0  0  0  0
 22 80  1  0  0  0  0
 23 81  1  0  0  0  0
 24 26  2  0  0  0  0
 24 80  1  0  0  0  0
 25 82  1  0  0  0  0
 26 83  1  0  0  0  0
 27 63  2  0  0  0  0
 28 64  2  0  0  0  0
 28 70  1  0  0  0  0
 29 30  2  0  0  0  0
 29 62  1  0  0  0  0
 29 71  1  0  0  0  0
 30 64  1  0  0  0  0
 30 84  1  0  0  0  0
 31 65  1  0  0  0  0
 31 68  1  0  0  0  0
 32 69  1  0  0  0  0
 32 75  2  0  0  0  0
 33 47  1  0  0  0  0
 33 72  1  0  0  0  0
 33 76  2  0  0  0  0
 34 58  1  0  0  0  0
 34 66  1  0  0  0  0
 34 77  2  0  0  0  0
 35 59  1  0  0  0  0
 35 73  1  0  0  0  0
 35 78  2  0  0  0  0
 36 67  1  0  0  0  0
 36 70  1  0  0  0  0
 36 79  2  0  0  0  0
 37 40  1  0  0  0  0
 38 47  1  0  0  0  0
 39 66  1  0  0  0  0
 40 42  1  0  0  0  0
 41 43  1  0  0  0  0
 41 44  1  0  0  0  0
 42 46  1  0  0  0  0
 43 48  1  0  0  0  0
 44 67  1  0  0  0  0
 45 48  1  0  0  0  0
 45 67  1  0  0  0  0
 46 72  1  0  0  0  0
 47 66  1  0  0  0  0
 48 65  1  0  0  0  0
 49 55  1  0  0  0  0
 50 59  1  0  0  0  0
 51 61  1  0  0  0  0
 52 61  1  0  0  0  0
 53 61  1  0  0  0  0
 54 74  1  0  0  0  0
 55 60  1  0  0  0  0
 56 57  1  0  0  0  0
 56 60  1  0  0  0  0
 57 81  1  0  0  0  0
 58 61  1  0  0  0  0
 58 73  1  0  0  0  0
 59 74  1  0  0  0  0
 60 71  1  0  0  0  0
 63 65  1  0  0  0  0
M  CHG  1  74   1
M  ISO  4  36 100  57 101  70 100  81 101
M  END
> <Batch ID>
0198

> <Smiles>
CCC(C[101CH2:1][101O:1]c1ccc2c(c1)CN(C(=O)C(NC(=O)C(C)NC)C(C)(C)C)C(C(=O)NC1CCCc3ccccc31)C2)Nc1ncc([100NH:0][100C:0](=O)N2CCCC(n3nc(-c4ccc(Oc5ccc(F)cc5F)cc4)c(C(N)=O)c3N)C2)nc1F

> <Shape>
0.279

> <Color>
0.101

> <Negative vol penalty>
0.000

$$$$

  -OEChem-04052305443D

 82 90  0     1  0  0  0  0  0999 V2000
  -30.9255  -35.0036   26.8667 C   0  0  0  0  0  0  0  0  0  0  0  0
  -31.1302  -33.9621   25.9674 C   0  0  0  0  0  0  0  0  0  0  0  0
  -24.4326   -9.3783   21.3802 C   0  0  0  0  0  0  0  0  0  0  0  0
  -24.7658  -10.5764   23.4516 C   0  0  0  0  0  0  0  0  0  0  0  0
  -29.7610  -35.0431   27.6325 C   0  0  0  0  0  0  0  0  0  0  0  0
  -30.1710  -32.9588   25.8342 C   0  0  0  0  0  0  0  0  0  0  0  0
  -28.6627  -29.9648   20.7091 C   0  0  0  0  0  0  0  0  0  0  0  0
  -24.2667   -8.1912   22.0935 C   0  0  0  0  0  0  0  0  0  0  0  0
  -24.5999   -9.3893   24.1649 C   0  0  0  0  0  0  0  0  0  0  0  0
  -29.0364  -28.7195   20.2057 C   0  0  0  0  0  0  0  0  0  0  0  0
  -21.8276   -6.6801   23.8824 C   0  0  0  0  0  0  0  0  0  0  0  0
  -20.7701   -5.8470   23.5176 C   0  0  0  0  0  0  0  0  0  0  0  0
  -27.0388  -27.7469   21.1454 C   0  0  0  0  0  0  0  0  0  0  0  0
  -22.3363   -4.0744   23.0257 C   0  0  0  0  0  0  0  0  0  0  0  0
  -28.9238  -18.8739   22.7799 C   0  0  0  0  0  0  0  0  0  0  0  0
  -24.6822  -10.5710   22.0592 C   0  0  0  0  0  0  0  0  0  0  0  0
  -23.8523  -12.7150   20.9536 C   0  0  0  0  0  0  0  0  0  0  0  0
  -28.7827  -34.0450   27.5016 C   0  0  0  0  0  0  0  0  0  0  0  0
  -27.4776  -30.1085   21.4450 C   0  0  0  0  0  0  0  0  0  0  0  0
  -28.9930  -32.9842   26.5999 C   0  0  0  0  0  0  0  0  0  0  0  0
  -26.6510  -28.9955   21.6548 C   0  0  0  0  0  0  0  0  0  0  0  0
  -24.3503   -8.1967   23.4858 C   0  0  0  0  0  0  0  0  0  0  0  0
  -28.2259  -27.6097   20.4263 C   0  0  0  0  0  0  0  0  0  0  0  0
  -23.1395   -6.2104   23.8189 C   0  0  0  0  0  0  0  0  0  0  0  0
  -21.0244   -4.5441   23.0893 C   0  0  0  0  0  0  0  0  0  0  0  0
  -23.3938   -4.9075   23.3906 C   0  0  0  0  0  0  0  0  0  0  0  0
  -24.8542  -11.7975   21.3229 C   0  0  0  0  0  0  0  0  0  0  0  0
  -30.0660  -18.2884   22.2752 C   0  0  0  0  0  0  0  0  0  0  0  0
  -24.5241  -13.7024   20.2754 C   0  0  0  0  0  0  0  0  0  0  0  0
  -29.6738  -20.5698   21.6089 C   0  0  0  0  0  0  0  0  0  0  0  0
  -22.4406  -12.6779   21.2016 C   0  0  0  0  0  0  0  0  0  0  0  0
  -26.7757  -30.9918   24.4166 C   0  0  0  0  0  0  0  0  0  0  0  0
  -23.7223  -30.7864   23.3411 C   0  0  0  0  0  0  0  0  0  0  0  0
  -21.5253  -29.4549   21.0946 C   0  0  0  0  0  0  0  0  0  0  0  0
  -30.1976  -15.6109   20.4168 C   0  0  0  0  0  0  0  0  0  0  0  0
  -27.5618  -34.1048   28.3851 C   0  0  0  0  0  0  0  0  0  0  0  0
  -27.0752  -31.4639   21.9583 C   0  0  0  0  0  0  0  0  0  0  0  0
  -25.3586  -29.1008   22.4210 C   0  0  0  0  0  0  0  0  0  0  0  0
  -26.4234  -33.2040   27.9129 C   0  0  0  0  0  0  0  0  0  0  0  0
  -28.4118  -14.4135   17.5789 C   0  0  0  0  0  0  0  0  0  0  0  0
  -26.9517  -31.8177   27.5581 C   0  0  0  0  0  0  0  0  0  0  0  0
  -27.2071  -13.6901   18.1833 C   0  0  0  0  0  0  0  0  0  0  0  0
  -29.6661  -14.2296   18.4304 C   0  0  0  0  0  0  0  0  0  0  0  0
  -28.3057  -13.8744   20.4544 C   0  0  0  0  0  0  0  0  0  0  0  0
  -27.9645  -31.8907   26.4090 C   0  0  1  0  0  0  0  0  0  0  0  0
  -26.1050  -31.3938   23.1336 C   0  0  1  0  0  0  0  0  0  0  0  0
  -27.0038  -14.0772   19.6605 C   0  0  2  0  0  0  0  0  0  0  0  0
  -19.0897  -29.4439   20.4905 C   0  0  0  0  0  0  0  0  0  0  0  0
  -23.1478  -28.9392   25.7008 C   0  0  0  0  0  0  0  0  0  0  0  0
  -21.0480  -28.2240   24.5400 C   0  0  0  0  0  0  0  0  0  0  0  0
  -21.3469  -30.6059   25.2182 C   0  0  0  0  0  0  0  0  0  0  0  0
  -22.0670  -30.5765   18.4099 C   0  0  0  0  0  0  0  0  0  0  0  0
  -30.6005  -16.9284   22.4810 C   0  0  0  0  0  0  0  0  0  0  0  0
  -28.7901  -22.8761   21.2548 C   0  0  0  0  0  0  0  0  0  0  0  0
  -28.1665  -25.2449   20.6716 C   0  0  0  0  0  0  0  0  0  1  0  0
  -22.6831  -29.6933   23.2756 C   0  0  1  0  0  0  0  0  0  0  0  0
  -20.4422  -30.0943   20.2446 C   0  0  2  0  0  0  0  0  0  0  0  0
  -29.1788  -24.1237   20.4639 C   0  0  1  0  0  0  0  0  0  0  0  0
  -22.0817  -29.3629   24.6708 C   0  0  0  0  0  0  0  0  0  0  0  0
  -28.6975  -20.1822   22.3993 N   0  0  0  0  0  0  0  0  0  0  0  0
  -26.0699  -12.1689   20.9131 N   0  0  0  0  0  0  0  0  0  0  0  0
  -25.8364  -13.3307   20.2792 N   0  0  0  0  0  0  0  0  0  0  0  0
  -25.0117  -30.4461   22.9082 N   0  0  0  0  0  0  0  0  0  0  0  0
  -29.4065  -14.6158   19.8194 N   0  0  0  0  0  0  0  0  0  0  0  0
  -24.1145  -14.8437   19.6820 N   0  0  0  0  0  0  0  0  0  0  0  0
  -21.9157  -11.5910   21.9139 N   0  0  0  0  0  0  0  0  0  0  0  0
  -29.7651  -21.8299   21.0424 N   0  0  0  0  0  0  0  0  0  0  0  0
  -27.2819  -32.0526   25.1432 N   0  0  0  0  0  0  0  0  0  0  0  0
  -21.6997  -30.1237   22.2877 N   0  0  0  0  0  0  0  0  0  0  0  0
  -29.8808  -15.9213   21.7336 N   0  0  0  0  0  0  0  0  0  0  0  0
  -20.7723  -29.9598   18.7976 N   0  3  0  0  0  0  0  0  0  0  0  0
  -21.6654  -13.5737   20.7892 O   0  0  0  0  0  0  0  0  0  0  0  0
  -26.8287  -29.8071   24.7253 O   0  0  0  0  0  0  0  0  0  0  0  0
  -23.4000  -31.9031   23.7543 O   0  0  0  0  0  0  0  0  0  0  0  0
  -22.1513  -28.4593   20.7375 O   0  0  0  0  0  0  0  0  0  0  0  0
  -31.1147  -16.1843   19.8191 O   0  0  0  0  0  0  0  0  0  0  0  0
  -30.4477  -24.5927   20.9249 O   0  0  0  0  0  0  0  0  0  0  0  0
  -24.1883   -7.0385   24.1822 O   0  0  0  0  0  0  0  0  0  0  0  0
  -28.5887  -26.3930   19.9367 O   0  0  0  0  0  0  0  0  0  1  0  0
  -20.0086   -3.7437   22.7404 F   0  0  0  0  0  0  0  0  0  0  0  0
  -24.6519   -4.4502   23.3286 F   0  0  0  0  0  0  0  0  0  0  0  0
  -30.8971  -19.4117   21.2808 S   0  0  0  0  0  0  0  0  0  0  0  0
  1  2  1  0  0  0  0
  1  5  2  0  0  0  0
  2  6  2  0  0  0  0
  3  8  2  0  0  0  0
  3 16  1  0  0  0  0
  4  9  1  0  0  0  0
  4 16  2  0  0  0  0
  5 18  1  0  0  0  0
  6 20  1  0  0  0  0
  7 10  2  0  0  0  0
  7 19  1  0  0  0  0
  8 22  1  0  0  0  0
  9 22  2  0  0  0  0
 10 23  1  0  0  0  0
 11 12  2  0  0  0  0
 11 24  1  0  0  0  0
 12 25  1  0  0  0  0
 13 21  1  0  0  0  0
 13 23  2  0  0  0  0
 14 25  2  0  0  0  0
 14 26  1  0  0  0  0
 15 28  2  0  0  0  0
 15 60  1  0  0  0  0
 16 27  1  0  0  0  0
 17 27  1  0  0  0  0
 17 29  2  0  0  0  0
 17 31  1  0  0  0  0
 18 20  2  0  0  0  0
 18 36  1  0  0  0  0
 19 21  2  0  0  0  0
 19 37  1  0  0  0  0
 20 45  1  0  0  0  0
 21 38  1  0  0  0  0
 22 78  1  0  0  0  0
 23 79  1  0  0  0  0
 24 26  2  0  0  0  0
 24 78  1  0  0  0  0
 25 80  1  0  0  0  0
 26 81  1  0  0  0  0
 27 61  2  0  0  0  0
 28 53  1  0  0  0  0
 28 82  1  0  0  0  0
 29 62  1  0  0  0  0
 29 65  1  0  0  0  0
 30 60  2  0  0  0  0
 30 67  1  0  0  0  0
 30 82  1  0  0  0  0
 31 66  1  0  0  0  0
 31 72  2  0  0  0  0
 32 46  1  0  0  0  0
 32 68  1  0  0  0  0
 32 73  2  0  0  0  0
 33 56  1  0  0  0  0
 33 63  1  0  0  0  0
 33 74  2  0  0  0  0
 34 57  1  0  0  0  0
 34 69  1  0  0  0  0
 34 75  2  0  0  0  0
 35 64  1  0  0  0  0
 35 70  1  0  0  0  0
 35 76  2  0  0  0  0
 36 39  1  0  0  0  0
 37 46  1  0  0  0  0
 38 63  1  0  0  0  0
 39 41  1  0  0  0  0
 40 42  1  0  0  0  0
 40 43  1  0  0  0  0
 41 45  1  0  0  0  0
 42 47  1  0  0  0  0
 43 64  1  0  0  0  0
 44 47  1  0  0  0  0
 44 64  1  0  0  0  0
 45 68  1  0  0  0  0
 46 63  1  0  0  0  0
 47 62  1  0  0  0  0
 48 57  1  0  0  0  0
 49 59  1  0  0  0  0
 50 59  1  0  0  0  0
 51 59  1  0  0  0  0
 52 71  1  0  0  0  0
 53 70  1  0  0  0  0
 54 58  1  0  0  0  0
 54 67  1  0  0  0  0
 55 58  1  0  0  0  0
 55 79  1  0  0  0  0
 56 59  1  0  0  0  0
 56 69  1  0  0  0  0
 57 71  1  0  0  0  0
 58 77  1  0  0  0  0
 61 62  1  0  0  0  0
M  CHG  1  71   1
M  ISO  4  35 100  55 101  70 100  79 101
M  END
> <Batch ID>
0198

> <Smiles>
CNC(C)C(=O)NC(C(=O)N1Cc2cc([101O:1][101CH2:1]C(O)CNc3ncc(C[100NH:0][100C:0](=O)N4CCCC(n5nc(-c6ccc(Oc7ccc(F)cc7F)cc6)c(C(N)=O)c5N)C4)s3)ccc2CC1C(=O)NC1CCCc2ccccc21)C(C)(C)C

> <Shape>
0.305

> <Color>
0.107

> <Negative vol penalty>
0.000

$$$$

  -OEChem-04052305443D

 82 90  0     1  0  0  0  0  0999 V2000
  -26.3875  -37.9970   26.9364 C   0  0  0  0  0  0  0  0  0  0  0  0
  -25.7753  -36.8531   27.4386 C   0  0  0  0  0  0  0  0  0  0  0  0
  -23.3370   -9.6098   21.0311 C   0  0  0  0  0  0  0  0  0  0  0  0
  -23.9845  -10.4291   23.2098 C   0  0  0  0  0  0  0  0  0  0  0  0
  -26.4666  -38.1963   25.5588 C   0  0  0  0  0  0  0  0  0  0  0  0
  -25.2408  -35.9083   26.5632 C   0  0  0  0  0  0  0  0  0  0  0  0
  -27.5260  -29.0771   26.6338 C   0  0  0  0  0  0  0  0  0  0  0  0
  -22.6719   -8.5405   21.6309 C   0  0  0  0  0  0  0  0  0  0  0  0
  -23.3194   -9.3598   23.8096 C   0  0  0  0  0  0  0  0  0  0  0  0
  -27.7598  -27.7051   26.7290 C   0  0  0  0  0  0  0  0  0  0  0  0
  -19.7273   -8.0051   23.2042 C   0  0  0  0  0  0  0  0  0  0  0  0
  -18.4522   -7.6895   22.7351 C   0  0  0  0  0  0  0  0  0  0  0  0
  -26.2759  -27.3117   24.8605 C   0  0  0  0  0  0  0  0  0  0  0  0
  -19.2201   -5.4787   22.1354 C   0  0  0  0  0  0  0  0  0  0  0  0
  -29.1090  -19.5474   20.7984 C   0  0  0  0  0  0  0  0  0  0  0  0
  -23.9933  -10.5542   21.8205 C   0  0  0  0  0  0  0  0  0  0  0  0
  -24.1475  -12.9225   20.8851 C   0  0  0  0  0  0  0  0  0  0  0  0
  -25.9415  -37.2489   24.6660 C   0  0  0  0  0  0  0  0  0  0  0  0
  -26.6772  -29.5736   25.6405 C   0  0  0  0  0  0  0  0  0  0  0  0
  -25.3118  -36.0958   25.1723 C   0  0  0  0  0  0  0  0  0  0  0  0
  -26.0477  -28.6861   24.7523 C   0  0  0  0  0  0  0  0  0  0  0  0
  -22.6631   -8.4154   23.0201 C   0  0  0  0  0  0  0  0  0  0  0  0
  -27.1361  -26.8246   25.8447 C   0  0  0  0  0  0  0  0  0  0  0  0
  -20.7489   -7.0576   23.1388 C   0  0  0  0  0  0  0  0  0  0  0  0
  -18.1986   -6.4263   22.2007 C   0  0  0  0  0  0  0  0  0  0  0  0
  -20.4953   -5.7943   22.6044 C   0  0  0  0  0  0  0  0  0  0  0  0
  -24.6810  -11.6587   21.2015 C   0  0  0  0  0  0  0  0  0  0  0  0
  -30.0619  -18.7471   21.3931 C   0  0  0  0  0  0  0  0  0  0  0  0
  -25.1954  -13.6053   20.3178 C   0  0  0  0  0  0  0  0  0  0  0  0
  -29.3161  -20.6333   22.6925 C   0  0  0  0  0  0  0  0  0  0  0  0
  -22.8230  -13.4334   21.0861 C   0  0  0  0  0  0  0  0  0  0  0  0
  -25.0997  -32.5823   24.0484 C   0  0  0  0  0  0  0  0  0  0  0  0
  -30.5919  -15.0761   20.3841 C   0  0  0  0  0  0  0  0  0  0  0  0
  -25.9057  -30.6896   21.7728 C   0  0  0  0  0  0  0  0  0  0  0  0
  -27.3236  -28.5243   19.5505 C   0  0  0  0  0  0  0  0  0  0  0  0
  -26.0087  -37.5308   23.1859 C   0  0  0  0  0  0  0  0  0  0  0  0
  -26.3482  -31.0383   25.5397 C   0  0  0  0  0  0  0  0  0  0  0  0
  -25.1155  -29.2621   23.7217 C   0  0  0  0  0  0  0  0  0  0  0  0
  -25.7504  -36.3009   22.3192 C   0  0  0  0  0  0  0  0  0  0  0  0
  -29.7246  -12.0012   18.7616 C   0  0  0  0  0  0  0  0  0  0  0  0
  -24.5275  -35.5406   22.8224 C   0  0  0  0  0  0  0  0  0  0  0  0
  -28.3028  -11.7264   19.2496 C   0  0  0  0  0  0  0  0  0  0  0  0
  -30.5691  -12.6627   19.8462 C   0  0  0  0  0  0  0  0  0  0  0  0
  -28.5512  -13.6437   20.8890 C   0  0  0  0  0  0  0  0  0  0  0  0
  -24.7423  -35.0360   24.2544 C   0  0  1  0  0  0  0  0  0  0  0  0
  -26.1530  -31.5145   24.0890 C   0  0  1  0  0  0  0  0  0  0  0  0
  -27.6554  -13.0036   19.8136 C   0  0  2  0  0  0  0  0  0  0  0  0
  -27.6265  -28.1465   17.0882 C   0  0  0  0  0  0  0  0  0  0  0  0
  -23.0140  -29.7410   21.5663 C   0  0  0  0  0  0  0  0  0  0  0  0
  -23.6349  -28.5333   19.4630 C   0  0  0  0  0  0  0  0  0  0  0  0
  -23.8382  -31.0168   19.5795 C   0  0  0  0  0  0  0  0  0  0  0  0
  -30.2707  -28.6806   19.7713 C   0  0  0  0  0  0  0  0  0  0  0  0
  -30.7232  -17.5295   20.8856 C   0  0  0  0  0  0  0  0  0  0  0  0
  -29.8460  -16.2644   20.9369 C   0  0  0  0  0  0  0  0  0  0  0  0
  -28.2031  -22.6863   23.5713 C   0  0  0  0  0  0  0  0  0  0  0  0
  -27.2966  -24.7270   24.7350 C   0  0  0  0  0  0  0  0  0  1  0  0
  -25.4875  -29.5775   20.8445 C   0  0  1  0  0  0  0  0  0  0  0  0
  -28.2198  -28.7583   18.3478 C   0  0  2  0  0  0  0  0  0  0  0  0
  -28.2651  -23.5529   24.8275 C   0  0  1  0  0  0  0  0  0  0  0  0
  -24.0074  -29.7118   20.3876 C   0  0  0  0  0  0  0  0  0  0  0  0
  -28.6798  -20.6292   21.5422 N   0  0  0  0  0  0  0  0  0  0  0  0
  -25.9679  -11.5429   20.8632 N   0  0  0  0  0  0  0  0  0  0  0  0
  -26.2517  -12.7426   20.3281 N   0  0  0  0  0  0  0  0  0  0  0  0
  -25.6994  -30.4818   23.1420 N   0  0  0  0  0  0  0  0  0  0  0  0
  -29.9096  -13.8594   20.3718 N   0  0  0  0  0  0  0  0  0  0  0  0
  -25.3072  -14.8536   19.8160 N   0  0  0  0  0  0  0  0  0  0  0  0
  -21.8683  -12.5988   21.6829 N   0  0  0  0  0  0  0  0  0  0  0  0
  -29.1282  -21.5810   23.6844 N   0  0  0  0  0  0  0  0  0  0  0  0
  -25.5851  -33.8595   24.2546 N   0  0  0  0  0  0  0  0  0  0  0  0
  -26.4526  -29.5745   19.7504 N   0  0  0  0  0  0  0  0  0  0  0  0
  -29.5623  -28.1532   18.5768 N   0  3  0  0  0  0  0  0  0  0  0  0
  -22.4914  -14.5901   20.7316 O   0  0  0  0  0  0  0  0  0  0  0  0
  -23.9321  -32.2718   23.8435 O   0  0  0  0  0  0  0  0  0  0  0  0
  -31.7454  -15.2273   19.9732 O   0  0  0  0  0  0  0  0  0  0  0  0
  -26.3968  -31.7181   21.2991 O   0  0  0  0  0  0  0  0  0  0  0  0
  -27.3870  -27.5097   20.2412 O   0  0  0  0  0  0  0  0  0  0  0  0
  -27.8864  -22.7649   25.9579 O   0  0  0  0  0  0  0  0  0  0  0  0
  -22.0141   -7.3722   23.6057 O   0  0  0  0  0  0  0  0  0  0  0  0
  -27.3723  -25.4868   25.9405 O   0  0  0  0  0  0  0  0  0  1  0  0
  -16.9737   -6.1228   21.7517 F   0  0  0  0  0  0  0  0  0  0  0  0
  -21.4724   -4.8795   22.5401 F   0  0  0  0  0  0  0  0  0  0  0  0
  -30.4449  -19.3659   22.9460 S   0  0  0  0  0  0  0  0  0  0  0  0
  1  2  1  0  0  0  0
  1  5  2  0  0  0  0
  2  6  2  0  0  0  0
  3  8  2  0  0  0  0
  3 16  1  0  0  0  0
  4  9  1  0  0  0  0
  4 16  2  0  0  0  0
  5 18  1  0  0  0  0
  6 20  1  0  0  0  0
  7 10  2  0  0  0  0
  7 19  1  0  0  0  0
  8 22  1  0  0  0  0
  9 22  2  0  0  0  0
 10 23  1  0  0  0  0
 11 12  2  0  0  0  0
 11 24  1  0  0  0  0
 12 25  1  0  0  0  0
 13 21  1  0  0  0  0
 13 23  2  0  0  0  0
 14 25  2  0  0  0  0
 14 26  1  0  0  0  0
 15 28  2  0  0  0  0
 15 61  1  0  0  0  0
 16 27  1  0  0  0  0
 17 27  1  0  0  0  0
 17 29  2  0  0  0  0
 17 31  1  0  0  0  0
 18 20  2  0  0  0  0
 18 36  1  0  0  0  0
 19 21  2  0  0  0  0
 19 37  1  0  0  0  0
 20 45  1  0  0  0  0
 21 38  1  0  0  0  0
 22 78  1  0  0  0  0
 23 79  1  0  0  0  0
 24 26  2  0  0  0  0
 24 78  1  0  0  0  0
 25 80  1  0  0  0  0
 26 81  1  0  0  0  0
 27 62  2  0  0  0  0
 28 53  1  0  0  0  0
 28 82  1  0  0  0  0
 29 63  1  0  0  0  0
 29 66  1  0  0  0  0
 30 61  2  0  0  0  0
 30 68  1  0  0  0  0
 30 82  1  0  0  0  0
 31 67  1  0  0  0  0
 31 72  2  0  0  0  0
 32 46  1  0  0  0  0
 32 69  1  0  0  0  0
 32 73  2  0  0  0  0
 33 54  1  0  0  0  0
 33 65  1  0  0  0  0
 33 74  2  0  0  0  0
 34 57  1  0  0  0  0
 34 64  1  0  0  0  0
 34 75  2  0  0  0  0
 35 58  1  0  0  0  0
 35 70  1  0  0  0  0
 35 76  2  0  0  0  0
 36 39  1  0  0  0  0
 37 46  1  0  0  0  0
 38 64  1  0  0  0  0
 39 41  1  0  0  0  0
 40 42  1  0  0  0  0
 40 43  1  0  0  0  0
 41 45  1  0  0  0  0
 42 47  1  0  0  0  0
 43 65  1  0  0  0  0
 44 47  1  0  0  0  0
 44 65  1  0  0  0  0
 45 69  1  0  0  0  0
 46 64  1  0  0  0  0
 47 63  1  0  0  0  0
 48 58  1  0  0  0  0
 49 60  1  0  0  0  0
 50 60  1  0  0  0  0
 51 60  1  0  0  0  0
 52 71  1  0  0  0  0
 53 54  1  0  0  0  0
 55 59  1  0  0  0  0
 55 68  1  0  0  0  0
 56 59  1  0  0  0  0
 56 79  1  0  0  0  0
 57 60  1  0  0  0  0
 57 70  1  0  0  0  0
 58 71  1  0  0  0  0
 59 77  1  0  0  0  0
 62 63  1  0  0  0  0
M  CHG  1  71   1
M  ISO  4  33 100  54 100  56 101  79 101
M  END
> <Batch ID>
0198

> <Smiles>
CNC(C)C(=O)NC(C(=O)N1Cc2cc([101O:1][101CH2:1]C(O)CNc3ncc(C[100CH2:0][100C:0](=O)N4CCCC(n5nc(-c6ccc(Oc7ccc(F)cc7F)cc6)c(C(N)=O)c5N)C4)s3)ccc2CC1C(=O)NC1CCCc2ccccc21)C(C)(C)C

> <Shape>
0.336

> <Color>
0.185

> <Negative vol penalty>
0.000

$$$$

  -OEChem-04052305443D

 81 89  0     1  0  0  0  0  0999 V2000
  -24.2302  -19.2400   15.3090 C   0  0  0  0  0  0  0  0  0  0  0  0
  -25.4141  -18.7291   15.8313 C   0  0  0  0  0  0  0  0  0  0  0  0
  -25.1994  -27.8207   19.5678 C   0  0  0  0  0  0  0  0  0  0  0  0
  -27.4450  -28.5312   20.1058 C   0  0  0  0  0  0  0  0  0  0  0  0
  -23.0169  -18.9688   15.9403 C   0  0  0  0  0  0  0  0  0  0  0  0
  -25.3856  -17.9477   16.9858 C   0  0  0  0  0  0  0  0  0  0  0  0
  -29.0194  -13.1986   18.3077 C   0  0  0  0  0  0  0  0  0  0  0  0
  -24.6901  -28.9636   20.1842 C   0  0  0  0  0  0  0  0  0  0  0  0
  -26.9358  -29.6742   20.7221 C   0  0  0  0  0  0  0  0  0  0  0  0
  -30.1683  -13.0857   19.0893 C   0  0  0  0  0  0  0  0  0  0  0  0
  -25.4929  -30.4813   23.6713 C   0  0  0  0  0  0  0  0  0  0  0  0
  -26.0210  -30.8385   24.9118 C   0  0  0  0  0  0  0  0  0  0  0  0
  -28.8233  -12.3403   20.9479 C   0  0  0  0  0  0  0  0  0  0  0  0
  -32.3930  -17.0069   22.1759 C   0  0  0  0  0  0  0  0  0  0  0  0
  -26.7377  -32.9566   23.9969 C   0  0  0  0  0  0  0  0  0  0  0  0
  -31.0959  -15.9266   23.7736 C   0  0  0  0  0  0  0  0  0  0  0  0
  -26.5769  -27.6044   19.5287 C   0  0  0  0  0  0  0  0  0  0  0  0
  -27.4731  -26.2787   17.5420 C   0  0  0  0  0  0  0  0  0  0  0  0
  -22.9725  -18.1757   17.0977 C   0  0  0  0  0  0  0  0  0  0  0  0
  -27.7605  -12.8931   18.8444 C   0  0  0  0  0  0  0  0  0  0  0  0
  -24.1708  -17.6668   17.6339 C   0  0  0  0  0  0  0  0  0  0  0  0
  -27.6602  -12.4476   20.1702 C   0  0  0  0  0  0  0  0  0  0  0  0
  -32.0725  -15.7740   22.8142 C   0  0  0  0  0  0  0  0  0  0  0  0
  -25.5583  -29.8904   20.7613 C   0  0  0  0  0  0  0  0  0  0  0  0
  -30.0701  -12.6593   20.4105 C   0  0  0  0  0  0  0  0  0  0  0  0
  -25.5872  -31.3617   22.5934 C   0  0  0  0  0  0  0  0  0  0  0  0
  -26.6434  -32.0762   25.0747 C   0  0  0  0  0  0  0  0  0  0  0  0
  -26.2096  -32.5994   22.7562 C   0  0  0  0  0  0  0  0  0  0  0  0
  -27.1035  -26.4237   18.8926 C   0  0  0  0  0  0  0  0  0  0  0  0
  -31.6488  -18.0549   22.6718 C   0  0  0  0  0  0  0  0  0  0  0  0
  -27.9087  -24.9799   17.4427 C   0  0  0  0  0  0  0  0  0  0  0  0
  -27.4269  -27.2328   16.4728 C   0  0  0  0  0  0  0  0  0  0  0  0
  -25.0840  -14.5291   19.3583 C   0  0  0  0  0  0  0  0  0  0  0  0
  -23.9268  -11.6175   20.1985 C   0  0  0  0  0  0  0  0  0  0  0  0
  -24.5678   -8.4578   21.3173 C   0  0  0  0  0  0  0  0  0  0  0  0
  -30.2083  -21.2866   21.4336 C   0  0  0  0  0  0  0  0  0  0  0  0
  -21.6425  -17.9491   17.7718 C   0  0  0  0  0  0  0  0  0  0  0  0
  -26.5337  -12.9945   17.9801 C   0  0  0  0  0  0  0  0  0  0  0  0
  -26.3345  -12.0879   20.7878 C   0  0  0  0  0  0  0  0  0  0  0  0
  -21.6576  -16.8018   18.7787 C   0  0  0  0  0  0  0  0  0  0  0  0
  -27.2794  -20.6589   19.4025 C   0  0  0  0  0  0  0  0  0  0  0  0
  -22.8820  -16.9013   19.6830 C   0  0  0  0  0  0  0  0  0  0  0  0
  -26.9412  -22.0682   18.9128 C   0  0  0  0  0  0  0  0  0  0  0  0
  -27.7844  -20.6803   20.8422 C   0  0  0  0  0  0  0  0  0  0  0  0
  -28.6166  -22.9855   20.5835 C   0  0  0  0  0  0  0  0  0  0  0  0
  -24.1781  -16.7945   18.8705 C   0  0  1  0  0  0  0  0  0  0  0  0
  -25.2470  -13.1499   18.7848 C   0  0  1  0  0  0  0  0  0  0  0  0
  -28.1217  -23.0340   19.1265 C   0  0  2  0  0  0  0  0  0  0  0  0
  -23.4158   -6.3181   21.9435 C   0  0  0  0  0  0  0  0  0  0  0  0
  -33.4899  -12.3412   22.9850 C   0  0  0  0  0  0  0  0  0  0  0  0
  -23.0378  -12.8705   22.8347 C   0  0  0  0  0  0  0  0  0  0  0  0
  -22.7786  -10.5606   23.7649 C   0  0  0  0  0  0  0  0  0  0  0  0
  -21.3883  -11.2852   21.8245 C   0  0  0  0  0  0  0  0  0  0  0  0
  -25.9887   -6.9406   19.2106 C   0  0  0  0  0  0  0  0  0  0  0  0
  -31.6857  -19.4791   22.2747 C   0  0  0  0  0  0  0  0  0  0  0  0
  -31.0409  -12.7607   22.5792 C   0  0  0  0  0  0  0  0  0  1  0  0
  -23.8511  -10.8270   21.4824 C   0  0  1  0  0  0  0  0  0  0  0  0
  -24.0934   -7.1008   20.8294 C   0  0  2  0  0  0  0  0  0  0  0  0
  -32.3356  -13.3180   23.1669 C   0  0  2  0  0  0  0  0  0  0  0  0
  -22.7888  -11.3944   22.4659 C   0  0  0  0  0  0  0  0  0  0  0  0
  -27.2880  -25.3062   19.6005 N   0  0  0  0  0  0  0  0  0  0  0  0
  -27.7783  -24.4465   18.6912 N   0  0  0  0  0  0  0  0  0  0  0  0
  -25.1632  -12.2094   19.9040 N   0  0  0  0  0  0  0  0  0  0  0  0
  -28.9196  -21.6045   20.9737 N   0  0  0  0  0  0  0  0  0  0  0  0
  -28.3866  -24.2534   16.4101 N   0  0  0  0  0  0  0  0  0  0  0  0
  -26.9521  -28.5224   16.7481 N   0  0  0  0  0  0  0  0  0  0  0  0
  -32.6698  -14.5650   22.5085 N   0  0  0  0  0  0  0  0  0  0  0  0
  -24.4405  -15.4160   18.5165 N   0  0  0  0  0  0  0  0  0  0  0  0
  -23.6251   -9.4390   21.0944 N   0  0  0  0  0  0  0  0  0  0  0  0
  -30.4107  -19.9588   21.7895 N   0  0  0  0  0  0  0  0  0  0  0  0
  -25.2447   -6.2999   20.3255 N   0  3  0  0  0  0  0  0  0  0  0  0
  -27.7803  -26.9452   15.3040 O   0  0  0  0  0  0  0  0  0  0  0  0
  -25.5093  -14.7703   20.4819 O   0  0  0  0  0  0  0  0  0  0  0  0
  -22.9278  -11.7006   19.4797 O   0  0  0  0  0  0  0  0  0  0  0  0
  -25.6636   -8.6294   21.8469 O   0  0  0  0  0  0  0  0  0  0  0  0
  -31.1139  -22.1234   21.5159 O   0  0  0  0  0  0  0  0  0  0  0  0
  -25.0617  -31.0059   21.3626 O   0  0  0  0  0  0  0  0  0  0  0  0
  -31.1898  -12.5488   21.1759 O   0  0  0  0  0  0  0  0  0  1  0  0
  -27.1492  -32.4197   26.2665 F   0  0  0  0  0  0  0  0  0  0  0  0
  -26.3022  -33.4499   21.7248 F   0  0  0  0  0  0  0  0  0  0  0  0
  -30.5694  -17.5510   23.9018 S   0  0  0  0  0  0  0  0  0  0  0  0
  1  2  1  0  0  0  0
  1  5  2  0  0  0  0
  2  6  2  0  0  0  0
  3  8  2  0  0  0  0
  3 17  1  0  0  0  0
  4  9  1  0  0  0  0
  4 17  2  0  0  0  0
  5 19  1  0  0  0  0
  6 21  1  0  0  0  0
  7 10  2  0  0  0  0
  7 20  1  0  0  0  0
  8 24  1  0  0  0  0
  9 24  2  0  0  0  0
 10 25  1  0  0  0  0
 11 12  2  0  0  0  0
 11 26  1  0  0  0  0
 12 27  1  0  0  0  0
 13 22  1  0  0  0  0
 13 25  2  0  0  0  0
 14 23  1  0  0  0  0
 14 30  2  0  0  0  0
 15 27  2  0  0  0  0
 15 28  1  0  0  0  0
 16 23  2  0  0  0  0
 16 81  1  0  0  0  0
 17 29  1  0  0  0  0
 18 29  1  0  0  0  0
 18 31  2  0  0  0  0
 18 32  1  0  0  0  0
 19 21  2  0  0  0  0
 19 37  1  0  0  0  0
 20 22  2  0  0  0  0
 20 38  1  0  0  0  0
 21 46  1  0  0  0  0
 22 39  1  0  0  0  0
 23 67  1  0  0  0  0
 24 77  1  0  0  0  0
 25 78  1  0  0  0  0
 26 28  2  0  0  0  0
 26 77  1  0  0  0  0
 27 79  1  0  0  0  0
 28 80  1  0  0  0  0
 29 61  2  0  0  0  0
 30 55  1  0  0  0  0
 30 81  1  0  0  0  0
 31 62  1  0  0  0  0
 31 65  1  0  0  0  0
 32 66  1  0  0  0  0
 32 72  2  0  0  0  0
 33 47  1  0  0  0  0
 33 68  1  0  0  0  0
 33 73  2  0  0  0  0
 34 57  1  0  0  0  0
 34 63  1  0  0  0  0
 34 74  2  0  0  0  0
 35 58  1  0  0  0  0
 35 69  1  0  0  0  0
 35 75  2  0  0  0  0
 36 64  1  0  0  0  0
 36 70  1  0  0  0  0
 36 76  2  0  0  0  0
 37 40  1  0  0  0  0
 38 47  1  0  0  0  0
 39 63  1  0  0  0  0
 40 42  1  0  0  0  0
 41 43  1  0  0  0  0
 41 44  1  0  0  0  0
 42 46  1  0  0  0  0
 43 48  1  0  0  0  0
 44 64  1  0  0  0  0
 45 48  1  0  0  0  0
 45 64  1  0  0  0  0
 46 68  1  0  0  0  0
 47 63  1  0  0  0  0
 48 62  1  0  0  0  0
 49 58  1  0  0  0  0
 50 59  1  0  0  0  0
 51 60  1  0  0  0  0
 52 60  1  0  0  0  0
 53 60  1  0  0  0  0
 54 71  1  0  0  0  0
 55 70  1  0  0  0  0
 56 59  1  0  0  0  0
 56 78  1  0  0  0  0
 57 60  1  0  0  0  0
 57 69  1  0  0  0  0
 58 71  1  0  0  0  0
 59 67  1  0  0  0  0
 61 62  1  0  0  0  0
M  CHG  1  71   1
M  ISO  4  36 100  56 101  70 100  78 101
M  END
> <Batch ID>
0198

> <Smiles>
CNC(C)C(=O)NC(C(=O)N1Cc2cc([101O:1][101CH2:1]C(C)Nc3csc(C[100NH:0][100C:0](=O)N4CCCC(n5nc(-c6ccc(Oc7ccc(F)cc7F)cc6)c(C(N)=O)c5N)C4)c3)ccc2CC1C(=O)NC1CCCc2ccccc21)C(C)(C)C

> <Shape>
0.260

> <Color>
0.052

> <Negative vol penalty>
0.000

$$$$

  -OEChem-04052305443D

 84 92  0     1  0  0  0  0  0999 V2000
  -30.1466  -23.7062   17.7337 C   0  0  0  0  0  0  0  0  0  0  0  0
  -28.9114  -23.7532   18.3722 C   0  0  0  0  0  0  0  0  0  0  0  0
  -27.5915  -14.8373   19.3162 C   0  0  0  0  0  0  0  0  0  0  0  0
  -25.6597  -15.4976   20.6082 C   0  0  0  0  0  0  0  0  0  0  0  0
  -31.1931  -24.5107   18.1825 C   0  0  0  0  0  0  0  0  0  0  0  0
  -28.7225  -24.6040   19.4607 C   0  0  0  0  0  0  0  0  0  0  0  0
  -24.3501  -27.1459   19.2036 C   0  0  0  0  0  0  0  0  0  0  0  0
  -27.3042  -13.4965   19.5720 C   0  0  0  0  0  0  0  0  0  0  0  0
  -25.3724  -14.1569   20.8639 C   0  0  0  0  0  0  0  0  0  0  0  0
  -23.1904  -26.4548   19.5516 C   0  0  0  0  0  0  0  0  0  0  0  0
  -23.9513  -11.5607   19.2326 C   0  0  0  0  0  0  0  0  0  0  0  0
  -22.6265  -11.1460   19.0967 C   0  0  0  0  0  0  0  0  0  0  0  0
  -23.2361  -27.4879   21.7310 C   0  0  0  0  0  0  0  0  0  0  0  0
  -22.5965  -10.4805   21.4190 C   0  0  0  0  0  0  0  0  0  0  0  0
  -23.5589  -22.1088   26.0539 C   0  0  0  0  0  0  0  0  0  0  0  0
  -26.7693  -15.8379   19.8344 C   0  0  0  0  0  0  0  0  0  0  0  0
  -26.6081  -17.9998   18.4899 C   0  0  0  0  0  0  0  0  0  0  0  0
  -31.0140  -25.3789   19.2710 C   0  0  0  0  0  0  0  0  0  0  0  0
  -24.9687  -28.0063   20.1220 C   0  0  0  0  0  0  0  0  0  0  0  0
  -29.7680  -25.4199   19.9254 C   0  0  0  0  0  0  0  0  0  0  0  0
  -24.4021  -28.1907   21.3913 C   0  0  0  0  0  0  0  0  0  0  0  0
  -26.1947  -13.1563   20.3458 C   0  0  0  0  0  0  0  0  0  0  0  0
  -22.6348  -26.6235   20.8165 C   0  0  0  0  0  0  0  0  0  0  0  0
  -24.5988  -11.4352   20.4617 C   0  0  0  0  0  0  0  0  0  0  0  0
  -21.9491  -10.6060   20.1899 C   0  0  0  0  0  0  0  0  0  0  0  0
  -23.9214  -10.8951   21.5549 C   0  0  0  0  0  0  0  0  0  0  0  0
  -27.0658  -17.2231   19.5711 C   0  0  0  0  0  0  0  0  0  0  0  0
  -23.5856  -22.4003   24.7062 C   0  0  0  0  0  0  0  0  0  0  0  0
  -27.1673  -19.2374   18.6951 C   0  0  0  0  0  0  0  0  0  0  0  0
  -25.7258  -22.6175   25.1330 C   0  0  0  0  0  0  0  0  0  0  0  0
  -25.7536  -17.6353   17.3978 C   0  0  0  0  0  0  0  0  0  0  0  0
  -27.8072  -28.0976   21.5496 C   0  0  0  0  0  0  0  0  0  0  0  0
  -26.7299  -30.9547   22.6445 C   0  0  0  0  0  0  0  0  0  0  0  0
  -24.0665  -32.9532   23.3923 C   0  0  0  0  0  0  0  0  0  0  0  0
  -29.1033  -22.0744   23.5997 C   0  0  0  0  0  0  0  0  0  0  0  0
  -32.1887  -26.1947   19.7498 C   0  0  0  0  0  0  0  0  0  0  0  0
  -26.2042  -28.7650   19.7217 C   0  0  0  0  0  0  0  0  0  0  0  0
  -25.0162  -29.1184   22.4066 C   0  0  0  0  0  0  0  0  0  0  0  0
  -31.7957  -27.3440   20.6745 C   0  0  0  0  0  0  0  0  0  0  0  0
  -30.9852  -21.3406   20.6677 C   0  0  0  0  0  0  0  0  0  0  0  0
  -30.8110  -26.8627   21.7354 C   0  0  0  0  0  0  0  0  0  0  0  0
  -30.1528  -20.2722   19.9566 C   0  0  0  0  0  0  0  0  0  0  0  0
  -30.9305  -21.1812   22.1854 C   0  0  0  0  0  0  0  0  0  0  0  0
  -28.7382  -20.0642   22.0433 C   0  0  0  0  0  0  0  0  0  0  0  0
  -29.5167  -26.3481   21.0939 C   0  0  1  0  0  0  0  0  0  0  0  0
  -27.0379  -29.2215   20.9151 C   0  0  1  0  0  0  0  0  0  0  0  0
  -28.7173  -20.2176   20.5128 C   0  0  2  0  0  0  0  0  0  0  0  0
  -23.5005  -35.2208   24.3061 C   0  0  0  0  0  0  0  0  0  0  0  0
  -22.9933  -21.4928   21.7360 C   0  0  0  0  0  0  0  0  0  0  0  0
  -27.3822  -29.9797   25.4612 C   0  0  0  0  0  0  0  0  0  0  0  0
  -25.9534  -31.8301   26.3573 C   0  0  0  0  0  0  0  0  0  0  0  0
  -27.9878  -32.3651   25.0165 C   0  0  0  0  0  0  0  0  0  0  0  0
  -22.7046  -33.7502   20.8885 C   0  0  0  0  0  0  0  0  0  0  0  0
  -27.1721  -22.8628   24.9442 C   0  0  0  0  0  0  0  0  0  0  0  0
  -21.0753  -23.1026   22.0110 C   0  0  0  0  0  0  0  0  0  0  0  0
  -21.3377  -25.6164   22.5368 C   0  0  0  0  0  0  0  0  0  1  0  0
  -25.9540  -31.4116   23.8562 C   0  0  1  0  0  0  0  0  0  0  0  0
  -23.7678  -34.4023   23.0526 C   0  0  2  0  0  0  0  0  0  0  0  0
  -22.4793  -22.7146   22.4919 C   0  0  1  0  0  0  0  0  0  0  0  0
  -20.4881  -24.3559   22.6806 C   0  0  1  0  0  0  0  0  0  0  0  0
  -26.8086  -31.3776   25.1546 C   0  0  0  0  0  0  0  0  0  0  0  0
  -27.8553  -17.9096   20.4014 N   0  0  0  0  0  0  0  0  0  0  0  0
  -24.8273  -22.6926   24.1764 N   0  0  0  0  0  0  0  0  0  0  0  0
  -27.8979  -19.1307   19.8419 N   0  0  0  0  0  0  0  0  0  0  0  0
  -26.2271  -29.8330   21.9701 N   0  0  0  0  0  0  0  0  0  0  0  0
  -29.5415  -21.1380   22.6487 N   0  0  0  0  0  0  0  0  0  0  0  0
  -27.1006  -20.3955   18.0047 N   0  0  0  0  0  0  0  0  0  0  0  0
  -25.2669  -16.3222   17.3398 N   0  0  0  0  0  0  0  0  0  0  0  0
  -22.4566  -22.4076   23.9064 N   0  0  0  0  0  0  0  0  0  0  0  0
  -28.6779  -27.4559   20.6895 N   0  0  0  0  0  0  0  0  0  0  0  0
  -25.4203  -32.7287   23.5264 N   0  0  0  0  0  0  0  0  0  0  0  0
  -27.7711  -21.9674   23.9797 N   0  0  0  0  0  0  0  0  0  0  0  0
  -22.5708  -34.4911   22.1692 N   0  3  0  0  0  0  0  0  0  0  0  0
  -25.4445  -18.4452   16.4912 O   0  0  0  0  0  0  0  0  0  0  0  0
  -27.6256  -27.8332   22.7323 O   0  0  0  0  0  0  0  0  0  0  0  0
  -27.7407  -31.5747   22.3045 O   0  0  0  0  0  0  0  0  0  0  0  0
  -23.1866  -32.1061   23.5289 O   0  0  0  0  0  0  0  0  0  0  0  0
  -29.8431  -22.9448   24.0708 O   0  0  0  0  0  0  0  0  0  0  0  0
  -19.2139  -24.6243   22.0888 O   0  0  0  0  0  0  0  0  0  0  0  0
  -25.9139  -11.8481   20.5953 O   0  0  0  0  0  0  0  0  0  0  0  0
  -21.5033  -25.9496   21.1591 O   0  0  0  0  0  0  0  0  0  1  0  0
  -20.6764  -10.2092   20.0596 F   0  0  0  0  0  0  0  0  0  0  0  0
  -24.5378  -10.7732   22.7386 F   0  0  0  0  0  0  0  0  0  0  0  0
  -25.1475  -22.1996   26.6937 S   0  0  0  0  0  0  0  0  0  0  0  0
  1  2  1  0  0  0  0
  1  5  2  0  0  0  0
  2  6  2  0  0  0  0
  3  8  2  0  0  0  0
  3 16  1  0  0  0  0
  4  9  1  0  0  0  0
  4 16  2  0  0  0  0
  5 18  1  0  0  0  0
  6 20  1  0  0  0  0
  7 10  2  0  0  0  0
  7 19  1  0  0  0  0
  8 22  1  0  0  0  0
  9 22  2  0  0  0  0
 10 23  1  0  0  0  0
 11 12  2  0  0  0  0
 11 24  1  0  0  0  0
 12 25  1  0  0  0  0
 13 21  1  0  0  0  0
 13 23  2  0  0  0  0
 14 25  2  0  0  0  0
 14 26  1  0  0  0  0
 15 28  2  0  0  0  0
 15 84  1  0  0  0  0
 16 27  1  0  0  0  0
 17 27  1  0  0  0  0
 17 29  2  0  0  0  0
 17 31  1  0  0  0  0
 18 20  2  0  0  0  0
 18 36  1  0  0  0  0
 19 21  2  0  0  0  0
 19 37  1  0  0  0  0
 20 45  1  0  0  0  0
 21 38  1  0  0  0  0
 22 80  1  0  0  0  0
 23 81  1  0  0  0  0
 24 26  2  0  0  0  0
 24 80  1  0  0  0  0
 25 82  1  0  0  0  0
 26 83  1  0  0  0  0
 27 62  2  0  0  0  0
 28 63  1  0  0  0  0
 28 69  1  0  0  0  0
 29 64  1  0  0  0  0
 29 67  1  0  0  0  0
 30 54  1  0  0  0  0
 30 63  2  0  0  0  0
 30 84  1  0  0  0  0
 31 68  1  0  0  0  0
 31 74  2  0  0  0  0
 32 46  1  0  0  0  0
 32 70  1  0  0  0  0
 32 75  2  0  0  0  0
 33 57  1  0  0  0  0
 33 65  1  0  0  0  0
 33 76  2  0  0  0  0
 34 58  1  0  0  0  0
 34 71  1  0  0  0  0
 34 77  2  0  0  0  0
 35 66  1  0  0  0  0
 35 72  1  0  0  0  0
 35 78  2  0  0  0  0
 36 39  1  0  0  0  0
 37 46  1  0  0  0  0
 38 65  1  0  0  0  0
 39 41  1  0  0  0  0
 40 42  1  0  0  0  0
 40 43  1  0  0  0  0
 41 45  1  0  0  0  0
 42 47  1  0  0  0  0
 43 66  1  0  0  0  0
 44 47  1  0  0  0  0
 44 66  1  0  0  0  0
 45 70  1  0  0  0  0
 46 65  1  0  0  0  0
 47 64  1  0  0  0  0
 48 58  1  0  0  0  0
 49 59  1  0  0  0  0
 50 61  1  0  0  0  0
 51 61  1  0  0  0  0
 52 61  1  0  0  0  0
 53 73  1  0  0  0  0
 54 72  1  0  0  0  0
 55 59  1  0  0  0  0
 55 60  1  0  0  0  0
 56 60  1  0  0  0  0
 56 81  1  0  0  0  0
 57 61  1  0  0  0  0
 57 71  1  0  0  0  0
 58 73  1  0  0  0  0
 59 69  1  0  0  0  0
 60 79  1  0  0  0  0
 62 64  1  0  0  0  0
M  CHG  1  73   1
M  ISO  4  35 100  56 101  72 100  81 101
M  END
> <Batch ID>
0198

> <Smiles>
CNC(C)C(=O)NC(C(=O)N1Cc2cc([101O:1][101CH2:1]C(O)CC(C)Nc3csc(C[100NH:0][100C:0](=O)N4CCCC(n5nc(-c6ccc(Oc7ccc(F)cc7F)cc6)c(C(N)=O)c5N)C4)n3)ccc2CC1C(=O)NC1CCCc2ccccc21)C(C)(C)C

> <Shape>
0.271

> <Color>
0.057

> <Negative vol penalty>
0.000

$$$$

  -OEChem-04052305443D

 83 91  0     1  0  0  0  0  0999 V2000
  -32.0944  -15.3562   19.3841 C   0  0  0  0  0  0  0  0  0  0  0  0
  -31.1358  -16.3639   19.3510 C   0  0  0  0  0  0  0  0  0  0  0  0
  -28.1508  -24.8030   18.6377 C   0  0  0  0  0  0  0  0  0  0  0  0
  -25.9924  -23.7843   19.0132 C   0  0  0  0  0  0  0  0  0  0  0  0
  -31.7015  -14.0266   19.5320 C   0  0  0  0  0  0  0  0  0  0  0  0
  -29.7837  -16.0425   19.4648 C   0  0  0  0  0  0  0  0  0  0  0  0
  -25.4316  -19.3549   22.2202 C   0  0  0  0  0  0  0  0  0  0  0  0
  -28.7685  -23.5690   18.8410 C   0  0  0  0  0  0  0  0  0  0  0  0
  -26.6102  -22.5503   19.2164 C   0  0  0  0  0  0  0  0  0  0  0  0
  -24.4717  -20.2379   21.7275 C   0  0  0  0  0  0  0  0  0  0  0  0
  -30.9411  -20.7579   19.6163 C   0  0  0  0  0  0  0  0  0  0  0  0
  -32.0755  -20.7246   20.4272 C   0  0  0  0  0  0  0  0  0  0  0  0
  -22.8481  -18.4539   21.7102 C   0  0  0  0  0  0  0  0  0  0  0  0
  -30.7804  -21.5888   22.2746 C   0  0  0  0  0  0  0  0  0  0  0  0
  -26.7627  -24.9107   18.7239 C   0  0  0  0  0  0  0  0  0  0  0  0
  -25.6619  -26.7143   17.2946 C   0  0  0  0  0  0  0  0  0  0  0  0
  -30.3446  -13.6897   19.6574 C   0  0  0  0  0  0  0  0  0  0  0  0
  -25.1093  -18.0100   22.4518 C   0  0  0  0  0  0  0  0  0  0  0  0
  -29.3723  -14.7071   19.6132 C   0  0  0  0  0  0  0  0  0  0  0  0
  -23.8050  -17.5565   22.2084 C   0  0  0  0  0  0  0  0  0  0  0  0
  -27.9983  -22.4427   19.1303 C   0  0  0  0  0  0  0  0  0  0  0  0
  -23.1806  -19.7868   21.4696 C   0  0  0  0  0  0  0  0  0  0  0  0
  -29.7263  -21.2067   20.1346 C   0  0  0  0  0  0  0  0  0  0  0  0
  -31.9952  -21.1400   21.7563 C   0  0  0  0  0  0  0  0  0  0  0  0
  -29.6460  -21.6221   21.4637 C   0  0  0  0  0  0  0  0  0  0  0  0
  -26.1240  -26.1852   18.5146 C   0  0  0  0  0  0  0  0  0  0  0  0
  -19.7759  -28.1015   22.7415 C   0  0  0  0  0  0  0  0  0  0  0  0
  -25.1402  -27.9404   17.6278 C   0  0  0  0  0  0  0  0  0  0  0  0
  -18.4032  -28.1275   22.6107 C   0  0  0  0  0  0  0  0  0  0  0  0
  -19.4609  -26.0118   22.1551 C   0  0  0  0  0  0  0  0  0  0  0  0
  -25.7006  -26.1480   15.9780 C   0  0  0  0  0  0  0  0  0  0  0  0
  -26.1231  -15.2289   21.2936 C   0  0  0  0  0  0  0  0  0  0  0  0
  -24.1816  -14.0092   23.5882 C   0  0  0  0  0  0  0  0  0  0  0  0
  -21.4823  -14.4435   25.6307 C   0  0  0  0  0  0  0  0  0  0  0  0
  -22.8997  -30.1732   22.7117 C   0  0  0  0  0  0  0  0  0  0  0  0
  -29.9652  -12.2342   19.7679 C   0  0  0  0  0  0  0  0  0  0  0  0
  -26.1488  -17.0764   23.0088 C   0  0  0  0  0  0  0  0  0  0  0  0
  -23.4027  -16.1269   22.4594 C   0  0  0  0  0  0  0  0  0  0  0  0
  -28.5366  -12.0126   20.2582 C   0  0  0  0  0  0  0  0  0  0  0  0
  -25.6213  -31.4724   20.8191 C   0  0  0  0  0  0  0  0  0  0  0  0
  -27.5683  -12.9236   19.5105 C   0  0  0  0  0  0  0  0  0  0  0  0
  -26.0171  -30.3124   19.9038 C   0  0  0  0  0  0  0  0  0  0  0  0
  -25.1846  -30.9802   22.1972 C   0  0  0  0  0  0  0  0  0  0  0  0
  -24.5172  -28.7981   21.2662 C   0  0  0  0  0  0  0  0  0  0  0  0
  -27.8975  -14.4007   19.7584 C   0  0  1  0  0  0  0  0  0  0  0  0
  -25.8491  -15.6085   22.7213 C   0  0  1  0  0  0  0  0  0  0  0  0
  -24.9117  -29.2408   19.8468 C   0  0  2  0  0  0  0  0  0  0  0  0
  -20.1153  -13.2558   27.3680 C   0  0  0  0  0  0  0  0  0  0  0  0
  -22.8455  -12.3532   21.4013 C   0  0  0  0  0  0  0  0  0  0  0  0
  -20.9410  -11.9417   22.9733 C   0  0  0  0  0  0  0  0  0  0  0  0
  -23.2285  -11.1303   23.5489 C   0  0  0  0  0  0  0  0  0  0  0  0
  -22.1260  -16.4699   27.6895 C   0  0  0  0  0  0  0  0  0  0  0  0
  -20.6388  -29.2382   23.1275 C   0  0  0  0  0  0  0  0  0  0  0  0
  -21.0462  -24.1155   21.8135 C   0  0  0  0  0  0  0  0  0  0  0  0
  -22.3642  -22.0179   21.3626 C   0  0  0  0  0  0  0  0  0  1  0  0
  -22.7283  -13.6063   23.6557 C   0  0  1  0  0  0  0  0  0  0  0  0
  -21.2905  -14.1873   27.1146 C   0  0  2  0  0  0  0  0  0  0  0  0
  -20.9768  -22.6501   21.3884 C   0  0  1  0  0  0  0  0  0  0  0  0
  -22.4436  -12.2844   22.8881 C   0  0  0  0  0  0  0  0  0  0  0  0
  -25.9146  -27.0078   19.5457 N   0  0  0  0  0  0  0  0  0  0  0  0
  -20.3841  -26.8890   22.4811 N   0  0  0  0  0  0  0  0  0  0  0  0
  -25.3151  -28.0664   18.9746 N   0  0  0  0  0  0  0  0  0  0  0  0
  -24.4563  -15.2512   22.9983 N   0  0  0  0  0  0  0  0  0  0  0  0
  -24.1336  -29.9673   22.0728 N   0  0  0  0  0  0  0  0  0  0  0  0
  -24.5536  -28.9123   16.8972 N   0  0  0  0  0  0  0  0  0  0  0  0
  -17.5649  -29.1745   22.8028 N   0  0  0  0  0  0  0  0  0  0  0  0
  -26.2718  -24.8788   15.8130 N   0  0  0  0  0  0  0  0  0  0  0  0
  -19.7199  -24.6907   21.8313 N   0  0  0  0  0  0  0  0  0  0  0  0
  -27.4202  -14.8131   21.0610 N   0  0  0  0  0  0  0  0  0  0  0  0
  -22.3827  -13.5610   25.0723 N   0  0  0  0  0  0  0  0  0  0  0  0
  -21.9570  -29.1674   22.5376 N   0  0  0  0  0  0  0  0  0  0  0  0
  -21.0382  -15.4683   27.8331 N   0  3  0  0  0  0  0  0  0  0  0  0
  -25.2571  -26.7568   14.9748 O   0  0  0  0  0  0  0  0  0  0  0  0
  -25.2239  -15.3061   20.4646 O   0  0  0  0  0  0  0  0  0  0  0  0
  -25.0408  -13.2532   24.0485 O   0  0  0  0  0  0  0  0  0  0  0  0
  -20.8898  -15.3348   25.0266 O   0  0  0  0  0  0  0  0  0  0  0  0
  -22.6544  -31.1813   23.3828 O   0  0  0  0  0  0  0  0  0  0  0  0
  -20.1867  -21.9262   22.3339 O   0  0  0  0  0  0  0  0  0  0  0  0
  -28.6007  -21.2384   19.3285 O   0  0  0  0  0  0  0  0  0  0  0  0
  -22.2419  -20.6464   20.9880 O   0  0  0  0  0  0  0  0  0  1  0  0
  -33.0844  -21.1066   22.5353 F   0  0  0  0  0  0  0  0  0  0  0  0
  -28.4814  -22.0532   21.9676 F   0  0  0  0  0  0  0  0  0  0  0  0
  -17.8406  -26.5769   22.1410 S   0  0  0  0  0  0  0  0  0  0  0  0
  1  2  1  0  0  0  0
  1  5  2  0  0  0  0
  2  6  2  0  0  0  0
  3  8  2  0  0  0  0
  3 15  1  0  0  0  0
  4  9  1  0  0  0  0
  4 15  2  0  0  0  0
  5 17  1  0  0  0  0
  6 19  1  0  0  0  0
  7 10  2  0  0  0  0
  7 18  1  0  0  0  0
  8 21  1  0  0  0  0
  9 21  2  0  0  0  0
 10 22  1  0  0  0  0
 11 12  2  0  0  0  0
 11 23  1  0  0  0  0
 12 24  1  0  0  0  0
 13 20  1  0  0  0  0
 13 22  2  0  0  0  0
 14 24  2  0  0  0  0
 14 25  1  0  0  0  0
 15 26  1  0  0  0  0
 16 26  1  0  0  0  0
 16 28  2  0  0  0  0
 16 31  1  0  0  0  0
 17 19  2  0  0  0  0
 17 36  1  0  0  0  0
 18 20  2  0  0  0  0
 18 37  1  0  0  0  0
 19 45  1  0  0  0  0
 20 38  1  0  0  0  0
 21 79  1  0  0  0  0
 22 80  1  0  0  0  0
 23 25  2  0  0  0  0
 23 79  1  0  0  0  0
 24 81  1  0  0  0  0
 25 82  1  0  0  0  0
 26 60  2  0  0  0  0
 27 29  2  0  0  0  0
 27 53  1  0  0  0  0
 27 61  1  0  0  0  0
 28 62  1  0  0  0  0
 28 65  1  0  0  0  0
 29 66  1  0  0  0  0
 29 83  1  0  0  0  0
 30 61  2  0  0  0  0
 30 68  1  0  0  0  0
 30 83  1  0  0  0  0
 31 67  1  0  0  0  0
 31 73  2  0  0  0  0
 32 46  1  0  0  0  0
 32 69  1  0  0  0  0
 32 74  2  0  0  0  0
 33 56  1  0  0  0  0
 33 63  1  0  0  0  0
 33 75  2  0  0  0  0
 34 57  1  0  0  0  0
 34 70  1  0  0  0  0
 34 76  2  0  0  0  0
 35 64  1  0  0  0  0
 35 71  1  0  0  0  0
 35 77  2  0  0  0  0
 36 39  1  0  0  0  0
 37 46  1  0  0  0  0
 38 63  1  0  0  0  0
 39 41  1  0  0  0  0
 40 42  1  0  0  0  0
 40 43  1  0  0  0  0
 41 45  1  0  0  0  0
 42 47  1  0  0  0  0
 43 64  1  0  0  0  0
 44 47  1  0  0  0  0
 44 64  1  0  0  0  0
 45 69  1  0  0  0  0
 46 63  1  0  0  0  0
 47 62  1  0  0  0  0
 48 57  1  0  0  0  0
 49 59  1  0  0  0  0
 50 59  1  0  0  0  0
 51 59  1  0  0  0  0
 52 72  1  0  0  0  0
 53 71  1  0  0  0  0
 54 58  1  0  0  0  0
 54 68  1  0  0  0  0
 55 58  1  0  0  0  0
 55 80  1  0  0  0  0
 56 59  1  0  0  0  0
 56 70  1  0  0  0  0
 57 72  1  0  0  0  0
 58 78  1  0  0  0  0
 60 62  1  0  0  0  0
M  CHG  1  72   1
M  ISO  4  35 100  55 101  71 100  80 101
M  END
> <Batch ID>
0198

> <Smiles>
CNC(C)C(=O)NC(C(=O)N1Cc2cc([101O:1][101CH2:1]C(O)CNc3nc(C[100NH:0][100C:0](=O)N4CCCC(n5nc(-c6ccc(Oc7ccc(F)cc7F)cc6)c(C(N)=O)c5N)C4)c(N)s3)ccc2CC1C(=O)NC1CCCc2ccccc21)C(C)(C)C

> <Shape>
0.215

> <Color>
0.079

> <Negative vol penalty>
0.000

$$$$

  -OEChem-04052305443D

 83 91  0     1  0  0  0  0  0999 V2000
  -21.5787  -12.5147   20.7095 C   0  0  0  0  0  0  0  0  0  0  0  0
  -21.6381  -13.8351   21.1436 C   0  0  0  0  0  0  0  0  0  0  0  0
  -28.9175  -26.2542   24.7422 C   0  0  0  0  0  0  0  0  0  0  0  0
  -26.8696  -25.3985   25.6967 C   0  0  0  0  0  0  0  0  0  0  0  0
  -22.7557  -11.8130   20.4523 C   0  0  0  0  0  0  0  0  0  0  0  0
  -22.8748  -14.4542   21.3219 C   0  0  0  0  0  0  0  0  0  0  0  0
  -22.9982  -19.1372   19.3985 C   0  0  0  0  0  0  0  0  0  0  0  0
  -29.5700  -26.0486   25.9577 C   0  0  0  0  0  0  0  0  0  0  0  0
  -27.5221  -25.1928   26.9122 C   0  0  0  0  0  0  0  0  0  0  0  0
  -22.3929  -20.1479   20.1440 C   0  0  0  0  0  0  0  0  0  0  0  0
  -28.7395  -24.1057   30.1610 C   0  0  0  0  0  0  0  0  0  0  0  0
  -28.5210  -22.8951   30.8184 C   0  0  0  0  0  0  0  0  0  0  0  0
  -24.5560  -20.8276   20.9676 C   0  0  0  0  0  0  0  0  0  0  0  0
  -29.4069  -21.7010   28.9142 C   0  0  0  0  0  0  0  0  0  0  0  0
  -27.5673  -25.9293   24.6117 C   0  0  0  0  0  0  0  0  0  0  0  0
  -26.7754  -25.2315   22.2892 C   0  0  0  0  0  0  0  0  0  0  0  0
  -24.0072  -12.4269   20.6183 C   0  0  0  0  0  0  0  0  0  0  0  0
  -24.3883  -18.9569   19.4405 C   0  0  0  0  0  0  0  0  0  0  0  0
  -24.0697  -13.7596   21.0680 C   0  0  0  0  0  0  0  0  0  0  0  0
  -25.1768  -19.8155   20.2197 C   0  0  0  0  0  0  0  0  0  0  0  0
  -28.8723  -25.5178   27.0427 C   0  0  0  0  0  0  0  0  0  0  0  0
  -23.1715  -20.9914   20.9310 C   0  0  0  0  0  0  0  0  0  0  0  0
  -29.2917  -24.1140   28.8800 C   0  0  0  0  0  0  0  0  0  0  0  0
  -28.8547  -21.6928   30.1951 C   0  0  0  0  0  0  0  0  0  0  0  0
  -29.6254  -22.9116   28.2567 C   0  0  0  0  0  0  0  0  0  0  0  0
  -26.8925  -26.1420   23.3565 C   0  0  0  0  0  0  0  0  0  0  0  0
  -26.0492  -25.9074   21.3393 C   0  0  0  0  0  0  0  0  0  0  0  0
  -19.5583  -27.2876   21.6095 C   0  0  0  0  0  0  0  0  0  0  0  0
  -19.1042  -26.5795   19.5288 C   0  0  0  0  0  0  0  0  0  0  0  0
  -20.6690  -25.5355   20.7529 C   0  0  0  0  0  0  0  0  0  0  0  0
  -27.2780  -23.8942   22.1675 C   0  0  0  0  0  0  0  0  0  0  0  0
  -26.3183  -16.6054   20.3620 C   0  0  0  0  0  0  0  0  0  0  0  0
  -28.6188  -18.5411   19.1441 C   0  0  0  0  0  0  0  0  0  0  0  0
  -29.5998  -21.6987   18.2994 C   0  0  0  0  0  0  0  0  0  0  0  0
  -22.1270  -30.4205   21.6534 C   0  0  0  0  0  0  0  0  0  0  0  0
  -25.2531  -11.6131   20.3731 C   0  0  0  0  0  0  0  0  0  0  0  0
  -25.0286  -17.8789   18.6096 C   0  0  0  0  0  0  0  0  0  0  0  0
  -26.6751  -19.6767   20.2835 C   0  0  0  0  0  0  0  0  0  0  0  0
  -26.5148  -12.4599   20.2273 C   0  0  0  0  0  0  0  0  0  0  0  0
  -25.1451  -30.3345   19.7665 C   0  0  0  0  0  0  0  0  0  0  0  0
  -26.5827  -13.5111   21.3305 C   0  0  0  0  0  0  0  0  0  0  0  0
  -25.9246  -29.1681   20.3763 C   0  0  0  0  0  0  0  0  0  0  0  0
  -24.3598  -31.1040   20.8264 C   0  0  0  0  0  0  0  0  0  0  0  0
  -24.2477  -29.1091   22.2693 C   0  0  0  0  0  0  0  0  0  0  0  0
  -25.3916  -14.4736   21.2494 C   0  0  1  0  0  0  0  0  0  0  0  0
  -26.4006  -17.4599   19.1288 C   0  0  1  0  0  0  0  0  0  0  0  0
  -25.0111  -28.2691   21.2311 C   0  0  2  0  0  0  0  0  0  0  0  0
  -31.5488  -22.9714   17.3617 C   0  0  0  0  0  0  0  0  0  0  0  0
  -30.0557  -18.3118   21.8260 C   0  0  0  0  0  0  0  0  0  0  0  0
  -31.4347  -20.2984   21.1780 C   0  0  0  0  0  0  0  0  0  0  0  0
  -31.5546  -18.2049   19.8268 C   0  0  0  0  0  0  0  0  0  0  0  0
  -28.0235  -22.6263   15.9726 C   0  0  0  0  0  0  0  0  0  0  0  0
  -19.3056  -28.2302   22.7365 C   0  0  0  0  0  0  0  0  0  0  0  0
  -19.9608  -29.6039   22.5477 C   0  0  0  0  0  0  0  0  0  0  0  0
  -22.4172  -24.3429   22.0747 C   0  0  0  0  0  0  0  0  0  0  0  0
  -23.3512  -23.1577   21.8959 C   0  0  0  0  0  0  0  0  0  1  0  0
  -29.4841  -19.6496   19.6930 C   0  0  1  0  0  0  0  0  0  0  0  0
  -30.2489  -22.2495   17.0425 C   0  0  2  0  0  0  0  0  0  0  0  0
  -30.6039  -19.1178   20.6315 C   0  0  0  0  0  0  0  0  0  0  0  0
  -26.2893  -27.3076   23.1084 N   0  0  0  0  0  0  0  0  0  0  0  0
  -18.8236  -27.4640   20.4992 N   0  0  0  0  0  0  0  0  0  0  0  0
  -20.4966  -26.3478   21.8082 N   0  0  0  0  0  0  0  0  0  0  0  0
  -20.0112  -25.5909   19.5837 N   0  0  0  0  0  0  0  0  0  0  0  0
  -25.7861  -27.1341   21.8743 N   0  0  0  0  0  0  0  0  0  0  0  0
  -27.2537  -18.6036   19.4581 N   0  0  0  0  0  0  0  0  0  0  0  0
  -23.5123  -30.1940   21.6007 N   0  0  0  0  0  0  0  0  0  0  0  0
  -25.6166  -25.5662   20.1069 N   0  0  0  0  0  0  0  0  0  0  0  0
  -18.3716  -26.7027   18.3280 N   0  0  0  0  0  0  0  0  0  0  0  0
  -28.0037  -23.3532   23.2375 N   0  0  0  0  0  0  0  0  0  0  0  0
  -21.6225  -24.5395   20.8840 N   0  0  0  0  0  0  0  0  0  0  0  0
  -25.5943  -15.4407   20.1920 N   0  0  0  0  0  0  0  0  0  0  0  0
  -29.9755  -20.3937   18.5383 N   0  0  0  0  0  0  0  0  0  0  0  0
  -21.3963  -29.5076   22.4040 N   0  0  0  0  0  0  0  0  0  0  0  0
  -29.3325  -23.2094   16.3643 N   0  3  0  0  0  0  0  0  0  0  0  0
  -27.1032  -23.2056   21.1337 O   0  0  0  0  0  0  0  0  0  0  0  0
  -26.8720  -16.9745   21.3909 O   0  0  0  0  0  0  0  0  0  0  0  0
  -29.1338  -17.6563   18.4559 O   0  0  0  0  0  0  0  0  0  0  0  0
  -28.8389  -22.3612   19.0013 O   0  0  0  0  0  0  0  0  0  0  0  0
  -21.5811  -31.3632   21.0701 O   0  0  0  0  0  0  0  0  0  0  0  0
  -29.5088  -25.3167   28.2289 O   0  0  0  0  0  0  0  0  0  0  0  0
  -22.5831  -21.9783   21.6602 O   0  0  0  0  0  0  0  0  0  1  0  0
  -28.6462  -20.5304   30.8272 F   0  0  0  0  0  0  0  0  0  0  0  0
  -30.1573  -22.9133   27.0267 F   0  0  0  0  0  0  0  0  0  0  0  0
  1  2  1  0  0  0  0
  1  5  2  0  0  0  0
  2  6  2  0  0  0  0
  3  8  2  0  0  0  0
  3 15  1  0  0  0  0
  4  9  1  0  0  0  0
  4 15  2  0  0  0  0
  5 17  1  0  0  0  0
  6 19  1  0  0  0  0
  7 10  2  0  0  0  0
  7 18  1  0  0  0  0
  8 21  1  0  0  0  0
  9 21  2  0  0  0  0
 10 22  1  0  0  0  0
 11 12  2  0  0  0  0
 11 23  1  0  0  0  0
 12 24  1  0  0  0  0
 13 20  1  0  0  0  0
 13 22  2  0  0  0  0
 14 24  2  0  0  0  0
 14 25  1  0  0  0  0
 15 26  1  0  0  0  0
 16 26  1  0  0  0  0
 16 27  2  0  0  0  0
 16 31  1  0  0  0  0
 17 19  2  0  0  0  0
 17 36  1  0  0  0  0
 18 20  2  0  0  0  0
 18 37  1  0  0  0  0
 19 45  1  0  0  0  0
 20 38  1  0  0  0  0
 21 80  1  0  0  0  0
 22 81  1  0  0  0  0
 23 25  2  0  0  0  0
 23 80  1  0  0  0  0
 24 82  1  0  0  0  0
 25 83  1  0  0  0  0
 26 60  2  0  0  0  0
 27 64  1  0  0  0  0
 27 67  1  0  0  0  0
 28 53  1  0  0  0  0
 28 61  2  0  0  0  0
 28 62  1  0  0  0  0
 29 61  1  0  0  0  0
 29 63  2  0  0  0  0
 29 68  1  0  0  0  0
 30 62  2  0  0  0  0
 30 63  1  0  0  0  0
 30 70  1  0  0  0  0
 31 69  1  0  0  0  0
 31 75  2  0  0  0  0
 32 46  1  0  0  0  0
 32 71  1  0  0  0  0
 32 76  2  0  0  0  0
 33 57  1  0  0  0  0
 33 65  1  0  0  0  0
 33 77  2  0  0  0  0
 34 58  1  0  0  0  0
 34 72  1  0  0  0  0
 34 78  2  0  0  0  0
 35 66  1  0  0  0  0
 35 73  1  0  0  0  0
 35 79  2  0  0  0  0
 36 39  1  0  0  0  0
 37 46  1  0  0  0  0
 38 65  1  0  0  0  0
 39 41  1  0  0  0  0
 40 42  1  0  0  0  0
 40 43  1  0  0  0  0
 41 45  1  0  0  0  0
 42 47  1  0  0  0  0
 43 66  1  0  0  0  0
 44 47  1  0  0  0  0
 44 66  1  0  0  0  0
 45 71  1  0  0  0  0
 46 65  1  0  0  0  0
 47 64  1  0  0  0  0
 48 58  1  0  0  0  0
 49 59  1  0  0  0  0
 50 59  1  0  0  0  0
 51 59  1  0  0  0  0
 52 74  1  0  0  0  0
 53 54  1  0  0  0  0
 54 73  1  0  0  0  0
 55 56  1  0  0  0  0
 55 70  1  0  0  0  0
 56 81  1  0  0  0  0
 57 59  1  0  0  0  0
 57 72  1  0  0  0  0
 58 74  1  0  0  0  0
 60 64  1  0  0  0  0
M  CHG  1  74   1
M  ISO  4  35 100  56 101  73 100  81 101
M  END
> <Batch ID>
0198

> <Smiles>
CNC(C)C(=O)NC(C(=O)N1Cc2cc([101O:1][101CH2:1]CNc3nc(N)nc(CC[100NH:0][100C:0](=O)N4CCCC(n5nc(-c6ccc(Oc7ccc(F)cc7F)cc6)c(C(N)=O)c5N)C4)n3)ccc2CC1C(=O)NC1CCCc2ccccc21)C(C)(C)C

> <Shape>
0.190

> <Color>
0.075

> <Negative vol penalty>
0.000

$$$$

  -OEChem-04052305443D

 81 89  0     1  0  0  0  0  0999 V2000
  -19.2624  -21.0443   22.1820 C   0  0  0  0  0  0  0  0  0  0  0  0
  -20.6115  -20.7178   22.0877 C   0  0  0  0  0  0  0  0  0  0  0  0
  -27.3457  -13.6875   22.5222 C   0  0  0  0  0  0  0  0  0  0  0  0
  -26.8968  -13.1030   20.2214 C   0  0  0  0  0  0  0  0  0  0  0  0
  -18.8048  -22.2630   21.6827 C   0  0  0  0  0  0  0  0  0  0  0  0
  -21.5035  -21.6094   21.4930 C   0  0  0  0  0  0  0  0  0  0  0  0
  -28.3058  -23.8157   21.9142 C   0  0  0  0  0  0  0  0  0  0  0  0
  -26.7165  -12.5158   22.9427 C   0  0  0  0  0  0  0  0  0  0  0  0
  -26.2676  -11.9312   20.6418 C   0  0  0  0  0  0  0  0  0  0  0  0
  -29.4305  -23.9985   21.1109 C   0  0  0  0  0  0  0  0  0  0  0  0
  -24.2261   -8.9632   21.1245 C   0  0  0  0  0  0  0  0  0  0  0  0
  -23.0101   -8.6303   20.5279 C   0  0  0  0  0  0  0  0  0  0  0  0
  -28.5399  -26.1089   20.3546 C   0  0  0  0  0  0  0  0  0  0  0  0
  -22.0526  -10.7005   21.3245 C   0  0  0  0  0  0  0  0  0  0  0  0
  -27.4358  -13.9811   21.1616 C   0  0  0  0  0  0  0  0  0  0  0  0
  -29.4480  -15.3613   20.4175 C   0  0  0  0  0  0  0  0  0  0  0  0
  -19.6933  -23.1741   21.0902 C   0  0  0  0  0  0  0  0  0  0  0  0
  -27.2829  -24.7746   21.9355 C   0  0  0  0  0  0  0  0  0  0  0  0
  -21.0571  -22.8408   20.9841 C   0  0  0  0  0  0  0  0  0  0  0  0
  -27.4044  -25.9371   21.1610 C   0  0  0  0  0  0  0  0  0  0  0  0
  -26.1775  -11.6376   22.0025 C   0  0  0  0  0  0  0  0  0  0  0  0
  -29.5464  -25.1438   20.3287 C   0  0  0  0  0  0  0  0  0  0  0  0
  -24.3554  -10.1647   21.8213 C   0  0  0  0  0  0  0  0  0  0  0  0
  -21.9233   -9.4990   20.6279 C   0  0  0  0  0  0  0  0  0  0  0  0
  -23.2687  -11.0333   21.9212 C   0  0  0  0  0  0  0  0  0  0  0  0
  -28.0852  -15.1916   20.7267 C   0  0  0  0  0  0  0  0  0  0  0  0
  -30.5347  -22.2789   16.2118 C   0  0  0  0  0  0  0  0  0  0  0  0
  -29.5570  -16.6829   20.0596 C   0  0  0  0  0  0  0  0  0  0  0  0
  -31.7631  -21.8111   16.6290 C   0  0  0  0  0  0  0  0  0  0  0  0
  -31.3741  -24.1670   16.9471 C   0  0  0  0  0  0  0  0  0  0  0  0
  -30.5197  -14.4094   20.4507 C   0  0  0  0  0  0  0  0  0  0  0  0
  -24.1969  -24.7797   21.1738 C   0  0  0  0  0  0  0  0  0  0  0  0
  -24.2942  -27.7732   22.4195 C   0  0  0  0  0  0  0  0  0  0  0  0
  -26.1515  -30.5286   23.1973 C   0  0  0  0  0  0  0  0  0  0  0  0
  -27.6708  -21.1467   17.2916 C   0  0  0  0  0  0  0  0  0  0  0  0
  -19.1441  -24.4589   20.5223 C   0  0  0  0  0  0  0  0  0  0  0  0
  -26.0885  -24.5752   22.8278 C   0  0  0  0  0  0  0  0  0  0  0  0
  -26.3436  -27.0063   21.1636 C   0  0  0  0  0  0  0  0  0  0  0  0
  -20.2163  -25.5091   20.2437 C   0  0  0  0  0  0  0  0  0  0  0  0
  -26.2597  -20.4940   20.4947 C   0  0  0  0  0  0  0  0  0  0  0  0
  -21.4007  -24.8825   19.5146 C   0  0  0  0  0  0  0  0  0  0  0  0
  -26.7159  -19.0688   20.8119 C   0  0  0  0  0  0  0  0  0  0  0  0
  -25.9508  -20.6704   19.0096 C   0  0  0  0  0  0  0  0  0  0  0  0
  -27.4956  -18.8442   18.4159 C   0  0  0  0  0  0  0  0  0  0  0  0
  -22.0598  -23.7923   20.3681 C   0  0  1  0  0  0  0  0  0  0  0  0
  -24.8681  -25.3735   22.3798 C   0  0  1  0  0  0  0  0  0  0  0  0
  -27.8723  -18.6325   19.8923 C   0  0  2  0  0  0  0  0  0  0  0  0
  -31.4268  -26.5186   16.0536 C   0  0  0  0  0  0  0  0  0  0  0  0
  -25.9457  -32.8322   24.1711 C   0  0  0  0  0  0  0  0  0  0  0  0
  -23.0662  -28.7647   19.8083 C   0  0  0  0  0  0  0  0  0  0  0  0
  -23.7576  -31.0851   20.4453 C   0  0  0  0  0  0  0  0  0  0  0  0
  -22.1372  -29.8331   21.8698 C   0  0  0  0  0  0  0  0  0  0  0  0
  -27.9880  -29.8769   25.4247 C   0  0  0  0  0  0  0  0  0  0  0  0
  -29.4556  -21.4752   15.5988 C   0  0  0  0  0  0  0  0  0  0  0  0
  -30.4652  -26.0752   18.3427 C   0  0  0  0  0  0  0  0  0  1  0  0
  -31.5078  -25.6390   17.3043 C   0  0  1  0  0  0  0  0  0  0  0  0
  -24.5718  -29.1514   21.8697 C   0  0  1  0  0  0  0  0  0  0  0  0
  -26.2301  -31.3666   24.4606 C   0  0  2  0  0  0  0  0  0  0  0  0
  -23.4024  -29.6877   20.9965 C   0  0  0  0  0  0  0  0  0  0  0  0
  -27.3790  -16.3156   20.5784 N   0  0  0  0  0  0  0  0  0  0  0  0
  -30.3096  -23.6295   16.3938 N   0  0  0  0  0  0  0  0  0  0  0  0
  -28.3017  -17.2042   20.1722 N   0  0  0  0  0  0  0  0  0  0  0  0
  -25.1919  -26.7624   22.0478 N   0  0  0  0  0  0  0  0  0  0  0  0
  -27.0881  -20.2402   18.1926 N   0  0  0  0  0  0  0  0  0  0  0  0
  -30.6031  -17.4382   19.6628 N   0  0  0  0  0  0  0  0  0  0  0  0
  -32.2386  -20.5436   16.5694 N   0  0  0  0  0  0  0  0  0  0  0  0
  -30.2333  -13.0942   20.8414 N   0  0  0  0  0  0  0  0  0  0  0  0
  -22.8905  -24.3864   21.3935 N   0  0  0  0  0  0  0  0  0  0  0  0
  -24.8942  -29.9917   23.0180 N   0  0  0  0  0  0  0  0  0  0  0  0
  -28.7478  -20.6602   16.5609 N   0  0  0  0  0  0  0  0  0  0  0  0
  -27.5871  -31.2622   25.0678 N   0  3  0  0  0  0  0  0  0  0  0  0
  -31.6995  -14.7200   20.1587 O   0  0  0  0  0  0  0  0  0  0  0  0
  -24.8177  -24.6866   20.1214 O   0  0  0  0  0  0  0  0  0  0  0  0
  -23.3209  -27.6013   23.1577 O   0  0  0  0  0  0  0  0  0  0  0  0
  -27.1086  -30.3695   22.4428 O   0  0  0  0  0  0  0  0  0  0  0  0
  -27.2648  -22.3056   17.1529 O   0  0  0  0  0  0  0  0  0  0  0  0
  -25.5636  -10.4941   22.4124 O   0  0  0  0  0  0  0  0  0  0  0  0
  -30.6428  -25.3244   19.5432 O   0  0  0  0  0  0  0  0  0  1  0  0
  -20.7560   -9.1799   20.0535 F   0  0  0  0  0  0  0  0  0  0  0  0
  -23.3871  -12.1896   22.5882 F   0  0  0  0  0  0  0  0  0  0  0  0
  -32.6828  -23.1065   17.2753 S   0  0  0  0  0  0  0  0  0  0  0  0
  1  2  1  0  0  0  0
  1  5  2  0  0  0  0
  2  6  2  0  0  0  0
  3  8  2  0  0  0  0
  3 15  1  0  0  0  0
  4  9  1  0  0  0  0
  4 15  2  0  0  0  0
  5 17  1  0  0  0  0
  6 19  1  0  0  0  0
  7 10  2  0  0  0  0
  7 18  1  0  0  0  0
  8 21  1  0  0  0  0
  9 21  2  0  0  0  0
 10 22  1  0  0  0  0
 11 12  2  0  0  0  0
 11 23  1  0  0  0  0
 12 24  1  0  0  0  0
 13 20  1  0  0  0  0
 13 22  2  0  0  0  0
 14 24  2  0  0  0  0
 14 25  1  0  0  0  0
 15 26  1  0  0  0  0
 16 26  1  0  0  0  0
 16 28  2  0  0  0  0
 16 31  1  0  0  0  0
 17 19  2  0  0  0  0
 17 36  1  0  0  0  0
 18 20  2  0  0  0  0
 18 37  1  0  0  0  0
 19 45  1  0  0  0  0
 20 38  1  0  0  0  0
 21 77  1  0  0  0  0
 22 78  1  0  0  0  0
 23 25  2  0  0  0  0
 23 77  1  0  0  0  0
 24 79  1  0  0  0  0
 25 80  1  0  0  0  0
 26 60  2  0  0  0  0
 27 29  2  0  0  0  0
 27 54  1  0  0  0  0
 27 61  1  0  0  0  0
 28 62  1  0  0  0  0
 28 65  1  0  0  0  0
 29 66  1  0  0  0  0
 29 81  1  0  0  0  0
 30 56  1  0  0  0  0
 30 61  2  0  0  0  0
 30 81  1  0  0  0  0
 31 67  1  0  0  0  0
 31 72  2  0  0  0  0
 32 46  1  0  0  0  0
 32 68  1  0  0  0  0
 32 73  2  0  0  0  0
 33 57  1  0  0  0  0
 33 63  1  0  0  0  0
 33 74  2  0  0  0  0
 34 58  1  0  0  0  0
 34 69  1  0  0  0  0
 34 75  2  0  0  0  0
 35 64  1  0  0  0  0
 35 70  1  0  0  0  0
 35 76  2  0  0  0  0
 36 39  1  0  0  0  0
 37 46  1  0  0  0  0
 38 63  1  0  0  0  0
 39 41  1  0  0  0  0
 40 42  1  0  0  0  0
 40 43  1  0  0  0  0
 41 45  1  0  0  0  0
 42 47  1  0  0  0  0
 43 64  1  0  0  0  0
 44 47  1  0  0  0  0
 44 64  1  0  0  0  0
 45 68  1  0  0  0  0
 46 63  1  0  0  0  0
 47 62  1  0  0  0  0
 48 56  1  0  0  0  0
 49 58  1  0  0  0  0
 50 59  1  0  0  0  0
 51 59  1  0  0  0  0
 52 59  1  0  0  0  0
 53 71  1  0  0  0  0
 54 70  1  0  0  0  0
 55 56  1  0  0  0  0
 55 78  1  0  0  0  0
 57 59  1  0  0  0  0
 57 69  1  0  0  0  0
 58 71  1  0  0  0  0
 60 62  1  0  0  0  0
M  CHG  1  71   1
M  ISO  4  35 100  55 101  70 100  78 101
M  END
> <Batch ID>
0198

> <Smiles>
CNC(C)C(=O)NC(C(=O)N1Cc2cc([101O:1][101CH2:1]C(C)c3nc(C[100NH:0][100C:0](=O)N4CCCC(n5nc(-c6ccc(Oc7ccc(F)cc7F)cc6)c(C(N)=O)c5N)C4)c(N)s3)ccc2CC1C(=O)NC1CCCc2ccccc21)C(C)(C)C

> <Shape>
0.231

> <Color>
0.069

> <Negative vol penalty>
0.000

$$$$

  -OEChem-04052305443D

 85 93  0     1  0  0  0  0  0999 V2000
  -28.7591  -34.1757   19.0204 C   0  0  0  0  0  0  0  0  0  0  0  0
  -29.2659  -32.9631   19.4766 C   0  0  0  0  0  0  0  0  0  0  0  0
  -23.0763   -9.8642   19.9433 C   0  0  0  0  0  0  0  0  0  0  0  0
  -23.8353   -9.8764   22.2370 C   0  0  0  0  0  0  0  0  0  0  0  0
  -28.5402  -34.3698   17.6572 C   0  0  0  0  0  0  0  0  0  0  0  0
  -29.5530  -31.9434   18.5699 C   0  0  0  0  0  0  0  0  0  0  0  0
  -34.0187  -29.7354   19.4797 C   0  0  0  0  0  0  0  0  0  0  0  0
  -22.3333   -8.7109   20.1953 C   0  0  0  0  0  0  0  0  0  0  0  0
  -23.0923   -8.7231   22.4890 C   0  0  0  0  0  0  0  0  0  0  0  0
  -34.0718  -28.8125   20.5233 C   0  0  0  0  0  0  0  0  0  0  0  0
  -19.8647   -7.9237   23.0920 C   0  0  0  0  0  0  0  0  0  0  0  0
  -19.1073   -7.8854   24.2627 C   0  0  0  0  0  0  0  0  0  0  0  0
  -33.9229  -27.0091   18.9281 C   0  0  0  0  0  0  0  0  0  0  0  0
  -20.3502   -5.9505   25.0034 C   0  0  0  0  0  0  0  0  0  0  0  0
  -29.7679  -17.7321   22.7064 C   0  0  0  0  0  0  0  0  0  0  0  0
  -23.8273  -10.4469   20.9641 C   0  0  0  0  0  0  0  0  0  0  0  0
  -24.1670  -12.9721   20.8392 C   0  0  0  0  0  0  0  0  0  0  0  0
  -28.8339  -33.3554   16.7324 C   0  0  0  0  0  0  0  0  0  0  0  0
  -33.9061  -29.3016   18.1509 C   0  0  0  0  0  0  0  0  0  0  0  0
  -29.3366  -32.1236   17.1932 C   0  0  0  0  0  0  0  0  0  0  0  0
  -33.8712  -27.9284   17.8692 C   0  0  0  0  0  0  0  0  0  0  0  0
  -22.3413   -8.1404   21.4682 C   0  0  0  0  0  0  0  0  0  0  0  0
  -34.0210  -27.4492   20.2479 C   0  0  0  0  0  0  0  0  0  0  0  0
  -20.8647   -6.9753   22.8769 C   0  0  0  0  0  0  0  0  0  0  0  0
  -19.3501   -6.8989   25.2184 C   0  0  0  0  0  0  0  0  0  0  0  0
  -21.1075   -5.9888   23.8327 C   0  0  0  0  0  0  0  0  0  0  0  0
  -24.5955  -11.6380   20.7043 C   0  0  0  0  0  0  0  0  0  0  0  0
  -30.5669  -16.9560   21.8960 C   0  0  0  0  0  0  0  0  0  0  0  0
  -31.3913  -19.3417   22.7656 C   0  0  0  0  0  0  0  0  0  0  0  0
  -32.1907  -18.5653   21.9558 C   0  0  0  0  0  0  0  0  0  0  0  0
  -25.2586  -13.7218   20.4748 C   0  0  0  0  0  0  0  0  0  0  0  0
  -22.8959  -13.4877   21.2566 C   0  0  0  0  0  0  0  0  0  0  0  0
  -31.7475  -29.6685   15.8467 C   0  0  0  0  0  0  0  0  0  0  0  0
  -33.9753  -28.1397   14.0518 C   0  0  0  0  0  0  0  0  0  0  0  0
  -36.6600  -26.0357   13.9402 C   0  0  0  0  0  0  0  0  0  0  0  0
  -30.7238  -14.7726   20.6493 C   0  0  0  0  0  0  0  0  0  0  0  0
  -28.5361  -33.5948   15.2734 C   0  0  0  0  0  0  0  0  0  0  0  0
  -33.8769  -30.3092   17.0346 C   0  0  0  0  0  0  0  0  0  0  0  0
  -33.7709  -27.4106   16.4585 C   0  0  0  0  0  0  0  0  0  0  0  0
  -29.2188  -32.5975   14.3408 C   0  0  0  0  0  0  0  0  0  0  0  0
  -29.6124  -12.3530   18.2855 C   0  0  0  0  0  0  0  0  0  0  0  0
  -29.0386  -31.1737   14.8577 C   0  0  0  0  0  0  0  0  0  0  0  0
  -28.1728  -12.0611   18.7152 C   0  0  0  0  0  0  0  0  0  0  0  0
  -30.5268  -12.5850   19.4870 C   0  0  0  0  0  0  0  0  0  0  0  0
  -28.6188  -13.3106   20.8662 C   0  0  0  0  0  0  0  0  0  0  0  0
  -29.6838  -31.0022   16.2382 C   0  0  1  0  0  0  0  0  0  0  0  0
  -33.2441  -29.7670   15.7567 C   0  0  1  0  0  0  0  0  0  0  0  0
  -27.6465  -13.1341   19.6883 C   0  0  2  0  0  0  0  0  0  0  0  0
  -38.2413  -24.9437   12.3263 C   0  0  0  0  0  0  0  0  0  0  0  0
  -31.7972  -26.1527   13.2659 C   0  0  0  0  0  0  0  0  0  0  0  0
  -33.5951  -24.6046   12.4666 C   0  0  0  0  0  0  0  0  0  0  0  0
  -33.3080  -26.8387   11.3947 C   0  0  0  0  0  0  0  0  0  0  0  0
  -39.0051  -27.3726   15.1535 C   0  0  0  0  0  0  0  0  0  0  0  0
  -31.7185  -22.9683   23.6925 C   0  0  0  0  0  0  0  0  0  0  0  0
  -32.9015  -24.7961   22.4182 C   0  0  0  0  0  0  0  0  0  0  0  0
  -30.9849  -21.6270   23.6809 C   0  0  0  0  0  0  0  0  0  0  0  0
  -33.3925  -25.3070   21.0676 C   0  0  0  0  0  0  0  0  0  1  0  0
  -34.2789  -26.6975   13.7248 C   0  0  1  0  0  0  0  0  0  0  0  0
  -37.9958  -26.1441   13.2271 C   0  0  2  0  0  0  0  0  0  0  0  0
  -32.1734  -23.4527   22.3070 C   0  0  2  0  0  0  0  0  0  0  0  0
  -33.2447  -26.0828   12.7398 C   0  0  0  0  0  0  0  0  0  0  0  0
  -30.1657  -18.9389   23.1557 N   0  0  0  0  0  0  0  0  0  0  0  0
  -25.8605  -11.5424   20.2867 N   0  0  0  0  0  0  0  0  0  0  0  0
  -31.7927  -17.3587   21.5062 N   0  0  0  0  0  0  0  0  0  0  0  0
  -26.2364  -12.8260   20.1559 N   0  0  0  0  0  0  0  0  0  0  0  0
  -33.7391  -28.4353   15.4018 N   0  0  0  0  0  0  0  0  0  0  0  0
  -29.9667  -13.6171   20.3621 N   0  0  0  0  0  0  0  0  0  0  0  0
  -33.4686  -19.0357   21.5767 N   0  0  0  0  0  0  0  0  0  0  0  0
  -25.4679  -15.0533   20.3992 N   0  0  0  0  0  0  0  0  0  0  0  0
  -21.8847  -12.5783   21.5954 N   0  0  0  0  0  0  0  0  0  0  0  0
  -30.0754  -15.6987   21.4657 N   0  0  0  0  0  0  0  0  0  0  0  0
  -31.8486  -20.5761   23.2000 N   0  0  0  0  0  0  0  0  0  0  0  0
  -31.1195  -30.8704   16.1122 N   0  0  0  0  0  0  0  0  0  0  0  0
  -35.6549  -26.6695   13.2408 N   0  0  0  0  0  0  0  0  0  0  0  0
  -39.1067  -26.2235   14.2174 N   0  3  0  0  0  0  0  0  0  0  0  0
  -22.6586  -14.7182   21.3114 O   0  0  0  0  0  0  0  0  0  0  0  0
  -31.2027  -28.5827   15.6857 O   0  0  0  0  0  0  0  0  0  0  0  0
  -33.9559  -28.9745   13.1438 O   0  0  0  0  0  0  0  0  0  0  0  0
  -36.5214  -25.4445   15.0087 O   0  0  0  0  0  0  0  0  0  0  0  0
  -31.8529  -14.9413   20.1818 O   0  0  0  0  0  0  0  0  0  0  0  0
  -31.0421  -23.6219   21.4571 O   0  0  0  0  0  0  0  0  0  0  0  0
  -21.6163   -7.0151   21.7145 O   0  0  0  0  0  0  0  0  0  0  0  0
  -34.0720  -26.5463   21.2647 O   0  0  0  0  0  0  0  0  0  1  0  0
  -18.6238   -6.8632   26.3433 F   0  0  0  0  0  0  0  0  0  0  0  0
  -22.0677   -5.0757   23.6322 F   0  0  0  0  0  0  0  0  0  0  0  0
  1  2  1  0  0  0  0
  1  5  2  0  0  0  0
  2  6  2  0  0  0  0
  3  8  2  0  0  0  0
  3 16  1  0  0  0  0
  4  9  1  0  0  0  0
  4 16  2  0  0  0  0
  5 18  1  0  0  0  0
  6 20  1  0  0  0  0
  7 10  2  0  0  0  0
  7 19  1  0  0  0  0
  8 22  1  0  0  0  0
  9 22  2  0  0  0  0
 10 23  1  0  0  0  0
 11 12  2  0  0  0  0
 11 24  1  0  0  0  0
 12 25  1  0  0  0  0
 13 21  1  0  0  0  0
 13 23  2  0  0  0  0
 14 25  2  0  0  0  0
 14 26  1  0  0  0  0
 15 28  1  0  0  0  0
 15 62  2  0  0  0  0
 16 27  1  0  0  0  0
 17 27  1  0  0  0  0
 17 31  2  0  0  0  0
 17 32  1  0  0  0  0
 18 20  2  0  0  0  0
 18 37  1  0  0  0  0
 19 21  2  0  0  0  0
 19 38  1  0  0  0  0
 20 46  1  0  0  0  0
 21 39  1  0  0  0  0
 22 82  1  0  0  0  0
 23 83  1  0  0  0  0
 24 26  2  0  0  0  0
 24 82  1  0  0  0  0
 25 84  1  0  0  0  0
 26 85  1  0  0  0  0
 27 63  2  0  0  0  0
 28 64  2  0  0  0  0
 28 71  1  0  0  0  0
 29 30  2  0  0  0  0
 29 62  1  0  0  0  0
 29 72  1  0  0  0  0
 30 64  1  0  0  0  0
 30 68  1  0  0  0  0
 31 65  1  0  0  0  0
 31 69  1  0  0  0  0
 32 70  1  0  0  0  0
 32 76  2  0  0  0  0
 33 47  1  0  0  0  0
 33 73  1  0  0  0  0
 33 77  2  0  0  0  0
 34 58  1  0  0  0  0
 34 66  1  0  0  0  0
 34 78  2  0  0  0  0
 35 59  1  0  0  0  0
 35 74  1  0  0  0  0
 35 79  2  0  0  0  0
 36 67  1  0  0  0  0
 36 71  1  0  0  0  0
 36 80  2  0  0  0  0
 37 40  1  0  0  0  0
 38 47  1  0  0  0  0
 39 66  1  0  0  0  0
 40 42  1  0  0  0  0
 41 43  1  0  0  0  0
 41 44  1  0  0  0  0
 42 46  1  0  0  0  0
 43 48  1  0  0  0  0
 44 67  1  0  0  0  0
 45 48  1  0  0  0  0
 45 67  1  0  0  0  0
 46 73  1  0  0  0  0
 47 66  1  0  0  0  0
 48 65  1  0  0  0  0
 49 59  1  0  0  0  0
 50 61  1  0  0  0  0
 51 61  1  0  0  0  0
 52 61  1  0  0  0  0
 53 75  1  0  0  0  0
 54 56  1  0  0  0  0
 54 60  1  0  0  0  0
 55 57  1  0  0  0  0
 55 60  1  0  0  0  0
 56 72  1  0  0  0  0
 57 83  1  0  0  0  0
 58 61  1  0  0  0  0
 58 74  1  0  0  0  0
 59 75  1  0  0  0  0
 60 81  1  0  0  0  0
 63 65  1  0  0  0  0
M  CHG  1  75   1
M  ISO  4  36 100  57 101  71 100  83 101
M  END
> <Batch ID>
0198

> <Smiles>
CNC(C)C(=O)NC(C(=O)N1Cc2cc([101O:1][101CH2:1]CC(O)CCNc3ncc([100NH:0][100C:0](=O)N4CCCC(n5nc(-c6ccc(Oc7ccc(F)cc7F)cc6)c(C(N)=O)c5N)C4)nc3N)ccc2CC1C(=O)NC1CCCc2ccccc21)C(C)(C)C

> <Shape>
0.172

> <Color>
0.173

> <Negative vol penalty>
0.000

$$$$

  -OEChem-04052305443D

 86 94  0     1  0  0  0  0  0999 V2000
  -32.3933  -21.3518   20.6582 C   0  0  0  0  0  0  0  0  0  0  0  0
  -31.2724  -21.8986   21.2747 C   0  0  0  0  0  0  0  0  0  0  0  0
  -30.3044  -27.7444   20.9454 C   0  0  0  0  0  0  0  0  0  0  0  0
  -28.9717  -26.0680   22.0637 C   0  0  0  0  0  0  0  0  0  0  0  0
  -32.2402  -20.4948   19.5692 C   0  0  0  0  0  0  0  0  0  0  0  0
  -29.9976  -21.5894   20.8017 C   0  0  0  0  0  0  0  0  0  0  0  0
  -23.2766  -20.6278   23.0863 C   0  0  0  0  0  0  0  0  0  0  0  0
  -31.4391  -27.2913   21.6184 C   0  0  0  0  0  0  0  0  0  0  0  0
  -30.1064  -25.6148   22.7366 C   0  0  0  0  0  0  0  0  0  0  0  0
  -21.9779  -21.0630   22.8261 C   0  0  0  0  0  0  0  0  0  0  0  0
  -31.9662  -26.5563   25.3985 C   0  0  0  0  0  0  0  0  0  0  0  0
  -31.8510  -26.3026   26.7652 C   0  0  0  0  0  0  0  0  0  0  0  0
  -21.8315  -19.5080   20.9877 C   0  0  0  0  0  0  0  0  0  0  0  0
  -32.4682  -23.9972   26.3894 C   0  0  0  0  0  0  0  0  0  0  0  0
  -29.0707  -27.1328   21.1681 C   0  0  0  0  0  0  0  0  0  0  0  0
  -27.4130  -27.1561   19.2292 C   0  0  0  0  0  0  0  0  0  0  0  0
  -30.9625  -20.1673   19.0887 C   0  0  0  0  0  0  0  0  0  0  0  0
  -23.8674  -19.6354   22.2910 C   0  0  0  0  0  0  0  0  0  0  0  0
  -29.8273  -20.7282   19.7044 C   0  0  0  0  0  0  0  0  0  0  0  0
  -23.1369  -19.0601   21.2415 C   0  0  0  0  0  0  0  0  0  0  0  0
  -31.3401  -26.2265   22.5139 C   0  0  0  0  0  0  0  0  0  0  0  0
  -21.2562  -20.5052   21.7749 C   0  0  0  0  0  0  0  0  0  0  0  0
  -32.3324  -25.5304   24.5271 C   0  0  0  0  0  0  0  0  0  0  0  0
  -32.1020  -25.0231   27.2607 C   0  0  0  0  0  0  0  0  0  0  0  0
  -32.5834  -24.2509   25.0226 C   0  0  0  0  0  0  0  0  0  0  0  0
  -27.8981  -27.6008   20.4737 C   0  0  0  0  0  0  0  0  0  0  0  0
  -17.9840  -28.1758   22.4589 C   0  0  0  0  0  0  0  0  0  0  0  0
  -26.2841  -27.9076   19.0123 C   0  0  0  0  0  0  0  0  0  0  0  0
  -18.3436  -26.9356   22.9435 C   0  0  0  0  0  0  0  0  0  0  0  0
  -20.1609  -28.4419   22.4627 C   0  0  0  0  0  0  0  0  0  0  0  0
  -27.9361  -26.1532   18.3482 C   0  0  0  0  0  0  0  0  0  0  0  0
  -26.4070  -19.5063   20.3837 C   0  0  0  0  0  0  0  0  0  0  0  0
  -25.6467  -16.3565   20.2317 C   0  0  0  0  0  0  0  0  0  0  0  0
  -23.2606  -13.9345   20.5269 C   0  0  0  0  0  0  0  0  0  0  0  0
  -21.8353  -30.2291   21.8723 C   0  0  0  0  0  0  0  0  0  0  0  0
  -30.8489  -19.2737   17.8791 C   0  0  0  0  0  0  0  0  0  0  0  0
  -25.2596  -19.1579   22.6014 C   0  0  0  0  0  0  0  0  0  0  0  0
  -23.7183  -17.9774   20.3707 C   0  0  0  0  0  0  0  0  0  0  0  0
  -29.4489  -18.7004   17.6747 C   0  0  0  0  0  0  0  0  0  0  0  0
  -24.5743  -32.2111   20.7559 C   0  0  0  0  0  0  0  0  0  0  0  0
  -28.3967  -19.7943   17.8263 C   0  0  0  0  0  0  0  0  0  0  0  0
  -25.6643  -31.1822   20.4471 C   0  0  0  0  0  0  0  0  0  0  0  0
  -23.7476  -31.8125   21.9771 C   0  0  0  0  0  0  0  0  0  0  0  0
  -24.2672  -29.4313   21.6173 C   0  0  0  0  0  0  0  0  0  0  0  0
  -28.4268  -20.3972   19.2360 C   0  0  1  0  0  0  0  0  0  0  0  0
  -25.9479  -18.5057   21.4063 C   0  0  1  0  0  0  0  0  0  0  0  0
  -25.0845  -29.7570   20.3565 C   0  0  2  0  0  0  0  0  0  0  0  0
  -16.6062  -28.6523   22.2138 C   0  0  0  0  0  0  0  0  0  0  0  0
  -22.9308  -11.4566   20.3055 C   0  0  0  0  0  0  0  0  0  0  0  0
  -15.5475  -23.7352   23.7855 C   0  0  0  0  0  0  0  0  0  0  0  0
  -17.1859  -24.1143   25.6262 C   0  0  0  0  0  0  0  0  0  0  0  0
  -25.6557  -16.6293   17.1927 C   0  0  0  0  0  0  0  0  0  0  0  0
  -24.4215  -14.4549   17.0635 C   0  0  0  0  0  0  0  0  0  0  0  0
  -26.7093  -14.5314   18.0549 C   0  0  0  0  0  0  0  0  0  0  0  0
  -22.4806  -13.6672   23.3693 C   0  0  0  0  0  0  0  0  0  0  0  0
  -18.2458  -22.6025   21.4348 C   0  0  0  0  0  0  0  0  0  0  0  0
  -19.6779  -22.2829   21.8436 C   0  0  0  0  0  0  0  0  0  1  0  0
  -24.7668  -15.5107   19.3432 C   0  0  1  0  0  0  0  0  0  0  0  0
  -23.2638  -12.6003   21.2510 C   0  0  2  0  0  0  0  0  0  0  0  0
  -17.0325  -23.6586   24.1713 C   0  0  0  0  0  0  0  0  0  0  0  0
  -17.9070  -24.4917   23.1932 C   0  0  1  0  0  0  0  0  0  0  0  0
  -17.8020  -24.0506   21.7151 C   0  0  1  0  0  0  0  0  0  0  0  0
  -25.3778  -15.3033   17.9286 C   0  0  0  0  0  0  0  0  0  0  0  0
  -27.1396  -28.5606   21.0097 N   0  0  0  0  0  0  0  0  0  0  0  0
  -19.0247  -29.0410   22.1830 N   0  0  0  0  0  0  0  0  0  0  0  0
  -26.1664  -28.7253   20.0976 N   0  0  0  0  0  0  0  0  0  0  0  0
  -25.0853  -17.5488   20.7102 N   0  0  0  0  0  0  0  0  0  0  0  0
  -23.2274  -30.4527   21.8186 N   0  0  0  0  0  0  0  0  0  0  0  0
  -25.3905  -27.9424   18.0010 N   0  0  0  0  0  0  0  0  0  0  0  0
  -29.1044  -25.4766   18.7246 N   0  0  0  0  0  0  0  0  0  0  0  0
  -17.5179  -25.8884   23.2993 N   0  0  0  0  0  0  0  0  0  0  0  0
  -21.4719  -28.9631   22.3302 N   0  0  0  0  0  0  0  0  0  0  0  0
  -27.7733  -19.5136   20.1776 N   0  0  0  0  0  0  0  0  0  0  0  0
  -24.5183  -14.2728   20.0741 N   0  0  0  0  0  0  0  0  0  0  0  0
  -22.2603  -12.6064   22.3528 N   0  3  0  0  0  0  0  0  0  0  0  0
  -27.3930  -25.8771   17.2517 O   0  0  0  0  0  0  0  0  0  0  0  0
  -25.5824  -20.2179   19.8221 O   0  0  0  0  0  0  0  0  0  0  0  0
  -26.7876  -15.9698   20.4974 O   0  0  0  0  0  0  0  0  0  0  0  0
  -22.2434  -14.6073   20.3748 O   0  0  0  0  0  0  0  0  0  0  0  0
  -21.0258  -31.0872   21.5111 O   0  0  0  0  0  0  0  0  0  0  0  0
  -18.5907  -24.9279   20.9076 O   0  0  0  0  0  0  0  0  0  0  0  0
  -32.4471  -25.7840   23.1706 O   0  0  0  0  0  0  0  0  0  0  0  0
  -19.9886  -20.9287   21.5183 O   0  0  0  0  0  0  0  0  0  1  0  0
  -31.9929  -24.7800   28.5734 F   0  0  0  0  0  0  0  0  0  0  0  0
  -32.9367  -23.2615   24.1906 F   0  0  0  0  0  0  0  0  0  0  0  0
  -20.0518  -26.8371   23.0607 S   0  0  0  0  0  0  0  0  0  0  0  0
  1  2  1  0  0  0  0
  1  5  2  0  0  0  0
  2  6  2  0  0  0  0
  3  8  2  0  0  0  0
  3 15  1  0  0  0  0
  4  9  1  0  0  0  0
  4 15  2  0  0  0  0
  5 17  1  0  0  0  0
  6 19  1  0  0  0  0
  7 10  2  0  0  0  0
  7 18  1  0  0  0  0
  8 21  1  0  0  0  0
  9 21  2  0  0  0  0
 10 22  1  0  0  0  0
 11 12  2  0  0  0  0
 11 23  1  0  0  0  0
 12 24  1  0  0  0  0
 13 20  1  0  0  0  0
 13 22  2  0  0  0  0
 14 24  2  0  0  0  0
 14 25  1  0  0  0  0
 15 26  1  0  0  0  0
 16 26  1  0  0  0  0
 16 28  2  0  0  0  0
 16 31  1  0  0  0  0
 17 19  2  0  0  0  0
 17 36  1  0  0  0  0
 18 20  2  0  0  0  0
 18 37  1  0  0  0  0
 19 45  1  0  0  0  0
 20 38  1  0  0  0  0
 21 82  1  0  0  0  0
 22 83  1  0  0  0  0
 23 25  2  0  0  0  0
 23 82  1  0  0  0  0
 24 84  1  0  0  0  0
 25 85  1  0  0  0  0
 26 64  2  0  0  0  0
 27 29  2  0  0  0  0
 27 48  1  0  0  0  0
 27 65  1  0  0  0  0
 28 66  1  0  0  0  0
 28 69  1  0  0  0  0
 29 71  1  0  0  0  0
 29 86  1  0  0  0  0
 30 65  2  0  0  0  0
 30 72  1  0  0  0  0
 30 86  1  0  0  0  0
 31 70  1  0  0  0  0
 31 76  2  0  0  0  0
 32 46  1  0  0  0  0
 32 73  1  0  0  0  0
 32 77  2  0  0  0  0
 33 58  1  0  0  0  0
 33 67  1  0  0  0  0
 33 78  2  0  0  0  0
 34 59  1  0  0  0  0
 34 74  1  0  0  0  0
 34 79  2  0  0  0  0
 35 68  1  0  0  0  0
 35 72  1  0  0  0  0
 35 80  2  0  0  0  0
 36 39  1  0  0  0  0
 37 46  1  0  0  0  0
 38 67  1  0  0  0  0
 39 41  1  0  0  0  0
 40 42  1  0  0  0  0
 40 43  1  0  0  0  0
 41 45  1  0  0  0  0
 42 47  1  0  0  0  0
 43 68  1  0  0  0  0
 44 47  1  0  0  0  0
 44 68  1  0  0  0  0
 45 73  1  0  0  0  0
 46 67  1  0  0  0  0
 47 66  1  0  0  0  0
 49 59  1  0  0  0  0
 50 60  1  0  0  0  0
 51 60  1  0  0  0  0
 52 63  1  0  0  0  0
 53 63  1  0  0  0  0
 54 63  1  0  0  0  0
 55 75  1  0  0  0  0
 56 57  1  0  0  0  0
 56 62  1  0  0  0  0
 57 83  1  0  0  0  0
 58 63  1  0  0  0  0
 58 74  1  0  0  0  0
 59 75  1  0  0  0  0
 60 61  1  0  0  0  0
 61 62  1  0  0  0  0
 61 71  1  0  0  0  0
 62 81  1  0  0  0  0
 64 66  1  0  0  0  0
M  CHG  1  75   1
M  ISO  4  35 100  57 101  72 100  83 101
M  END
> <Batch ID>
0198

> <Smiles>
CNC(C)C(=O)NC(C(=O)N1Cc2cc([101O:1][101CH2:1]CC(O)C(Nc3sc([100NH:0][100C:0](=O)N4CCCC(n5nc(-c6ccc(Oc7ccc(F)cc7F)cc6)c(C(N)=O)c5N)C4)nc3C)C(C)C)ccc2CC1C(=O)NC1CCCc2ccccc21)C(C)(C)C

> <Shape>
0.208

> <Color>
0.086

> <Negative vol penalty>
0.000

$$$$

  -OEChem-04052305443D

 83 91  0     1  0  0  0  0  0999 V2000
  -16.5558  -29.4667   23.2761 C   0  0  0  0  0  0  0  0  0  0  0  0
  -17.2265  -29.1276   22.1054 C   0  0  0  0  0  0  0  0  0  0  0  0
  -28.4335  -11.0021   22.3328 C   0  0  0  0  0  0  0  0  0  0  0  0
  -27.4052  -11.4087   20.1847 C   0  0  0  0  0  0  0  0  0  0  0  0
  -17.2170  -30.1794   24.2755 C   0  0  0  0  0  0  0  0  0  0  0  0
  -18.5587  -29.5019   21.9330 C   0  0  0  0  0  0  0  0  0  0  0  0
  -21.4068  -25.7482   20.0775 C   0  0  0  0  0  0  0  0  0  0  0  0
  -27.5941   -9.9053   22.5271 C   0  0  0  0  0  0  0  0  0  0  0  0
  -26.5657  -10.3118   20.3790 C   0  0  0  0  0  0  0  0  0  0  0  0
  -21.3097  -25.4912   18.7107 C   0  0  0  0  0  0  0  0  0  0  0  0
  -23.7420   -9.6099   22.1008 C   0  0  0  0  0  0  0  0  0  0  0  0
  -22.3897   -9.7669   21.7970 C   0  0  0  0  0  0  0  0  0  0  0  0
  -23.3492  -26.7249   18.3399 C   0  0  0  0  0  0  0  0  0  0  0  0
  -22.5509   -7.9939   20.1637 C   0  0  0  0  0  0  0  0  0  0  0  0
  -26.0739  -18.9983   17.4466 C   0  0  0  0  0  0  0  0  0  0  0  0
  -25.7738  -20.6696   19.0507 C   0  0  0  0  0  0  0  0  0  0  0  0
  -28.3391  -11.7539   21.1616 C   0  0  0  0  0  0  0  0  0  0  0  0
  -30.4755  -12.8895   20.3528 C   0  0  0  0  0  0  0  0  0  0  0  0
  -18.5608  -30.5542   24.1194 C   0  0  0  0  0  0  0  0  0  0  0  0
  -22.4718  -26.5060   20.5854 C   0  0  0  0  0  0  0  0  0  0  0  0
  -19.2381  -30.2214   22.9308 C   0  0  0  0  0  0  0  0  0  0  0  0
  -23.4589  -26.9879   19.7139 C   0  0  0  0  0  0  0  0  0  0  0  0
  -26.4465  -19.5280   18.6652 C   0  0  0  0  0  0  0  0  0  0  0  0
  -26.6602   -9.5601   21.5502 C   0  0  0  0  0  0  0  0  0  0  0  0
  -22.2794  -25.9820   17.8413 C   0  0  0  0  0  0  0  0  0  0  0  0
  -24.4988   -8.6449   21.4361 C   0  0  0  0  0  0  0  0  0  0  0  0
  -21.7942   -8.9589   20.8284 C   0  0  0  0  0  0  0  0  0  0  0  0
  -23.9032   -7.8370   20.4675 C   0  0  0  0  0  0  0  0  0  0  0  0
  -29.2056  -12.8874   20.9605 C   0  0  0  0  0  0  0  0  0  0  0  0
  -30.8797  -14.2010   20.4066 C   0  0  0  0  0  0  0  0  0  0  0  0
  -24.5370  -20.6455   17.1437 C   0  0  0  0  0  0  0  0  0  0  0  0
  -31.2227  -11.8030   19.7900 C   0  0  0  0  0  0  0  0  0  0  0  0
  -22.7191  -29.2678   22.1394 C   0  0  0  0  0  0  0  0  0  0  0  0
  -25.8490  -28.4361   22.3252 C   0  0  0  0  0  0  0  0  0  0  0  0
  -28.4515  -26.6427   21.0378 C   0  0  0  0  0  0  0  0  0  0  0  0
  -27.9117  -19.3783   20.7090 C   0  0  0  0  0  0  0  0  0  0  0  0
  -19.2194  -31.3648   25.2074 C   0  0  0  0  0  0  0  0  0  0  0  0
  -22.5765  -26.7518   22.0656 C   0  0  0  0  0  0  0  0  0  0  0  0
  -24.6330  -27.7896   20.2112 C   0  0  0  0  0  0  0  0  0  0  0  0
  -20.7421  -31.3980   25.1052 C   0  0  0  0  0  0  0  0  0  0  0  0
  -30.3445  -18.1806   23.0164 C   0  0  0  0  0  0  0  0  0  0  0  0
  -21.1747  -31.6867   23.6711 C   0  0  0  0  0  0  0  0  0  0  0  0
  -30.4485  -16.6887   22.6916 C   0  0  0  0  0  0  0  0  0  0  0  0
  -28.9119  -18.6926   22.8779 C   0  0  0  0  0  0  0  0  0  0  0  0
  -28.3745  -16.9100   21.2646 C   0  0  0  0  0  0  0  0  0  0  0  0
  -20.6907  -30.5879   22.7172 C   0  0  1  0  0  0  0  0  0  0  0  0
  -23.4271  -27.9705   22.4102 C   0  0  1  0  0  0  0  0  0  0  0  0
  -29.8100  -16.3630   21.3271 C   0  0  2  0  0  0  0  0  0  0  0  0
  -30.7617  -25.6748   20.8838 C   0  0  0  0  0  0  0  0  0  0  0  0
  -26.5143  -31.1547   21.1099 C   0  0  0  0  0  0  0  0  0  0  0  0
  -28.8087  -30.2894   20.6047 C   0  0  0  0  0  0  0  0  0  0  0  0
  -28.0286  -30.4443   22.9690 C   0  0  0  0  0  0  0  0  0  0  0  0
  -27.6936  -24.2778   22.6476 C   0  0  0  0  0  0  0  0  0  0  0  0
  -23.4716  -21.2699   16.2916 C   0  0  0  0  0  0  0  0  0  0  0  0
  -22.7826  -23.2925   14.9981 C   0  0  0  0  0  0  0  0  0  0  0  0
  -23.4091  -25.6462   15.7757 C   0  0  0  0  0  0  0  0  0  1  0  0
  -27.0670  -28.6573   21.4612 C   0  0  1  0  0  0  0  0  0  0  0  0
  -29.4801  -25.7435   21.6996 C   0  0  2  0  0  0  0  0  0  0  0  0
  -23.2098  -24.7012   14.5951 C   0  0  1  0  0  0  0  0  0  0  0  0
  -27.5816  -30.1230   21.5263 C   0  0  0  0  0  0  0  0  0  0  0  0
  -25.1196  -19.5332   16.6570 N   0  0  0  0  0  0  0  0  0  0  0  0
  -24.8100  -21.2574   18.3118 N   0  0  0  0  0  0  0  0  0  0  0  0
  -28.8282  -14.1013   21.3704 N   0  0  0  0  0  0  0  0  0  0  0  0
  -29.8670  -14.8784   21.0197 N   0  0  0  0  0  0  0  0  0  0  0  0
  -24.6877  -28.0086   21.6661 N   0  0  0  0  0  0  0  0  0  0  0  0
  -28.3739  -18.3515   21.5592 N   0  0  0  0  0  0  0  0  0  0  0  0
  -31.9991  -14.8294   19.9888 N   0  0  0  0  0  0  0  0  0  0  0  0
  -30.6597  -10.5198   19.8175 N   0  0  0  0  0  0  0  0  0  0  0  0
  -27.4532  -18.9369   19.4682 N   0  0  0  0  0  0  0  0  0  0  0  0
  -21.5309  -29.4149   22.8295 N   0  0  0  0  0  0  0  0  0  0  0  0
  -28.0482  -27.6605   21.8761 N   0  0  0  0  0  0  0  0  0  0  0  0
  -28.9419  -24.3616   21.8465 N   0  3  0  0  0  0  0  0  0  0  0  0
  -23.7894  -22.6676   15.8918 N   0  3  0  0  0  0  0  0  0  0  0  0
  -32.3632  -11.9625   19.2925 O   0  0  0  0  0  0  0  0  0  0  0  0
  -23.2148  -30.0761   21.3632 O   0  0  0  0  0  0  0  0  0  0  0  0
  -25.9271  -28.6286   23.5411 O   0  0  0  0  0  0  0  0  0  0  0  0
  -28.0491  -26.4626   19.8906 O   0  0  0  0  0  0  0  0  0  0  0  0
  -27.9473  -20.5647   21.0455 O   0  0  0  0  0  0  0  0  0  0  0  0
  -24.4308  -24.6368   13.8566 O   0  0  0  0  0  0  0  0  0  0  0  0
  -25.8410   -8.4897   21.7394 O   0  0  0  0  0  0  0  0  0  0  0  0
  -22.1867  -25.7331   16.5066 O   0  0  0  0  0  0  0  0  0  1  0  0
  -20.4952   -9.1088   20.5379 F   0  0  0  0  0  0  0  0  0  0  0  0
  -24.6248   -6.9074   19.8263 F   0  0  0  0  0  0  0  0  0  0  0  0
  1  2  1  0  0  0  0
  1  5  2  0  0  0  0
  2  6  2  0  0  0  0
  3  8  2  0  0  0  0
  3 17  1  0  0  0  0
  4  9  1  0  0  0  0
  4 17  2  0  0  0  0
  5 19  1  0  0  0  0
  6 21  1  0  0  0  0
  7 10  2  0  0  0  0
  7 20  1  0  0  0  0
  8 24  1  0  0  0  0
  9 24  2  0  0  0  0
 10 25  1  0  0  0  0
 11 12  2  0  0  0  0
 11 26  1  0  0  0  0
 12 27  1  0  0  0  0
 13 22  1  0  0  0  0
 13 25  2  0  0  0  0
 14 27  2  0  0  0  0
 14 28  1  0  0  0  0
 15 23  1  0  0  0  0
 15 61  2  0  0  0  0
 16 23  2  0  0  0  0
 16 62  1  0  0  0  0
 17 29  1  0  0  0  0
 18 29  1  0  0  0  0
 18 30  2  0  0  0  0
 18 32  1  0  0  0  0
 19 21  2  0  0  0  0
 19 37  1  0  0  0  0
 20 22  2  0  0  0  0
 20 38  1  0  0  0  0
 21 46  1  0  0  0  0
 22 39  1  0  0  0  0
 23 69  1  0  0  0  0
 24 80  1  0  0  0  0
 25 81  1  0  0  0  0
 26 28  2  0  0  0  0
 26 80  1  0  0  0  0
 27 82  1  0  0  0  0
 28 83  1  0  0  0  0
 29 63  2  0  0  0  0
 30 64  1  0  0  0  0
 30 67  1  0  0  0  0
 31 54  1  0  0  0  0
 31 61  1  0  0  0  0
 31 62  2  0  0  0  0
 32 68  1  0  0  0  0
 32 74  2  0  0  0  0
 33 47  1  0  0  0  0
 33 70  1  0  0  0  0
 33 75  2  0  0  0  0
 34 57  1  0  0  0  0
 34 65  1  0  0  0  0
 34 76  2  0  0  0  0
 35 58  1  0  0  0  0
 35 71  1  0  0  0  0
 35 77  2  0  0  0  0
 36 66  1  0  0  0  0
 36 69  1  0  0  0  0
 36 78  2  0  0  0  0
 37 40  1  0  0  0  0
 38 47  1  0  0  0  0
 39 65  1  0  0  0  0
 40 42  1  0  0  0  0
 41 43  1  0  0  0  0
 41 44  1  0  0  0  0
 42 46  1  0  0  0  0
 43 48  1  0  0  0  0
 44 66  1  0  0  0  0
 45 48  1  0  0  0  0
 45 66  1  0  0  0  0
 46 70  1  0  0  0  0
 47 65  1  0  0  0  0
 48 64  1  0  0  0  0
 49 58  1  0  0  0  0
 50 60  1  0  0  0  0
 51 60  1  0  0  0  0
 52 60  1  0  0  0  0
 53 72  1  0  0  0  0
 54 73  1  0  0  0  0
 55 59  1  0  0  0  0
 55 73  1  0  0  0  0
 56 59  1  0  0  0  0
 56 81  1  0  0  0  0
 57 60  1  0  0  0  0
 57 71  1  0  0  0  0
 58 72  1  0  0  0  0
 59 79  1  0  0  0  0
 63 64  1  0  0  0  0
M  CHG  2  72   1  73   1
M  ISO  4  36 100  56 101  69 100  81 101
M  END
> <Batch ID>
0198

> <Smiles>
CNC(C)C(=O)NC(C(=O)N1Cc2cc([101O:1][101CH2:1]C(O)CNCc3ncc([100NH:0][100C:0](=O)N4CCCC(n5nc(-c6ccc(Oc7ccc(F)cc7F)cc6)c(C(N)=O)c5N)C4)cn3)ccc2CC1C(=O)NC1CCCc2ccccc21)C(C)(C)C

> <Shape>
0.243

> <Color>
0.075

> <Negative vol penalty>
0.000

$$$$

  -OEChem-04052305443D

 85 93  0     1  0  0  0  0  0999 V2000
  -23.8442   -8.2956   22.5654 C   0  0  0  0  0  0  0  0  0  0  0  0
  -24.6696   -9.3758   22.2697 C   0  0  0  0  0  0  0  0  0  0  0  0
  -18.6032  -29.4594   22.8341 C   0  0  0  0  0  0  0  0  0  0  0  0
  -19.2929  -27.1688   23.1728 C   0  0  0  0  0  0  0  0  0  0  0  0
  -22.4804   -8.3643   22.2843 C   0  0  0  0  0  0  0  0  0  0  0  0
  -24.1316  -10.5250   21.6915 C   0  0  0  0  0  0  0  0  0  0  0  0
  -25.8997  -16.3076   22.6615 C   0  0  0  0  0  0  0  0  0  0  0  0
  -17.3170  -29.0248   22.5142 C   0  0  0  0  0  0  0  0  0  0  0  0
  -18.0067  -26.7342   22.8529 C   0  0  0  0  0  0  0  0  0  0  0  0
  -26.7289  -17.1679   21.9432 C   0  0  0  0  0  0  0  0  0  0  0  0
  -14.9987  -26.5242   24.3789 C   0  0  0  0  0  0  0  0  0  0  0  0
  -14.4234  -25.5507   25.1955 C   0  0  0  0  0  0  0  0  0  0  0  0
  -24.7930  -18.1311   20.8738 C   0  0  0  0  0  0  0  0  0  0  0  0
  -14.2342  -24.0695   23.2961 C   0  0  0  0  0  0  0  0  0  0  0  0
  -19.5912  -28.5314   23.1634 C   0  0  0  0  0  0  0  0  0  0  0  0
  -21.4116  -29.3160   24.7690 C   0  0  0  0  0  0  0  0  0  0  0  0
  -21.9238   -9.5187   21.7113 C   0  0  0  0  0  0  0  0  0  0  0  0
  -24.5093  -16.3451   22.4830 C   0  0  0  0  0  0  0  0  0  0  0  0
  -22.7592  -10.6087   21.4012 C   0  0  0  0  0  0  0  0  0  0  0  0
  -23.9481  -17.2719   21.5929 C   0  0  0  0  0  0  0  0  0  0  0  0
  -17.0187  -27.6622   22.5236 C   0  0  0  0  0  0  0  0  0  0  0  0
  -26.1758  -18.0779   21.0470 C   0  0  0  0  0  0  0  0  0  0  0  0
  -15.1917  -26.2705   23.0209 C   0  0  0  0  0  0  0  0  0  0  0  0
  -14.0412  -24.3233   24.6541 C   0  0  0  0  0  0  0  0  0  0  0  0
  -14.8094  -25.0431   22.4796 C   0  0  0  0  0  0  0  0  0  0  0  0
  -20.9202  -28.9796   23.4934 C   0  0  0  0  0  0  0  0  0  0  0  0
  -29.3663  -25.0311   20.1776 C   0  0  0  0  0  0  0  0  0  0  0  0
  -29.0088  -23.8464   20.7684 C   0  0  0  0  0  0  0  0  0  0  0  0
  -22.7187  -29.6762   24.5493 C   0  0  0  0  0  0  0  0  0  0  0  0
  -27.3834  -25.9079   20.8093 C   0  0  0  0  0  0  0  0  0  0  0  0
  -20.7461  -29.3039   26.0389 C   0  0  0  0  0  0  0  0  0  0  0  0
  -22.3224  -14.2773   21.4606 C   0  0  0  0  0  0  0  0  0  0  0  0
  -20.2585  -16.6142   22.3561 C   0  0  0  0  0  0  0  0  0  0  0  0
  -19.7236  -19.9286   22.9688 C   0  0  0  0  0  0  0  0  0  0  0  0
  -26.6812  -28.2735   20.3025 C   0  0  0  0  0  0  0  0  0  0  0  0
  -20.4520   -9.5283   21.3820 C   0  0  0  0  0  0  0  0  0  0  0  0
  -23.6267  -15.4287   23.2852 C   0  0  0  0  0  0  0  0  0  0  0  0
  -22.4601  -17.3662   21.3799 C   0  0  0  0  0  0  0  0  0  0  0  0
  -19.8970  -10.9249   21.1138 C   0  0  0  0  0  0  0  0  0  0  0  0
  -25.5752  -31.5401   21.1876 C   0  0  0  0  0  0  0  0  0  0  0  0
  -20.8198  -11.6947   20.1744 C   0  0  0  0  0  0  0  0  0  0  0  0
  -24.3040  -31.2845   22.0006 C   0  0  0  0  0  0  0  0  0  0  0  0
  -25.7194  -30.5490   20.0340 C   0  0  0  0  0  0  0  0  0  0  0  0
  -24.3595  -28.8784   21.2294 C   0  0  0  0  0  0  0  0  0  0  0  0
  -22.2088  -11.8821   20.7965 C   0  0  1  0  0  0  0  0  0  0  0  0
  -22.2613  -15.2015   22.6437 C   0  0  1  0  0  0  0  0  0  0  0  0
  -24.2039  -29.8111   22.4417 C   0  0  2  0  0  0  0  0  0  0  0  0
  -31.8211  -21.4842   22.5165 C   0  0  0  0  0  0  0  0  0  0  0  0
  -17.9248  -21.5409   23.6485 C   0  0  0  0  0  0  0  0  0  0  0  0
  -19.0673  -16.4639   19.5510 C   0  0  0  0  0  0  0  0  0  0  0  0
  -17.9713  -18.6749   19.9735 C   0  0  0  0  0  0  0  0  0  0  0  0
  -17.3861  -16.7045   21.3868 C   0  0  0  0  0  0  0  0  0  0  0  0
  -21.1984  -20.7258   25.4076 C   0  0  0  0  0  0  0  0  0  0  0  0
  -30.8611  -20.7104   21.6204 C   0  0  0  0  0  0  0  0  0  0  0  0
  -28.2068  -19.3124   20.9632 C   0  0  0  0  0  0  0  0  0  1  0  0
  -19.6402  -17.8123   21.6770 C   0  0  1  0  0  0  0  0  0  0  0  0
  -19.0544  -20.6433   24.1289 C   0  0  2  0  0  0  0  0  0  0  0  0
  -29.5629  -21.4829   21.3450 C   0  0  2  0  0  0  0  0  0  0  0  0
  -28.5930  -20.6967   20.4437 C   0  0  1  0  0  0  0  0  0  0  0  0
  -18.5444  -17.4111   20.6494 C   0  0  0  0  0  0  0  0  0  0  0  0
  -21.8401  -29.1143   22.5344 N   0  0  0  0  0  0  0  0  0  0  0  0
  -28.5547  -26.0994   20.1844 N   0  0  0  0  0  0  0  0  0  0  0  0
  -27.8186  -23.7133   21.3814 N   0  0  0  0  0  0  0  0  0  0  0  0
  -26.9789  -24.7692   21.4057 N   0  0  0  0  0  0  0  0  0  0  0  0
  -22.9227  -29.5394   23.2078 N   0  0  0  0  0  0  0  0  0  0  0  0
  -21.6395  -16.4446   22.1829 N   0  0  0  0  0  0  0  0  0  0  0  0
  -25.6186  -29.1739   20.5278 N   0  0  0  0  0  0  0  0  0  0  0  0
  -30.6228  -25.1441   19.5403 N   0  0  0  0  0  0  0  0  0  0  0  0
  -23.7020  -30.0936   25.3748 N   0  0  0  0  0  0  0  0  0  0  0  0
  -19.4028  -28.9071   26.0854 N   0  0  0  0  0  0  0  0  0  0  0  0
  -29.8707  -22.7673   20.7424 N   0  0  0  0  0  0  0  0  0  0  0  0
  -26.4865  -27.0042   20.8461 N   0  0  0  0  0  0  0  0  0  0  0  0
  -22.1821  -12.9409   21.7828 N   0  0  0  0  0  0  0  0  0  0  0  0
  -19.1669  -18.6872   22.7441 N   0  0  0  0  0  0  0  0  0  0  0  0
  -20.0444  -21.4841   24.8597 N   0  3  0  0  0  0  0  0  0  0  0  0
  -21.3209  -29.6509   27.0985 O   0  0  0  0  0  0  0  0  0  0  0  0
  -22.4833  -14.7424   20.3383 O   0  0  0  0  0  0  0  0  0  0  0  0
  -19.5439  -15.8607   23.0217 O   0  0  0  0  0  0  0  0  0  0  0  0
  -20.6452  -20.4236   22.3237 O   0  0  0  0  0  0  0  0  0  0  0  0
  -27.7014  -28.6121   19.6971 O   0  0  0  0  0  0  0  0  0  0  0  0
  -29.2060  -20.5505   19.1580 O   0  0  0  0  0  0  0  0  0  0  0  0
  -15.7636  -27.2378   22.2117 O   0  0  0  0  0  0  0  0  0  0  0  0
  -26.9829  -18.9184   20.3441 O   0  0  0  0  0  0  0  0  0  1  0  0
  -13.4902  -23.3879   25.4387 F   0  0  0  0  0  0  0  0  0  0  0  0
  -14.9934  -24.7931   21.1759 F   0  0  0  0  0  0  0  0  0  0  0  0
  1  2  1  0  0  0  0
  1  5  2  0  0  0  0
  2  6  2  0  0  0  0
  3  8  2  0  0  0  0
  3 15  1  0  0  0  0
  4  9  1  0  0  0  0
  4 15  2  0  0  0  0
  5 17  1  0  0  0  0
  6 19  1  0  0  0  0
  7 10  2  0  0  0  0
  7 18  1  0  0  0  0
  8 21  1  0  0  0  0
  9 21  2  0  0  0  0
 10 22  1  0  0  0  0
 11 12  2  0  0  0  0
 11 23  1  0  0  0  0
 12 24  1  0  0  0  0
 13 20  1  0  0  0  0
 13 22  2  0  0  0  0
 14 24  2  0  0  0  0
 14 25  1  0  0  0  0
 15 26  1  0  0  0  0
 16 26  1  0  0  0  0
 16 29  2  0  0  0  0
 16 31  1  0  0  0  0
 17 19  2  0  0  0  0
 17 36  1  0  0  0  0
 18 20  2  0  0  0  0
 18 37  1  0  0  0  0
 19 45  1  0  0  0  0
 20 38  1  0  0  0  0
 21 82  1  0  0  0  0
 22 83  1  0  0  0  0
 23 25  2  0  0  0  0
 23 82  1  0  0  0  0
 24 84  1  0  0  0  0
 25 85  1  0  0  0  0
 26 61  2  0  0  0  0
 27 28  2  0  0  0  0
 27 62  1  0  0  0  0
 27 68  1  0  0  0  0
 28 63  1  0  0  0  0
 28 71  1  0  0  0  0
 29 65  1  0  0  0  0
 29 69  1  0  0  0  0
 30 62  2  0  0  0  0
 30 64  1  0  0  0  0
 30 72  1  0  0  0  0
 31 70  1  0  0  0  0
 31 76  2  0  0  0  0
 32 46  1  0  0  0  0
 32 73  1  0  0  0  0
 32 77  2  0  0  0  0
 33 56  1  0  0  0  0
 33 66  1  0  0  0  0
 33 78  2  0  0  0  0
 34 57  1  0  0  0  0
 34 74  1  0  0  0  0
 34 79  2  0  0  0  0
 35 67  1  0  0  0  0
 35 72  1  0  0  0  0
 35 80  2  0  0  0  0
 36 39  1  0  0  0  0
 37 46  1  0  0  0  0
 38 66  1  0  0  0  0
 39 41  1  0  0  0  0
 40 42  1  0  0  0  0
 40 43  1  0  0  0  0
 41 45  1  0  0  0  0
 42 47  1  0  0  0  0
 43 67  1  0  0  0  0
 44 47  1  0  0  0  0
 44 67  1  0  0  0  0
 45 73  1  0  0  0  0
 46 66  1  0  0  0  0
 47 65  1  0  0  0  0
 48 54  1  0  0  0  0
 49 57  1  0  0  0  0
 50 60  1  0  0  0  0
 51 60  1  0  0  0  0
 52 60  1  0  0  0  0
 53 75  1  0  0  0  0
 54 58  1  0  0  0  0
 55 59  1  0  0  0  0
 55 83  1  0  0  0  0
 56 60  1  0  0  0  0
 56 74  1  0  0  0  0
 57 75  1  0  0  0  0
 58 59  1  0  0  0  0
 58 71  1  0  0  0  0
 59 81  1  0  0  0  0
 61 65  1  0  0  0  0
 63 64  2  0  0  0  0
M  CHG  1  75   1
M  ISO  4  35 100  55 101  72 100  83 101
M  END
> <Batch ID>
0198

> <Smiles>
CCC(Nc1nnc([100NH:0][100C:0](=O)N2CCCC(n3nc(-c4ccc(Oc5ccc(F)cc5F)cc4)c(C(N)=O)c3N)C2)nc1N)C(O)[101CH2:1][101O:1]c1ccc2c(c1)CN(C(=O)C(NC(=O)C(C)NC)C(C)(C)C)C(C(=O)NC1CCCc3ccccc31)C2

> <Shape>
0.209

> <Color>
0.099

> <Negative vol penalty>
0.000

$$$$

  -OEChem-04052305443D

 81 89  0     1  0  0  0  0  0999 V2000
  -19.4486  -26.8460   23.6514 C   0  0  0  0  0  0  0  0  0  0  0  0
  -20.7270  -26.2975   23.6377 C   0  0  0  0  0  0  0  0  0  0  0  0
  -23.1254   -9.8528   19.9415 C   0  0  0  0  0  0  0  0  0  0  0  0
  -23.8517   -9.9117   22.2450 C   0  0  0  0  0  0  0  0  0  0  0  0
  -18.8837  -27.3242   22.4698 C   0  0  0  0  0  0  0  0  0  0  0  0
  -21.4409  -26.2258   22.4420 C   0  0  0  0  0  0  0  0  0  0  0  0
  -26.2617  -27.6849   22.9675 C   0  0  0  0  0  0  0  0  0  0  0  0
  -22.4100   -8.6829   20.1969 C   0  0  0  0  0  0  0  0  0  0  0  0
  -23.1362   -8.7419   22.5005 C   0  0  0  0  0  0  0  0  0  0  0  0
  -27.1447  -26.7710   23.5410 C   0  0  0  0  0  0  0  0  0  0  0  0
  -19.9229   -7.8632   23.0686 C   0  0  0  0  0  0  0  0  0  0  0  0
  -19.1505   -7.8181   24.2292 C   0  0  0  0  0  0  0  0  0  0  0  0
  -27.9499  -26.1799   21.3452 C   0  0  0  0  0  0  0  0  0  0  0  0
  -20.4340   -5.9259   25.0098 C   0  0  0  0  0  0  0  0  0  0  0  0
  -29.6974  -18.0501   22.6988 C   0  0  0  0  0  0  0  0  0  0  0  0
  -31.6710  -18.8546   22.1380 C   0  0  0  0  0  0  0  0  0  0  0  0
  -23.8463  -10.4671   20.9655 C   0  0  0  0  0  0  0  0  0  0  0  0
  -24.1203  -12.9989   20.8152 C   0  0  0  0  0  0  0  0  0  0  0  0
  -19.5949  -27.2672   21.2608 C   0  0  0  0  0  0  0  0  0  0  0  0
  -26.2085  -27.8456   21.5754 C   0  0  0  0  0  0  0  0  0  0  0  0
  -20.8845  -26.7025   21.2429 C   0  0  0  0  0  0  0  0  0  0  0  0
  -27.0672  -27.0984   20.7566 C   0  0  0  0  0  0  0  0  0  0  0  0
  -22.4154   -8.1275   21.4764 C   0  0  0  0  0  0  0  0  0  0  0  0
  -27.9869  -26.0162   22.7297 C   0  0  0  0  0  0  0  0  0  0  0  0
  -20.9508   -6.9396   22.8786 C   0  0  0  0  0  0  0  0  0  0  0  0
  -19.4061   -6.8495   25.1998 C   0  0  0  0  0  0  0  0  0  0  0  0
  -21.2063   -5.9710   23.8492 C   0  0  0  0  0  0  0  0  0  0  0  0
  -24.5860  -11.6753   20.7021 C   0  0  0  0  0  0  0  0  0  0  0  0
  -30.3962  -17.1651   21.9120 C   0  0  0  0  0  0  0  0  0  0  0  0
  -25.1966  -13.7734   20.4570 C   0  0  0  0  0  0  0  0  0  0  0  0
  -22.8302  -13.4850   21.2091 C   0  0  0  0  0  0  0  0  0  0  0  0
  -23.9767  -27.4214   19.3522 C   0  0  0  0  0  0  0  0  0  0  0  0
  -26.2144  -28.7404   17.4092 C   0  0  0  0  0  0  0  0  0  0  0  0
  -29.5100  -29.3973   16.8138 C   0  0  0  0  0  0  0  0  0  0  0  0
  -30.6288  -14.9724   20.6938 C   0  0  0  0  0  0  0  0  0  0  0  0
  -18.9242  -27.7535   20.0005 C   0  0  0  0  0  0  0  0  0  0  0  0
  -25.2694  -28.8549   20.9739 C   0  0  0  0  0  0  0  0  0  0  0  0
  -27.0633  -27.2480   19.2579 C   0  0  0  0  0  0  0  0  0  0  0  0
  -19.8940  -27.9828   18.8441 C   0  0  0  0  0  0  0  0  0  0  0  0
  -29.6155  -12.4967   18.3440 C   0  0  0  0  0  0  0  0  0  0  0  0
  -20.8493  -26.8015   18.7062 C   0  0  0  0  0  0  0  0  0  0  0  0
  -28.1784  -12.1712   18.7573 C   0  0  0  0  0  0  0  0  0  0  0  0
  -30.5066  -12.7670   19.5551 C   0  0  0  0  0  0  0  0  0  0  0  0
  -28.5607  -13.4570   20.8992 C   0  0  0  0  0  0  0  0  0  0  0  0
  -21.7002  -26.6298   19.9703 C   0  0  1  0  0  0  0  0  0  0  0  0
  -24.9370  -28.5656   19.5133 C   0  0  1  0  0  0  0  0  0  0  0  0
  -27.6101  -13.2409   19.7103 C   0  0  2  0  0  0  0  0  0  0  0  0
  -31.0334  -30.4576   15.1250 C   0  0  0  0  0  0  0  0  0  0  0  0
  -25.8923  -26.3082   15.5952 C   0  0  0  0  0  0  0  0  0  0  0  0
  -28.0464  -26.9377   14.4854 C   0  0  0  0  0  0  0  0  0  0  0  0
  -26.0957  -28.4895   14.3891 C   0  0  0  0  0  0  0  0  0  0  0  0
  -30.4817  -31.3929   18.7715 C   0  0  0  0  0  0  0  0  0  0  0  0
  -29.8441  -21.5437   22.6781 C   0  0  0  0  0  0  0  0  0  0  0  0
  -30.2331  -20.3882   23.6081 C   0  0  0  0  0  0  0  0  0  0  0  0
  -29.1829  -23.9722   22.5120 C   0  0  0  0  0  0  0  0  0  1  0  0
  -27.3478  -28.2062   16.5672 C   0  0  1  0  0  0  0  0  0  0  0  0
  -30.2237  -30.6699   16.3947 C   0  0  2  0  0  0  0  0  0  0  0  0
  -29.5025  -22.8175   23.4561 C   0  0  2  0  0  0  0  0  0  0  0  0
  -26.8445  -27.4810   15.2873 C   0  0  0  0  0  0  0  0  0  0  0  0
  -31.6241  -17.6717   21.5666 N   0  0  0  0  0  0  0  0  0  0  0  0
  -25.8589  -11.6089   20.3030 N   0  0  0  0  0  0  0  0  0  0  0  0
  -30.5269  -19.1274   22.8352 N   0  0  0  0  0  0  0  0  0  0  0  0
  -26.2022  -12.9005   20.1621 N   0  0  0  0  0  0  0  0  0  0  0  0
  -26.1229  -28.2432   18.7170 N   0  0  0  0  0  0  0  0  0  0  0  0
  -29.9068  -13.7938   20.4101 N   0  0  0  0  0  0  0  0  0  0  0  0
  -25.3713  -15.1091   20.3684 N   0  0  0  0  0  0  0  0  0  0  0  0
  -21.8389  -12.5528   21.5447 N   0  0  0  0  0  0  0  0  0  0  0  0
  -29.9445  -15.8901   21.4900 N   0  0  0  0  0  0  0  0  0  0  0  0
  -22.7685  -27.6058   19.9969 N   0  0  0  0  0  0  0  0  0  0  0  0
  -28.2300  -29.3382   16.3047 N   0  0  0  0  0  0  0  0  0  0  0  0
  -31.1485  -31.1238   17.4715 N   0  3  0  0  0  0  0  0  0  0  0  0
  -22.5594  -14.7092   21.2460 O   0  0  0  0  0  0  0  0  0  0  0  0
  -24.3068  -26.4441   18.6906 O   0  0  0  0  0  0  0  0  0  0  0  0
  -25.4431  -29.5734   16.9268 O   0  0  0  0  0  0  0  0  0  0  0  0
  -30.0367  -28.5396   17.5191 O   0  0  0  0  0  0  0  0  0  0  0  0
  -31.7594  -15.1659   20.2398 O   0  0  0  0  0  0  0  0  0  0  0  0
  -30.6252  -23.1800   24.2598 O   0  0  0  0  0  0  0  0  0  0  0  0
  -21.7172   -6.9861   21.7261 O   0  0  0  0  0  0  0  0  0  0  0  0
  -28.8492  -25.1230   23.2870 O   0  0  0  0  0  0  0  0  0  1  0  0
  -18.6653   -6.8073   26.3150 F   0  0  0  0  0  0  0  0  0  0  0  0
  -22.1932   -5.0817   23.6727 F   0  0  0  0  0  0  0  0  0  0  0  0
  1  2  1  0  0  0  0
  1  5  2  0  0  0  0
  2  6  2  0  0  0  0
  3  8  2  0  0  0  0
  3 17  1  0  0  0  0
  4  9  1  0  0  0  0
  4 17  2  0  0  0  0
  5 19  1  0  0  0  0
  6 21  1  0  0  0  0
  7 10  2  0  0  0  0
  7 20  1  0  0  0  0
  8 23  1  0  0  0  0
  9 23  2  0  0  0  0
 10 24  1  0  0  0  0
 11 12  2  0  0  0  0
 11 25  1  0  0  0  0
 12 26  1  0  0  0  0
 13 22  1  0  0  0  0
 13 24  2  0  0  0  0
 14 26  2  0  0  0  0
 14 27  1  0  0  0  0
 15 29  2  0  0  0  0
 15 62  1  0  0  0  0
 16 60  2  0  0  0  0
 16 62  1  0  0  0  0
 17 28  1  0  0  0  0
 18 28  1  0  0  0  0
 18 30  2  0  0  0  0
 18 31  1  0  0  0  0
 19 21  2  0  0  0  0
 19 36  1  0  0  0  0
 20 22  2  0  0  0  0
 20 37  1  0  0  0  0
 21 45  1  0  0  0  0
 22 38  1  0  0  0  0
 23 78  1  0  0  0  0
 24 79  1  0  0  0  0
 25 27  2  0  0  0  0
 25 78  1  0  0  0  0
 26 80  1  0  0  0  0
 27 81  1  0  0  0  0
 28 61  2  0  0  0  0
 29 60  1  0  0  0  0
 29 68  1  0  0  0  0
 30 63  1  0  0  0  0
 30 66  1  0  0  0  0
 31 67  1  0  0  0  0
 31 72  2  0  0  0  0
 32 46  1  0  0  0  0
 32 69  1  0  0  0  0
 32 73  2  0  0  0  0
 33 56  1  0  0  0  0
 33 64  1  0  0  0  0
 33 74  2  0  0  0  0
 34 57  1  0  0  0  0
 34 70  1  0  0  0  0
 34 75  2  0  0  0  0
 35 65  1  0  0  0  0
 35 68  1  0  0  0  0
 35 76  2  0  0  0  0
 36 39  1  0  0  0  0
 37 46  1  0  0  0  0
 38 64  1  0  0  0  0
 39 41  1  0  0  0  0
 40 42  1  0  0  0  0
 40 43  1  0  0  0  0
 41 45  1  0  0  0  0
 42 47  1  0  0  0  0
 43 65  1  0  0  0  0
 44 47  1  0  0  0  0
 44 65  1  0  0  0  0
 45 69  1  0  0  0  0
 46 64  1  0  0  0  0
 47 63  1  0  0  0  0
 48 57  1  0  0  0  0
 49 59  1  0  0  0  0
 50 59  1  0  0  0  0
 51 59  1  0  0  0  0
 52 71  1  0  0  0  0
 53 54  1  0  0  0  0
 53 58  1  0  0  0  0
 54 62  1  0  0  0  0
 55 58  1  0  0  0  0
 55 79  1  0  0  0  0
 56 59  1  0  0  0  0
 56 70  1  0  0  0  0
 57 71  1  0  0  0  0
 58 77  1  0  0  0  0
 61 63  1  0  0  0  0
M  CHG  1  71   1
M  ISO  4  35 100  55 101  68 100  79 101
M  END
> <Batch ID>
0198

> <Smiles>
CNC(C)C(=O)NC(C(=O)N1Cc2cc([101O:1][101CH2:1]C(O)CCn3cnc([100NH:0][100C:0](=O)N4CCCC(n5nc(-c6ccc(Oc7ccc(F)cc7F)cc6)c(C(N)=O)c5N)C4)c3)ccc2CC1C(=O)NC1CCCc2ccccc21)C(C)(C)C

> <Shape>
0.266

> <Color>
0.210

> <Negative vol penalty>
0.000

$$$$

  -OEChem-04052305443D

 82 90  0     1  0  0  0  0  0999 V2000
  -32.1056  -15.3839   19.2703 C   0  0  0  0  0  0  0  0  0  0  0  0
  -31.1660  -16.4074   19.2004 C   0  0  0  0  0  0  0  0  0  0  0  0
  -28.7444  -25.7399   19.5924 C   0  0  0  0  0  0  0  0  0  0  0  0
  -26.5649  -24.7247   19.3548 C   0  0  0  0  0  0  0  0  0  0  0  0
  -31.6880  -14.0676   19.4623 C   0  0  0  0  0  0  0  0  0  0  0  0
  -29.8079  -16.1150   19.3214 C   0  0  0  0  0  0  0  0  0  0  0  0
  -25.5120  -19.5988   21.9509 C   0  0  0  0  0  0  0  0  0  0  0  0
  -29.3382  -24.4792   19.5321 C   0  0  0  0  0  0  0  0  0  0  0  0
  -27.1587  -23.4640   19.2945 C   0  0  0  0  0  0  0  0  0  0  0  0
  -24.5697  -20.4820   21.4259 C   0  0  0  0  0  0  0  0  0  0  0  0
  -28.7790  -21.5828   17.0018 C   0  0  0  0  0  0  0  0  0  0  0  0
  -28.3284  -20.7023   16.0184 C   0  0  0  0  0  0  0  0  0  0  0  0
  -22.9134  -18.7286   21.4650 C   0  0  0  0  0  0  0  0  0  0  0  0
  -27.6742  -19.1266   17.7291 C   0  0  0  0  0  0  0  0  0  0  0  0
  -18.4825  -28.1556   22.8902 C   0  0  0  0  0  0  0  0  0  0  0  0
  -27.3577  -25.8627   19.5038 C   0  0  0  0  0  0  0  0  0  0  0  0
  -26.4607  -28.0240   18.4880 C   0  0  0  0  0  0  0  0  0  0  0  0
  -30.3248  -13.7601   19.5954 C   0  0  0  0  0  0  0  0  0  0  0  0
  -25.1645  -18.2686   22.2272 C   0  0  0  0  0  0  0  0  0  0  0  0
  -29.3716  -14.7932   19.5141 C   0  0  0  0  0  0  0  0  0  0  0  0
  -23.8525  -17.8312   21.9959 C   0  0  0  0  0  0  0  0  0  0  0  0
  -28.5454  -23.3413   19.3831 C   0  0  0  0  0  0  0  0  0  0  0  0
  -23.2710  -20.0462   21.1801 C   0  0  0  0  0  0  0  0  0  0  0  0
  -28.6774  -21.2353   18.3489 C   0  0  0  0  0  0  0  0  0  0  0  0
  -27.7759  -19.4742   16.3821 C   0  0  0  0  0  0  0  0  0  0  0  0
  -28.1249  -20.0072   18.7125 C   0  0  0  0  0  0  0  0  0  0  0  0
  -26.7437  -27.1646   19.5666 C   0  0  0  0  0  0  0  0  0  0  0  0
  -19.8219  -28.0393   23.1977 C   0  0  0  0  0  0  0  0  0  0  0  0
  -25.8830  -29.1261   19.0696 C   0  0  0  0  0  0  0  0  0  0  0  0
  -19.5966  -26.2101   22.0089 C   0  0  0  0  0  0  0  0  0  0  0  0
  -26.6987  -27.8423   17.0859 C   0  0  0  0  0  0  0  0  0  0  0  0
  -26.1291  -15.4316   21.1670 C   0  0  0  0  0  0  0  0  0  0  0  0
  -24.1607  -14.3267   23.4965 C   0  0  0  0  0  0  0  0  0  0  0  0
  -21.4657  -14.8798   25.5159 C   0  0  0  0  0  0  0  0  0  0  0  0
  -22.8955  -29.9373   24.1947 C   0  0  0  0  0  0  0  0  0  0  0  0
  -29.9184  -12.3164   19.7544 C   0  0  0  0  0  0  0  0  0  0  0  0
  -26.1855  -17.3356   22.8184 C   0  0  0  0  0  0  0  0  0  0  0  0
  -23.4234  -16.4186   22.2943 C   0  0  0  0  0  0  0  0  0  0  0  0
  -28.4849  -12.1380   20.2480 C   0  0  0  0  0  0  0  0  0  0  0  0
  -25.8524  -31.6233   23.1505 C   0  0  0  0  0  0  0  0  0  0  0  0
  -27.5351  -13.0407   19.4672 C   0  0  0  0  0  0  0  0  0  0  0  0
  -26.3906  -30.7493   22.0162 C   0  0  0  0  0  0  0  0  0  0  0  0
  -25.2227  -30.7837   24.2597 C   0  0  0  0  0  0  0  0  0  0  0  0
  -24.7222  -28.9651   22.6735 C   0  0  0  0  0  0  0  0  0  0  0  0
  -27.8910  -14.5191   19.6656 C   0  0  1  0  0  0  0  0  0  0  0  0
  -25.8593  -15.8645   22.5803 C   0  0  1  0  0  0  0  0  0  0  0  0
  -25.3169  -29.7700   21.5052 C   0  0  2  0  0  0  0  0  0  0  0  0
  -20.0734  -13.7773   27.2889 C   0  0  0  0  0  0  0  0  0  0  0  0
  -22.7988  -12.6220   21.3636 C   0  0  0  0  0  0  0  0  0  0  0  0
  -20.8837  -12.2994   22.9437 C   0  0  0  0  0  0  0  0  0  0  0  0
  -23.1547  -11.4661   23.5526 C   0  0  0  0  0  0  0  0  0  0  0  0
  -22.1424  -16.9629   27.5062 C   0  0  0  0  0  0  0  0  0  0  0  0
  -20.6077  -28.9945   24.0039 C   0  0  0  0  0  0  0  0  0  0  0  0
  -21.2163  -24.4227   21.3708 C   0  0  0  0  0  0  0  0  0  0  0  0
  -22.4962  -22.2870   20.9950 C   0  0  0  0  0  0  0  0  0  1  0  0
  -22.7001  -13.9530   23.5738 C   0  0  1  0  0  0  0  0  0  0  0  0
  -21.2661  -14.6778   27.0071 C   0  0  2  0  0  0  0  0  0  0  0  0
  -21.1207  -22.9451   20.9956 C   0  0  1  0  0  0  0  0  0  0  0  0
  -22.3926  -12.6113   22.8509 C   0  0  0  0  0  0  0  0  0  0  0  0
  -26.3761  -27.6768   20.7441 N   0  0  0  0  0  0  0  0  0  0  0  0
  -20.4623  -26.9241   22.6936 N   0  0  0  0  0  0  0  0  0  0  0  0
  -25.8564  -28.8700   20.4089 N   0  0  0  0  0  0  0  0  0  0  0  0
  -24.4595  -15.5426   22.8655 N   0  0  0  0  0  0  0  0  0  0  0  0
  -24.2120  -29.8776   23.7088 N   0  0  0  0  0  0  0  0  0  0  0  0
  -25.4004  -30.2796   18.5608 N   0  0  0  0  0  0  0  0  0  0  0  0
  -27.3011  -26.6508   16.6594 N   0  0  0  0  0  0  0  0  0  0  0  0
  -19.9008  -25.0224   21.3655 N   0  0  0  0  0  0  0  0  0  0  0  0
  -27.4188  -14.9843   20.9521 N   0  0  0  0  0  0  0  0  0  0  0  0
  -22.3507  -13.9624   24.9902 N   0  0  0  0  0  0  0  0  0  0  0  0
  -21.9991  -29.0484   23.6141 N   0  0  0  0  0  0  0  0  0  0  0  0
  -21.0361  -15.9870   27.6809 N   0  3  0  0  0  0  0  0  0  0  0  0
  -26.4015  -28.7177   16.2381 O   0  0  0  0  0  0  0  0  0  0  0  0
  -25.2332  -15.4970   20.3335 O   0  0  0  0  0  0  0  0  0  0  0  0
  -25.0048  -13.5711   23.9846 O   0  0  0  0  0  0  0  0  0  0  0  0
  -20.8910  -15.7607   24.8802 O   0  0  0  0  0  0  0  0  0  0  0  0
  -22.5436  -30.7282   25.0766 O   0  0  0  0  0  0  0  0  0  0  0  0
  -20.3154  -22.2685   21.9631 O   0  0  0  0  0  0  0  0  0  0  0  0
  -29.1245  -22.1110   19.3240 O   0  0  0  0  0  0  0  0  0  0  0  0
  -22.3494  -20.9060   20.6670 O   0  0  0  0  0  0  0  0  0  1  0  0
  -27.3418  -18.6293   15.4377 F   0  0  0  0  0  0  0  0  0  0  0  0
  -28.0236  -19.6683   20.0051 F   0  0  0  0  0  0  0  0  0  0  0  0
  -17.9949  -26.8211   21.9297 S   0  0  0  0  0  0  0  0  0  0  0  0
  1  2  1  0  0  0  0
  1  5  2  0  0  0  0
  2  6  2  0  0  0  0
  3  8  2  0  0  0  0
  3 16  1  0  0  0  0
  4  9  1  0  0  0  0
  4 16  2  0  0  0  0
  5 18  1  0  0  0  0
  6 20  1  0  0  0  0
  7 10  2  0  0  0  0
  7 19  1  0  0  0  0
  8 22  1  0  0  0  0
  9 22  2  0  0  0  0
 10 23  1  0  0  0  0
 11 12  2  0  0  0  0
 11 24  1  0  0  0  0
 12 25  1  0  0  0  0
 13 21  1  0  0  0  0
 13 23  2  0  0  0  0
 14 25  2  0  0  0  0
 14 26  1  0  0  0  0
 15 28  2  0  0  0  0
 15 82  1  0  0  0  0
 16 27  1  0  0  0  0
 17 27  1  0  0  0  0
 17 29  2  0  0  0  0
 17 31  1  0  0  0  0
 18 20  2  0  0  0  0
 18 36  1  0  0  0  0
 19 21  2  0  0  0  0
 19 37  1  0  0  0  0
 20 45  1  0  0  0  0
 21 38  1  0  0  0  0
 22 78  1  0  0  0  0
 23 79  1  0  0  0  0
 24 26  2  0  0  0  0
 24 78  1  0  0  0  0
 25 80  1  0  0  0  0
 26 81  1  0  0  0  0
 27 60  2  0  0  0  0
 28 53  1  0  0  0  0
 28 61  1  0  0  0  0
 29 62  1  0  0  0  0
 29 65  1  0  0  0  0
 30 61  2  0  0  0  0
 30 67  1  0  0  0  0
 30 82  1  0  0  0  0
 31 66  1  0  0  0  0
 31 72  2  0  0  0  0
 32 46  1  0  0  0  0
 32 68  1  0  0  0  0
 32 73  2  0  0  0  0
 33 56  1  0  0  0  0
 33 63  1  0  0  0  0
 33 74  2  0  0  0  0
 34 57  1  0  0  0  0
 34 69  1  0  0  0  0
 34 75  2  0  0  0  0
 35 64  1  0  0  0  0
 35 70  1  0  0  0  0
 35 76  2  0  0  0  0
 36 39  1  0  0  0  0
 37 46  1  0  0  0  0
 38 63  1  0  0  0  0
 39 41  1  0  0  0  0
 40 42  1  0  0  0  0
 40 43  1  0  0  0  0
 41 45  1  0  0  0  0
 42 47  1  0  0  0  0
 43 64  1  0  0  0  0
 44 47  1  0  0  0  0
 44 64  1  0  0  0  0
 45 68  1  0  0  0  0
 46 63  1  0  0  0  0
 47 62  1  0  0  0  0
 48 57  1  0  0  0  0
 49 59  1  0  0  0  0
 50 59  1  0  0  0  0
 51 59  1  0  0  0  0
 52 71  1  0  0  0  0
 53 70  1  0  0  0  0
 54 58  1  0  0  0  0
 54 67  1  0  0  0  0
 55 58  1  0  0  0  0
 55 79  1  0  0  0  0
 56 59  1  0  0  0  0
 56 69  1  0  0  0  0
 57 71  1  0  0  0  0
 58 77  1  0  0  0  0
 60 62  1  0  0  0  0
M  CHG  1  71   1
M  ISO  4  35 100  55 101  70 100  79 101
M  END
> <Batch ID>
0198

> <Smiles>
CNC(C)C(=O)NC(C(=O)N1Cc2cc([101O:1][101CH2:1]C(O)CNc3nc(C[100NH:0][100C:0](=O)N4CCCC(n5nc(-c6ccc(Oc7ccc(F)cc7F)cc6)c(C(N)=O)c5N)C4)cs3)ccc2CC1C(=O)NC1CCCc2ccccc21)C(C)(C)C

> <Shape>
0.216

> <Color>
0.068

> <Negative vol penalty>
0.000

$$$$

  -OEChem-04052305443D

 83 91  0     1  0  0  0  0  0999 V2000
  -23.0217   -7.8334   22.0234 C   0  0  0  0  0  0  0  0  0  0  0  0
  -24.0052   -8.8131   21.9320 C   0  0  0  0  0  0  0  0  0  0  0  0
  -23.8114  -30.1842   21.1733 C   0  0  0  0  0  0  0  0  0  0  0  0
  -25.5769  -29.9681   22.8084 C   0  0  0  0  0  0  0  0  0  0  0  0
  -21.7074   -8.1313   21.6659 C   0  0  0  0  0  0  0  0  0  0  0  0
  -23.6751  -10.0910   21.4819 C   0  0  0  0  0  0  0  0  0  0  0  0
  -25.7459  -13.7430   24.3138 C   0  0  0  0  0  0  0  0  0  0  0  0
  -23.2509  -31.2234   21.9159 C   0  0  0  0  0  0  0  0  0  0  0  0
  -25.0164  -31.0073   23.5510 C   0  0  0  0  0  0  0  0  0  0  0  0
  -27.0948  -14.0249   24.1025 C   0  0  0  0  0  0  0  0  0  0  0  0
  -24.9275  -34.3835   23.4347 C   0  0  0  0  0  0  0  0  0  0  0  0
  -25.7885  -35.3652   23.9252 C   0  0  0  0  0  0  0  0  0  0  0  0
  -26.4797  -15.9291   22.7554 C   0  0  0  0  0  0  0  0  0  0  0  0
  -25.1155  -34.8275   26.1825 C   0  0  0  0  0  0  0  0  0  0  0  0
  -32.0692  -21.8537   18.9317 C   0  0  0  0  0  0  0  0  0  0  0  0
  -24.9744  -29.5565   21.6196 C   0  0  0  0  0  0  0  0  0  0  0  0
  -26.5146  -28.5904   19.8301 C   0  0  0  0  0  0  0  0  0  0  0  0
  -21.3591   -9.4162   21.2205 C   0  0  0  0  0  0  0  0  0  0  0  0
  -24.7520  -14.5471   23.7376 C   0  0  0  0  0  0  0  0  0  0  0  0
  -22.3552  -10.4059   21.1169 C   0  0  0  0  0  0  0  0  0  0  0  0
  -25.1189  -15.6569   22.9630 C   0  0  0  0  0  0  0  0  0  0  0  0
  -23.8533  -31.6349   23.1048 C   0  0  0  0  0  0  0  0  0  0  0  0
  -27.4619  -15.1164   23.3208 C   0  0  0  0  0  0  0  0  0  0  0  0
  -24.1605  -33.6239   24.3180 C   0  0  0  0  0  0  0  0  0  0  0  0
  -25.8825  -35.5872   25.2991 C   0  0  0  0  0  0  0  0  0  0  0  0
  -24.2545  -33.8459   25.6919 C   0  0  0  0  0  0  0  0  0  0  0  0
  -25.5536  -28.4826   20.8532 C   0  0  0  0  0  0  0  0  0  0  0  0
  -26.7320  -27.2960   19.4254 C   0  0  0  0  0  0  0  0  0  0  0  0
  -30.9925  -19.8942   19.1268 C   0  0  0  0  0  0  0  0  0  0  0  0
  -29.9597  -21.8036   19.6963 C   0  0  0  0  0  0  0  0  0  0  0  0
  -27.1536  -29.7564   19.2935 C   0  0  0  0  0  0  0  0  0  0  0  0
  -22.4071  -14.0623   21.6471 C   0  0  0  0  0  0  0  0  0  0  0  0
  -21.6307  -17.1207   22.3990 C   0  0  0  0  0  0  0  0  0  0  0  0
  -22.6398  -20.1591   23.5810 C   0  0  0  0  0  0  0  0  0  0  0  0
  -27.5988  -21.9159   20.5681 C   0  0  0  0  0  0  0  0  0  0  0  0
  -19.9344   -9.6775   20.8003 C   0  0  0  0  0  0  0  0  0  0  0  0
  -23.3015  -14.2453   23.9971 C   0  0  0  0  0  0  0  0  0  0  0  0
  -24.0905  -16.5631   22.3387 C   0  0  0  0  0  0  0  0  0  0  0  0
  -19.5946  -11.1616   20.6894 C   0  0  0  0  0  0  0  0  0  0  0  0
  -24.2203  -23.0384   20.5145 C   0  0  0  0  0  0  0  0  0  0  0  0
  -20.6868  -11.9037   19.9257 C   0  0  0  0  0  0  0  0  0  0  0  0
  -24.3451  -24.5637   20.5137 C   0  0  0  0  0  0  0  0  0  0  0  0
  -25.2962  -22.3819   21.3778 C   0  0  0  0  0  0  0  0  0  0  0  0
  -26.7983  -24.3092   21.0648 C   0  0  0  0  0  0  0  0  0  0  0  0
  -22.0315  -11.8108   20.6568 C   0  0  1  0  0  0  0  0  0  0  0  0
  -22.3710  -14.8294   22.9386 C   0  0  1  0  0  0  0  0  0  0  0  0
  -25.7759  -25.0120   20.1568 C   0  0  2  0  0  0  0  0  0  0  0  0
  -21.7892  -22.4742   24.0438 C   0  0  0  0  0  0  0  0  0  0  0  0
  -32.4031  -15.6974   19.7954 C   0  0  0  0  0  0  0  0  0  0  0  0
  -21.6989  -17.7402   19.4121 C   0  0  0  0  0  0  0  0  0  0  0  0
  -21.7924  -20.1745   19.9900 C   0  0  0  0  0  0  0  0  0  0  0  0
  -19.8126  -18.8112   20.6568 C   0  0  0  0  0  0  0  0  0  0  0  0
  -23.2554  -19.9337   26.4671 C   0  0  0  0  0  0  0  0  0  0  0  0
  -30.9751  -18.4010   18.9821 C   0  0  0  0  0  0  0  0  0  0  0  0
  -30.5372  -15.6075   21.4956 C   0  0  0  0  0  0  0  0  0  0  0  0
  -29.1215  -16.0240   21.8793 C   0  0  0  0  0  0  0  0  0  1  0  0
  -22.0085  -18.4816   21.8658 C   0  0  1  0  0  0  0  0  0  0  0  0
  -22.0350  -21.0878   24.6184 C   0  0  2  0  0  0  0  0  0  0  0  0
  -31.0174  -16.2050   20.1715 C   0  0  1  0  0  0  0  0  0  0  0  0
  -21.3477  -18.7839   20.4912 C   0  0  0  0  0  0  0  0  0  0  0  0
  -32.1269  -20.5210   18.7762 N   0  0  0  0  0  0  0  0  0  0  0  0
  -31.0227  -22.5626   19.3850 N   0  0  0  0  0  0  0  0  0  0  0  0
  -25.1858  -27.2195   21.0841 N   0  0  0  0  0  0  0  0  0  0  0  0
  -29.8718  -20.4677   19.5937 N   0  0  0  0  0  0  0  0  0  0  0  0
  -25.9195  -26.5218   20.2003 N   0  0  0  0  0  0  0  0  0  0  0  0
  -22.6853  -16.2228   22.6165 N   0  0  0  0  0  0  0  0  0  0  0  0
  -26.6254  -22.8506   20.9798 N   0  0  0  0  0  0  0  0  0  0  0  0
  -27.5370  -26.7560   18.4859 N   0  0  0  0  0  0  0  0  0  0  0  0
  -26.8142  -31.0083   19.8244 N   0  0  0  0  0  0  0  0  0  0  0  0
  -28.8138  -22.4810   20.1819 N   0  0  0  0  0  0  0  0  0  0  0  0
  -22.0638  -12.7298   21.7743 N   0  0  0  0  0  0  0  0  0  0  0  0
  -21.6715  -19.4387   22.9141 N   0  0  0  0  0  0  0  0  0  0  0  0
  -22.9466  -21.2194   25.7900 N   0  3  0  0  0  0  0  0  0  0  0  0
  -31.0862  -17.6888   20.2815 N   0  3  0  0  0  0  0  0  0  0  0  0
  -27.9884  -29.6915   18.3595 O   0  0  0  0  0  0  0  0  0  0  0  0
  -22.7216  -14.6371   20.6115 O   0  0  0  0  0  0  0  0  0  0  0  0
  -20.4443  -16.8663   22.6214 O   0  0  0  0  0  0  0  0  0  0  0  0
  -23.8498  -20.0832   23.3797 O   0  0  0  0  0  0  0  0  0  0  0  0
  -27.3624  -20.7056   20.5329 O   0  0  0  0  0  0  0  0  0  0  0  0
  -23.3068  -32.6491   23.8295 O   0  0  0  0  0  0  0  0  0  0  0  0
  -28.7779  -15.3934   23.1124 O   0  0  0  0  0  0  0  0  0  1  0  0
  -26.7105  -36.5289   25.7701 F   0  0  0  0  0  0  0  0  0  0  0  0
  -23.5210  -33.1184   26.5455 F   0  0  0  0  0  0  0  0  0  0  0  0
  1  2  1  0  0  0  0
  1  5  2  0  0  0  0
  2  6  2  0  0  0  0
  3  8  2  0  0  0  0
  3 16  1  0  0  0  0
  4  9  1  0  0  0  0
  4 16  2  0  0  0  0
  5 18  1  0  0  0  0
  6 20  1  0  0  0  0
  7 10  2  0  0  0  0
  7 19  1  0  0  0  0
  8 22  1  0  0  0  0
  9 22  2  0  0  0  0
 10 23  1  0  0  0  0
 11 12  2  0  0  0  0
 11 24  1  0  0  0  0
 12 25  1  0  0  0  0
 13 21  1  0  0  0  0
 13 23  2  0  0  0  0
 14 25  2  0  0  0  0
 14 26  1  0  0  0  0
 15 61  2  0  0  0  0
 15 62  1  0  0  0  0
 16 27  1  0  0  0  0
 17 27  1  0  0  0  0
 17 28  2  0  0  0  0
 17 31  1  0  0  0  0
 18 20  2  0  0  0  0
 18 36  1  0  0  0  0
 19 21  2  0  0  0  0
 19 37  1  0  0  0  0
 20 45  1  0  0  0  0
 21 38  1  0  0  0  0
 22 80  1  0  0  0  0
 23 81  1  0  0  0  0
 24 26  2  0  0  0  0
 24 80  1  0  0  0  0
 25 82  1  0  0  0  0
 26 83  1  0  0  0  0
 27 63  2  0  0  0  0
 28 65  1  0  0  0  0
 28 68  1  0  0  0  0
 29 54  1  0  0  0  0
 29 61  1  0  0  0  0
 29 64  2  0  0  0  0
 30 62  2  0  0  0  0
 30 64  1  0  0  0  0
 30 70  1  0  0  0  0
 31 69  1  0  0  0  0
 31 75  2  0  0  0  0
 32 46  1  0  0  0  0
 32 71  1  0  0  0  0
 32 76  2  0  0  0  0
 33 57  1  0  0  0  0
 33 66  1  0  0  0  0
 33 77  2  0  0  0  0
 34 58  1  0  0  0  0
 34 72  1  0  0  0  0
 34 78  2  0  0  0  0
 35 67  1  0  0  0  0
 35 70  1  0  0  0  0
 35 79  2  0  0  0  0
 36 39  1  0  0  0  0
 37 46  1  0  0  0  0
 38 66  1  0  0  0  0
 39 41  1  0  0  0  0
 40 42  1  0  0  0  0
 40 43  1  0  0  0  0
 41 45  1  0  0  0  0
 42 47  1  0  0  0  0
 43 67  1  0  0  0  0
 44 47  1  0  0  0  0
 44 67  1  0  0  0  0
 45 71  1  0  0  0  0
 46 66  1  0  0  0  0
 47 65  1  0  0  0  0
 48 58  1  0  0  0  0
 49 59  1  0  0  0  0
 50 60  1  0  0  0  0
 51 60  1  0  0  0  0
 52 60  1  0  0  0  0
 53 73  1  0  0  0  0
 54 74  1  0  0  0  0
 55 56  1  0  0  0  0
 55 59  1  0  0  0  0
 56 81  1  0  0  0  0
 57 60  1  0  0  0  0
 57 72  1  0  0  0  0
 58 73  1  0  0  0  0
 59 74  1  0  0  0  0
 63 65  1  0  0  0  0
M  CHG  2  73   1  74   1
M  ISO  4  35 100  56 101  70 100  81 101
M  END
> <Batch ID>
0198

> <Smiles>
CNC(C)C(=O)NC(C(=O)N1Cc2cc([101O:1][101CH2:1]CC(C)NCc3ncnc([100NH:0][100C:0](=O)N4CCCC(n5nc(-c6ccc(Oc7ccc(F)cc7F)cc6)c(C(N)=O)c5N)C4)n3)ccc2CC1C(=O)NC1CCCc2ccccc21)C(C)(C)C

> <Shape>
0.200

> <Color>
0.088

> <Negative vol penalty>
0.000

$$$$

  -OEChem-04052305443D

 82 90  0     1  0  0  0  0  0999 V2000
  -24.0419  -25.9077   31.2665 C   0  0  0  0  0  0  0  0  0  0  0  0
  -24.6995  -25.4457   30.1309 C   0  0  0  0  0  0  0  0  0  0  0  0
  -23.0731   -9.8698   19.9409 C   0  0  0  0  0  0  0  0  0  0  0  0
  -23.8366   -9.8735   22.2330 C   0  0  0  0  0  0  0  0  0  0  0  0
  -22.6604  -26.0938   31.2433 C   0  0  0  0  0  0  0  0  0  0  0  0
  -23.9757  -25.1684   28.9718 C   0  0  0  0  0  0  0  0  0  0  0  0
  -26.2062  -26.9899   24.8062 C   0  0  0  0  0  0  0  0  0  0  0  0
  -22.3295   -8.7164   20.1904 C   0  0  0  0  0  0  0  0  0  0  0  0
  -23.0930   -8.7200   22.4826 C   0  0  0  0  0  0  0  0  0  0  0  0
  -27.2857  -26.2703   24.2955 C   0  0  0  0  0  0  0  0  0  0  0  0
  -19.8657   -7.9217   23.0891 C   0  0  0  0  0  0  0  0  0  0  0  0
  -19.1106   -7.8802   24.2611 C   0  0  0  0  0  0  0  0  0  0  0  0
  -25.8361  -25.2826   22.6395 C   0  0  0  0  0  0  0  0  0  0  0  0
  -20.3530   -5.9416   24.9928 C   0  0  0  0  0  0  0  0  0  0  0  0
  -23.8267  -10.4483   20.9622 C   0  0  0  0  0  0  0  0  0  0  0  0
  -24.1686  -12.9736   20.8452 C   0  0  0  0  0  0  0  0  0  0  0  0
  -21.9205  -25.8279   30.0804 C   0  0  0  0  0  0  0  0  0  0  0  0
  -24.9292  -26.8527   24.2433 C   0  0  0  0  0  0  0  0  0  0  0  0
  -22.5827  -25.3499   28.9335 C   0  0  0  0  0  0  0  0  0  0  0  0
  -24.7426  -26.0034   23.1433 C   0  0  0  0  0  0  0  0  0  0  0  0
  -22.3394   -8.1415   21.4612 C   0  0  0  0  0  0  0  0  0  0  0  0
  -27.1002  -25.4143   23.2139 C   0  0  0  0  0  0  0  0  0  0  0  0
  -20.8644   -6.9731   22.8689 C   0  0  0  0  0  0  0  0  0  0  0  0
  -19.3543   -6.8901   25.2130 C   0  0  0  0  0  0  0  0  0  0  0  0
  -21.1081   -5.9831   23.8207 C   0  0  0  0  0  0  0  0  0  0  0  0
  -24.5955  -11.6395   20.7049 C   0  0  0  0  0  0  0  0  0  0  0  0
  -25.2603  -13.7235   20.4813 C   0  0  0  0  0  0  0  0  0  0  0  0
  -30.5746  -16.9474   21.9035 C   0  0  0  0  0  0  0  0  0  0  0  0
  -30.7803  -19.0590   22.9359 C   0  0  0  0  0  0  0  0  0  0  0  0
  -22.8988  -13.4890   21.2669 C   0  0  0  0  0  0  0  0  0  0  0  0
  -22.1080  -25.8409   25.3021 C   0  0  0  0  0  0  0  0  0  0  0  0
  -21.0901  -26.8558   22.3942 C   0  0  0  0  0  0  0  0  0  0  0  0
  -21.8515  -27.5692   19.1448 C   0  0  0  0  0  0  0  0  0  0  0  0
  -30.7269  -14.7682   20.6489 C   0  0  0  0  0  0  0  0  0  0  0  0
  -20.4225  -25.9993   30.1179 C   0  0  0  0  0  0  0  0  0  0  0  0
  -23.7806  -27.6561   24.7888 C   0  0  0  0  0  0  0  0  0  0  0  0
  -23.3959  -25.8361   22.4900 C   0  0  0  0  0  0  0  0  0  0  0  0
  -19.7792  -26.0393   28.7342 C   0  0  0  0  0  0  0  0  0  0  0  0
  -29.6084  -12.3580   18.2788 C   0  0  0  0  0  0  0  0  0  0  0  0
  -20.3238  -24.9145   27.8595 C   0  0  0  0  0  0  0  0  0  0  0  0
  -28.1694  -12.0660   18.7102 C   0  0  0  0  0  0  0  0  0  0  0  0
  -30.5254  -12.5849   19.4793 C   0  0  0  0  0  0  0  0  0  0  0  0
  -28.6208  -13.3076   20.8647 C   0  0  0  0  0  0  0  0  0  0  0  0
  -21.8356  -25.0617   27.6494 C   0  0  1  0  0  0  0  0  0  0  0  0
  -22.4192  -27.0488   24.4644 C   0  0  1  0  0  0  0  0  0  0  0  0
  -27.6461  -13.1362   19.6882 C   0  0  2  0  0  0  0  0  0  0  0  0
  -20.8030  -28.3421   16.9999 C   0  0  0  0  0  0  0  0  0  0  0  0
  -32.6804  -20.8567   24.7185 C   0  0  0  0  0  0  0  0  0  0  0  0
  -19.8820  -24.0835   21.9886 C   0  0  0  0  0  0  0  0  0  0  0  0
  -19.7054  -24.5945   19.5440 C   0  0  0  0  0  0  0  0  0  0  0  0
  -18.4464  -25.9728   21.1986 C   0  0  0  0  0  0  0  0  0  0  0  0
  -23.5594  -29.9841   19.0449 C   0  0  0  0  0  0  0  0  0  0  0  0
  -29.8432  -23.0474   23.1867 C   0  0  0  0  0  0  0  0  0  0  0  0
  -30.9523  -22.6023   24.1500 C   0  0  0  0  0  0  0  0  0  0  0  0
  -29.1861  -24.3501   23.6289 C   0  0  0  0  0  0  0  0  0  1  0  0
  -20.9562  -26.2261   21.0287 C   0  0  1  0  0  0  0  0  0  0  0  0
  -21.5202  -28.7663   18.2721 C   0  0  2  0  0  0  0  0  0  0  0  0
  -31.6031  -21.2787   23.7244 C   0  0  2  0  0  0  0  0  0  0  0  0
  -19.7726  -25.2207   20.9533 C   0  0  0  0  0  0  0  0  0  0  0  0
  -25.8597  -11.5441   20.2845 N   0  0  0  0  0  0  0  0  0  0  0  0
  -31.7324  -17.5117   21.6333 N   0  0  0  0  0  0  0  0  0  0  0  0
  -31.8535  -18.7498   22.2398 N   0  0  0  0  0  0  0  0  0  0  0  0
  -26.2365  -12.8279   20.1574 N   0  0  0  0  0  0  0  0  0  0  0  0
  -22.3028  -26.6384   23.0636 N   0  0  0  0  0  0  0  0  0  0  0  0
  -29.9680  -13.6145   20.3591 N   0  0  0  0  0  0  0  0  0  0  0  0
  -25.4707  -15.0551   20.4098 N   0  0  0  0  0  0  0  0  0  0  0  0
  -21.8874  -12.5794   21.6045 N   0  0  0  0  0  0  0  0  0  0  0  0
  -30.0809  -15.6921   21.4697 N   0  0  0  0  0  0  0  0  0  0  0  0
  -30.6068  -20.2304   23.6511 N   0  0  0  0  0  0  0  0  0  0  0  0
  -22.1115  -26.0837   26.6625 N   0  0  0  0  0  0  0  0  0  0  0  0
  -20.8651  -27.3288   20.0778 N   0  0  0  0  0  0  0  0  0  0  0  0
  -22.7660  -29.4896   17.8904 N   0  3  0  0  0  0  0  0  0  0  0  0
  -22.6628  -14.7195   21.3264 O   0  0  0  0  0  0  0  0  0  0  0  0
  -21.8801  -24.7685   24.7548 O   0  0  0  0  0  0  0  0  0  0  0  0
  -20.1561  -27.5222   22.8470 O   0  0  0  0  0  0  0  0  0  0  0  0
  -22.8805  -26.9108   19.0098 O   0  0  0  0  0  0  0  0  0  0  0  0
  -31.8552  -14.9375   20.1797 O   0  0  0  0  0  0  0  0  0  0  0  0
  -21.6137   -7.0161   21.7051 O   0  0  0  0  0  0  0  0  0  0  0  0
  -28.1519  -24.7103   22.7139 O   0  0  0  0  0  0  0  0  0  1  0  0
  -18.6301   -6.8513   26.3392 F   0  0  0  0  0  0  0  0  0  0  0  0
  -22.0670   -5.0698   23.6153 F   0  0  0  0  0  0  0  0  0  0  0  0
  -29.5410  -17.8737   22.9112 S   0  0  0  0  0  0  0  0  0  0  0  0
  1  2  1  0  0  0  0
  1  5  2  0  0  0  0
  2  6  2  0  0  0  0
  3  8  2  0  0  0  0
  3 15  1  0  0  0  0
  4  9  1  0  0  0  0
  4 15  2  0  0  0  0
  5 17  1  0  0  0  0
  6 19  1  0  0  0  0
  7 10  2  0  0  0  0
  7 18  1  0  0  0  0
  8 21  1  0  0  0  0
  9 21  2  0  0  0  0
 10 22  1  0  0  0  0
 11 12  2  0  0  0  0
 11 23  1  0  0  0  0
 12 24  1  0  0  0  0
 13 20  1  0  0  0  0
 13 22  2  0  0  0  0
 14 24  2  0  0  0  0
 14 25  1  0  0  0  0
 15 26  1  0  0  0  0
 16 26  1  0  0  0  0
 16 27  2  0  0  0  0
 16 30  1  0  0  0  0
 17 19  2  0  0  0  0
 17 35  1  0  0  0  0
 18 20  2  0  0  0  0
 18 36  1  0  0  0  0
 19 44  1  0  0  0  0
 20 37  1  0  0  0  0
 21 78  1  0  0  0  0
 22 79  1  0  0  0  0
 23 25  2  0  0  0  0
 23 78  1  0  0  0  0
 24 80  1  0  0  0  0
 25 81  1  0  0  0  0
 26 60  2  0  0  0  0
 27 63  1  0  0  0  0
 27 66  1  0  0  0  0
 28 61  2  0  0  0  0
 28 68  1  0  0  0  0
 28 82  1  0  0  0  0
 29 62  2  0  0  0  0
 29 69  1  0  0  0  0
 29 82  1  0  0  0  0
 30 67  1  0  0  0  0
 30 73  2  0  0  0  0
 31 45  1  0  0  0  0
 31 70  1  0  0  0  0
 31 74  2  0  0  0  0
 32 56  1  0  0  0  0
 32 64  1  0  0  0  0
 32 75  2  0  0  0  0
 33 57  1  0  0  0  0
 33 71  1  0  0  0  0
 33 76  2  0  0  0  0
 34 65  1  0  0  0  0
 34 68  1  0  0  0  0
 34 77  2  0  0  0  0
 35 38  1  0  0  0  0
 36 45  1  0  0  0  0
 37 64  1  0  0  0  0
 38 40  1  0  0  0  0
 39 41  1  0  0  0  0
 39 42  1  0  0  0  0
 40 44  1  0  0  0  0
 41 46  1  0  0  0  0
 42 65  1  0  0  0  0
 43 46  1  0  0  0  0
 43 65  1  0  0  0  0
 44 70  1  0  0  0  0
 45 64  1  0  0  0  0
 46 63  1  0  0  0  0
 47 57  1  0  0  0  0
 48 58  1  0  0  0  0
 49 59  1  0  0  0  0
 50 59  1  0  0  0  0
 51 59  1  0  0  0  0
 52 72  1  0  0  0  0
 53 54  1  0  0  0  0
 53 55  1  0  0  0  0
 54 58  1  0  0  0  0
 55 79  1  0  0  0  0
 56 59  1  0  0  0  0
 56 71  1  0  0  0  0
 57 72  1  0  0  0  0
 58 69  1  0  0  0  0
 60 63  1  0  0  0  0
 61 62  1  0  0  0  0
M  CHG  1  72   1
M  ISO  4  34 100  55 101  68 100  79 101
M  END
> <Batch ID>
0198

> <Smiles>
CNC(C)C(=O)NC(C(=O)N1Cc2cc([101O:1][101CH2:1]CCC(C)Nc3nnc([100NH:0][100C:0](=O)N4CCCC(n5nc(-c6ccc(Oc7ccc(F)cc7F)cc6)c(C(N)=O)c5N)C4)s3)ccc2CC1C(=O)NC1CCCc2ccccc21)C(C)(C)C

> <Shape>
0.221

> <Color>
0.187

> <Negative vol penalty>
0.000

$$$$

  -OEChem-04052305443D

 82 90  0     1  0  0  0  0  0999 V2000
  -17.8701  -32.1129   21.6414 C   0  0  0  0  0  0  0  0  0  0  0  0
  -19.1478  -32.1105   21.0910 C   0  0  0  0  0  0  0  0  0  0  0  0
  -26.4873  -12.9627   21.7320 C   0  0  0  0  0  0  0  0  0  0  0  0
  -26.0507  -14.1512   19.6744 C   0  0  0  0  0  0  0  0  0  0  0  0
  -17.6149  -31.3984   22.8111 C   0  0  0  0  0  0  0  0  0  0  0  0
  -20.1713  -31.3943   21.7107 C   0  0  0  0  0  0  0  0  0  0  0  0
  -24.7903  -28.4539   18.9675 C   0  0  0  0  0  0  0  0  0  0  0  0
  -25.2073  -12.4105   21.6847 C   0  0  0  0  0  0  0  0  0  0  0  0
  -24.7706  -13.5990   19.6270 C   0  0  0  0  0  0  0  0  0  0  0  0
  -26.1177  -28.8075   18.7296 C   0  0  0  0  0  0  0  0  0  0  0  0
  -23.6338   -9.9062   20.0460 C   0  0  0  0  0  0  0  0  0  0  0  0
  -23.5061   -8.5423   20.3090 C   0  0  0  0  0  0  0  0  0  0  0  0
  -26.7847  -27.6203   20.7208 C   0  0  0  0  0  0  0  0  0  0  0  0
  -22.0561   -9.0383   22.1768 C   0  0  0  0  0  0  0  0  0  0  0  0
  -26.9090  -13.8331   20.7268 C   0  0  0  0  0  0  0  0  0  0  0  0
  -29.4083  -13.8712   20.2175 C   0  0  0  0  0  0  0  0  0  0  0  0
  -18.6335  -30.6653   23.4401 C   0  0  0  0  0  0  0  0  0  0  0  0
  -24.4481  -27.6887   20.0917 C   0  0  0  0  0  0  0  0  0  0  0  0
  -19.9298  -30.6704   22.8906 C   0  0  0  0  0  0  0  0  0  0  0  0
  -25.4525  -27.2561   20.9694 C   0  0  0  0  0  0  0  0  0  0  0  0
  -24.3490  -12.7286   20.6322 C   0  0  0  0  0  0  0  0  0  0  0  0
  -27.1148  -28.3932   19.6078 C   0  0  0  0  0  0  0  0  0  0  0  0
  -22.9727  -10.8361   20.8485 C   0  0  0  0  0  0  0  0  0  0  0  0
  -22.7172   -8.1084   21.3744 C   0  0  0  0  0  0  0  0  0  0  0  0
  -22.1839  -10.4022   21.9139 C   0  0  0  0  0  0  0  0  0  0  0  0
  -28.2309  -14.4043   20.7754 C   0  0  0  0  0  0  0  0  0  0  0  0
  -30.3835  -14.7842   20.5368 C   0  0  0  0  0  0  0  0  0  0  0  0
  -30.2344  -23.6549   18.5164 C   0  0  0  0  0  0  0  0  0  0  0  0
  -29.8836  -21.7617   19.5304 C   0  0  0  0  0  0  0  0  0  0  0  0
  -29.6031  -12.6593   19.4766 C   0  0  0  0  0  0  0  0  0  0  0  0
  -22.6296  -28.1586   22.6561 C   0  0  0  0  0  0  0  0  0  0  0  0
  -23.3039  -25.0371   23.2251 C   0  0  0  0  0  0  0  0  0  0  0  0
  -25.4039  -22.3914   22.7385 C   0  0  0  0  0  0  0  0  0  0  0  0
  -30.2592  -20.6335   21.7513 C   0  0  0  0  0  0  0  0  0  0  0  0
  -18.3210  -29.9468   24.7289 C   0  0  0  0  0  0  0  0  0  0  0  0
  -23.0150  -27.2931   20.3198 C   0  0  0  0  0  0  0  0  0  0  0  0
  -25.1401  -26.4160   22.1798 C   0  0  0  0  0  0  0  0  0  0  0  0
  -19.3708  -28.9089   25.1176 C   0  0  0  0  0  0  0  0  0  0  0  0
  -31.5157  -18.0486   23.8528 C   0  0  0  0  0  0  0  0  0  0  0  0
  -20.7741  -29.4891   24.9733 C   0  0  0  0  0  0  0  0  0  0  0  0
  -30.9281  -16.7717   23.2477 C   0  0  0  0  0  0  0  0  0  0  0  0
  -30.5347  -19.2170   23.7743 C   0  0  0  0  0  0  0  0  0  0  0  0
  -29.4067  -18.2081   21.8303 C   0  0  0  0  0  0  0  0  0  0  0  0
  -21.0604  -29.8856   23.5199 C   0  0  1  0  0  0  0  0  0  0  0  0
  -22.7155  -26.9449   21.7746 C   0  0  1  0  0  0  0  0  0  0  0  0
  -30.3826  -17.0201   21.8278 C   0  0  2  0  0  0  0  0  0  0  0  0
  -25.7115  -19.9800   23.3614 C   0  0  0  0  0  0  0  0  0  0  0  0
  -24.2539  -25.8777   26.0001 C   0  0  0  0  0  0  0  0  0  0  0  0
  -25.4005  -23.6613   26.2027 C   0  0  0  0  0  0  0  0  0  0  0  0
  -22.9208  -23.7623   25.9502 C   0  0  0  0  0  0  0  0  0  0  0  0
  -25.2476  -21.5215   19.9140 C   0  0  0  0  0  0  0  0  0  0  0  0
  -30.6340  -27.9578   18.9357 C   0  0  0  0  0  0  0  0  0  0  0  0
  -31.3673  -25.5772   19.6331 C   0  0  0  0  0  0  0  0  0  0  0  0
  -29.4146  -27.8324   19.8370 C   0  0  0  0  0  0  0  0  0  1  0  0
  -24.3916  -24.2959   23.9643 C   0  0  1  0  0  0  0  0  0  0  0  0
  -25.1343  -20.9508   22.3430 C   0  0  2  0  0  0  0  0  0  0  0  0
  -31.7812  -27.0142   19.3119 C   0  0  1  0  0  0  0  0  0  0  0  0
  -24.2477  -24.4168   25.5077 C   0  0  0  0  0  0  0  0  0  0  0  0
  -28.4371  -15.5657   21.4019 N   0  0  0  0  0  0  0  0  0  0  0  0
  -30.3989  -22.9592   19.7022 N   0  0  0  0  0  0  0  0  0  0  0  0
  -29.6389  -23.0861   17.4683 N   0  0  0  0  0  0  0  0  0  0  0  0
  -29.7555  -15.7700   21.2396 N   0  0  0  0  0  0  0  0  0  0  0  0
  -23.7233  -26.0603   22.3630 N   0  0  0  0  0  0  0  0  0  0  0  0
  -30.0636  -19.3955   22.3991 N   0  0  0  0  0  0  0  0  0  0  0  0
  -31.7084  -14.8318   20.2824 N   0  0  0  0  0  0  0  0  0  0  0  0
  -28.4938  -11.8366   19.2377 N   0  0  0  0  0  0  0  0  0  0  0  0
  -30.7212  -24.9515   18.5021 N   0  0  0  0  0  0  0  0  0  0  0  0
  -29.7993  -20.6748   20.4355 N   0  0  0  0  0  0  0  0  0  0  0  0
  -21.3663  -28.7140   22.7272 N   0  0  0  0  0  0  0  0  0  0  0  0
  -24.3617  -22.9247   23.4669 N   0  0  0  0  0  0  0  0  0  0  0  0
  -25.7427  -20.6556   21.0150 N   0  3  0  0  0  0  0  0  0  0  0  0
  -30.7305  -12.3078   19.0536 O   0  0  0  0  0  0  0  0  0  0  0  0
  -23.6347  -28.5607   23.2304 O   0  0  0  0  0  0  0  0  0  0  0  0
  -22.1261  -24.7153   23.4005 O   0  0  0  0  0  0  0  0  0  0  0  0
  -26.4375  -22.9831   22.4350 O   0  0  0  0  0  0  0  0  0  0  0  0
  -30.8197  -21.5783   22.3127 O   0  0  0  0  0  0  0  0  0  0  0  0
  -32.7246  -26.9787   18.2394 O   0  0  0  0  0  0  0  0  0  0  0  0
  -23.0999  -12.1898   20.5856 O   0  0  0  0  0  0  0  0  0  0  0  0
  -28.4112  -28.7375   19.3782 O   0  0  0  0  0  0  0  0  0  1  0  0
  -22.5933   -6.7986   21.6259 F   0  0  0  0  0  0  0  0  0  0  0  0
  -21.5454  -11.2908   22.6875 F   0  0  0  0  0  0  0  0  0  0  0  0
  -29.2308  -21.5390   17.9590 S   0  0  0  0  0  0  0  0  0  0  0  0
  1  2  1  0  0  0  0
  1  5  2  0  0  0  0
  2  6  2  0  0  0  0
  3  8  2  0  0  0  0
  3 15  1  0  0  0  0
  4  9  1  0  0  0  0
  4 15  2  0  0  0  0
  5 17  1  0  0  0  0
  6 19  1  0  0  0  0
  7 10  2  0  0  0  0
  7 18  1  0  0  0  0
  8 21  1  0  0  0  0
  9 21  2  0  0  0  0
 10 22  1  0  0  0  0
 11 12  2  0  0  0  0
 11 23  1  0  0  0  0
 12 24  1  0  0  0  0
 13 20  1  0  0  0  0
 13 22  2  0  0  0  0
 14 24  2  0  0  0  0
 14 25  1  0  0  0  0
 15 26  1  0  0  0  0
 16 26  1  0  0  0  0
 16 27  2  0  0  0  0
 16 30  1  0  0  0  0
 17 19  2  0  0  0  0
 17 35  1  0  0  0  0
 18 20  2  0  0  0  0
 18 36  1  0  0  0  0
 19 44  1  0  0  0  0
 20 37  1  0  0  0  0
 21 78  1  0  0  0  0
 22 79  1  0  0  0  0
 23 25  2  0  0  0  0
 23 78  1  0  0  0  0
 24 80  1  0  0  0  0
 25 81  1  0  0  0  0
 26 59  2  0  0  0  0
 27 62  1  0  0  0  0
 27 65  1  0  0  0  0
 28 60  1  0  0  0  0
 28 61  2  0  0  0  0
 28 67  1  0  0  0  0
 29 60  2  0  0  0  0
 29 68  1  0  0  0  0
 29 82  1  0  0  0  0
 30 66  1  0  0  0  0
 30 72  2  0  0  0  0
 31 45  1  0  0  0  0
 31 69  1  0  0  0  0
 31 73  2  0  0  0  0
 32 55  1  0  0  0  0
 32 63  1  0  0  0  0
 32 74  2  0  0  0  0
 33 56  1  0  0  0  0
 33 70  1  0  0  0  0
 33 75  2  0  0  0  0
 34 64  1  0  0  0  0
 34 68  1  0  0  0  0
 34 76  2  0  0  0  0
 35 38  1  0  0  0  0
 36 45  1  0  0  0  0
 37 63  1  0  0  0  0
 38 40  1  0  0  0  0
 39 41  1  0  0  0  0
 39 42  1  0  0  0  0
 40 44  1  0  0  0  0
 41 46  1  0  0  0  0
 42 64  1  0  0  0  0
 43 46  1  0  0  0  0
 43 64  1  0  0  0  0
 44 69  1  0  0  0  0
 45 63  1  0  0  0  0
 46 62  1  0  0  0  0
 47 56  1  0  0  0  0
 48 58  1  0  0  0  0
 49 58  1  0  0  0  0
 50 58  1  0  0  0  0
 51 71  1  0  0  0  0
 52 54  1  0  0  0  0
 52 57  1  0  0  0  0
 53 57  1  0  0  0  0
 53 67  1  0  0  0  0
 54 79  1  0  0  0  0
 55 58  1  0  0  0  0
 55 70  1  0  0  0  0
 56 71  1  0  0  0  0
 57 77  1  0  0  0  0
 59 62  1  0  0  0  0
 61 82  1  0  0  0  0
M  CHG  1  71   1
M  ISO  4  34 100  54 101  68 100  79 101
M  END
> <Batch ID>
0198

> <Smiles>
CNC(C)C(=O)NC(C(=O)N1Cc2cc([101O:1][101CH2:1]CC(O)CNc3nsc([100NH:0][100C:0](=O)N4CCCC(n5nc(-c6ccc(Oc7ccc(F)cc7F)cc6)c(C(N)=O)c5N)C4)n3)ccc2CC1C(=O)NC1CCCc2ccccc21)C(C)(C)C

> <Shape>
0.270

> <Color>
0.089

> <Negative vol penalty>
0.000

$$$$

  -OEChem-04052305443D

 81 89  0     1  0  0  0  0  0999 V2000
  -17.7091  -30.6112   20.2722 C   0  0  0  0  0  0  0  0  0  0  0  0
  -19.0818  -30.6117   20.0461 C   0  0  0  0  0  0  0  0  0  0  0  0
  -26.4977  -12.8544   18.8577 C   0  0  0  0  0  0  0  0  0  0  0  0
  -26.3028  -12.8685   21.2658 C   0  0  0  0  0  0  0  0  0  0  0  0
  -17.1589  -29.7411   21.2125 C   0  0  0  0  0  0  0  0  0  0  0  0
  -19.9053  -29.7428   20.7611 C   0  0  0  0  0  0  0  0  0  0  0  0
  -24.9767  -26.9726   18.7331 C   0  0  0  0  0  0  0  0  0  0  0  0
  -25.2749  -12.1902   18.7626 C   0  0  0  0  0  0  0  0  0  0  0  0
  -25.0799  -12.2043   21.1707 C   0  0  0  0  0  0  0  0  0  0  0  0
  -26.3307  -27.2721   18.8773 C   0  0  0  0  0  0  0  0  0  0  0  0
  -23.9950   -9.0443   20.6528 C   0  0  0  0  0  0  0  0  0  0  0  0
  -23.7712   -7.9717   21.5159 C   0  0  0  0  0  0  0  0  0  0  0  0
  -26.4629  -25.7481   20.7426 C   0  0  0  0  0  0  0  0  0  0  0  0
  -21.8567   -9.1172   22.4431 C   0  0  0  0  0  0  0  0  0  0  0  0
  -28.9876  -21.1447   17.3784 C   0  0  0  0  0  0  0  0  0  0  0  0
  -27.0117  -13.1936   20.1094 C   0  0  0  0  0  0  0  0  0  0  0  0
  -29.5266  -13.4258   19.7500 C   0  0  0  0  0  0  0  0  0  0  0  0
  -17.9750  -28.8543   21.9325 C   0  0  0  0  0  0  0  0  0  0  0  0
  -24.3520  -26.0653   19.6008 C   0  0  0  0  0  0  0  0  0  0  0  0
  -19.3657  -28.8609   21.7129 C   0  0  0  0  0  0  0  0  0  0  0  0
  -25.1015  -25.4369   20.6056 C   0  0  0  0  0  0  0  0  0  0  0  0
  -24.5660  -11.8651   19.9191 C   0  0  0  0  0  0  0  0  0  0  0  0
  -27.0733  -26.6620   19.8840 C   0  0  0  0  0  0  0  0  0  0  0  0
  -23.1496  -10.1534   20.6848 C   0  0  0  0  0  0  0  0  0  0  0  0
  -22.7021   -8.0082   22.4111 C   0  0  0  0  0  0  0  0  0  0  0  0
  -22.0805  -10.1899   21.5799 C   0  0  0  0  0  0  0  0  0  0  0  0
  -28.2751  -13.8792   20.2083 C   0  0  0  0  0  0  0  0  0  0  0  0
  -29.3810  -21.2882   18.6924 C   0  0  0  0  0  0  0  0  0  0  0  0
  -30.3991  -14.4338   20.0806 C   0  0  0  0  0  0  0  0  0  0  0  0
  -29.7917  -23.3285   18.0007 C   0  0  0  0  0  0  0  0  0  0  0  0
  -29.8697  -12.2030   19.0847 C   0  0  0  0  0  0  0  0  0  0  0  0
  -21.9769  -26.2466   21.7055 C   0  0  0  0  0  0  0  0  0  0  0  0
  -22.4132  -23.0374   21.8879 C   0  0  0  0  0  0  0  0  0  0  0  0
  -24.5007  -20.3693   21.4754 C   0  0  0  0  0  0  0  0  0  0  0  0
  -29.7062  -20.2993   20.9865 C   0  0  0  0  0  0  0  0  0  0  0  0
  -17.3403  -27.9654   22.9725 C   0  0  0  0  0  0  0  0  0  0  0  0
  -22.8969  -25.7328   19.4152 C   0  0  0  0  0  0  0  0  0  0  0  0
  -24.4828  -24.4403   21.5504 C   0  0  0  0  0  0  0  0  0  0  0  0
  -18.2373  -26.8137   23.4189 C   0  0  0  0  0  0  0  0  0  0  0  0
  -31.0373  -17.9317   23.2887 C   0  0  0  0  0  0  0  0  0  0  0  0
  -19.6479  -27.3170   23.7085 C   0  0  0  0  0  0  0  0  0  0  0  0
  -30.5991  -16.5823   22.7150 C   0  0  0  0  0  0  0  0  0  0  0  0
  -29.9687  -19.0056   23.0918 C   0  0  0  0  0  0  0  0  0  0  0  0
  -29.0570  -17.8150   21.1372 C   0  0  0  0  0  0  0  0  0  0  0  0
  -20.2890  -27.9158   22.4508 C   0  0  1  0  0  0  0  0  0  0  0  0
  -22.2438  -25.1821   20.6792 C   0  0  1  0  0  0  0  0  0  0  0  0
  -30.1273  -16.7175   21.2539 C   0  0  2  0  0  0  0  0  0  0  0  0
  -24.5862  -17.8755   21.7416 C   0  0  0  0  0  0  0  0  0  0  0  0
  -32.1488  -24.9370   19.3811 C   0  0  0  0  0  0  0  0  0  0  0  0
  -22.6806  -23.3715   24.9090 C   0  0  0  0  0  0  0  0  0  0  0  0
  -23.6869  -21.0810   25.0031 C   0  0  0  0  0  0  0  0  0  0  0  0
  -21.3465  -21.3808   24.1936 C   0  0  0  0  0  0  0  0  0  0  0  0
  -25.0141  -19.9625   18.5893 C   0  0  0  0  0  0  0  0  0  0  0  0
  -30.5606  -26.8541   18.9964 C   0  0  0  0  0  0  0  0  0  0  0  0
  -29.1129  -27.3110   18.8472 C   0  0  0  0  0  0  0  0  0  1  0  0
  -23.2693  -22.1210   22.7283 C   0  0  1  0  0  0  0  0  0  0  0  0
  -24.2988  -19.0286   20.7927 C   0  0  2  0  0  0  0  0  0  0  0  0
  -30.6916  -25.3382   19.1741 C   0  0  1  0  0  0  0  0  0  0  0  0
  -22.7573  -22.0088   24.1921 C   0  0  0  0  0  0  0  0  0  0  0  0
  -28.3423  -15.0815   20.7863 N   0  0  0  0  0  0  0  0  0  0  0  0
  -29.8427  -22.5396   19.0510 N   0  0  0  0  0  0  0  0  0  0  0  0
  -29.6465  -15.3921   20.6934 N   0  0  0  0  0  0  0  0  0  0  0  0
  -23.0554  -24.1531   21.3324 N   0  0  0  0  0  0  0  0  0  0  0  0
  -29.5739  -19.0796   21.6835 N   0  0  0  0  0  0  0  0  0  0  0  0
  -31.7289  -14.5849   19.9042 N   0  0  0  0  0  0  0  0  0  0  0  0
  -30.2349  -11.0976   19.8651 N   0  0  0  0  0  0  0  0  0  0  0  0
  -29.3301  -20.2404   19.6449 N   0  0  0  0  0  0  0  0  0  0  0  0
  -30.1804  -24.6561   18.0035 N   0  0  0  0  0  0  0  0  0  0  0  0
  -20.7487  -26.8649   21.5685 N   0  0  0  0  0  0  0  0  0  0  0  0
  -23.3265  -20.8490   22.0161 N   0  0  0  0  0  0  0  0  0  0  0  0
  -25.2043  -18.9052   19.6154 N   0  3  0  0  0  0  0  0  0  0  0  0
  -29.8688  -12.0986   17.8346 O   0  0  0  0  0  0  0  0  0  0  0  0
  -22.8220  -26.4880   22.5594 O   0  0  0  0  0  0  0  0  0  0  0  0
  -21.2203  -22.7693   21.7244 O   0  0  0  0  0  0  0  0  0  0  0  0
  -25.5917  -20.9328   21.5274 O   0  0  0  0  0  0  0  0  0  0  0  0
  -30.1480  -21.3138   21.5319 O   0  0  0  0  0  0  0  0  0  0  0  0
  -23.3726  -11.2171   19.8266 O   0  0  0  0  0  0  0  0  0  0  0  0
  -28.3949  -26.9530   20.0274 O   0  0  0  0  0  0  0  0  0  1  0  0
  -22.4864   -6.9774   23.2389 F   0  0  0  0  0  0  0  0  0  0  0  0
  -21.2643  -11.2521   21.6145 F   0  0  0  0  0  0  0  0  0  0  0  0
  -29.1983  -22.6312   16.5493 S   0  0  0  0  0  0  0  0  0  0  0  0
  1  2  1  0  0  0  0
  1  5  2  0  0  0  0
  2  6  2  0  0  0  0
  3  8  2  0  0  0  0
  3 16  1  0  0  0  0
  4  9  1  0  0  0  0
  4 16  2  0  0  0  0
  5 18  1  0  0  0  0
  6 20  1  0  0  0  0
  7 10  2  0  0  0  0
  7 19  1  0  0  0  0
  8 22  1  0  0  0  0
  9 22  2  0  0  0  0
 10 23  1  0  0  0  0
 11 12  2  0  0  0  0
 11 24  1  0  0  0  0
 12 25  1  0  0  0  0
 13 21  1  0  0  0  0
 13 23  2  0  0  0  0
 14 25  2  0  0  0  0
 14 26  1  0  0  0  0
 15 28  2  0  0  0  0
 15 81  1  0  0  0  0
 16 27  1  0  0  0  0
 17 27  1  0  0  0  0
 17 29  2  0  0  0  0
 17 31  1  0  0  0  0
 18 20  2  0  0  0  0
 18 36  1  0  0  0  0
 19 21  2  0  0  0  0
 19 37  1  0  0  0  0
 20 45  1  0  0  0  0
 21 38  1  0  0  0  0
 22 77  1  0  0  0  0
 23 78  1  0  0  0  0
 24 26  2  0  0  0  0
 24 77  1  0  0  0  0
 25 79  1  0  0  0  0
 26 80  1  0  0  0  0
 27 60  2  0  0  0  0
 28 61  1  0  0  0  0
 28 67  1  0  0  0  0
 29 62  1  0  0  0  0
 29 65  1  0  0  0  0
 30 61  2  0  0  0  0
 30 68  1  0  0  0  0
 30 81  1  0  0  0  0
 31 66  1  0  0  0  0
 31 72  2  0  0  0  0
 32 46  1  0  0  0  0
 32 69  1  0  0  0  0
 32 73  2  0  0  0  0
 33 56  1  0  0  0  0
 33 63  1  0  0  0  0
 33 74  2  0  0  0  0
 34 57  1  0  0  0  0
 34 70  1  0  0  0  0
 34 75  2  0  0  0  0
 35 64  1  0  0  0  0
 35 67  1  0  0  0  0
 35 76  2  0  0  0  0
 36 39  1  0  0  0  0
 37 46  1  0  0  0  0
 38 63  1  0  0  0  0
 39 41  1  0  0  0  0
 40 42  1  0  0  0  0
 40 43  1  0  0  0  0
 41 45  1  0  0  0  0
 42 47  1  0  0  0  0
 43 64  1  0  0  0  0
 44 47  1  0  0  0  0
 44 64  1  0  0  0  0
 45 69  1  0  0  0  0
 46 63  1  0  0  0  0
 47 62  1  0  0  0  0
 48 57  1  0  0  0  0
 49 58  1  0  0  0  0
 50 59  1  0  0  0  0
 51 59  1  0  0  0  0
 52 59  1  0  0  0  0
 53 71  1  0  0  0  0
 54 55  1  0  0  0  0
 54 58  1  0  0  0  0
 55 78  1  0  0  0  0
 56 59  1  0  0  0  0
 56 70  1  0  0  0  0
 57 71  1  0  0  0  0
 58 68  1  0  0  0  0
 60 62  1  0  0  0  0
M  CHG  1  71   1
M  ISO  4  35 100  55 101  67 100  78 101
M  END
> <Batch ID>
0198

> <Smiles>
CNC(C)C(=O)NC(C(=O)N1Cc2cc([101O:1][101CH2:1]CC(C)Nc3nc([100NH:0][100C:0](=O)N4CCCC(n5nc(-c6ccc(Oc7ccc(F)cc7F)cc6)c(C(N)=O)c5N)C4)cs3)ccc2CC1C(=O)NC1CCCc2ccccc21)C(C)(C)C

> <Shape>
0.271

> <Color>
0.085

> <Negative vol penalty>
0.000

$$$$

  -OEChem-04052305443D

 83 91  0     1  0  0  0  0  0999 V2000
  -31.7815   -6.2127   20.9118 C   0  0  0  0  0  0  0  0  0  0  0  0
  -30.4749   -6.6829   20.9968 C   0  0  0  0  0  0  0  0  0  0  0  0
  -25.2431  -30.7115   20.0430 C   0  0  0  0  0  0  0  0  0  0  0  0
  -24.1195  -29.2658   21.6193 C   0  0  0  0  0  0  0  0  0  0  0  0
  -32.8415   -7.0274   21.3073 C   0  0  0  0  0  0  0  0  0  0  0  0
  -30.2276   -7.9679   21.4785 C   0  0  0  0  0  0  0  0  0  0  0  0
  -25.8087  -11.7960   19.6550 C   0  0  0  0  0  0  0  0  0  0  0  0
  -24.4051  -31.7641   20.4110 C   0  0  0  0  0  0  0  0  0  0  0  0
  -23.2815  -30.3184   21.9874 C   0  0  0  0  0  0  0  0  0  0  0  0
  -24.5556  -12.1020   20.1840 C   0  0  0  0  0  0  0  0  0  0  0  0
  -22.7989  -34.9297   21.1944 C   0  0  0  0  0  0  0  0  0  0  0  0
  -23.3829  -36.1771   21.4147 C   0  0  0  0  0  0  0  0  0  0  0  0
  -25.5024  -14.0178   21.3030 C   0  0  0  0  0  0  0  0  0  0  0  0
  -24.7432  -35.2298   23.1724 C   0  0  0  0  0  0  0  0  0  0  0  0
  -23.4322  -20.0259   18.1749 C   0  0  0  0  0  0  0  0  0  0  0  0
  -25.1002  -29.4623   20.6471 C   0  0  0  0  0  0  0  0  0  0  0  0
  -27.2055  -28.0346   20.8395 C   0  0  0  0  0  0  0  0  0  0  0  0
  -32.6077   -8.3266   21.7851 C   0  0  0  0  0  0  0  0  0  0  0  0
  -26.9222  -12.5937   19.9554 C   0  0  0  0  0  0  0  0  0  0  0  0
  -31.2854   -8.8003   21.8821 C   0  0  0  0  0  0  0  0  0  0  0  0
  -26.7681  -13.7213   20.7746 C   0  0  0  0  0  0  0  0  0  0  0  0
  -23.4243  -31.5675   21.3832 C   0  0  0  0  0  0  0  0  0  0  0  0
  -24.4028  -13.2114   21.0104 C   0  0  0  0  0  0  0  0  0  0  0  0
  -23.1869  -33.8324   21.9632 C   0  0  0  0  0  0  0  0  0  0  0  0
  -24.3551  -36.3271   22.4036 C   0  0  0  0  0  0  0  0  0  0  0  0
  -24.1590  -33.9824   22.9521 C   0  0  0  0  0  0  0  0  0  0  0  0
  -25.9652  -28.3745   20.2669 C   0  0  0  0  0  0  0  0  0  0  0  0
  -27.6218  -26.9352   20.1293 C   0  0  0  0  0  0  0  0  0  0  0  0
  -23.6300  -21.2478   18.7831 C   0  0  0  0  0  0  0  0  0  0  0  0
  -22.6012  -19.5504   20.1480 C   0  0  0  0  0  0  0  0  0  0  0  0
  -27.9176  -28.6569   21.9172 C   0  0  0  0  0  0  0  0  0  0  0  0
  -21.9689  -18.7683   21.2415 C   0  0  0  0  0  0  0  0  0  0  0  0
  -29.7015  -12.1063   21.4188 C   0  0  0  0  0  0  0  0  0  0  0  0
  -30.3042  -15.1400   20.4411 C   0  0  0  0  0  0  0  0  0  0  0  0
  -29.0704  -18.1742   19.4830 C   0  0  0  0  0  0  0  0  0  0  0  0
  -24.7107  -22.7223   17.0499 C   0  0  0  0  0  0  0  0  0  0  0  0
  -33.7823   -9.1531   22.2454 C   0  0  0  0  0  0  0  0  0  0  0  0
  -28.2618  -12.2655   19.3553 C   0  0  0  0  0  0  0  0  0  0  0  0
  -27.9278  -14.6214   21.1112 C   0  0  0  0  0  0  0  0  0  0  0  0
  -33.4617  -10.6383   22.3923 C   0  0  0  0  0  0  0  0  0  0  0  0
  -27.2386  -24.9019   15.8103 C   0  0  0  0  0  0  0  0  0  0  0  0
  -32.1471  -10.8290   23.1421 C   0  0  0  0  0  0  0  0  0  0  0  0
  -27.3161  -26.0056   16.8677 C   0  0  0  0  0  0  0  0  0  0  0  0
  -25.8051  -24.4178   15.5998 C   0  0  0  0  0  0  0  0  0  0  0  0
  -25.1799  -25.1113   17.8796 C   0  0  0  0  0  0  0  0  0  0  0  0
  -30.9784  -10.1974   22.3761 C   0  0  1  0  0  0  0  0  0  0  0  0
  -29.4292  -12.8520   20.1431 C   0  0  1  0  0  0  0  0  0  0  0  0
  -26.6125  -25.5858   18.1732 C   0  0  2  0  0  0  0  0  0  0  0  0
  -29.8076  -20.4683   18.7820 C   0  0  0  0  0  0  0  0  0  0  0  0
  -19.4823  -16.7407   21.7994 C   0  0  0  0  0  0  0  0  0  0  0  0
  -30.9752  -15.8082   23.3417 C   0  0  0  0  0  0  0  0  0  0  0  0
  -30.7702  -18.2340   22.7573 C   0  0  0  0  0  0  0  0  0  0  0  0
  -32.5117  -16.8298   21.6536 C   0  0  0  0  0  0  0  0  0  0  0  0
  -27.7655  -17.9122   16.8397 C   0  0  0  0  0  0  0  0  0  0  0  0
  -21.4011  -15.1182   21.6491 C   0  0  0  0  0  0  0  0  0  0  0  0
  -22.9032  -14.8887   21.7809 C   0  0  0  0  0  0  0  0  0  1  0  0
  -30.0834  -16.5149   21.0241 C   0  0  1  0  0  0  0  0  0  0  0  0
  -29.4135  -19.0768   18.3116 C   0  0  2  0  0  0  0  0  0  0  0  0
  -20.9969  -16.5777   21.8839 C   0  0  1  0  0  0  0  0  0  0  0  0
  -31.0635  -16.8289   22.1896 C   0  0  0  0  0  0  0  0  0  0  0  0
  -22.8428  -19.0512   18.9562 N   0  0  0  0  0  0  0  0  0  0  0  0
  -25.6164  -27.5573   19.2696 N   0  0  0  0  0  0  0  0  0  0  0  0
  -26.6439  -26.6931   19.2100 N   0  0  0  0  0  0  0  0  0  0  0  0
  -29.2186  -14.2551   20.5052 N   0  0  0  0  0  0  0  0  0  0  0  0
  -25.2040  -24.0331   16.8787 N   0  0  0  0  0  0  0  0  0  0  0  0
  -28.7255  -26.1617   20.2076 N   0  0  0  0  0  0  0  0  0  0  0  0
  -27.3466  -29.7771   22.5365 N   0  0  0  0  0  0  0  0  0  0  0  0
  -24.1918  -22.4626   18.3179 N   0  0  0  0  0  0  0  0  0  0  0  0
  -21.6391  -17.4569   20.9353 N   0  0  0  0  0  0  0  0  0  0  0  0
  -30.5774  -11.0472   21.2754 N   0  0  0  0  0  0  0  0  0  0  0  0
  -30.1643  -17.4498   19.9071 N   0  0  0  0  0  0  0  0  0  0  0  0
  -28.2446  -19.2038   17.3959 N   0  3  0  0  0  0  0  0  0  0  0  0
  -29.0350  -28.2421   22.3082 O   0  0  0  0  0  0  0  0  0  0  0  0
  -21.7571  -19.3113   22.3226 O   0  0  0  0  0  0  0  0  0  0  0  0
  -29.1584  -12.4662   22.4567 O   0  0  0  0  0  0  0  0  0  0  0  0
  -31.3974  -14.8638   19.9407 O   0  0  0  0  0  0  0  0  0  0  0  0
  -27.9456  -18.1203   19.9753 O   0  0  0  0  0  0  0  0  0  0  0  0
  -24.7709  -21.8833   16.1474 O   0  0  0  0  0  0  0  0  0  0  0  0
  -22.6066  -32.5945   21.7428 O   0  0  0  0  0  0  0  0  0  0  0  0
  -23.1809  -13.5119   21.5285 O   0  0  0  0  0  0  0  0  0  1  0  0
  -24.9170  -37.5247   22.6139 F   0  0  0  0  0  0  0  0  0  0  0  0
  -24.5368  -32.9316   23.6931 F   0  0  0  0  0  0  0  0  0  0  0  0
  -23.0566  -21.1860   20.3983 S   0  0  0  0  0  0  0  0  0  0  0  0
  1  2  1  0  0  0  0
  1  5  2  0  0  0  0
  2  6  2  0  0  0  0
  3  8  2  0  0  0  0
  3 16  1  0  0  0  0
  4  9  1  0  0  0  0
  4 16  2  0  0  0  0
  5 18  1  0  0  0  0
  6 20  1  0  0  0  0
  7 10  2  0  0  0  0
  7 19  1  0  0  0  0
  8 22  1  0  0  0  0
  9 22  2  0  0  0  0
 10 23  1  0  0  0  0
 11 12  2  0  0  0  0
 11 24  1  0  0  0  0
 12 25  1  0  0  0  0
 13 21  1  0  0  0  0
 13 23  2  0  0  0  0
 14 25  2  0  0  0  0
 14 26  1  0  0  0  0
 15 29  2  0  0  0  0
 15 61  1  0  0  0  0
 16 27  1  0  0  0  0
 17 27  1  0  0  0  0
 17 28  2  0  0  0  0
 17 31  1  0  0  0  0
 18 20  2  0  0  0  0
 18 37  1  0  0  0  0
 19 21  2  0  0  0  0
 19 38  1  0  0  0  0
 20 46  1  0  0  0  0
 21 39  1  0  0  0  0
 22 79  1  0  0  0  0
 23 80  1  0  0  0  0
 24 26  2  0  0  0  0
 24 79  1  0  0  0  0
 25 81  1  0  0  0  0
 26 82  1  0  0  0  0
 27 62  2  0  0  0  0
 28 63  1  0  0  0  0
 28 66  1  0  0  0  0
 29 68  1  0  0  0  0
 29 83  1  0  0  0  0
 30 32  1  0  0  0  0
 30 61  2  0  0  0  0
 30 83  1  0  0  0  0
 31 67  1  0  0  0  0
 31 73  2  0  0  0  0
 32 69  1  0  0  0  0
 32 74  2  0  0  0  0
 33 47  1  0  0  0  0
 33 70  1  0  0  0  0
 33 75  2  0  0  0  0
 34 57  1  0  0  0  0
 34 64  1  0  0  0  0
 34 76  2  0  0  0  0
 35 58  1  0  0  0  0
 35 71  1  0  0  0  0
 35 77  2  0  0  0  0
 36 65  1  0  0  0  0
 36 68  1  0  0  0  0
 36 78  2  0  0  0  0
 37 40  1  0  0  0  0
 38 47  1  0  0  0  0
 39 64  1  0  0  0  0
 40 42  1  0  0  0  0
 41 43  1  0  0  0  0
 41 44  1  0  0  0  0
 42 46  1  0  0  0  0
 43 48  1  0  0  0  0
 44 65  1  0  0  0  0
 45 48  1  0  0  0  0
 45 65  1  0  0  0  0
 46 70  1  0  0  0  0
 47 64  1  0  0  0  0
 48 63  1  0  0  0  0
 49 58  1  0  0  0  0
 50 59  1  0  0  0  0
 51 60  1  0  0  0  0
 52 60  1  0  0  0  0
 53 60  1  0  0  0  0
 54 72  1  0  0  0  0
 55 56  1  0  0  0  0
 55 59  1  0  0  0  0
 56 80  1  0  0  0  0
 57 60  1  0  0  0  0
 57 71  1  0  0  0  0
 58 72  1  0  0  0  0
 59 69  1  0  0  0  0
 62 63  1  0  0  0  0
M  CHG  1  72   1
M  ISO  4  36 100  56 101  68 100  80 101
M  END
> <Batch ID>
0198

> <Smiles>
CNC(C)C(=O)NC(C(=O)N1Cc2cc([101O:1][101CH2:1]CC(C)NC(=O)c3ncc([100NH:0][100C:0](=O)N4CCCC(n5nc(-c6ccc(Oc7ccc(F)cc7F)cc6)c(C(N)=O)c5N)C4)s3)ccc2CC1C(=O)NC1CCCc2ccccc21)C(C)(C)C

> <Shape>
0.231

> <Color>
0.067

> <Negative vol penalty>
0.000

$$$$

  -OEChem-04052305443D

 83 91  0     1  0  0  0  0  0999 V2000
  -28.5637  -38.0274   21.5959 C   0  0  0  0  0  0  0  0  0  0  0  0
  -28.8191  -36.9142   20.8016 C   0  0  0  0  0  0  0  0  0  0  0  0
  -24.5968   -8.3200   21.3716 C   0  0  0  0  0  0  0  0  0  0  0  0
  -23.5349  -10.2930   22.2752 C   0  0  0  0  0  0  0  0  0  0  0  0
  -28.0128  -37.8642   22.8663 C   0  0  0  0  0  0  0  0  0  0  0  0
  -28.5247  -35.6370   21.2776 C   0  0  0  0  0  0  0  0  0  0  0  0
  -26.3571  -29.1965   19.0109 C   0  0  0  0  0  0  0  0  0  0  0  0
  -24.0278   -7.5494   22.3855 C   0  0  0  0  0  0  0  0  0  0  0  0
  -22.9659   -9.5224   23.2891 C   0  0  0  0  0  0  0  0  0  0  0  0
  -26.7191  -27.8520   19.0812 C   0  0  0  0  0  0  0  0  0  0  0  0
  -21.0205   -6.1648   23.0724 C   0  0  0  0  0  0  0  0  0  0  0  0
  -20.4392   -4.9487   22.7136 C   0  0  0  0  0  0  0  0  0  0  0  0
  -25.6960  -27.6966   21.2603 C   0  0  0  0  0  0  0  0  0  0  0  0
  -21.9791   -3.7841   24.1661 C   0  0  0  0  0  0  0  0  0  0  0  0
  -27.2302  -17.8201   21.7853 C   0  0  0  0  0  0  0  0  0  0  0  0
  -24.3504   -9.6918   21.3165 C   0  0  0  0  0  0  0  0  0  0  0  0
  -24.3875  -10.7713   19.0054 C   0  0  0  0  0  0  0  0  0  0  0  0
  -27.7025  -36.5851   23.3543 C   0  0  0  0  0  0  0  0  0  0  0  0
  -25.6702  -29.8050   20.0713 C   0  0  0  0  0  0  0  0  0  0  0  0
  -27.9703  -35.4565   22.5562 C   0  0  0  0  0  0  0  0  0  0  0  0
  -25.3241  -29.0484   21.1999 C   0  0  0  0  0  0  0  0  0  0  0  0
  -23.2123   -8.1505   23.3443 C   0  0  0  0  0  0  0  0  0  0  0  0
  -26.3911  -27.1026   20.2072 C   0  0  0  0  0  0  0  0  0  0  0  0
  -22.0812   -6.1906   23.9779 C   0  0  0  0  0  0  0  0  0  0  0  0
  -20.9184   -3.7584   23.2605 C   0  0  0  0  0  0  0  0  0  0  0  0
  -22.5605   -5.0003   24.5248 C   0  0  0  0  0  0  0  0  0  0  0  0
  -24.9383  -10.4885   20.2697 C   0  0  0  0  0  0  0  0  0  0  0  0
  -28.3785  -17.2362   21.2929 C   0  0  0  0  0  0  0  0  0  0  0  0
  -25.3281  -11.5604   18.3898 C   0  0  0  0  0  0  0  0  0  0  0  0
  -29.1191  -19.2892   21.5090 C   0  0  0  0  0  0  0  0  0  0  0  0
  -23.1374  -10.3576   18.4382 C   0  0  0  0  0  0  0  0  0  0  0  0
  -26.2912  -32.2021   22.0644 C   0  0  0  0  0  0  0  0  0  0  0  0
  -23.2346  -31.6849   23.0194 C   0  0  0  0  0  0  0  0  0  0  0  0
  -20.6033  -29.5260   23.2696 C   0  0  0  0  0  0  0  0  0  0  0  0
  -29.5960  -15.1938   20.4607 C   0  0  0  0  0  0  0  0  0  0  0  0
  -27.1521  -36.4554   24.7525 C   0  0  0  0  0  0  0  0  0  0  0  0
  -25.2634  -31.2495   19.9686 C   0  0  0  0  0  0  0  0  0  0  0  0
  -24.5695  -29.6493   22.3566 C   0  0  0  0  0  0  0  0  0  0  0  0
  -26.5214  -35.0942   25.0349 C   0  0  0  0  0  0  0  0  0  0  0  0
  -30.0434  -12.3936   18.3075 C   0  0  0  0  0  0  0  0  0  0  0  0
  -27.4310  -33.9723   24.5441 C   0  0  0  0  0  0  0  0  0  0  0  0
  -28.7325  -11.6162   18.4466 C   0  0  0  0  0  0  0  0  0  0  0  0
  -30.4736  -13.0216   19.6320 C   0  0  0  0  0  0  0  0  0  0  0  0
  -28.1421  -13.0723   20.4261 C   0  0  0  0  0  0  0  0  0  0  0  0
  -27.6417  -34.0565   23.0276 C   0  0  1  0  0  0  0  0  0  0  0  0
  -25.0176  -31.8990   21.3269 C   0  0  1  0  0  0  0  0  0  0  0  0
  -27.6344  -12.4759   19.1031 C   0  0  2  0  0  0  0  0  0  0  0  0
  -18.2513  -29.3786   24.1319 C   0  0  0  0  0  0  0  0  0  0  0  0
  -31.9065  -22.2663   19.6615 C   0  0  0  0  0  0  0  0  0  0  0  0
  -24.2969  -31.4522   25.8702 C   0  0  0  0  0  0  0  0  0  0  0  0
  -22.1253  -30.3881   26.5183 C   0  0  0  0  0  0  0  0  0  0  0  0
  -22.1569  -32.7284   25.6553 C   0  0  0  0  0  0  0  0  0  0  0  0
  -19.5242  -28.9776   20.5689 C   0  0  0  0  0  0  0  0  0  0  0  0
  -30.0331  -20.4786   21.4788 C   0  0  0  0  0  0  0  0  0  0  0  0
  -28.5800  -24.2172   20.2996 C   0  0  0  0  0  0  0  0  0  0  0  0
  -29.8723  -23.7660   19.6062 C   0  0  0  0  0  0  0  0  0  0  0  0
  -27.9286  -25.3974   19.5870 C   0  0  0  0  0  0  0  0  0  1  0  0
  -22.5722  -30.8128   24.0584 C   0  0  1  0  0  0  0  0  0  0  0  0
  -19.1323  -29.6874   22.9314 C   0  0  2  0  0  0  0  0  0  0  0  0
  -30.5935  -22.6308   20.3419 C   0  0  1  0  0  0  0  0  0  0  0  0
  -22.8038  -31.3343   25.5048 C   0  0  0  0  0  0  0  0  0  0  0  0
  -26.1361  -11.0520   20.4481 N   0  0  0  0  0  0  0  0  0  0  0  0
  -29.4626  -18.0772   21.1334 N   0  0  0  0  0  0  0  0  0  0  0  0
  -26.3457  -11.6968   19.2877 N   0  0  0  0  0  0  0  0  0  0  0  0
  -24.1996  -31.0669   22.2116 N   0  0  0  0  0  0  0  0  0  0  0  0
  -29.3848  -13.8247   20.1928 N   0  0  0  0  0  0  0  0  0  0  0  0
  -25.3758  -12.1440   17.1735 N   0  0  0  0  0  0  0  0  0  0  0  0
  -22.2899   -9.5484   19.2072 N   0  0  0  0  0  0  0  0  0  0  0  0
  -28.4794  -15.8622   20.9615 N   0  0  0  0  0  0  0  0  0  0  0  0
  -26.4832  -33.5450   22.3271 N   0  0  0  0  0  0  0  0  0  0  0  0
  -21.1677  -30.7168   23.6756 N   0  0  0  0  0  0  0  0  0  0  0  0
  -18.7523  -28.7690   21.8209 N   0  3  0  0  0  0  0  0  0  0  0  0
  -29.7349  -21.4138   20.3633 N   0  3  0  0  0  0  0  0  0  0  0  0
  -22.7896  -10.6820   17.2775 O   0  0  0  0  0  0  0  0  0  0  0  0
  -27.0432  -31.2852   22.3735 O   0  0  0  0  0  0  0  0  0  0  0  0
  -22.9027  -32.8691   22.9231 O   0  0  0  0  0  0  0  0  0  0  0  0
  -21.1920  -28.4504   23.1858 O   0  0  0  0  0  0  0  0  0  0  0  0
  -30.6791  -15.7396   20.2351 O   0  0  0  0  0  0  0  0  0  0  0  0
  -22.6568   -7.3989   24.3336 O   0  0  0  0  0  0  0  0  0  0  0  0
  -26.7438  -25.7902   20.2786 O   0  0  0  0  0  0  0  0  0  1  0  0
  -20.3591   -2.5907   22.9171 F   0  0  0  0  0  0  0  0  0  0  0  0
  -23.5784   -5.0189   25.3961 F   0  0  0  0  0  0  0  0  0  0  0  0
  -27.5081  -19.4891   22.0654 S   0  0  0  0  0  0  0  0  0  0  0  0
  1  2  1  0  0  0  0
  1  5  2  0  0  0  0
  2  6  2  0  0  0  0
  3  8  2  0  0  0  0
  3 16  1  0  0  0  0
  4  9  1  0  0  0  0
  4 16  2  0  0  0  0
  5 18  1  0  0  0  0
  6 20  1  0  0  0  0
  7 10  2  0  0  0  0
  7 19  1  0  0  0  0
  8 22  1  0  0  0  0
  9 22  2  0  0  0  0
 10 23  1  0  0  0  0
 11 12  2  0  0  0  0
 11 24  1  0  0  0  0
 12 25  1  0  0  0  0
 13 21  1  0  0  0  0
 13 23  2  0  0  0  0
 14 25  2  0  0  0  0
 14 26  1  0  0  0  0
 15 28  2  0  0  0  0
 15 83  1  0  0  0  0
 16 27  1  0  0  0  0
 17 27  1  0  0  0  0
 17 29  2  0  0  0  0
 17 31  1  0  0  0  0
 18 20  2  0  0  0  0
 18 36  1  0  0  0  0
 19 21  2  0  0  0  0
 19 37  1  0  0  0  0
 20 45  1  0  0  0  0
 21 38  1  0  0  0  0
 22 79  1  0  0  0  0
 23 80  1  0  0  0  0
 24 26  2  0  0  0  0
 24 79  1  0  0  0  0
 25 81  1  0  0  0  0
 26 82  1  0  0  0  0
 27 62  2  0  0  0  0
 28 63  1  0  0  0  0
 28 69  1  0  0  0  0
 29 64  1  0  0  0  0
 29 67  1  0  0  0  0
 30 54  1  0  0  0  0
 30 63  2  0  0  0  0
 30 83  1  0  0  0  0
 31 68  1  0  0  0  0
 31 74  2  0  0  0  0
 32 46  1  0  0  0  0
 32 70  1  0  0  0  0
 32 75  2  0  0  0  0
 33 58  1  0  0  0  0
 33 65  1  0  0  0  0
 33 76  2  0  0  0  0
 34 59  1  0  0  0  0
 34 71  1  0  0  0  0
 34 77  2  0  0  0  0
 35 66  1  0  0  0  0
 35 69  1  0  0  0  0
 35 78  2  0  0  0  0
 36 39  1  0  0  0  0
 37 46  1  0  0  0  0
 38 65  1  0  0  0  0
 39 41  1  0  0  0  0
 40 42  1  0  0  0  0
 40 43  1  0  0  0  0
 41 45  1  0  0  0  0
 42 47  1  0  0  0  0
 43 66  1  0  0  0  0
 44 47  1  0  0  0  0
 44 66  1  0  0  0  0
 45 70  1  0  0  0  0
 46 65  1  0  0  0  0
 47 64  1  0  0  0  0
 48 59  1  0  0  0  0
 49 60  1  0  0  0  0
 50 61  1  0  0  0  0
 51 61  1  0  0  0  0
 52 61  1  0  0  0  0
 53 72  1  0  0  0  0
 54 73  1  0  0  0  0
 55 56  1  0  0  0  0
 55 57  1  0  0  0  0
 56 60  1  0  0  0  0
 57 80  1  0  0  0  0
 58 61  1  0  0  0  0
 58 71  1  0  0  0  0
 59 72  1  0  0  0  0
 60 73  1  0  0  0  0
 62 64  1  0  0  0  0
M  CHG  2  72   1  73   1
M  ISO  4  35 100  57 101  69 100  80 101
M  END
> <Batch ID>
0198

> <Smiles>
CNC(C)C(=O)NC(C(=O)N1Cc2cc([101O:1][101CH2:1]CCC(C)NCc3nc([100NH:0][100C:0](=O)N4CCCC(n5nc(-c6ccc(Oc7ccc(F)cc7F)cc6)c(C(N)=O)c5N)C4)cs3)ccc2CC1C(=O)NC1CCCc2ccccc21)C(C)(C)C

> <Shape>
0.315

> <Color>
0.095

> <Negative vol penalty>
0.000

$$$$

  -OEChem-04052305443D

 83 91  0     1  0  0  0  0  0999 V2000
  -30.7779  -33.5174   28.3706 C   0  0  0  0  0  0  0  0  0  0  0  0
  -31.0464  -32.7411   27.2478 C   0  0  0  0  0  0  0  0  0  0  0  0
  -23.9003   -9.6931   21.7034 C   0  0  0  0  0  0  0  0  0  0  0  0
  -24.5239  -10.9107   23.6948 C   0  0  0  0  0  0  0  0  0  0  0  0
  -29.5499  -33.3999   29.0205 C   0  0  0  0  0  0  0  0  0  0  0  0
  -30.0874  -31.8461   26.7748 C   0  0  0  0  0  0  0  0  0  0  0  0
  -29.0000  -30.3626   20.9333 C   0  0  0  0  0  0  0  0  0  0  0  0
  -23.4308   -8.6431   22.4923 C   0  0  0  0  0  0  0  0  0  0  0  0
  -24.0543   -9.8606   24.4838 C   0  0  0  0  0  0  0  0  0  0  0  0
  -29.3980  -29.2794   20.1510 C   0  0  0  0  0  0  0  0  0  0  0  0
  -20.6775   -7.9431   24.3260 C   0  0  0  0  0  0  0  0  0  0  0  0
  -19.4420   -7.3862   23.9956 C   0  0  0  0  0  0  0  0  0  0  0  0
  -27.3089  -28.1729   20.6310 C   0  0  0  0  0  0  0  0  0  0  0  0
  -20.4991   -5.2396   23.6611 C   0  0  0  0  0  0  0  0  0  0  0  0
  -28.6553  -20.5087   20.0048 C   0  0  0  0  0  0  0  0  0  0  0  0
  -24.4469  -10.8269   22.3046 C   0  0  0  0  0  0  0  0  0  0  0  0
  -24.2031  -13.0271   21.0368 C   0  0  0  0  0  0  0  0  0  0  0  0
  -28.5718  -32.5099   28.5495 C   0  0  0  0  0  0  0  0  0  0  0  0
  -27.7560  -30.3543   21.5803 C   0  0  0  0  0  0  0  0  0  0  0  0
  -28.8458  -31.7156   27.4198 C   0  0  0  0  0  0  0  0  0  0  0  0
  -26.8964  -29.2583   21.4189 C   0  0  0  0  0  0  0  0  0  0  0  0
  -29.7783  -21.0286   19.3940 C   0  0  0  0  0  0  0  0  0  0  0  0
  -23.5078   -8.7268   23.8825 C   0  0  0  0  0  0  0  0  0  0  0  0
  -28.5536  -28.1831   20.0020 C   0  0  0  0  0  0  0  0  0  0  0  0
  -21.8238   -7.1483   24.3238 C   0  0  0  0  0  0  0  0  0  0  0  0
  -19.3528   -6.0345   23.6632 C   0  0  0  0  0  0  0  0  0  0  0  0
  -21.7346   -5.7965   23.9914 C   0  0  0  0  0  0  0  0  0  0  0  0
  -24.9326  -11.9117   21.4901 C   0  0  0  0  0  0  0  0  0  0  0  0
  -30.7258  -20.1054   19.0014 C   0  0  0  0  0  0  0  0  0  0  0  0
  -25.1097  -13.7571   20.3076 C   0  0  0  0  0  0  0  0  0  0  0  0
  -29.4577  -18.3926   19.7922 C   0  0  0  0  0  0  0  0  0  0  0  0
  -22.8289  -13.3726   21.2554 C   0  0  0  0  0  0  0  0  0  0  0  0
  -26.8032  -30.4536   24.6112 C   0  0  0  0  0  0  0  0  0  0  0  0
  -23.8562  -30.6567   23.2709 C   0  0  0  0  0  0  0  0  0  0  0  0
  -21.8498  -30.0478   20.5782 C   0  0  0  0  0  0  0  0  0  0  0  0
  -30.1723  -15.9808   19.6534 C   0  0  0  0  0  0  0  0  0  0  0  0
  -27.2774  -32.3834   29.3132 C   0  0  0  0  0  0  0  0  0  0  0  0
  -27.3302  -31.5421   22.3991 C   0  0  0  0  0  0  0  0  0  0  0  0
  -25.5420  -29.2091   22.0760 C   0  0  0  0  0  0  0  0  0  0  0  0
  -26.1722  -31.6831   28.5268 C   0  0  0  0  0  0  0  0  0  0  0  0
  -29.7626  -12.5739   18.7036 C   0  0  0  0  0  0  0  0  0  0  0  0
  -26.7084  -30.4189   27.8626 C   0  0  0  0  0  0  0  0  0  0  0  0
  -28.4095  -12.1897   19.3066 C   0  0  0  0  0  0  0  0  0  0  0  0
  -30.5398  -13.5235   19.6135 C   0  0  0  0  0  0  0  0  0  0  0  0
  -28.4514  -14.3399   20.6339 C   0  0  0  0  0  0  0  0  0  0  0  0
  -27.8216  -30.7513   26.8617 C   0  0  1  0  0  0  0  0  0  0  0  0
  -26.2572  -31.2039   23.4294 C   0  0  1  0  0  0  0  0  0  0  0  0
  -27.6041  -13.4358   19.7237 C   0  0  2  0  0  0  0  0  0  0  0  0
  -19.4786  -30.2906   19.7934 C   0  0  0  0  0  0  0  0  0  0  0  0
  -23.0425  -28.2790   25.0014 C   0  0  0  0  0  0  0  0  0  0  0  0
  -21.0448  -27.9757   23.5230 C   0  0  0  0  0  0  0  0  0  0  0  0
  -21.3188  -30.0828   24.8299 C   0  0  0  0  0  0  0  0  0  0  0  0
  -22.6487  -31.8125   18.3407 C   0  0  0  0  0  0  0  0  0  0  0  0
  -28.9664  -23.3797   19.5913 C   0  0  0  0  0  0  0  0  0  0  0  0
  -28.4351  -25.8409   19.6066 C   0  0  0  0  0  0  0  0  0  1  0  0
  -22.8101  -29.6604   22.8325 C   0  0  1  0  0  0  0  0  0  0  0  0
  -20.8579  -30.9295   19.8413 C   0  0  2  0  0  0  0  0  0  0  0  0
  -29.4443  -24.7749   19.1940 C   0  0  1  0  0  0  0  0  0  0  0  0
  -22.0803  -28.9992   24.0358 C   0  0  0  0  0  0  0  0  0  0  0  0
  -28.4616  -19.1911   20.2206 N   0  0  0  0  0  0  0  0  0  0  0  0
  -26.2046  -11.9273   21.0828 N   0  0  0  0  0  0  0  0  0  0  0  0
  -30.5976  -18.7750   19.1856 N   0  0  0  0  0  0  0  0  0  0  0  0
  -26.2814  -13.0614   20.3659 N   0  0  0  0  0  0  0  0  0  0  0  0
  -25.1738  -30.3920   22.8715 N   0  0  0  0  0  0  0  0  0  0  0  0
  -29.7157  -14.6824   19.9638 N   0  0  0  0  0  0  0  0  0  0  0  0
  -25.0110  -14.9197   19.6286 N   0  0  0  0  0  0  0  0  0  0  0  0
  -22.0383  -12.5114   22.0285 N   0  0  0  0  0  0  0  0  0  0  0  0
  -29.9400  -22.3886   19.1910 N   0  0  0  0  0  0  0  0  0  0  0  0
  -29.2896  -17.0017   20.0044 N   0  0  0  0  0  0  0  0  0  0  0  0
  -27.2584  -31.2661   25.6320 N   0  0  0  0  0  0  0  0  0  0  0  0
  -21.9265  -30.3728   21.9160 N   0  0  0  0  0  0  0  0  0  0  0  0
  -21.3148  -31.1665   18.4427 N   0  3  0  0  0  0  0  0  0  0  0  0
  -22.3128  -14.4056   20.7655 O   0  0  0  0  0  0  0  0  0  0  0  0
  -26.8095  -29.2283   24.5985 O   0  0  0  0  0  0  0  0  0  0  0  0
  -23.5156  -31.6375   23.9369 O   0  0  0  0  0  0  0  0  0  0  0  0
  -22.4897  -29.1571   20.0233 O   0  0  0  0  0  0  0  0  0  0  0  0
  -31.2538  -16.1713   19.0912 O   0  0  0  0  0  0  0  0  0  0  0  0
  -30.6737  -25.0567   19.8661 O   0  0  0  0  0  0  0  0  0  0  0  0
  -23.0495   -7.7025   24.6528 O   0  0  0  0  0  0  0  0  0  0  0  0
  -28.9398  -27.1242   19.2394 O   0  0  0  0  0  0  0  0  0  1  0  0
  -18.1661   -5.4995   23.3475 F   0  0  0  0  0  0  0  0  0  0  0  0
  -22.8321   -5.0277   23.9888 F   0  0  0  0  0  0  0  0  0  0  0  0
  -31.8478  -20.5346   18.4011 F   0  0  0  0  0  0  0  0  0  0  0  0
  1  2  1  0  0  0  0
  1  5  2  0  0  0  0
  2  6  2  0  0  0  0
  3  8  2  0  0  0  0
  3 16  1  0  0  0  0
  4  9  1  0  0  0  0
  4 16  2  0  0  0  0
  5 18  1  0  0  0  0
  6 20  1  0  0  0  0
  7 10  2  0  0  0  0
  7 19  1  0  0  0  0
  8 23  1  0  0  0  0
  9 23  2  0  0  0  0
 10 24  1  0  0  0  0
 11 12  2  0  0  0  0
 11 25  1  0  0  0  0
 12 26  1  0  0  0  0
 13 21  1  0  0  0  0
 13 24  2  0  0  0  0
 14 26  2  0  0  0  0
 14 27  1  0  0  0  0
 15 22  1  0  0  0  0
 15 60  2  0  0  0  0
 16 28  1  0  0  0  0
 17 28  1  0  0  0  0
 17 30  2  0  0  0  0
 17 32  1  0  0  0  0
 18 20  2  0  0  0  0
 18 37  1  0  0  0  0
 19 21  2  0  0  0  0
 19 38  1  0  0  0  0
 20 46  1  0  0  0  0
 21 39  1  0  0  0  0
 22 29  2  0  0  0  0
 22 68  1  0  0  0  0
 23 79  1  0  0  0  0
 24 80  1  0  0  0  0
 25 27  2  0  0  0  0
 25 79  1  0  0  0  0
 26 81  1  0  0  0  0
 27 82  1  0  0  0  0
 28 61  2  0  0  0  0
 29 62  1  0  0  0  0
 29 83  1  0  0  0  0
 30 63  1  0  0  0  0
 30 66  1  0  0  0  0
 31 60  1  0  0  0  0
 31 62  2  0  0  0  0
 31 69  1  0  0  0  0
 32 67  1  0  0  0  0
 32 73  2  0  0  0  0
 33 47  1  0  0  0  0
 33 70  1  0  0  0  0
 33 74  2  0  0  0  0
 34 56  1  0  0  0  0
 34 64  1  0  0  0  0
 34 75  2  0  0  0  0
 35 57  1  0  0  0  0
 35 71  1  0  0  0  0
 35 76  2  0  0  0  0
 36 65  1  0  0  0  0
 36 69  1  0  0  0  0
 36 77  2  0  0  0  0
 37 40  1  0  0  0  0
 38 47  1  0  0  0  0
 39 64  1  0  0  0  0
 40 42  1  0  0  0  0
 41 43  1  0  0  0  0
 41 44  1  0  0  0  0
 42 46  1  0  0  0  0
 43 48  1  0  0  0  0
 44 65  1  0  0  0  0
 45 48  1  0  0  0  0
 45 65  1  0  0  0  0
 46 70  1  0  0  0  0
 47 64  1  0  0  0  0
 48 63  1  0  0  0  0
 49 57  1  0  0  0  0
 50 59  1  0  0  0  0
 51 59  1  0  0  0  0
 52 59  1  0  0  0  0
 53 72  1  0  0  0  0
 54 58  1  0  0  0  0
 54 68  1  0  0  0  0
 55 58  1  0  0  0  0
 55 80  1  0  0  0  0
 56 59  1  0  0  0  0
 56 71  1  0  0  0  0
 57 72  1  0  0  0  0
 58 78  1  0  0  0  0
 61 63  1  0  0  0  0
M  CHG  1  72   1
M  ISO  4  36 100  55 101  69 100  80 101
M  END
> <Batch ID>
0198

> <Smiles>
CNC(C)C(=O)NC(C(=O)N1Cc2cc([101O:1][101CH2:1]C(O)CNc3cnc([100NH:0][100C:0](=O)N4CCCC(n5nc(-c6ccc(Oc7ccc(F)cc7F)cc6)c(C(N)=O)c5N)C4)nc3F)ccc2CC1C(=O)NC1CCCc2ccccc21)C(C)(C)C

> <Shape>
0.325

> <Color>
0.145

> <Negative vol penalty>
0.000

$$$$

  -OEChem-04052305443D

 81 89  0     1  0  0  0  0  0999 V2000
  -28.6741  -18.9995   15.8995 C   0  0  0  0  0  0  0  0  0  0  0  0
  -28.4733  -19.2619   17.2509 C   0  0  0  0  0  0  0  0  0  0  0  0
  -23.3335   -9.9563   19.8459 C   0  0  0  0  0  0  0  0  0  0  0  0
  -24.3939   -9.7191   22.0037 C   0  0  0  0  0  0  0  0  0  0  0  0
  -28.9782  -20.0426   15.0258 C   0  0  0  0  0  0  0  0  0  0  0  0
  -28.5777  -20.5675   17.7295 C   0  0  0  0  0  0  0  0  0  0  0  0
  -24.8188  -21.7813   20.8984 C   0  0  0  0  0  0  0  0  0  0  0  0
  -22.8585   -8.6479   19.9354 C   0  0  0  0  0  0  0  0  0  0  0  0
  -23.9188   -8.4107   22.0933 C   0  0  0  0  0  0  0  0  0  0  0  0
  -24.9079  -21.3029   22.2050 C   0  0  0  0  0  0  0  0  0  0  0  0
  -22.6825   -5.1290   23.0527 C   0  0  0  0  0  0  0  0  0  0  0  0
  -22.1197   -4.7241   24.2630 C   0  0  0  0  0  0  0  0  0  0  0  0
  -25.7191  -23.4555   22.9314 C   0  0  0  0  0  0  0  0  0  0  0  0
  -20.4480   -6.4571   24.0656 C   0  0  0  0  0  0  0  0  0  0  0  0
  -24.1013  -10.4919   20.8800 C   0  0  0  0  0  0  0  0  0  0  0  0
  -23.9498  -13.0139   21.2327 C   0  0  0  0  0  0  0  0  0  0  0  0
  -29.0769  -21.3629   15.4922 C   0  0  0  0  0  0  0  0  0  0  0  0
  -25.1901  -23.0993   20.5962 C   0  0  0  0  0  0  0  0  0  0  0  0
  -28.8848  -21.6290   16.8614 C   0  0  0  0  0  0  0  0  0  0  0  0
  -25.6313  -23.9489   21.6207 C   0  0  0  0  0  0  0  0  0  0  0  0
  -23.1511   -7.8751   21.0591 C   0  0  0  0  0  0  0  0  0  0  0  0
  -25.3609  -22.1391   23.2212 C   0  0  0  0  0  0  0  0  0  0  0  0
  -22.1281   -6.1981   22.3488 C   0  0  0  0  0  0  0  0  0  0  0  0
  -21.0025   -5.3881   24.7695 C   0  0  0  0  0  0  0  0  0  0  0  0
  -21.0108   -6.8621   22.8552 C   0  0  0  0  0  0  0  0  0  0  0  0
  -24.5928  -11.8432   20.7878 C   0  0  0  0  0  0  0  0  0  0  0  0
  -24.8223  -14.0263   20.9162 C   0  0  0  0  0  0  0  0  0  0  0  0
  -29.5919  -17.9879   22.4039 C   0  0  0  0  0  0  0  0  0  0  0  0
  -29.2370  -19.5667   23.8589 C   0  0  0  0  0  0  0  0  0  0  0  0
  -22.6776  -13.1720   21.8747 C   0  0  0  0  0  0  0  0  0  0  0  0
  -27.4023  -24.4388   18.7481 C   0  0  0  0  0  0  0  0  0  0  0  0
  -25.8891  -27.1811   19.5922 C   0  0  0  0  0  0  0  0  0  0  0  0
  -23.9142  -28.8278   21.8361 C   0  0  0  0  0  0  0  0  0  0  0  0
  -29.9699  -16.1408   20.7330 C   0  0  0  0  0  0  0  0  0  0  0  0
  -29.4544  -22.4506   14.5180 C   0  0  0  0  0  0  0  0  0  0  0  0
  -25.0627  -23.6082   19.1865 C   0  0  0  0  0  0  0  0  0  0  0  0
  -26.0227  -25.3783   21.3521 C   0  0  0  0  0  0  0  0  0  0  0  0
  -29.1776  -23.8584   15.0396 C   0  0  0  0  0  0  0  0  0  0  0  0
  -28.9996  -14.0013   18.0576 C   0  0  0  0  0  0  0  0  0  0  0  0
  -29.6845  -24.0067   16.4707 C   0  0  0  0  0  0  0  0  0  0  0  0
  -27.7137  -13.3454   18.5660 C   0  0  0  0  0  0  0  0  0  0  0  0
  -30.0163  -14.2014   19.1801 C   0  0  0  0  0  0  0  0  0  0  0  0
  -28.2217  -14.2589   20.8670 C   0  0  0  0  0  0  0  0  0  0  0  0
  -28.9650  -23.0354   17.4143 C   0  0  1  0  0  0  0  0  0  0  0  0
  -25.9553  -24.8125   18.9031 C   0  0  1  0  0  0  0  0  0  0  0  0
  -27.1420  -14.0960   19.7847 C   0  0  2  0  0  0  0  0  0  0  0  0
  -22.8791  -31.0714   22.2746 C   0  0  0  0  0  0  0  0  0  0  0  0
  -27.9335  -18.9041   26.6715 C   0  0  0  0  0  0  0  0  0  0  0  0
  -28.6013  -28.2547   20.4874 C   0  0  0  0  0  0  0  0  0  0  0  0
  -27.3958  -30.0466   21.7540 C   0  0  0  0  0  0  0  0  0  0  0  0
  -27.1731  -29.9102   19.2732 C   0  0  0  0  0  0  0  0  0  0  0  0
  -21.1746  -27.7129   21.7350 C   0  0  0  0  0  0  0  0  0  0  0  0
  -26.9316  -21.1887   26.3220 C   0  0  0  0  0  0  0  0  0  0  0  0
  -26.4604  -22.2448   25.3273 C   0  0  0  0  0  0  0  0  0  1  0  0
  -26.0308  -28.1776   20.7173 C   0  0  1  0  0  0  0  0  0  0  0  0
  -22.6859  -29.6996   21.6472 C   0  0  2  0  0  0  0  0  0  0  0  0
  -27.5349  -19.9561   25.6412 C   0  0  1  0  0  0  0  0  0  0  0  0
  -27.2948  -29.0698   20.5630 C   0  0  0  0  0  0  0  0  0  0  0  0
  -25.7819  -12.0879   20.2309 N   0  0  0  0  0  0  0  0  0  0  0  0
  -28.7718  -18.4118   23.4358 N   0  0  0  0  0  0  0  0  0  0  0  0
  -30.6343  -18.7220   22.0150 N   0  0  0  0  0  0  0  0  0  0  0  0
  -25.8930  -13.4240   20.3237 N   0  0  0  0  0  0  0  0  0  0  0  0
  -25.8867  -25.8272   19.9566 N   0  0  0  0  0  0  0  0  0  0  0  0
  -29.4052  -14.9230   20.2985 N   0  0  0  0  0  0  0  0  0  0  0  0
  -24.7704  -15.3641   21.0896 N   0  0  0  0  0  0  0  0  0  0  0  0
  -21.9090  -12.0272   22.1257 N   0  0  0  0  0  0  0  0  0  0  0  0
  -29.2842  -16.7525   21.7819 N   0  0  0  0  0  0  0  0  0  0  0  0
  -28.7078  -20.3343   24.8808 N   0  0  0  0  0  0  0  0  0  0  0  0
  -27.6433  -23.5293   17.7362 N   0  0  0  0  0  0  0  0  0  0  0  0
  -24.7766  -28.9213   20.7642 N   0  0  0  0  0  0  0  0  0  0  0  0
  -21.4951  -29.0595   22.2743 N   0  3  0  0  0  0  0  0  0  0  0  0
  -22.2282  -14.2968   22.2009 O   0  0  0  0  0  0  0  0  0  0  0  0
  -28.2385  -24.9398   19.4908 O   0  0  0  0  0  0  0  0  0  0  0  0
  -25.7772  -27.5891   18.4335 O   0  0  0  0  0  0  0  0  0  0  0  0
  -24.0928  -28.1361   22.8362 O   0  0  0  0  0  0  0  0  0  0  0  0
  -30.9711  -16.6205   20.1950 O   0  0  0  0  0  0  0  0  0  0  0  0
  -22.6875   -6.5984   21.1470 O   0  0  0  0  0  0  0  0  0  0  0  0
  -25.4495  -21.6745   24.4971 O   0  0  0  0  0  0  0  0  0  1  0  0
  -20.4612   -4.9981   25.9310 F   0  0  0  0  0  0  0  0  0  0  0  0
  -20.4730   -7.8890   22.1829 F   0  0  0  0  0  0  0  0  0  0  0  0
  -30.6304  -20.0771   22.9970 S   0  0  0  0  0  0  0  0  0  0  0  0
  1  2  1  0  0  0  0
  1  5  2  0  0  0  0
  2  6  2  0  0  0  0
  3  8  2  0  0  0  0
  3 15  1  0  0  0  0
  4  9  1  0  0  0  0
  4 15  2  0  0  0  0
  5 17  1  0  0  0  0
  6 19  1  0  0  0  0
  7 10  2  0  0  0  0
  7 18  1  0  0  0  0
  8 21  1  0  0  0  0
  9 21  2  0  0  0  0
 10 22  1  0  0  0  0
 11 12  2  0  0  0  0
 11 23  1  0  0  0  0
 12 24  1  0  0  0  0
 13 20  1  0  0  0  0
 13 22  2  0  0  0  0
 14 24  2  0  0  0  0
 14 25  1  0  0  0  0
 15 26  1  0  0  0  0
 16 26  1  0  0  0  0
 16 27  2  0  0  0  0
 16 30  1  0  0  0  0
 17 19  2  0  0  0  0
 17 35  1  0  0  0  0
 18 20  2  0  0  0  0
 18 36  1  0  0  0  0
 19 44  1  0  0  0  0
 20 37  1  0  0  0  0
 21 77  1  0  0  0  0
 22 78  1  0  0  0  0
 23 25  2  0  0  0  0
 23 77  1  0  0  0  0
 24 79  1  0  0  0  0
 25 80  1  0  0  0  0
 26 59  2  0  0  0  0
 27 62  1  0  0  0  0
 27 65  1  0  0  0  0
 28 60  1  0  0  0  0
 28 61  2  0  0  0  0
 28 67  1  0  0  0  0
 29 60  2  0  0  0  0
 29 68  1  0  0  0  0
 29 81  1  0  0  0  0
 30 66  1  0  0  0  0
 30 72  2  0  0  0  0
 31 45  1  0  0  0  0
 31 69  1  0  0  0  0
 31 73  2  0  0  0  0
 32 55  1  0  0  0  0
 32 63  1  0  0  0  0
 32 74  2  0  0  0  0
 33 56  1  0  0  0  0
 33 70  1  0  0  0  0
 33 75  2  0  0  0  0
 34 64  1  0  0  0  0
 34 67  1  0  0  0  0
 34 76  2  0  0  0  0
 35 38  1  0  0  0  0
 36 45  1  0  0  0  0
 37 63  1  0  0  0  0
 38 40  1  0  0  0  0
 39 41  1  0  0  0  0
 39 42  1  0  0  0  0
 40 44  1  0  0  0  0
 41 46  1  0  0  0  0
 42 64  1  0  0  0  0
 43 46  1  0  0  0  0
 43 64  1  0  0  0  0
 44 69  1  0  0  0  0
 45 63  1  0  0  0  0
 46 62  1  0  0  0  0
 47 56  1  0  0  0  0
 48 57  1  0  0  0  0
 49 58  1  0  0  0  0
 50 58  1  0  0  0  0
 51 58  1  0  0  0  0
 52 71  1  0  0  0  0
 53 54  1  0  0  0  0
 53 57  1  0  0  0  0
 54 78  1  0  0  0  0
 55 58  1  0  0  0  0
 55 70  1  0  0  0  0
 56 71  1  0  0  0  0
 57 68  1  0  0  0  0
 59 62  1  0  0  0  0
 61 81  1  0  0  0  0
M  CHG  1  71   1
M  ISO  4  34 100  54 101  67 100  78 101
M  END
> <Batch ID>
0198

> <Smiles>
CNC(C)C(=O)NC(C(=O)N1Cc2cc([101O:1][101CH2:1]CC(C)Nc3nc([100NH:0][100C:0](=O)N4CCCC(n5nc(-c6ccc(Oc7ccc(F)cc7F)cc6)c(C(N)=O)c5N)C4)ns3)ccc2CC1C(=O)NC1CCCc2ccccc21)C(C)(C)C

> <Shape>
0.261

> <Color>
0.127

> <Negative vol penalty>
0.000

$$$$

  -OEChem-04052305443D

 82 90  0     1  0  0  0  0  0999 V2000
  -17.1499  -30.3593   21.3025 C   0  0  0  0  0  0  0  0  0  0  0  0
  -18.3613  -30.3505   20.6186 C   0  0  0  0  0  0  0  0  0  0  0  0
  -26.5832  -12.7708   21.7689 C   0  0  0  0  0  0  0  0  0  0  0  0
  -25.9808  -14.1249   19.8609 C   0  0  0  0  0  0  0  0  0  0  0  0
  -17.1210  -30.0922   22.6706 C   0  0  0  0  0  0  0  0  0  0  0  0
  -19.5449  -30.0757   21.3028 C   0  0  0  0  0  0  0  0  0  0  0  0
  -24.4310  -27.0768   19.1490 C   0  0  0  0  0  0  0  0  0  0  0  0
  -29.0553  -22.8559   18.0842 C   0  0  0  0  0  0  0  0  0  0  0  0
  -25.3119  -12.1969   21.7631 C   0  0  0  0  0  0  0  0  0  0  0  0
  -24.7094  -13.5511   19.8551 C   0  0  0  0  0  0  0  0  0  0  0  0
  -25.6456  -27.5168   18.6247 C   0  0  0  0  0  0  0  0  0  0  0  0
  -23.6635   -9.8117   20.0234 C   0  0  0  0  0  0  0  0  0  0  0  0
  -23.5764   -8.4276   20.1725 C   0  0  0  0  0  0  0  0  0  0  0  0
  -29.0599  -21.7190   18.8846 C   0  0  0  0  0  0  0  0  0  0  0  0
  -26.6690  -27.2567   20.7936 C   0  0  0  0  0  0  0  0  0  0  0  0
  -22.2573   -8.7264   22.1745 C   0  0  0  0  0  0  0  0  0  0  0  0
  -30.2441  -24.0023   19.7957 C   0  0  0  0  0  0  0  0  0  0  0  0
  -26.9176  -13.7348   20.8179 C   0  0  0  0  0  0  0  0  0  0  0  0
  -29.3728  -13.8721   20.1390 C   0  0  0  0  0  0  0  0  0  0  0  0
  -18.3037  -29.8044   23.3700 C   0  0  0  0  0  0  0  0  0  0  0  0
  -24.3234  -26.7333   20.5043 C   0  0  0  0  0  0  0  0  0  0  0  0
  -19.5320  -29.8058   22.6818 C   0  0  0  0  0  0  0  0  0  0  0  0
  -25.4526  -26.8102   21.3320 C   0  0  0  0  0  0  0  0  0  0  0  0
  -29.6565  -24.0234   18.5410 C   0  0  0  0  0  0  0  0  0  0  0  0
  -24.3750  -12.5870   20.8062 C   0  0  0  0  0  0  0  0  0  0  0  0
  -26.7641  -27.6096   19.4477 C   0  0  0  0  0  0  0  0  0  0  0  0
  -23.0476  -10.6532   20.9499 C   0  0  0  0  0  0  0  0  0  0  0  0
  -22.8732   -7.8849   21.2480 C   0  0  0  0  0  0  0  0  0  0  0  0
  -22.3445  -10.1105   22.0254 C   0  0  0  0  0  0  0  0  0  0  0  0
  -28.2305  -14.3284   20.8238 C   0  0  0  0  0  0  0  0  0  0  0  0
  -29.6744  -21.8009   20.1238 C   0  0  0  0  0  0  0  0  0  0  0  0
  -30.3542  -14.7748   20.4688 C   0  0  0  0  0  0  0  0  0  0  0  0
  -29.5325  -12.7342   19.2816 C   0  0  0  0  0  0  0  0  0  0  0  0
  -22.6383  -27.8254   22.9683 C   0  0  0  0  0  0  0  0  0  0  0  0
  -23.9364  -25.2703   24.4877 C   0  0  0  0  0  0  0  0  0  0  0  0
  -26.4630  -22.9833   24.6684 C   0  0  0  0  0  0  0  0  0  0  0  0
  -30.2266  -20.4913   22.2037 C   0  0  0  0  0  0  0  0  0  0  0  0
  -18.2281  -29.5685   24.8577 C   0  0  0  0  0  0  0  0  0  0  0  0
  -23.0126  -26.2350   21.0483 C   0  0  0  0  0  0  0  0  0  0  0  0
  -25.3947  -26.4339   22.7892 C   0  0  0  0  0  0  0  0  0  0  0  0
  -19.4822  -28.9177   25.4356 C   0  0  0  0  0  0  0  0  0  0  0  0
  -31.6715  -17.7605   23.9736 C   0  0  0  0  0  0  0  0  0  0  0  0
  -20.7346  -29.6116   24.9093 C   0  0  0  0  0  0  0  0  0  0  0  0
  -31.0617  -16.5288   23.3004 C   0  0  0  0  0  0  0  0  0  0  0  0
  -30.6692  -18.9096   24.0685 C   0  0  0  0  0  0  0  0  0  0  0  0
  -29.4199  -18.0502   22.1269 C   0  0  0  0  0  0  0  0  0  0  0  0
  -20.8342  -29.4877   23.3841 C   0  0  1  0  0  0  0  0  0  0  0  0
  -22.8910  -26.4017   22.5598 C   0  0  1  0  0  0  0  0  0  0  0  0
  -30.4114  -16.8886   21.9501 C   0  0  2  0  0  0  0  0  0  0  0  0
  -27.2702  -21.0441   26.0414 C   0  0  0  0  0  0  0  0  0  0  0  0
  -31.7874  -26.3096   18.0103 C   0  0  0  0  0  0  0  0  0  0  0  0
  -24.9056  -27.2019   26.6417 C   0  0  0  0  0  0  0  0  0  0  0  0
  -26.4665  -25.4158   27.4427 C   0  0  0  0  0  0  0  0  0  0  0  0
  -24.0017  -25.0382   27.5110 C   0  0  0  0  0  0  0  0  0  0  0  0
  -26.2727  -21.1277   22.3707 C   0  0  0  0  0  0  0  0  0  0  0  0
  -29.7077  -27.5782   17.3691 C   0  0  0  0  0  0  0  0  0  0  0  0
  -28.2058  -27.7617   17.5623 C   0  0  0  0  0  0  0  0  0  1  0  0
  -25.1962  -25.0259   25.2827 C   0  0  1  0  0  0  0  0  0  0  0  0
  -26.4460  -21.4749   24.8381 C   0  0  2  0  0  0  0  0  0  0  0  0
  -30.2759  -26.4145   18.1874 C   0  0  1  0  0  0  0  0  0  0  0  0
  -25.1434  -25.6795   26.6926 C   0  0  0  0  0  0  0  0  0  0  0  0
  -30.2686  -22.9172   20.6017 N   0  0  0  0  0  0  0  0  0  0  0  0
  -28.4633  -15.4348   21.5349 N   0  0  0  0  0  0  0  0  0  0  0  0
  -29.7631  -15.6813   21.2989 N   0  0  0  0  0  0  0  0  0  0  0  0
  -24.0890  -25.9584   23.2756 N   0  0  0  0  0  0  0  0  0  0  0  0
  -30.0975  -19.1973   22.7512 N   0  0  0  0  0  0  0  0  0  0  0  0
  -31.6563  -14.8735   20.1268 N   0  0  0  0  0  0  0  0  0  0  0  0
  -28.4219  -11.9115   19.0493 N   0  0  0  0  0  0  0  0  0  0  0  0
  -29.6680  -25.1694   17.7663 N   0  0  0  0  0  0  0  0  0  0  0  0
  -29.6725  -20.6374   20.9325 N   0  0  0  0  0  0  0  0  0  0  0  0
  -21.3005  -28.1687   23.0136 N   0  0  0  0  0  0  0  0  0  0  0  0
  -25.3933  -23.5805   25.3012 N   0  0  0  0  0  0  0  0  0  0  0  0
  -27.0023  -20.8109   23.6254 N   0  3  0  0  0  0  0  0  0  0  0  0
  -30.6318  -12.4459   18.7505 O   0  0  0  0  0  0  0  0  0  0  0  0
  -23.5867  -28.5578   23.2248 O   0  0  0  0  0  0  0  0  0  0  0  0
  -22.8576  -24.8594   24.9225 O   0  0  0  0  0  0  0  0  0  0  0  0
  -27.3397  -23.5732   24.0407 O   0  0  0  0  0  0  0  0  0  0  0  0
  -30.8113  -21.3954   22.8060 O   0  0  0  0  0  0  0  0  0  0  0  0
  -23.1344  -12.0271   20.8000 O   0  0  0  0  0  0  0  0  0  0  0  0
  -27.9508  -28.0394   18.9386 O   0  0  0  0  0  0  0  0  0  1  0  0
  -22.7883   -6.5558   21.3903 F   0  0  0  0  0  0  0  0  0  0  0  0
  -21.7498  -10.9138   22.9180 F   0  0  0  0  0  0  0  0  0  0  0  0
  1  2  1  0  0  0  0
  1  5  2  0  0  0  0
  2  6  2  0  0  0  0
  3  9  2  0  0  0  0
  3 18  1  0  0  0  0
  4 10  1  0  0  0  0
  4 18  2  0  0  0  0
  5 20  1  0  0  0  0
  6 22  1  0  0  0  0
  7 11  2  0  0  0  0
  7 21  1  0  0  0  0
  8 14  2  0  0  0  0
  8 24  1  0  0  0  0
  9 25  1  0  0  0  0
 10 25  2  0  0  0  0
 11 26  1  0  0  0  0
 12 13  2  0  0  0  0
 12 27  1  0  0  0  0
 13 28  1  0  0  0  0
 14 31  1  0  0  0  0
 15 23  1  0  0  0  0
 15 26  2  0  0  0  0
 16 28  2  0  0  0  0
 16 29  1  0  0  0  0
 17 24  2  0  0  0  0
 17 62  1  0  0  0  0
 18 30  1  0  0  0  0
 19 30  1  0  0  0  0
 19 32  2  0  0  0  0
 19 33  1  0  0  0  0
 20 22  2  0  0  0  0
 20 38  1  0  0  0  0
 21 23  2  0  0  0  0
 21 39  1  0  0  0  0
 22 47  1  0  0  0  0
 23 40  1  0  0  0  0
 24 69  1  0  0  0  0
 25 79  1  0  0  0  0
 26 80  1  0  0  0  0
 27 29  2  0  0  0  0
 27 79  1  0  0  0  0
 28 81  1  0  0  0  0
 29 82  1  0  0  0  0
 30 63  2  0  0  0  0
 31 62  2  0  0  0  0
 31 70  1  0  0  0  0
 32 64  1  0  0  0  0
 32 67  1  0  0  0  0
 33 68  1  0  0  0  0
 33 74  2  0  0  0  0
 34 48  1  0  0  0  0
 34 71  1  0  0  0  0
 34 75  2  0  0  0  0
 35 58  1  0  0  0  0
 35 65  1  0  0  0  0
 35 76  2  0  0  0  0
 36 59  1  0  0  0  0
 36 72  1  0  0  0  0
 36 77  2  0  0  0  0
 37 66  1  0  0  0  0
 37 70  1  0  0  0  0
 37 78  2  0  0  0  0
 38 41  1  0  0  0  0
 39 48  1  0  0  0  0
 40 65  1  0  0  0  0
 41 43  1  0  0  0  0
 42 44  1  0  0  0  0
 42 45  1  0  0  0  0
 43 47  1  0  0  0  0
 44 49  1  0  0  0  0
 45 66  1  0  0  0  0
 46 49  1  0  0  0  0
 46 66  1  0  0  0  0
 47 71  1  0  0  0  0
 48 65  1  0  0  0  0
 49 64  1  0  0  0  0
 50 59  1  0  0  0  0
 51 60  1  0  0  0  0
 52 61  1  0  0  0  0
 53 61  1  0  0  0  0
 54 61  1  0  0  0  0
 55 73  1  0  0  0  0
 56 57  1  0  0  0  0
 56 60  1  0  0  0  0
 57 80  1  0  0  0  0
 58 61  1  0  0  0  0
 58 72  1  0  0  0  0
 59 73  1  0  0  0  0
 60 69  1  0  0  0  0
 63 64  1  0  0  0  0
M  CHG  1  73   1
M  ISO  4  37 100  57 101  70 100  80 101
M  END
> <Batch ID>
0198

> <Smiles>
CNC(C)C(=O)NC(C(=O)N1Cc2cc([101O:1][101CH2:1]CC(C)Nc3ccc([100NH:0][100C:0](=O)N4CCCC(n5nc(-c6ccc(Oc7ccc(F)cc7F)cc6)c(C(N)=O)c5N)C4)nc3)ccc2CC1C(=O)NC1CCCc2ccccc21)C(C)(C)C

> <Shape>
0.261

> <Color>
0.077

> <Negative vol penalty>
0.000

$$$$

  -OEChem-04052305443D

 82 90  0     1  0  0  0  0  0999 V2000
  -19.5832  -31.5544   15.4589 C   0  0  0  0  0  0  0  0  0  0  0  0
  -20.6107  -30.6285   15.6088 C   0  0  0  0  0  0  0  0  0  0  0  0
  -24.4795   -9.9772   20.2329 C   0  0  0  0  0  0  0  0  0  0  0  0
  -25.2332  -10.4925   22.4697 C   0  0  0  0  0  0  0  0  0  0  0  0
  -19.6607  -32.7900   16.1003 C   0  0  0  0  0  0  0  0  0  0  0  0
  -21.7169  -30.9382   16.3992 C   0  0  0  0  0  0  0  0  0  0  0  0
  -24.9483  -27.0758   19.8843 C   0  0  0  0  0  0  0  0  0  0  0  0
  -24.2858   -8.6468   20.6046 C   0  0  0  0  0  0  0  0  0  0  0  0
  -25.0395   -9.1621   22.8415 C   0  0  0  0  0  0  0  0  0  0  0  0
  -26.1526  -26.4057   19.6733 C   0  0  0  0  0  0  0  0  0  0  0  0
  -21.9724   -6.8412   22.2841 C   0  0  0  0  0  0  0  0  0  0  0  0
  -20.7881   -6.2222   21.8841 C   0  0  0  0  0  0  0  0  0  0  0  0
  -27.3257  -28.1576   20.8454 C   0  0  0  0  0  0  0  0  0  0  0  0
  -22.0628   -4.5726   20.6630 C   0  0  0  0  0  0  0  0  0  0  0  0
  -27.4567  -20.2079   22.0509 C   0  0  0  0  0  0  0  0  0  0  0  0
  -24.9533  -10.9001   21.1654 C   0  0  0  0  0  0  0  0  0  0  0  0
  -24.2179  -13.3231   20.8560 C   0  0  0  0  0  0  0  0  0  0  0  0
  -20.7639  -33.1111   16.9068 C   0  0  0  0  0  0  0  0  0  0  0  0
  -24.9250  -28.2993   20.5691 C   0  0  0  0  0  0  0  0  0  0  0  0
  -21.8099  -32.1797   17.0509 C   0  0  0  0  0  0  0  0  0  0  0  0
  -26.1195  -28.8399   21.0660 C   0  0  0  0  0  0  0  0  0  0  0  0
  -24.5658   -8.2393   21.9089 C   0  0  0  0  0  0  0  0  0  0  0  0
  -27.3419  -26.9480   20.1514 C   0  0  0  0  0  0  0  0  0  0  0  0
  -23.2019   -6.3260   21.8735 C   0  0  0  0  0  0  0  0  0  0  0  0
  -20.8333   -5.0879   21.0736 C   0  0  0  0  0  0  0  0  0  0  0  0
  -23.2471   -5.1917   21.0630 C   0  0  0  0  0  0  0  0  0  0  0  0
  -25.1541  -12.2744   20.7819 C   0  0  0  0  0  0  0  0  0  0  0  0
  -28.4342  -19.6485   21.2549 C   0  0  0  0  0  0  0  0  0  0  0  0
  -24.8921  -14.4197   20.3770 C   0  0  0  0  0  0  0  0  0  0  0  0
  -29.1132  -21.7330   21.1950 C   0  0  0  0  0  0  0  0  0  0  0  0
  -22.8602  -13.3074   21.3166 C   0  0  0  0  0  0  0  0  0  0  0  0
  -29.9383  -22.9216   20.8502 C   0  0  0  0  0  0  0  0  0  0  0  0
  -24.0746  -31.2703   19.8252 C   0  0  0  0  0  0  0  0  0  0  0  0
  -24.6379  -31.8047   22.9747 C   0  0  0  0  0  0  0  0  0  0  0  0
  -26.2448  -30.8562   25.8322 C   0  0  0  0  0  0  0  0  0  0  0  0
  -29.4406  -17.6229   20.1456 C   0  0  0  0  0  0  0  0  0  0  0  0
  -20.8255  -34.4777   17.5419 C   0  0  0  0  0  0  0  0  0  0  0  0
  -23.6144  -28.9963   20.8117 C   0  0  0  0  0  0  0  0  0  0  0  0
  -26.1460  -30.1405   21.8251 C   0  0  0  0  0  0  0  0  0  0  0  0
  -21.8556  -34.5822   18.6636 C   0  0  0  0  0  0  0  0  0  0  0  0
  -29.3565  -14.7698   18.0172 C   0  0  0  0  0  0  0  0  0  0  0  0
  -23.1802  -33.9614   18.2314 C   0  0  0  0  0  0  0  0  0  0  0  0
  -28.1787  -13.9525   18.5528 C   0  0  0  0  0  0  0  0  0  0  0  0
  -30.1289  -15.4561   19.1424 C   0  0  0  0  0  0  0  0  0  0  0  0
  -28.1329  -15.4524   20.5864 C   0  0  0  0  0  0  0  0  0  0  0  0
  -23.0145  -32.4691   17.9199 C   0  0  1  0  0  0  0  0  0  0  0  0
  -23.7721  -30.4909   21.0737 C   0  0  1  0  0  0  0  0  0  0  0  0
  -27.2857  -14.7950   19.4847 C   0  0  2  0  0  0  0  0  0  0  0  0
  -26.5378  -31.5102   28.2372 C   0  0  0  0  0  0  0  0  0  0  0  0
  -31.5345  -25.3658   21.9915 C   0  0  0  0  0  0  0  0  0  0  0  0
  -26.4968  -34.0718   22.1292 C   0  0  0  0  0  0  0  0  0  0  0  0
  -27.4617  -34.0488   24.4393 C   0  0  0  0  0  0  0  0  0  0  0  0
  -25.0500  -34.5899   24.1022 C   0  0  0  0  0  0  0  0  0  0  0  0
  -25.1160  -28.2925   26.7875 C   0  0  0  0  0  0  0  0  0  0  0  0
  -29.5388  -26.4729   20.9286 C   0  0  0  0  0  0  0  0  0  1  0  0
  -25.8411  -32.2087   23.7921 C   0  0  1  0  0  0  0  0  0  0  0  0
  -25.7449  -30.6646   27.2527 C   0  0  2  0  0  0  0  0  0  0  0  0
  -30.4273  -25.2345   20.9564 C   0  0  2  0  0  0  0  0  0  0  0  0
  -26.2125  -33.7062   23.5998 C   0  0  0  0  0  0  0  0  0  0  0  0
  -26.3332  -12.6692   20.2942 N   0  0  0  0  0  0  0  0  0  0  0  0
  -29.3847  -20.5216   20.7629 N   0  0  0  0  0  0  0  0  0  0  0  0
  -29.6045  -24.0712   21.3139 N   0  0  0  0  0  0  0  0  0  0  0  0
  -26.1424  -13.9782   20.0574 N   0  0  0  0  0  0  0  0  0  0  0  0
  -24.8396  -30.7874   22.0312 N   0  0  0  0  0  0  0  0  0  0  0  0
  -29.2190  -16.2392   19.9814 N   0  0  0  0  0  0  0  0  0  0  0  0
  -24.5316  -15.7088   20.2023 N   0  0  0  0  0  0  0  0  0  0  0  0
  -22.3243  -12.0964   21.7754 N   0  0  0  0  0  0  0  0  0  0  0  0
  -31.0195  -22.6857   20.0254 N   0  0  0  0  0  0  0  0  0  0  0  0
  -28.4923  -18.2686   20.9384 N   0  0  0  0  0  0  0  0  0  0  0  0
  -22.9516  -31.7011   19.1450 N   0  0  0  0  0  0  0  0  0  0  0  0
  -25.5402  -31.8400   25.1712 N   0  0  0  0  0  0  0  0  0  0  0  0
  -25.8666  -29.2352   27.6564 N   0  3  0  0  0  0  0  0  0  0  0  0
  -22.1384  -14.3333   21.3058 O   0  0  0  0  0  0  0  0  0  0  0  0
  -25.2405  -31.4676   19.5037 O   0  0  0  0  0  0  0  0  0  0  0  0
  -23.5572  -32.3660   23.1713 O   0  0  0  0  0  0  0  0  0  0  0  0
  -27.1703  -30.2014   25.3578 O   0  0  0  0  0  0  0  0  0  0  0  0
  -30.3854  -18.1981   19.5994 O   0  0  0  0  0  0  0  0  0  0  0  0
  -24.3767   -6.9412   22.2720 O   0  0  0  0  0  0  0  0  0  0  0  0
  -28.5188  -26.2964   19.9463 O   0  0  0  0  0  0  0  0  0  1  0  0
  -19.6961   -4.4927   20.6908 F   0  0  0  0  0  0  0  0  0  0  0  0
  -24.4253   -4.6914   20.6663 F   0  0  0  0  0  0  0  0  0  0  0  0
  -27.7298  -21.8947   22.1976 S   0  0  0  0  0  0  0  0  0  0  0  0
  1  2  1  0  0  0  0
  1  5  2  0  0  0  0
  2  6  2  0  0  0  0
  3  8  2  0  0  0  0
  3 16  1  0  0  0  0
  4  9  1  0  0  0  0
  4 16  2  0  0  0  0
  5 18  1  0  0  0  0
  6 20  1  0  0  0  0
  7 10  2  0  0  0  0
  7 19  1  0  0  0  0
  8 22  1  0  0  0  0
  9 22  2  0  0  0  0
 10 23  1  0  0  0  0
 11 12  2  0  0  0  0
 11 24  1  0  0  0  0
 12 25  1  0  0  0  0
 13 21  1  0  0  0  0
 13 23  2  0  0  0  0
 14 25  2  0  0  0  0
 14 26  1  0  0  0  0
 15 28  2  0  0  0  0
 15 82  1  0  0  0  0
 16 27  1  0  0  0  0
 17 27  1  0  0  0  0
 17 29  2  0  0  0  0
 17 31  1  0  0  0  0
 18 20  2  0  0  0  0
 18 37  1  0  0  0  0
 19 21  2  0  0  0  0
 19 38  1  0  0  0  0
 20 46  1  0  0  0  0
 21 39  1  0  0  0  0
 22 78  1  0  0  0  0
 23 79  1  0  0  0  0
 24 26  2  0  0  0  0
 24 78  1  0  0  0  0
 25 80  1  0  0  0  0
 26 81  1  0  0  0  0
 27 60  2  0  0  0  0
 28 61  1  0  0  0  0
 28 69  1  0  0  0  0
 29 63  1  0  0  0  0
 29 66  1  0  0  0  0
 30 32  1  0  0  0  0
 30 61  2  0  0  0  0
 30 82  1  0  0  0  0
 31 67  1  0  0  0  0
 31 73  2  0  0  0  0
 32 62  2  0  0  0  0
 32 68  1  0  0  0  0
 33 47  1  0  0  0  0
 33 70  1  0  0  0  0
 33 74  2  0  0  0  0
 34 56  1  0  0  0  0
 34 64  1  0  0  0  0
 34 75  2  0  0  0  0
 35 57  1  0  0  0  0
 35 71  1  0  0  0  0
 35 76  2  0  0  0  0
 36 65  1  0  0  0  0
 36 69  1  0  0  0  0
 36 77  2  0  0  0  0
 37 40  1  0  0  0  0
 38 47  1  0  0  0  0
 39 64  1  0  0  0  0
 40 42  1  0  0  0  0
 41 43  1  0  0  0  0
 41 44  1  0  0  0  0
 42 46  1  0  0  0  0
 43 48  1  0  0  0  0
 44 65  1  0  0  0  0
 45 48  1  0  0  0  0
 45 65  1  0  0  0  0
 46 70  1  0  0  0  0
 47 64  1  0  0  0  0
 48 63  1  0  0  0  0
 49 57  1  0  0  0  0
 50 58  1  0  0  0  0
 51 59  1  0  0  0  0
 52 59  1  0  0  0  0
 53 59  1  0  0  0  0
 54 72  1  0  0  0  0
 55 58  1  0  0  0  0
 55 79  1  0  0  0  0
 56 59  1  0  0  0  0
 56 71  1  0  0  0  0
 57 72  1  0  0  0  0
 58 62  1  0  0  0  0
 60 63  1  0  0  0  0
M  CHG  1  72   1
M  ISO  4  36 100  55 101  69 100  79 101
M  END
> <Batch ID>
0198

> <Smiles>
CNC(C)C(=O)NC(C(=O)N1Cc2cc([101O:1][101CH2:1]C(C)NC(=N)c3nc([100NH:0][100C:0](=O)N4CCCC(n5nc(-c6ccc(Oc7ccc(F)cc7F)cc6)c(C(N)=O)c5N)C4)cs3)ccc2CC1C(=O)NC1CCCc2ccccc21)C(C)(C)C

> <Shape>
0.321

> <Color>
0.134

> <Negative vol penalty>
0.000

$$$$

  -OEChem-04052305443D

 83 91  0     1  0  0  0  0  0999 V2000
  -16.6566  -29.0565   23.5753 C   0  0  0  0  0  0  0  0  0  0  0  0
  -17.4788  -29.1833   22.4603 C   0  0  0  0  0  0  0  0  0  0  0  0
  -26.5338  -12.8474   21.8092 C   0  0  0  0  0  0  0  0  0  0  0  0
  -26.0120  -14.2612   19.9209 C   0  0  0  0  0  0  0  0  0  0  0  0
  -17.2195  -28.8852   24.8393 C   0  0  0  0  0  0  0  0  0  0  0  0
  -18.8646  -29.1399   22.6088 C   0  0  0  0  0  0  0  0  0  0  0  0
  -24.7824  -27.0065   19.1818 C   0  0  0  0  0  0  0  0  0  0  0  0
  -29.3766  -22.9351   18.4099 C   0  0  0  0  0  0  0  0  0  0  0  0
  -25.2467  -12.3117   21.7638 C   0  0  0  0  0  0  0  0  0  0  0  0
  -24.7249  -13.7255   19.8754 C   0  0  0  0  0  0  0  0  0  0  0  0
  -26.0270  -27.4889   18.7792 C   0  0  0  0  0  0  0  0  0  0  0  0
  -23.5673  -10.0159   19.9358 C   0  0  0  0  0  0  0  0  0  0  0  0
  -23.4367   -8.6320   20.0511 C   0  0  0  0  0  0  0  0  0  0  0  0
  -29.3310  -21.7809   19.1839 C   0  0  0  0  0  0  0  0  0  0  0  0
  -26.8861  -27.1093   21.0012 C   0  0  0  0  0  0  0  0  0  0  0  0
  -22.0844   -8.9246   22.0317 C   0  0  0  0  0  0  0  0  0  0  0  0
  -30.5613  -24.0071   20.1717 C   0  0  0  0  0  0  0  0  0  0  0  0
  -26.9164  -13.8222   20.8878 C   0  0  0  0  0  0  0  0  0  0  0  0
  -29.3885  -13.9021   20.2633 C   0  0  0  0  0  0  0  0  0  0  0  0
  -18.6128  -28.8300   25.0021 C   0  0  0  0  0  0  0  0  0  0  0  0
  -24.5770  -26.5814   20.5022 C   0  0  0  0  0  0  0  0  0  0  0  0
  -19.4468  -28.9690   23.8763 C   0  0  0  0  0  0  0  0  0  0  0  0
  -25.6387  -26.6196   21.4173 C   0  0  0  0  0  0  0  0  0  0  0  0
  -30.0016  -24.0738   18.9060 C   0  0  0  0  0  0  0  0  0  0  0  0
  -24.3423  -12.7507   20.7969 C   0  0  0  0  0  0  0  0  0  0  0  0
  -27.0783  -27.5431   19.6897 C   0  0  0  0  0  0  0  0  0  0  0  0
  -22.9565  -10.8542   20.8684 C   0  0  0  0  0  0  0  0  0  0  0  0
  -22.6953   -8.0863   21.0990 C   0  0  0  0  0  0  0  0  0  0  0  0
  -22.2150  -10.3086   21.9163 C   0  0  0  0  0  0  0  0  0  0  0  0
  -28.2456  -14.3764   20.9345 C   0  0  0  0  0  0  0  0  0  0  0  0
  -29.9209  -21.8168   20.4371 C   0  0  0  0  0  0  0  0  0  0  0  0
  -30.3884  -14.7676   20.6340 C   0  0  0  0  0  0  0  0  0  0  0  0
  -29.5334  -12.7794   19.3833 C   0  0  0  0  0  0  0  0  0  0  0  0
  -22.6938  -27.5075   22.8896 C   0  0  0  0  0  0  0  0  0  0  0  0
  -23.9089  -24.8787   24.3509 C   0  0  0  0  0  0  0  0  0  0  0  0
  -26.4469  -22.6097   24.5899 C   0  0  0  0  0  0  0  0  0  0  0  0
  -30.3902  -20.4451   22.4973 C   0  0  0  0  0  0  0  0  0  0  0  0
  -19.1760  -28.6907   26.3942 C   0  0  0  0  0  0  0  0  0  0  0  0
  -23.2359  -26.0386   20.9136 C   0  0  0  0  0  0  0  0  0  0  0  0
  -25.4755  -26.1561   22.8410 C   0  0  0  0  0  0  0  0  0  0  0  0
  -20.6460  -28.2799   26.4183 C   0  0  0  0  0  0  0  0  0  0  0  0
  -31.7167  -17.6338   24.2334 C   0  0  0  0  0  0  0  0  0  0  0  0
  -21.4504  -29.1167   25.4285 C   0  0  0  0  0  0  0  0  0  0  0  0
  -31.0859  -16.4361   23.5194 C   0  0  0  0  0  0  0  0  0  0  0  0
  -30.7466  -18.8095   24.3339 C   0  0  0  0  0  0  0  0  0  0  0  0
  -29.5146  -18.0313   22.3475 C   0  0  0  0  0  0  0  0  0  0  0  0
  -20.9541  -28.9022   23.9936 C   0  0  1  0  0  0  0  0  0  0  0  0
  -22.9972  -26.1133   22.4185 C   0  0  1  0  0  0  0  0  0  0  0  0
  -30.4755  -16.8451   22.1646 C   0  0  2  0  0  0  0  0  0  0  0  0
  -27.1749  -20.5996   25.9040 C   0  0  0  0  0  0  0  0  0  0  0  0
  -32.2106  -26.2919   18.4858 C   0  0  0  0  0  0  0  0  0  0  0  0
  -24.6837  -26.6871   26.6831 C   0  0  0  0  0  0  0  0  0  0  0  0
  -26.2045  -24.8715   27.4949 C   0  0  0  0  0  0  0  0  0  0  0  0
  -23.7472  -24.4665   27.3512 C   0  0  0  0  0  0  0  0  0  0  0  0
  -26.4585  -20.8933   22.1789 C   0  0  0  0  0  0  0  0  0  0  0  0
  -28.6569  -27.8220   17.9330 C   0  0  0  0  0  0  0  0  0  1  0  0
  -25.1079  -24.5994   25.2245 C   0  0  1  0  0  0  0  0  0  0  0  0
  -26.4386  -21.0937   24.6685 C   0  0  2  0  0  0  0  0  0  0  0  0
  -30.6985  -26.4528   18.6224 C   0  0  1  0  0  0  0  0  0  0  0  0
  -30.1746  -27.6708   17.8440 C   0  0  1  0  0  0  0  0  0  0  0  0
  -24.9387  -25.1667   26.6622 C   0  0  0  0  0  0  0  0  0  0  0  0
  -30.5370  -22.9040   20.9528 N   0  0  0  0  0  0  0  0  0  0  0  0
  -28.4952  -15.4592   21.6757 N   0  0  0  0  0  0  0  0  0  0  0  0
  -29.8064  -15.6724   21.4724 N   0  0  0  0  0  0  0  0  0  0  0  0
  -24.1435  -25.6396   23.1968 N   0  0  0  0  0  0  0  0  0  0  0  0
  -30.2118  -19.1435   23.0120 N   0  0  0  0  0  0  0  0  0  0  0  0
  -31.7000  -14.8354   20.3215 N   0  0  0  0  0  0  0  0  0  0  0  0
  -28.4045  -11.9953   19.1092 N   0  0  0  0  0  0  0  0  0  0  0  0
  -30.0630  -25.2354   18.1587 N   0  0  0  0  0  0  0  0  0  0  0  0
  -29.8678  -20.6360   21.2185 N   0  0  0  0  0  0  0  0  0  0  0  0
  -21.4477  -27.6464   23.4705 N   0  0  0  0  0  0  0  0  0  0  0  0
  -25.3237  -23.1574   25.1727 N   0  0  0  0  0  0  0  0  0  0  0  0
  -27.0949  -20.5090   23.4651 N   0  3  0  0  0  0  0  0  0  0  0  0
  -30.6349  -12.4707   18.8687 O   0  0  0  0  0  0  0  0  0  0  0  0
  -23.5290  -28.3914   22.7386 O   0  0  0  0  0  0  0  0  0  0  0  0
  -22.8062  -24.4320   24.6765 O   0  0  0  0  0  0  0  0  0  0  0  0
  -27.3602  -23.2446   24.0673 O   0  0  0  0  0  0  0  0  0  0  0  0
  -30.9879  -21.3177   23.1322 O   0  0  0  0  0  0  0  0  0  0  0  0
  -30.5528  -27.5632   16.4705 O   0  0  0  0  0  0  0  0  0  0  0  0
  -23.0864  -12.2280   20.7521 O   0  0  0  0  0  0  0  0  0  0  0  0
  -28.2939  -28.0142   19.2996 O   0  0  0  0  0  0  0  0  0  1  0  0
  -22.5687   -6.7574   21.2088 F   0  0  0  0  0  0  0  0  0  0  0  0
  -21.6249  -11.1089   22.8147 F   0  0  0  0  0  0  0  0  0  0  0  0
  1  2  1  0  0  0  0
  1  5  2  0  0  0  0
  2  6  2  0  0  0  0
  3  9  2  0  0  0  0
  3 18  1  0  0  0  0
  4 10  1  0  0  0  0
  4 18  2  0  0  0  0
  5 20  1  0  0  0  0
  6 22  1  0  0  0  0
  7 11  2  0  0  0  0
  7 21  1  0  0  0  0
  8 14  2  0  0  0  0
  8 24  1  0  0  0  0
  9 25  1  0  0  0  0
 10 25  2  0  0  0  0
 11 26  1  0  0  0  0
 12 13  2  0  0  0  0
 12 27  1  0  0  0  0
 13 28  1  0  0  0  0
 14 31  1  0  0  0  0
 15 23  1  0  0  0  0
 15 26  2  0  0  0  0
 16 28  2  0  0  0  0
 16 29  1  0  0  0  0
 17 24  2  0  0  0  0
 17 62  1  0  0  0  0
 18 30  1  0  0  0  0
 19 30  1  0  0  0  0
 19 32  2  0  0  0  0
 19 33  1  0  0  0  0
 20 22  2  0  0  0  0
 20 38  1  0  0  0  0
 21 23  2  0  0  0  0
 21 39  1  0  0  0  0
 22 47  1  0  0  0  0
 23 40  1  0  0  0  0
 24 69  1  0  0  0  0
 25 80  1  0  0  0  0
 26 81  1  0  0  0  0
 27 29  2  0  0  0  0
 27 80  1  0  0  0  0
 28 82  1  0  0  0  0
 29 83  1  0  0  0  0
 30 63  2  0  0  0  0
 31 62  2  0  0  0  0
 31 70  1  0  0  0  0
 32 64  1  0  0  0  0
 32 67  1  0  0  0  0
 33 68  1  0  0  0  0
 33 74  2  0  0  0  0
 34 48  1  0  0  0  0
 34 71  1  0  0  0  0
 34 75  2  0  0  0  0
 35 57  1  0  0  0  0
 35 65  1  0  0  0  0
 35 76  2  0  0  0  0
 36 58  1  0  0  0  0
 36 72  1  0  0  0  0
 36 77  2  0  0  0  0
 37 66  1  0  0  0  0
 37 70  1  0  0  0  0
 37 78  2  0  0  0  0
 38 41  1  0  0  0  0
 39 48  1  0  0  0  0
 40 65  1  0  0  0  0
 41 43  1  0  0  0  0
 42 44  1  0  0  0  0
 42 45  1  0  0  0  0
 43 47  1  0  0  0  0
 44 49  1  0  0  0  0
 45 66  1  0  0  0  0
 46 49  1  0  0  0  0
 46 66  1  0  0  0  0
 47 71  1  0  0  0  0
 48 65  1  0  0  0  0
 49 64  1  0  0  0  0
 50 58  1  0  0  0  0
 51 59  1  0  0  0  0
 52 61  1  0  0  0  0
 53 61  1  0  0  0  0
 54 61  1  0  0  0  0
 55 73  1  0  0  0  0
 56 60  1  0  0  0  0
 56 81  1  0  0  0  0
 57 61  1  0  0  0  0
 57 72  1  0  0  0  0
 58 73  1  0  0  0  0
 59 60  1  0  0  0  0
 59 69  1  0  0  0  0
 60 79  1  0  0  0  0
 63 64  1  0  0  0  0
M  CHG  1  73   1
M  ISO  4  37 100  56 101  70 100  81 101
M  END
> <Batch ID>
0198

> <Smiles>
CNC(C)C(=O)NC(C(=O)N1Cc2cc([101O:1][101CH2:1]C(O)C(C)Nc3ccc([100NH:0][100C:0](=O)N4CCCC(n5nc(-c6ccc(Oc7ccc(F)cc7F)cc6)c(C(N)=O)c5N)C4)nc3)ccc2CC1C(=O)NC1CCCc2ccccc21)C(C)(C)C

> <Shape>
0.259

> <Color>
0.074

> <Negative vol penalty>
0.000

$$$$

  -OEChem-04052305443D

 82 90  0     1  0  0  0  0  0999 V2000
  -34.1951  -33.3767   15.4676 C   0  0  0  0  0  0  0  0  0  0  0  0
  -34.0423  -32.6740   16.6585 C   0  0  0  0  0  0  0  0  0  0  0  0
  -23.0759   -9.8656   19.9417 C   0  0  0  0  0  0  0  0  0  0  0  0
  -23.8366   -9.8739   22.2348 C   0  0  0  0  0  0  0  0  0  0  0  0
  -33.5837  -32.9140   14.3031 C   0  0  0  0  0  0  0  0  0  0  0  0
  -33.2770  -31.5086   16.6858 C   0  0  0  0  0  0  0  0  0  0  0  0
  -34.2778  -26.5265   20.1038 C   0  0  0  0  0  0  0  0  0  0  0  0
  -22.3331   -8.7119   20.1922 C   0  0  0  0  0  0  0  0  0  0  0  0
  -23.0937   -8.7202   22.4854 C   0  0  0  0  0  0  0  0  0  0  0  0
  -33.7314  -26.0916   21.3105 C   0  0  0  0  0  0  0  0  0  0  0  0
  -19.8664   -7.9199   23.0892 C   0  0  0  0  0  0  0  0  0  0  0  0
  -19.1099   -7.8796   24.2604 C   0  0  0  0  0  0  0  0  0  0  0  0
  -32.1595  -24.7213   20.0979 C   0  0  0  0  0  0  0  0  0  0  0  0
  -20.3532   -5.9435   24.9970 C   0  0  0  0  0  0  0  0  0  0  0  0
  -29.7692  -17.7283   22.7134 C   0  0  0  0  0  0  0  0  0  0  0  0
  -32.1902  -18.5647   21.9607 C   0  0  0  0  0  0  0  0  0  0  0  0
  -23.8277  -10.4466   20.9629 C   0  0  0  0  0  0  0  0  0  0  0  0
  -24.1673  -12.9720   20.8420 C   0  0  0  0  0  0  0  0  0  0  0  0
  -32.8185  -31.7371   14.3141 C   0  0  0  0  0  0  0  0  0  0  0  0
  -33.7612  -26.0697   18.8828 C   0  0  0  0  0  0  0  0  0  0  0  0
  -32.6537  -31.0305   15.5207 C   0  0  0  0  0  0  0  0  0  0  0  0
  -32.7028  -25.1499   18.8771 C   0  0  0  0  0  0  0  0  0  0  0  0
  -22.3420   -8.1392   21.4641 C   0  0  0  0  0  0  0  0  0  0  0  0
  -32.6702  -25.1911   21.3076 C   0  0  0  0  0  0  0  0  0  0  0  0
  -20.8663   -6.9718   22.8719 C   0  0  0  0  0  0  0  0  0  0  0  0
  -19.3533   -6.8915   25.2143 C   0  0  0  0  0  0  0  0  0  0  0  0
  -21.1097   -5.9837   23.8258 C   0  0  0  0  0  0  0  0  0  0  0  0
  -24.5957  -11.6380   20.7045 C   0  0  0  0  0  0  0  0  0  0  0  0
  -30.5681  -16.9540   21.9011 C   0  0  0  0  0  0  0  0  0  0  0  0
  -31.3911  -19.3395   22.7723 C   0  0  0  0  0  0  0  0  0  0  0  0
  -25.2587  -13.7223   20.4781 C   0  0  0  0  0  0  0  0  0  0  0  0
  -22.8965  -13.4869   21.2612 C   0  0  0  0  0  0  0  0  0  0  0  0
  -32.3680  -27.4482   16.3803 C   0  0  0  0  0  0  0  0  0  0  0  0
  -32.5769  -24.4684   15.1157 C   0  0  0  0  0  0  0  0  0  0  0  0
  -32.8250  -21.1064   15.6471 C   0  0  0  0  0  0  0  0  0  0  0  0
  -30.7241  -14.7726   20.6507 C   0  0  0  0  0  0  0  0  0  0  0  0
  -32.1379  -31.3019   13.0405 C   0  0  0  0  0  0  0  0  0  0  0  0
  -34.3792  -26.5278   17.5903 C   0  0  0  0  0  0  0  0  0  0  0  0
  -32.1252  -24.6136   17.5937 C   0  0  0  0  0  0  0  0  0  0  0  0
  -31.6524  -29.8550   13.0732 C   0  0  0  0  0  0  0  0  0  0  0  0
  -29.6109  -12.3571   18.2835 C   0  0  0  0  0  0  0  0  0  0  0  0
  -30.9209  -29.5667   14.3803 C   0  0  0  0  0  0  0  0  0  0  0  0
  -28.1717  -12.0644   18.7137 C   0  0  0  0  0  0  0  0  0  0  0  0
  -30.5262  -12.5871   19.4848 C   0  0  0  0  0  0  0  0  0  0  0  0
  -28.6191  -13.3103   20.8664 C   0  0  0  0  0  0  0  0  0  0  0  0
  -31.8518  -29.7487   15.5852 C   0  0  1  0  0  0  0  0  0  0  0  0
  -33.4380  -26.3934   16.3973 C   0  0  1  0  0  0  0  0  0  0  0  0
  -27.6461  -13.1359   19.6890 C   0  0  2  0  0  0  0  0  0  0  0  0
  -32.9369  -18.9209   14.4189 C   0  0  0  0  0  0  0  0  0  0  0  0
  -31.2153  -20.9755   25.4818 C   0  0  0  0  0  0  0  0  0  0  0  0
  -29.5808  -24.6294   14.5612 C   0  0  0  0  0  0  0  0  0  0  0  0
  -29.5780  -22.1469   14.2370 C   0  0  0  0  0  0  0  0  0  0  0  0
  -30.9280  -23.5991   12.7233 C   0  0  0  0  0  0  0  0  0  0  0  0
  -35.4950  -20.4839   16.7619 C   0  0  0  0  0  0  0  0  0  0  0  0
  -31.6918  -22.8909   23.9168 C   0  0  0  0  0  0  0  0  0  0  0  0
  -31.5712  -23.4545   22.5045 C   0  0  0  0  0  0  0  0  0  1  0  0
  -31.6911  -23.2460   15.1076 C   0  0  1  0  0  0  0  0  0  0  0  0
  -33.7368  -20.0553   15.0403 C   0  0  2  0  0  0  0  0  0  0  0  0
  -31.1293  -21.4715   24.0418 C   0  0  1  0  0  0  0  0  0  0  0  0
  -30.4539  -23.4168   14.1816 C   0  0  0  0  0  0  0  0  0  0  0  0
  -31.7930  -17.3581   21.5105 N   0  0  0  0  0  0  0  0  0  0  0  0
  -30.1663  -18.9351   23.1633 N   0  0  0  0  0  0  0  0  0  0  0  0
  -25.8605  -11.5432   20.2859 N   0  0  0  0  0  0  0  0  0  0  0  0
  -26.2362  -12.8270   20.1570 N   0  0  0  0  0  0  0  0  0  0  0  0
  -32.7595  -25.0964   16.3559 N   0  0  0  0  0  0  0  0  0  0  0  0
  -29.9667  -13.6177   20.3620 N   0  0  0  0  0  0  0  0  0  0  0  0
  -25.4680  -15.0539   20.4046 N   0  0  0  0  0  0  0  0  0  0  0  0
  -21.8855  -12.5769   21.5991 N   0  0  0  0  0  0  0  0  0  0  0  0
  -30.0762  -15.6974   21.4690 N   0  0  0  0  0  0  0  0  0  0  0  0
  -31.8732  -20.5669   23.1903 N   0  0  0  0  0  0  0  0  0  0  0  0
  -32.7311  -28.6073   15.7215 N   0  0  0  0  0  0  0  0  0  0  0  0
  -32.5508  -22.1213   14.7549 N   0  0  0  0  0  0  0  0  0  0  0  0
  -34.6328  -19.4819   16.0840 N   0  3  0  0  0  0  0  0  0  0  0  0
  -22.6593  -14.7173   21.3182 O   0  0  0  0  0  0  0  0  0  0  0  0
  -31.2922  -27.2264   16.9235 O   0  0  0  0  0  0  0  0  0  0  0  0
  -33.0936  -24.8478   14.0619 O   0  0  0  0  0  0  0  0  0  0  0  0
  -32.3957  -21.0326   16.7964 O   0  0  0  0  0  0  0  0  0  0  0  0
  -31.8529  -14.9421   20.1826 O   0  0  0  0  0  0  0  0  0  0  0  0
  -21.6171   -7.0136   21.7090 O   0  0  0  0  0  0  0  0  0  0  0  0
  -32.1346  -24.7654   22.4840 O   0  0  0  0  0  0  0  0  0  1  0  0
  -18.6278   -6.8539   26.3396 F   0  0  0  0  0  0  0  0  0  0  0  0
  -22.0698   -5.0710   23.6231 F   0  0  0  0  0  0  0  0  0  0  0  0
  1  2  1  0  0  0  0
  1  5  2  0  0  0  0
  2  6  2  0  0  0  0
  3  8  2  0  0  0  0
  3 17  1  0  0  0  0
  4  9  1  0  0  0  0
  4 17  2  0  0  0  0
  5 19  1  0  0  0  0
  6 21  1  0  0  0  0
  7 10  2  0  0  0  0
  7 20  1  0  0  0  0
  8 23  1  0  0  0  0
  9 23  2  0  0  0  0
 10 24  1  0  0  0  0
 11 12  2  0  0  0  0
 11 25  1  0  0  0  0
 12 26  1  0  0  0  0
 13 22  1  0  0  0  0
 13 24  2  0  0  0  0
 14 26  2  0  0  0  0
 14 27  1  0  0  0  0
 15 29  2  0  0  0  0
 15 62  1  0  0  0  0
 16 30  1  0  0  0  0
 16 61  2  0  0  0  0
 17 28  1  0  0  0  0
 18 28  1  0  0  0  0
 18 31  2  0  0  0  0
 18 32  1  0  0  0  0
 19 21  2  0  0  0  0
 19 37  1  0  0  0  0
 20 22  2  0  0  0  0
 20 38  1  0  0  0  0
 21 46  1  0  0  0  0
 22 39  1  0  0  0  0
 23 79  1  0  0  0  0
 24 80  1  0  0  0  0
 25 27  2  0  0  0  0
 25 79  1  0  0  0  0
 26 81  1  0  0  0  0
 27 82  1  0  0  0  0
 28 63  2  0  0  0  0
 29 61  1  0  0  0  0
 29 69  1  0  0  0  0
 30 62  2  0  0  0  0
 30 70  1  0  0  0  0
 31 64  1  0  0  0  0
 31 67  1  0  0  0  0
 32 68  1  0  0  0  0
 32 74  2  0  0  0  0
 33 47  1  0  0  0  0
 33 71  1  0  0  0  0
 33 75  2  0  0  0  0
 34 57  1  0  0  0  0
 34 65  1  0  0  0  0
 34 76  2  0  0  0  0
 35 58  1  0  0  0  0
 35 72  1  0  0  0  0
 35 77  2  0  0  0  0
 36 66  1  0  0  0  0
 36 69  1  0  0  0  0
 36 78  2  0  0  0  0
 37 40  1  0  0  0  0
 38 47  1  0  0  0  0
 39 65  1  0  0  0  0
 40 42  1  0  0  0  0
 41 43  1  0  0  0  0
 41 44  1  0  0  0  0
 42 46  1  0  0  0  0
 43 48  1  0  0  0  0
 44 66  1  0  0  0  0
 45 48  1  0  0  0  0
 45 66  1  0  0  0  0
 46 71  1  0  0  0  0
 47 65  1  0  0  0  0
 48 64  1  0  0  0  0
 49 58  1  0  0  0  0
 50 59  1  0  0  0  0
 51 60  1  0  0  0  0
 52 60  1  0  0  0  0
 53 60  1  0  0  0  0
 54 73  1  0  0  0  0
 55 56  1  0  0  0  0
 55 59  1  0  0  0  0
 56 80  1  0  0  0  0
 57 60  1  0  0  0  0
 57 72  1  0  0  0  0
 58 73  1  0  0  0  0
 59 70  1  0  0  0  0
 63 64  1  0  0  0  0
M  CHG  1  73   1
M  ISO  4  36 100  56 101  69 100  80 101
M  END
> <Batch ID>
0198

> <Smiles>
CNC(C)C(=O)NC(C(=O)N1Cc2cc([101O:1][101CH2:1]CC(C)Nc3cnc([100NH:0][100C:0](=O)N4CCCC(n5nc(-c6ccc(Oc7ccc(F)cc7F)cc6)c(C(N)=O)c5N)C4)cn3)ccc2CC1C(=O)NC1CCCc2ccccc21)C(C)(C)C

> <Shape>
0.180

> <Color>
0.188

> <Negative vol penalty>
0.000

$$$$

  -OEChem-04052305443D

 84 92  0     1  0  0  0  0  0999 V2000
  -26.1176  -38.7764   24.2489 C   0  0  0  0  0  0  0  0  0  0  0  0
  -26.8730  -38.0387   23.3430 C   0  0  0  0  0  0  0  0  0  0  0  0
  -24.6395   -8.3994   21.5081 C   0  0  0  0  0  0  0  0  0  0  0  0
  -22.8939   -9.9342   20.8489 C   0  0  0  0  0  0  0  0  0  0  0  0
  -25.4326  -38.1271   25.2752 C   0  0  0  0  0  0  0  0  0  0  0  0
  -26.9447  -36.6513   23.4635 C   0  0  0  0  0  0  0  0  0  0  0  0
  -27.5240  -30.7242   19.4823 C   0  0  0  0  0  0  0  0  0  0  0  0
  -23.7501   -7.7580   22.3700 C   0  0  0  0  0  0  0  0  0  0  0  0
  -22.0044   -9.2927   21.7109 C   0  0  0  0  0  0  0  0  0  0  0  0
  -28.2986  -29.5700   19.3755 C   0  0  0  0  0  0  0  0  0  0  0  0
  -21.2391   -5.5058   22.1339 C   0  0  0  0  0  0  0  0  0  0  0  0
  -21.2220   -4.1111   22.1273 C   0  0  0  0  0  0  0  0  0  0  0  0
  -27.0096  -28.5488   21.1404 C   0  0  0  0  0  0  0  0  0  0  0  0
  -21.8234   -4.0927   24.4672 C   0  0  0  0  0  0  0  0  0  0  0  0
  -24.6400  -17.7804   18.8638 C   0  0  0  0  0  0  0  0  0  0  0  0
  -24.2114   -9.4876   20.7475 C   0  0  0  0  0  0  0  0  0  0  0  0
  -25.3725   -9.8462   18.5045 C   0  0  0  0  0  0  0  0  0  0  0  0
  -25.4882  -36.7302   25.4026 C   0  0  0  0  0  0  0  0  0  0  0  0
  -26.4917  -30.8036   20.4280 C   0  0  0  0  0  0  0  0  0  0  0  0
  -26.2609  -35.9829   24.4933 C   0  0  0  0  0  0  0  0  0  0  0  0
  -26.2217  -29.7043   21.2554 C   0  0  0  0  0  0  0  0  0  0  0  0
  -22.4325   -8.2045   22.4714 C   0  0  0  0  0  0  0  0  0  0  0  0
  -28.0433  -28.4831   20.2065 C   0  0  0  0  0  0  0  0  0  0  0  0
  -21.5485   -6.1940   23.3071 C   0  0  0  0  0  0  0  0  0  0  0  0
  -21.5141   -3.4045   23.2939 C   0  0  0  0  0  0  0  0  0  0  0  0
  -21.8406   -5.4874   24.4737 C   0  0  0  0  0  0  0  0  0  0  0  0
  -25.1299  -10.1510   19.8573 C   0  0  0  0  0  0  0  0  0  0  0  0
  -25.9558  -17.7244   19.2461 C   0  0  0  0  0  0  0  0  0  0  0  0
  -26.3215  -10.7582   18.1119 C   0  0  0  0  0  0  0  0  0  0  0  0
  -26.1287  -19.9431   18.8621 C   0  0  0  0  0  0  0  0  0  0  0  0
  -24.7919   -8.8296   17.6768 C   0  0  0  0  0  0  0  0  0  0  0  0
  -25.8954  -32.6463   22.9485 C   0  0  0  0  0  0  0  0  0  0  0  0
  -23.0722  -31.0489   22.9589 C   0  0  0  0  0  0  0  0  0  0  0  0
  -21.3232  -28.2511   22.0870 C   0  0  0  0  0  0  0  0  0  0  0  0
  -27.7965  -16.2104   20.0620 C   0  0  0  0  0  0  0  0  0  0  0  0
  -24.7692  -36.0773   26.5564 C   0  0  0  0  0  0  0  0  0  0  0  0
  -25.6479  -32.0460   20.5124 C   0  0  0  0  0  0  0  0  0  0  0  0
  -25.1118  -29.7315   22.2732 C   0  0  0  0  0  0  0  0  0  0  0  0
  -24.5938  -34.5700   26.3904 C   0  0  0  0  0  0  0  0  0  0  0  0
  -29.9402  -13.3763   19.8398 C   0  0  0  0  0  0  0  0  0  0  0  0
  -25.9012  -33.9270   25.9388 C   0  0  0  0  0  0  0  0  0  0  0  0
  -28.9721  -12.2004   19.6898 C   0  0  0  0  0  0  0  0  0  0  0  0
  -29.3913  -14.4461   20.7822 C   0  0  0  0  0  0  0  0  0  0  0  0
  -27.0757  -13.7534   20.3052 C   0  0  0  0  0  0  0  0  0  0  0  0
  -26.3433  -34.4741   24.5762 C   0  0  1  0  0  0  0  0  0  0  0  0
  -24.9550  -32.2071   21.8620 C   0  0  1  0  0  0  0  0  0  0  0  0
  -27.5563  -12.6803   19.3147 C   0  0  2  0  0  0  0  0  0  0  0  0
  -19.0433  -27.2180   22.2652 C   0  0  0  0  0  0  0  0  0  0  0  0
  -23.6138  -30.3639   25.8825 C   0  0  0  0  0  0  0  0  0  0  0  0
  -21.8482  -28.5960   25.7228 C   0  0  0  0  0  0  0  0  0  0  0  0
  -21.2459  -30.9922   25.3795 C   0  0  0  0  0  0  0  0  0  0  0  0
  -21.0021  -28.1717   19.1460 C   0  0  0  0  0  0  0  0  0  0  0  0
  -28.8527  -22.5509   19.0332 C   0  0  0  0  0  0  0  0  0  0  0  0
  -28.8147  -25.0045   19.6185 C   0  0  0  0  0  0  0  0  0  0  0  0
  -28.2820  -21.1470   19.2353 C   0  0  0  0  0  0  0  0  0  0  0  0
  -28.1664  -26.1189   20.4334 C   0  0  0  0  0  0  0  0  0  1  0  0
  -22.5652  -29.7782   23.5970 C   0  0  1  0  0  0  0  0  0  0  0  0
  -19.9714  -28.0756   21.4191 C   0  0  2  0  0  0  0  0  0  0  0  0
  -28.1837  -23.6355   19.8918 C   0  0  2  0  0  0  0  0  0  0  0  0
  -22.3405  -29.9324   25.1277 C   0  0  0  0  0  0  0  0  0  0  0  0
  -24.0827  -18.9430   18.4795 N   0  0  0  0  0  0  0  0  0  0  0  0
  -25.8656  -11.1764   20.2948 N   0  0  0  0  0  0  0  0  0  0  0  0
  -26.7380  -18.8144   19.2544 N   0  0  0  0  0  0  0  0  0  0  0  0
  -24.8426  -20.0579   18.4763 N   0  0  0  0  0  0  0  0  0  0  0  0
  -26.5798  -11.5238   19.2107 N   0  0  0  0  0  0  0  0  0  0  0  0
  -24.3188  -30.9710   22.3219 N   0  0  0  0  0  0  0  0  0  0  0  0
  -28.0492  -14.8552   20.3623 N   0  0  0  0  0  0  0  0  0  0  0  0
  -26.9519  -10.9720   16.9375 N   0  0  0  0  0  0  0  0  0  0  0  0
  -23.8316   -7.9777   18.2393 N   0  0  0  0  0  0  0  0  0  0  0  0
  -26.4932  -16.4747   19.6425 N   0  0  0  0  0  0  0  0  0  0  0  0
  -26.8919  -21.1003   18.8518 N   0  0  0  0  0  0  0  0  0  0  0  0
  -25.5727  -33.8656   23.5130 N   0  0  0  0  0  0  0  0  0  0  0  0
  -21.3696  -29.3967   22.8530 N   0  0  0  0  0  0  0  0  0  0  0  0
  -20.1316  -27.4232   20.0888 N   0  3  0  0  0  0  0  0  0  0  0  0
  -25.1271   -8.6706   16.4785 O   0  0  0  0  0  0  0  0  0  0  0  0
  -26.8428  -31.9312   23.2531 O   0  0  0  0  0  0  0  0  0  0  0  0
  -22.3842  -32.0711   23.0170 O   0  0  0  0  0  0  0  0  0  0  0  0
  -22.2446  -27.4499   21.9465 O   0  0  0  0  0  0  0  0  0  0  0  0
  -28.6791  -17.0686   20.1430 O   0  0  0  0  0  0  0  0  0  0  0  0
  -28.3495  -23.3304   21.2740 O   0  0  0  0  0  0  0  0  0  0  0  0
  -21.5643   -7.5787   23.3123 O   0  0  0  0  0  0  0  0  0  0  0  0
  -28.7983  -27.3555   20.1048 O   0  0  0  0  0  0  0  0  0  1  0  0
  -21.4961   -2.0652   23.2878 F   0  0  0  0  0  0  0  0  0  0  0  0
  -22.1374   -6.1430   25.6042 F   0  0  0  0  0  0  0  0  0  0  0  0
  1  2  1  0  0  0  0
  1  5  2  0  0  0  0
  2  6  2  0  0  0  0
  3  8  2  0  0  0  0
  3 16  1  0  0  0  0
  4  9  1  0  0  0  0
  4 16  2  0  0  0  0
  5 18  1  0  0  0  0
  6 20  1  0  0  0  0
  7 10  2  0  0  0  0
  7 19  1  0  0  0  0
  8 22  1  0  0  0  0
  9 22  2  0  0  0  0
 10 23  1  0  0  0  0
 11 12  2  0  0  0  0
 11 24  1  0  0  0  0
 12 25  1  0  0  0  0
 13 21  1  0  0  0  0
 13 23  2  0  0  0  0
 14 25  2  0  0  0  0
 14 26  1  0  0  0  0
 15 28  2  0  0  0  0
 15 61  1  0  0  0  0
 16 27  1  0  0  0  0
 17 27  1  0  0  0  0
 17 29  2  0  0  0  0
 17 31  1  0  0  0  0
 18 20  2  0  0  0  0
 18 36  1  0  0  0  0
 19 21  2  0  0  0  0
 19 37  1  0  0  0  0
 20 45  1  0  0  0  0
 21 38  1  0  0  0  0
 22 81  1  0  0  0  0
 23 82  1  0  0  0  0
 24 26  2  0  0  0  0
 24 81  1  0  0  0  0
 25 83  1  0  0  0  0
 26 84  1  0  0  0  0
 27 62  2  0  0  0  0
 28 63  1  0  0  0  0
 28 70  1  0  0  0  0
 29 65  1  0  0  0  0
 29 68  1  0  0  0  0
 30 63  2  0  0  0  0
 30 64  1  0  0  0  0
 30 71  1  0  0  0  0
 31 69  1  0  0  0  0
 31 75  2  0  0  0  0
 32 46  1  0  0  0  0
 32 72  1  0  0  0  0
 32 76  2  0  0  0  0
 33 57  1  0  0  0  0
 33 66  1  0  0  0  0
 33 77  2  0  0  0  0
 34 58  1  0  0  0  0
 34 73  1  0  0  0  0
 34 78  2  0  0  0  0
 35 67  1  0  0  0  0
 35 70  1  0  0  0  0
 35 79  2  0  0  0  0
 36 39  1  0  0  0  0
 37 46  1  0  0  0  0
 38 66  1  0  0  0  0
 39 41  1  0  0  0  0
 40 42  1  0  0  0  0
 40 43  1  0  0  0  0
 41 45  1  0  0  0  0
 42 47  1  0  0  0  0
 43 67  1  0  0  0  0
 44 47  1  0  0  0  0
 44 67  1  0  0  0  0
 45 72  1  0  0  0  0
 46 66  1  0  0  0  0
 47 65  1  0  0  0  0
 48 58  1  0  0  0  0
 49 60  1  0  0  0  0
 50 60  1  0  0  0  0
 51 60  1  0  0  0  0
 52 74  1  0  0  0  0
 53 55  1  0  0  0  0
 53 59  1  0  0  0  0
 54 56  1  0  0  0  0
 54 59  1  0  0  0  0
 55 71  1  0  0  0  0
 56 82  1  0  0  0  0
 57 60  1  0  0  0  0
 57 73  1  0  0  0  0
 58 74  1  0  0  0  0
 59 80  1  0  0  0  0
 61 64  2  0  0  0  0
 62 65  1  0  0  0  0
M  CHG  1  74   1
M  ISO  4  35 100  56 101  70 100  82 101
M  END
> <Batch ID>
0198

> <Smiles>
CNC(C)C(=O)NC(C(=O)N1Cc2cc([101O:1][101CH2:1]CC(O)CCNc3nncc([100NH:0][100C:0](=O)N4CCCC(n5nc(-c6ccc(Oc7ccc(F)cc7F)cc6)c(C(N)=O)c5N)C4)n3)ccc2CC1C(=O)NC1CCCc2ccccc21)C(C)(C)C

> <Shape>
0.322

> <Color>
0.091

> <Negative vol penalty>
0.000

$$$$

  -OEChem-04052305443D

 81 89  0     1  0  0  0  0  0999 V2000
  -21.1119  -35.1013   21.8760 C   0  0  0  0  0  0  0  0  0  0  0  0
  -22.2483  -34.4097   21.4690 C   0  0  0  0  0  0  0  0  0  0  0  0
  -26.7510  -12.8042   21.5503 C   0  0  0  0  0  0  0  0  0  0  0  0
  -26.3454  -13.8136   19.3931 C   0  0  0  0  0  0  0  0  0  0  0  0
  -20.2567  -34.5388   22.8227 C   0  0  0  0  0  0  0  0  0  0  0  0
  -22.5308  -33.1556   22.0092 C   0  0  0  0  0  0  0  0  0  0  0  0
  -25.1499  -28.4182   19.1450 C   0  0  0  0  0  0  0  0  0  0  0  0
  -25.4426  -12.3213   21.5704 C   0  0  0  0  0  0  0  0  0  0  0  0
  -25.0369  -13.3307   19.4132 C   0  0  0  0  0  0  0  0  0  0  0  0
  -26.4598  -27.9413   19.1262 C   0  0  0  0  0  0  0  0  0  0  0  0
  -23.7104   -9.7627   20.1971 C   0  0  0  0  0  0  0  0  0  0  0  0
  -23.5139   -8.4392   20.5911 C   0  0  0  0  0  0  0  0  0  0  0  0
  -30.0698  -21.0272   17.1706 C   0  0  0  0  0  0  0  0  0  0  0  0
  -25.9001  -26.3532   20.8536 C   0  0  0  0  0  0  0  0  0  0  0  0
  -22.1232   -9.1897   22.4186 C   0  0  0  0  0  0  0  0  0  0  0  0
  -30.4190  -22.2023   16.5511 C   0  0  0  0  0  0  0  0  0  0  0  0
  -27.2024  -13.5504   20.4617 C   0  0  0  0  0  0  0  0  0  0  0  0
  -29.6916  -13.4023   19.9233 C   0  0  0  0  0  0  0  0  0  0  0  0
  -20.5237  -33.2729   23.3676 C   0  0  0  0  0  0  0  0  0  0  0  0
  -24.2064  -27.8727   20.0274 C   0  0  0  0  0  0  0  0  0  0  0  0
  -21.6790  -32.5762   22.9650 C   0  0  0  0  0  0  0  0  0  0  0  0
  -24.5782  -26.8233   20.8799 C   0  0  0  0  0  0  0  0  0  0  0  0
  -24.5856  -12.5845   20.5018 C   0  0  0  0  0  0  0  0  0  0  0  0
  -26.8359  -26.9106   19.9825 C   0  0  0  0  0  0  0  0  0  0  0  0
  -23.1134  -10.7998   20.9139 C   0  0  0  0  0  0  0  0  0  0  0  0
  -22.7203   -8.1527   21.7018 C   0  0  0  0  0  0  0  0  0  0  0  0
  -22.3198  -10.5133   22.0246 C   0  0  0  0  0  0  0  0  0  0  0  0
  -28.5537  -14.0500   20.4406 C   0  0  0  0  0  0  0  0  0  0  0  0
  -30.5793  -21.1532   18.4769 C   0  0  0  0  0  0  0  0  0  0  0  0
  -30.7195  -14.2864   20.1428 C   0  0  0  0  0  0  0  0  0  0  0  0
  -29.8089  -12.1164   19.3001 C   0  0  0  0  0  0  0  0  0  0  0  0
  -22.4719  -29.0060   22.4380 C   0  0  0  0  0  0  0  0  0  0  0  0
  -21.1327  -26.0528   22.3507 C   0  0  0  0  0  0  0  0  0  0  0  0
  -21.4248  -22.7634   21.4896 C   0  0  0  0  0  0  0  0  0  0  0  0
  -30.9296  -20.2227   20.7916 C   0  0  0  0  0  0  0  0  0  0  0  0
  -19.5951  -32.7264   24.4230 C   0  0  0  0  0  0  0  0  0  0  0  0
  -22.7905  -28.3802   20.0167 C   0  0  0  0  0  0  0  0  0  0  0  0
  -23.5979  -26.1898   21.8318 C   0  0  0  0  0  0  0  0  0  0  0  0
  -19.7667  -31.2297   24.6693 C   0  0  0  0  0  0  0  0  0  0  0  0
  -32.0791  -17.7845   23.1177 C   0  0  0  0  0  0  0  0  0  0  0  0
  -21.2448  -30.8761   24.8000 C   0  0  0  0  0  0  0  0  0  0  0  0
  -31.4139  -16.4900   22.6445 C   0  0  0  0  0  0  0  0  0  0  0  0
  -31.1612  -18.9923   22.9381 C   0  0  0  0  0  0  0  0  0  0  0  0
  -29.9493  -17.8665   21.1124 C   0  0  0  0  0  0  0  0  0  0  0  0
  -22.0063  -31.2027   23.5096 C   0  0  1  0  0  0  0  0  0  0  0  0
  -22.0454  -28.0997   21.3180 C   0  0  1  0  0  0  0  0  0  0  0  0
  -30.8597  -16.6318   21.2132 C   0  0  2  0  0  0  0  0  0  0  0  0
  -20.1808  -20.5858   21.5787 C   0  0  0  0  0  0  0  0  0  0  0  0
  -21.7730  -25.8115   25.3242 C   0  0  0  0  0  0  0  0  0  0  0  0
  -21.3984  -23.3434   25.1334 C   0  0  0  0  0  0  0  0  0  0  0  0
  -19.5285  -24.9268   24.6653 C   0  0  0  0  0  0  0  0  0  0  0  0
  -21.4124  -22.5166   18.5404 C   0  0  0  0  0  0  0  0  0  0  0  0
  -30.6061  -25.3968   17.3465 C   0  0  0  0  0  0  0  0  0  0  0  0
  -31.6822  -24.3056   17.2959 C   0  0  0  0  0  0  0  0  0  0  0  0
  -28.8170  -26.5173   18.7270 C   0  0  0  0  0  0  0  0  0  1  0  0
  -21.4268  -24.7257   23.0075 C   0  0  1  0  0  0  0  0  0  0  0  0
  -20.4831  -21.8273   20.7540 C   0  0  2  0  0  0  0  0  0  0  0  0
  -29.8364  -25.3840   18.6701 C   0  0  2  0  0  0  0  0  0  0  0  0
  -21.0509  -24.7149   24.5161 C   0  0  0  0  0  0  0  0  0  0  0  0
  -28.8322  -15.2527   20.9505 N   0  0  0  0  0  0  0  0  0  0  0  0
  -31.2047  -22.3163   18.6765 N   0  0  0  0  0  0  0  0  0  0  0  0
  -31.0906  -22.9320   17.4874 N   0  0  0  0  0  0  0  0  0  0  0  0
  -30.1568  -15.3677   20.7547 N   0  0  0  0  0  0  0  0  0  0  0  0
  -22.2271  -26.7250   21.7883 N   0  0  0  0  0  0  0  0  0  0  0  0
  -30.6782  -19.0647   21.5574 N   0  0  0  0  0  0  0  0  0  0  0  0
  -32.0407  -14.2366   19.8703 N   0  0  0  0  0  0  0  0  0  0  0  0
  -28.6532  -11.3371   19.1535 N   0  0  0  0  0  0  0  0  0  0  0  0
  -30.4513  -20.1637   19.4830 N   0  0  0  0  0  0  0  0  0  0  0  0
  -21.7602  -30.1884   22.5071 N   0  0  0  0  0  0  0  0  0  0  0  0
  -20.7373  -23.7152   22.2126 N   0  0  0  0  0  0  0  0  0  0  0  0
  -21.0859  -21.3971   19.4608 N   0  3  0  0  0  0  0  0  0  0  0  0
  -30.9087  -11.6648   18.9002 O   0  0  0  0  0  0  0  0  0  0  0  0
  -23.3785  -28.6575   23.1852 O   0  0  0  0  0  0  0  0  0  0  0  0
  -19.9735  -26.4740   22.3310 O   0  0  0  0  0  0  0  0  0  0  0  0
  -22.6480  -22.6584   21.4319 O   0  0  0  0  0  0  0  0  0  0  0  0
  -31.5491  -21.1844   21.2536 O   0  0  0  0  0  0  0  0  0  0  0  0
  -30.7641  -25.5477   19.7426 O   0  0  0  0  0  0  0  0  0  0  0  0
  -23.3088  -12.1132   20.5210 O   0  0  0  0  0  0  0  0  0  0  0  0
  -28.1140  -26.4436   19.9667 O   0  0  0  0  0  0  0  0  0  1  0  0
  -22.5304   -6.8816   22.0791 F   0  0  0  0  0  0  0  0  0  0  0  0
  -21.7427  -11.5053   22.7165 F   0  0  0  0  0  0  0  0  0  0  0  0
  1  2  1  0  0  0  0
  1  5  2  0  0  0  0
  2  6  2  0  0  0  0
  3  8  2  0  0  0  0
  3 17  1  0  0  0  0
  4  9  1  0  0  0  0
  4 17  2  0  0  0  0
  5 19  1  0  0  0  0
  6 21  1  0  0  0  0
  7 10  2  0  0  0  0
  7 20  1  0  0  0  0
  8 23  1  0  0  0  0
  9 23  2  0  0  0  0
 10 24  1  0  0  0  0
 11 12  2  0  0  0  0
 11 25  1  0  0  0  0
 12 26  1  0  0  0  0
 13 16  2  0  0  0  0
 13 29  1  0  0  0  0
 14 22  1  0  0  0  0
 14 24  2  0  0  0  0
 15 26  2  0  0  0  0
 15 27  1  0  0  0  0
 16 62  1  0  0  0  0
 17 28  1  0  0  0  0
 18 28  1  0  0  0  0
 18 30  2  0  0  0  0
 18 31  1  0  0  0  0
 19 21  2  0  0  0  0
 19 36  1  0  0  0  0
 20 22  2  0  0  0  0
 20 37  1  0  0  0  0
 21 45  1  0  0  0  0
 22 38  1  0  0  0  0
 23 78  1  0  0  0  0
 24 79  1  0  0  0  0
 25 27  2  0  0  0  0
 25 78  1  0  0  0  0
 26 80  1  0  0  0  0
 27 81  1  0  0  0  0
 28 60  2  0  0  0  0
 29 61  2  0  0  0  0
 29 68  1  0  0  0  0
 30 63  1  0  0  0  0
 30 66  1  0  0  0  0
 31 67  1  0  0  0  0
 31 72  2  0  0  0  0
 32 46  1  0  0  0  0
 32 69  1  0  0  0  0
 32 73  2  0  0  0  0
 33 56  1  0  0  0  0
 33 64  1  0  0  0  0
 33 74  2  0  0  0  0
 34 57  1  0  0  0  0
 34 70  1  0  0  0  0
 34 75  2  0  0  0  0
 35 65  1  0  0  0  0
 35 68  1  0  0  0  0
 35 76  2  0  0  0  0
 36 39  1  0  0  0  0
 37 46  1  0  0  0  0
 38 64  1  0  0  0  0
 39 41  1  0  0  0  0
 40 42  1  0  0  0  0
 40 43  1  0  0  0  0
 41 45  1  0  0  0  0
 42 47  1  0  0  0  0
 43 65  1  0  0  0  0
 44 47  1  0  0  0  0
 44 65  1  0  0  0  0
 45 69  1  0  0  0  0
 46 64  1  0  0  0  0
 47 63  1  0  0  0  0
 48 57  1  0  0  0  0
 49 59  1  0  0  0  0
 50 59  1  0  0  0  0
 51 59  1  0  0  0  0
 52 71  1  0  0  0  0
 53 54  1  0  0  0  0
 53 58  1  0  0  0  0
 54 62  1  0  0  0  0
 55 58  1  0  0  0  0
 55 79  1  0  0  0  0
 56 59  1  0  0  0  0
 56 70  1  0  0  0  0
 57 71  1  0  0  0  0
 58 77  1  0  0  0  0
 60 63  1  0  0  0  0
 61 62  1  0  0  0  0
M  CHG  1  71   1
M  ISO  4  35 100  55 101  68 100  79 101
M  END
> <Batch ID>
0198

> <Smiles>
CNC(C)C(=O)NC(C(=O)N1Cc2cc([101O:1][101CH2:1]C(O)CCn3ccc([100NH:0][100C:0](=O)N4CCCC(n5nc(-c6ccc(Oc7ccc(F)cc7F)cc6)c(C(N)=O)c5N)C4)n3)ccc2CC1C(=O)NC1CCCc2ccccc21)C(C)(C)C

> <Shape>
0.260

> <Color>
0.110

> <Negative vol penalty>
0.000

$$$$

  -OEChem-04052305443D

 82 90  0     1  0  0  0  0  0999 V2000
  -28.4641  -21.6369   27.9480 C   0  0  0  0  0  0  0  0  0  0  0  0
  -28.5890  -22.0993   26.6419 C   0  0  0  0  0  0  0  0  0  0  0  0
  -24.4351   -9.6528   21.0707 C   0  0  0  0  0  0  0  0  0  0  0  0
  -25.0569  -10.4843   23.2522 C   0  0  0  0  0  0  0  0  0  0  0  0
  -27.2028  -21.5402   28.5344 C   0  0  0  0  0  0  0  0  0  0  0  0
  -27.4526  -22.4644   25.9210 C   0  0  0  0  0  0  0  0  0  0  0  0
  -28.0549  -26.8284   23.4234 C   0  0  0  0  0  0  0  0  0  0  0  0
  -24.2006   -8.3915   21.6182 C   0  0  0  0  0  0  0  0  0  0  0  0
  -24.8224   -9.2230   23.7998 C   0  0  0  0  0  0  0  0  0  0  0  0
  -28.7856  -26.7872   22.2368 C   0  0  0  0  0  0  0  0  0  0  0  0
  -21.7637   -6.8601   23.3928 C   0  0  0  0  0  0  0  0  0  0  0  0
  -20.5978   -6.1951   23.0131 C   0  0  0  0  0  0  0  0  0  0  0  0
  -26.7282  -26.7779   20.9773 C   0  0  0  0  0  0  0  0  0  0  0  0
  -21.9224   -4.3796   22.1262 C   0  0  0  0  0  0  0  0  0  0  0  0
  -27.4356  -20.0254   21.5714 C   0  0  0  0  0  0  0  0  0  0  0  0
  -24.8633  -10.6992   21.8877 C   0  0  0  0  0  0  0  0  0  0  0  0
  -24.1817  -13.0549   21.1850 C   0  0  0  0  0  0  0  0  0  0  0  0
  -26.0512  -21.9134   27.8236 C   0  0  0  0  0  0  0  0  0  0  0  0
  -26.6529  -26.8336   23.3962 C   0  0  0  0  0  0  0  0  0  0  0  0
  -26.1746  -22.3713   26.4980 C   0  0  0  0  0  0  0  0  0  0  0  0
  -25.9821  -26.8217   22.1649 C   0  0  0  0  0  0  0  0  0  0  0  0
  -24.3943   -8.1766   22.9828 C   0  0  0  0  0  0  0  0  0  0  0  0
  -28.1223  -26.7591   21.0135 C   0  0  0  0  0  0  0  0  0  0  0  0
  -23.0089   -6.2849   23.1392 C   0  0  0  0  0  0  0  0  0  0  0  0
  -20.6772   -4.9548   22.3798 C   0  0  0  0  0  0  0  0  0  0  0  0
  -23.0882   -5.0446   22.5059 C   0  0  0  0  0  0  0  0  0  0  0  0
  -25.1062  -12.0022   21.3226 C   0  0  0  0  0  0  0  0  0  0  0  0
  -28.4523  -19.3512   20.9279 C   0  0  0  0  0  0  0  0  0  0  0  0
  -24.8992  -14.0671   20.5957 C   0  0  0  0  0  0  0  0  0  0  0  0
  -29.1656  -21.4012   20.6139 C   0  0  0  0  0  0  0  0  0  0  0  0
  -22.7982  -13.1128   21.5569 C   0  0  0  0  0  0  0  0  0  0  0  0
  -24.3811  -24.8886   24.4732 C   0  0  0  0  0  0  0  0  0  0  0  0
  -22.4142  -27.2648   23.4696 C   0  0  0  0  0  0  0  0  0  0  0  0
  -21.9228  -29.9457   21.4158 C   0  0  0  0  0  0  0  0  0  0  0  0
  -29.4969  -17.1812   20.1891 C   0  0  0  0  0  0  0  0  0  0  0  0
  -24.7052  -21.7467   28.4833 C   0  0  0  0  0  0  0  0  0  0  0  0
  -25.8795  -26.9051   24.6843 C   0  0  0  0  0  0  0  0  0  0  0  0
  -24.4785  -26.8464   22.0807 C   0  0  0  0  0  0  0  0  0  0  0  0
  -23.5840  -22.5079   27.7806 C   0  0  0  0  0  0  0  0  0  0  0  0
  -29.5045  -14.0494   18.4952 C   0  0  0  0  0  0  0  0  0  0  0  0
  -23.6473  -22.2805   26.2735 C   0  0  0  0  0  0  0  0  0  0  0  0
  -28.2849  -13.3242   19.0684 C   0  0  0  0  0  0  0  0  0  0  0  0
  -30.2157  -14.8884   19.5554 C   0  0  0  0  0  0  0  0  0  0  0  0
  -28.1348  -15.1040   20.8565 C   0  0  0  0  0  0  0  0  0  0  0  0
  -24.9677  -22.8003   25.6921 C   0  0  1  0  0  0  0  0  0  0  0  0
  -24.4505  -26.3875   24.5528 C   0  0  1  0  0  0  0  0  0  0  0  0
  -27.3480  -14.2974   19.8106 C   0  0  2  0  0  0  0  0  0  0  0  0
  -20.2008  -31.6624   20.7953 C   0  0  0  0  0  0  0  0  0  0  0  0
  -31.3584  -23.9842   17.6866 C   0  0  0  0  0  0  0  0  0  0  0  0
  -20.9032  -25.1621   21.8554 C   0  0  0  0  0  0  0  0  0  0  0  0
  -19.8431  -27.0216   20.5567 C   0  0  0  0  0  0  0  0  0  0  0  0
  -19.4471  -26.8341   23.0124 C   0  0  0  0  0  0  0  0  0  0  0  0
  -23.6662  -32.1758   22.2797 C   0  0  0  0  0  0  0  0  0  0  0  0
  -30.0136  -22.5561   20.1689 C   0  0  0  0  0  0  0  0  0  0  0  0
  -29.3270  -25.4751   17.8623 C   0  0  0  0  0  0  0  0  0  0  0  0
  -28.2273  -26.0571   18.7437 C   0  0  0  0  0  0  0  0  0  1  0  0
  -21.7088  -27.5940   22.1762 C   0  0  1  0  0  0  0  0  0  0  0  0
  -21.3877  -31.3397   21.6896 C   0  0  2  0  0  0  0  0  0  0  0  0
  -30.2317  -24.4756   18.5857 C   0  0  1  0  0  0  0  0  0  0  0  0
  -20.5039  -26.6505   21.9015 C   0  0  0  0  0  0  0  0  0  0  0  0
  -26.3183  -12.3164   20.8578 N   0  0  0  0  0  0  0  0  0  0  0  0
  -29.4449  -20.1386   20.3779 N   0  0  0  0  0  0  0  0  0  0  0  0
  -26.1605  -13.5779   20.4224 N   0  0  0  0  0  0  0  0  0  0  0  0
  -23.7668  -26.9100   23.3680 N   0  0  0  0  0  0  0  0  0  0  0  0
  -29.2669  -15.7893   20.2133 N   0  0  0  0  0  0  0  0  0  0  0  0
  -24.5678  -15.3188   20.2138 N   0  0  0  0  0  0  0  0  0  0  0  0
  -22.2185  -11.9839   22.1516 N   0  0  0  0  0  0  0  0  0  0  0  0
  -28.5107  -17.9397   20.8188 N   0  0  0  0  0  0  0  0  0  0  0  0
  -24.9306  -24.2413   25.5634 N   0  0  0  0  0  0  0  0  0  0  0  0
  -21.3557  -29.0075   22.2521 N   0  0  0  0  0  0  0  0  0  0  0  0
  -22.4485  -32.3583   21.4486 N   0  3  0  0  0  0  0  0  0  0  0  0
  -29.4364  -23.2913   19.0138 N   0  3  0  0  0  0  0  0  0  0  0  0
  -22.0927  -14.1296   21.3524 O   0  0  0  0  0  0  0  0  0  0  0  0
  -23.8659  -24.3587   23.4958 O   0  0  0  0  0  0  0  0  0  0  0  0
  -21.7900  -27.3273   24.5317 O   0  0  0  0  0  0  0  0  0  0  0  0
  -22.7575  -29.7119   20.5445 O   0  0  0  0  0  0  0  0  0  0  0  0
  -30.4814  -17.6665   19.6257 O   0  0  0  0  0  0  0  0  0  0  0  0
  -24.1653   -6.9461   23.5175 O   0  0  0  0  0  0  0  0  0  0  0  0
  -28.8331  -26.7183   19.8538 O   0  0  0  0  0  0  0  0  0  1  0  0
  -19.5575   -4.3156   22.0166 F   0  0  0  0  0  0  0  0  0  0  0  0
  -24.2816   -4.4865   22.2606 F   0  0  0  0  0  0  0  0  0  0  0  0
  -27.7250  -21.7140   21.4925 S   0  0  0  0  0  0  0  0  0  0  0  0
  1  2  1  0  0  0  0
  1  5  2  0  0  0  0
  2  6  2  0  0  0  0
  3  8  2  0  0  0  0
  3 16  1  0  0  0  0
  4  9  1  0  0  0  0
  4 16  2  0  0  0  0
  5 18  1  0  0  0  0
  6 20  1  0  0  0  0
  7 10  2  0  0  0  0
  7 19  1  0  0  0  0
  8 22  1  0  0  0  0
  9 22  2  0  0  0  0
 10 23  1  0  0  0  0
 11 12  2  0  0  0  0
 11 24  1  0  0  0  0
 12 25  1  0  0  0  0
 13 21  1  0  0  0  0
 13 23  2  0  0  0  0
 14 25  2  0  0  0  0
 14 26  1  0  0  0  0
 15 28  2  0  0  0  0
 15 82  1  0  0  0  0
 16 27  1  0  0  0  0
 17 27  1  0  0  0  0
 17 29  2  0  0  0  0
 17 31  1  0  0  0  0
 18 20  2  0  0  0  0
 18 36  1  0  0  0  0
 19 21  2  0  0  0  0
 19 37  1  0  0  0  0
 20 45  1  0  0  0  0
 21 38  1  0  0  0  0
 22 78  1  0  0  0  0
 23 79  1  0  0  0  0
 24 26  2  0  0  0  0
 24 78  1  0  0  0  0
 25 80  1  0  0  0  0
 26 81  1  0  0  0  0
 27 61  2  0  0  0  0
 28 62  1  0  0  0  0
 28 68  1  0  0  0  0
 29 63  1  0  0  0  0
 29 66  1  0  0  0  0
 30 54  1  0  0  0  0
 30 62  2  0  0  0  0
 30 82  1  0  0  0  0
 31 67  1  0  0  0  0
 31 73  2  0  0  0  0
 32 46  1  0  0  0  0
 32 69  1  0  0  0  0
 32 74  2  0  0  0  0
 33 57  1  0  0  0  0
 33 64  1  0  0  0  0
 33 75  2  0  0  0  0
 34 58  1  0  0  0  0
 34 70  1  0  0  0  0
 34 76  2  0  0  0  0
 35 65  1  0  0  0  0
 35 68  1  0  0  0  0
 35 77  2  0  0  0  0
 36 39  1  0  0  0  0
 37 46  1  0  0  0  0
 38 64  1  0  0  0  0
 39 41  1  0  0  0  0
 40 42  1  0  0  0  0
 40 43  1  0  0  0  0
 41 45  1  0  0  0  0
 42 47  1  0  0  0  0
 43 65  1  0  0  0  0
 44 47  1  0  0  0  0
 44 65  1  0  0  0  0
 45 69  1  0  0  0  0
 46 64  1  0  0  0  0
 47 63  1  0  0  0  0
 48 58  1  0  0  0  0
 49 59  1  0  0  0  0
 50 60  1  0  0  0  0
 51 60  1  0  0  0  0
 52 60  1  0  0  0  0
 53 71  1  0  0  0  0
 54 72  1  0  0  0  0
 55 56  1  0  0  0  0
 55 59  1  0  0  0  0
 56 79  1  0  0  0  0
 57 60  1  0  0  0  0
 57 70  1  0  0  0  0
 58 71  1  0  0  0  0
 59 72  1  0  0  0  0
 61 63  1  0  0  0  0
M  CHG  2  71   1  72   1
M  ISO  4  35 100  56 101  68 100  79 101
M  END
> <Batch ID>
0198

> <Smiles>
CNC(C)C(=O)NC(C(=O)N1Cc2cc([101O:1][101CH2:1]CC(C)NCc3nc([100NH:0][100C:0](=O)N4CCCC(n5nc(-c6ccc(Oc7ccc(F)cc7F)cc6)c(C(N)=O)c5N)C4)cs3)ccc2CC1C(=O)NC1CCCc2ccccc21)C(C)(C)C

> <Shape>
0.278

> <Color>
0.140

> <Negative vol penalty>
0.000

$$$$

  -OEChem-04052305443D

 82 90  0     1  0  0  0  0  0999 V2000
  -16.4963  -29.6079   23.7946 C   0  0  0  0  0  0  0  0  0  0  0  0
  -17.5417  -30.2434   24.4570 C   0  0  0  0  0  0  0  0  0  0  0  0
  -31.5400  -22.0191   20.6238 C   0  0  0  0  0  0  0  0  0  0  0  0
  -32.4542  -23.6409   22.1635 C   0  0  0  0  0  0  0  0  0  0  0  0
  -16.7644  -28.5586   22.9165 C   0  0  0  0  0  0  0  0  0  0  0  0
  -18.8558  -29.8292   24.2423 C   0  0  0  0  0  0  0  0  0  0  0  0
  -25.5387  -32.3916   23.9429 C   0  0  0  0  0  0  0  0  0  0  0  0
  -32.3112  -21.0202   21.2179 C   0  0  0  0  0  0  0  0  0  0  0  0
  -33.2254  -22.6420   22.7578 C   0  0  0  0  0  0  0  0  0  0  0  0
  -26.8051  -32.1624   24.4790 C   0  0  0  0  0  0  0  0  0  0  0  0
  -35.5210  -19.9651   21.1242 C   0  0  0  0  0  0  0  0  0  0  0  0
  -36.1977  -19.0828   20.2822 C   0  0  0  0  0  0  0  0  0  0  0  0
  -27.1551  -30.3911   22.8792 C   0  0  0  0  0  0  0  0  0  0  0  0
  -32.8617  -31.5945   20.8144 C   0  0  0  0  0  0  0  0  0  0  0  0
  -34.9884  -17.2297   21.2521 C   0  0  0  0  0  0  0  0  0  0  0  0
  -34.8417  -32.1619   21.8914 C   0  0  0  0  0  0  0  0  0  0  0  0
  -31.6115  -23.3295   21.0965 C   0  0  0  0  0  0  0  0  0  0  0  0
  -29.5126  -24.7566   20.8409 C   0  0  0  0  0  0  0  0  0  0  0  0
  -18.0832  -28.1377   22.6836 C   0  0  0  0  0  0  0  0  0  0  0  0
  -25.0658  -31.6137   22.8762 C   0  0  0  0  0  0  0  0  0  0  0  0
  -19.1416  -28.7724   23.3613 C   0  0  0  0  0  0  0  0  0  0  0  0
  -25.8833  -30.6141   22.3297 C   0  0  0  0  0  0  0  0  0  0  0  0
  -33.4974  -31.9068   22.0507 C   0  0  0  0  0  0  0  0  0  0  0  0
  -33.1539  -21.3316   22.2849 C   0  0  0  0  0  0  0  0  0  0  0  0
  -27.6124  -31.1601   23.9490 C   0  0  0  0  0  0  0  0  0  0  0  0
  -34.5780  -19.4798   22.0303 C   0  0  0  0  0  0  0  0  0  0  0  0
  -35.9314  -17.7150   20.3461 C   0  0  0  0  0  0  0  0  0  0  0  0
  -34.3117  -18.1121   22.0943 C   0  0  0  0  0  0  0  0  0  0  0  0
  -30.8155  -24.3618   20.4828 C   0  0  0  0  0  0  0  0  0  0  0  0
  -33.7444  -31.6231   19.7571 C   0  0  0  0  0  0  0  0  0  0  0  0
  -29.2056  -25.7659   19.9614 C   0  0  0  0  0  0  0  0  0  0  0  0
  -28.6563  -24.2557   21.8761 C   0  0  0  0  0  0  0  0  0  0  0  0
  -22.6236  -29.6217   22.4627 C   0  0  0  0  0  0  0  0  0  0  0  0
  -23.6533  -29.6175   19.3866 C   0  0  0  0  0  0  0  0  0  0  0  0
  -26.2250  -29.5859   16.8563 C   0  0  0  0  0  0  0  0  0  0  0  0
  -32.5655  -29.6045   16.8265 C   0  0  0  0  0  0  0  0  0  0  0  0
  -18.3197  -26.9679   21.7615 C   0  0  0  0  0  0  0  0  0  0  0  0
  -23.7079  -31.8913   22.2918 C   0  0  0  0  0  0  0  0  0  0  0  0
  -25.4305  -29.7647   21.1713 C   0  0  0  0  0  0  0  0  0  0  0  0
  -19.7702  -26.8365   21.3041 C   0  0  0  0  0  0  0  0  0  0  0  0
  -30.1782  -27.3001   15.5352 C   0  0  0  0  0  0  0  0  0  0  0  0
  -20.7192  -26.9845   22.4891 C   0  0  0  0  0  0  0  0  0  0  0  0
  -29.9533  -26.3214   16.6891 C   0  0  0  0  0  0  0  0  0  0  0  0
  -31.6324  -27.7603   15.4608 C   0  0  0  0  0  0  0  0  0  0  0  0
  -31.9449  -27.3408   17.8692 C   0  0  0  0  0  0  0  0  0  0  0  0
  -20.5825  -28.3682   23.1359 C   0  0  1  0  0  0  0  0  0  0  0  0
  -23.1250  -30.6977   21.5415 C   0  0  1  0  0  0  0  0  0  0  0  0
  -30.4813  -26.8917   18.0191 C   0  0  2  0  0  0  0  0  0  0  0  0
  -26.0537  -29.6832   14.3546 C   0  0  0  0  0  0  0  0  0  0  0  0
  -23.7412  -26.5720   19.5516 C   0  0  0  0  0  0  0  0  0  0  0  0
  -25.1592  -26.5707   17.4883 C   0  0  0  0  0  0  0  0  0  0  0  0
  -22.8358  -27.4746   17.4021 C   0  0  0  0  0  0  0  0  0  0  0  0
  -28.0151  -31.9381   16.7093 C   0  0  0  0  0  0  0  0  0  0  0  0
  -33.4765  -31.3590   18.3268 C   0  0  0  0  0  0  0  0  0  0  0  0
  -31.4321  -31.6811   23.4325 C   0  0  0  0  0  0  0  0  0  0  0  0
  -29.5287  -32.0527   25.0385 C   0  0  0  0  0  0  0  0  0  1  0  0
  -24.6360  -28.7945   18.5893 C   0  0  1  0  0  0  0  0  0  0  0  0
  -26.3030  -30.4754   15.6286 C   0  0  2  0  0  0  0  0  0  0  0  0
  -31.0324  -31.8421   24.8979 C   0  0  1  0  0  0  0  0  0  0  0  0
  -24.1011  -27.3675   18.2809 C   0  0  0  0  0  0  0  0  0  0  0  0
  -31.3028  -25.0631   19.4557 N   0  0  0  0  0  0  0  0  0  0  0  0
  -30.3006  -25.9085   19.1609 N   0  0  0  0  0  0  0  0  0  0  0  0
  -24.0924  -30.0703   20.6388 N   0  0  0  0  0  0  0  0  0  0  0  0
  -32.0709  -28.2918   16.7536 N   0  0  0  0  0  0  0  0  0  0  0  0
  -28.1086  -26.5363   19.8024 N   0  0  0  0  0  0  0  0  0  0  0  0
  -29.1285  -23.2164   22.6893 N   0  0  0  0  0  0  0  0  0  0  0  0
  -32.8435  -31.9496   23.2704 N   0  0  0  0  0  0  0  0  0  0  0  0
  -21.2707  -29.3659   22.3452 N   0  0  0  0  0  0  0  0  0  0  0  0
  -24.9594  -29.5806   17.4036 N   0  0  0  0  0  0  0  0  0  0  0  0
  -32.9534  -30.0318   18.0904 N   0  0  0  0  0  0  0  0  0  0  0  0
  -27.6486  -31.1088   15.5325 N   0  3  0  0  0  0  0  0  0  0  0  0
  -27.5002  -24.7051   22.0636 O   0  0  0  0  0  0  0  0  0  0  0  0
  -23.4065  -29.0637   23.2226 O   0  0  0  0  0  0  0  0  0  0  0  0
  -22.5396  -29.8561   18.9127 O   0  0  0  0  0  0  0  0  0  0  0  0
  -27.1893  -28.9557   17.2846 O   0  0  0  0  0  0  0  0  0  0  0  0
  -32.6498  -30.3428   15.8392 O   0  0  0  0  0  0  0  0  0  0  0  0
  -31.3729  -30.6500   25.6087 O   0  0  0  0  0  0  0  0  0  0  0  0
  -33.9064  -20.3571   22.8651 O   0  0  0  0  0  0  0  0  0  0  0  0
  -28.8487  -30.9339   24.4708 O   0  0  0  0  0  0  0  0  0  1  0  0
  -36.5802  -16.8680   19.5363 F   0  0  0  0  0  0  0  0  0  0  0  0
  -33.4060  -17.6400   22.9618 F   0  0  0  0  0  0  0  0  0  0  0  0
  -35.3323  -32.0248   20.2565 S   0  0  0  0  0  0  0  0  0  0  0  0
  1  2  1  0  0  0  0
  1  5  2  0  0  0  0
  2  6  2  0  0  0  0
  3  8  2  0  0  0  0
  3 17  1  0  0  0  0
  4  9  1  0  0  0  0
  4 17  2  0  0  0  0
  5 19  1  0  0  0  0
  6 21  1  0  0  0  0
  7 10  2  0  0  0  0
  7 20  1  0  0  0  0
  8 24  1  0  0  0  0
  9 24  2  0  0  0  0
 10 25  1  0  0  0  0
 11 12  2  0  0  0  0
 11 26  1  0  0  0  0
 12 27  1  0  0  0  0
 13 22  1  0  0  0  0
 13 25  2  0  0  0  0
 14 23  1  0  0  0  0
 14 30  2  0  0  0  0
 15 27  2  0  0  0  0
 15 28  1  0  0  0  0
 16 23  2  0  0  0  0
 16 82  1  0  0  0  0
 17 29  1  0  0  0  0
 18 29  1  0  0  0  0
 18 31  2  0  0  0  0
 18 32  1  0  0  0  0
 19 21  2  0  0  0  0
 19 37  1  0  0  0  0
 20 22  2  0  0  0  0
 20 38  1  0  0  0  0
 21 46  1  0  0  0  0
 22 39  1  0  0  0  0
 23 67  1  0  0  0  0
 24 78  1  0  0  0  0
 25 79  1  0  0  0  0
 26 28  2  0  0  0  0
 26 78  1  0  0  0  0
 27 80  1  0  0  0  0
 28 81  1  0  0  0  0
 29 61  2  0  0  0  0
 30 54  1  0  0  0  0
 30 82  1  0  0  0  0
 31 62  1  0  0  0  0
 31 65  1  0  0  0  0
 32 66  1  0  0  0  0
 32 72  2  0  0  0  0
 33 47  1  0  0  0  0
 33 68  1  0  0  0  0
 33 73  2  0  0  0  0
 34 57  1  0  0  0  0
 34 63  1  0  0  0  0
 34 74  2  0  0  0  0
 35 58  1  0  0  0  0
 35 69  1  0  0  0  0
 35 75  2  0  0  0  0
 36 64  1  0  0  0  0
 36 70  1  0  0  0  0
 36 76  2  0  0  0  0
 37 40  1  0  0  0  0
 38 47  1  0  0  0  0
 39 63  1  0  0  0  0
 40 42  1  0  0  0  0
 41 43  1  0  0  0  0
 41 44  1  0  0  0  0
 42 46  1  0  0  0  0
 43 48  1  0  0  0  0
 44 64  1  0  0  0  0
 45 48  1  0  0  0  0
 45 64  1  0  0  0  0
 46 68  1  0  0  0  0
 47 63  1  0  0  0  0
 48 62  1  0  0  0  0
 49 58  1  0  0  0  0
 50 60  1  0  0  0  0
 51 60  1  0  0  0  0
 52 60  1  0  0  0  0
 53 71  1  0  0  0  0
 54 70  1  0  0  0  0
 55 59  1  0  0  0  0
 55 67  1  0  0  0  0
 56 59  1  0  0  0  0
 56 79  1  0  0  0  0
 57 60  1  0  0  0  0
 57 69  1  0  0  0  0
 58 71  1  0  0  0  0
 59 77  1  0  0  0  0
 61 62  1  0  0  0  0
M  CHG  1  71   1
M  ISO  4  36 100  56 101  70 100  79 101
M  END
> <Batch ID>
0198

> <Smiles>
CNC(C)C(=O)NC(C(=O)N1Cc2cc([101O:1][101CH2:1]C(O)CNc3csc(C[100NH:0][100C:0](=O)N4CCCC(n5nc(-c6ccc(Oc7ccc(F)cc7F)cc6)c(C(N)=O)c5N)C4)c3)ccc2CC1C(=O)NC1CCCc2ccccc21)C(C)(C)C

> <Shape>
0.197

> <Color>
0.112

> <Negative vol penalty>
0.000

$$$$

  -OEChem-04052305443D

 81 89  0     1  0  0  0  0  0999 V2000
  -26.5510  -31.4784   26.0030 C   0  0  0  0  0  0  0  0  0  0  0  0
  -27.3922  -30.5794   25.3552 C   0  0  0  0  0  0  0  0  0  0  0  0
  -23.9338   -9.7732   22.0274 C   0  0  0  0  0  0  0  0  0  0  0  0
  -24.4471  -11.1706   23.9302 C   0  0  0  0  0  0  0  0  0  0  0  0
  -25.1856  -31.2116   26.0949 C   0  0  0  0  0  0  0  0  0  0  0  0
  -26.8685  -29.4124   24.7998 C   0  0  0  0  0  0  0  0  0  0  0  0
  -28.7497  -26.5981   19.6962 C   0  0  0  0  0  0  0  0  0  0  0  0
  -23.4806   -8.7712   22.8854 C   0  0  0  0  0  0  0  0  0  0  0  0
  -23.9938  -10.1686   24.7883 C   0  0  0  0  0  0  0  0  0  0  0  0
  -29.5863  -25.5035   19.4826 C   0  0  0  0  0  0  0  0  0  0  0  0
  -21.0243   -8.9896   25.8893 C   0  0  0  0  0  0  0  0  0  0  0  0
  -20.1937   -9.3684   26.9439 C   0  0  0  0  0  0  0  0  0  0  0  0
  -27.6563  -24.0624   19.3486 C   0  0  0  0  0  0  0  0  0  0  0  0
  -21.8032   -8.5008   28.5231 C   0  0  0  0  0  0  0  0  0  0  0  0
  -30.2674  -18.0106   22.5410 C   0  0  0  0  0  0  0  0  0  0  0  0
  -32.0000  -19.1229   20.8416 C   0  0  0  0  0  0  0  0  0  0  0  0
  -24.4171  -10.9728   22.5498 C   0  0  0  0  0  0  0  0  0  0  0  0
  -24.1287  -13.0528   21.1013 C   0  0  0  0  0  0  0  0  0  0  0  0
  -24.6435  -30.0455   25.5319 C   0  0  0  0  0  0  0  0  0  0  0  0
  -27.3584  -26.4312   19.7485 C   0  0  0  0  0  0  0  0  0  0  0  0
  -25.4948  -29.1292   24.8854 C   0  0  0  0  0  0  0  0  0  0  0  0
  -26.8042  -25.1570   19.5604 C   0  0  0  0  0  0  0  0  0  0  0  0
  -23.5105   -8.9689   24.2659 C   0  0  0  0  0  0  0  0  0  0  0  0
  -29.0398  -24.2349   19.3117 C   0  0  0  0  0  0  0  0  0  0  0  0
  -22.2443   -8.3663   26.1515 C   0  0  0  0  0  0  0  0  0  0  0  0
  -20.5832   -9.1241   28.2608 C   0  0  0  0  0  0  0  0  0  0  0  0
  -22.6338   -8.1219   27.4684 C   0  0  0  0  0  0  0  0  0  0  0  0
  -24.8860  -12.0080   21.6640 C   0  0  0  0  0  0  0  0  0  0  0  0
  -31.3520  -17.3051   22.0683 C   0  0  0  0  0  0  0  0  0  0  0  0
  -30.9151  -19.8283   21.3136 C   0  0  0  0  0  0  0  0  0  0  0  0
  -25.0289  -13.7587   20.3411 C   0  0  0  0  0  0  0  0  0  0  0  0
  -22.7359  -13.3580   21.2523 C   0  0  0  0  0  0  0  0  0  0  0  0
  -25.1241  -26.9032   21.9596 C   0  0  0  0  0  0  0  0  0  0  0  0
  -23.1119  -26.1542   19.5280 C   0  0  0  0  0  0  0  0  0  0  0  0
  -22.6427  -24.5817   16.5357 C   0  0  0  0  0  0  0  0  0  0  0  0
  -30.9756  -14.4018   20.6138 C   0  0  0  0  0  0  0  0  0  0  0  0
  -23.1687  -29.7772   25.6977 C   0  0  0  0  0  0  0  0  0  0  0  0
  -26.4683  -27.6263   19.9531 C   0  0  0  0  0  0  0  0  0  0  0  0
  -25.3159  -24.9276   19.5875 C   0  0  0  0  0  0  0  0  0  0  0  0
  -22.6357  -28.7005   24.7559 C   0  0  0  0  0  0  0  0  0  0  0  0
  -29.0765  -13.2015   17.8516 C   0  0  0  0  0  0  0  0  0  0  0  0
  -23.5619  -27.4885   24.7523 C   0  0  0  0  0  0  0  0  0  0  0  0
  -27.7188  -12.8538   18.4647 C   0  0  0  0  0  0  0  0  0  0  0  0
  -30.2250  -12.8831   18.8064 C   0  0  0  0  0  0  0  0  0  0  0  0
  -28.7440  -13.1387   20.7596 C   0  0  0  0  0  0  0  0  0  0  0  0
  -24.9606  -27.8645   24.2487 C   0  0  1  0  0  0  0  0  0  0  0  0
  -25.0922  -27.2598   20.5003 C   0  0  1  0  0  0  0  0  0  0  0  0
  -27.5512  -13.4942   19.8557 C   0  0  2  0  0  0  0  0  0  0  0  0
  -20.8803  -24.1125   14.8119 C   0  0  0  0  0  0  0  0  0  0  0  0
  -21.8879  -24.0416   21.3580 C   0  0  0  0  0  0  0  0  0  0  0  0
  -20.8361  -23.0015   19.3380 C   0  0  0  0  0  0  0  0  0  0  0  0
  -20.2312  -25.3299   19.9978 C   0  0  0  0  0  0  0  0  0  0  0  0
  -24.1578  -26.0069   14.4304 C   0  0  0  0  0  0  0  0  0  0  0  0
  -31.5837  -15.8984   22.4978 C   0  0  0  0  0  0  0  0  0  0  0  0
  -31.6384  -21.8005   19.9672 C   0  0  0  0  0  0  0  0  0  0  0  0
  -31.1541  -23.2139   19.6903 C   0  0  0  0  0  0  0  0  0  1  0  0
  -22.5076  -24.8775   18.9951 C   0  0  1  0  0  0  0  0  0  0  0  0
  -21.9989  -25.0485   15.2425 C   0  0  2  0  0  0  0  0  0  0  0  0
  -21.3939  -24.3163   19.9236 C   0  0  0  0  0  0  0  0  0  0  0  0
  -32.2380  -17.8486   21.2104 N   0  0  0  0  0  0  0  0  0  0  0  0
  -30.0293  -19.2848   22.1718 N   0  0  0  0  0  0  0  0  0  0  0  0
  -26.1686  -12.0431   21.2928 N   0  0  0  0  0  0  0  0  0  0  0  0
  -26.2241  -13.1185   20.4887 N   0  0  0  0  0  0  0  0  0  0  0  0
  -24.4877  -26.1267   19.7969 N   0  0  0  0  0  0  0  0  0  0  0  0
  -30.0057  -13.5214   20.1065 N   0  0  0  0  0  0  0  0  0  0  0  0
  -24.9068  -14.8582   19.5675 N   0  0  0  0  0  0  0  0  0  0  0  0
  -21.9553  -12.5298   22.0701 N   0  0  0  0  0  0  0  0  0  0  0  0
  -30.7427  -21.1338   20.8844 N   0  0  0  0  0  0  0  0  0  0  0  0
  -24.9635  -27.9833   22.8063 N   0  0  0  0  0  0  0  0  0  0  0  0
  -22.0616  -25.1725   17.6377 N   0  0  0  0  0  0  0  0  0  0  0  0
  -30.6864  -14.9684   21.8491 N   0  0  0  0  0  0  0  0  0  0  0  0
  -23.0115  -25.1042   14.1505 N   0  3  0  0  0  0  0  0  0  0  0  0
  -22.1961  -14.3266   20.6658 O   0  0  0  0  0  0  0  0  0  0  0  0
  -25.2811  -25.7344   22.2926 O   0  0  0  0  0  0  0  0  0  0  0  0
  -22.3912  -27.1416   19.6927 O   0  0  0  0  0  0  0  0  0  0  0  0
  -23.5659  -23.7710   16.5654 O   0  0  0  0  0  0  0  0  0  0  0  0
  -32.0193  -14.6676   20.0080 O   0  0  0  0  0  0  0  0  0  0  0  0
  -23.0681   -7.9915   25.1034 O   0  0  0  0  0  0  0  0  0  0  0  0
  -29.8541  -23.1646   19.1037 O   0  0  0  0  0  0  0  0  0  1  0  0
  -19.7862   -9.4893   29.2735 F   0  0  0  0  0  0  0  0  0  0  0  0
  -23.8052   -7.5246   27.7266 F   0  0  0  0  0  0  0  0  0  0  0  0
  1  2  1  0  0  0  0
  1  5  2  0  0  0  0
  2  6  2  0  0  0  0
  3  8  2  0  0  0  0
  3 17  1  0  0  0  0
  4  9  1  0  0  0  0
  4 17  2  0  0  0  0
  5 19  1  0  0  0  0
  6 21  1  0  0  0  0
  7 10  2  0  0  0  0
  7 20  1  0  0  0  0
  8 23  1  0  0  0  0
  9 23  2  0  0  0  0
 10 24  1  0  0  0  0
 11 12  2  0  0  0  0
 11 25  1  0  0  0  0
 12 26  1  0  0  0  0
 13 22  1  0  0  0  0
 13 24  2  0  0  0  0
 14 26  2  0  0  0  0
 14 27  1  0  0  0  0
 15 29  2  0  0  0  0
 15 61  1  0  0  0  0
 16 30  1  0  0  0  0
 16 60  2  0  0  0  0
 17 28  1  0  0  0  0
 18 28  1  0  0  0  0
 18 31  2  0  0  0  0
 18 32  1  0  0  0  0
 19 21  2  0  0  0  0
 19 37  1  0  0  0  0
 20 22  2  0  0  0  0
 20 38  1  0  0  0  0
 21 46  1  0  0  0  0
 22 39  1  0  0  0  0
 23 78  1  0  0  0  0
 24 79  1  0  0  0  0
 25 27  2  0  0  0  0
 25 78  1  0  0  0  0
 26 80  1  0  0  0  0
 27 81  1  0  0  0  0
 28 62  2  0  0  0  0
 29 54  1  0  0  0  0
 29 60  1  0  0  0  0
 30 61  2  0  0  0  0
 30 68  1  0  0  0  0
 31 63  1  0  0  0  0
 31 66  1  0  0  0  0
 32 67  1  0  0  0  0
 32 73  2  0  0  0  0
 33 47  1  0  0  0  0
 33 69  1  0  0  0  0
 33 74  2  0  0  0  0
 34 57  1  0  0  0  0
 34 64  1  0  0  0  0
 34 75  2  0  0  0  0
 35 58  1  0  0  0  0
 35 70  1  0  0  0  0
 35 76  2  0  0  0  0
 36 65  1  0  0  0  0
 36 71  1  0  0  0  0
 36 77  2  0  0  0  0
 37 40  1  0  0  0  0
 38 47  1  0  0  0  0
 39 64  1  0  0  0  0
 40 42  1  0  0  0  0
 41 43  1  0  0  0  0
 41 44  1  0  0  0  0
 42 46  1  0  0  0  0
 43 48  1  0  0  0  0
 44 65  1  0  0  0  0
 45 48  1  0  0  0  0
 45 65  1  0  0  0  0
 46 69  1  0  0  0  0
 47 64  1  0  0  0  0
 48 63  1  0  0  0  0
 49 58  1  0  0  0  0
 50 59  1  0  0  0  0
 51 59  1  0  0  0  0
 52 59  1  0  0  0  0
 53 72  1  0  0  0  0
 54 71  1  0  0  0  0
 55 56  1  0  0  0  0
 55 68  1  0  0  0  0
 56 79  1  0  0  0  0
 57 59  1  0  0  0  0
 57 70  1  0  0  0  0
 58 72  1  0  0  0  0
 62 63  1  0  0  0  0
M  CHG  1  72   1
M  ISO  4  36 100  56 101  71 100  79 101
M  END
> <Batch ID>
0198

> <Smiles>
CNC(C)C(=O)NC(C(=O)N1Cc2cc([101O:1][101CH2:1]CNc3cnc(C[100NH:0][100C:0](=O)N4CCCC(n5nc(-c6ccc(Oc7ccc(F)cc7F)cc6)c(C(N)=O)c5N)C4)cn3)ccc2CC1C(=O)NC1CCCc2ccccc21)C(C)(C)C

> <Shape>
0.227

> <Color>
0.119

> <Negative vol penalty>
0.000

$$$$

  -OEChem-04052305443D

 83 91  0     1  0  0  0  0  0999 V2000
  -25.5733  -18.2929   24.3447 C   0  0  0  0  0  0  0  0  0  0  0  0
  -26.3429  -19.4206   24.0774 C   0  0  0  0  0  0  0  0  0  0  0  0
  -26.1578  -12.7423   21.3537 C   0  0  0  0  0  0  0  0  0  0  0  0
  -26.0731  -12.9771   18.9507 C   0  0  0  0  0  0  0  0  0  0  0  0
  -24.2350  -18.2554   23.9555 C   0  0  0  0  0  0  0  0  0  0  0  0
  -25.7748  -20.5112   23.4198 C   0  0  0  0  0  0  0  0  0  0  0  0
  -27.0539  -26.4314   24.3258 C   0  0  0  0  0  0  0  0  0  0  0  0
  -24.9645  -12.0206   21.3253 C   0  0  0  0  0  0  0  0  0  0  0  0
  -24.8798  -12.2553   18.9222 C   0  0  0  0  0  0  0  0  0  0  0  0
  -27.8766  -27.3280   23.6454 C   0  0  0  0  0  0  0  0  0  0  0  0
  -23.9762   -8.8690   20.6018 C   0  0  0  0  0  0  0  0  0  0  0  0
  -23.9041   -7.7051   21.3672 C   0  0  0  0  0  0  0  0  0  0  0  0
  -25.9709  -28.1185   22.3953 C   0  0  0  0  0  0  0  0  0  0  0  0
  -22.0576   -8.6393   22.6141 C   0  0  0  0  0  0  0  0  0  0  0  0
  -29.2121  -24.9774   18.5120 C   0  0  0  0  0  0  0  0  0  0  0  0
  -26.7121  -13.2206   20.1664 C   0  0  0  0  0  0  0  0  0  0  0  0
  -29.2516  -13.4530   20.0987 C   0  0  0  0  0  0  0  0  0  0  0  0
  -23.6476  -19.3498   23.3014 C   0  0  0  0  0  0  0  0  0  0  0  0
  -25.6832  -26.3638   24.0379 C   0  0  0  0  0  0  0  0  0  0  0  0
  -24.4277  -20.4877   23.0203 C   0  0  0  0  0  0  0  0  0  0  0  0
  -25.1325  -27.2219   23.0753 C   0  0  0  0  0  0  0  0  0  0  0  0
  -24.3255  -11.7771   20.1096 C   0  0  0  0  0  0  0  0  0  0  0  0
  -27.3356  -28.1698   22.6779 C   0  0  0  0  0  0  0  0  0  0  0  0
  -23.0890   -9.9181   20.8426 C   0  0  0  0  0  0  0  0  0  0  0  0
  -22.9448   -7.5902   22.3732 C   0  0  0  0  0  0  0  0  0  0  0  0
  -22.1297   -9.8032   21.8487 C   0  0  0  0  0  0  0  0  0  0  0  0
  -27.9444  -13.9667   20.1952 C   0  0  0  0  0  0  0  0  0  0  0  0
  -30.0043  -23.8509   18.4635 C   0  0  0  0  0  0  0  0  0  0  0  0
  -29.9443  -26.0670   19.0645 C   0  0  0  0  0  0  0  0  0  0  0  0
  -30.0618  -14.5592   20.1774 C   0  0  0  0  0  0  0  0  0  0  0  0
  -29.6938  -12.0972   19.9511 C   0  0  0  0  0  0  0  0  0  0  0  0
  -23.7343  -24.1156   22.9192 C   0  0  0  0  0  0  0  0  0  0  0  0
  -21.4480  -26.3229   23.5696 C   0  0  0  0  0  0  0  0  0  0  0  0
  -20.6369  -29.6066   24.0243 C   0  0  0  0  0  0  0  0  0  0  0  0
  -29.1244  -20.2264   18.8138 C   0  0  0  0  0  0  0  0  0  0  0  0
  -22.2100  -19.2442   22.8578 C   0  0  0  0  0  0  0  0  0  0  0  0
  -24.8046  -25.4097   24.7996 C   0  0  0  0  0  0  0  0  0  0  0  0
  -23.6635  -27.2028   22.7434 C   0  0  0  0  0  0  0  0  0  0  0  0
  -21.5829  -20.5890   22.4992 C   0  0  0  0  0  0  0  0  0  0  0  0
  -30.2081  -18.9699   22.0300 C   0  0  0  0  0  0  0  0  0  0  0  0
  -22.5227  -21.3958   21.6089 C   0  0  0  0  0  0  0  0  0  0  0  0
  -29.8688  -17.4834   21.9058 C   0  0  0  0  0  0  0  0  0  0  0  0
  -29.1514  -19.8366   21.3515 C   0  0  0  0  0  0  0  0  0  0  0  0
  -28.5689  -18.0185   19.7930 C   0  0  0  0  0  0  0  0  0  0  0  0
  -23.8408  -21.7004   22.3310 C   0  0  1  0  0  0  0  0  0  0  0  0
  -23.5142  -25.0667   24.0615 C   0  0  1  0  0  0  0  0  0  0  0  0
  -29.6111  -17.0881   20.4397 C   0  0  2  0  0  0  0  0  0  0  0  0
  -18.6818  -31.1044   24.5054 C   0  0  0  0  0  0  0  0  0  0  0  0
  -20.4996  -26.0069   20.6868 C   0  0  0  0  0  0  0  0  0  0  0  0
  -19.2225  -28.1447   20.9460 C   0  0  0  0  0  0  0  0  0  0  0  0
  -18.6635  -26.1788   22.3762 C   0  0  0  0  0  0  0  0  0  0  0  0
  -29.7831  -30.8632   20.4254 C   0  0  0  0  0  0  0  0  0  0  0  0
  -28.5443  -30.0851   18.3984 C   0  0  0  0  0  0  0  0  0  0  0  0
  -21.8520  -30.5775   26.5422 C   0  0  0  0  0  0  0  0  0  0  0  0
  -29.7019  -22.4911   17.9802 C   0  0  0  0  0  0  0  0  0  0  0  0
  -29.9651  -28.4676   19.7441 C   0  0  0  0  0  0  0  0  0  0  0  0
  -27.7611  -29.3828   20.6771 C   0  0  0  0  0  0  0  0  0  1  0  0
  -20.8047  -27.4535   22.8035 C   0  0  1  0  0  0  0  0  0  0  0  0
  -19.8287  -30.3044   25.1033 C   0  0  2  0  0  0  0  0  0  0  0  0
  -19.8256  -26.9452   21.7078 C   0  0  0  0  0  0  0  0  0  0  0  0
  -29.0055  -29.6807   19.8109 C   0  0  0  0  0  0  0  0  0  0  0  0
  -27.9210  -15.2958   20.3253 N   0  0  0  0  0  0  0  0  0  0  0  0
  -31.2040  -25.8339   19.4251 N   0  0  0  0  0  0  0  0  0  0  0  0
  -29.2234  -15.6266   20.3113 N   0  0  0  0  0  0  0  0  0  0  0  0
  -22.8468  -26.2481   23.5109 N   0  0  0  0  0  0  0  0  0  0  0  0
  -28.9675  -19.4208   19.9538 N   0  0  0  0  0  0  0  0  0  0  0  0
  -31.4026  -14.7133   20.1445 N   0  0  0  0  0  0  0  0  0  0  0  0
  -28.7288  -11.0828   19.8868 N   0  0  0  0  0  0  0  0  0  0  0  0
  -29.3195  -27.2958   19.1978 N   0  0  0  0  0  0  0  0  0  0  0  0
  -23.6615  -22.7824   23.2752 N   0  0  0  0  0  0  0  0  0  0  0  0
  -20.1876  -28.3225   23.7997 N   0  0  0  0  0  0  0  0  0  0  0  0
  -29.4964  -21.5437   19.0531 N   0  0  0  0  0  0  0  0  0  0  0  0
  -20.6960  -31.2348   25.8800 N   0  3  0  0  0  0  0  0  0  0  0  0
  -30.9094  -11.7925   19.8949 O   0  0  0  0  0  0  0  0  0  0  0  0
  -23.9523  -24.5586   21.7977 O   0  0  0  0  0  0  0  0  0  0  0  0
  -20.7361  -25.5395   24.2029 O   0  0  0  0  0  0  0  0  0  0  0  0
  -21.5710  -30.1478   23.4368 O   0  0  0  0  0  0  0  0  0  0  0  0
  -28.9511  -19.8017   17.6663 O   0  0  0  0  0  0  0  0  0  0  0  0
  -23.1612  -11.0727   20.0814 O   0  0  0  0  0  0  0  0  0  0  0  0
  -28.1365  -29.0455   22.0119 O   0  0  0  0  0  0  0  0  0  1  0  0
  -22.8748   -6.4719   23.1071 F   0  0  0  0  0  0  0  0  0  0  0  0
  -21.2738  -10.8073   22.0839 F   0  0  0  0  0  0  0  0  0  0  0  0
  -31.5478  -24.2419   19.0948 S   0  0  0  0  0  0  0  0  0  0  0  0
  1  2  1  0  0  0  0
  1  5  2  0  0  0  0
  2  6  2  0  0  0  0
  3  8  2  0  0  0  0
  3 16  1  0  0  0  0
  4  9  1  0  0  0  0
  4 16  2  0  0  0  0
  5 18  1  0  0  0  0
  6 20  1  0  0  0  0
  7 10  2  0  0  0  0
  7 19  1  0  0  0  0
  8 22  1  0  0  0  0
  9 22  2  0  0  0  0
 10 23  1  0  0  0  0
 11 12  2  0  0  0  0
 11 24  1  0  0  0  0
 12 25  1  0  0  0  0
 13 21  1  0  0  0  0
 13 23  2  0  0  0  0
 14 25  2  0  0  0  0
 14 26  1  0  0  0  0
 15 28  2  0  0  0  0
 15 29  1  0  0  0  0
 16 27  1  0  0  0  0
 17 27  1  0  0  0  0
 17 30  2  0  0  0  0
 17 31  1  0  0  0  0
 18 20  2  0  0  0  0
 18 36  1  0  0  0  0
 19 21  2  0  0  0  0
 19 37  1  0  0  0  0
 20 45  1  0  0  0  0
 21 38  1  0  0  0  0
 22 79  1  0  0  0  0
 23 80  1  0  0  0  0
 24 26  2  0  0  0  0
 24 79  1  0  0  0  0
 25 81  1  0  0  0  0
 26 82  1  0  0  0  0
 27 62  2  0  0  0  0
 28 55  1  0  0  0  0
 28 83  1  0  0  0  0
 29 63  2  0  0  0  0
 29 69  1  0  0  0  0
 30 64  1  0  0  0  0
 30 67  1  0  0  0  0
 31 68  1  0  0  0  0
 31 74  2  0  0  0  0
 32 46  1  0  0  0  0
 32 70  1  0  0  0  0
 32 75  2  0  0  0  0
 33 58  1  0  0  0  0
 33 65  1  0  0  0  0
 33 76  2  0  0  0  0
 34 59  1  0  0  0  0
 34 71  1  0  0  0  0
 34 77  2  0  0  0  0
 35 66  1  0  0  0  0
 35 72  1  0  0  0  0
 35 78  2  0  0  0  0
 36 39  1  0  0  0  0
 37 46  1  0  0  0  0
 38 65  1  0  0  0  0
 39 41  1  0  0  0  0
 40 42  1  0  0  0  0
 40 43  1  0  0  0  0
 41 45  1  0  0  0  0
 42 47  1  0  0  0  0
 43 66  1  0  0  0  0
 44 47  1  0  0  0  0
 44 66  1  0  0  0  0
 45 70  1  0  0  0  0
 46 65  1  0  0  0  0
 47 64  1  0  0  0  0
 48 59  1  0  0  0  0
 49 60  1  0  0  0  0
 50 60  1  0  0  0  0
 51 60  1  0  0  0  0
 52 61  1  0  0  0  0
 53 61  1  0  0  0  0
 54 73  1  0  0  0  0
 55 72  1  0  0  0  0
 56 61  1  0  0  0  0
 56 69  1  0  0  0  0
 57 61  1  0  0  0  0
 57 80  1  0  0  0  0
 58 60  1  0  0  0  0
 58 71  1  0  0  0  0
 59 73  1  0  0  0  0
 62 64  1  0  0  0  0
 63 83  1  0  0  0  0
M  CHG  1  73   1
M  ISO  4  35 100  57 101  72 100  80 101
M  END
> <Batch ID>
0198

> <Smiles>
CNC(C)C(=O)NC(C(=O)N1Cc2cc([101O:1][101CH2:1]C(C)(C)CNc3cc(C[100NH:0][100C:0](=O)N4CCCC(n5nc(-c6ccc(Oc7ccc(F)cc7F)cc6)c(C(N)=O)c5N)C4)sn3)ccc2CC1C(=O)NC1CCCc2ccccc21)C(C)(C)C

> <Shape>
0.266

> <Color>
0.053

> <Negative vol penalty>
0.000

$$$$

  -OEChem-04052305443D

 82 90  0     1  0  0  0  0  0999 V2000
  -17.7038  -31.7652   19.8915 C   0  0  0  0  0  0  0  0  0  0  0  0
  -18.9995  -31.5587   19.4291 C   0  0  0  0  0  0  0  0  0  0  0  0
  -26.7894  -12.3328   21.7019 C   0  0  0  0  0  0  0  0  0  0  0  0
  -26.0009  -13.9691   20.1089 C   0  0  0  0  0  0  0  0  0  0  0  0
  -17.4194  -31.6284   21.2496 C   0  0  0  0  0  0  0  0  0  0  0  0
  -20.0120  -31.2164   20.3248 C   0  0  0  0  0  0  0  0  0  0  0  0
  -24.7672  -27.5060   19.2633 C   0  0  0  0  0  0  0  0  0  0  0  0
  -25.4987  -11.8148   21.8088 C   0  0  0  0  0  0  0  0  0  0  0  0
  -24.7102  -13.4511   20.2157 C   0  0  0  0  0  0  0  0  0  0  0  0
  -26.0964  -27.7578   18.9265 C   0  0  0  0  0  0  0  0  0  0  0  0
  -22.4820   -9.8302   22.2283 C   0  0  0  0  0  0  0  0  0  0  0  0
  -22.3356   -8.4434   22.2022 C   0  0  0  0  0  0  0  0  0  0  0  0
  -26.7125  -27.5829   21.2522 C   0  0  0  0  0  0  0  0  0  0  0  0
  -23.3337   -8.3794   20.0029 C   0  0  0  0  0  0  0  0  0  0  0  0
  -30.7632  -23.5762   20.7111 C   0  0  0  0  0  0  0  0  0  0  0  0
  -29.3628  -21.5250   19.7319 C   0  0  0  0  0  0  0  0  0  0  0  0
  -27.0405  -13.4100   20.8520 C   0  0  0  0  0  0  0  0  0  0  0  0
  -29.3769  -13.5494   19.8374 C   0  0  0  0  0  0  0  0  0  0  0  0
  -18.4268  -31.2748   22.1610 C   0  0  0  0  0  0  0  0  0  0  0  0
  -24.3982  -27.3013   20.6006 C   0  0  0  0  0  0  0  0  0  0  0  0
  -19.7411  -31.0761   21.6965 C   0  0  0  0  0  0  0  0  0  0  0  0
  -25.3783  -27.3262   21.6031 C   0  0  0  0  0  0  0  0  0  0  0  0
  -24.4591  -12.3739   21.0656 C   0  0  0  0  0  0  0  0  0  0  0  0
  -27.0689  -27.7991   19.9213 C   0  0  0  0  0  0  0  0  0  0  0  0
  -23.0542  -10.4917   21.1417 C   0  0  0  0  0  0  0  0  0  0  0  0
  -22.7614   -7.7179   21.0896 C   0  0  0  0  0  0  0  0  0  0  0  0
  -23.4800   -9.7663   20.0290 C   0  0  0  0  0  0  0  0  0  0  0  0
  -28.3734  -13.9459   20.7417 C   0  0  0  0  0  0  0  0  0  0  0  0
  -29.9858  -23.7203   19.5831 C   0  0  0  0  0  0  0  0  0  0  0  0
  -30.1408  -21.3806   20.8594 C   0  0  0  0  0  0  0  0  0  0  0  0
  -30.4469  -14.3570   20.1362 C   0  0  0  0  0  0  0  0  0  0  0  0
  -29.3446  -12.5412   18.8185 C   0  0  0  0  0  0  0  0  0  0  0  0
  -22.4855  -28.7946   22.6536 C   0  0  0  0  0  0  0  0  0  0  0  0
  -23.1876  -26.2590   24.5510 C   0  0  0  0  0  0  0  0  0  0  0  0
  -30.6111  -26.1465   19.3257 C   0  0  0  0  0  0  0  0  0  0  0  0
  -25.3434  -23.7294   25.3259 C   0  0  0  0  0  0  0  0  0  0  0  0
  -30.9070  -19.7655   22.6345 C   0  0  0  0  0  0  0  0  0  0  0  0
  -18.0812  -31.1850   23.6263 C   0  0  0  0  0  0  0  0  0  0  0  0
  -22.9643  -27.0044   20.9443 C   0  0  0  0  0  0  0  0  0  0  0  0
  -25.0373  -27.0928   23.0514 C   0  0  0  0  0  0  0  0  0  0  0  0
  -19.1327  -30.4532   24.4564 C   0  0  0  0  0  0  0  0  0  0  0  0
  -32.4267  -16.7555   23.7779 C   0  0  0  0  0  0  0  0  0  0  0  0
  -20.5311  -30.9517   24.1061 C   0  0  0  0  0  0  0  0  0  0  0  0
  -31.6551  -15.6576   23.0421 C   0  0  0  0  0  0  0  0  0  0  0  0
  -31.5180  -17.9165   24.1781 C   0  0  0  0  0  0  0  0  0  0  0  0
  -29.9549  -17.3935   22.3471 C   0  0  0  0  0  0  0  0  0  0  0  0
  -20.8612  -30.6793   22.6336 C   0  0  1  0  0  0  0  0  0  0  0  0
  -22.6203  -27.3204   22.3966 C   0  0  1  0  0  0  0  0  0  0  0  0
  -30.8405  -16.2323   21.8666 C   0  0  2  0  0  0  0  0  0  0  0  0
  -25.6662  -21.8448   26.9512 C   0  0  0  0  0  0  0  0  0  0  0  0
  -24.0283  -28.2576   26.6977 C   0  0  0  0  0  0  0  0  0  0  0  0
  -25.2011  -26.3882   27.8802 C   0  0  0  0  0  0  0  0  0  0  0  0
  -22.7304  -26.2967   27.5490 C   0  0  0  0  0  0  0  0  0  0  0  0
  -25.2977  -21.7057   23.1669 C   0  0  0  0  0  0  0  0  0  0  0  0
  -30.2887  -27.2836   18.3628 C   0  0  0  0  0  0  0  0  0  0  0  0
  -28.8056  -27.6169   18.3069 C   0  0  0  0  0  0  0  0  0  1  0  0
  -24.2604  -25.9484   25.5666 C   0  0  1  0  0  0  0  0  0  0  0  0
  -25.1096  -22.2541   25.5964 C   0  0  2  0  0  0  0  0  0  0  0  0
  -24.0615  -26.7291   26.8964 C   0  0  0  0  0  0  0  0  0  0  0  0
  -29.2714  -22.6974   19.0734 N   0  0  0  0  0  0  0  0  0  0  0  0
  -30.8549  -22.4037   21.3693 N   0  0  0  0  0  0  0  0  0  0  0  0
  -28.7705  -14.9289   21.5541 N   0  0  0  0  0  0  0  0  0  0  0  0
  -30.0354  -15.1568   21.1615 N   0  0  0  0  0  0  0  0  0  0  0  0
  -23.6206  -26.8126   23.3378 N   0  0  0  0  0  0  0  0  0  0  0  0
  -30.7815  -18.4122   23.0133 N   0  0  0  0  0  0  0  0  0  0  0  0
  -31.6902  -14.4540   19.6192 N   0  0  0  0  0  0  0  0  0  0  0  0
  -28.1655  -11.8035   18.6455 N   0  0  0  0  0  0  0  0  0  0  0  0
  -29.9453  -24.9839   18.9470 N   0  0  0  0  0  0  0  0  0  0  0  0
  -30.1860  -20.1139   21.4928 N   0  0  0  0  0  0  0  0  0  0  0  0
  -21.2121  -29.2883   22.4432 N   0  0  0  0  0  0  0  0  0  0  0  0
  -24.2686  -24.4977   25.7209 N   0  0  0  0  0  0  0  0  0  0  0  0
  -25.7678  -21.4245   24.5478 N   0  3  0  0  0  0  0  0  0  0  0  0
  -30.3376  -12.2904   18.0941 O   0  0  0  0  0  0  0  0  0  0  0  0
  -23.4639  -29.4365   23.0174 O   0  0  0  0  0  0  0  0  0  0  0  0
  -22.0094  -26.0127   24.8212 O   0  0  0  0  0  0  0  0  0  0  0  0
  -31.3607  -26.2961   20.2848 O   0  0  0  0  0  0  0  0  0  0  0  0
  -26.3776  -24.1579   24.8186 O   0  0  0  0  0  0  0  0  0  0  0  0
  -31.6243  -20.5506   23.2598 O   0  0  0  0  0  0  0  0  0  0  0  0
  -23.1996  -11.8686   21.1694 O   0  0  0  0  0  0  0  0  0  0  0  0
  -28.3670  -28.0453   19.5954 O   0  0  0  0  0  0  0  0  0  1  0  0
  -22.6222   -6.3859   21.0653 F   0  0  0  0  0  0  0  0  0  0  0  0
  -24.0316  -10.3961   18.9826 F   0  0  0  0  0  0  0  0  0  0  0  0
  1  2  1  0  0  0  0
  1  5  2  0  0  0  0
  2  6  2  0  0  0  0
  3  8  2  0  0  0  0
  3 17  1  0  0  0  0
  4  9  1  0  0  0  0
  4 17  2  0  0  0  0
  5 19  1  0  0  0  0
  6 21  1  0  0  0  0
  7 10  2  0  0  0  0
  7 20  1  0  0  0  0
  8 23  1  0  0  0  0
  9 23  2  0  0  0  0
 10 24  1  0  0  0  0
 11 12  2  0  0  0  0
 11 25  1  0  0  0  0
 12 26  1  0  0  0  0
 13 22  1  0  0  0  0
 13 24  2  0  0  0  0
 14 26  2  0  0  0  0
 14 27  1  0  0  0  0
 15 29  1  0  0  0  0
 15 61  2  0  0  0  0
 16 30  2  0  0  0  0
 16 60  1  0  0  0  0
 17 28  1  0  0  0  0
 18 28  1  0  0  0  0
 18 31  2  0  0  0  0
 18 32  1  0  0  0  0
 19 21  2  0  0  0  0
 19 38  1  0  0  0  0
 20 22  2  0  0  0  0
 20 39  1  0  0  0  0
 21 47  1  0  0  0  0
 22 40  1  0  0  0  0
 23 79  1  0  0  0  0
 24 80  1  0  0  0  0
 25 27  2  0  0  0  0
 25 79  1  0  0  0  0
 26 81  1  0  0  0  0
 27 82  1  0  0  0  0
 28 62  2  0  0  0  0
 29 60  2  0  0  0  0
 29 68  1  0  0  0  0
 30 61  1  0  0  0  0
 30 69  1  0  0  0  0
 31 63  1  0  0  0  0
 31 66  1  0  0  0  0
 32 67  1  0  0  0  0
 32 73  2  0  0  0  0
 33 48  1  0  0  0  0
 33 70  1  0  0  0  0
 33 74  2  0  0  0  0
 34 57  1  0  0  0  0
 34 64  1  0  0  0  0
 34 75  2  0  0  0  0
 35 55  1  0  0  0  0
 35 68  1  0  0  0  0
 35 76  2  0  0  0  0
 36 58  1  0  0  0  0
 36 71  1  0  0  0  0
 36 77  2  0  0  0  0
 37 65  1  0  0  0  0
 37 69  1  0  0  0  0
 37 78  2  0  0  0  0
 38 41  1  0  0  0  0
 39 48  1  0  0  0  0
 40 64  1  0  0  0  0
 41 43  1  0  0  0  0
 42 44  1  0  0  0  0
 42 45  1  0  0  0  0
 43 47  1  0  0  0  0
 44 49  1  0  0  0  0
 45 65  1  0  0  0  0
 46 49  1  0  0  0  0
 46 65  1  0  0  0  0
 47 70  1  0  0  0  0
 48 64  1  0  0  0  0
 49 63  1  0  0  0  0
 50 58  1  0  0  0  0
 51 59  1  0  0  0  0
 52 59  1  0  0  0  0
 53 59  1  0  0  0  0
 54 72  1  0  0  0  0
 55 56  1  0  0  0  0
 56 80  1  0  0  0  0
 57 59  1  0  0  0  0
 57 71  1  0  0  0  0
 58 72  1  0  0  0  0
 62 63  1  0  0  0  0
M  CHG  1  72   1
M  ISO  4  37 100  56 101  69 100  80 101
M  END
> <Batch ID>
0198

> <Smiles>
CNC(C)C(=O)NC(C(=O)N1Cc2cc([101O:1][101CH2:1]CC(=O)Nc3cnc([100NH:0][100C:0](=O)N4CCCC(n5nc(-c6ccc(Oc7ccc(F)cc7F)cc6)c(C(N)=O)c5N)C4)cn3)ccc2CC1C(=O)NC1CCCc2ccccc21)C(C)(C)C

> <Shape>
0.263

> <Color>
0.107

> <Negative vol penalty>
0.000

$$$$

  -OEChem-04052305443D

 82 90  0     1  0  0  0  0  0999 V2000
  -16.5395  -30.1334   23.2256 C   0  0  0  0  0  0  0  0  0  0  0  0
  -17.6116  -30.7977   22.6383 C   0  0  0  0  0  0  0  0  0  0  0  0
  -26.3359  -12.8748   21.3558 C   0  0  0  0  0  0  0  0  0  0  0  0
  -26.1446  -13.2405   18.9753 C   0  0  0  0  0  0  0  0  0  0  0  0
  -16.7700  -29.0336   24.0509 C   0  0  0  0  0  0  0  0  0  0  0  0
  -18.9149  -30.3631   22.8769 C   0  0  0  0  0  0  0  0  0  0  0  0
  -25.3136  -29.8901   19.6911 C   0  0  0  0  0  0  0  0  0  0  0  0
  -25.1297  -12.1745   21.3452 C   0  0  0  0  0  0  0  0  0  0  0  0
  -24.9384  -12.5401   18.9647 C   0  0  0  0  0  0  0  0  0  0  0  0
  -26.6494  -30.2290   19.9020 C   0  0  0  0  0  0  0  0  0  0  0  0
  -24.0521   -9.0824   20.5021 C   0  0  0  0  0  0  0  0  0  0  0  0
  -23.9944   -7.8801   21.2069 C   0  0  0  0  0  0  0  0  0  0  0  0
  -26.9225  -28.2692   21.2817 C   0  0  0  0  0  0  0  0  0  0  0  0
  -22.2246   -8.7742   22.5873 C   0  0  0  0  0  0  0  0  0  0  0  0
  -31.0824  -25.6122   20.2012 C   0  0  0  0  0  0  0  0  0  0  0  0
  -26.8434  -13.4079   20.1709 C   0  0  0  0  0  0  0  0  0  0  0  0
  -29.3808  -13.6040   19.9962 C   0  0  0  0  0  0  0  0  0  0  0  0
  -18.0762  -28.5794   24.2921 C   0  0  0  0  0  0  0  0  0  0  0  0
  -24.7684  -28.7421   20.2839 C   0  0  0  0  0  0  0  0  0  0  0  0
  -19.1631  -29.2570   23.7074 C   0  0  0  0  0  0  0  0  0  0  0  0
  -25.5802  -27.9166   21.0748 C   0  0  0  0  0  0  0  0  0  0  0  0
  -24.4310  -12.0070   20.1496 C   0  0  0  0  0  0  0  0  0  0  0  0
  -27.4534  -29.4201   20.6997 C   0  0  0  0  0  0  0  0  0  0  0  0
  -23.1961  -10.1307   20.8400 C   0  0  0  0  0  0  0  0  0  0  0  0
  -23.0807   -7.7260   22.2495 C   0  0  0  0  0  0  0  0  0  0  0  0
  -22.2823   -9.9765   21.8826 C   0  0  0  0  0  0  0  0  0  0  0  0
  -28.0890  -14.1320   20.1813 C   0  0  0  0  0  0  0  0  0  0  0  0
  -30.2138  -14.6916   20.0955 C   0  0  0  0  0  0  0  0  0  0  0  0
  -30.5045  -26.4310   19.2538 C   0  0  0  0  0  0  0  0  0  0  0  0
  -30.2518  -24.0634   18.8892 C   0  0  0  0  0  0  0  0  0  0  0  0
  -29.7911  -12.2514   19.7559 C   0  0  0  0  0  0  0  0  0  0  0  0
  -22.4394  -28.1878   22.3749 C   0  0  0  0  0  0  0  0  0  0  0  0
  -23.0793  -25.0857   21.6750 C   0  0  0  0  0  0  0  0  0  0  0  0
  -25.3182  -22.7744   20.5382 C   0  0  0  0  0  0  0  0  0  0  0  0
  -29.3172  -20.4382   19.0815 C   0  0  0  0  0  0  0  0  0  0  0  0
  -18.2785  -27.4152   25.2293 C   0  0  0  0  0  0  0  0  0  0  0  0
  -23.3327  -28.3760   20.0249 C   0  0  0  0  0  0  0  0  0  0  0  0
  -25.0485  -26.6624   21.7173 C   0  0  0  0  0  0  0  0  0  0  0  0
  -19.6670  -26.7885   25.1313 C   0  0  0  0  0  0  0  0  0  0  0  0
  -30.5252  -18.9928   22.1716 C   0  0  0  0  0  0  0  0  0  0  0  0
  -20.7423  -27.8705   25.1319 C   0  0  0  0  0  0  0  0  0  0  0  0
  -30.1537  -17.5207   21.9845 C   0  0  0  0  0  0  0  0  0  0  0  0
  -29.4542  -19.9113   21.5907 C   0  0  0  0  0  0  0  0  0  0  0  0
  -28.7676  -18.1895   19.9667 C   0  0  0  0  0  0  0  0  0  0  0  0
  -20.5898  -28.8005   23.9223 C   0  0  1  0  0  0  0  0  0  0  0  0
  -22.7467  -27.4613   21.0960 C   0  0  1  0  0  0  0  0  0  0  0  0
  -29.8215  -17.2093   20.5131 C   0  0  2  0  0  0  0  0  0  0  0  0
  -25.5656  -20.3132   20.1158 C   0  0  0  0  0  0  0  0  0  0  0  0
  -23.4001  -24.6062   24.6712 C   0  0  0  0  0  0  0  0  0  0  0  0
  -24.5492  -22.4482   24.1321 C   0  0  0  0  0  0  0  0  0  0  0  0
  -22.1754  -22.7993   23.4508 C   0  0  0  0  0  0  0  0  0  0  0  0
  -25.7843  -23.1997   17.6467 C   0  0  0  0  0  0  0  0  0  0  0  0
  -29.8965  -22.7353   18.3435 C   0  0  0  0  0  0  0  0  0  0  0  0
  -31.1276  -28.6431   20.2255 C   0  0  0  0  0  0  0  0  0  0  0  0
  -29.4222  -30.4602   19.8644 C   0  0  0  0  0  0  0  0  0  1  0  0
  -24.0114  -24.0351   22.2286 C   0  0  1  0  0  0  0  0  0  0  0  0
  -25.1835  -21.6583   19.5181 C   0  0  2  0  0  0  0  0  0  0  0  0
  -30.9080  -30.1195   19.9013 C   0  0  1  0  0  0  0  0  0  0  0  0
  -23.5438  -23.4968   23.6103 C   0  0  0  0  0  0  0  0  0  0  0  0
  -30.9381  -24.2542   19.9941 N   0  0  0  0  0  0  0  0  0  0  0  0
  -28.0957  -15.4524   20.3831 N   0  0  0  0  0  0  0  0  0  0  0  0
  -29.4019  -15.7631   20.3255 N   0  0  0  0  0  0  0  0  0  0  0  0
  -23.6368  -26.3504   21.4393 N   0  0  0  0  0  0  0  0  0  0  0  0
  -29.1985  -19.5747   20.1831 N   0  0  0  0  0  0  0  0  0  0  0  0
  -31.5541  -14.8263   20.0078 N   0  0  0  0  0  0  0  0  0  0  0  0
  -28.8059  -11.2572   19.6832 N   0  0  0  0  0  0  0  0  0  0  0  0
  -30.4981  -27.8152   19.2211 N   0  0  0  0  0  0  0  0  0  0  0  0
  -21.1037  -28.1648   22.7280 N   0  0  0  0  0  0  0  0  0  0  0  0
  -24.1301  -23.0103   21.1971 N   0  0  0  0  0  0  0  0  0  0  0  0
  -29.7236  -21.7346   19.3729 N   0  0  0  0  0  0  0  0  0  0  0  0
  -26.0654  -21.9192   18.3455 N   0  3  0  0  0  0  0  0  0  0  0  0
  -30.9971  -11.9313   19.6264 O   0  0  0  0  0  0  0  0  0  0  0  0
  -23.3472  -28.7279   22.9961 O   0  0  0  0  0  0  0  0  0  0  0  0
  -21.9018  -24.7929   21.4529 O   0  0  0  0  0  0  0  0  0  0  0  0
  -26.3729  -23.3743   20.7339 O   0  0  0  0  0  0  0  0  0  0  0  0
  -29.0834  -20.0789   17.9224 O   0  0  0  0  0  0  0  0  0  0  0  0
  -31.5118  -30.9168   20.9221 O   0  0  0  0  0  0  0  0  0  0  0  0
  -23.2541  -11.3234   20.1388 O   0  0  0  0  0  0  0  0  0  0  0  0
  -28.7574  -29.7489   20.9077 O   0  0  0  0  0  0  0  0  0  1  0  0
  -23.0243   -6.5708   22.9251 F   0  0  0  0  0  0  0  0  0  0  0  0
  -21.4566  -10.9796   22.2110 F   0  0  0  0  0  0  0  0  0  0  0  0
  -29.7488  -25.4726   18.0489 S   0  0  0  0  0  0  0  0  0  0  0  0
  1  2  1  0  0  0  0
  1  5  2  0  0  0  0
  2  6  2  0  0  0  0
  3  8  2  0  0  0  0
  3 16  1  0  0  0  0
  4  9  1  0  0  0  0
  4 16  2  0  0  0  0
  5 18  1  0  0  0  0
  6 20  1  0  0  0  0
  7 10  2  0  0  0  0
  7 19  1  0  0  0  0
  8 22  1  0  0  0  0
  9 22  2  0  0  0  0
 10 23  1  0  0  0  0
 11 12  2  0  0  0  0
 11 24  1  0  0  0  0
 12 25  1  0  0  0  0
 13 21  1  0  0  0  0
 13 23  2  0  0  0  0
 14 25  2  0  0  0  0
 14 26  1  0  0  0  0
 15 29  2  0  0  0  0
 15 60  1  0  0  0  0
 16 27  1  0  0  0  0
 17 27  1  0  0  0  0
 17 28  2  0  0  0  0
 17 31  1  0  0  0  0
 18 20  2  0  0  0  0
 18 36  1  0  0  0  0
 19 21  2  0  0  0  0
 19 37  1  0  0  0  0
 20 45  1  0  0  0  0
 21 38  1  0  0  0  0
 22 78  1  0  0  0  0
 23 79  1  0  0  0  0
 24 26  2  0  0  0  0
 24 78  1  0  0  0  0
 25 80  1  0  0  0  0
 26 81  1  0  0  0  0
 27 61  2  0  0  0  0
 28 62  1  0  0  0  0
 28 65  1  0  0  0  0
 29 67  1  0  0  0  0
 29 82  1  0  0  0  0
 30 53  1  0  0  0  0
 30 60  2  0  0  0  0
 30 82  1  0  0  0  0
 31 66  1  0  0  0  0
 31 72  2  0  0  0  0
 32 46  1  0  0  0  0
 32 68  1  0  0  0  0
 32 73  2  0  0  0  0
 33 56  1  0  0  0  0
 33 63  1  0  0  0  0
 33 74  2  0  0  0  0
 34 57  1  0  0  0  0
 34 69  1  0  0  0  0
 34 75  2  0  0  0  0
 35 64  1  0  0  0  0
 35 70  1  0  0  0  0
 35 76  2  0  0  0  0
 36 39  1  0  0  0  0
 37 46  1  0  0  0  0
 38 63  1  0  0  0  0
 39 41  1  0  0  0  0
 40 42  1  0  0  0  0
 40 43  1  0  0  0  0
 41 45  1  0  0  0  0
 42 47  1  0  0  0  0
 43 64  1  0  0  0  0
 44 47  1  0  0  0  0
 44 64  1  0  0  0  0
 45 68  1  0  0  0  0
 46 63  1  0  0  0  0
 47 62  1  0  0  0  0
 48 57  1  0  0  0  0
 49 59  1  0  0  0  0
 50 59  1  0  0  0  0
 51 59  1  0  0  0  0
 52 71  1  0  0  0  0
 53 70  1  0  0  0  0
 54 58  1  0  0  0  0
 54 67  1  0  0  0  0
 55 58  1  0  0  0  0
 55 79  1  0  0  0  0
 56 59  1  0  0  0  0
 56 69  1  0  0  0  0
 57 71  1  0  0  0  0
 58 77  1  0  0  0  0
 61 62  1  0  0  0  0
M  CHG  1  71   1
M  ISO  4  35 100  55 101  70 100  79 101
M  END
> <Batch ID>
0198

> <Smiles>
CNC(C)C(=O)NC(C(=O)N1Cc2cc([101O:1][101CH2:1]C(O)CNc3cnc(C[100NH:0][100C:0](=O)N4CCCC(n5nc(-c6ccc(Oc7ccc(F)cc7F)cc6)c(C(N)=O)c5N)C4)s3)ccc2CC1C(=O)NC1CCCc2ccccc21)C(C)(C)C

> <Shape>
0.297

> <Color>
0.098

> <Negative vol penalty>
0.000

$$$$

  -OEChem-04052305443D

 87 95  0     1  0  0  0  0  0999 V2000
  -16.6468  -28.6722   22.4141 C   0  0  0  0  0  0  0  0  0  0  0  0
  -17.7327  -28.7645   21.5495 C   0  0  0  0  0  0  0  0  0  0  0  0
  -26.3886  -12.6920   21.4850 C   0  0  0  0  0  0  0  0  0  0  0  0
  -25.5510  -13.7754   19.4945 C   0  0  0  0  0  0  0  0  0  0  0  0
  -16.8376  -28.8108   23.7883 C   0  0  0  0  0  0  0  0  0  0  0  0
  -19.0100  -28.9966   22.0585 C   0  0  0  0  0  0  0  0  0  0  0  0
  -22.5145  -26.0123   19.9472 C   0  0  0  0  0  0  0  0  0  0  0  0
  -27.7366  -22.4740   16.5966 C   0  0  0  0  0  0  0  0  0  0  0  0
  -25.1741  -12.0218   21.6313 C   0  0  0  0  0  0  0  0  0  0  0  0
  -24.3365  -13.1051   19.6408 C   0  0  0  0  0  0  0  0  0  0  0  0
  -22.9657  -26.3617   18.6751 C   0  0  0  0  0  0  0  0  0  0  0  0
  -23.6321   -9.3359   20.2745 C   0  0  0  0  0  0  0  0  0  0  0  0
  -23.6751   -7.9742   20.5734 C   0  0  0  0  0  0  0  0  0  0  0  0
  -27.8907  -21.4362   17.5091 C   0  0  0  0  0  0  0  0  0  0  0  0
  -24.9340  -27.3560   19.6531 C   0  0  0  0  0  0  0  0  0  0  0  0
  -22.4648   -8.3859   22.6235 C   0  0  0  0  0  0  0  0  0  0  0  0
  -28.9275  -23.8929   18.0883 C   0  0  0  0  0  0  0  0  0  0  0  0
  -26.5770  -13.5689   20.4166 C   0  0  0  0  0  0  0  0  0  0  0  0
  -28.9630  -13.8253   19.5510 C   0  0  0  0  0  0  0  0  0  0  0  0
  -18.1193  -29.0350   24.3151 C   0  0  0  0  0  0  0  0  0  0  0  0
  -23.2656  -26.3423   21.0844 C   0  0  0  0  0  0  0  0  0  0  0  0
  -19.2179  -29.1396   23.4409 C   0  0  0  0  0  0  0  0  0  0  0  0
  -24.4914  -27.0074   20.9383 C   0  0  0  0  0  0  0  0  0  0  0  0
  -28.2619  -23.7288   16.8842 C   0  0  0  0  0  0  0  0  0  0  0  0
  -24.1481  -12.2283   20.7092 C   0  0  0  0  0  0  0  0  0  0  0  0
  -24.1743  -27.0362   18.5281 C   0  0  0  0  0  0  0  0  0  0  0  0
  -23.0055  -10.2227   21.1501 C   0  0  0  0  0  0  0  0  0  0  0  0
  -23.0915   -7.4992   21.7479 C   0  0  0  0  0  0  0  0  0  0  0  0
  -22.4219   -9.7477   22.3246 C   0  0  0  0  0  0  0  0  0  0  0  0
  -27.8311  -14.2620   20.2653 C   0  0  0  0  0  0  0  0  0  0  0  0
  -28.5731  -21.7028   18.6851 C   0  0  0  0  0  0  0  0  0  0  0  0
  -29.8811  -14.8339   19.7126 C   0  0  0  0  0  0  0  0  0  0  0  0
  -29.1661  -12.6161   18.8079 C   0  0  0  0  0  0  0  0  0  0  0  0
  -22.7715  -28.1494   23.6523 C   0  0  0  0  0  0  0  0  0  0  0  0
  -25.6178  -26.9094   24.5920 C   0  0  0  0  0  0  0  0  0  0  0  0
  -28.5910  -25.4857   23.7087 C   0  0  0  0  0  0  0  0  0  0  0  0
  -29.3679  -20.6785   20.8451 C   0  0  0  0  0  0  0  0  0  0  0  0
  -18.2691  -29.2253   25.8038 C   0  0  0  0  0  0  0  0  0  0  0  0
  -22.7779  -25.9347   22.4476 C   0  0  0  0  0  0  0  0  0  0  0  0
  -25.3451  -27.3667   22.1259 C   0  0  0  0  0  0  0  0  0  0  0  0
  -19.7095  -29.0961   26.2924 C   0  0  0  0  0  0  0  0  0  0  0  0
  -31.1539  -18.2831   22.7814 C   0  0  0  0  0  0  0  0  0  0  0  0
  -20.6510  -29.8943   25.3960 C   0  0  0  0  0  0  0  0  0  0  0  0
  -30.6119  -16.9402   22.2866 C   0  0  0  0  0  0  0  0  0  0  0  0
  -30.0637  -19.3522   22.8280 C   0  0  0  0  0  0  0  0  0  0  0  0
  -28.7731  -18.1875   21.0825 C   0  0  0  0  0  0  0  0  0  0  0  0
  -20.6225  -29.3659   23.9568 C   0  0  1  0  0  0  0  0  0  0  0  0
  -23.3748  -26.7756   23.5719 C   0  0  1  0  0  0  0  0  0  0  0  0
  -29.8485  -17.0960   20.9568 C   0  0  2  0  0  0  0  0  0  0  0  0
  -30.8200  -24.3728   24.0091 C   0  0  0  0  0  0  0  0  0  0  0  0
  -30.8099  -27.7912   17.7638 C   0  0  0  0  0  0  0  0  0  0  0  0
  -32.4209  -27.1865   15.9467 C   0  0  0  0  0  0  0  0  0  0  0  0
  -26.5834  -29.7727   25.0152 C   0  0  0  0  0  0  0  0  0  0  0  0
  -28.9295  -28.9002   25.0654 C   0  0  0  0  0  0  0  0  0  0  0  0
  -27.2885  -28.1606   26.7924 C   0  0  0  0  0  0  0  0  0  0  0  0
  -27.3719  -22.7890   23.7295 C   0  0  0  0  0  0  0  0  0  0  0  0
  -26.3749  -27.1153   15.6450 C   0  0  0  0  0  0  0  0  0  0  0  0
  -30.1725  -26.0668   15.9935 C   0  0  0  0  0  0  0  0  0  0  0  0
  -26.0285  -27.4429   17.0955 C   0  0  0  0  0  0  0  0  0  1  0  0
  -27.0646  -27.3061   24.4235 C   0  0  1  0  0  0  0  0  0  0  0  0
  -29.3208  -24.2654   24.2403 C   0  0  2  0  0  0  0  0  0  0  0  0
  -30.9417  -27.3666   16.3008 C   0  0  0  0  0  0  0  0  0  0  0  0
  -28.6515  -26.1092   16.2458 C   0  0  1  0  0  0  0  0  0  0  0  0
  -27.8883  -27.1415   15.3895 C   0  0  1  0  0  0  0  0  0  0  0  0
  -27.4497  -28.5300   25.3017 C   0  0  0  0  0  0  0  0  0  0  0  0
  -29.0973  -22.9087   18.9994 N   0  0  0  0  0  0  0  0  0  0  0  0
  -28.0116  -15.4550   20.8381 N   0  0  0  0  0  0  0  0  0  0  0  0
  -29.2675  -15.7766   20.4840 N   0  0  0  0  0  0  0  0  0  0  0  0
  -24.8223  -26.9522   23.4382 N   0  0  0  0  0  0  0  0  0  0  0  0
  -29.3868  -19.4466   21.5327 N   0  0  0  0  0  0  0  0  0  0  0  0
  -31.1455  -14.9976   19.2687 N   0  0  0  0  0  0  0  0  0  0  0  0
  -28.1186  -11.6871   18.7440 N   0  0  0  0  0  0  0  0  0  0  0  0
  -28.1249  -24.7774   15.9971 N   0  0  0  0  0  0  0  0  0  0  0  0
  -28.7236  -20.6391   19.6090 N   0  0  0  0  0  0  0  0  0  0  0  0
  -21.4036  -28.1524   23.8484 N   0  0  0  0  0  0  0  0  0  0  0  0
  -27.8507  -26.1068   24.6923 N   0  0  0  0  0  0  0  0  0  0  0  0
  -28.8282  -23.0319   23.5644 N   0  3  0  0  0  0  0  0  0  0  0  0
  -30.2504  -12.3594   18.2317 O   0  0  0  0  0  0  0  0  0  0  0  0
  -23.4937  -29.1336   23.5459 O   0  0  0  0  0  0  0  0  0  0  0  0
  -25.2103  -26.5671   25.7048 O   0  0  0  0  0  0  0  0  0  0  0  0
  -28.6727  -25.8535   22.5388 O   0  0  0  0  0  0  0  0  0  0  0  0
  -29.9090  -21.6871   21.3056 O   0  0  0  0  0  0  0  0  0  0  0  0
  -28.1213  -26.9152   14.0008 O   0  0  0  0  0  0  0  0  0  0  0  0
  -22.9629  -11.5743   20.8515 O   0  0  0  0  0  0  0  0  0  0  0  0
  -24.6199  -27.3814   17.2790 O   0  0  0  0  0  0  0  0  0  1  0  0
  -23.1315   -6.1912   22.0340 F   0  0  0  0  0  0  0  0  0  0  0  0
  -21.8174  -10.5947   23.1690 F   0  0  0  0  0  0  0  0  0  0  0  0
  1  2  1  0  0  0  0
  1  5  2  0  0  0  0
  2  6  2  0  0  0  0
  3  9  2  0  0  0  0
  3 18  1  0  0  0  0
  4 10  1  0  0  0  0
  4 18  2  0  0  0  0
  5 20  1  0  0  0  0
  6 22  1  0  0  0  0
  7 11  2  0  0  0  0
  7 21  1  0  0  0  0
  8 14  2  0  0  0  0
  8 24  1  0  0  0  0
  9 25  1  0  0  0  0
 10 25  2  0  0  0  0
 11 26  1  0  0  0  0
 12 13  2  0  0  0  0
 12 27  1  0  0  0  0
 13 28  1  0  0  0  0
 14 31  1  0  0  0  0
 15 23  1  0  0  0  0
 15 26  2  0  0  0  0
 16 28  2  0  0  0  0
 16 29  1  0  0  0  0
 17 24  2  0  0  0  0
 17 66  1  0  0  0  0
 18 30  1  0  0  0  0
 19 30  1  0  0  0  0
 19 32  2  0  0  0  0
 19 33  1  0  0  0  0
 20 22  2  0  0  0  0
 20 38  1  0  0  0  0
 21 23  2  0  0  0  0
 21 39  1  0  0  0  0
 22 47  1  0  0  0  0
 23 40  1  0  0  0  0
 24 73  1  0  0  0  0
 25 84  1  0  0  0  0
 26 85  1  0  0  0  0
 27 29  2  0  0  0  0
 27 84  1  0  0  0  0
 28 86  1  0  0  0  0
 29 87  1  0  0  0  0
 30 67  2  0  0  0  0
 31 66  2  0  0  0  0
 31 74  1  0  0  0  0
 32 68  1  0  0  0  0
 32 71  1  0  0  0  0
 33 72  1  0  0  0  0
 33 78  2  0  0  0  0
 34 48  1  0  0  0  0
 34 75  1  0  0  0  0
 34 79  2  0  0  0  0
 35 60  1  0  0  0  0
 35 69  1  0  0  0  0
 35 80  2  0  0  0  0
 36 61  1  0  0  0  0
 36 76  1  0  0  0  0
 36 81  2  0  0  0  0
 37 70  1  0  0  0  0
 37 74  1  0  0  0  0
 37 82  2  0  0  0  0
 38 41  1  0  0  0  0
 39 48  1  0  0  0  0
 40 69  1  0  0  0  0
 41 43  1  0  0  0  0
 42 44  1  0  0  0  0
 42 45  1  0  0  0  0
 43 47  1  0  0  0  0
 44 49  1  0  0  0  0
 45 70  1  0  0  0  0
 46 49  1  0  0  0  0
 46 70  1  0  0  0  0
 47 75  1  0  0  0  0
 48 69  1  0  0  0  0
 49 68  1  0  0  0  0
 50 61  1  0  0  0  0
 51 62  1  0  0  0  0
 52 62  1  0  0  0  0
 53 65  1  0  0  0  0
 54 65  1  0  0  0  0
 55 65  1  0  0  0  0
 56 77  1  0  0  0  0
 57 59  1  0  0  0  0
 57 64  1  0  0  0  0
 58 62  1  0  0  0  0
 58 63  1  0  0  0  0
 59 85  1  0  0  0  0
 60 65  1  0  0  0  0
 60 76  1  0  0  0  0
 61 77  1  0  0  0  0
 63 64  1  0  0  0  0
 63 73  1  0  0  0  0
 64 83  1  0  0  0  0
 67 68  1  0  0  0  0
M  CHG  1  77   1
M  ISO  4  37 100  59 101  74 100  85 101
M  END
> <Batch ID>
0198

> <Smiles>
CNC(C)C(=O)NC(C(=O)N1Cc2cc([101O:1][101CH2:1]CC(O)C(CC(C)C)Nc3ccc([100NH:0][100C:0](=O)N4CCCC(n5nc(-c6ccc(Oc7ccc(F)cc7F)cc6)c(C(N)=O)c5N)C4)nc3)ccc2CC1C(=O)NC1CCCc2ccccc21)C(C)(C)C

> <Shape>
0.242

> <Color>
0.083

> <Negative vol penalty>
0.000

$$$$

  -OEChem-04052305443D

 83 91  0     1  0  0  0  0  0999 V2000
  -31.5980  -27.5471   26.8566 C   0  0  0  0  0  0  0  0  0  0  0  0
  -31.4505  -27.0614   25.5613 C   0  0  0  0  0  0  0  0  0  0  0  0
  -24.1380   -9.7108   20.6148 C   0  0  0  0  0  0  0  0  0  0  0  0
  -24.5620  -10.3881   22.8948 C   0  0  0  0  0  0  0  0  0  0  0  0
  -30.4957  -27.6038   27.7084 C   0  0  0  0  0  0  0  0  0  0  0  0
  -30.2006  -26.6312   25.1174 C   0  0  0  0  0  0  0  0  0  0  0  0
  -27.9261  -27.1494   19.4549 C   0  0  0  0  0  0  0  0  0  0  0  0
  -23.7539   -8.4465   21.0618 C   0  0  0  0  0  0  0  0  0  0  0  0
  -24.1779   -9.1239   23.3418 C   0  0  0  0  0  0  0  0  0  0  0  0
  -27.8465  -26.2527   18.3903 C   0  0  0  0  0  0  0  0  0  0  0  0
  -22.9649   -6.1900   25.1136 C   0  0  0  0  0  0  0  0  0  0  0  0
  -22.1152   -6.1222   26.2176 C   0  0  0  0  0  0  0  0  0  0  0  0
  -25.5960  -25.6832   19.0463 C   0  0  0  0  0  0  0  0  0  0  0  0
  -26.9540  -20.8070   18.8877 C   0  0  0  0  0  0  0  0  0  0  0  0
  -20.4447   -7.3818   25.0094 C   0  0  0  0  0  0  0  0  0  0  0  0
  -29.2716  -21.0263   18.4005 C   0  0  0  0  0  0  0  0  0  0  0  0
  -24.5421  -10.6816   21.5313 C   0  0  0  0  0  0  0  0  0  0  0  0
  -24.1134  -13.1130   20.8896 C   0  0  0  0  0  0  0  0  0  0  0  0
  -29.2297  -27.1830   27.2716 C   0  0  0  0  0  0  0  0  0  0  0  0
  -26.8434  -27.3121   20.3311 C   0  0  0  0  0  0  0  0  0  0  0  0
  -29.0805  -26.6810   25.9646 C   0  0  0  0  0  0  0  0  0  0  0  0
  -25.6635  -26.5846   20.1197 C   0  0  0  0  0  0  0  0  0  0  0  0
  -27.2927  -20.0802   20.0237 C   0  0  0  0  0  0  0  0  0  0  0  0
  -27.9564  -21.2926   18.0554 C   0  0  0  0  0  0  0  0  0  0  0  0
  -23.7739   -8.1531   22.4253 C   0  0  0  0  0  0  0  0  0  0  0  0
  -26.6824  -25.5173   18.1876 C   0  0  0  0  0  0  0  0  0  0  0  0
  -22.5545   -6.8538   23.9574 C   0  0  0  0  0  0  0  0  0  0  0  0
  -20.8551   -6.7180   26.1656 C   0  0  0  0  0  0  0  0  0  0  0  0
  -21.2944   -7.4497   23.9053 C   0  0  0  0  0  0  0  0  0  0  0  0
  -24.9394  -11.9875   21.0701 C   0  0  0  0  0  0  0  0  0  0  0  0
  -28.6376  -19.8680   20.2806 C   0  0  0  0  0  0  0  0  0  0  0  0
  -24.9632  -14.0943   20.4409 C   0  0  0  0  0  0  0  0  0  0  0  0
  -22.7038  -13.2586   21.1081 C   0  0  0  0  0  0  0  0  0  0  0  0
  -26.3858  -26.8468   23.4420 C   0  0  0  0  0  0  0  0  0  0  0  0
  -23.5101  -28.2159   22.8270 C   0  0  0  0  0  0  0  0  0  0  0  0
  -21.0749  -28.9421   20.5490 C   0  0  0  0  0  0  0  0  0  0  0  0
  -29.8081  -16.8479   20.7420 C   0  0  0  0  0  0  0  0  0  0  0  0
  -28.0773  -27.2190   28.2438 C   0  0  0  0  0  0  0  0  0  0  0  0
  -26.9355  -28.3031   21.4588 C   0  0  0  0  0  0  0  0  0  0  0  0
  -24.4656  -26.7374   21.0197 C   0  0  0  0  0  0  0  0  0  0  0  0
  -26.7112  -27.0939   27.5741 C   0  0  0  0  0  0  0  0  0  0  0  0
  -29.7611  -13.8249   18.8616 C   0  0  0  0  0  0  0  0  0  0  0  0
  -26.7187  -25.9598   26.5540 C   0  0  0  0  0  0  0  0  0  0  0  0
  -28.4380  -13.1678   19.2584 C   0  0  0  0  0  0  0  0  0  0  0  0
  -30.4075  -14.5490   20.0405 C   0  0  0  0  0  0  0  0  0  0  0  0
  -28.2136  -14.8696   21.1165 C   0  0  0  0  0  0  0  0  0  0  0  0
  -27.7359  -26.2282   25.4383 C   0  0  1  0  0  0  0  0  0  0  0  0
  -25.9580  -28.0103   22.5929 C   0  0  1  0  0  0  0  0  0  0  0  0
  -27.4964  -14.1742   19.9467 C   0  0  2  0  0  0  0  0  0  0  0  0
  -26.2236  -19.5573   20.9194 C   0  0  0  0  0  0  0  0  0  0  0  0
  -18.8257  -30.0373   20.3513 C   0  0  0  0  0  0  0  0  0  0  0  0
  -26.2967  -22.6490   15.0177 C   0  0  0  0  0  0  0  0  0  0  0  0
  -22.2128  -25.7816   24.1313 C   0  0  0  0  0  0  0  0  0  0  0  0
  -20.0457  -26.4579   23.0755 C   0  0  0  0  0  0  0  0  0  0  0  0
  -21.1544  -27.9694   24.7213 C   0  0  0  0  0  0  0  0  0  0  0  0
  -22.0936  -30.9530   18.6313 C   0  0  0  0  0  0  0  0  0  0  0  0
  -29.0601  -19.0941   21.4865 C   0  0  0  0  0  0  0  0  0  0  0  0
  -25.7651  -23.4988   17.3271 C   0  0  0  0  0  0  0  0  0  1  0  0
  -22.1506  -27.7072   22.4124 C   0  0  1  0  0  0  0  0  0  0  0  0
  -20.3305  -30.2300   20.2461 C   0  0  2  0  0  0  0  0  0  0  0  0
  -26.2958  -22.3256   16.5060 C   0  0  2  0  0  0  0  0  0  0  0  0
  -21.4140  -26.9745   23.5691 C   0  0  0  0  0  0  0  0  0  0  0  0
  -29.6393  -20.3240   19.4956 N   0  0  0  0  0  0  0  0  0  0  0  0
  -26.2161  -12.2300   20.7612 N   0  0  0  0  0  0  0  0  0  0  0  0
  -26.1985  -13.5192   20.3819 N   0  0  0  0  0  0  0  0  0  0  0  0
  -24.6069  -27.7142   22.1122 N   0  0  0  0  0  0  0  0  0  0  0  0
  -29.4628  -15.4896   20.6476 N   0  0  0  0  0  0  0  0  0  0  0  0
  -24.7669  -15.3843   20.0949 N   0  0  0  0  0  0  0  0  0  0  0  0
  -21.9815  -12.1503   21.5709 N   0  0  0  0  0  0  0  0  0  0  0  0
  -27.6505  -22.0180   16.9187 N   0  0  0  0  0  0  0  0  0  0  0  0
  -27.2099  -27.1924   24.4959 N   0  0  0  0  0  0  0  0  0  0  0  0
  -21.4295  -28.8577   21.8788 N   0  0  0  0  0  0  0  0  0  0  0  0
  -28.8533  -17.6722   21.3248 N   0  0  0  0  0  0  0  0  0  0  0  0
  -20.6490  -30.7006   18.8684 N   0  3  0  0  0  0  0  0  0  0  0  0
  -22.0998  -14.3348   20.8834 O   0  0  0  0  0  0  0  0  0  0  0  0
  -25.9957  -25.7192   23.1625 O   0  0  0  0  0  0  0  0  0  0  0  0
  -23.5951  -29.0340   23.7463 O   0  0  0  0  0  0  0  0  0  0  0  0
  -21.3143  -28.0939   19.6924 O   0  0  0  0  0  0  0  0  0  0  0  0
  -30.8851  -17.2939   20.3320 O   0  0  0  0  0  0  0  0  0  0  0  0
  -23.3990   -6.9196   22.8618 O   0  0  0  0  0  0  0  0  0  0  0  0
  -26.6022  -24.6408   17.1497 O   0  0  0  0  0  0  0  0  0  1  0  0
  -20.0386   -6.6515   27.2253 F   0  0  0  0  0  0  0  0  0  0  0  0
  -20.8942   -8.0878   22.7970 F   0  0  0  0  0  0  0  0  0  0  0  0
  1  2  1  0  0  0  0
  1  5  2  0  0  0  0
  2  6  2  0  0  0  0
  3  8  2  0  0  0  0
  3 17  1  0  0  0  0
  4  9  1  0  0  0  0
  4 17  2  0  0  0  0
  5 19  1  0  0  0  0
  6 21  1  0  0  0  0
  7 10  2  0  0  0  0
  7 20  1  0  0  0  0
  8 25  1  0  0  0  0
  9 25  2  0  0  0  0
 10 26  1  0  0  0  0
 11 12  2  0  0  0  0
 11 27  1  0  0  0  0
 12 28  1  0  0  0  0
 13 22  1  0  0  0  0
 13 26  2  0  0  0  0
 14 23  1  0  0  0  0
 14 24  2  0  0  0  0
 15 28  2  0  0  0  0
 15 29  1  0  0  0  0
 16 24  1  0  0  0  0
 16 63  2  0  0  0  0
 17 30  1  0  0  0  0
 18 30  1  0  0  0  0
 18 32  2  0  0  0  0
 18 33  1  0  0  0  0
 19 21  2  0  0  0  0
 19 38  1  0  0  0  0
 20 22  2  0  0  0  0
 20 39  1  0  0  0  0
 21 47  1  0  0  0  0
 22 40  1  0  0  0  0
 23 31  2  0  0  0  0
 23 50  1  0  0  0  0
 24 70  1  0  0  0  0
 25 80  1  0  0  0  0
 26 81  1  0  0  0  0
 27 29  2  0  0  0  0
 27 80  1  0  0  0  0
 28 82  1  0  0  0  0
 29 83  1  0  0  0  0
 30 64  2  0  0  0  0
 31 57  1  0  0  0  0
 31 63  1  0  0  0  0
 32 65  1  0  0  0  0
 32 68  1  0  0  0  0
 33 69  1  0  0  0  0
 33 75  2  0  0  0  0
 34 48  1  0  0  0  0
 34 71  1  0  0  0  0
 34 76  2  0  0  0  0
 35 59  1  0  0  0  0
 35 66  1  0  0  0  0
 35 77  2  0  0  0  0
 36 60  1  0  0  0  0
 36 72  1  0  0  0  0
 36 78  2  0  0  0  0
 37 67  1  0  0  0  0
 37 73  1  0  0  0  0
 37 79  2  0  0  0  0
 38 41  1  0  0  0  0
 39 48  1  0  0  0  0
 40 66  1  0  0  0  0
 41 43  1  0  0  0  0
 42 44  1  0  0  0  0
 42 45  1  0  0  0  0
 43 47  1  0  0  0  0
 44 49  1  0  0  0  0
 45 67  1  0  0  0  0
 46 49  1  0  0  0  0
 46 67  1  0  0  0  0
 47 71  1  0  0  0  0
 48 66  1  0  0  0  0
 49 65  1  0  0  0  0
 51 60  1  0  0  0  0
 52 61  1  0  0  0  0
 53 62  1  0  0  0  0
 54 62  1  0  0  0  0
 55 62  1  0  0  0  0
 56 74  1  0  0  0  0
 57 73  1  0  0  0  0
 58 61  1  0  0  0  0
 58 81  1  0  0  0  0
 59 62  1  0  0  0  0
 59 72  1  0  0  0  0
 60 74  1  0  0  0  0
 61 70  1  0  0  0  0
 64 65  1  0  0  0  0
M  CHG  1  74   1
M  ISO  4  37 100  58 101  73 100  81 101
M  END
> <Batch ID>
0198

> <Smiles>
CNC(C)C(=O)NC(C(=O)N1Cc2cc([101O:1][101CH2:1]C(C)Nc3cnc(C[100NH:0][100C:0](=O)N4CCCC(n5nc(-c6ccc(Oc7ccc(F)cc7F)cc6)c(C(N)=O)c5N)C4)c(C)c3)ccc2CC1C(=O)NC1CCCc2ccccc21)C(C)(C)C

> <Shape>
0.239

> <Color>
0.147

> <Negative vol penalty>
0.000

$$$$

  -OEChem-04052305443D

 85 93  0     1  0  0  0  0  0999 V2000
  -16.4961  -29.1794   23.4924 C   0  0  0  0  0  0  0  0  0  0  0  0
  -17.3470  -29.1087   22.3941 C   0  0  0  0  0  0  0  0  0  0  0  0
  -26.3179  -12.4604   21.5187 C   0  0  0  0  0  0  0  0  0  0  0  0
  -25.9239  -13.6370   19.4457 C   0  0  0  0  0  0  0  0  0  0  0  0
  -17.0227  -29.3652   24.7700 C   0  0  0  0  0  0  0  0  0  0  0  0
  -18.7251  -29.2248   22.5726 C   0  0  0  0  0  0  0  0  0  0  0  0
  -23.1037  -26.3545   19.3954 C   0  0  0  0  0  0  0  0  0  0  0  0
  -25.0673  -11.8520   21.4111 C   0  0  0  0  0  0  0  0  0  0  0  0
  -24.6734  -13.0286   19.3380 C   0  0  0  0  0  0  0  0  0  0  0  0
  -23.9034  -26.7564   18.3264 C   0  0  0  0  0  0  0  0  0  0  0  0
  -21.8388  -12.6792   21.9736 C   0  0  0  0  0  0  0  0  0  0  0  0
  -21.0407  -12.6333   23.1167 C   0  0  0  0  0  0  0  0  0  0  0  0
  -25.6616  -27.3431   19.8703 C   0  0  0  0  0  0  0  0  0  0  0  0
  -28.9420  -21.2537   18.2006 C   0  0  0  0  0  0  0  0  0  0  0  0
  -21.0288  -10.2196   23.0115 C   0  0  0  0  0  0  0  0  0  0  0  0
  -29.9181  -23.6694   19.0911 C   0  0  0  0  0  0  0  0  0  0  0  0
  -26.7462  -13.3529   20.5360 C   0  0  0  0  0  0  0  0  0  0  0  0
  -29.2621  -13.5044   20.1428 C   0  0  0  0  0  0  0  0  0  0  0  0
  -18.4085  -29.4739   24.9654 C   0  0  0  0  0  0  0  0  0  0  0  0
  -23.5736  -26.4542   20.7128 C   0  0  0  0  0  0  0  0  0  0  0  0
  -19.2706  -29.4135   23.8538 C   0  0  0  0  0  0  0  0  0  0  0  0
  -24.8669  -26.9394   20.9540 C   0  0  0  0  0  0  0  0  0  0  0  0
  -28.9931  -22.3392   17.3313 C   0  0  0  0  0  0  0  0  0  0  0  0
  -29.4856  -23.5620   17.7770 C   0  0  0  0  0  0  0  0  0  0  0  0
  -24.2451  -12.1361   20.3207 C   0  0  0  0  0  0  0  0  0  0  0  0
  -25.1815  -27.2535   18.5640 C   0  0  0  0  0  0  0  0  0  0  0  0
  -22.2318  -11.4952   21.3495 C   0  0  0  0  0  0  0  0  0  0  0  0
  -20.6357  -11.4036   23.6356 C   0  0  0  0  0  0  0  0  0  0  0  0
  -21.8268  -10.2655   21.8685 C   0  0  0  0  0  0  0  0  0  0  0  0
  -28.0376  -13.9822   20.6469 C   0  0  0  0  0  0  0  0  0  0  0  0
  -30.1799  -14.4585   20.5089 C   0  0  0  0  0  0  0  0  0  0  0  0
  -29.3883  -21.4195   19.5040 C   0  0  0  0  0  0  0  0  0  0  0  0
  -29.5448  -12.3054   19.4091 C   0  0  0  0  0  0  0  0  0  0  0  0
  -22.6614  -28.0520   23.3048 C   0  0  0  0  0  0  0  0  0  0  0  0
  -25.0029  -26.3130   24.7246 C   0  0  0  0  0  0  0  0  0  0  0  0
  -27.9093  -24.5545   24.3970 C   0  0  0  0  0  0  0  0  0  0  0  0
  -29.7388  -20.2913   21.7290 C   0  0  0  0  0  0  0  0  0  0  0  0
  -18.9279  -29.7213   26.3596 C   0  0  0  0  0  0  0  0  0  0  0  0
  -22.7086  -25.9914   21.8530 C   0  0  0  0  0  0  0  0  0  0  0  0
  -25.4260  -27.0476   22.3484 C   0  0  0  0  0  0  0  0  0  0  0  0
  -20.4246  -29.4599   26.5073 C   0  0  0  0  0  0  0  0  0  0  0  0
  -31.0111  -17.7559   23.8809 C   0  0  0  0  0  0  0  0  0  0  0  0
  -21.1949  -30.1041   25.3591 C   0  0  0  0  0  0  0  0  0  0  0  0
  -30.5095  -16.4567   23.2465 C   0  0  0  0  0  0  0  0  0  0  0  0
  -29.9836  -18.8799   23.7596 C   0  0  0  0  0  0  0  0  0  0  0  0
  -28.9926  -17.8301   21.7633 C   0  0  0  0  0  0  0  0  0  0  0  0
  -20.7728  -29.5103   24.0098 C   0  0  1  0  0  0  0  0  0  0  0  0
  -23.0955  -26.6182   23.1890 C   0  0  1  0  0  0  0  0  0  0  0  0
  -30.0196  -16.6867   21.8033 C   0  0  2  0  0  0  0  0  0  0  0  0
  -29.8370  -23.0962   25.0711 C   0  0  0  0  0  0  0  0  0  0  0  0
  -31.5801  -25.8983   17.3880 C   0  0  0  0  0  0  0  0  0  0  0  0
  -26.1658  -28.9434   25.7438 C   0  0  0  0  0  0  0  0  0  0  0  0
  -28.2987  -27.7287   26.2373 C   0  0  0  0  0  0  0  0  0  0  0  0
  -26.1944  -27.0761   27.4072 C   0  0  0  0  0  0  0  0  0  0  0  0
  -26.4099  -22.0821   23.7664 C   0  0  0  0  0  0  0  0  0  0  0  0
  -29.5675  -27.0501   16.4039 C   0  0  0  0  0  0  0  0  0  0  0  0
  -27.3757  -27.5170   17.6853 C   0  0  0  0  0  0  0  0  0  1  0  0
  -26.4816  -26.5032   24.9615 C   0  0  1  0  0  0  0  0  0  0  0  0
  -28.3268  -23.1921   24.9205 C   0  0  2  0  0  0  0  0  0  0  0  0
  -30.0555  -25.9553   17.3611 C   0  0  1  0  0  0  0  0  0  0  0  0
  -28.0406  -27.2197   16.3433 C   0  0  1  0  0  0  0  0  0  0  0  0
  -26.7742  -27.5628   26.0612 C   0  0  0  0  0  0  0  0  0  0  0  0
  -28.1627  -15.1490   21.2848 N   0  0  0  0  0  0  0  0  0  0  0  0
  -29.4767  -15.4123   21.1841 N   0  0  0  0  0  0  0  0  0  0  0  0
  -29.8578  -22.6081   19.9070 N   0  3  0  0  0  0  0  0  0  0  0  0
  -24.5395  -26.5883   23.4303 N   0  0  0  0  0  0  0  0  0  0  0  0
  -29.5689  -19.0430   22.3644 N   0  0  0  0  0  0  0  0  0  0  0  0
  -28.5407  -22.1792   16.0028 N   0  0  0  0  0  0  0  0  0  0  0  0
  -31.5116  -14.5660   20.3161 N   0  0  0  0  0  0  0  0  0  0  0  0
  -28.4855  -11.4353   19.1174 N   0  0  0  0  0  0  0  0  0  0  0  0
  -29.5516  -24.6642   16.9432 N   0  0  0  0  0  0  0  0  0  0  0  0
  -29.3387  -20.3176   20.3934 N   0  0  0  0  0  0  0  0  0  0  0  0
  -21.3870  -28.2147   23.8134 N   0  0  0  0  0  0  0  0  0  0  0  0
  -27.0227  -25.1791   25.2485 N   0  0  0  0  0  0  0  0  0  0  0  0
  -27.8783  -22.1194   23.9883 N   0  3  0  0  0  0  0  0  0  0  0  0
  -30.7050  -12.0063   19.0379 O   0  0  0  0  0  0  0  0  0  0  0  0
  -23.4268  -28.9447   22.9598 O   0  0  0  0  0  0  0  0  0  0  0  0
  -24.2866  -25.9272   25.6519 O   0  0  0  0  0  0  0  0  0  0  0  0
  -28.3306  -25.0198   23.3403 O   0  0  0  0  0  0  0  0  0  0  0  0
  -30.2301  -21.2577   22.3178 O   0  0  0  0  0  0  0  0  0  0  0  0
  -27.7455  -28.3090   15.4646 O   0  0  0  0  0  0  0  0  0  0  0  0
  -23.0249  -11.5424   20.2152 O   0  0  0  0  0  0  0  0  0  0  0  0
  -25.9639  -27.6471   17.5225 O   0  0  0  0  0  0  0  0  0  1  0  0
  -19.8705  -11.3597   24.7342 F   0  0  0  0  0  0  0  0  0  0  0  0
  -22.2023   -9.1247   21.2739 F   0  0  0  0  0  0  0  0  0  0  0  0
  1  2  1  0  0  0  0
  1  5  2  0  0  0  0
  2  6  2  0  0  0  0
  3  8  2  0  0  0  0
  3 17  1  0  0  0  0
  4  9  1  0  0  0  0
  4 17  2  0  0  0  0
  5 19  1  0  0  0  0
  6 21  1  0  0  0  0
  7 10  2  0  0  0  0
  7 20  1  0  0  0  0
  8 25  1  0  0  0  0
  9 25  2  0  0  0  0
 10 26  1  0  0  0  0
 11 12  2  0  0  0  0
 11 27  1  0  0  0  0
 12 28  1  0  0  0  0
 13 22  1  0  0  0  0
 13 26  2  0  0  0  0
 14 23  1  0  0  0  0
 14 32  2  0  0  0  0
 15 28  2  0  0  0  0
 15 29  1  0  0  0  0
 16 24  1  0  0  0  0
 16 65  2  0  0  0  0
 17 30  1  0  0  0  0
 18 30  1  0  0  0  0
 18 31  2  0  0  0  0
 18 33  1  0  0  0  0
 19 21  2  0  0  0  0
 19 38  1  0  0  0  0
 20 22  2  0  0  0  0
 20 39  1  0  0  0  0
 21 47  1  0  0  0  0
 22 40  1  0  0  0  0
 23 24  2  0  0  0  0
 23 68  1  0  0  0  0
 24 71  1  0  0  0  0
 25 82  1  0  0  0  0
 26 83  1  0  0  0  0
 27 29  2  0  0  0  0
 27 82  1  0  0  0  0
 28 84  1  0  0  0  0
 29 85  1  0  0  0  0
 30 63  2  0  0  0  0
 31 64  1  0  0  0  0
 31 69  1  0  0  0  0
 32 65  1  0  0  0  0
 32 72  1  0  0  0  0
 33 70  1  0  0  0  0
 33 76  2  0  0  0  0
 34 48  1  0  0  0  0
 34 73  1  0  0  0  0
 34 77  2  0  0  0  0
 35 58  1  0  0  0  0
 35 66  1  0  0  0  0
 35 78  2  0  0  0  0
 36 59  1  0  0  0  0
 36 74  1  0  0  0  0
 36 79  2  0  0  0  0
 37 67  1  0  0  0  0
 37 72  1  0  0  0  0
 37 80  2  0  0  0  0
 38 41  1  0  0  0  0
 39 48  1  0  0  0  0
 40 66  1  0  0  0  0
 41 43  1  0  0  0  0
 42 44  1  0  0  0  0
 42 45  1  0  0  0  0
 43 47  1  0  0  0  0
 44 49  1  0  0  0  0
 45 67  1  0  0  0  0
 46 49  1  0  0  0  0
 46 67  1  0  0  0  0
 47 73  1  0  0  0  0
 48 66  1  0  0  0  0
 49 64  1  0  0  0  0
 50 59  1  0  0  0  0
 51 60  1  0  0  0  0
 52 62  1  0  0  0  0
 53 62  1  0  0  0  0
 54 62  1  0  0  0  0
 55 75  1  0  0  0  0
 56 60  1  0  0  0  0
 56 61  1  0  0  0  0
 57 61  1  0  0  0  0
 57 83  1  0  0  0  0
 58 62  1  0  0  0  0
 58 74  1  0  0  0  0
 59 75  1  0  0  0  0
 60 71  1  0  0  0  0
 61 81  1  0  0  0  0
 63 64  1  0  0  0  0
M  CHG  2  65   1  75   1
M  ISO  4  37 100  57 101  72 100  83 101
M  END
> <Batch ID>
0198

> <Smiles>
CNC(C)C(=O)NC(C(=O)N1Cc2cc([101O:1][101CH2:1]C(O)CC(C)Nc3cnc([100NH:0][100C:0](=O)N4CCCC(n5nc(-c6ccc(Oc7ccc(F)cc7F)cc6)c(C(N)=O)c5N)C4)cc3N)ccc2CC1C(=O)NC1CCCc2ccccc21)C(C)(C)C

> <Shape>
0.244

> <Color>
0.064

> <Negative vol penalty>
0.000

$$$$

  -OEChem-04052305443D

 83 91  0     1  0  0  0  0  0999 V2000
  -28.0819  -34.0245   25.2114 C   0  0  0  0  0  0  0  0  0  0  0  0
  -28.2211  -32.7453   24.6824 C   0  0  0  0  0  0  0  0  0  0  0  0
  -22.0441  -11.0188   20.6231 C   0  0  0  0  0  0  0  0  0  0  0  0
  -22.0783  -11.6556   18.2928 C   0  0  0  0  0  0  0  0  0  0  0  0
  -26.8293  -34.4723   25.6292 C   0  0  0  0  0  0  0  0  0  0  0  0
  -27.1079  -31.9128   24.5719 C   0  0  0  0  0  0  0  0  0  0  0  0
  -26.8840  -29.5520   20.0974 C   0  0  0  0  0  0  0  0  0  0  0  0
  -21.4308   -9.8127   20.2846 C   0  0  0  0  0  0  0  0  0  0  0  0
  -21.4650  -10.4494   17.9542 C   0  0  0  0  0  0  0  0  0  0  0  0
  -27.7177  -28.4492   19.9169 C   0  0  0  0  0  0  0  0  0  0  0  0
  -22.3554   -6.8182   19.0154 C   0  0  0  0  0  0  0  0  0  0  0  0
  -22.8436   -5.6538   19.6082 C   0  0  0  0  0  0  0  0  0  0  0  0
  -25.8598  -26.9784   20.3689 C   0  0  0  0  0  0  0  0  0  0  0  0
  -20.6741   -5.2433   20.5888 C   0  0  0  0  0  0  0  0  0  0  0  0
  -25.2060  -22.9107   17.1576 C   0  0  0  0  0  0  0  0  0  0  0  0
  -22.3678  -11.9403   19.6273 C   0  0  0  0  0  0  0  0  0  0  0  0
  -24.3822  -13.4426   20.0664 C   0  0  0  0  0  0  0  0  0  0  0  0
  -25.6985  -33.6484   25.5148 C   0  0  0  0  0  0  0  0  0  0  0  0
  -25.5322  -29.3762   20.4262 C   0  0  0  0  0  0  0  0  0  0  0  0
  -25.8393  -32.3496   24.9898 C   0  0  0  0  0  0  0  0  0  0  0  0
  -25.0105  -28.0806   20.5505 C   0  0  0  0  0  0  0  0  0  0  0  0
  -26.2290  -21.9944   17.0511 C   0  0  0  0  0  0  0  0  0  0  0  0
  -25.9647  -20.8083   17.7950 C   0  0  0  0  0  0  0  0  0  0  0  0
  -21.1412   -9.5279   18.9502 C   0  0  0  0  0  0  0  0  0  0  0  0
  -27.2063  -27.1622   20.0555 C   0  0  0  0  0  0  0  0  0  0  0  0
  -21.0264   -7.1952   19.2093 C   0  0  0  0  0  0  0  0  0  0  0  0
  -22.0030   -4.8664   20.3949 C   0  0  0  0  0  0  0  0  0  0  0  0
  -20.1858   -6.4077   19.9960 C   0  0  0  0  0  0  0  0  0  0  0  0
  -23.0009  -13.1867   19.9764 C   0  0  0  0  0  0  0  0  0  0  0  0
  -24.4636  -14.7651   20.4281 C   0  0  0  0  0  0  0  0  0  0  0  0
  -24.7497  -20.8634   18.4420 C   0  0  0  0  0  0  0  0  0  0  0  0
  -25.4926  -12.5635   19.8429 C   0  0  0  0  0  0  0  0  0  0  0  0
  -23.7020  -30.1798   22.8977 C   0  0  0  0  0  0  0  0  0  0  0  0
  -21.3294  -29.0050   21.0233 C   0  0  0  0  0  0  0  0  0  0  0  0
  -20.4123  -26.9468   18.4603 C   0  0  0  0  0  0  0  0  0  0  0  0
  -22.8523  -20.0683   19.8961 C   0  0  0  0  0  0  0  0  0  0  0  0
  -24.3738  -34.1591   26.0236 C   0  0  0  0  0  0  0  0  0  0  0  0
  -24.6399  -30.5757   20.5913 C   0  0  0  0  0  0  0  0  0  0  0  0
  -23.5616  -27.8376   20.8825 C   0  0  0  0  0  0  0  0  0  0  0  0
  -23.1778  -33.3517   25.5257 C   0  0  0  0  0  0  0  0  0  0  0  0
  -20.8801  -17.9773   21.9973 C   0  0  0  0  0  0  0  0  0  0  0  0
  -23.4442  -31.8570   25.6731 C   0  0  0  0  0  0  0  0  0  0  0  0
  -21.3697  -16.5656   21.6662 C   0  0  0  0  0  0  0  0  0  0  0  0
  -20.8525  -18.8727   20.7599 C   0  0  0  0  0  0  0  0  0  0  0  0
  -22.6013  -17.5181   19.6755 C   0  0  0  0  0  0  0  0  0  0  0  0
  -24.6511  -31.4260   24.8308 C   0  0  1  0  0  0  0  0  0  0  0  0
  -23.3988  -30.2864   21.4299 C   0  0  1  0  0  0  0  0  0  0  0  0
  -22.7081  -16.5979   20.9025 C   0  0  2  0  0  0  0  0  0  0  0  0
  -26.8890  -19.6489   17.8655 C   0  0  0  0  0  0  0  0  0  0  0  0
  -18.3973  -26.1701   17.1821 C   0  0  0  0  0  0  0  0  0  0  0  0
  -20.5401  -27.2116   23.3622 C   0  0  0  0  0  0  0  0  0  0  0  0
  -19.1972  -25.8327   21.7612 C   0  0  0  0  0  0  0  0  0  0  0  0
  -18.6152  -28.2297   22.1325 C   0  0  0  0  0  0  0  0  0  0  0  0
  -21.4699  -28.0207   15.9133 C   0  0  0  0  0  0  0  0  0  0  0  0
  -27.4793  -22.2316   16.2375 C   0  0  0  0  0  0  0  0  0  0  0  0
  -29.4622  -24.8807   18.3602 C   0  0  0  0  0  0  0  0  0  0  0  0
  -28.2880  -24.2716   17.5806 C   0  0  0  0  0  0  0  0  0  0  0  0
  -29.1069  -26.2318   18.9702 C   0  0  0  0  0  0  0  0  0  1  0  0
  -20.6980  -27.6486   20.8225 C   0  0  1  0  0  0  0  0  0  0  0  0
  -19.5316  -27.1809   17.2462 C   0  0  2  0  0  0  0  0  0  0  0  0
  -28.6385  -22.8954   17.0006 C   0  0  1  0  0  0  0  0  0  0  0  0
  -19.7904  -27.2349   22.0152 C   0  0  0  0  0  0  0  0  0  0  0  0
  -22.2581  -14.2604   20.2584 N   0  0  0  0  0  0  0  0  0  0  0  0
  -23.1761  -15.2038   20.5292 N   0  0  0  0  0  0  0  0  0  0  0  0
  -22.7309  -29.0428   21.0405 N   0  0  0  0  0  0  0  0  0  0  0  0
  -22.1549  -18.8573   20.0904 N   0  0  0  0  0  0  0  0  0  0  0  0
  -25.5101  -15.5839   20.6664 N   0  0  0  0  0  0  0  0  0  0  0  0
  -25.2308  -11.2361   19.4771 N   0  0  0  0  0  0  0  0  0  0  0  0
  -24.0943  -19.9258   19.2781 N   0  0  0  0  0  0  0  0  0  0  0  0
  -24.2800  -31.3134   23.4365 N   0  0  0  0  0  0  0  0  0  0  0  0
  -20.0081  -27.7055   19.5383 N   0  0  0  0  0  0  0  0  0  0  0  0
  -20.3334  -27.0675   15.9951 N   0  3  0  0  0  0  0  0  0  0  0  0
  -26.6815  -12.9394   19.9800 O   0  0  0  0  0  0  0  0  0  0  0  0
  -23.4302  -29.1462   23.4973 O   0  0  0  0  0  0  0  0  0  0  0  0
  -20.6059  -29.9956   21.1528 O   0  0  0  0  0  0  0  0  0  0  0  0
  -21.3614  -26.1659   18.4541 O   0  0  0  0  0  0  0  0  0  0  0  0
  -22.3945  -21.1490   20.2762 O   0  0  0  0  0  0  0  0  0  0  0  0
  -29.0897  -22.0426   18.0504 O   0  0  0  0  0  0  0  0  0  0  0  0
  -20.5430   -8.3510   18.6194 O   0  0  0  0  0  0  0  0  0  0  0  0
  -28.0180  -26.0840   19.8806 O   0  0  0  0  0  0  0  0  0  1  0  0
  -22.4716   -3.7475   20.9629 F   0  0  0  0  0  0  0  0  0  0  0  0
  -18.9079   -6.7641   20.1850 F   0  0  0  0  0  0  0  0  0  0  0  0
  -23.9335  -22.3404   18.1514 S   0  0  0  0  0  0  0  0  0  0  0  0
  1  2  1  0  0  0  0
  1  5  2  0  0  0  0
  2  6  2  0  0  0  0
  3  8  2  0  0  0  0
  3 16  1  0  0  0  0
  4  9  1  0  0  0  0
  4 16  2  0  0  0  0
  5 18  1  0  0  0  0
  6 20  1  0  0  0  0
  7 10  2  0  0  0  0
  7 19  1  0  0  0  0
  8 24  1  0  0  0  0
  9 24  2  0  0  0  0
 10 25  1  0  0  0  0
 11 12  2  0  0  0  0
 11 26  1  0  0  0  0
 12 27  1  0  0  0  0
 13 21  1  0  0  0  0
 13 25  2  0  0  0  0
 14 27  2  0  0  0  0
 14 28  1  0  0  0  0
 15 22  2  0  0  0  0
 15 83  1  0  0  0  0
 16 29  1  0  0  0  0
 17 29  1  0  0  0  0
 17 30  2  0  0  0  0
 17 32  1  0  0  0  0
 18 20  2  0  0  0  0
 18 37  1  0  0  0  0
 19 21  2  0  0  0  0
 19 38  1  0  0  0  0
 20 46  1  0  0  0  0
 21 39  1  0  0  0  0
 22 23  1  0  0  0  0
 22 55  1  0  0  0  0
 23 31  2  0  0  0  0
 23 49  1  0  0  0  0
 24 79  1  0  0  0  0
 25 80  1  0  0  0  0
 26 28  2  0  0  0  0
 26 79  1  0  0  0  0
 27 81  1  0  0  0  0
 28 82  1  0  0  0  0
 29 63  2  0  0  0  0
 30 64  1  0  0  0  0
 30 67  1  0  0  0  0
 31 69  1  0  0  0  0
 31 83  1  0  0  0  0
 32 68  1  0  0  0  0
 32 73  2  0  0  0  0
 33 47  1  0  0  0  0
 33 70  1  0  0  0  0
 33 74  2  0  0  0  0
 34 59  1  0  0  0  0
 34 65  1  0  0  0  0
 34 75  2  0  0  0  0
 35 60  1  0  0  0  0
 35 71  1  0  0  0  0
 35 76  2  0  0  0  0
 36 66  1  0  0  0  0
 36 69  1  0  0  0  0
 36 77  2  0  0  0  0
 37 40  1  0  0  0  0
 38 47  1  0  0  0  0
 39 65  1  0  0  0  0
 40 42  1  0  0  0  0
 41 43  1  0  0  0  0
 41 44  1  0  0  0  0
 42 46  1  0  0  0  0
 43 48  1  0  0  0  0
 44 66  1  0  0  0  0
 45 48  1  0  0  0  0
 45 66  1  0  0  0  0
 46 70  1  0  0  0  0
 47 65  1  0  0  0  0
 48 64  1  0  0  0  0
 50 60  1  0  0  0  0
 51 62  1  0  0  0  0
 52 62  1  0  0  0  0
 53 62  1  0  0  0  0
 54 72  1  0  0  0  0
 55 61  1  0  0  0  0
 56 57  1  0  0  0  0
 56 58  1  0  0  0  0
 57 61  1  0  0  0  0
 58 80  1  0  0  0  0
 59 62  1  0  0  0  0
 59 71  1  0  0  0  0
 60 72  1  0  0  0  0
 61 78  1  0  0  0  0
 63 64  1  0  0  0  0
M  CHG  1  72   1
M  ISO  4  36 100  58 101  69 100  80 101
M  END
> <Batch ID>
0198

> <Smiles>
CNC(C)C(=O)NC(C(=O)N1Cc2cc([101O:1][101CH2:1]CCC(O)Cc3csc([100NH:0][100C:0](=O)N4CCCC(n5nc(-c6ccc(Oc7ccc(F)cc7F)cc6)c(C(N)=O)c5N)C4)c3C)ccc2CC1C(=O)NC1CCCc2ccccc21)C(C)(C)C

> <Shape>
0.232

> <Color>
0.103

> <Negative vol penalty>
0.000

$$$$

  -OEChem-04052305443D

 83 91  0     1  0  0  0  0  0999 V2000
  -21.5573  -12.6479   19.7077 C   0  0  0  0  0  0  0  0  0  0  0  0
  -21.6051  -13.8626   20.3841 C   0  0  0  0  0  0  0  0  0  0  0  0
  -30.1841  -28.2844   21.5164 C   0  0  0  0  0  0  0  0  0  0  0  0
  -29.0008  -26.2255   21.9611 C   0  0  0  0  0  0  0  0  0  0  0  0
  -22.7185  -11.8923   19.5510 C   0  0  0  0  0  0  0  0  0  0  0  0
  -22.8142  -14.3220   20.9052 C   0  0  0  0  0  0  0  0  0  0  0  0
  -23.6012  -19.2323   19.9490 C   0  0  0  0  0  0  0  0  0  0  0  0
  -31.2525  -27.8384   22.2944 C   0  0  0  0  0  0  0  0  0  0  0  0
  -30.0692  -25.7795   22.7391 C   0  0  0  0  0  0  0  0  0  0  0  0
  -22.9178  -20.1530   20.7421 C   0  0  0  0  0  0  0  0  0  0  0  0
  -31.2629  -26.2922   25.8605 C   0  0  0  0  0  0  0  0  0  0  0  0
  -30.9679  -25.7040   27.0903 C   0  0  0  0  0  0  0  0  0  0  0  0
  -24.9050  -20.4734   22.0717 C   0  0  0  0  0  0  0  0  0  0  0  0
  -32.0364  -23.6606   26.3692 C   0  0  0  0  0  0  0  0  0  0  0  0
  -29.0582  -27.4780   21.3498 C   0  0  0  0  0  0  0  0  0  0  0  0
  -27.7696  -27.7456   19.1645 C   0  0  0  0  0  0  0  0  0  0  0  0
  -23.9443  -12.3473   20.0621 C   0  0  0  0  0  0  0  0  0  0  0  0
  -24.9407  -18.9166   20.2183 C   0  0  0  0  0  0  0  0  0  0  0  0
  -23.9927  -13.5712   20.7564 C   0  0  0  0  0  0  0  0  0  0  0  0
  -25.6039  -19.5503   21.2789 C   0  0  0  0  0  0  0  0  0  0  0  0
  -31.1950  -26.5860   22.9057 C   0  0  0  0  0  0  0  0  0  0  0  0
  -23.5688  -20.7715   21.8055 C   0  0  0  0  0  0  0  0  0  0  0  0
  -31.9446  -25.5647   24.8849 C   0  0  0  0  0  0  0  0  0  0  0  0
  -31.3547  -24.3882   27.3447 C   0  0  0  0  0  0  0  0  0  0  0  0
  -32.3314  -24.2489   25.1394 C   0  0  0  0  0  0  0  0  0  0  0  0
  -27.9540  -27.9383   20.5467 C   0  0  0  0  0  0  0  0  0  0  0  0
  -26.5780  -28.3695   18.8867 C   0  0  0  0  0  0  0  0  0  0  0  0
  -20.6087  -26.1358   22.6653 C   0  0  0  0  0  0  0  0  0  0  0  0
  -20.2768  -24.1459   21.6819 C   0  0  0  0  0  0  0  0  0  0  0  0
  -21.3192  -24.2569   23.6664 C   0  0  0  0  0  0  0  0  0  0  0  0
  -28.6012  -27.0634   18.2164 C   0  0  0  0  0  0  0  0  0  0  0  0
  -26.5015  -16.2698   21.0320 C   0  0  0  0  0  0  0  0  0  0  0  0
  -29.1113  -18.1589   20.6540 C   0  0  0  0  0  0  0  0  0  0  0  0
  -30.4277  -21.3073   20.6148 C   0  0  0  0  0  0  0  0  0  0  0  0
  -21.7835  -29.6754   22.2272 C   0  0  0  0  0  0  0  0  0  0  0  0
  -25.1638  -11.4732   19.9091 C   0  0  0  0  0  0  0  0  0  0  0  0
  -25.6716  -17.9413   19.3369 C   0  0  0  0  0  0  0  0  0  0  0  0
  -27.0473  -19.2613   21.5974 C   0  0  0  0  0  0  0  0  0  0  0  0
  -26.4766  -12.2091   20.1649 C   0  0  0  0  0  0  0  0  0  0  0  0
  -23.7946  -31.9620   20.3823 C   0  0  0  0  0  0  0  0  0  0  0  0
  -26.3810  -13.0445   21.4377 C   0  0  0  0  0  0  0  0  0  0  0  0
  -25.0720  -31.1727   20.0905 C   0  0  0  0  0  0  0  0  0  0  0  0
  -23.2300  -31.6319   21.7623 C   0  0  0  0  0  0  0  0  0  0  0  0
  -24.2873  -29.4061   21.7222 C   0  0  0  0  0  0  0  0  0  0  0  0
  -25.2900  -14.1150   21.3144 C   0  0  1  0  0  0  0  0  0  0  0  0
  -26.8825  -17.3115   20.0183 C   0  0  1  0  0  0  0  0  0  0  0  0
  -24.8632  -29.6636   20.3192 C   0  0  2  0  0  0  0  0  0  0  0  0
  -32.5980  -22.5314   20.3166 C   0  0  0  0  0  0  0  0  0  0  0  0
  -22.3457  -21.8121   26.2725 C   0  0  0  0  0  0  0  0  0  0  0  0
  -29.9581  -17.3382   23.4681 C   0  0  0  0  0  0  0  0  0  0  0  0
  -31.5545  -19.2668   23.4749 C   0  0  0  0  0  0  0  0  0  0  0  0
  -31.8225  -17.4341   21.8039 C   0  0  0  0  0  0  0  0  0  0  0  0
  -29.4138  -22.7651   18.2471 C   0  0  0  0  0  0  0  0  0  0  0  0
  -20.4624  -27.6194   22.6592 C   0  0  0  0  0  0  0  0  0  0  0  0
  -23.3080  -21.7738   23.9463 C   0  0  0  0  0  0  0  0  0  1  0  0
  -29.9110  -19.0699   21.5537 C   0  0  1  0  0  0  0  0  0  0  0  0
  -31.3497  -22.0014   19.6285 C   0  0  2  0  0  0  0  0  0  0  0  0
  -22.1237  -22.1929   24.8146 C   0  0  2  0  0  0  0  0  0  0  0  0
  -30.7837  -18.2815   22.5706 C   0  0  0  0  0  0  0  0  0  0  0  0
  -26.9592  -28.6307   21.1080 N   0  0  0  0  0  0  0  0  0  0  0  0
  -20.1102  -25.4761   21.6071 N   0  0  0  0  0  0  0  0  0  0  0  0
  -21.2246  -25.5949   23.7289 N   0  0  0  0  0  0  0  0  0  0  0  0
  -20.8699  -23.4675   22.6775 N   0  0  0  0  0  0  0  0  0  0  0  0
  -26.1383  -28.8785   20.0732 N   0  0  0  0  0  0  0  0  0  0  0  0
  -27.7170  -18.2957   20.7105 N   0  0  0  0  0  0  0  0  0  0  0  0
  -23.0542  -30.1856   21.9141 N   0  0  0  0  0  0  0  0  0  0  0  0
  -25.8739  -28.5269   17.7457 N   0  0  0  0  0  0  0  0  0  0  0  0
  -19.7787  -23.3832   20.6031 N   0  0  0  0  0  0  0  0  0  0  0  0
  -29.7911  -26.4785   18.6705 N   0  0  0  0  0  0  0  0  0  0  0  0
  -21.9428  -23.6283   24.7283 N   0  0  0  0  0  0  0  0  0  0  0  0
  -25.7597  -15.2254   20.5139 N   0  0  0  0  0  0  0  0  0  0  0  0
  -30.6695  -19.9510   20.6723 N   0  0  0  0  0  0  0  0  0  0  0  0
  -21.7029  -28.2934   22.3469 N   0  0  0  0  0  0  0  0  0  0  0  0
  -30.6482  -23.1458   18.9809 N   0  3  0  0  0  0  0  0  0  0  0  0
  -28.3061  -26.9894   16.9994 O   0  0  0  0  0  0  0  0  0  0  0  0
  -26.8557  -16.4030   22.1975 O   0  0  0  0  0  0  0  0  0  0  0  0
  -29.7021  -17.3605   19.9225 O   0  0  0  0  0  0  0  0  0  0  0  0
  -29.5806  -21.9087   21.2714 O   0  0  0  0  0  0  0  0  0  0  0  0
  -20.7930  -30.3976   22.3830 O   0  0  0  0  0  0  0  0  0  0  0  0
  -32.2375  -26.1504   23.6648 O   0  0  0  0  0  0  0  0  0  0  0  0
  -22.9040  -21.6700   22.5817 O   0  0  0  0  0  0  0  0  0  1  0  0
  -31.0726  -23.8240   28.5263 F   0  0  0  0  0  0  0  0  0  0  0  0
  -32.9877  -23.5453   24.2066 F   0  0  0  0  0  0  0  0  0  0  0  0
  1  2  1  0  0  0  0
  1  5  2  0  0  0  0
  2  6  2  0  0  0  0
  3  8  2  0  0  0  0
  3 15  1  0  0  0  0
  4  9  1  0  0  0  0
  4 15  2  0  0  0  0
  5 17  1  0  0  0  0
  6 19  1  0  0  0  0
  7 10  2  0  0  0  0
  7 18  1  0  0  0  0
  8 21  1  0  0  0  0
  9 21  2  0  0  0  0
 10 22  1  0  0  0  0
 11 12  2  0  0  0  0
 11 23  1  0  0  0  0
 12 24  1  0  0  0  0
 13 20  1  0  0  0  0
 13 22  2  0  0  0  0
 14 24  2  0  0  0  0
 14 25  1  0  0  0  0
 15 26  1  0  0  0  0
 16 26  1  0  0  0  0
 16 27  2  0  0  0  0
 16 31  1  0  0  0  0
 17 19  2  0  0  0  0
 17 36  1  0  0  0  0
 18 20  2  0  0  0  0
 18 37  1  0  0  0  0
 19 45  1  0  0  0  0
 20 38  1  0  0  0  0
 21 80  1  0  0  0  0
 22 81  1  0  0  0  0
 23 25  2  0  0  0  0
 23 80  1  0  0  0  0
 24 82  1  0  0  0  0
 25 83  1  0  0  0  0
 26 60  2  0  0  0  0
 27 64  1  0  0  0  0
 27 67  1  0  0  0  0
 28 54  1  0  0  0  0
 28 61  2  0  0  0  0
 28 62  1  0  0  0  0
 29 61  1  0  0  0  0
 29 63  2  0  0  0  0
 29 68  1  0  0  0  0
 30 62  2  0  0  0  0
 30 63  1  0  0  0  0
 30 70  1  0  0  0  0
 31 69  1  0  0  0  0
 31 75  2  0  0  0  0
 32 46  1  0  0  0  0
 32 71  1  0  0  0  0
 32 76  2  0  0  0  0
 33 56  1  0  0  0  0
 33 65  1  0  0  0  0
 33 77  2  0  0  0  0
 34 57  1  0  0  0  0
 34 72  1  0  0  0  0
 34 78  2  0  0  0  0
 35 66  1  0  0  0  0
 35 73  1  0  0  0  0
 35 79  2  0  0  0  0
 36 39  1  0  0  0  0
 37 46  1  0  0  0  0
 38 65  1  0  0  0  0
 39 41  1  0  0  0  0
 40 42  1  0  0  0  0
 40 43  1  0  0  0  0
 41 45  1  0  0  0  0
 42 47  1  0  0  0  0
 43 66  1  0  0  0  0
 44 47  1  0  0  0  0
 44 66  1  0  0  0  0
 45 71  1  0  0  0  0
 46 65  1  0  0  0  0
 47 64  1  0  0  0  0
 48 57  1  0  0  0  0
 49 58  1  0  0  0  0
 50 59  1  0  0  0  0
 51 59  1  0  0  0  0
 52 59  1  0  0  0  0
 53 74  1  0  0  0  0
 54 73  1  0  0  0  0
 55 58  1  0  0  0  0
 55 81  1  0  0  0  0
 56 59  1  0  0  0  0
 56 72  1  0  0  0  0
 57 74  1  0  0  0  0
 58 70  1  0  0  0  0
 60 64  1  0  0  0  0
M  CHG  1  74   1
M  ISO  4  35 100  55 101  73 100  81 101
M  END
> <Batch ID>
0198

> <Smiles>
CNC(C)C(=O)NC(C(=O)N1Cc2cc([101O:1][101CH2:1]C(C)Nc3nc(N)nc(C[100NH:0][100C:0](=O)N4CCCC(n5nc(-c6ccc(Oc7ccc(F)cc7F)cc6)c(C(N)=O)c5N)C4)n3)ccc2CC1C(=O)NC1CCCc2ccccc21)C(C)(C)C

> <Shape>
0.217

> <Color>
0.063

> <Negative vol penalty>
0.000

$$$$

  -OEChem-04052305443D

 84 92  0     1  0  0  0  0  0999 V2000
  -16.4603  -29.3576   23.7819 C   0  0  0  0  0  0  0  0  0  0  0  0
  -16.9289  -28.7399   22.6268 C   0  0  0  0  0  0  0  0  0  0  0  0
  -26.4921  -12.4893   21.5026 C   0  0  0  0  0  0  0  0  0  0  0  0
  -25.6591  -13.5598   19.5033 C   0  0  0  0  0  0  0  0  0  0  0  0
  -17.2420  -30.3170   24.4241 C   0  0  0  0  0  0  0  0  0  0  0  0
  -18.1791  -29.0821   22.1126 C   0  0  0  0  0  0  0  0  0  0  0  0
  -22.1399  -25.3642   19.2850 C   0  0  0  0  0  0  0  0  0  0  0  0
  -25.2712  -11.8336   21.6603 C   0  0  0  0  0  0  0  0  0  0  0  0
  -24.4381  -12.9041   19.6610 C   0  0  0  0  0  0  0  0  0  0  0  0
  -22.4142  -25.1363   17.9372 C   0  0  0  0  0  0  0  0  0  0  0  0
  -22.4973   -9.5998   22.3889 C   0  0  0  0  0  0  0  0  0  0  0  0
  -22.5266   -8.2419   22.7062 C   0  0  0  0  0  0  0  0  0  0  0  0
  -24.2456  -26.7022   18.0514 C   0  0  0  0  0  0  0  0  0  0  0  0
  -23.7254   -7.7893   20.6579 C   0  0  0  0  0  0  0  0  0  0  0  0
  -28.8510  -23.3788   17.5661 C   0  0  0  0  0  0  0  0  0  0  0  0
  -26.6861  -13.3524   20.4241 C   0  0  0  0  0  0  0  0  0  0  0  0
  -29.0716  -13.5740   19.5478 C   0  0  0  0  0  0  0  0  0  0  0  0
  -18.5065  -30.6641   23.9230 C   0  0  0  0  0  0  0  0  0  0  0  0
  -22.9109  -26.2725   20.0246 C   0  0  0  0  0  0  0  0  0  0  0  0
  -18.9779  -30.0480   22.7479 C   0  0  0  0  0  0  0  0  0  0  0  0
  -23.9807  -26.9379   19.4091 C   0  0  0  0  0  0  0  0  0  0  0  0
  -24.2441  -12.0410   20.7395 C   0  0  0  0  0  0  0  0  0  0  0  0
  -23.4653  -25.8076   17.3194 C   0  0  0  0  0  0  0  0  0  0  0  0
  -23.0819  -10.0526   21.2061 C   0  0  0  0  0  0  0  0  0  0  0  0
  -23.1407   -7.3366   21.8407 C   0  0  0  0  0  0  0  0  0  0  0  0
  -23.6960   -9.1473   20.3407 C   0  0  0  0  0  0  0  0  0  0  0  0
  -27.9470  -14.0304   20.2610 C   0  0  0  0  0  0  0  0  0  0  0  0
  -30.0010  -14.5745   19.6952 C   0  0  0  0  0  0  0  0  0  0  0  0
  -28.1371  -22.6723   16.6209 C   0  0  0  0  0  0  0  0  0  0  0  0
  -28.7620  -21.4454   18.5975 C   0  0  0  0  0  0  0  0  0  0  0  0
  -29.2594  -12.3547   18.8172 C   0  0  0  0  0  0  0  0  0  0  0  0
  -22.3140  -28.9884   21.5645 C   0  0  0  0  0  0  0  0  0  0  0  0
  -25.4048  -28.6826   22.5004 C   0  0  0  0  0  0  0  0  0  0  0  0
  -28.5021  -27.3862   21.8898 C   0  0  0  0  0  0  0  0  0  0  0  0
  -29.5536  -20.4362   20.7657 C   0  0  0  0  0  0  0  0  0  0  0  0
  -19.2951  -31.7410   24.6252 C   0  0  0  0  0  0  0  0  0  0  0  0
  -22.6190  -26.4871   21.4845 C   0  0  0  0  0  0  0  0  0  0  0  0
  -24.8512  -27.9078   20.1641 C   0  0  0  0  0  0  0  0  0  0  0  0
  -20.7682  -31.7755   24.2261 C   0  0  0  0  0  0  0  0  0  0  0  0
  -31.3210  -18.0431   22.7219 C   0  0  0  0  0  0  0  0  0  0  0  0
  -20.9126  -31.6914   22.7099 C   0  0  0  0  0  0  0  0  0  0  0  0
  -30.7631  -16.7007   22.2436 C   0  0  0  0  0  0  0  0  0  0  0  0
  -30.2424  -19.1242   22.7605 C   0  0  0  0  0  0  0  0  0  0  0  0
  -28.9333  -17.9543   21.0323 C   0  0  0  0  0  0  0  0  0  0  0  0
  -20.3393  -30.3743   22.1733 C   0  0  1  0  0  0  0  0  0  0  0  0
  -23.1458  -27.8190   22.0097 C   0  0  1  0  0  0  0  0  0  0  0  0
  -29.9967  -16.8502   20.9147 C   0  0  2  0  0  0  0  0  0  0  0  0
  -29.5810  -26.0811   13.9649 C   0  0  0  0  0  0  0  0  0  0  0  0
  -30.8355  -27.3412   22.8119 C   0  0  0  0  0  0  0  0  0  0  0  0
  -26.8667  -23.9418   12.6116 C   0  0  0  0  0  0  0  0  0  0  0  0
  -25.8713  -31.5096   21.4513 C   0  0  0  0  0  0  0  0  0  0  0  0
  -28.3320  -31.0531   21.5172 C   0  0  0  0  0  0  0  0  0  0  0  0
  -26.9994  -31.0043   23.6254 C   0  0  0  0  0  0  0  0  0  0  0  0
  -28.4258  -24.4502   22.2541 C   0  0  0  0  0  0  0  0  0  0  0  0
  -29.2882  -24.6551   14.4184 C   0  0  0  0  0  0  0  0  0  0  0  0
  -25.3343  -24.8060   14.3968 C   0  0  0  0  0  0  0  0  0  0  0  0
  -25.0923  -25.7271   15.5867 C   0  0  0  0  0  0  0  0  0  1  0  0
  -26.7377  -29.1291   21.9499 C   0  0  1  0  0  0  0  0  0  0  0  0
  -29.4809  -26.6505   22.7871 C   0  0  2  0  0  0  0  0  0  0  0  0
  -26.7819  -24.8351   13.8583 C   0  0  1  0  0  0  0  0  0  0  0  0
  -27.8474  -24.4855   14.9315 C   0  0  1  0  0  0  0  0  0  0  0  0
  -26.9676  -30.6573   22.1210 C   0  0  0  0  0  0  0  0  0  0  0  0
  -29.2098  -22.6770   18.7003 N   0  0  0  0  0  0  0  0  0  0  0  0
  -28.1420  -15.2276   20.8201 N   0  0  0  0  0  0  0  0  0  0  0  0
  -29.4000  -15.5319   20.4584 N   0  0  0  0  0  0  0  0  0  0  0  0
  -24.5219  -28.0885   21.5876 N   0  0  0  0  0  0  0  0  0  0  0  0
  -29.5618  -19.2117   21.4667 N   0  0  0  0  0  0  0  0  0  0  0  0
  -31.2654  -14.7198   19.2453 N   0  0  0  0  0  0  0  0  0  0  0  0
  -28.2018  -11.4363   18.7670 N   0  0  0  0  0  0  0  0  0  0  0  0
  -27.6585  -23.1284   15.4073 N   0  0  0  0  0  0  0  0  0  0  0  0
  -28.9045  -20.3902   19.5324 N   0  0  0  0  0  0  0  0  0  0  0  0
  -21.2636  -29.2865   22.4115 N   0  0  0  0  0  0  0  0  0  0  0  0
  -27.7461  -28.2969   22.5972 N   0  0  0  0  0  0  0  0  0  0  0  0
  -29.6746  -25.2532   22.3065 N   0  3  0  0  0  0  0  0  0  0  0  0
  -30.3388  -12.0802   18.2402 O   0  0  0  0  0  0  0  0  0  0  0  0
  -22.6045  -29.5776   20.5301 O   0  0  0  0  0  0  0  0  0  0  0  0
  -25.1589  -28.8483   23.6978 O   0  0  0  0  0  0  0  0  0  0  0  0
  -28.4192  -27.1768   20.6816 O   0  0  0  0  0  0  0  0  0  0  0  0
  -30.1069  -21.4439   21.2133 O   0  0  0  0  0  0  0  0  0  0  0  0
  -23.0527  -11.4012   20.8930 O   0  0  0  0  0  0  0  0  0  0  0  0
  -23.7348  -25.5875   16.0038 O   0  0  0  0  0  0  0  0  0  1  0  0
  -23.1702   -6.0328   22.1462 F   0  0  0  0  0  0  0  0  0  0  0  0
  -24.2604   -9.5764   19.2035 F   0  0  0  0  0  0  0  0  0  0  0  0
  -27.9015  -21.0623   17.1630 S   0  0  0  0  0  0  0  0  0  0  0  0
  1  2  1  0  0  0  0
  1  5  2  0  0  0  0
  2  6  2  0  0  0  0
  3  8  2  0  0  0  0
  3 16  1  0  0  0  0
  4  9  1  0  0  0  0
  4 16  2  0  0  0  0
  5 18  1  0  0  0  0
  6 20  1  0  0  0  0
  7 10  2  0  0  0  0
  7 19  1  0  0  0  0
  8 22  1  0  0  0  0
  9 22  2  0  0  0  0
 10 23  1  0  0  0  0
 11 12  2  0  0  0  0
 11 24  1  0  0  0  0
 12 25  1  0  0  0  0
 13 21  1  0  0  0  0
 13 23  2  0  0  0  0
 14 25  2  0  0  0  0
 14 26  1  0  0  0  0
 15 29  2  0  0  0  0
 15 63  1  0  0  0  0
 16 27  1  0  0  0  0
 17 27  1  0  0  0  0
 17 28  2  0  0  0  0
 17 31  1  0  0  0  0
 18 20  2  0  0  0  0
 18 36  1  0  0  0  0
 19 21  2  0  0  0  0
 19 37  1  0  0  0  0
 20 45  1  0  0  0  0
 21 38  1  0  0  0  0
 22 80  1  0  0  0  0
 23 81  1  0  0  0  0
 24 26  2  0  0  0  0
 24 80  1  0  0  0  0
 25 82  1  0  0  0  0
 26 83  1  0  0  0  0
 27 64  2  0  0  0  0
 28 65  1  0  0  0  0
 28 68  1  0  0  0  0
 29 70  1  0  0  0  0
 29 84  1  0  0  0  0
 30 63  2  0  0  0  0
 30 71  1  0  0  0  0
 30 84  1  0  0  0  0
 31 69  1  0  0  0  0
 31 75  2  0  0  0  0
 32 46  1  0  0  0  0
 32 72  1  0  0  0  0
 32 76  2  0  0  0  0
 33 58  1  0  0  0  0
 33 66  1  0  0  0  0
 33 77  2  0  0  0  0
 34 59  1  0  0  0  0
 34 73  1  0  0  0  0
 34 78  2  0  0  0  0
 35 67  1  0  0  0  0
 35 71  1  0  0  0  0
 35 79  2  0  0  0  0
 36 39  1  0  0  0  0
 37 46  1  0  0  0  0
 38 66  1  0  0  0  0
 39 41  1  0  0  0  0
 40 42  1  0  0  0  0
 40 43  1  0  0  0  0
 41 45  1  0  0  0  0
 42 47  1  0  0  0  0
 43 67  1  0  0  0  0
 44 47  1  0  0  0  0
 44 67  1  0  0  0  0
 45 72  1  0  0  0  0
 46 66  1  0  0  0  0
 47 65  1  0  0  0  0
 48 55  1  0  0  0  0
 49 59  1  0  0  0  0
 50 60  1  0  0  0  0
 51 62  1  0  0  0  0
 52 62  1  0  0  0  0
 53 62  1  0  0  0  0
 54 74  1  0  0  0  0
 55 61  1  0  0  0  0
 56 57  1  0  0  0  0
 56 60  1  0  0  0  0
 57 81  1  0  0  0  0
 58 62  1  0  0  0  0
 58 73  1  0  0  0  0
 59 74  1  0  0  0  0
 60 61  1  0  0  0  0
 61 70  1  0  0  0  0
 64 65  1  0  0  0  0
M  CHG  1  74   1
M  ISO  4  35 100  57 101  71 100  81 101
M  END
> <Batch ID>
0198

> <Smiles>
CCC(Nc1cnc([100NH:0][100C:0](=O)N2CCCC(n3nc(-c4ccc(Oc5ccc(F)cc5F)cc4)c(C(N)=O)c3N)C2)s1)C(C)C[101CH2:1][101O:1]c1ccc2c(c1)CN(C(=O)C(NC(=O)C(C)NC)C(C)(C)C)C(C(=O)NC1CCCc3ccccc31)C2

> <Shape>
0.293

> <Color>
0.101

> <Negative vol penalty>
0.000

$$$$

  -OEChem-04052305443D

 85 93  0     1  0  0  0  0  0999 V2000
  -20.4438  -24.5602   24.0452 C   0  0  0  0  0  0  0  0  0  0  0  0
  -21.6574  -24.9784   23.5088 C   0  0  0  0  0  0  0  0  0  0  0  0
  -21.0595  -15.9945   20.3030 C   0  0  0  0  0  0  0  0  0  0  0  0
  -23.3574  -16.2549   21.0022 C   0  0  0  0  0  0  0  0  0  0  0  0
  -19.3001  -25.3379   23.8690 C   0  0  0  0  0  0  0  0  0  0  0  0
  -21.7277  -26.1741   22.7948 C   0  0  0  0  0  0  0  0  0  0  0  0
  -25.7462  -28.9731   24.0843 C   0  0  0  0  0  0  0  0  0  0  0  0
  -21.2427  -14.6146   20.2147 C   0  0  0  0  0  0  0  0  0  0  0  0
  -23.5406  -14.8749   20.9140 C   0  0  0  0  0  0  0  0  0  0  0  0
  -26.9808  -28.5948   23.5584 C   0  0  0  0  0  0  0  0  0  0  0  0
  -21.3693  -11.9784   22.3283 C   0  0  0  0  0  0  0  0  0  0  0  0
  -20.3807  -11.1573   22.8706 C   0  0  0  0  0  0  0  0  0  0  0  0
  -26.7857  -30.3153   21.8788 C   0  0  0  0  0  0  0  0  0  0  0  0
  -20.0136  -10.1649   20.6986 C   0  0  0  0  0  0  0  0  0  0  0  0
  -28.2254  -25.1391   17.4381 C   0  0  0  0  0  0  0  0  0  0  0  0
  -27.7179  -22.9766   18.9192 C   0  0  0  0  0  0  0  0  0  0  0  0
  -22.1169  -16.8147   20.6967 C   0  0  0  0  0  0  0  0  0  0  0  0
  -21.5034  -18.9716   21.9127 C   0  0  0  0  0  0  0  0  0  0  0  0
  -19.3585  -26.5486   23.1608 C   0  0  0  0  0  0  0  0  0  0  0  0
  -25.0158  -30.0199   23.5036 C   0  0  0  0  0  0  0  0  0  0  0  0
  -20.5835  -26.9681   22.6078 C   0  0  0  0  0  0  0  0  0  0  0  0
  -25.5433  -30.7066   22.4008 C   0  0  0  0  0  0  0  0  0  0  0  0
  -22.4832  -14.0548   20.5202 C   0  0  0  0  0  0  0  0  0  0  0  0
  -27.4994  -29.2641   22.4537 C   0  0  0  0  0  0  0  0  0  0  0  0
  -21.6800  -11.8929   20.9712 C   0  0  0  0  0  0  0  0  0  0  0  0
  -19.7028  -10.2505   22.0557 C   0  0  0  0  0  0  0  0  0  0  0  0
  -21.0021  -10.9861   20.1563 C   0  0  0  0  0  0  0  0  0  0  0  0
  -21.9285  -18.2403   20.7874 C   0  0  0  0  0  0  0  0  0  0  0  0
  -29.1747  -24.6246   18.2935 C   0  0  0  0  0  0  0  0  0  0  0  0
  -26.7683  -23.4915   18.0645 C   0  0  0  0  0  0  0  0  0  0  0  0
  -21.4859  -20.2774   21.4870 C   0  0  0  0  0  0  0  0  0  0  0  0
  -21.1556  -18.5118   23.2255 C   0  0  0  0  0  0  0  0  0  0  0  0
  -22.1759  -30.2629   22.0966 C   0  0  0  0  0  0  0  0  0  0  0  0
  -22.8741  -33.4306   22.1116 C   0  0  0  0  0  0  0  0  0  0  0  0
  -25.2571  -35.8717   22.2082 C   0  0  0  0  0  0  0  0  0  0  0  0
  -24.4234  -23.2092   17.1881 C   0  0  0  0  0  0  0  0  0  0  0  0
  -18.0860  -27.3317   22.9558 C   0  0  0  0  0  0  0  0  0  0  0  0
  -23.6979  -30.4333   24.0992 C   0  0  0  0  0  0  0  0  0  0  0  0
  -24.8080  -31.8505   21.7532 C   0  0  0  0  0  0  0  0  0  0  0  0
  -18.3225  -28.7715   22.5072 C   0  0  0  0  0  0  0  0  0  0  0  0
  -20.8919  -22.9211   17.5383 C   0  0  0  0  0  0  0  0  0  0  0  0
  -19.3506  -28.8178   21.3813 C   0  0  0  0  0  0  0  0  0  0  0  0
  -20.7184  -21.7586   18.5184 C   0  0  0  0  0  0  0  0  0  0  0  0
  -22.0674  -22.6927   16.5899 C   0  0  0  0  0  0  0  0  0  0  0  0
  -23.1698  -21.2178   18.2265 C   0  0  0  0  0  0  0  0  0  0  0  0
  -20.7052  -28.2714   21.8484 C   0  0  1  0  0  0  0  0  0  0  0  0
  -22.8028  -31.1759   23.1120 C   0  0  1  0  0  0  0  0  0  0  0  0
  -22.0380  -21.4322   19.2448 C   0  0  2  0  0  0  0  0  0  0  0  0
  -33.6064  -25.3224   18.7350 C   0  0  0  0  0  0  0  0  0  0  0  0
  -25.5241  -38.3666   22.1677 C   0  0  0  0  0  0  0  0  0  0  0  0
  -22.3252  -33.4382   19.1102 C   0  0  0  0  0  0  0  0  0  0  0  0
  -23.5009  -35.6443   18.9713 C   0  0  0  0  0  0  0  0  0  0  0  0
  -21.4272  -35.4221   20.3399 C   0  0  0  0  0  0  0  0  0  0  0  0
  -26.5295  -35.8952   24.8802 C   0  0  0  0  0  0  0  0  0  0  0  0
  -30.5356  -25.2771   18.4133 C   0  0  0  0  0  0  0  0  0  0  0  0
  -32.6181  -25.8638   19.7644 C   0  0  0  0  0  0  0  0  0  0  0  0
  -29.9474  -27.1329   20.8860 C   0  0  0  0  0  0  0  0  0  0  0  0
  -30.3941  -25.6735   20.9809 C   0  0  0  0  0  0  0  0  0  0  0  0
  -29.0774  -27.5259   22.0735 C   0  0  0  0  0  0  0  0  0  1  0  0
  -23.5753  -34.3753   21.1657 C   0  0  1  0  0  0  0  0  0  0  0  0
  -25.3734  -37.1333   23.0446 C   0  0  2  0  0  0  0  0  0  0  0  0
  -22.7204  -34.6972   19.9076 C   0  0  0  0  0  0  0  0  0  0  0  0
  -31.2408  -25.1511   19.7912 C   0  0  1  0  0  0  0  0  0  0  0  0
  -28.9382  -23.5340   19.0491 N   0  0  0  0  0  0  0  0  0  0  0  0
  -27.0050  -24.5819   17.3085 N   0  0  0  0  0  0  0  0  0  0  0  0
  -22.1638  -19.0169   19.7265 N   0  0  0  0  0  0  0  0  0  0  0  0
  -21.8856  -20.2498   20.1833 N   0  0  0  0  0  0  0  0  0  0  0  0
  -23.5205  -32.2131   22.3681 N   0  0  0  0  0  0  0  0  0  0  0  0
  -23.2837  -22.3930   17.3486 N   0  0  0  0  0  0  0  0  0  0  0  0
  -21.1677  -21.4350   22.1044 N   0  0  0  0  0  0  0  0  0  0  0  0
  -21.2289  -17.1381   23.4934 N   0  0  0  0  0  0  0  0  0  0  0  0
  -25.5088  -22.8472   17.9852 N   0  0  0  0  0  0  0  0  0  0  0  0
  -21.4010  -29.2590   22.6453 N   0  0  0  0  0  0  0  0  0  0  0  0
  -23.9413  -35.5464   21.9550 N   0  0  0  0  0  0  0  0  0  0  0  0
  -26.5574  -37.0499   23.9458 N   0  3  0  0  0  0  0  0  0  0  0  0
  -20.7749  -19.2941   24.1291 O   0  0  0  0  0  0  0  0  0  0  0  0
  -22.3790  -30.4558   20.9036 O   0  0  0  0  0  0  0  0  0  0  0  0
  -21.7962  -33.7638   22.6103 O   0  0  0  0  0  0  0  0  0  0  0  0
  -26.2356  -35.2403   21.8155 O   0  0  0  0  0  0  0  0  0  0  0  0
  -24.4265  -24.1759   16.4216 O   0  0  0  0  0  0  0  0  0  0  0  0
  -31.5106  -23.7635   20.0435 O   0  0  0  0  0  0  0  0  0  0  0  0
  -22.6622  -12.7082   20.4345 O   0  0  0  0  0  0  0  0  0  0  0  0
  -28.7039  -28.8965   21.9381 O   0  0  0  0  0  0  0  0  0  1  0  0
  -18.7546   -9.4610   22.5769 F   0  0  0  0  0  0  0  0  0  0  0  0
  -21.2971  -10.8986   18.8520 F   0  0  0  0  0  0  0  0  0  0  0  0
  1  2  1  0  0  0  0
  1  5  2  0  0  0  0
  2  6  2  0  0  0  0
  3  8  2  0  0  0  0
  3 17  1  0  0  0  0
  4  9  1  0  0  0  0
  4 17  2  0  0  0  0
  5 19  1  0  0  0  0
  6 21  1  0  0  0  0
  7 10  2  0  0  0  0
  7 20  1  0  0  0  0
  8 23  1  0  0  0  0
  9 23  2  0  0  0  0
 10 24  1  0  0  0  0
 11 12  2  0  0  0  0
 11 25  1  0  0  0  0
 12 26  1  0  0  0  0
 13 22  1  0  0  0  0
 13 24  2  0  0  0  0
 14 26  2  0  0  0  0
 14 27  1  0  0  0  0
 15 29  1  0  0  0  0
 15 65  2  0  0  0  0
 16 30  2  0  0  0  0
 16 64  1  0  0  0  0
 17 28  1  0  0  0  0
 18 28  1  0  0  0  0
 18 31  2  0  0  0  0
 18 32  1  0  0  0  0
 19 21  2  0  0  0  0
 19 37  1  0  0  0  0
 20 22  2  0  0  0  0
 20 38  1  0  0  0  0
 21 46  1  0  0  0  0
 22 39  1  0  0  0  0
 23 82  1  0  0  0  0
 24 83  1  0  0  0  0
 25 27  2  0  0  0  0
 25 82  1  0  0  0  0
 26 84  1  0  0  0  0
 27 85  1  0  0  0  0
 28 66  2  0  0  0  0
 29 55  1  0  0  0  0
 29 64  2  0  0  0  0
 30 65  1  0  0  0  0
 30 72  1  0  0  0  0
 31 67  1  0  0  0  0
 31 70  1  0  0  0  0
 32 71  1  0  0  0  0
 32 76  2  0  0  0  0
 33 47  1  0  0  0  0
 33 73  1  0  0  0  0
 33 77  2  0  0  0  0
 34 60  1  0  0  0  0
 34 68  1  0  0  0  0
 34 78  2  0  0  0  0
 35 61  1  0  0  0  0
 35 74  1  0  0  0  0
 35 79  2  0  0  0  0
 36 69  1  0  0  0  0
 36 72  1  0  0  0  0
 36 80  2  0  0  0  0
 37 40  1  0  0  0  0
 38 47  1  0  0  0  0
 39 68  1  0  0  0  0
 40 42  1  0  0  0  0
 41 43  1  0  0  0  0
 41 44  1  0  0  0  0
 42 46  1  0  0  0  0
 43 48  1  0  0  0  0
 44 69  1  0  0  0  0
 45 48  1  0  0  0  0
 45 69  1  0  0  0  0
 46 73  1  0  0  0  0
 47 68  1  0  0  0  0
 48 67  1  0  0  0  0
 49 56  1  0  0  0  0
 50 61  1  0  0  0  0
 51 62  1  0  0  0  0
 52 62  1  0  0  0  0
 53 62  1  0  0  0  0
 54 75  1  0  0  0  0
 55 63  1  0  0  0  0
 56 63  1  0  0  0  0
 57 58  1  0  0  0  0
 57 59  1  0  0  0  0
 58 63  1  0  0  0  0
 59 83  1  0  0  0  0
 60 62  1  0  0  0  0
 60 74  1  0  0  0  0
 61 75  1  0  0  0  0
 63 81  1  0  0  0  0
 66 67  1  0  0  0  0
M  CHG  1  75   1
M  ISO  4  36 100  59 101  72 100  83 101
M  END
> <Batch ID>
0198

> <Smiles>
CCC(O)(CC[101CH2:1][101O:1]c1ccc2c(c1)CN(C(=O)C(NC(=O)C(C)NC)C(C)(C)C)C(C(=O)NC1CCCc3ccccc31)C2)Cc1cnc([100NH:0][100C:0](=O)N2CCCC(n3nc(-c4ccc(Oc5ccc(F)cc5F)cc4)c(C(N)=O)c3N)C2)cn1

> <Shape>
0.195

> <Color>
0.093

> <Negative vol penalty>
0.000

$$$$

  -OEChem-04052305443D

 83 91  0     1  0  0  0  0  0999 V2000
  -26.4211  -23.7241   16.9599 C   0  0  0  0  0  0  0  0  0  0  0  0
  -25.3176  -24.2180   17.6482 C   0  0  0  0  0  0  0  0  0  0  0  0
  -27.8028  -15.4192   21.3525 C   0  0  0  0  0  0  0  0  0  0  0  0
  -25.5876  -15.8679   20.4989 C   0  0  0  0  0  0  0  0  0  0  0  0
  -27.7072  -23.9681   17.4399 C   0  0  0  0  0  0  0  0  0  0  0  0
  -25.4996  -24.9554   18.8176 C   0  0  0  0  0  0  0  0  0  0  0  0
  -22.5980  -29.1030   18.9703 C   0  0  0  0  0  0  0  0  0  0  0  0
  -27.6100  -14.0549   21.1356 C   0  0  0  0  0  0  0  0  0  0  0  0
  -25.3948  -14.5036   20.2821 C   0  0  0  0  0  0  0  0  0  0  0  0
  -21.2542  -28.9283   19.2981 C   0  0  0  0  0  0  0  0  0  0  0  0
  -24.6211  -11.7737   22.1205 C   0  0  0  0  0  0  0  0  0  0  0  0
  -23.4044  -11.2198   22.5185 C   0  0  0  0  0  0  0  0  0  0  0  0
  -21.7222  -29.6222   21.5606 C   0  0  0  0  0  0  0  0  0  0  0  0
  -21.1411  -22.6356   20.0533 C   0  0  0  0  0  0  0  0  0  0  0  0
  -19.4735  -24.3738   20.0207 C   0  0  0  0  0  0  0  0  0  0  0  0
  -22.9635  -10.5508   20.2392 C   0  0  0  0  0  0  0  0  0  0  0  0
  -26.7916  -16.3257   21.0342 C   0  0  0  0  0  0  0  0  0  0  0  0
  -27.9854  -18.5541   20.6927 C   0  0  0  0  0  0  0  0  0  0  0  0
  -27.9054  -24.7170   18.6106 C   0  0  0  0  0  0  0  0  0  0  0  0
  -23.5176  -29.5289   19.9396 C   0  0  0  0  0  0  0  0  0  0  0  0
  -26.7894  -25.2085   19.3145 C   0  0  0  0  0  0  0  0  0  0  0  0
  -23.0766  -29.8040   21.2419 C   0  0  0  0  0  0  0  0  0  0  0  0
  -20.1571  -23.3481   19.3747 C   0  0  0  0  0  0  0  0  0  0  0  0
  -26.4061  -13.5970   20.6004 C   0  0  0  0  0  0  0  0  0  0  0  0
  -20.8166  -29.1851   20.5942 C   0  0  0  0  0  0  0  0  0  0  0  0
  -25.0090  -11.7162   20.7819 C   0  0  0  0  0  0  0  0  0  0  0  0
  -22.5756  -10.6083   21.5779 C   0  0  0  0  0  0  0  0  0  0  0  0
  -24.1802  -11.1047   19.8413 C   0  0  0  0  0  0  0  0  0  0  0  0
  -26.9899  -17.7351   21.2584 C   0  0  0  0  0  0  0  0  0  0  0  0
  -27.7454  -19.7998   21.2192 C   0  0  0  0  0  0  0  0  0  0  0  0
  -21.4189  -22.9692   21.3712 C   0  0  0  0  0  0  0  0  0  0  0  0
  -19.7934  -24.6634   21.3395 C   0  0  0  0  0  0  0  0  0  0  0  0
  -29.0335  -18.2189   19.7735 C   0  0  0  0  0  0  0  0  0  0  0  0
  -26.1278  -28.2816   21.2565 C   0  0  0  0  0  0  0  0  0  0  0  0
  -26.3451  -31.2010   22.6538 C   0  0  0  0  0  0  0  0  0  0  0  0
  -24.7636  -34.0426   23.6885 C   0  0  0  0  0  0  0  0  0  0  0  0
  -22.8415  -22.4416   23.3822 C   0  0  0  0  0  0  0  0  0  0  0  0
  -29.3124  -24.9146   19.1165 C   0  0  0  0  0  0  0  0  0  0  0  0
  -24.9587  -29.7382   19.5632 C   0  0  0  0  0  0  0  0  0  0  0  0
  -24.0199  -30.2827   22.3140 C   0  0  0  0  0  0  0  0  0  0  0  0
  -29.4349  -26.0232   20.1587 C   0  0  0  0  0  0  0  0  0  0  0  0
  -25.9214  -21.9386   25.0964 C   0  0  0  0  0  0  0  0  0  0  0  0
  -28.3357  -25.8930   21.2083 C   0  0  0  0  0  0  0  0  0  0  0  0
  -26.6381  -20.8826   24.2519 C   0  0  0  0  0  0  0  0  0  0  0  0
  -24.4148  -21.6922   25.1537 C   0  0  0  0  0  0  0  0  0  0  0  0
  -24.4759  -20.4921   23.0031 C   0  0  0  0  0  0  0  0  0  0  0  0
  -26.9470  -26.0337   20.5732 C   0  0  1  0  0  0  0  0  0  0  0  0
  -25.9031  -29.6818   20.7601 C   0  0  1  0  0  0  0  0  0  0  0  0
  -25.9874  -20.7355   22.8625 C   0  0  2  0  0  0  0  0  0  0  0  0
  -24.5115  -36.3636   24.6088 C   0  0  0  0  0  0  0  0  0  0  0  0
  -16.8003  -25.7019   21.4454 C   0  0  0  0  0  0  0  0  0  0  0  0
  -26.5191  -29.7640   25.3398 C   0  0  0  0  0  0  0  0  0  0  0  0
  -25.9956  -31.9411   26.4597 C   0  0  0  0  0  0  0  0  0  0  0  0
  -28.0711  -31.7097   25.0952 C   0  0  0  0  0  0  0  0  0  0  0  0
  -25.0821  -35.2637   21.0114 C   0  0  0  0  0  0  0  0  0  0  0  0
  -17.9502  -27.7856   22.2707 C   0  0  0  0  0  0  0  0  0  0  0  0
  -19.2111  -28.6440   22.2631 C   0  0  0  0  0  0  0  0  0  1  0  0
  -25.8286  -31.8154   23.9324 C   0  0  1  0  0  0  0  0  0  0  0  0
  -25.1016  -35.5102   23.4969 C   0  0  2  0  0  0  0  0  0  0  0  0
  -18.1033  -26.4949   21.4598 C   0  0  1  0  0  0  0  0  0  0  0  0
  -26.5859  -31.2967   25.1873 C   0  0  0  0  0  0  0  0  0  0  0  0
  -26.1780  -18.4042   22.0813 N   0  0  0  0  0  0  0  0  0  0  0  0
  -26.6630  -19.6567   22.0367 N   0  0  0  0  0  0  0  0  0  0  0  0
  -20.7454  -23.9614   21.9692 N   0  3  0  0  0  0  0  0  0  0  0  0
  -25.4203  -30.4662   21.8985 N   0  0  0  0  0  0  0  0  0  0  0  0
  -23.8670  -21.5677   23.8012 N   0  0  0  0  0  0  0  0  0  0  0  0
  -19.8544  -23.0330   18.0340 N   0  0  0  0  0  0  0  0  0  0  0  0
  -28.3567  -20.9926   21.0581 N   0  0  0  0  0  0  0  0  0  0  0  0
  -28.7743  -18.3183   18.3997 N   0  0  0  0  0  0  0  0  0  0  0  0
  -22.4228  -22.2500   22.0659 N   0  0  0  0  0  0  0  0  0  0  0  0
  -19.1465  -25.6703   22.0331 N   0  0  0  0  0  0  0  0  0  0  0  0
  -26.6517  -27.4252   20.3069 N   0  0  0  0  0  0  0  0  0  0  0  0
  -25.8979  -33.2609   23.7477 N   0  0  0  0  0  0  0  0  0  0  0  0
  -24.5666  -35.9992   22.1948 N   0  3  0  0  0  0  0  0  0  0  0  0
  -30.1609  -17.8266   20.1588 O   0  0  0  0  0  0  0  0  0  0  0  0
  -25.8482  -27.9994   22.4158 O   0  0  0  0  0  0  0  0  0  0  0  0
  -27.5239  -31.3728   22.3334 O   0  0  0  0  0  0  0  0  0  0  0  0
  -23.6091  -33.6314   23.7804 O   0  0  0  0  0  0  0  0  0  0  0  0
  -22.3885  -23.3148   24.1267 O   0  0  0  0  0  0  0  0  0  0  0  0
  -26.2177  -12.2658   20.3885 O   0  0  0  0  0  0  0  0  0  0  0  0
  -19.5057  -29.0147   20.9170 O   0  0  0  0  0  0  0  0  0  1  0  0
  -21.4079  -10.0751   21.9605 F   0  0  0  0  0  0  0  0  0  0  0  0
  -24.5480  -11.0453   18.5540 F   0  0  0  0  0  0  0  0  0  0  0  0
  1  2  1  0  0  0  0
  1  5  2  0  0  0  0
  2  6  2  0  0  0  0
  3  8  2  0  0  0  0
  3 17  1  0  0  0  0
  4  9  1  0  0  0  0
  4 17  2  0  0  0  0
  5 19  1  0  0  0  0
  6 21  1  0  0  0  0
  7 10  2  0  0  0  0
  7 20  1  0  0  0  0
  8 24  1  0  0  0  0
  9 24  2  0  0  0  0
 10 25  1  0  0  0  0
 11 12  2  0  0  0  0
 11 26  1  0  0  0  0
 12 27  1  0  0  0  0
 13 22  1  0  0  0  0
 13 25  2  0  0  0  0
 14 23  1  0  0  0  0
 14 31  2  0  0  0  0
 15 23  2  0  0  0  0
 15 32  1  0  0  0  0
 16 27  2  0  0  0  0
 16 28  1  0  0  0  0
 17 29  1  0  0  0  0
 18 29  1  0  0  0  0
 18 30  2  0  0  0  0
 18 33  1  0  0  0  0
 19 21  2  0  0  0  0
 19 38  1  0  0  0  0
 20 22  2  0  0  0  0
 20 39  1  0  0  0  0
 21 47  1  0  0  0  0
 22 40  1  0  0  0  0
 23 67  1  0  0  0  0
 24 80  1  0  0  0  0
 25 81  1  0  0  0  0
 26 28  2  0  0  0  0
 26 80  1  0  0  0  0
 27 82  1  0  0  0  0
 28 83  1  0  0  0  0
 29 62  2  0  0  0  0
 30 63  1  0  0  0  0
 30 68  1  0  0  0  0
 31 64  1  0  0  0  0
 31 70  1  0  0  0  0
 32 64  2  0  0  0  0
 32 71  1  0  0  0  0
 33 69  1  0  0  0  0
 33 75  2  0  0  0  0
 34 48  1  0  0  0  0
 34 72  1  0  0  0  0
 34 76  2  0  0  0  0
 35 58  1  0  0  0  0
 35 65  1  0  0  0  0
 35 77  2  0  0  0  0
 36 59  1  0  0  0  0
 36 73  1  0  0  0  0
 36 78  2  0  0  0  0
 37 66  1  0  0  0  0
 37 70  1  0  0  0  0
 37 79  2  0  0  0  0
 38 41  1  0  0  0  0
 39 48  1  0  0  0  0
 40 65  1  0  0  0  0
 41 43  1  0  0  0  0
 42 44  1  0  0  0  0
 42 45  1  0  0  0  0
 43 47  1  0  0  0  0
 44 49  1  0  0  0  0
 45 66  1  0  0  0  0
 46 49  1  0  0  0  0
 46 66  1  0  0  0  0
 47 72  1  0  0  0  0
 48 65  1  0  0  0  0
 49 63  1  0  0  0  0
 50 59  1  0  0  0  0
 51 60  1  0  0  0  0
 52 61  1  0  0  0  0
 53 61  1  0  0  0  0
 54 61  1  0  0  0  0
 55 74  1  0  0  0  0
 56 57  1  0  0  0  0
 56 60  1  0  0  0  0
 57 81  1  0  0  0  0
 58 61  1  0  0  0  0
 58 73  1  0  0  0  0
 59 74  1  0  0  0  0
 60 71  1  0  0  0  0
 62 63  1  0  0  0  0
M  CHG  2  64   1  74   1
M  ISO  4  37 100  57 101  70 100  81 101
M  END
> <Batch ID>
0198

> <Smiles>
CNC(C)C(=O)NC(C(=O)N1Cc2cc([101O:1][101CH2:1]CC(C)Nc3cc(N)cc([100NH:0][100C:0](=O)N4CCCC(n5nc(-c6ccc(Oc7ccc(F)cc7F)cc6)c(C(N)=O)c5N)C4)n3)ccc2CC1C(=O)NC1CCCc2ccccc21)C(C)(C)C

> <Shape>
0.293

> <Color>
0.075

> <Negative vol penalty>
0.000

$$$$

  -OEChem-04052305443D

 82 90  0     1  0  0  0  0  0999 V2000
  -23.6010  -23.6006   12.2679 C   0  0  0  0  0  0  0  0  0  0  0  0
  -23.3367  -24.5408   13.2587 C   0  0  0  0  0  0  0  0  0  0  0  0
  -23.2961  -14.1922   19.5413 C   0  0  0  0  0  0  0  0  0  0  0  0
  -24.6591  -14.8674   21.4184 C   0  0  0  0  0  0  0  0  0  0  0  0
  -24.1455  -22.3634   12.6099 C   0  0  0  0  0  0  0  0  0  0  0  0
  -23.6157  -24.2439   14.5923 C   0  0  0  0  0  0  0  0  0  0  0  0
  -25.5562  -28.1378   18.9025 C   0  0  0  0  0  0  0  0  0  0  0  0
  -24.2746  -13.2737   19.1612 C   0  0  0  0  0  0  0  0  0  0  0  0
  -25.6376  -13.9488   21.0383 C   0  0  0  0  0  0  0  0  0  0  0  0
  -24.8879  -28.8264   19.9140 C   0  0  0  0  0  0  0  0  0  0  0  0
  -28.1091  -13.7495   18.7400 C   0  0  0  0  0  0  0  0  0  0  0  0
  -29.4366  -14.1776   18.7447 C   0  0  0  0  0  0  0  0  0  0  0  0
  -18.9117  -26.2252   21.3574 C   0  0  0  0  0  0  0  0  0  0  0  0
  -25.4756  -27.0867   21.4784 C   0  0  0  0  0  0  0  0  0  0  0  0
  -29.9828  -12.4664   20.3605 C   0  0  0  0  0  0  0  0  0  0  0  0
  -18.9048  -27.5090   20.8513 C   0  0  0  0  0  0  0  0  0  0  0  0
  -23.4884  -14.9891   20.6698 C   0  0  0  0  0  0  0  0  0  0  0  0
  -21.3932  -15.7149   21.9312 C   0  0  0  0  0  0  0  0  0  0  0  0
  -24.4403  -22.0549   13.9473 C   0  0  0  0  0  0  0  0  0  0  0  0
  -26.1809  -26.9110   19.1694 C   0  0  0  0  0  0  0  0  0  0  0  0
  -24.1634  -23.0009   14.9527 C   0  0  0  0  0  0  0  0  0  0  0  0
  -26.1533  -26.3857   20.4692 C   0  0  0  0  0  0  0  0  0  0  0  0
  -25.4453  -13.1519   19.9097 C   0  0  0  0  0  0  0  0  0  0  0  0
  -24.8451  -28.2995   21.2015 C   0  0  0  0  0  0  0  0  0  0  0  0
  -27.7184  -12.6799   19.5456 C   0  0  0  0  0  0  0  0  0  0  0  0
  -30.3735  -13.5361   19.5549 C   0  0  0  0  0  0  0  0  0  0  0  0
  -28.6552  -12.0384   20.3558 C   0  0  0  0  0  0  0  0  0  0  0  0
  -22.4782  -15.9385   21.0626 C   0  0  0  0  0  0  0  0  0  0  0  0
  -19.8242  -25.9853   22.3644 C   0  0  0  0  0  0  0  0  0  0  0  0
  -20.7355  -16.9198   21.9764 C   0  0  0  0  0  0  0  0  0  0  0  0
  -20.5657  -28.1321   22.2726 C   0  0  0  0  0  0  0  0  0  0  0  0
  -21.0137  -14.5244   22.6343 C   0  0  0  0  0  0  0  0  0  0  0  0
  -25.8096  -23.9311   18.1272 C   0  0  0  0  0  0  0  0  0  0  0  0
  -28.4656  -23.3910   19.9095 C   0  0  0  0  0  0  0  0  0  0  0  0
  -30.4514  -24.3502   22.5139 C   0  0  0  0  0  0  0  0  0  0  0  0
  -20.8160  -22.3660   22.5052 C   0  0  0  0  0  0  0  0  0  0  0  0
  -24.9842  -20.6866   14.2737 C   0  0  0  0  0  0  0  0  0  0  0  0
  -26.9204  -26.1937   18.0735 C   0  0  0  0  0  0  0  0  0  0  0  0
  -26.8254  -25.0823   20.8122 C   0  0  0  0  0  0  0  0  0  0  0  0
  -25.5992  -20.5922   15.6677 C   0  0  0  0  0  0  0  0  0  0  0  0
  -21.2868  -21.0820   19.1545 C   0  0  0  0  0  0  0  0  0  0  0  0
  -24.6796  -21.2343   16.7015 C   0  0  0  0  0  0  0  0  0  0  0  0
  -21.5505  -19.6007   19.4307 C   0  0  0  0  0  0  0  0  0  0  0  0
  -21.9232  -21.9655   20.2235 C   0  0  0  0  0  0  0  0  0  0  0  0
  -21.7710  -20.1616   21.8958 C   0  0  0  0  0  0  0  0  0  0  0  0
  -24.4753  -22.7255   16.4076 C   0  0  1  0  0  0  0  0  0  0  0  0
  -27.0826  -24.7004   18.3403 C   0  0  1  0  0  0  0  0  0  0  0  0
  -21.1340  -19.2148   20.8624 C   0  0  2  0  0  0  0  0  0  0  0  0
  -32.5319  -23.6899   23.7520 C   0  0  0  0  0  0  0  0  0  0  0  0
  -22.7581  -30.2389   24.4120 C   0  0  0  0  0  0  0  0  0  0  0  0
  -26.9247  -21.1553   21.3013 C   0  0  0  0  0  0  0  0  0  0  0  0
  -28.6564  -21.1821   23.1093 C   0  0  0  0  0  0  0  0  0  0  0  0
  -29.3064  -20.6072   20.7706 C   0  0  0  0  0  0  0  0  0  0  0  0
  -31.8039  -26.8927   21.8316 C   0  0  0  0  0  0  0  0  0  0  0  0
  -19.9056  -24.6262   22.9739 C   0  0  0  0  0  0  0  0  0  0  0  0
  -23.6116  -28.1855   23.2316 C   0  0  0  0  0  0  0  0  0  1  0  0
  -28.7295  -23.0011   21.3438 C   0  0  1  0  0  0  0  0  0  0  0  0
  -31.9551  -24.5281   22.6217 C   0  0  2  0  0  0  0  0  0  0  0  0
  -22.3847  -28.8949   23.8007 C   0  0  2  0  0  0  0  0  0  0  0  0
  -28.3898  -21.5100   21.6247 C   0  0  0  0  0  0  0  0  0  0  0  0
  -19.7210  -28.4909   21.2871 N   0  0  0  0  0  0  0  0  0  0  0  0
  -22.5114  -17.1873   20.5900 N   0  0  0  0  0  0  0  0  0  0  0  0
  -20.6697  -26.9189   22.8480 N   0  0  0  0  0  0  0  0  0  0  0  0
  -21.4390  -17.7592   21.1635 N   0  0  0  0  0  0  0  0  0  0  0  0
  -27.5304  -24.4154   19.7050 N   0  0  0  0  0  0  0  0  0  0  0  0
  -21.4712  -21.5579   21.5613 N   0  0  0  0  0  0  0  0  0  0  0  0
  -19.6297  -17.3326   22.6317 N   0  0  0  0  0  0  0  0  0  0  0  0
  -21.8003  -13.3752   22.4756 N   0  0  0  0  0  0  0  0  0  0  0  0
  -21.4174  -29.1141   22.7440 N   0  0  0  0  0  0  0  0  0  0  0  0
  -25.6309  -23.4869   16.8310 N   0  0  0  0  0  0  0  0  0  0  0  0
  -30.1175  -23.3591   21.6153 N   0  0  0  0  0  0  0  0  0  0  0  0
  -20.5758  -23.6771   22.1130 N   0  0  0  0  0  0  0  0  0  0  0  0
  -32.2906  -25.9573   22.8781 N   0  3  0  0  0  0  0  0  0  0  0  0
  -19.9976  -14.4762   23.3684 O   0  0  0  0  0  0  0  0  0  0  0  0
  -25.0467  -23.7524   19.0694 O   0  0  0  0  0  0  0  0  0  0  0  0
  -29.0723  -22.8130   19.0042 O   0  0  0  0  0  0  0  0  0  0  0  0
  -29.6530  -25.0207   23.1647 O   0  0  0  0  0  0  0  0  0  0  0  0
  -20.4658  -21.9483   23.6143 O   0  0  0  0  0  0  0  0  0  0  0  0
  -26.4002  -12.2556   19.5393 O   0  0  0  0  0  0  0  0  0  0  0  0
  -24.1930  -28.9693   22.1904 O   0  0  0  0  0  0  0  0  0  1  0  0
  -31.6486  -13.9463   19.5581 F   0  0  0  0  0  0  0  0  0  0  0  0
  -28.2860  -11.0095   21.1310 F   0  0  0  0  0  0  0  0  0  0  0  0
  1  2  1  0  0  0  0
  1  5  2  0  0  0  0
  2  6  2  0  0  0  0
  3  8  2  0  0  0  0
  3 17  1  0  0  0  0
  4  9  1  0  0  0  0
  4 17  2  0  0  0  0
  5 19  1  0  0  0  0
  6 21  1  0  0  0  0
  7 10  2  0  0  0  0
  7 20  1  0  0  0  0
  8 23  1  0  0  0  0
  9 23  2  0  0  0  0
 10 24  1  0  0  0  0
 11 12  2  0  0  0  0
 11 25  1  0  0  0  0
 12 26  1  0  0  0  0
 13 16  1  0  0  0  0
 13 29  2  0  0  0  0
 14 22  1  0  0  0  0
 14 24  2  0  0  0  0
 15 26  2  0  0  0  0
 15 27  1  0  0  0  0
 16 61  2  0  0  0  0
 17 28  1  0  0  0  0
 18 28  1  0  0  0  0
 18 30  2  0  0  0  0
 18 32  1  0  0  0  0
 19 21  2  0  0  0  0
 19 37  1  0  0  0  0
 20 22  2  0  0  0  0
 20 38  1  0  0  0  0
 21 46  1  0  0  0  0
 22 39  1  0  0  0  0
 23 79  1  0  0  0  0
 24 80  1  0  0  0  0
 25 27  2  0  0  0  0
 25 79  1  0  0  0  0
 26 81  1  0  0  0  0
 27 82  1  0  0  0  0
 28 62  2  0  0  0  0
 29 55  1  0  0  0  0
 29 63  1  0  0  0  0
 30 64  1  0  0  0  0
 30 67  1  0  0  0  0
 31 61  1  0  0  0  0
 31 63  2  0  0  0  0
 31 69  1  0  0  0  0
 32 68  1  0  0  0  0
 32 74  2  0  0  0  0
 33 47  1  0  0  0  0
 33 70  1  0  0  0  0
 33 75  2  0  0  0  0
 34 57  1  0  0  0  0
 34 65  1  0  0  0  0
 34 76  2  0  0  0  0
 35 58  1  0  0  0  0
 35 71  1  0  0  0  0
 35 77  2  0  0  0  0
 36 66  1  0  0  0  0
 36 72  1  0  0  0  0
 36 78  2  0  0  0  0
 37 40  1  0  0  0  0
 38 47  1  0  0  0  0
 39 65  1  0  0  0  0
 40 42  1  0  0  0  0
 41 43  1  0  0  0  0
 41 44  1  0  0  0  0
 42 46  1  0  0  0  0
 43 48  1  0  0  0  0
 44 66  1  0  0  0  0
 45 48  1  0  0  0  0
 45 66  1  0  0  0  0
 46 70  1  0  0  0  0
 47 65  1  0  0  0  0
 48 64  1  0  0  0  0
 49 58  1  0  0  0  0
 50 59  1  0  0  0  0
 51 60  1  0  0  0  0
 52 60  1  0  0  0  0
 53 60  1  0  0  0  0
 54 73  1  0  0  0  0
 55 72  1  0  0  0  0
 56 59  1  0  0  0  0
 56 80  1  0  0  0  0
 57 60  1  0  0  0  0
 57 71  1  0  0  0  0
 58 73  1  0  0  0  0
 59 69  1  0  0  0  0
 62 64  1  0  0  0  0
M  CHG  1  73   1
M  ISO  4  36 100  56 101  72 100  80 101
M  END
> <Batch ID>
0198

> <Smiles>
CNC(C)C(=O)NC(C(=O)N1Cc2cc([101O:1][101CH2:1]C(C)Nc3nccc(C[100NH:0][100C:0](=O)N4CCCC(n5nc(-c6ccc(Oc7ccc(F)cc7F)cc6)c(C(N)=O)c5N)C4)n3)ccc2CC1C(=O)NC1CCCc2ccccc21)C(C)(C)C

> <Shape>
0.189

> <Color>
0.086

> <Negative vol penalty>
0.000

$$$$

  -OEChem-04052305443D

 84 92  0     1  0  0  0  0  0999 V2000
  -29.6355  -21.8156   31.2338 C   0  0  0  0  0  0  0  0  0  0  0  0
  -30.3083  -21.8072   30.0162 C   0  0  0  0  0  0  0  0  0  0  0  0
  -23.0038   -9.8783   19.9858 C   0  0  0  0  0  0  0  0  0  0  0  0
  -23.7212   -9.9481   22.2918 C   0  0  0  0  0  0  0  0  0  0  0  0
  -28.2958  -22.1984   31.2861 C   0  0  0  0  0  0  0  0  0  0  0  0
  -29.6415  -22.1806   28.8498 C   0  0  0  0  0  0  0  0  0  0  0  0
  -32.3923  -25.2902   25.9501 C   0  0  0  0  0  0  0  0  0  0  0  0
  -22.2395   -8.7437   20.2579 C   0  0  0  0  0  0  0  0  0  0  0  0
  -22.9568   -8.8135   22.5640 C   0  0  0  0  0  0  0  0  0  0  0  0
  -33.4024  -24.7154   25.1800 C   0  0  0  0  0  0  0  0  0  0  0  0
  -21.4797   -5.7254   23.7851 C   0  0  0  0  0  0  0  0  0  0  0  0
  -22.0659   -4.7167   24.5496 C   0  0  0  0  0  0  0  0  0  0  0  0
  -31.9613  -24.7876   23.2468 C   0  0  0  0  0  0  0  0  0  0  0  0
  -23.7985   -4.4620   22.8851 C   0  0  0  0  0  0  0  0  0  0  0  0
  -23.7448  -10.4805   21.0027 C   0  0  0  0  0  0  0  0  0  0  0  0
  -24.1239  -12.9958   20.8096 C   0  0  0  0  0  0  0  0  0  0  0  0
  -27.6150  -22.5860   30.1212 C   0  0  0  0  0  0  0  0  0  0  0  0
  -31.1532  -25.6085   25.3759 C   0  0  0  0  0  0  0  0  0  0  0  0
  -28.2911  -22.5677   28.8864 C   0  0  0  0  0  0  0  0  0  0  0  0
  -30.9380  -25.3687   24.0112 C   0  0  0  0  0  0  0  0  0  0  0  0
  -22.2159   -8.2113   21.5470 C   0  0  0  0  0  0  0  0  0  0  0  0
  -33.1860  -24.4614   23.8288 C   0  0  0  0  0  0  0  0  0  0  0  0
  -22.0528   -6.1023   22.5705 C   0  0  0  0  0  0  0  0  0  0  0  0
  -23.2253   -4.0851   24.0997 C   0  0  0  0  0  0  0  0  0  0  0  0
  -23.2122   -5.4706   22.1205 C   0  0  0  0  0  0  0  0  0  0  0  0
  -24.5350  -11.6522   20.7221 C   0  0  0  0  0  0  0  0  0  0  0  0
  -31.8188  -18.6879   22.1780 C   0  0  0  0  0  0  0  0  0  0  0  0
  -30.7090  -19.0943   22.8888 C   0  0  0  0  0  0  0  0  0  0  0  0
  -25.2329  -13.7187   20.4435 C   0  0  0  0  0  0  0  0  0  0  0  0
  -30.5618  -16.9177   21.8672 C   0  0  0  0  0  0  0  0  0  0  0  0
  -22.8532  -13.5415   21.1879 C   0  0  0  0  0  0  0  0  0  0  0  0
  -28.1534  -24.6714   25.8518 C   0  0  0  0  0  0  0  0  0  0  0  0
  -27.4943  -27.0025   23.6944 C   0  0  0  0  0  0  0  0  0  0  0  0
  -28.5797  -28.9490   21.1099 C   0  0  0  0  0  0  0  0  0  0  0  0
  -30.7090  -14.6961   20.6885 C   0  0  0  0  0  0  0  0  0  0  0  0
  -26.1538  -22.9465   30.2204 C   0  0  0  0  0  0  0  0  0  0  0  0
  -30.0832  -26.2527   26.2141 C   0  0  0  0  0  0  0  0  0  0  0  0
  -29.6327  -25.7106   23.3422 C   0  0  0  0  0  0  0  0  0  0  0  0
  -25.6248  -23.6875   28.9951 C   0  0  0  0  0  0  0  0  0  0  0  0
  -29.6050  -12.2234   18.3768 C   0  0  0  0  0  0  0  0  0  0  0  0
  -26.0797  -22.9945   27.7146 C   0  0  0  0  0  0  0  0  0  0  0  0
  -28.1537  -11.9649   18.7881 C   0  0  0  0  0  0  0  0  0  0  0  0
  -30.5008  -12.4780   19.5878 C   0  0  0  0  0  0  0  0  0  0  0  0
  -28.5790  -13.2714   20.9092 C   0  0  0  0  0  0  0  0  0  0  0  0
  -27.6091  -22.9899   27.6031 C   0  0  1  0  0  0  0  0  0  0  0  0
  -28.6814  -26.0626   25.6430 C   0  0  1  0  0  0  0  0  0  0  0  0
  -27.6258  -13.0739   19.7193 C   0  0  2  0  0  0  0  0  0  0  0  0
  -29.5507  -21.3179   22.8712 C   0  0  0  0  0  0  0  0  0  0  0  0
  -27.8025  -30.7347   19.5273 C   0  0  0  0  0  0  0  0  0  0  0  0
  -25.9654  -24.9082   22.0862 C   0  0  0  0  0  0  0  0  0  0  0  0
  -26.0377  -26.4627   20.1249 C   0  0  0  0  0  0  0  0  0  0  0  0
  -24.8526  -27.1444   22.2114 C   0  0  0  0  0  0  0  0  0  0  0  0
  -30.5930  -30.8740   22.1100 C   0  0  0  0  0  0  0  0  0  0  0  0
  -33.0925  -19.4771   21.9905 C   0  0  0  0  0  0  0  0  0  0  0  0
  -30.4603  -20.3464   23.6305 C   0  0  0  0  0  0  0  0  0  0  0  0
  -34.8063  -21.9972   21.7565 C   0  0  0  0  0  0  0  0  0  0  0  0
  -34.4347  -21.0939   20.5786 C   0  0  0  0  0  0  0  0  0  0  0  0
  -33.7620  -23.0840   21.9776 C   0  0  0  0  0  0  0  0  0  1  0  0
  -27.3796  -27.0658   22.1905 C   0  0  1  0  0  0  0  0  0  0  0  0
  -28.4738  -30.4426   20.8603 C   0  0  2  0  0  0  0  0  0  0  0  0
  -33.0833  -20.3838   20.7493 C   0  0  1  0  0  0  0  0  0  0  0  0
  -26.0829  -26.3870   21.6660 C   0  0  0  0  0  0  0  0  0  0  0  0
  -25.8059  -11.5262   20.3311 N   0  0  0  0  0  0  0  0  0  0  0  0
  -31.7364  -17.4399   21.5918 N   0  0  0  0  0  0  0  0  0  0  0  0
  -26.2030  -12.7999   20.1694 N   0  0  0  0  0  0  0  0  0  0  0  0
  -28.6153  -26.3330   24.2054 N   0  0  0  0  0  0  0  0  0  0  0  0
  -29.9402  -13.5436   20.4215 N   0  0  0  0  0  0  0  0  0  0  0  0
  -25.4632  -15.0442   20.3325 N   0  0  0  0  0  0  0  0  0  0  0  0
  -21.8227  -12.6571   21.5345 N   0  0  0  0  0  0  0  0  0  0  0  0
  -30.0596  -15.6553   21.4650 N   0  0  0  0  0  0  0  0  0  0  0  0
  -28.0887  -24.2873   27.1776 N   0  0  0  0  0  0  0  0  0  0  0  0
  -27.5043  -28.4741   21.8306 N   0  0  0  0  0  0  0  0  0  0  0  0
  -32.8099  -19.5477   19.5427 N   0  3  0  0  0  0  0  0  0  0  0  0
  -29.8285  -31.0635   20.8503 N   0  3  0  0  0  0  0  0  0  0  0  0
  -22.6331  -14.7764   21.2019 O   0  0  0  0  0  0  0  0  0  0  0  0
  -27.8273  -23.9970   24.8820 O   0  0  0  0  0  0  0  0  0  0  0  0
  -26.6252  -27.5337   24.3902 O   0  0  0  0  0  0  0  0  0  0  0  0
  -29.5203  -28.2707   20.7029 O   0  0  0  0  0  0  0  0  0  0  0  0
  -31.8488  -14.8348   20.2373 O   0  0  0  0  0  0  0  0  0  0  0  0
  -21.4700   -7.1044   21.8130 O   0  0  0  0  0  0  0  0  0  0  0  0
  -34.1700  -23.8998   23.0750 O   0  0  0  0  0  0  0  0  0  1  0  0
  -23.7891   -3.1176   24.8348 F   0  0  0  0  0  0  0  0  0  0  0  0
  -23.7680   -5.8292   20.9551 F   0  0  0  0  0  0  0  0  0  0  0  0
  -29.5066  -17.8730   22.8258 S   0  0  0  0  0  0  0  0  0  0  0  0
  1  2  1  0  0  0  0
  1  5  2  0  0  0  0
  2  6  2  0  0  0  0
  3  8  2  0  0  0  0
  3 15  1  0  0  0  0
  4  9  1  0  0  0  0
  4 15  2  0  0  0  0
  5 17  1  0  0  0  0
  6 19  1  0  0  0  0
  7 10  2  0  0  0  0
  7 18  1  0  0  0  0
  8 21  1  0  0  0  0
  9 21  2  0  0  0  0
 10 22  1  0  0  0  0
 11 12  2  0  0  0  0
 11 23  1  0  0  0  0
 12 24  1  0  0  0  0
 13 20  1  0  0  0  0
 13 22  2  0  0  0  0
 14 24  2  0  0  0  0
 14 25  1  0  0  0  0
 15 26  1  0  0  0  0
 16 26  1  0  0  0  0
 16 29  2  0  0  0  0
 16 31  1  0  0  0  0
 17 19  2  0  0  0  0
 17 36  1  0  0  0  0
 18 20  2  0  0  0  0
 18 37  1  0  0  0  0
 19 45  1  0  0  0  0
 20 38  1  0  0  0  0
 21 80  1  0  0  0  0
 22 81  1  0  0  0  0
 23 25  2  0  0  0  0
 23 80  1  0  0  0  0
 24 82  1  0  0  0  0
 25 83  1  0  0  0  0
 26 63  2  0  0  0  0
 27 28  2  0  0  0  0
 27 54  1  0  0  0  0
 27 64  1  0  0  0  0
 28 55  1  0  0  0  0
 28 84  1  0  0  0  0
 29 65  1  0  0  0  0
 29 68  1  0  0  0  0
 30 64  2  0  0  0  0
 30 70  1  0  0  0  0
 30 84  1  0  0  0  0
 31 69  1  0  0  0  0
 31 75  2  0  0  0  0
 32 46  1  0  0  0  0
 32 71  1  0  0  0  0
 32 76  2  0  0  0  0
 33 59  1  0  0  0  0
 33 66  1  0  0  0  0
 33 77  2  0  0  0  0
 34 60  1  0  0  0  0
 34 72  1  0  0  0  0
 34 78  2  0  0  0  0
 35 67  1  0  0  0  0
 35 70  1  0  0  0  0
 35 79  2  0  0  0  0
 36 39  1  0  0  0  0
 37 46  1  0  0  0  0
 38 66  1  0  0  0  0
 39 41  1  0  0  0  0
 40 42  1  0  0  0  0
 40 43  1  0  0  0  0
 41 45  1  0  0  0  0
 42 47  1  0  0  0  0
 43 67  1  0  0  0  0
 44 47  1  0  0  0  0
 44 67  1  0  0  0  0
 45 71  1  0  0  0  0
 46 66  1  0  0  0  0
 47 65  1  0  0  0  0
 48 55  1  0  0  0  0
 49 60  1  0  0  0  0
 50 62  1  0  0  0  0
 51 62  1  0  0  0  0
 52 62  1  0  0  0  0
 53 74  1  0  0  0  0
 54 61  1  0  0  0  0
 56 57  1  0  0  0  0
 56 58  1  0  0  0  0
 57 61  1  0  0  0  0
 58 81  1  0  0  0  0
 59 62  1  0  0  0  0
 59 72  1  0  0  0  0
 60 74  1  0  0  0  0
 61 73  1  0  0  0  0
 63 65  1  0  0  0  0
M  CHG  2  73   1  74   1
M  ISO  4  35 100  58 101  70 100  81 101
M  END
> <Batch ID>
0198

> <Smiles>
CCc1sc([100NH:0][100C:0](=O)N2CCCC(n3nc(-c4ccc(Oc5ccc(F)cc5F)cc4)c(C(N)=O)c3N)C2)nc1CC(N)CC[101CH2:1][101O:1]c1ccc2c(c1)CN(C(=O)C(NC(=O)C(C)NC)C(C)(C)C)C(C(=O)NC1CCCc3ccccc31)C2

> <Shape>
0.201

> <Color>
0.190

> <Negative vol penalty>
0.000

$$$$

  -OEChem-04052305443D

 83 91  0     1  0  0  0  0  0999 V2000
  -29.6834  -27.4204   21.4853 C   0  0  0  0  0  0  0  0  0  0  0  0
  -28.4174  -26.9499   21.8192 C   0  0  0  0  0  0  0  0  0  0  0  0
  -24.7987  -28.6970   21.6989 C   0  0  0  0  0  0  0  0  0  0  0  0
  -23.7945  -30.0469   19.9649 C   0  0  0  0  0  0  0  0  0  0  0  0
  -30.4086  -26.8038   20.4666 C   0  0  0  0  0  0  0  0  0  0  0  0
  -27.8756  -25.8631   21.1338 C   0  0  0  0  0  0  0  0  0  0  0  0
  -24.2427  -21.5013   23.4322 C   0  0  0  0  0  0  0  0  0  0  0  0
  -25.5977  -29.7762   22.0763 C   0  0  0  0  0  0  0  0  0  0  0  0
  -24.5935  -31.1261   20.3424 C   0  0  0  0  0  0  0  0  0  0  0  0
  -22.8601  -21.3237   23.4091 C   0  0  0  0  0  0  0  0  0  0  0  0
  -25.2545  -32.6235   23.8674 C   0  0  0  0  0  0  0  0  0  0  0  0
  -25.3702  -32.8992   25.2298 C   0  0  0  0  0  0  0  0  0  0  0  0
  -23.0843  -19.8737   21.4944 C   0  0  0  0  0  0  0  0  0  0  0  0
  -27.7587  -32.5619   25.0953 C   0  0  0  0  0  0  0  0  0  0  0  0
  -17.4758  -20.9766   15.2148 C   0  0  0  0  0  0  0  0  0  0  0  0
  -23.8971  -28.8323   20.6431 C   0  0  0  0  0  0  0  0  0  0  0  0
  -21.7920  -27.3948   20.7420 C   0  0  0  0  0  0  0  0  0  0  0  0
  -29.8794  -25.7028   19.7749 C   0  0  0  0  0  0  0  0  0  0  0  0
  -25.0569  -20.8740   22.4782 C   0  0  0  0  0  0  0  0  0  0  0  0
  -28.5939  -25.2321   20.1040 C   0  0  0  0  0  0  0  0  0  0  0  0
  -24.4772  -20.0429   21.5090 C   0  0  0  0  0  0  0  0  0  0  0  0
  -25.4952  -30.9908   21.3981 C   0  0  0  0  0  0  0  0  0  0  0  0
  -22.2804  -20.5122   22.4384 C   0  0  0  0  0  0  0  0  0  0  0  0
  -26.3909  -32.3169   23.1189 C   0  0  0  0  0  0  0  0  0  0  0  0
  -26.6223  -32.8684   25.8437 C   0  0  0  0  0  0  0  0  0  0  0  0
  -27.6430  -32.2861   23.7328 C   0  0  0  0  0  0  0  0  0  0  0  0
  -23.0718  -27.7177   20.2524 C   0  0  0  0  0  0  0  0  0  0  0  0
  -18.1354  -22.0673   15.7417 C   0  0  0  0  0  0  0  0  0  0  0  0
  -21.4401  -26.2566   20.0585 C   0  0  0  0  0  0  0  0  0  0  0  0
  -17.7850  -20.9628   17.6037 C   0  0  0  0  0  0  0  0  0  0  0  0
  -20.9927  -28.0639   21.7264 C   0  0  0  0  0  0  0  0  0  0  0  0
  -27.0321  -21.8848   20.2022 C   0  0  0  0  0  0  0  0  0  0  0  0
  -27.6920  -18.7220   19.9125 C   0  0  0  0  0  0  0  0  0  0  0  0
  -26.6753  -15.4966   20.3701 C   0  0  0  0  0  0  0  0  0  0  0  0
  -21.1118  -23.3330   15.3161 C   0  0  0  0  0  0  0  0  0  0  0  0
  -30.6813  -25.0989   18.6494 C   0  0  0  0  0  0  0  0  0  0  0  0
  -26.5492  -21.0544   22.5331 C   0  0  0  0  0  0  0  0  0  0  0  0
  -25.3090  -19.3308   20.4749 C   0  0  0  0  0  0  0  0  0  0  0  0
  -30.1903  -23.7172   18.2248 C   0  0  0  0  0  0  0  0  0  0  0  0
  -24.1894  -23.2089   17.1022 C   0  0  0  0  0  0  0  0  0  0  0  0
  -28.6727  -23.7141   18.0705 C   0  0  0  0  0  0  0  0  0  0  0  0
  -24.0698  -24.3477   18.1165 C   0  0  0  0  0  0  0  0  0  0  0  0
  -23.5357  -23.5689   15.7699 C   0  0  0  0  0  0  0  0  0  0  0  0
  -22.0146  -25.1566   16.8833 C   0  0  0  0  0  0  0  0  0  0  0  0
  -27.9823  -24.0400   19.4003 C   0  0  1  0  0  0  0  0  0  0  0  0
  -27.2339  -20.7780   21.1981 C   0  0  1  0  0  0  0  0  0  0  0  0
  -22.6102  -24.8191   18.2608 C   0  0  2  0  0  0  0  0  0  0  0  0
  -27.4144  -13.1270   20.0010 C   0  0  0  0  0  0  0  0  0  0  0  0
  -27.0578  -18.9898   16.9399 C   0  0  0  0  0  0  0  0  0  0  0  0
  -26.8810  -16.4951   16.8241 C   0  0  0  0  0  0  0  0  0  0  0  0
  -29.0447  -17.5623   17.4582 C   0  0  0  0  0  0  0  0  0  0  0  0
  -26.5905  -14.8964   23.2670 C   0  0  0  0  0  0  0  0  0  0  0  0
  -18.6569  -23.2142   14.9719 C   0  0  0  0  0  0  0  0  0  0  0  0
  -18.8890  -19.4540   21.5223 C   0  0  0  0  0  0  0  0  0  0  0  0
  -18.3670  -21.4625   19.9779 C   0  0  0  0  0  0  0  0  0  0  0  0
  -20.4043  -19.4927   21.3909 C   0  0  0  0  0  0  0  0  0  1  0  0
  -27.1245  -17.5813   19.1027 C   0  0  1  0  0  0  0  0  0  0  0  0
  -27.3788  -14.2948   20.9745 C   0  0  2  0  0  0  0  0  0  0  0  0
  -18.2185  -20.8221   21.3590 C   0  0  1  0  0  0  0  0  0  0  0  0
  -27.5109  -17.6720   17.5994 C   0  0  0  0  0  0  0  0  0  0  0  0
  -23.5038  -26.8543   19.3294 N   0  0  0  0  0  0  0  0  0  0  0  0
  -18.3132  -22.0613   17.1114 N   0  0  0  0  0  0  0  0  0  0  0  0
  -22.4898  -25.9776   19.2336 N   0  0  0  0  0  0  0  0  0  0  0  0
  -26.7629  -19.5438   20.5661 N   0  0  0  0  0  0  0  0  0  0  0  0
  -22.1529  -24.0062   15.9764 N   0  0  0  0  0  0  0  0  0  0  0  0
  -20.3383  -25.4771   20.0888 N   0  0  0  0  0  0  0  0  0  0  0  0
  -21.5058  -29.2199   22.3303 N   0  0  0  0  0  0  0  0  0  0  0  0
  -17.7837  -20.6326   18.9488 N   0  0  0  0  0  0  0  0  0  0  0  0
  -27.9860  -22.8824   20.2688 N   0  0  0  0  0  0  0  0  0  0  0  0
  -27.5647  -16.3555   19.7600 N   0  0  0  0  0  0  0  0  0  0  0  0
  -19.8311  -23.8072   15.5722 N   0  0  0  0  0  0  0  0  0  0  0  0
  -26.6777  -13.8530   22.2131 N   0  3  0  0  0  0  0  0  0  0  0  0
  -19.8641  -27.6397   22.0725 O   0  0  0  0  0  0  0  0  0  0  0  0
  -26.0823  -21.8366   19.4294 O   0  0  0  0  0  0  0  0  0  0  0  0
  -28.9148  -18.8739   19.9689 O   0  0  0  0  0  0  0  0  0  0  0  0
  -25.4580  -15.6554   20.4299 O   0  0  0  0  0  0  0  0  0  0  0  0
  -21.3087  -22.3765   14.5590 O   0  0  0  0  0  0  0  0  0  0  0  0
  -16.8244  -20.6937   21.6448 O   0  0  0  0  0  0  0  0  0  0  0  0
  -26.2745  -32.0441   21.7662 O   0  0  0  0  0  0  0  0  0  0  0  0
  -20.9310  -20.3377   22.4132 O   0  0  0  0  0  0  0  0  0  1  0  0
  -26.7334  -33.1348   27.1518 F   0  0  0  0  0  0  0  0  0  0  0  0
  -28.7385  -31.9934   23.0187 F   0  0  0  0  0  0  0  0  0  0  0  0
  -17.0584  -19.8923   16.4762 S   0  0  0  0  0  0  0  0  0  0  0  0
  1  2  1  0  0  0  0
  1  5  2  0  0  0  0
  2  6  2  0  0  0  0
  3  8  2  0  0  0  0
  3 16  1  0  0  0  0
  4  9  1  0  0  0  0
  4 16  2  0  0  0  0
  5 18  1  0  0  0  0
  6 20  1  0  0  0  0
  7 10  2  0  0  0  0
  7 19  1  0  0  0  0
  8 22  1  0  0  0  0
  9 22  2  0  0  0  0
 10 23  1  0  0  0  0
 11 12  2  0  0  0  0
 11 24  1  0  0  0  0
 12 25  1  0  0  0  0
 13 21  1  0  0  0  0
 13 23  2  0  0  0  0
 14 25  2  0  0  0  0
 14 26  1  0  0  0  0
 15 28  2  0  0  0  0
 15 83  1  0  0  0  0
 16 27  1  0  0  0  0
 17 27  1  0  0  0  0
 17 29  2  0  0  0  0
 17 31  1  0  0  0  0
 18 20  2  0  0  0  0
 18 36  1  0  0  0  0
 19 21  2  0  0  0  0
 19 37  1  0  0  0  0
 20 45  1  0  0  0  0
 21 38  1  0  0  0  0
 22 79  1  0  0  0  0
 23 80  1  0  0  0  0
 24 26  2  0  0  0  0
 24 79  1  0  0  0  0
 25 81  1  0  0  0  0
 26 82  1  0  0  0  0
 27 61  2  0  0  0  0
 28 53  1  0  0  0  0
 28 62  1  0  0  0  0
 29 63  1  0  0  0  0
 29 66  1  0  0  0  0
 30 62  2  0  0  0  0
 30 68  1  0  0  0  0
 30 83  1  0  0  0  0
 31 67  1  0  0  0  0
 31 73  2  0  0  0  0
 32 46  1  0  0  0  0
 32 69  1  0  0  0  0
 32 74  2  0  0  0  0
 33 57  1  0  0  0  0
 33 64  1  0  0  0  0
 33 75  2  0  0  0  0
 34 58  1  0  0  0  0
 34 70  1  0  0  0  0
 34 76  2  0  0  0  0
 35 65  1  0  0  0  0
 35 71  1  0  0  0  0
 35 77  2  0  0  0  0
 36 39  1  0  0  0  0
 37 46  1  0  0  0  0
 38 64  1  0  0  0  0
 39 41  1  0  0  0  0
 40 42  1  0  0  0  0
 40 43  1  0  0  0  0
 41 45  1  0  0  0  0
 42 47  1  0  0  0  0
 43 65  1  0  0  0  0
 44 47  1  0  0  0  0
 44 65  1  0  0  0  0
 45 69  1  0  0  0  0
 46 64  1  0  0  0  0
 47 63  1  0  0  0  0
 48 58  1  0  0  0  0
 49 60  1  0  0  0  0
 50 60  1  0  0  0  0
 51 60  1  0  0  0  0
 52 72  1  0  0  0  0
 53 71  1  0  0  0  0
 54 56  1  0  0  0  0
 54 59  1  0  0  0  0
 55 59  1  0  0  0  0
 55 68  1  0  0  0  0
 56 80  1  0  0  0  0
 57 60  1  0  0  0  0
 57 70  1  0  0  0  0
 58 72  1  0  0  0  0
 59 78  1  0  0  0  0
 61 63  1  0  0  0  0
M  CHG  1  72   1
M  ISO  4  35 100  56 101  71 100  80 101
M  END
> <Batch ID>
0198

> <Smiles>
CNC(C)C(=O)NC(C(=O)N1Cc2cc([101O:1][101CH2:1]CC(O)CNc3nc(C[100NH:0][100C:0](=O)N4CCCC(n5nc(-c6ccc(Oc7ccc(F)cc7F)cc6)c(C(N)=O)c5N)C4)cs3)ccc2CC1C(=O)NC1CCCc2ccccc21)C(C)(C)C

> <Shape>
0.204

> <Color>
0.051

> <Negative vol penalty>
0.000

$$$$

  -OEChem-04052305443D

 83 91  0     1  0  0  0  0  0999 V2000
  -16.4285  -29.3540   23.3764 C   0  0  0  0  0  0  0  0  0  0  0  0
  -17.1148  -29.0643   22.2015 C   0  0  0  0  0  0  0  0  0  0  0  0
  -26.2864  -12.7031   21.6516 C   0  0  0  0  0  0  0  0  0  0  0  0
  -25.8342  -13.5863   19.4488 C   0  0  0  0  0  0  0  0  0  0  0  0
  -17.1053  -29.9190   24.4565 C   0  0  0  0  0  0  0  0  0  0  0  0
  -18.4783  -29.3404   22.1057 C   0  0  0  0  0  0  0  0  0  0  0  0
  -22.6832  -26.1063   19.0454 C   0  0  0  0  0  0  0  0  0  0  0  0
  -25.0830  -11.9986   21.6162 C   0  0  0  0  0  0  0  0  0  0  0  0
  -24.6309  -12.8818   19.4133 C   0  0  0  0  0  0  0  0  0  0  0  0
  -23.2636  -26.2737   17.7889 C   0  0  0  0  0  0  0  0  0  0  0  0
  -23.9036   -9.1513   20.2253 C   0  0  0  0  0  0  0  0  0  0  0  0
  -23.9185   -7.8213   20.6451 C   0  0  0  0  0  0  0  0  0  0  0  0
  -25.1367  -27.3992   18.8106 C   0  0  0  0  0  0  0  0  0  0  0  0
  -22.3169   -8.3494   22.3752 C   0  0  0  0  0  0  0  0  0  0  0  0
  -28.3519  -21.1895   17.2941 C   0  0  0  0  0  0  0  0  0  0  0  0
  -26.6620  -13.4970   20.5679 C   0  0  0  0  0  0  0  0  0  0  0  0
  -29.1654  -13.7780   20.1658 C   0  0  0  0  0  0  0  0  0  0  0  0
  -18.4797  -30.1932   24.3773 C   0  0  0  0  0  0  0  0  0  0  0  0
  -23.3211  -26.5946   20.1948 C   0  0  0  0  0  0  0  0  0  0  0  0
  -19.1738  -29.9108   23.1853 C   0  0  0  0  0  0  0  0  0  0  0  0
  -24.5635  -27.2345   20.0809 C   0  0  0  0  0  0  0  0  0  0  0  0
  -24.2553  -12.0880   20.4970 C   0  0  0  0  0  0  0  0  0  0  0  0
  -24.4891  -26.9228   17.6710 C   0  0  0  0  0  0  0  0  0  0  0  0
  -23.0954  -10.0805   20.8805 C   0  0  0  0  0  0  0  0  0  0  0  0
  -23.1251   -7.4203   21.7201 C   0  0  0  0  0  0  0  0  0  0  0  0
  -22.3021   -9.6795   21.9554 C   0  0  0  0  0  0  0  0  0  0  0  0
  -27.9046  -14.2254   20.6042 C   0  0  0  0  0  0  0  0  0  0  0  0
  -28.7701  -21.5368   18.5530 C   0  0  0  0  0  0  0  0  0  0  0  0
  -30.0095  -14.8326   20.4145 C   0  0  0  0  0  0  0  0  0  0  0  0
  -28.7651  -23.3012   16.6088 C   0  0  0  0  0  0  0  0  0  0  0  0
  -29.5399  -12.5215   19.5856 C   0  0  0  0  0  0  0  0  0  0  0  0
  -22.5956  -28.7447   22.4207 C   0  0  0  0  0  0  0  0  0  0  0  0
  -25.3181  -27.6544   23.8068 C   0  0  0  0  0  0  0  0  0  0  0  0
  -28.3466  -26.1255   23.4359 C   0  0  0  0  0  0  0  0  0  0  0  0
  -29.1453  -20.7245   20.9079 C   0  0  0  0  0  0  0  0  0  0  0  0
  -19.1584  -30.8479   25.5543 C   0  0  0  0  0  0  0  0  0  0  0  0
  -22.6946  -26.3823   21.5457 C   0  0  0  0  0  0  0  0  0  0  0  0
  -25.2988  -27.7591   21.2861 C   0  0  0  0  0  0  0  0  0  0  0  0
  -20.6817  -30.7635   25.5034 C   0  0  0  0  0  0  0  0  0  0  0  0
  -30.5682  -18.5685   23.3582 C   0  0  0  0  0  0  0  0  0  0  0  0
  -21.1911  -31.1398   24.1157 C   0  0  0  0  0  0  0  0  0  0  0  0
  -30.1666  -17.1690   22.8868 C   0  0  0  0  0  0  0  0  0  0  0  0
  -29.4657  -19.5931   23.0970 C   0  0  0  0  0  0  0  0  0  0  0  0
  -28.5738  -18.2391   21.2421 C   0  0  0  0  0  0  0  0  0  0  0  0
  -20.6582  -30.1728   23.0515 C   0  0  1  0  0  0  0  0  0  0  0  0
  -23.1868  -27.3743   22.5951 C   0  0  1  0  0  0  0  0  0  0  0  0
  -29.6781  -17.1853   21.4250 C   0  0  2  0  0  0  0  0  0  0  0  0
  -30.5204  -25.0698   24.1123 C   0  0  0  0  0  0  0  0  0  0  0  0
  -26.2723  -30.5504   23.9188 C   0  0  0  0  0  0  0  0  0  0  0  0
  -28.5907  -29.6976   24.3268 C   0  0  0  0  0  0  0  0  0  0  0  0
  -26.7762  -29.2060   25.9666 C   0  0  0  0  0  0  0  0  0  0  0  0
  -27.0979  -23.4565   23.7123 C   0  0  0  0  0  0  0  0  0  0  0  0
  -26.9335  -26.6033   15.0350 C   0  0  0  0  0  0  0  0  0  0  0  0
  -29.2022  -25.6183   15.7928 C   0  0  0  0  0  0  0  0  0  0  0  0
  -26.4829  -27.1266   16.3908 C   0  0  0  0  0  0  0  0  0  1  0  0
  -26.7794  -28.0258   23.7307 C   0  0  1  0  0  0  0  0  0  0  0  0
  -29.0044  -24.9935   24.2043 C   0  0  2  0  0  0  0  0  0  0  0  0
  -28.4553  -26.5716   14.8586 C   0  0  1  0  0  0  0  0  0  0  0  0
  -27.0901  -29.3619   24.4626 C   0  0  0  0  0  0  0  0  0  0  0  0
  -28.3396  -22.0715   16.2832 N   0  0  0  0  0  0  0  0  0  0  0  0
  -27.9400  -15.4674   21.0943 N   0  0  0  0  0  0  0  0  0  0  0  0
  -29.1865  -22.7878   18.8204 N   0  0  0  0  0  0  0  0  0  0  0  0
  -29.1862  -23.6992   17.8254 N   0  0  0  0  0  0  0  0  0  0  0  0
  -29.2333  -15.8094   20.9655 N   0  0  0  0  0  0  0  0  0  0  0  0
  -24.6424  -27.5328   22.5843 N   0  0  0  0  0  0  0  0  0  0  0  0
  -29.0565  -19.5544   21.6913 N   0  0  0  0  0  0  0  0  0  0  0  0
  -31.3325  -15.0104   20.2134 N   0  0  0  0  0  0  0  0  0  0  0  0
  -28.5479  -11.5490   19.4002 N   0  0  0  0  0  0  0  0  0  0  0  0
  -28.7596  -20.5587   19.5781 N   0  0  0  0  0  0  0  0  0  0  0  0
  -28.7729  -24.2519   15.6015 N   0  0  0  0  0  0  0  0  0  0  0  0
  -21.3972  -28.9289   23.0835 N   0  0  0  0  0  0  0  0  0  0  0  0
  -27.5196  -26.8777   24.2430 N   0  0  0  0  0  0  0  0  0  0  0  0
  -28.5663  -23.6763   23.6621 N   0  3  0  0  0  0  0  0  0  0  0  0
  -30.7225  -12.2626   19.2570 O   0  0  0  0  0  0  0  0  0  0  0  0
  -23.1839  -29.5739   21.7367 O   0  0  0  0  0  0  0  0  0  0  0  0
  -24.7973  -27.4716   24.9099 O   0  0  0  0  0  0  0  0  0  0  0  0
  -28.5493  -26.3249   22.2402 O   0  0  0  0  0  0  0  0  0  0  0  0
  -29.5607  -21.7882   21.3749 O   0  0  0  0  0  0  0  0  0  0  0  0
  -28.7596  -26.2068   13.5110 O   0  0  0  0  0  0  0  0  0  0  0  0
  -23.0811  -11.4005   20.4620 O   0  0  0  0  0  0  0  0  0  0  0  0
  -25.0575  -27.0881   16.4457 O   0  0  0  0  0  0  0  0  0  1  0  0
  -23.1384   -6.1427   22.1221 F   0  0  0  0  0  0  0  0  0  0  0  0
  -21.5227  -10.5674   22.5880 F   0  0  0  0  0  0  0  0  0  0  0  0
  1  2  1  0  0  0  0
  1  5  2  0  0  0  0
  2  6  2  0  0  0  0
  3  8  2  0  0  0  0
  3 16  1  0  0  0  0
  4  9  1  0  0  0  0
  4 16  2  0  0  0  0
  5 18  1  0  0  0  0
  6 20  1  0  0  0  0
  7 10  2  0  0  0  0
  7 19  1  0  0  0  0
  8 22  1  0  0  0  0
  9 22  2  0  0  0  0
 10 23  1  0  0  0  0
 11 12  2  0  0  0  0
 11 24  1  0  0  0  0
 12 25  1  0  0  0  0
 13 21  1  0  0  0  0
 13 23  2  0  0  0  0
 14 25  2  0  0  0  0
 14 26  1  0  0  0  0
 15 28  1  0  0  0  0
 15 60  2  0  0  0  0
 16 27  1  0  0  0  0
 17 27  1  0  0  0  0
 17 29  2  0  0  0  0
 17 31  1  0  0  0  0
 18 20  2  0  0  0  0
 18 36  1  0  0  0  0
 19 21  2  0  0  0  0
 19 37  1  0  0  0  0
 20 45  1  0  0  0  0
 21 38  1  0  0  0  0
 22 80  1  0  0  0  0
 23 81  1  0  0  0  0
 24 26  2  0  0  0  0
 24 80  1  0  0  0  0
 25 82  1  0  0  0  0
 26 83  1  0  0  0  0
 27 61  2  0  0  0  0
 28 62  2  0  0  0  0
 28 69  1  0  0  0  0
 29 64  1  0  0  0  0
 29 67  1  0  0  0  0
 30 60  1  0  0  0  0
 30 63  2  0  0  0  0
 30 70  1  0  0  0  0
 31 68  1  0  0  0  0
 31 74  2  0  0  0  0
 32 46  1  0  0  0  0
 32 71  1  0  0  0  0
 32 75  2  0  0  0  0
 33 56  1  0  0  0  0
 33 65  1  0  0  0  0
 33 76  2  0  0  0  0
 34 57  1  0  0  0  0
 34 72  1  0  0  0  0
 34 77  2  0  0  0  0
 35 66  1  0  0  0  0
 35 69  1  0  0  0  0
 35 78  2  0  0  0  0
 36 39  1  0  0  0  0
 37 46  1  0  0  0  0
 38 65  1  0  0  0  0
 39 41  1  0  0  0  0
 40 42  1  0  0  0  0
 40 43  1  0  0  0  0
 41 45  1  0  0  0  0
 42 47  1  0  0  0  0
 43 66  1  0  0  0  0
 44 47  1  0  0  0  0
 44 66  1  0  0  0  0
 45 71  1  0  0  0  0
 46 65  1  0  0  0  0
 47 64  1  0  0  0  0
 48 57  1  0  0  0  0
 49 59  1  0  0  0  0
 50 59  1  0  0  0  0
 51 59  1  0  0  0  0
 52 73  1  0  0  0  0
 53 55  1  0  0  0  0
 53 58  1  0  0  0  0
 54 58  1  0  0  0  0
 54 70  1  0  0  0  0
 55 81  1  0  0  0  0
 56 59  1  0  0  0  0
 56 72  1  0  0  0  0
 57 73  1  0  0  0  0
 58 79  1  0  0  0  0
 61 64  1  0  0  0  0
 62 63  1  0  0  0  0
M  CHG  1  73   1
M  ISO  4  35 100  55 101  69 100  81 101
M  END
> <Batch ID>
0198

> <Smiles>
CNC(C)C(=O)NC(C(=O)N1Cc2cc([101O:1][101CH2:1]CC(O)CNc3ncc([100NH:0][100C:0](=O)N4CCCC(n5nc(-c6ccc(Oc7ccc(F)cc7F)cc6)c(C(N)=O)c5N)C4)nn3)ccc2CC1C(=O)NC1CCCc2ccccc21)C(C)(C)C

> <Shape>
0.269

> <Color>
0.092

> <Negative vol penalty>
0.000

$$$$

  -OEChem-04052305443D

 86 94  0     1  0  0  0  0  0999 V2000
  -28.4220  -37.9956   24.9804 C   0  0  0  0  0  0  0  0  0  0  0  0
  -28.9945  -36.7867   24.5978 C   0  0  0  0  0  0  0  0  0  0  0  0
  -23.7112   -9.7844   21.9540 C   0  0  0  0  0  0  0  0  0  0  0  0
  -23.0531  -12.0907   22.2454 C   0  0  0  0  0  0  0  0  0  0  0  0
  -27.1750  -38.0087   25.6038 C   0  0  0  0  0  0  0  0  0  0  0  0
  -28.3206  -35.5901   24.8394 C   0  0  0  0  0  0  0  0  0  0  0  0
  -28.3429  -30.5773   21.3212 C   0  0  0  0  0  0  0  0  0  0  0  0
  -22.8864   -9.4148   23.0164 C   0  0  0  0  0  0  0  0  0  0  0  0
  -22.2283  -11.7211   23.3078 C   0  0  0  0  0  0  0  0  0  0  0  0
  -29.0629  -29.3855   21.3912 C   0  0  0  0  0  0  0  0  0  0  0  0
  -19.5895   -8.8773   23.5403 C   0  0  0  0  0  0  0  0  0  0  0  0
  -18.7796   -7.7542   23.3719 C   0  0  0  0  0  0  0  0  0  0  0  0
  -27.2177  -28.3456   22.5457 C   0  0  0  0  0  0  0  0  0  0  0  0
  -19.8646   -6.6902   25.2502 C   0  0  0  0  0  0  0  0  0  0  0  0
  -30.5730  -18.2407   20.4175 C   0  0  0  0  0  0  0  0  0  0  0  0
  -23.7946  -11.1224   21.5685 C   0  0  0  0  0  0  0  0  0  0  0  0
  -24.2983  -11.5777   19.1096 C   0  0  0  0  0  0  0  0  0  0  0  0
  -26.4811  -36.8123   25.8444 C   0  0  0  0  0  0  0  0  0  0  0  0
  -27.0570  -30.6656   21.8736 C   0  0  0  0  0  0  0  0  0  0  0  0
  -27.0637  -35.5871   25.4678 C   0  0  0  0  0  0  0  0  0  0  0  0
  -26.4825  -29.5390   22.4792 C   0  0  0  0  0  0  0  0  0  0  0  0
  -22.1449  -10.3831   23.6933 C   0  0  0  0  0  0  0  0  0  0  0  0
  -28.5015  -28.2702   22.0060 C   0  0  0  0  0  0  0  0  0  0  0  0
  -20.5370   -8.9068   24.5636 C   0  0  0  0  0  0  0  0  0  0  0  0
  -18.9171   -6.6607   24.2269 C   0  0  0  0  0  0  0  0  0  0  0  0
  -20.6746   -7.8133   25.4185 C   0  0  0  0  0  0  0  0  0  0  0  0
  -24.6469  -11.5048   20.4715 C   0  0  0  0  0  0  0  0  0  0  0  0
  -25.4496  -11.9863   18.4818 C   0  0  0  0  0  0  0  0  0  0  0  0
  -29.4444  -17.4566   20.5337 C   0  0  0  0  0  0  0  0  0  0  0  0
  -29.0902  -19.8345   20.6842 C   0  0  0  0  0  0  0  0  0  0  0  0
  -23.0458  -11.3007   18.4691 C   0  0  0  0  0  0  0  0  0  0  0  0
  -25.7219  -32.3926   24.1841 C   0  0  0  0  0  0  0  0  0  0  0  0
  -29.6583  -22.5832   19.3032 C   0  0  0  0  0  0  0  0  0  0  0  0
  -22.9989  -30.9749   23.1361 C   0  0  0  0  0  0  0  0  0  0  0  0
  -21.5364  -28.3458   21.5252 C   0  0  0  0  0  0  0  0  0  0  0  0
  -30.2259  -15.0714   20.3187 C   0  0  0  0  0  0  0  0  0  0  0  0
  -25.1570  -36.8731   26.5639 C   0  0  0  0  0  0  0  0  0  0  0  0
  -26.2829  -31.9507   21.7662 C   0  0  0  0  0  0  0  0  0  0  0  0
  -25.0974  -29.5758   23.0697 C   0  0  0  0  0  0  0  0  0  0  0  0
  -24.3400  -35.5890   26.4457 C   0  0  0  0  0  0  0  0  0  0  0  0
  -30.2158  -11.8017   18.9094 C   0  0  0  0  0  0  0  0  0  0  0  0
  -25.2176  -34.3711   26.7165 C   0  0  0  0  0  0  0  0  0  0  0  0
  -28.7537  -11.3635   19.0206 C   0  0  0  0  0  0  0  0  0  0  0  0
  -30.6524  -12.6318   20.1153 C   0  0  0  0  0  0  0  0  0  0  0  0
  -28.3313  -13.3450   20.5314 C   0  0  0  0  0  0  0  0  0  0  0  0
  -26.3526  -34.2699   25.6903 C   0  0  1  0  0  0  0  0  0  0  0  0
  -25.1842  -32.0760   22.8172 C   0  0  1  0  0  0  0  0  0  0  0  0
  -27.8269  -12.5608   19.3089 C   0  0  2  0  0  0  0  0  0  0  0  0
  -31.3262  -22.8254   17.4196 C   0  0  0  0  0  0  0  0  0  0  0  0
  -19.2904  -27.4471   20.8579 C   0  0  0  0  0  0  0  0  0  0  0  0
  -22.5010  -30.0897   26.0133 C   0  0  0  0  0  0  0  0  0  0  0  0
  -20.8239  -28.4466   25.1440 C   0  0  0  0  0  0  0  0  0  0  0  0
  -20.4656  -30.8914   24.8014 C   0  0  0  0  0  0  0  0  0  0  0  0
  -22.2178  -28.4568   18.6473 C   0  0  0  0  0  0  0  0  0  0  0  0
  -31.1273  -22.5660   18.9032 C   0  0  0  0  0  0  0  0  0  0  0  0
  -28.5230  -23.4594   21.4239 C   0  0  0  0  0  0  0  0  0  0  0  0
  -28.4491  -25.8938   22.0824 C   0  0  0  0  0  0  0  0  0  1  0  0
  -29.3056  -22.3191   20.7616 C   0  0  1  0  0  0  0  0  0  0  0  0
  -22.2581  -29.7032   23.4722 C   0  0  1  0  0  0  0  0  0  0  0  0
  -20.4812  -28.2932   20.4350 C   0  0  2  0  0  0  0  0  0  0  0  0
  -29.2742  -24.7965   21.4165 C   0  0  1  0  0  0  0  0  0  0  0  0
  -21.5390  -29.7823   24.8484 C   0  0  0  0  0  0  0  0  0  0  0  0
  -30.3718  -19.6045   20.5032 N   0  0  0  0  0  0  0  0  0  0  0  0
  -25.9200  -11.8402   20.6966 N   0  0  0  0  0  0  0  0  0  0  0  0
  -26.3815  -12.1276   19.4676 N   0  0  0  0  0  0  0  0  0  0  0  0
  -24.3830  -30.8571   22.9453 N   0  0  0  0  0  0  0  0  0  0  0  0
  -29.7305  -13.7503   20.3248 N   0  0  0  0  0  0  0  0  0  0  0  0
  -25.7455  -12.2349   17.1884 N   0  0  0  0  0  0  0  0  0  0  0  0
  -21.9656  -10.8915   19.2628 N   0  0  0  0  0  0  0  0  0  0  0  0
  -29.2517  -16.0534   20.4952 N   0  0  0  0  0  0  0  0  0  0  0  0
  -28.5347  -21.0957   20.8115 N   0  0  0  0  0  0  0  0  0  0  0  0
  -25.8553  -33.7446   24.4369 N   0  0  0  0  0  0  0  0  0  0  0  0
  -21.3676  -29.4401   22.3469 N   0  0  0  0  0  0  0  0  0  0  0  0
  -21.0530  -27.7102   19.1884 N   0  3  0  0  0  0  0  0  0  0  0  0
  -22.8936  -11.3971   17.2277 O   0  0  0  0  0  0  0  0  0  0  0  0
  -25.9940  -31.4781   24.9530 O   0  0  0  0  0  0  0  0  0  0  0  0
  -28.7643  -22.8035   18.4832 O   0  0  0  0  0  0  0  0  0  0  0  0
  -22.3716  -32.0326   23.0392 O   0  0  0  0  0  0  0  0  0  0  0  0
  -22.4195  -27.4986   21.6387 O   0  0  0  0  0  0  0  0  0  0  0  0
  -31.4222  -15.3150   20.1408 O   0  0  0  0  0  0  0  0  0  0  0  0
  -30.4968  -24.6415   22.1368 O   0  0  0  0  0  0  0  0  0  0  0  0
  -21.3398  -10.0228   24.7299 O   0  0  0  0  0  0  0  0  0  0  0  0
  -29.2023  -27.1058   22.0763 O   0  0  0  0  0  0  0  0  0  1  0  0
  -18.1383   -5.5829   24.0660 F   0  0  0  0  0  0  0  0  0  0  0  0
  -21.5823   -7.8363   26.4041 F   0  0  0  0  0  0  0  0  0  0  0  0
  -28.0700  -18.4568   20.7616 S   0  0  0  0  0  0  0  0  0  0  0  0
  1  2  1  0  0  0  0
  1  5  2  0  0  0  0
  2  6  2  0  0  0  0
  3  8  2  0  0  0  0
  3 16  1  0  0  0  0
  4  9  1  0  0  0  0
  4 16  2  0  0  0  0
  5 18  1  0  0  0  0
  6 20  1  0  0  0  0
  7 10  2  0  0  0  0
  7 19  1  0  0  0  0
  8 22  1  0  0  0  0
  9 22  2  0  0  0  0
 10 23  1  0  0  0  0
 11 12  2  0  0  0  0
 11 24  1  0  0  0  0
 12 25  1  0  0  0  0
 13 21  1  0  0  0  0
 13 23  2  0  0  0  0
 14 25  2  0  0  0  0
 14 26  1  0  0  0  0
 15 29  2  0  0  0  0
 15 63  1  0  0  0  0
 16 27  1  0  0  0  0
 17 27  1  0  0  0  0
 17 28  2  0  0  0  0
 17 31  1  0  0  0  0
 18 20  2  0  0  0  0
 18 37  1  0  0  0  0
 19 21  2  0  0  0  0
 19 38  1  0  0  0  0
 20 46  1  0  0  0  0
 21 39  1  0  0  0  0
 22 82  1  0  0  0  0
 23 83  1  0  0  0  0
 24 26  2  0  0  0  0
 24 82  1  0  0  0  0
 25 84  1  0  0  0  0
 26 85  1  0  0  0  0
 27 64  2  0  0  0  0
 28 65  1  0  0  0  0
 28 68  1  0  0  0  0
 29 70  1  0  0  0  0
 29 86  1  0  0  0  0
 30 63  2  0  0  0  0
 30 71  1  0  0  0  0
 30 86  1  0  0  0  0
 31 69  1  0  0  0  0
 31 75  2  0  0  0  0
 32 47  1  0  0  0  0
 32 72  1  0  0  0  0
 32 76  2  0  0  0  0
 33 55  1  0  0  0  0
 33 58  1  0  0  0  0
 33 77  2  0  0  0  0
 34 59  1  0  0  0  0
 34 66  1  0  0  0  0
 34 78  2  0  0  0  0
 35 60  1  0  0  0  0
 35 73  1  0  0  0  0
 35 79  2  0  0  0  0
 36 67  1  0  0  0  0
 36 70  1  0  0  0  0
 36 80  2  0  0  0  0
 37 40  1  0  0  0  0
 38 47  1  0  0  0  0
 39 66  1  0  0  0  0
 40 42  1  0  0  0  0
 41 43  1  0  0  0  0
 41 44  1  0  0  0  0
 42 46  1  0  0  0  0
 43 48  1  0  0  0  0
 44 67  1  0  0  0  0
 45 48  1  0  0  0  0
 45 67  1  0  0  0  0
 46 72  1  0  0  0  0
 47 66  1  0  0  0  0
 48 65  1  0  0  0  0
 49 55  1  0  0  0  0
 50 60  1  0  0  0  0
 51 62  1  0  0  0  0
 52 62  1  0  0  0  0
 53 62  1  0  0  0  0
 54 74  1  0  0  0  0
 56 58  1  0  0  0  0
 56 61  1  0  0  0  0
 57 61  1  0  0  0  0
 57 83  1  0  0  0  0
 58 71  1  0  0  0  0
 59 62  1  0  0  0  0
 59 73  1  0  0  0  0
 60 74  1  0  0  0  0
 61 81  1  0  0  0  0
 64 65  1  0  0  0  0
M  CHG  1  74   1
M  ISO  4  36 100  57 101  70 100  83 101
M  END
> <Batch ID>
0198

> <Smiles>
CCC(=O)C(CC(O)[101CH2:1][101O:1]c1ccc2c(c1)CN(C(=O)C(NC(=O)C(C)NC)C(C)(C)C)C(C(=O)NC1CCCc3ccccc31)C2)Nc1ncc([100NH:0][100C:0](=O)N2CCCC(n3nc(-c4ccc(Oc5ccc(F)cc5F)cc4)c(C(N)=O)c3N)C2)s1

> <Shape>
0.312

> <Color>
0.104

> <Negative vol penalty>
0.000

$$$$

  -OEChem-04052305443D

 87 95  0     1  0  0  0  0  0999 V2000
  -16.5311  -23.3609   23.8182 C   0  0  0  0  0  0  0  0  0  0  0  0
  -17.9171  -23.3642   23.9377 C   0  0  0  0  0  0  0  0  0  0  0  0
  -27.4091  -14.2704   18.6939 C   0  0  0  0  0  0  0  0  0  0  0  0
  -25.8709  -15.0881   20.3680 C   0  0  0  0  0  0  0  0  0  0  0  0
  -15.9113  -24.1874   22.8819 C   0  0  0  0  0  0  0  0  0  0  0  0
  -18.6843  -24.1933   23.1201 C   0  0  0  0  0  0  0  0  0  0  0  0
  -22.3219  -26.6166   25.6775 C   0  0  0  0  0  0  0  0  0  0  0  0
  -27.1536  -12.9604   19.0990 C   0  0  0  0  0  0  0  0  0  0  0  0
  -25.6154  -13.7780   20.7731 C   0  0  0  0  0  0  0  0  0  0  0  0
  -23.4662  -25.8885   26.0007 C   0  0  0  0  0  0  0  0  0  0  0  0
  -24.2849  -10.6279   22.0078 C   0  0  0  0  0  0  0  0  0  0  0  0
  -22.9564  -10.2633   22.2262 C   0  0  0  0  0  0  0  0  0  0  0  0
  -24.6229  -26.8902   24.1358 C   0  0  0  0  0  0  0  0  0  0  0  0
  -22.4331  -10.7928   19.9278 C   0  0  0  0  0  0  0  0  0  0  0  0
  -32.4789  -27.3318   22.0035 C   0  0  0  0  0  0  0  0  0  0  0  0
  -33.5594  -27.1568   21.1673 C   0  0  0  0  0  0  0  0  0  0  0  0
  -26.7678  -15.3343   19.3285 C   0  0  0  0  0  0  0  0  0  0  0  0
  -26.3472  -17.4218   17.9238 C   0  0  0  0  0  0  0  0  0  0  0  0
  -16.6707  -25.0341   22.0590 C   0  0  0  0  0  0  0  0  0  0  0  0
  -22.3162  -27.4802   24.5727 C   0  0  0  0  0  0  0  0  0  0  0  0
  -18.0742  -25.0309   22.1710 C   0  0  0  0  0  0  0  0  0  0  0  0
  -23.4781  -27.6300   23.8022 C   0  0  0  0  0  0  0  0  0  0  0  0
  -26.2567  -12.7142   20.1385 C   0  0  0  0  0  0  0  0  0  0  0  0
  -24.6160  -26.0231   25.2280 C   0  0  0  0  0  0  0  0  0  0  0  0
  -24.6875  -11.0750   20.7493 C   0  0  0  0  0  0  0  0  0  0  0  0
  -22.0305  -10.3457   21.1863 C   0  0  0  0  0  0  0  0  0  0  0  0
  -23.7616  -11.1575   19.7094 C   0  0  0  0  0  0  0  0  0  0  0  0
  -27.0318  -16.6878   18.9109 C   0  0  0  0  0  0  0  0  0  0  0  0
  -31.2266  -25.9564   20.6733 C   0  0  0  0  0  0  0  0  0  0  0  0
  -32.3069  -25.7819   19.8366 C   0  0  0  0  0  0  0  0  0  0  0  0
  -26.9757  -18.6429   17.9061 C   0  0  0  0  0  0  0  0  0  0  0  0
  -25.2418  -17.0344   17.0968 C   0  0  0  0  0  0  0  0  0  0  0  0
  -20.6819  -27.6290   21.8505 C   0  0  0  0  0  0  0  0  0  0  0  0
  -22.2662  -30.4386   21.5063 C   0  0  0  0  0  0  0  0  0  0  0  0
  -24.9787  -32.3513   22.3004 C   0  0  0  0  0  0  0  0  0  0  0  0
  -29.1098  -22.9490   20.3276 C   0  0  0  0  0  0  0  0  0  0  0  0
  -15.9590  -25.8750   21.0290 C   0  0  0  0  0  0  0  0  0  0  0  0
  -21.0822  -28.2786   24.2533 C   0  0  0  0  0  0  0  0  0  0  0  0
  -23.5300  -28.5593   22.6181 C   0  0  0  0  0  0  0  0  0  0  0  0
  -16.8205  -26.9991   20.4595 C   0  0  0  0  0  0  0  0  0  0  0  0
  -31.2792  -20.1756   20.0559 C   0  0  0  0  0  0  0  0  0  0  0  0
  -18.2038  -26.4752   20.0870 C   0  0  0  0  0  0  0  0  0  0  0  0
  -30.3052  -19.0673   19.6586 C   0  0  0  0  0  0  0  0  0  0  0  0
  -30.6829  -21.1156   21.1054 C   0  0  0  0  0  0  0  0  0  0  0  0
  -28.3976  -20.5773   20.3242 C   0  0  0  0  0  0  0  0  0  0  0  0
  -18.9392  -25.9344   21.3192 C   0  0  1  0  0  0  0  0  0  0  0  0
  -21.0287  -28.7404   22.8003 C   0  0  1  0  0  0  0  0  0  0  0  0
  -28.9501  -19.6544   19.2270 C   0  0  2  0  0  0  0  0  0  0  0  0
  -28.7217  -26.1119   20.9247 C   0  0  0  0  0  0  0  0  0  0  0  0
  -26.0158  -34.5886   21.8351 C   0  0  0  0  0  0  0  0  0  0  0  0
  -26.3813  -22.5033   25.0152 C   0  0  0  0  0  0  0  0  0  0  0  0
  -23.1874  -29.4406   18.7741 C   0  0  0  0  0  0  0  0  0  0  0  0
  -24.9311  -31.2372   18.7833 C   0  0  0  0  0  0  0  0  0  0  0  0
  -22.5130  -31.8482   18.8323 C   0  0  0  0  0  0  0  0  0  0  0  0
  -24.8186  -33.1471   25.1464 C   0  0  0  0  0  0  0  0  0  0  0  0
  -28.3509  -23.2769   23.6602 C   0  0  0  0  0  0  0  0  0  0  0  0
  -30.4156  -23.8086   22.3177 C   0  0  0  0  0  0  0  0  0  0  0  0
  -26.5986  -24.9551   24.4636 C   0  0  0  0  0  0  0  0  0  1  0  0
  -29.8973  -25.2838   20.4096 C   0  0  2  0  0  0  0  0  0  0  0  0
  -23.5828  -30.8559   20.8970 C   0  0  1  0  0  0  0  0  0  0  0  0
  -25.0953  -33.7964   22.7505 C   0  0  2  0  0  0  0  0  0  0  0  0
  -27.3606  -23.6611   24.7800 C   0  0  1  0  0  0  0  0  0  0  0  0
  -29.4413  -24.3206   23.3793 C   0  0  2  0  0  0  0  0  0  0  0  0
  -23.5523  -30.8264   19.3427 C   0  0  0  0  0  0  0  0  0  0  0  0
  -31.2931  -26.7347   21.7716 N   0  0  0  0  0  0  0  0  0  0  0  0
  -33.4928  -26.3787   20.0688 N   0  0  0  0  0  0  0  0  0  0  0  0
  -28.0197  -17.3845   19.4791 N   0  0  0  0  0  0  0  0  0  0  0  0
  -27.9604  -18.5689   18.8468 N   0  0  0  0  0  0  0  0  0  0  0  0
  -22.2961  -29.3135   22.3424 N   0  0  0  0  0  0  0  0  0  0  0  0
  -29.3699  -21.6153   20.6752 N   0  0  0  0  0  0  0  0  0  0  0  0
  -32.1734  -24.9525   18.7004 N   0  0  0  0  0  0  0  0  0  0  0  0
  -26.7766  -19.7619   17.1777 N   0  0  0  0  0  0  0  0  0  0  0  0
  -24.7173  -15.7431   17.2444 N   0  0  0  0  0  0  0  0  0  0  0  0
  -19.4671  -27.0244   22.1115 N   0  0  0  0  0  0  0  0  0  0  0  0
  -23.8991  -32.1625   21.4638 N   0  0  0  0  0  0  0  0  0  0  0  0
  -29.8688  -23.9396   20.9686 N   0  0  0  0  0  0  0  0  0  0  0  0
  -25.6383  -33.8650   24.1366 N   0  3  0  0  0  0  0  0  0  0  0  0
  -24.7449  -17.8047   16.2405 O   0  0  0  0  0  0  0  0  0  0  0  0
  -21.4583  -27.3422   20.9467 O   0  0  0  0  0  0  0  0  0  0  0  0
  -21.2499  -31.0914   21.2556 O   0  0  0  0  0  0  0  0  0  0  0  0
  -25.7687  -31.4782   22.6526 O   0  0  0  0  0  0  0  0  0  0  0  0
  -28.2410  -23.2410   19.4956 O   0  0  0  0  0  0  0  0  0  0  0  0
  -30.1544  -24.5683   24.5890 O   0  0  0  0  0  0  0  0  0  0  0  0
  -26.0070  -11.4359   20.5338 O   0  0  0  0  0  0  0  0  0  0  0  0
  -25.7340  -25.3131   25.5409 O   0  0  0  0  0  0  0  0  0  1  0  0
  -20.7551   -9.9941   21.3958 F   0  0  0  0  0  0  0  0  0  0  0  0
  -24.1427  -11.5852   18.4979 F   0  0  0  0  0  0  0  0  0  0  0  0
  1  2  1  0  0  0  0
  1  5  2  0  0  0  0
  2  6  2  0  0  0  0
  3  8  2  0  0  0  0
  3 17  1  0  0  0  0
  4  9  1  0  0  0  0
  4 17  2  0  0  0  0
  5 19  1  0  0  0  0
  6 21  1  0  0  0  0
  7 10  2  0  0  0  0
  7 20  1  0  0  0  0
  8 23  1  0  0  0  0
  9 23  2  0  0  0  0
 10 24  1  0  0  0  0
 11 12  2  0  0  0  0
 11 25  1  0  0  0  0
 12 26  1  0  0  0  0
 13 22  1  0  0  0  0
 13 24  2  0  0  0  0
 14 26  2  0  0  0  0
 14 27  1  0  0  0  0
 15 16  1  0  0  0  0
 15 65  2  0  0  0  0
 16 66  2  0  0  0  0
 17 28  1  0  0  0  0
 18 28  1  0  0  0  0
 18 31  2  0  0  0  0
 18 32  1  0  0  0  0
 19 21  2  0  0  0  0
 19 37  1  0  0  0  0
 20 22  2  0  0  0  0
 20 38  1  0  0  0  0
 21 46  1  0  0  0  0
 22 39  1  0  0  0  0
 23 84  1  0  0  0  0
 24 85  1  0  0  0  0
 25 27  2  0  0  0  0
 25 84  1  0  0  0  0
 26 86  1  0  0  0  0
 27 87  1  0  0  0  0
 28 67  2  0  0  0  0
 29 30  2  0  0  0  0
 29 59  1  0  0  0  0
 29 65  1  0  0  0  0
 30 66  1  0  0  0  0
 30 71  1  0  0  0  0
 31 68  1  0  0  0  0
 31 72  1  0  0  0  0
 32 73  1  0  0  0  0
 32 78  2  0  0  0  0
 33 47  1  0  0  0  0
 33 74  1  0  0  0  0
 33 79  2  0  0  0  0
 34 60  1  0  0  0  0
 34 69  1  0  0  0  0
 34 80  2  0  0  0  0
 35 61  1  0  0  0  0
 35 75  1  0  0  0  0
 35 81  2  0  0  0  0
 36 70  1  0  0  0  0
 36 76  1  0  0  0  0
 36 82  2  0  0  0  0
 37 40  1  0  0  0  0
 38 47  1  0  0  0  0
 39 69  1  0  0  0  0
 40 42  1  0  0  0  0
 41 43  1  0  0  0  0
 41 44  1  0  0  0  0
 42 46  1  0  0  0  0
 43 48  1  0  0  0  0
 44 70  1  0  0  0  0
 45 48  1  0  0  0  0
 45 70  1  0  0  0  0
 46 74  1  0  0  0  0
 47 69  1  0  0  0  0
 48 68  1  0  0  0  0
 49 59  1  0  0  0  0
 50 61  1  0  0  0  0
 51 62  1  0  0  0  0
 52 64  1  0  0  0  0
 53 64  1  0  0  0  0
 54 64  1  0  0  0  0
 55 77  1  0  0  0  0
 56 62  1  0  0  0  0
 56 63  1  0  0  0  0
 57 63  1  0  0  0  0
 57 76  1  0  0  0  0
 58 62  1  0  0  0  0
 58 85  1  0  0  0  0
 59 76  1  0  0  0  0
 60 64  1  0  0  0  0
 60 75  1  0  0  0  0
 61 77  1  0  0  0  0
 63 83  1  0  0  0  0
 67 68  1  0  0  0  0
M  CHG  1  77   1
M  ISO  4  36 100  58 101  76 100  85 101
M  END
> <Batch ID>
0198

> <Smiles>
CNC(C)C(=O)NC(C(=O)N1Cc2cc([101O:1][101CH2:1]C(C)CC(O)C[100N:0](C(C)c3nccnc3N)[100C:0](=O)N3CCCC(n4nc(-c5ccc(Oc6ccc(F)cc6F)cc5)c(C(N)=O)c4N)C3)ccc2CC1C(=O)NC1CCCc2ccccc21)C(C)(C)C

> <Shape>
0.252

> <Color>
0.043

> <Negative vol penalty>
0.000

$$$$

  -OEChem-04052305443D

 82 90  0     1  0  0  0  0  0999 V2000
  -26.6765  -21.3152   15.7452 C   0  0  0  0  0  0  0  0  0  0  0  0
  -27.2683  -20.6920   16.8392 C   0  0  0  0  0  0  0  0  0  0  0  0
  -22.3403  -29.2776   19.5898 C   0  0  0  0  0  0  0  0  0  0  0  0
  -22.4763  -28.0250   21.6513 C   0  0  0  0  0  0  0  0  0  0  0  0
  -25.2870  -21.3723   15.6443 C   0  0  0  0  0  0  0  0  0  0  0  0
  -26.4709  -20.1264   17.8335 C   0  0  0  0  0  0  0  0  0  0  0  0
  -28.0847  -15.5376   19.2418 C   0  0  0  0  0  0  0  0  0  0  0  0
  -20.9527  -29.3384   19.7183 C   0  0  0  0  0  0  0  0  0  0  0  0
  -21.0887  -28.0859   21.7798 C   0  0  0  0  0  0  0  0  0  0  0  0
  -29.1814  -15.4843   20.1010 C   0  0  0  0  0  0  0  0  0  0  0  0
  -18.7780  -30.3401   22.7795 C   0  0  0  0  0  0  0  0  0  0  0  0
  -18.2583  -30.6625   24.0331 C   0  0  0  0  0  0  0  0  0  0  0  0
  -27.6946  -15.1274   21.9669 C   0  0  0  0  0  0  0  0  0  0  0  0
  -17.0939  -28.5465   24.0946 C   0  0  0  0  0  0  0  0  0  0  0  0
  -29.1484  -20.9731   23.4525 C   0  0  0  0  0  0  0  0  0  0  0  0
  -23.1021  -28.6208   20.5563 C   0  0  0  0  0  0  0  0  0  0  0  0
  -25.4769  -29.4779   20.9214 C   0  0  0  0  0  0  0  0  0  0  0  0
  -24.4723  -20.7987   16.6331 C   0  0  0  0  0  0  0  0  0  0  0  0
  -26.7818  -15.3969   19.7411 C   0  0  0  0  0  0  0  0  0  0  0  0
  -25.0693  -20.1771   17.7465 C   0  0  0  0  0  0  0  0  0  0  0  0
  -26.5832  -15.1768   21.1116 C   0  0  0  0  0  0  0  0  0  0  0  0
  -20.3269  -28.7426   20.8132 C   0  0  0  0  0  0  0  0  0  0  0  0
  -28.9863  -15.2821   21.4641 C   0  0  0  0  0  0  0  0  0  0  0  0
  -18.4556  -29.1210   22.1833 C   0  0  0  0  0  0  0  0  0  0  0  0
  -17.4162  -29.7657   24.6907 C   0  0  0  0  0  0  0  0  0  0  0  0
  -17.6135  -28.2242   22.8409 C   0  0  0  0  0  0  0  0  0  0  0  0
  -24.5354  -28.5571   20.4238 C   0  0  0  0  0  0  0  0  0  0  0  0
  -29.8841  -20.6088   22.3443 C   0  0  0  0  0  0  0  0  0  0  0  0
  -26.6925  -28.9696   20.5334 C   0  0  0  0  0  0  0  0  0  0  0  0
  -28.7663  -22.2777   21.4639 C   0  0  0  0  0  0  0  0  0  0  0  0
  -25.2710  -30.6847   21.6677 C   0  0  0  0  0  0  0  0  0  0  0  0
  -24.1998  -17.2488   19.8254 C   0  0  0  0  0  0  0  0  0  0  0  0
  -22.8056  -14.5832   21.0392 C   0  0  0  0  0  0  0  0  0  0  0  0
  -23.1719  -11.6120   22.6776 C   0  0  0  0  0  0  0  0  0  0  0  0
  -28.5853  -23.4511   19.2420 C   0  0  0  0  0  0  0  0  0  0  0  0
  -22.9750  -20.9269   16.5044 C   0  0  0  0  0  0  0  0  0  0  0  0
  -25.6110  -15.4301   18.7974 C   0  0  0  0  0  0  0  0  0  0  0  0
  -25.2060  -14.9996   21.6949 C   0  0  0  0  0  0  0  0  0  0  0  0
  -22.2018  -19.9745   17.4129 C   0  0  0  0  0  0  0  0  0  0  0  0
  -28.7150  -26.3001   17.1104 C   0  0  0  0  0  0  0  0  0  0  0  0
  -22.7779  -19.9983   18.8251 C   0  0  0  0  0  0  0  0  0  0  0  0
  -27.7482  -27.2883   17.7669 C   0  0  0  0  0  0  0  0  0  0  0  0
  -28.2200  -24.8596   17.2276 C   0  0  0  0  0  0  0  0  0  0  0  0
  -26.9230  -25.4138   19.2475 C   0  0  0  0  0  0  0  0  0  0  0  0
  -24.2382  -19.5302   18.8332 C   0  0  1  0  0  0  0  0  0  0  0  0
  -24.2980  -15.7882   19.4867 C   0  0  1  0  0  0  0  0  0  0  0  0
  -27.4110  -26.8713   19.2119 C   0  0  2  0  0  0  0  0  0  0  0  0
  -21.8463   -9.6722   23.5595 C   0  0  0  0  0  0  0  0  0  0  0  0
  -33.0643  -17.8668   23.8992 C   0  0  0  0  0  0  0  0  0  0  0  0
  -21.8688  -16.2934   23.3860 C   0  0  0  0  0  0  0  0  0  0  0  0
  -21.4056  -14.1822   24.6494 C   0  0  0  0  0  0  0  0  0  0  0  0
  -20.1698  -14.6663   22.5373 C   0  0  0  0  0  0  0  0  0  0  0  0
  -24.5933   -9.6952   20.9271 C   0  0  0  0  0  0  0  0  0  0  0  0
  -30.8805  -19.4887   22.2835 C   0  0  0  0  0  0  0  0  0  0  0  0
  -31.1620  -16.2297   24.1841 C   0  0  0  0  0  0  0  0  0  0  0  0
  -29.8485  -15.6732   23.6458 C   0  0  0  0  0  0  0  0  0  1  0  0
  -22.6101  -14.0150   22.4241 C   0  0  1  0  0  0  0  0  0  0  0  0
  -22.6321  -10.2246   22.3805 C   0  0  2  0  0  0  0  0  0  0  0  0
  -31.7157  -17.3995   23.3681 C   0  0  1  0  0  0  0  0  0  0  0  0
  -21.5396  -14.7945   23.2388 C   0  0  0  0  0  0  0  0  0  0  0  0
  -25.1041  -27.5410   19.7695 N   0  0  0  0  0  0  0  0  0  0  0  0
  -29.6661  -21.3555   21.2029 N   0  0  0  0  0  0  0  0  0  0  0  0
  -26.4160  -27.8203   19.8532 N   0  0  0  0  0  0  0  0  0  0  0  0
  -24.0929  -15.0463   20.7324 N   0  0  0  0  0  0  0  0  0  0  0  0
  -27.9246  -24.5342   18.6247 N   0  0  0  0  0  0  0  0  0  0  0  0
  -27.9602  -29.3983   20.7111 N   0  0  0  0  0  0  0  0  0  0  0  0
  -23.9578  -31.0603   21.9817 N   0  0  0  0  0  0  0  0  0  0  0  0
  -28.2481  -23.2575   20.5812 N   0  0  0  0  0  0  0  0  0  0  0  0
  -24.3072  -18.0881   18.7329 N   0  0  0  0  0  0  0  0  0  0  0  0
  -22.3107  -12.5984   22.2456 N   0  0  0  0  0  0  0  0  0  0  0  0
  -23.7509   -9.2868   22.0806 N   0  3  0  0  0  0  0  0  0  0  0  0
  -30.7733  -18.5512   23.4314 N   0  3  0  0  0  0  0  0  0  0  0  0
  -26.2225  -31.4171   22.0308 O   0  0  0  0  0  0  0  0  0  0  0  0
  -24.0370  -17.5890   20.9913 O   0  0  0  0  0  0  0  0  0  0  0  0
  -21.8529  -14.6084   20.2559 O   0  0  0  0  0  0  0  0  0  0  0  0
  -24.2479  -11.8017   23.2403 O   0  0  0  0  0  0  0  0  0  0  0  0
  -29.4112  -22.7639   18.6356 O   0  0  0  0  0  0  0  0  0  0  0  0
  -18.9729  -28.8020   20.9391 O   0  0  0  0  0  0  0  0  0  0  0  0
  -30.0549  -15.2303   22.3051 O   0  0  0  0  0  0  0  0  0  1  0  0
  -16.9185  -30.0748   25.8952 F   0  0  0  0  0  0  0  0  0  0  0  0
  -17.3012  -27.0509   22.2737 F   0  0  0  0  0  0  0  0  0  0  0  0
  -28.1407  -22.3047   23.0616 S   0  0  0  0  0  0  0  0  0  0  0  0
  1  2  1  0  0  0  0
  1  5  2  0  0  0  0
  2  6  2  0  0  0  0
  3  8  2  0  0  0  0
  3 16  1  0  0  0  0
  4  9  1  0  0  0  0
  4 16  2  0  0  0  0
  5 18  1  0  0  0  0
  6 20  1  0  0  0  0
  7 10  2  0  0  0  0
  7 19  1  0  0  0  0
  8 22  1  0  0  0  0
  9 22  2  0  0  0  0
 10 23  1  0  0  0  0
 11 12  2  0  0  0  0
 11 24  1  0  0  0  0
 12 25  1  0  0  0  0
 13 21  1  0  0  0  0
 13 23  2  0  0  0  0
 14 25  2  0  0  0  0
 14 26  1  0  0  0  0
 15 28  2  0  0  0  0
 15 82  1  0  0  0  0
 16 27  1  0  0  0  0
 17 27  1  0  0  0  0
 17 29  2  0  0  0  0
 17 31  1  0  0  0  0
 18 20  2  0  0  0  0
 18 36  1  0  0  0  0
 19 21  2  0  0  0  0
 19 37  1  0  0  0  0
 20 45  1  0  0  0  0
 21 38  1  0  0  0  0
 22 78  1  0  0  0  0
 23 79  1  0  0  0  0
 24 26  2  0  0  0  0
 24 78  1  0  0  0  0
 25 80  1  0  0  0  0
 26 81  1  0  0  0  0
 27 61  2  0  0  0  0
 28 54  1  0  0  0  0
 28 62  1  0  0  0  0
 29 63  1  0  0  0  0
 29 66  1  0  0  0  0
 30 62  2  0  0  0  0
 30 68  1  0  0  0  0
 30 82  1  0  0  0  0
 31 67  1  0  0  0  0
 31 73  2  0  0  0  0
 32 46  1  0  0  0  0
 32 69  1  0  0  0  0
 32 74  2  0  0  0  0
 33 57  1  0  0  0  0
 33 64  1  0  0  0  0
 33 75  2  0  0  0  0
 34 58  1  0  0  0  0
 34 70  1  0  0  0  0
 34 76  2  0  0  0  0
 35 65  1  0  0  0  0
 35 68  1  0  0  0  0
 35 77  2  0  0  0  0
 36 39  1  0  0  0  0
 37 46  1  0  0  0  0
 38 64  1  0  0  0  0
 39 41  1  0  0  0  0
 40 42  1  0  0  0  0
 40 43  1  0  0  0  0
 41 45  1  0  0  0  0
 42 47  1  0  0  0  0
 43 65  1  0  0  0  0
 44 47  1  0  0  0  0
 44 65  1  0  0  0  0
 45 69  1  0  0  0  0
 46 64  1  0  0  0  0
 47 63  1  0  0  0  0
 48 58  1  0  0  0  0
 49 59  1  0  0  0  0
 50 60  1  0  0  0  0
 51 60  1  0  0  0  0
 52 60  1  0  0  0  0
 53 71  1  0  0  0  0
 54 72  1  0  0  0  0
 55 56  1  0  0  0  0
 55 59  1  0  0  0  0
 56 79  1  0  0  0  0
 57 60  1  0  0  0  0
 57 70  1  0  0  0  0
 58 71  1  0  0  0  0
 59 72  1  0  0  0  0
 61 63  1  0  0  0  0
M  CHG  2  71   1  72   1
M  ISO  4  35 100  56 101  68 100  79 101
M  END
> <Batch ID>
0198

> <Smiles>
CNC(C)C(=O)NC(C(=O)N1Cc2cc([101O:1][101CH2:1]CC(C)NCc3csc([100NH:0][100C:0](=O)N4CCCC(n5nc(-c6ccc(Oc7ccc(F)cc7F)cc6)c(C(N)=O)c5N)C4)n3)ccc2CC1C(=O)NC1CCCc2ccccc21)C(C)(C)C

> <Shape>
0.231

> <Color>
0.078

> <Negative vol penalty>
0.000

$$$$

  -OEChem-04052305443D

 85 93  0     1  0  0  0  0  0999 V2000
  -22.7863  -37.5436   22.8813 C   0  0  0  0  0  0  0  0  0  0  0  0
  -23.9858  -37.2022   22.2649 C   0  0  0  0  0  0  0  0  0  0  0  0
  -23.6495   -9.5345   21.0986 C   0  0  0  0  0  0  0  0  0  0  0  0
  -24.1820  -10.4489   23.2706 C   0  0  0  0  0  0  0  0  0  0  0  0
  -22.5286  -37.1210   24.1847 C   0  0  0  0  0  0  0  0  0  0  0  0
  -24.9289  -36.4387   22.9520 C   0  0  0  0  0  0  0  0  0  0  0  0
  -27.1711  -30.1026   20.3601 C   0  0  0  0  0  0  0  0  0  0  0  0
  -23.0852   -8.4142   21.7086 C   0  0  0  0  0  0  0  0  0  0  0  0
  -23.6176   -9.3286   23.8806 C   0  0  0  0  0  0  0  0  0  0  0  0
  -27.8062  -28.9814   19.8257 C   0  0  0  0  0  0  0  0  0  0  0  0
  -20.1861   -7.6147   23.2543 C   0  0  0  0  0  0  0  0  0  0  0  0
  -18.9553   -7.1667   22.7750 C   0  0  0  0  0  0  0  0  0  0  0  0
  -29.1272  -28.7571   21.8388 C   0  0  0  0  0  0  0  0  0  0  0  0
  -19.9466   -5.0336   22.2233 C   0  0  0  0  0  0  0  0  0  0  0  0
  -28.6811  -18.9681   21.1945 C   0  0  0  0  0  0  0  0  0  0  0  0
  -24.1979  -10.5519   21.8796 C   0  0  0  0  0  0  0  0  0  0  0  0
  -24.1300  -12.9084   20.9052 C   0  0  0  0  0  0  0  0  0  0  0  0
  -23.4648  -36.3438   24.8847 C   0  0  0  0  0  0  0  0  0  0  0  0
  -27.5010  -30.5467   21.6435 C   0  0  0  0  0  0  0  0  0  0  0  0
  -24.6840  -36.0064   24.2665 C   0  0  0  0  0  0  0  0  0  0  0  0
  -28.4854  -29.8722   22.3843 C   0  0  0  0  0  0  0  0  0  0  0  0
  -23.0692   -8.3112   23.0995 C   0  0  0  0  0  0  0  0  0  0  0  0
  -28.7820  -28.3105   20.5632 C   0  0  0  0  0  0  0  0  0  0  0  0
  -21.2973   -6.7723   23.2181 C   0  0  0  0  0  0  0  0  0  0  0  0
  -18.8355   -5.8761   22.2595 C   0  0  0  0  0  0  0  0  0  0  0  0
  -21.1775   -5.4817   22.7026 C   0  0  0  0  0  0  0  0  0  0  0  0
  -24.7815  -11.7091   21.2501 C   0  0  0  0  0  0  0  0  0  0  0  0
  -30.0068  -20.7768   20.7469 C   0  0  0  0  0  0  0  0  0  0  0  0
  -29.6674  -18.1289   20.7250 C   0  0  0  0  0  0  0  0  0  0  0  0
  -30.9935  -19.9376   20.2781 C   0  0  0  0  0  0  0  0  0  0  0  0
  -25.1132  -13.6827   20.3391 C   0  0  0  0  0  0  0  0  0  0  0  0
  -22.7588  -13.2887   21.0808 C   0  0  0  0  0  0  0  0  0  0  0  0
  -30.1535  -22.2548   20.7772 C   0  0  0  0  0  0  0  0  0  0  0  0
  -26.8855  -33.0409   24.3778 C   0  0  0  0  0  0  0  0  0  0  0  0
  -27.2423  -30.3092   25.7273 C   0  0  0  0  0  0  0  0  0  0  0  0
  -27.2741  -27.0664   26.7858 C   0  0  0  0  0  0  0  0  0  0  0  0
  -30.2934  -15.7242   20.3098 C   0  0  0  0  0  0  0  0  0  0  0  0
  -23.1618  -35.9501   26.3087 C   0  0  0  0  0  0  0  0  0  0  0  0
  -26.8865  -31.7864   22.2347 C   0  0  0  0  0  0  0  0  0  0  0  0
  -28.8327  -30.4063   23.7470 C   0  0  0  0  0  0  0  0  0  0  0  0
  -24.0539  -34.8281   26.8335 C   0  0  0  0  0  0  0  0  0  0  0  0
  -29.8149  -12.4951   18.8882 C   0  0  0  0  0  0  0  0  0  0  0  0
  -25.5144  -35.1017   26.4886 C   0  0  0  0  0  0  0  0  0  0  0  0
  -28.4092  -12.1014   19.3476 C   0  0  0  0  0  0  0  0  0  0  0  0
  -30.5646  -13.2784   19.9644 C   0  0  0  0  0  0  0  0  0  0  0  0
  -28.4449  -14.0546   20.9510 C   0  0  0  0  0  0  0  0  0  0  0  0
  -25.7214  -35.1586   24.9703 C   0  0  1  0  0  0  0  0  0  0  0  0
  -26.6798  -31.6905   23.7569 C   0  0  1  0  0  0  0  0  0  0  0  0
  -27.6271  -13.3199   19.8762 C   0  0  2  0  0  0  0  0  0  0  0  0
  -27.1215  -25.6719   28.8665 C   0  0  0  0  0  0  0  0  0  0  0  0
  -30.1132  -31.0580   26.4353 C   0  0  0  0  0  0  0  0  0  0  0  0
  -30.2198  -29.0072   27.8675 C   0  0  0  0  0  0  0  0  0  0  0  0
  -28.5838  -30.8138   28.3989 C   0  0  0  0  0  0  0  0  0  0  0  0
  -24.8315  -25.6969   25.8282 C   0  0  0  0  0  0  0  0  0  0  0  0
  -28.9630  -24.4263   20.6243 C   0  0  0  0  0  0  0  0  0  0  0  0
  -28.6353  -26.4209   19.1260 C   0  0  0  0  0  0  0  0  0  1  0  0
  -28.1890  -29.3372   26.3850 C   0  0  1  0  0  0  0  0  0  0  0  0
  -26.3507  -26.3012   27.7165 C   0  0  2  0  0  0  0  0  0  0  0  0
  -29.1138  -24.9759   19.2089 C   0  0  1  0  0  0  0  0  0  0  0  0
  -29.2699  -30.0521   27.2440 C   0  0  0  0  0  0  0  0  0  0  0  0
  -28.8330  -20.3071   21.2138 N   0  0  0  0  0  0  0  0  0  0  0  0
  -26.0782  -11.7161   20.9298 N   0  0  0  0  0  0  0  0  0  0  0  0
  -30.8414  -18.5986   20.2584 N   0  0  0  0  0  0  0  0  0  0  0  0
  -26.2494  -12.9293   20.3776 N   0  0  0  0  0  0  0  0  0  0  0  0
  -27.6064  -30.7900   24.4637 N   0  0  0  0  0  0  0  0  0  0  0  0
  -29.7651  -14.4201   20.4140 N   0  0  0  0  0  0  0  0  0  0  0  0
  -32.2035  -20.4910   19.8018 N   0  0  0  0  0  0  0  0  0  0  0  0
  -25.1079  -14.9277   19.8171 N   0  0  0  0  0  0  0  0  0  0  0  0
  -21.8831  -12.3731   21.6802 N   0  0  0  0  0  0  0  0  0  0  0  0
  -29.4298  -16.7320   20.7380 N   0  0  0  0  0  0  0  0  0  0  0  0
  -28.9814  -22.9870   20.6392 N   0  0  0  0  0  0  0  0  0  0  0  0
  -25.7469  -33.8231   24.4132 N   0  0  0  0  0  0  0  0  0  0  0  0
  -27.3574  -28.3988   27.1308 N   0  0  0  0  0  0  0  0  0  0  0  0
  -25.6479  -25.2175   26.9730 N   0  3  0  0  0  0  0  0  0  0  0  0
  -22.3194  -14.4009   20.7022 O   0  0  0  0  0  0  0  0  0  0  0  0
  -31.2735  -22.7443   20.8983 O   0  0  0  0  0  0  0  0  0  0  0  0
  -27.9948  -33.3510   24.7959 O   0  0  0  0  0  0  0  0  0  0  0  0
  -26.2101  -30.6392   26.3180 O   0  0  0  0  0  0  0  0  0  0  0  0
  -27.8656  -26.5345   25.8488 O   0  0  0  0  0  0  0  0  0  0  0  0
  -31.4178  -15.9339   19.8477 O   0  0  0  0  0  0  0  0  0  0  0  0
  -30.4951  -24.9522   18.8442 O   0  0  0  0  0  0  0  0  0  0  0  0
  -22.5184   -7.2183   23.6951 O   0  0  0  0  0  0  0  0  0  0  0  0
  -29.3950  -27.2139   20.0373 O   0  0  0  0  0  0  0  0  0  1  0  0
  -17.6531   -5.4454   21.8006 F   0  0  0  0  0  0  0  0  0  0  0  0
  -22.2412   -4.6674   22.6663 F   0  0  0  0  0  0  0  0  0  0  0  0
  1  2  1  0  0  0  0
  1  5  2  0  0  0  0
  2  6  2  0  0  0  0
  3  8  2  0  0  0  0
  3 16  1  0  0  0  0
  4  9  1  0  0  0  0
  4 16  2  0  0  0  0
  5 18  1  0  0  0  0
  6 20  1  0  0  0  0
  7 10  2  0  0  0  0
  7 19  1  0  0  0  0
  8 22  1  0  0  0  0
  9 22  2  0  0  0  0
 10 23  1  0  0  0  0
 11 12  2  0  0  0  0
 11 24  1  0  0  0  0
 12 25  1  0  0  0  0
 13 21  1  0  0  0  0
 13 23  2  0  0  0  0
 14 25  2  0  0  0  0
 14 26  1  0  0  0  0
 15 29  1  0  0  0  0
 15 61  2  0  0  0  0
 16 27  1  0  0  0  0
 17 27  1  0  0  0  0
 17 31  2  0  0  0  0
 17 32  1  0  0  0  0
 18 20  2  0  0  0  0
 18 38  1  0  0  0  0
 19 21  2  0  0  0  0
 19 39  1  0  0  0  0
 20 47  1  0  0  0  0
 21 40  1  0  0  0  0
 22 82  1  0  0  0  0
 23 83  1  0  0  0  0
 24 26  2  0  0  0  0
 24 82  1  0  0  0  0
 25 84  1  0  0  0  0
 26 85  1  0  0  0  0
 27 62  2  0  0  0  0
 28 30  2  0  0  0  0
 28 33  1  0  0  0  0
 28 61  1  0  0  0  0
 29 63  2  0  0  0  0
 29 70  1  0  0  0  0
 30 63  1  0  0  0  0
 30 67  1  0  0  0  0
 31 64  1  0  0  0  0
 31 68  1  0  0  0  0
 32 69  1  0  0  0  0
 32 75  2  0  0  0  0
 33 71  1  0  0  0  0
 33 76  2  0  0  0  0
 34 48  1  0  0  0  0
 34 72  1  0  0  0  0
 34 77  2  0  0  0  0
 35 57  1  0  0  0  0
 35 65  1  0  0  0  0
 35 78  2  0  0  0  0
 36 58  1  0  0  0  0
 36 73  1  0  0  0  0
 36 79  2  0  0  0  0
 37 66  1  0  0  0  0
 37 70  1  0  0  0  0
 37 80  2  0  0  0  0
 38 41  1  0  0  0  0
 39 48  1  0  0  0  0
 40 65  1  0  0  0  0
 41 43  1  0  0  0  0
 42 44  1  0  0  0  0
 42 45  1  0  0  0  0
 43 47  1  0  0  0  0
 44 49  1  0  0  0  0
 45 66  1  0  0  0  0
 46 49  1  0  0  0  0
 46 66  1  0  0  0  0
 47 72  1  0  0  0  0
 48 65  1  0  0  0  0
 49 64  1  0  0  0  0
 50 58  1  0  0  0  0
 51 60  1  0  0  0  0
 52 60  1  0  0  0  0
 53 60  1  0  0  0  0
 54 74  1  0  0  0  0
 55 59  1  0  0  0  0
 55 71  1  0  0  0  0
 56 59  1  0  0  0  0
 56 83  1  0  0  0  0
 57 60  1  0  0  0  0
 57 73  1  0  0  0  0
 58 74  1  0  0  0  0
 59 81  1  0  0  0  0
 62 64  1  0  0  0  0
M  CHG  1  74   1
M  ISO  4  37 100  56 101  70 100  83 101
M  END
> <Batch ID>
0198

> <Smiles>
CNC(C)C(=O)NC(C(=O)N1Cc2cc([101O:1][101CH2:1]C(O)CNC(=O)c3ncc([100NH:0][100C:0](=O)N4CCCC(n5nc(-c6ccc(Oc7ccc(F)cc7F)cc6)c(C(N)=O)c5N)C4)nc3N)ccc2CC1C(=O)NC1CCCc2ccccc21)C(C)(C)C

> <Shape>
0.337

> <Color>
0.149

> <Negative vol penalty>
0.000

$$$$

  -OEChem-04052305443D

 86 94  0     1  0  0  0  0  0999 V2000
  -20.4535  -18.9584   15.9017 C   0  0  0  0  0  0  0  0  0  0  0  0
  -21.7616  -18.6077   16.2202 C   0  0  0  0  0  0  0  0  0  0  0  0
  -23.0646   -9.8819   19.9280 C   0  0  0  0  0  0  0  0  0  0  0  0
  -23.8345   -9.8600   22.2179 C   0  0  0  0  0  0  0  0  0  0  0  0
  -20.1966  -20.1556   15.2350 C   0  0  0  0  0  0  0  0  0  0  0  0
  -22.8137  -19.4537   15.8712 C   0  0  0  0  0  0  0  0  0  0  0  0
  -27.9721  -20.4101   19.0306 C   0  0  0  0  0  0  0  0  0  0  0  0
  -22.3175   -8.7287   20.1681 C   0  0  0  0  0  0  0  0  0  0  0  0
  -23.0874   -8.7068   22.4581 C   0  0  0  0  0  0  0  0  0  0  0  0
  -29.2594  -19.8896   18.9046 C   0  0  0  0  0  0  0  0  0  0  0  0
  -19.8589   -7.9142   23.0658 C   0  0  0  0  0  0  0  0  0  0  0  0
  -19.1070   -7.8638   24.2395 C   0  0  0  0  0  0  0  0  0  0  0  0
  -29.7889  -17.6675   22.7645 C   0  0  0  0  0  0  0  0  0  0  0  0
  -29.9074  -21.8211   17.6129 C   0  0  0  0  0  0  0  0  0  0  0  0
  -20.3443   -5.9135   24.9484 C   0  0  0  0  0  0  0  0  0  0  0  0
  -30.3154  -18.8760   23.1730 C   0  0  0  0  0  0  0  0  0  0  0  0
  -23.8232  -10.4475   20.9529 C   0  0  0  0  0  0  0  0  0  0  0  0
  -24.1740  -12.9726   20.8600 C   0  0  0  0  0  0  0  0  0  0  0  0
  -21.2452  -21.0213   14.8862 C   0  0  0  0  0  0  0  0  0  0  0  0
  -27.6393  -21.6369   18.4385 C   0  0  0  0  0  0  0  0  0  0  0  0
  -22.5707  -20.6631   15.1980 C   0  0  0  0  0  0  0  0  0  0  0  0
  -28.6159  -22.3562   17.7351 C   0  0  0  0  0  0  0  0  0  0  0  0
  -22.3289   -8.1412   21.4332 C   0  0  0  0  0  0  0  0  0  0  0  0
  -30.2264  -20.5937   18.1933 C   0  0  0  0  0  0  0  0  0  0  0  0
  -20.8535   -6.9642   22.8333 C   0  0  0  0  0  0  0  0  0  0  0  0
  -19.3496   -6.8634   25.1808 C   0  0  0  0  0  0  0  0  0  0  0  0
  -21.0962   -5.9639   23.7746 C   0  0  0  0  0  0  0  0  0  0  0  0
  -24.5956  -11.6384   20.7053 C   0  0  0  0  0  0  0  0  0  0  0  0
  -30.5973  -16.9126   21.9393 C   0  0  0  0  0  0  0  0  0  0  0  0
  -25.2673  -13.7221   20.5005 C   0  0  0  0  0  0  0  0  0  0  0  0
  -32.2272  -18.4957   22.0036 C   0  0  0  0  0  0  0  0  0  0  0  0
  -22.9073  -13.4883   21.2904 C   0  0  0  0  0  0  0  0  0  0  0  0
  -25.5751  -22.5633   16.2059 C   0  0  0  0  0  0  0  0  0  0  0  0
  -26.5886  -25.5265   17.0511 C   0  0  0  0  0  0  0  0  0  0  0  0
  -29.0372  -27.4700   18.4200 C   0  0  0  0  0  0  0  0  0  0  0  0
  -30.7381  -14.7453   20.6629 C   0  0  0  0  0  0  0  0  0  0  0  0
  -20.9226  -22.2822   14.1242 C   0  0  0  0  0  0  0  0  0  0  0  0
  -26.2536  -22.1974   18.6062 C   0  0  0  0  0  0  0  0  0  0  0  0
  -28.3151  -23.6873   17.0977 C   0  0  0  0  0  0  0  0  0  0  0  0
  -22.0598  -23.3007   14.1224 C   0  0  0  0  0  0  0  0  0  0  0  0
  -29.6043  -12.3627   18.2723 C   0  0  0  0  0  0  0  0  0  0  0  0
  -23.3860  -22.6194   13.8003 C   0  0  0  0  0  0  0  0  0  0  0  0
  -28.1655  -12.0716   18.7049 C   0  0  0  0  0  0  0  0  0  0  0  0
  -30.5255  -12.5745   19.4724 C   0  0  0  0  0  0  0  0  0  0  0  0
  -28.6274  -13.2902   20.8702 C   0  0  0  0  0  0  0  0  0  0  0  0
  -23.7365  -21.5661   14.8582 C   0  0  1  0  0  0  0  0  0  0  0  0
  -25.8839  -23.2098   17.5266 C   0  0  1  0  0  0  0  0  0  0  0  0
  -27.6488  -13.1340   19.6948 C   0  0  2  0  0  0  0  0  0  0  0  0
  -29.5944  -29.8611   18.9396 C   0  0  0  0  0  0  0  0  0  0  0  0
  -37.9666  -18.0675   21.1847 C   0  0  0  0  0  0  0  0  0  0  0  0
  -35.9732  -17.4877   22.5862 C   0  0  0  0  0  0  0  0  0  0  0  0
  -36.3192  -16.3796   20.3755 C   0  0  0  0  0  0  0  0  0  0  0  0
  -27.1981  -26.0226   14.1028 C   0  0  0  0  0  0  0  0  0  0  0  0
  -28.5943  -27.9827   14.7931 C   0  0  0  0  0  0  0  0  0  0  0  0
  -26.1502  -27.9574   15.2914 C   0  0  0  0  0  0  0  0  0  0  0  0
  -29.2200  -26.9182   21.3219 C   0  0  0  0  0  0  0  0  0  0  0  0
  -33.4770  -19.4219   19.2363 C   0  0  0  0  0  0  0  0  0  0  0  0
  -35.6190  -18.7843   20.4162 C   0  0  0  0  0  0  0  0  0  0  0  0
  -31.9627  -19.2663   19.1309 C   0  0  0  0  0  0  0  0  0  1  0  0
  -27.6977  -26.4461   16.6002 C   0  0  1  0  0  0  0  0  0  0  0  0
  -28.9837  -28.5708   19.4640 C   0  0  2  0  0  0  0  0  0  0  0  0
  -34.0941  -18.5585   20.3495 C   0  0  1  0  0  0  0  0  0  0  0  0
  -36.4736  -17.7071   21.1480 C   0  0  0  0  0  0  0  0  0  0  0  0
  -27.4155  -27.0762   15.2071 C   0  0  0  0  0  0  0  0  0  0  0  0
  -31.5356  -19.3230   22.8103 N   0  0  0  0  0  0  0  0  0  0  0  0
  -25.8583  -11.5426   20.2804 N   0  0  0  0  0  0  0  0  0  0  0  0
  -31.8264  -17.2975   21.5375 N   0  0  0  0  0  0  0  0  0  0  0  0
  -26.2394  -12.8261   20.1649 N   0  0  0  0  0  0  0  0  0  0  0  0
  -26.9441  -24.1904   17.2844 N   0  0  0  0  0  0  0  0  0  0  0  0
  -29.9743  -13.5973   20.3639 N   0  0  0  0  0  0  0  0  0  0  0  0
  -25.4824  -15.0535   20.4416 N   0  0  0  0  0  0  0  0  0  0  0  0
  -21.8934  -12.5791   21.6218 N   0  0  0  0  0  0  0  0  0  0  0  0
  -30.0978  -15.6634   21.4946 N   0  0  0  0  0  0  0  0  0  0  0  0
  -33.4827  -18.9230   21.6109 N   0  0  0  0  0  0  0  0  0  0  0  0
  -24.2503  -22.2012   16.0528 N   0  0  0  0  0  0  0  0  0  0  0  0
  -27.8808  -27.4202   17.6707 N   0  0  0  0  0  0  0  0  0  0  0  0
  -29.7296  -28.1611   20.6874 N   0  3  0  0  0  0  0  0  0  0  0  0
  -22.6759  -14.7190   21.3627 O   0  0  0  0  0  0  0  0  0  0  0  0
  -26.4720  -22.4059   15.3858 O   0  0  0  0  0  0  0  0  0  0  0  0
  -25.4503  -25.9786   17.1980 O   0  0  0  0  0  0  0  0  0  0  0  0
  -30.0091  -26.7309   18.2806 O   0  0  0  0  0  0  0  0  0  0  0  0
  -31.8658  -14.9151   20.1922 O   0  0  0  0  0  0  0  0  0  0  0  0
  -21.5998   -7.0161   21.6679 O   0  0  0  0  0  0  0  0  0  0  0  0
  -31.4924  -20.0841   18.0673 O   0  0  0  0  0  0  0  0  0  1  0  0
  -18.6285   -6.8161   26.3086 F   0  0  0  0  0  0  0  0  0  0  0  0
  -22.0512   -5.0492   23.5574 F   0  0  0  0  0  0  0  0  0  0  0  0
  1  2  1  0  0  0  0
  1  5  2  0  0  0  0
  2  6  2  0  0  0  0
  3  8  2  0  0  0  0
  3 17  1  0  0  0  0
  4  9  1  0  0  0  0
  4 17  2  0  0  0  0
  5 19  1  0  0  0  0
  6 21  1  0  0  0  0
  7 10  2  0  0  0  0
  7 20  1  0  0  0  0
  8 23  1  0  0  0  0
  9 23  2  0  0  0  0
 10 24  1  0  0  0  0
 11 12  2  0  0  0  0
 11 25  1  0  0  0  0
 12 26  1  0  0  0  0
 13 16  1  0  0  0  0
 13 29  2  0  0  0  0
 14 22  1  0  0  0  0
 14 24  2  0  0  0  0
 15 26  2  0  0  0  0
 15 27  1  0  0  0  0
 16 65  2  0  0  0  0
 17 28  1  0  0  0  0
 18 28  1  0  0  0  0
 18 30  2  0  0  0  0
 18 32  1  0  0  0  0
 19 21  2  0  0  0  0
 19 37  1  0  0  0  0
 20 22  2  0  0  0  0
 20 38  1  0  0  0  0
 21 46  1  0  0  0  0
 22 39  1  0  0  0  0
 23 83  1  0  0  0  0
 24 84  1  0  0  0  0
 25 27  2  0  0  0  0
 25 83  1  0  0  0  0
 26 85  1  0  0  0  0
 27 86  1  0  0  0  0
 28 66  2  0  0  0  0
 29 67  1  0  0  0  0
 29 73  1  0  0  0  0
 30 68  1  0  0  0  0
 30 71  1  0  0  0  0
 31 65  1  0  0  0  0
 31 67  2  0  0  0  0
 31 74  1  0  0  0  0
 32 72  1  0  0  0  0
 32 78  2  0  0  0  0
 33 47  1  0  0  0  0
 33 75  1  0  0  0  0
 33 79  2  0  0  0  0
 34 60  1  0  0  0  0
 34 69  1  0  0  0  0
 34 80  2  0  0  0  0
 35 61  1  0  0  0  0
 35 76  1  0  0  0  0
 35 81  2  0  0  0  0
 36 70  1  0  0  0  0
 36 73  1  0  0  0  0
 36 82  2  0  0  0  0
 37 40  1  0  0  0  0
 38 47  1  0  0  0  0
 39 69  1  0  0  0  0
 40 42  1  0  0  0  0
 41 43  1  0  0  0  0
 41 44  1  0  0  0  0
 42 46  1  0  0  0  0
 43 48  1  0  0  0  0
 44 70  1  0  0  0  0
 45 48  1  0  0  0  0
 45 70  1  0  0  0  0
 46 75  1  0  0  0  0
 47 69  1  0  0  0  0
 48 68  1  0  0  0  0
 49 61  1  0  0  0  0
 50 63  1  0  0  0  0
 51 63  1  0  0  0  0
 52 63  1  0  0  0  0
 53 64  1  0  0  0  0
 54 64  1  0  0  0  0
 55 64  1  0  0  0  0
 56 77  1  0  0  0  0
 57 59  1  0  0  0  0
 57 62  1  0  0  0  0
 58 62  1  0  0  0  0
 58 63  1  0  0  0  0
 59 84  1  0  0  0  0
 60 64  1  0  0  0  0
 60 76  1  0  0  0  0
 61 77  1  0  0  0  0
 62 74  1  0  0  0  0
 66 68  1  0  0  0  0
M  CHG  1  77   1
M  ISO  4  36 100  59 101  73 100  84 101
M  END
> <Batch ID>
0198

> <Smiles>
CNC(C)C(=O)NC(C(=O)N1Cc2cc([101O:1][101CH2:1]CC(CC(C)(C)C)Nc3nccc([100NH:0][100C:0](=O)N4CCCC(n5nc(-c6ccc(Oc7ccc(F)cc7F)cc6)c(C(N)=O)c5N)C4)n3)ccc2CC1C(=O)NC1CCCc2ccccc21)C(C)(C)C

> <Shape>
0.219

> <Color>
0.184

> <Negative vol penalty>
0.000

$$$$

  -OEChem-04052305443D

 80 88  0     1  0  0  0  0  0999 V2000
  -18.7915  -24.2400   20.3519 C   0  0  0  0  0  0  0  0  0  0  0  0
  -20.1721  -24.0708   20.3245 C   0  0  0  0  0  0  0  0  0  0  0  0
  -23.9485   -9.6862   21.4803 C   0  0  0  0  0  0  0  0  0  0  0  0
  -24.4795  -10.7684   23.5741 C   0  0  0  0  0  0  0  0  0  0  0  0
  -18.2348  -25.3039   21.0604 C   0  0  0  0  0  0  0  0  0  0  0  0
  -20.9968  -24.9661   21.0047 C   0  0  0  0  0  0  0  0  0  0  0  0
  -24.6426  -22.6351   23.6353 C   0  0  0  0  0  0  0  0  0  0  0  0
  -23.4882   -8.5677   22.1751 C   0  0  0  0  0  0  0  0  0  0  0  0
  -24.0191   -9.6499   24.2689 C   0  0  0  0  0  0  0  0  0  0  0  0
  -25.7466  -22.1722   22.9207 C   0  0  0  0  0  0  0  0  0  0  0  0
  -20.7063   -7.6577   23.8679 C   0  0  0  0  0  0  0  0  0  0  0  0
  -19.4977   -7.0933   23.4602 C   0  0  0  0  0  0  0  0  0  0  0  0
  -27.0006  -24.1135   23.6123 C   0  0  0  0  0  0  0  0  0  0  0  0
  -20.6268   -5.0075   23.0004 C   0  0  0  0  0  0  0  0  0  0  0  0
  -32.2130  -17.9450   21.9293 C   0  0  0  0  0  0  0  0  0  0  0  0
  -24.4442  -10.7865   22.1798 C   0  0  0  0  0  0  0  0  0  0  0  0
  -24.1712  -13.0676   21.0709 C   0  0  0  0  0  0  0  0  0  0  0  0
  -19.0525  -26.2072   21.7576 C   0  0  0  0  0  0  0  0  0  0  0  0
  -24.7059  -23.8481   24.3360 C   0  0  0  0  0  0  0  0  0  0  0  0
  -20.4506  -26.0439   21.7220 C   0  0  0  0  0  0  0  0  0  0  0  0
  -25.8968  -24.5883   24.3371 C   0  0  0  0  0  0  0  0  0  0  0  0
  -23.5235   -8.5496   23.5694 C   0  0  0  0  0  0  0  0  0  0  0  0
  -26.9249  -22.9128   22.9068 C   0  0  0  0  0  0  0  0  0  0  0  0
  -21.8752   -6.8970   23.8419 C   0  0  0  0  0  0  0  0  0  0  0  0
  -19.4579   -5.7682   23.0264 C   0  0  0  0  0  0  0  0  0  0  0  0
  -21.8354   -5.5719   23.4081 C   0  0  0  0  0  0  0  0  0  0  0  0
  -24.9203  -11.9420   21.4626 C   0  0  0  0  0  0  0  0  0  0  0  0
  -31.4577  -17.0458   22.6525 C   0  0  0  0  0  0  0  0  0  0  0  0
  -25.0760  -13.8746   20.4254 C   0  0  0  0  0  0  0  0  0  0  0  0
  -30.6613  -19.3192   22.6463 C   0  0  0  0  0  0  0  0  0  0  0  0
  -22.7817  -13.3580   21.2727 C   0  0  0  0  0  0  0  0  0  0  0  0
  -23.1665  -26.6236   24.1593 C   0  0  0  0  0  0  0  0  0  0  0  0
  -24.8693  -27.2938   26.8377 C   0  0  0  0  0  0  0  0  0  0  0  0
  -27.6276  -26.6717   28.7486 C   0  0  0  0  0  0  0  0  0  0  0  0
  -31.0290  -14.4161   20.7708 C   0  0  0  0  0  0  0  0  0  0  0  0
  -18.4074  -27.3693   22.4704 C   0  0  0  0  0  0  0  0  0  0  0  0
  -23.5148  -24.3204   25.1238 C   0  0  0  0  0  0  0  0  0  0  0  0
  -26.0227  -25.8868   25.0897 C   0  0  0  0  0  0  0  0  0  0  0  0
  -19.3300  -28.0563   23.4740 C   0  0  0  0  0  0  0  0  0  0  0  0
  -29.1120  -13.6733   17.8639 C   0  0  0  0  0  0  0  0  0  0  0  0
  -20.7030  -28.3013   22.8562 C   0  0  0  0  0  0  0  0  0  0  0  0
  -27.7527  -13.2469   18.4212 C   0  0  0  0  0  0  0  0  0  0  0  0
  -30.2599  -13.2013   18.7535 C   0  0  0  0  0  0  0  0  0  0  0  0
  -28.7863  -13.1652   20.7286 C   0  0  0  0  0  0  0  0  0  0  0  0
  -21.3769  -26.9797   22.4678 C   0  0  1  0  0  0  0  0  0  0  0  0
  -23.5259  -25.8243   25.3799 C   0  0  1  0  0  0  0  0  0  0  0  0
  -27.5945  -13.6663   19.8951 C   0  0  2  0  0  0  0  0  0  0  0  0
  -28.7655  -27.4030   30.8623 C   0  0  0  0  0  0  0  0  0  0  0  0
  -25.8379  -29.8258   25.4374 C   0  0  0  0  0  0  0  0  0  0  0  0
  -27.6491  -30.0004   27.1570 C   0  0  0  0  0  0  0  0  0  0  0  0
  -25.2564  -30.1260   27.8511 C   0  0  0  0  0  0  0  0  0  0  0  0
  -27.4077  -23.9709   29.9387 C   0  0  0  0  0  0  0  0  0  0  0  0
  -31.6556  -15.5984   22.8609 C   0  0  0  0  0  0  0  0  0  0  0  0
  -30.3045  -21.7642   22.2999 C   0  0  0  0  0  0  0  0  0  0  0  0
  -29.2929  -22.8232   22.7049 C   0  0  0  0  0  0  0  0  0  1  0  0
  -26.2201  -27.9057   27.1206 C   0  0  1  0  0  0  0  0  0  0  0  0
  -27.7860  -26.4217   30.2375 C   0  0  2  0  0  0  0  0  0  0  0  0
  -26.2382  -29.4410   26.8757 C   0  0  0  0  0  0  0  0  0  0  0  0
  -31.7576  -19.2490   21.9243 N   0  0  0  0  0  0  0  0  0  0  0  0
  -26.2022  -12.0228   21.0963 N   0  0  0  0  0  0  0  0  0  0  0  0
  -26.2656  -13.2089   20.4677 N   0  0  0  0  0  0  0  0  0  0  0  0
  -24.8286  -26.3097   25.8398 N   0  0  0  0  0  0  0  0  0  0  0  0
  -30.0498  -13.6331   20.1375 N   0  0  0  0  0  0  0  0  0  0  0  0
  -24.9620  -15.0814   19.8313 N   0  0  0  0  0  0  0  0  0  0  0  0
  -21.9955  -12.4202   21.9559 N   0  0  0  0  0  0  0  0  0  0  0  0
  -29.9376  -20.4815   22.8550 N   0  0  0  0  0  0  0  0  0  0  0  0
  -21.9213  -26.3267   23.6390 N   0  0  0  0  0  0  0  0  0  0  0  0
  -26.5688  -27.5136   28.4819 N   0  0  0  0  0  0  0  0  0  0  0  0
  -30.7481  -14.7877   22.0799 N   0  0  0  0  0  0  0  0  0  0  0  0
  -28.2867  -25.0391   30.4802 N   0  3  0  0  0  0  0  0  0  0  0  0
  -22.2493  -14.4102   20.8450 O   0  0  0  0  0  0  0  0  0  0  0  0
  -23.9596  -27.4495   23.7229 O   0  0  0  0  0  0  0  0  0  0  0  0
  -23.8879  -27.6698   27.4834 O   0  0  0  0  0  0  0  0  0  0  0  0
  -28.3713  -26.1731   27.9066 O   0  0  0  0  0  0  0  0  0  0  0  0
  -32.0736  -14.7631   20.2092 O   0  0  0  0  0  0  0  0  0  0  0  0
  -23.0742   -7.4585   24.2478 O   0  0  0  0  0  0  0  0  0  0  0  0
  -28.0038  -22.4636   22.2096 O   0  0  0  0  0  0  0  0  0  1  0  0
  -18.2969   -5.2259   22.6363 F   0  0  0  0  0  0  0  0  0  0  0  0
  -22.9549   -4.8357   23.3820 F   0  0  0  0  0  0  0  0  0  0  0  0
  -30.1218  -17.8551   23.3607 S   0  0  0  0  0  0  0  0  0  0  0  0
  1  2  1  0  0  0  0
  1  5  2  0  0  0  0
  2  6  2  0  0  0  0
  3  8  2  0  0  0  0
  3 16  1  0  0  0  0
  4  9  1  0  0  0  0
  4 16  2  0  0  0  0
  5 18  1  0  0  0  0
  6 20  1  0  0  0  0
  7 10  2  0  0  0  0
  7 19  1  0  0  0  0
  8 22  1  0  0  0  0
  9 22  2  0  0  0  0
 10 23  1  0  0  0  0
 11 12  2  0  0  0  0
 11 24  1  0  0  0  0
 12 25  1  0  0  0  0
 13 21  1  0  0  0  0
 13 23  2  0  0  0  0
 14 25  2  0  0  0  0
 14 26  1  0  0  0  0
 15 28  2  0  0  0  0
 15 59  1  0  0  0  0
 16 27  1  0  0  0  0
 17 27  1  0  0  0  0
 17 29  2  0  0  0  0
 17 31  1  0  0  0  0
 18 20  2  0  0  0  0
 18 36  1  0  0  0  0
 19 21  2  0  0  0  0
 19 37  1  0  0  0  0
 20 45  1  0  0  0  0
 21 38  1  0  0  0  0
 22 76  1  0  0  0  0
 23 77  1  0  0  0  0
 24 26  2  0  0  0  0
 24 76  1  0  0  0  0
 25 78  1  0  0  0  0
 26 79  1  0  0  0  0
 27 60  2  0  0  0  0
 28 53  1  0  0  0  0
 28 80  1  0  0  0  0
 29 61  1  0  0  0  0
 29 64  1  0  0  0  0
 30 59  2  0  0  0  0
 30 66  1  0  0  0  0
 30 80  1  0  0  0  0
 31 65  1  0  0  0  0
 31 71  2  0  0  0  0
 32 46  1  0  0  0  0
 32 67  1  0  0  0  0
 32 72  2  0  0  0  0
 33 56  1  0  0  0  0
 33 62  1  0  0  0  0
 33 73  2  0  0  0  0
 34 57  1  0  0  0  0
 34 68  1  0  0  0  0
 34 74  2  0  0  0  0
 35 63  1  0  0  0  0
 35 69  1  0  0  0  0
 35 75  2  0  0  0  0
 36 39  1  0  0  0  0
 37 46  1  0  0  0  0
 38 62  1  0  0  0  0
 39 41  1  0  0  0  0
 40 42  1  0  0  0  0
 40 43  1  0  0  0  0
 41 45  1  0  0  0  0
 42 47  1  0  0  0  0
 43 63  1  0  0  0  0
 44 47  1  0  0  0  0
 44 63  1  0  0  0  0
 45 67  1  0  0  0  0
 46 62  1  0  0  0  0
 47 61  1  0  0  0  0
 48 57  1  0  0  0  0
 49 58  1  0  0  0  0
 50 58  1  0  0  0  0
 51 58  1  0  0  0  0
 52 70  1  0  0  0  0
 53 69  1  0  0  0  0
 54 55  1  0  0  0  0
 54 66  1  0  0  0  0
 55 77  1  0  0  0  0
 56 58  1  0  0  0  0
 56 68  1  0  0  0  0
 57 70  1  0  0  0  0
 60 61  1  0  0  0  0
M  CHG  1  70   1
M  ISO  4  35 100  55 101  69 100  77 101
M  END
> <Batch ID>
0198

> <Smiles>
CNC(C)C(=O)NC(C(=O)N1Cc2cc([101O:1][101CH2:1]CNc3ncc(C[100NH:0][100C:0](=O)N4CCCC(n5nc(-c6ccc(Oc7ccc(F)cc7F)cc6)c(C(N)=O)c5N)C4)s3)ccc2CC1C(=O)NC1CCCc2ccccc21)C(C)(C)C

> <Shape>
0.219

> <Color>
0.138

> <Negative vol penalty>
0.000

$$$$

  -OEChem-04052305443D

 86 94  0     1  0  0  0  0  0999 V2000
  -23.0249   -8.3688   23.6448 C   0  0  0  0  0  0  0  0  0  0  0  0
  -24.0256   -9.2259   23.1983 C   0  0  0  0  0  0  0  0  0  0  0  0
  -25.1774  -31.2913   21.0778 C   0  0  0  0  0  0  0  0  0  0  0  0
  -24.6404  -29.8302   22.9255 C   0  0  0  0  0  0  0  0  0  0  0  0
  -21.6950   -8.6159   23.3070 C   0  0  0  0  0  0  0  0  0  0  0  0
  -23.6970  -10.3301   22.4126 C   0  0  0  0  0  0  0  0  0  0  0  0
  -26.0965  -14.5414   23.8796 C   0  0  0  0  0  0  0  0  0  0  0  0
  -24.6030  -32.3643   21.7593 C   0  0  0  0  0  0  0  0  0  0  0  0
  -24.0660  -30.9032   23.6070 C   0  0  0  0  0  0  0  0  0  0  0  0
  -27.4313  -14.6784   23.5010 C   0  0  0  0  0  0  0  0  0  0  0  0
  -23.6004  -35.5631   23.1655 C   0  0  0  0  0  0  0  0  0  0  0  0
  -24.2985  -36.7706   23.1800 C   0  0  0  0  0  0  0  0  0  0  0  0
  -26.7636  -16.1311   21.6946 C   0  0  0  0  0  0  0  0  0  0  0  0
  -26.1579  -35.6826   24.2736 C   0  0  0  0  0  0  0  0  0  0  0  0
  -27.9500  -21.0227   19.9946 C   0  0  0  0  0  0  0  0  0  0  0  0
  -27.3726  -19.0285   18.3162 C   0  0  0  0  0  0  0  0  0  0  0  0
  -25.1960  -30.0243   21.6609 C   0  0  0  0  0  0  0  0  0  0  0  0
  -27.1302  -28.4924   21.0129 C   0  0  0  0  0  0  0  0  0  0  0  0
  -21.3488   -9.7290   22.5249 C   0  0  0  0  0  0  0  0  0  0  0  0
  -25.0825  -15.1906   23.1607 C   0  0  0  0  0  0  0  0  0  0  0  0
  -22.3613  -10.5915   22.0629 C   0  0  0  0  0  0  0  0  0  0  0  0
  -25.4169  -16.0028   22.0677 C   0  0  0  0  0  0  0  0  0  0  0  0
  -24.0474  -32.1703   23.0239 C   0  0  0  0  0  0  0  0  0  0  0  0
  -27.7648  -15.4710   22.4067 C   0  0  0  0  0  0  0  0  0  0  0  0
  -24.1810  -34.4153   23.7051 C   0  0  0  0  0  0  0  0  0  0  0  0
  -25.5772  -36.8304   23.7340 C   0  0  0  0  0  0  0  0  0  0  0  0
  -25.4598  -34.4751   24.2592 C   0  0  0  0  0  0  0  0  0  0  0  0
  -25.7887  -28.9154   20.9572 C   0  0  0  0  0  0  0  0  0  0  0  0
  -26.9127  -21.1290   19.0945 C   0  0  0  0  0  0  0  0  0  0  0  0
  -28.4104  -18.9224   19.2157 C   0  0  0  0  0  0  0  0  0  0  0  0
  -27.1835  -27.4078   20.1718 C   0  0  0  0  0  0  0  0  0  0  0  0
  -28.2299  -29.0316   21.7583 C   0  0  0  0  0  0  0  0  0  0  0  0
  -22.5619  -14.2342   21.4767 C   0  0  0  0  0  0  0  0  0  0  0  0
  -31.4708  -18.2845   19.5892 C   0  0  0  0  0  0  0  0  0  0  0  0
  -21.9382  -17.4144   21.3371 C   0  0  0  0  0  0  0  0  0  0  0  0
  -23.1277  -20.6095   21.4891 C   0  0  0  0  0  0  0  0  0  0  0  0
  -25.0735  -22.6279   18.2476 C   0  0  0  0  0  0  0  0  0  0  0  0
  -19.9027   -9.9285   22.1459 C   0  0  0  0  0  0  0  0  0  0  0  0
  -23.6499  -15.0541   23.5981 C   0  0  0  0  0  0  0  0  0  0  0  0
  -24.3677  -16.7371   21.2750 C   0  0  0  0  0  0  0  0  0  0  0  0
  -19.5980  -11.3298   21.6224 C   0  0  0  0  0  0  0  0  0  0  0  0
  -23.7932  -25.6434   16.8531 C   0  0  0  0  0  0  0  0  0  0  0  0
  -20.6453  -11.7567   20.5988 C   0  0  0  0  0  0  0  0  0  0  0  0
  -24.3086  -26.7286   17.8011 C   0  0  0  0  0  0  0  0  0  0  0  0
  -23.4189  -24.3662   17.6031 C   0  0  0  0  0  0  0  0  0  0  0  0
  -24.9854  -24.9134   19.4240 C   0  0  0  0  0  0  0  0  0  0  0  0
  -22.0419  -11.8136   21.2294 C   0  0  1  0  0  0  0  0  0  0  0  0
  -22.6534  -15.3482   22.4809 C   0  0  1  0  0  0  0  0  0  0  0  0
  -25.4363  -26.1965   18.7070 C   0  0  2  0  0  0  0  0  0  0  0  0
  -33.6202  -19.5486   20.0154 C   0  0  0  0  0  0  0  0  0  0  0  0
  -22.3849  -22.9991   21.3002 C   0  0  0  0  0  0  0  0  0  0  0  0
  -29.7807  -13.7008   20.7620 C   0  0  0  0  0  0  0  0  0  0  0  0
  -21.7805  -17.1231   18.3039 C   0  0  0  0  0  0  0  0  0  0  0  0
  -21.9910  -19.6114   18.1238 C   0  0  0  0  0  0  0  0  0  0  0  0
  -20.0337  -18.6091   19.3014 C   0  0  0  0  0  0  0  0  0  0  0  0
  -23.9698  -21.2118   24.2616 C   0  0  0  0  0  0  0  0  0  0  0  0
  -32.4366  -18.8253   20.6327 C   0  0  0  0  0  0  0  0  0  0  0  0
  -30.5875  -16.0249   20.2087 C   0  0  0  0  0  0  0  0  0  0  0  0
  -30.2646  -17.5217   20.1245 C   0  0  2  0  0  0  0  0  0  0  0  0
  -22.3104  -18.5367   20.3984 C   0  0  1  0  0  0  0  0  0  0  0  0
  -22.6366  -21.8324   22.2427 C   0  0  2  0  0  0  0  0  0  0  0  0
  -29.4137  -15.1787   20.7180 C   0  0  2  0  0  0  0  0  0  1  0  0
  -21.5487  -18.4548   19.0454 C   0  0  0  0  0  0  0  0  0  0  0  0
  -26.6051  -20.1337   18.2394 N   0  0  0  0  0  0  0  0  0  0  0  0
  -28.7177  -19.9176   20.0712 N   0  0  0  0  0  0  0  0  0  0  0  0
  -25.0436  -28.1611   20.1448 N   0  0  0  0  0  0  0  0  0  0  0  0
  -25.9200  -27.2533   19.6823 N   0  0  0  0  0  0  0  0  0  0  0  0
  -22.9806  -16.5669   21.7380 N   0  0  0  0  0  0  0  0  0  0  0  0
  -24.5365  -23.9188   18.4371 N   0  0  0  0  0  0  0  0  0  0  0  0
  -28.1875  -26.5809   19.8106 N   0  0  0  0  0  0  0  0  0  0  0  0
  -28.0007  -30.1483   22.5737 N   0  0  0  0  0  0  0  0  0  0  0  0
  -26.1540  -22.3256   19.0757 N   0  0  0  0  0  0  0  0  0  0  0  0
  -29.1510  -17.7535   19.2297 N   0  0  0  0  0  0  0  0  0  0  0  0
  -22.1918  -13.0178   22.0180 N   0  0  0  0  0  0  0  0  0  0  0  0
  -22.0878  -19.7759   21.1354 N   0  0  0  0  0  0  0  0  0  0  0  0
  -23.6441  -22.2556   23.2559 N   0  3  0  0  0  0  0  0  0  0  0  0
  -29.3853  -28.5479   21.6903 O   0  0  0  0  0  0  0  0  0  0  0  0
  -22.8074  -14.4618   20.2979 O   0  0  0  0  0  0  0  0  0  0  0  0
  -31.6609  -18.4359   18.3821 O   0  0  0  0  0  0  0  0  0  0  0  0
  -20.7670  -17.2985   21.7067 O   0  0  0  0  0  0  0  0  0  0  0  0
  -24.3146  -20.4152   21.2361 O   0  0  0  0  0  0  0  0  0  0  0  0
  -24.6265  -21.8580   17.3935 O   0  0  0  0  0  0  0  0  0  0  0  0
  -23.4871  -33.2171   23.6893 O   0  0  0  0  0  0  0  0  0  0  0  0
  -29.0668  -15.6059   22.0346 O   0  0  0  0  0  0  0  0  0  1  0  0
  -26.2480  -37.9897   23.7464 F   0  0  0  0  0  0  0  0  0  0  0  0
  -26.0232  -33.3755   24.7780 F   0  0  0  0  0  0  0  0  0  0  0  0
  1  2  1  0  0  0  0
  1  5  2  0  0  0  0
  2  6  2  0  0  0  0
  3  8  2  0  0  0  0
  3 17  1  0  0  0  0
  4  9  1  0  0  0  0
  4 17  2  0  0  0  0
  5 19  1  0  0  0  0
  6 21  1  0  0  0  0
  7 10  2  0  0  0  0
  7 20  1  0  0  0  0
  8 23  1  0  0  0  0
  9 23  2  0  0  0  0
 10 24  1  0  0  0  0
 11 12  2  0  0  0  0
 11 25  1  0  0  0  0
 12 26  1  0  0  0  0
 13 22  1  0  0  0  0
 13 24  2  0  0  0  0
 14 26  2  0  0  0  0
 14 27  1  0  0  0  0
 15 29  2  0  0  0  0
 15 65  1  0  0  0  0
 16 30  1  0  0  0  0
 16 64  2  0  0  0  0
 17 28  1  0  0  0  0
 18 28  1  0  0  0  0
 18 31  2  0  0  0  0
 18 32  1  0  0  0  0
 19 21  2  0  0  0  0
 19 38  1  0  0  0  0
 20 22  2  0  0  0  0
 20 39  1  0  0  0  0
 21 47  1  0  0  0  0
 22 40  1  0  0  0  0
 23 83  1  0  0  0  0
 24 84  1  0  0  0  0
 25 27  2  0  0  0  0
 25 83  1  0  0  0  0
 26 85  1  0  0  0  0
 27 86  1  0  0  0  0
 28 66  2  0  0  0  0
 29 64  1  0  0  0  0
 29 72  1  0  0  0  0
 30 65  2  0  0  0  0
 30 73  1  0  0  0  0
 31 67  1  0  0  0  0
 31 70  1  0  0  0  0
 32 71  1  0  0  0  0
 32 77  2  0  0  0  0
 33 48  1  0  0  0  0
 33 74  1  0  0  0  0
 33 78  2  0  0  0  0
 34 57  1  0  0  0  0
 34 59  1  0  0  0  0
 34 79  2  0  0  0  0
 35 60  1  0  0  0  0
 35 68  1  0  0  0  0
 35 80  2  0  0  0  0
 36 61  1  0  0  0  0
 36 75  1  0  0  0  0
 36 81  2  0  0  0  0
 37 69  1  0  0  0  0
 37 72  1  0  0  0  0
 37 82  2  0  0  0  0
 38 41  1  0  0  0  0
 39 48  1  0  0  0  0
 40 68  1  0  0  0  0
 41 43  1  0  0  0  0
 42 44  1  0  0  0  0
 42 45  1  0  0  0  0
 43 47  1  0  0  0  0
 44 49  1  0  0  0  0
 45 69  1  0  0  0  0
 46 49  1  0  0  0  0
 46 69  1  0  0  0  0
 47 74  1  0  0  0  0
 48 68  1  0  0  0  0
 49 67  1  0  0  0  0
 50 57  1  0  0  0  0
 51 61  1  0  0  0  0
 52 62  1  0  0  0  0
 53 63  1  0  0  0  0
 54 63  1  0  0  0  0
 55 63  1  0  0  0  0
 56 76  1  0  0  0  0
 58 59  1  0  0  0  0
 58 62  1  0  0  0  0
 59 73  1  0  0  0  0
 60 63  1  0  0  0  0
 60 75  1  0  0  0  0
 61 76  1  0  0  0  0
 62 84  1  0  0  0  0
 66 67  1  0  0  0  0
M  CHG  1  76   1
M  ISO  4  37 100  62 101  72 100  84 101
M  END
> <Batch ID>
0198

> <Smiles>
CCC(=O)C(C[101CH:1](C)[101O:1]c1ccc2c(c1)CN(C(=O)C(NC(=O)C(C)NC)C(C)(C)C)C(C(=O)NC1CCCc3ccccc31)C2)Nc1cnc([100NH:0][100C:0](=O)N2CCCC(n3nc(-c4ccc(Oc5ccc(F)cc5F)cc4)c(C(N)=O)c3N)C2)cn1

> <Shape>
0.224

> <Color>
0.080

> <Negative vol penalty>
0.000

$$$$

  -OEChem-04052305443D

 82 90  0     1  0  0  0  0  0999 V2000
  -24.8042  -29.7342   21.7743 C   0  0  0  0  0  0  0  0  0  0  0  0
  -25.5656  -28.6701   21.3016 C   0  0  0  0  0  0  0  0  0  0  0  0
  -23.0035  -10.0083   19.9171 C   0  0  0  0  0  0  0  0  0  0  0  0
  -23.8408   -9.8667   22.1789 C   0  0  0  0  0  0  0  0  0  0  0  0
  -23.6271  -30.0929   21.1190 C   0  0  0  0  0  0  0  0  0  0  0  0
  -25.1496  -27.9634   20.1738 C   0  0  0  0  0  0  0  0  0  0  0  0
  -28.9355  -27.0809   16.9284 C   0  0  0  0  0  0  0  0  0  0  0  0
  -22.2360   -8.8632   20.1294 C   0  0  0  0  0  0  0  0  0  0  0  0
  -23.0732   -8.7215   22.3913 C   0  0  0  0  0  0  0  0  0  0  0  0
  -29.8158  -26.0465   17.2430 C   0  0  0  0  0  0  0  0  0  0  0  0
  -19.8460   -7.9772   23.0632 C   0  0  0  0  0  0  0  0  0  0  0  0
  -19.1284   -7.8919   24.2563 C   0  0  0  0  0  0  0  0  0  0  0  0
  -28.6525  -24.5970   15.7052 C   0  0  0  0  0  0  0  0  0  0  0  0
  -20.3384   -5.8840   24.8404 C   0  0  0  0  0  0  0  0  0  0  0  0
  -30.1375  -17.6451   22.8974 C   0  0  0  0  0  0  0  0  0  0  0  0
  -23.8060  -10.5101   20.9418 C   0  0  0  0  0  0  0  0  0  0  0  0
  -24.2153  -13.0280   20.9489 C   0  0  0  0  0  0  0  0  0  0  0  0
  -23.2015  -29.3964   19.9769 C   0  0  0  0  0  0  0  0  0  0  0  0
  -27.8987  -26.8775   16.0064 C   0  0  0  0  0  0  0  0  0  0  0  0
  -23.9650  -28.3123   19.5033 C   0  0  0  0  0  0  0  0  0  0  0  0
  -27.7620  -25.6312   15.3787 C   0  0  0  0  0  0  0  0  0  0  0  0
  -22.2708   -8.2198   21.3665 C   0  0  0  0  0  0  0  0  0  0  0  0
  -29.6726  -24.8035   16.6335 C   0  0  0  0  0  0  0  0  0  0  0  0
  -20.8097   -7.0159   22.7587 C   0  0  0  0  0  0  0  0  0  0  0  0
  -19.3746   -6.8453   25.1449 C   0  0  0  0  0  0  0  0  0  0  0  0
  -21.0559   -5.9693   23.6473 C   0  0  0  0  0  0  0  0  0  0  0  0
  -24.5995  -11.6927   20.7229 C   0  0  0  0  0  0  0  0  0  0  0  0
  -30.7621  -16.7672   22.0005 C   0  0  0  0  0  0  0  0  0  0  0  0
  -25.3154  -13.7674   20.5889 C   0  0  0  0  0  0  0  0  0  0  0  0
  -22.9750  -13.5531   21.4404 C   0  0  0  0  0  0  0  0  0  0  0  0
  -24.7246  -26.9805   16.1415 C   0  0  0  0  0  0  0  0  0  0  0  0
  -24.9628  -26.5410   12.9364 C   0  0  0  0  0  0  0  0  0  0  0  0
  -26.8015  -25.4007   10.2972 C   0  0  0  0  0  0  0  0  0  0  0  0
  -30.8119  -14.6561   20.6267 C   0  0  0  0  0  0  0  0  0  0  0  0
  -21.8974  -29.7909   19.3300 C   0  0  0  0  0  0  0  0  0  0  0  0
  -26.9739  -28.0114   15.6579 C   0  0  0  0  0  0  0  0  0  0  0  0
  -26.6779  -25.3675   14.3669 C   0  0  0  0  0  0  0  0  0  0  0  0
  -21.7218  -29.2291   17.9215 C   0  0  0  0  0  0  0  0  0  0  0  0
  -29.5495  -12.4090   18.1703 C   0  0  0  0  0  0  0  0  0  0  0  0
  -22.0896  -27.7491   17.8873 C   0  0  0  0  0  0  0  0  0  0  0  0
  -28.1175  -12.1321   18.6340 C   0  0  0  0  0  0  0  0  0  0  0  0
  -30.5110  -12.5458   19.3495 C   0  0  0  0  0  0  0  0  0  0  0  0
  -28.6734  -13.2423   20.8353 C   0  0  0  0  0  0  0  0  0  0  0  0
  -23.5597  -27.5371   18.2684 C   0  0  1  0  0  0  0  0  0  0  0  0
  -25.6391  -27.5405   15.0889 C   0  0  1  0  0  0  0  0  0  0  0  0
  -27.6566  -13.1610   19.6850 C   0  0  2  0  0  0  0  0  0  0  0  0
  -26.7169  -25.1429    7.8024 C   0  0  0  0  0  0  0  0  0  0  0  0
  -23.0767  -24.1629   13.2485 C   0  0  0  0  0  0  0  0  0  0  0  0
  -23.7763  -23.3981   10.9695 C   0  0  0  0  0  0  0  0  0  0  0  0
  -22.6278  -25.5949   11.2479 C   0  0  0  0  0  0  0  0  0  0  0  0
  -29.1631  -27.1441    9.9207 C   0  0  0  0  0  0  0  0  0  0  0  0
  -32.2898  -20.8207   20.4488 C   0  0  0  0  0  0  0  0  0  0  0  0
  -31.9604  -22.2653   20.0670 C   0  0  0  0  0  0  0  0  0  0  0  0
  -32.8437  -20.7362   21.8745 C   0  0  0  0  0  0  0  0  0  0  0  0
  -31.3767  -22.3477   18.6582 C   0  0  0  0  0  0  0  0  0  0  0  0
  -33.1862  -19.3042   22.3009 C   0  0  0  0  0  0  0  0  0  0  0  0
  -31.0849  -23.7859   18.2540 C   0  0  0  0  0  0  0  0  0  1  0  0
  -25.0207  -25.3402   12.0233 C   0  0  1  0  0  0  0  0  0  0  0  0
  -27.1433  -26.0324    8.9598 C   0  0  2  0  0  0  0  0  0  0  0  0
  -23.6447  -24.6281   11.8928 C   0  0  0  0  0  0  0  0  0  0  0  0
  -30.9330  -18.6917   23.1351 N   0  0  0  0  0  0  0  0  0  0  0  0
  -25.8461  -11.5868   20.2553 N   0  0  0  0  0  0  0  0  0  0  0  0
  -31.9607  -17.2472   21.6574 N   0  0  0  0  0  0  0  0  0  0  0  0
  -26.2549  -12.8651   20.1845 N   0  0  0  0  0  0  0  0  0  0  0  0
  -31.9916  -18.3863   22.3675 N   0  0  0  0  0  0  0  0  0  0  0  0
  -25.7948  -26.5059   14.0643 N   0  0  0  0  0  0  0  0  0  0  0  0
  -30.0117  -13.5405   20.3015 N   0  0  0  0  0  0  0  0  0  0  0  0
  -25.5611  -15.0948   20.5819 N   0  0  0  0  0  0  0  0  0  0  0  0
  -21.9496  -12.6537   21.7629 N   0  0  0  0  0  0  0  0  0  0  0  0
  -30.2193  -15.5508   21.5171 N   0  0  0  0  0  0  0  0  0  0  0  0
  -24.4233  -27.8693   17.1557 N   0  0  0  0  0  0  0  0  0  0  0  0
  -25.5700  -25.8156   10.7581 N   0  0  0  0  0  0  0  0  0  0  0  0
  -28.6117  -26.2654    8.8573 N   0  3  0  0  0  0  0  0  0  0  0  0
  -22.7760  -14.7844   21.5738 O   0  0  0  0  0  0  0  0  0  0  0  0
  -24.3210  -25.8279   16.0401 O   0  0  0  0  0  0  0  0  0  0  0  0
  -24.2124  -27.4789   12.6553 O   0  0  0  0  0  0  0  0  0  0  0  0
  -27.5502  -24.6146   10.8733 O   0  0  0  0  0  0  0  0  0  0  0  0
  -31.9288  -14.8207   20.1292 O   0  0  0  0  0  0  0  0  0  0  0  0
  -21.5218   -7.1024   21.5742 O   0  0  0  0  0  0  0  0  0  0  0  0
  -30.5300  -23.7919   16.9393 O   0  0  0  0  0  0  0  0  0  1  0  0
  -18.6866   -6.7644   26.2913 F   0  0  0  0  0  0  0  0  0  0  0  0
  -21.9814   -5.0434   23.3608 F   0  0  0  0  0  0  0  0  0  0  0  0
  1  2  1  0  0  0  0
  1  5  2  0  0  0  0
  2  6  2  0  0  0  0
  3  8  2  0  0  0  0
  3 16  1  0  0  0  0
  4  9  1  0  0  0  0
  4 16  2  0  0  0  0
  5 18  1  0  0  0  0
  6 20  1  0  0  0  0
  7 10  2  0  0  0  0
  7 19  1  0  0  0  0
  8 22  1  0  0  0  0
  9 22  2  0  0  0  0
 10 23  1  0  0  0  0
 11 12  2  0  0  0  0
 11 24  1  0  0  0  0
 12 25  1  0  0  0  0
 13 21  1  0  0  0  0
 13 23  2  0  0  0  0
 14 25  2  0  0  0  0
 14 26  1  0  0  0  0
 15 28  1  0  0  0  0
 15 61  2  0  0  0  0
 16 27  1  0  0  0  0
 17 27  1  0  0  0  0
 17 29  2  0  0  0  0
 17 30  1  0  0  0  0
 18 20  2  0  0  0  0
 18 35  1  0  0  0  0
 19 21  2  0  0  0  0
 19 36  1  0  0  0  0
 20 44  1  0  0  0  0
 21 37  1  0  0  0  0
 22 79  1  0  0  0  0
 23 80  1  0  0  0  0
 24 26  2  0  0  0  0
 24 79  1  0  0  0  0
 25 81  1  0  0  0  0
 26 82  1  0  0  0  0
 27 62  2  0  0  0  0
 28 63  2  0  0  0  0
 28 70  1  0  0  0  0
 29 64  1  0  0  0  0
 29 68  1  0  0  0  0
 30 69  1  0  0  0  0
 30 74  2  0  0  0  0
 31 45  1  0  0  0  0
 31 71  1  0  0  0  0
 31 75  2  0  0  0  0
 32 58  1  0  0  0  0
 32 66  1  0  0  0  0
 32 76  2  0  0  0  0
 33 59  1  0  0  0  0
 33 72  1  0  0  0  0
 33 77  2  0  0  0  0
 34 67  1  0  0  0  0
 34 70  1  0  0  0  0
 34 78  2  0  0  0  0
 35 38  1  0  0  0  0
 36 45  1  0  0  0  0
 37 66  1  0  0  0  0
 38 40  1  0  0  0  0
 39 41  1  0  0  0  0
 39 42  1  0  0  0  0
 40 44  1  0  0  0  0
 41 46  1  0  0  0  0
 42 67  1  0  0  0  0
 43 46  1  0  0  0  0
 43 67  1  0  0  0  0
 44 71  1  0  0  0  0
 45 66  1  0  0  0  0
 46 64  1  0  0  0  0
 47 59  1  0  0  0  0
 48 60  1  0  0  0  0
 49 60  1  0  0  0  0
 50 60  1  0  0  0  0
 51 73  1  0  0  0  0
 52 53  1  0  0  0  0
 52 54  1  0  0  0  0
 53 55  1  0  0  0  0
 54 56  1  0  0  0  0
 55 57  1  0  0  0  0
 56 65  1  0  0  0  0
 57 80  1  0  0  0  0
 58 60  1  0  0  0  0
 58 72  1  0  0  0  0
 59 73  1  0  0  0  0
 61 65  1  0  0  0  0
 62 64  1  0  0  0  0
 63 65  1  0  0  0  0
M  CHG  1  73   1
M  ISO  4  34 100  57 101  70 100  80 101
M  END
> <Batch ID>
0198

> <Smiles>
CNC(C)C(=O)NC(C(=O)N1Cc2cc([101O:1][101CH2:1]CCCCCn3ncc([100NH:0][100C:0](=O)N4CCCC(n5nc(-c6ccc(Oc7ccc(F)cc7F)cc6)c(C(N)=O)c5N)C4)n3)ccc2CC1C(=O)NC1CCCc2ccccc21)C(C)(C)C

> <Shape>
0.242

> <Color>
0.190

> <Negative vol penalty>
0.000

$$$$

  -OEChem-04052305443D

 82 90  0     1  0  0  0  0  0999 V2000
  -32.3550  -27.9989   21.4857 C   0  0  0  0  0  0  0  0  0  0  0  0
  -32.4120  -26.7051   21.9940 C   0  0  0  0  0  0  0  0  0  0  0  0
  -23.3245   -9.7838   19.9313 C   0  0  0  0  0  0  0  0  0  0  0  0
  -23.7969   -9.9500   22.2948 C   0  0  0  0  0  0  0  0  0  0  0  0
  -31.5434  -28.2800   20.3875 C   0  0  0  0  0  0  0  0  0  0  0  0
  -31.6565  -25.6919   21.4049 C   0  0  0  0  0  0  0  0  0  0  0  0
  -34.2983  -21.4187   20.7683 C   0  0  0  0  0  0  0  0  0  0  0  0
  -22.6321   -8.5935   20.1533 C   0  0  0  0  0  0  0  0  0  0  0  0
  -23.1044   -8.7598   22.5169 C   0  0  0  0  0  0  0  0  0  0  0  0
  -34.4883  -20.6143   21.8911 C   0  0  0  0  0  0  0  0  0  0  0  0
  -23.3787   -5.3409   20.6894 C   0  0  0  0  0  0  0  0  0  0  0  0
  -23.6262   -4.2766   19.8225 C   0  0  0  0  0  0  0  0  0  0  0  0
  -32.6943  -19.1778   21.1581 C   0  0  0  0  0  0  0  0  0  0  0  0
  -21.2967   -4.2565   19.1820 C   0  0  0  0  0  0  0  0  0  0  0  0
  -30.9601  -13.3557   25.0597 C   0  0  0  0  0  0  0  0  0  0  0  0
  -23.9070  -10.4621   21.0020 C   0  0  0  0  0  0  0  0  0  0  0  0
  -24.0964  -12.9969   20.7868 C   0  0  0  0  0  0  0  0  0  0  0  0
  -30.7850  -27.2677   19.7786 C   0  0  0  0  0  0  0  0  0  0  0  0
  -33.2959  -21.1143   19.8360 C   0  0  0  0  0  0  0  0  0  0  0  0
  -30.8330  -25.9601   20.2983 C   0  0  0  0  0  0  0  0  0  0  0  0
  -32.4953  -19.9785   20.0230 C   0  0  0  0  0  0  0  0  0  0  0  0
  -22.5220   -8.0815   21.4461 C   0  0  0  0  0  0  0  0  0  0  0  0
  -33.6843  -19.4953   22.0876 C   0  0  0  0  0  0  0  0  0  0  0  0
  -22.0901   -5.8630   20.8027 C   0  0  0  0  0  0  0  0  0  0  0  0
  -22.5852   -3.7344   19.0688 C   0  0  0  0  0  0  0  0  0  0  0  0
  -21.0492   -5.3208   20.0490 C   0  0  0  0  0  0  0  0  0  0  0  0
  -24.6229  -11.6914   20.7732 C   0  0  0  0  0  0  0  0  0  0  0  0
  -31.4371  -13.4275   23.7676 C   0  0  0  0  0  0  0  0  0  0  0  0
  -25.1738  -13.8045   20.5155 C   0  0  0  0  0  0  0  0  0  0  0  0
  -33.2471  -14.0744   24.8238 C   0  0  0  0  0  0  0  0  0  0  0  0
  -22.7536  -13.4400   21.0235 C   0  0  0  0  0  0  0  0  0  0  0  0
  -30.6822  -22.5902   18.7902 C   0  0  0  0  0  0  0  0  0  0  0  0
  -30.5770  -20.0982   16.7163 C   0  0  0  0  0  0  0  0  0  0  0  0
  -31.4533  -16.8759   16.0122 C   0  0  0  0  0  0  0  0  0  0  0  0
  -31.0625  -13.1519   21.2917 C   0  0  0  0  0  0  0  0  0  0  0  0
  -29.8860  -27.6296   18.6230 C   0  0  0  0  0  0  0  0  0  0  0  0
  -33.1214  -21.9769   18.6163 C   0  0  0  0  0  0  0  0  0  0  0  0
  -31.4187  -19.5967   19.0412 C   0  0  0  0  0  0  0  0  0  0  0  0
  -29.4050  -26.4212   17.8238 C   0  0  0  0  0  0  0  0  0  0  0  0
  -29.3777  -13.7944   18.2216 C   0  0  0  0  0  0  0  0  0  0  0  0
  -28.9158  -25.3217   18.7612 C   0  0  0  0  0  0  0  0  0  0  0  0
  -27.9183  -13.4527   18.5305 C   0  0  0  0  0  0  0  0  0  0  0  0
  -30.3443  -12.8487   18.9322 C   0  0  0  0  0  0  0  0  0  0  0  0
  -28.6820  -12.3857   20.6905 C   0  0  0  0  0  0  0  0  0  0  0  0
  -30.0473  -24.8288   19.6713 C   0  0  1  0  0  0  0  0  0  0  0  0
  -31.7315  -21.8630   17.9978 C   0  0  1  0  0  0  0  0  0  0  0  0
  -27.6724  -13.3514   20.0487 C   0  0  2  0  0  0  0  0  0  0  0  0
  -31.1896  -15.1013   14.2576 C   0  0  0  0  0  0  0  0  0  0  0  0
  -36.9072  -14.6682   24.6023 C   0  0  0  0  0  0  0  0  0  0  0  0
  -27.7135  -19.6061   17.6479 C   0  0  0  0  0  0  0  0  0  0  0  0
  -27.8411  -17.3308   16.6109 C   0  0  0  0  0  0  0  0  0  0  0  0
  -28.0649  -19.3644   15.1836 C   0  0  0  0  0  0  0  0  0  0  0  0
  -34.3737  -16.7313   15.5542 C   0  0  0  0  0  0  0  0  0  0  0  0
  -35.4124  -17.2718   24.3647 C   0  0  0  0  0  0  0  0  0  0  0  0
  -35.2596  -16.1191   23.3625 C   0  0  0  0  0  0  0  0  0  0  0  0
  -35.1894  -18.6325   23.7143 C   0  0  0  0  0  0  0  0  0  1  0  0
  -29.9586  -18.7211   16.7302 C   0  0  1  0  0  0  0  0  0  0  0  0
  -32.0531  -16.2439   14.7691 C   0  0  2  0  0  0  0  0  0  0  0  0
  -35.5059  -14.7467   24.0045 C   0  0  2  0  0  0  0  0  0  0  0  0
  -28.4134  -18.7636   16.5628 C   0  0  0  0  0  0  0  0  0  0  0  0
  -25.9329  -11.6664   20.5136 N   0  0  0  0  0  0  0  0  0  0  0  0
  -32.7482  -13.8398   23.6304 N   0  0  0  0  0  0  0  0  0  0  0  0
  -26.2386  -12.9662   20.3616 N   0  0  0  0  0  0  0  0  0  0  0  0
  -31.2827  -20.4752   17.8676 N   0  0  0  0  0  0  0  0  0  0  0  0
  -30.0541  -12.8070   20.3671 N   0  0  0  0  0  0  0  0  0  0  0  0
  -25.3048  -15.1427   20.3960 N   0  0  0  0  0  0  0  0  0  0  0  0
  -21.7692  -12.4779   21.2872 N   0  0  0  0  0  0  0  0  0  0  0  0
  -30.6608  -13.1070   22.6264 N   0  0  0  0  0  0  0  0  0  0  0  0
  -34.5411  -14.5044   25.0568 N   0  0  0  0  0  0  0  0  0  0  0  0
  -30.9296  -23.9409   18.9450 N   0  0  0  0  0  0  0  0  0  0  0  0
  -30.6502  -17.9527   15.7008 N   0  0  0  0  0  0  0  0  0  0  0  0
  -33.4128  -15.7097   15.0642 N   0  3  0  0  0  0  0  0  0  0  0  0
  -22.4328  -14.6521   20.9857 O   0  0  0  0  0  0  0  0  0  0  0  0
  -29.7187  -21.9720   19.2274 O   0  0  0  0  0  0  0  0  0  0  0  0
  -30.4450  -20.8103   15.7177 O   0  0  0  0  0  0  0  0  0  0  0  0
  -31.6721  -16.4542   17.1457 O   0  0  0  0  0  0  0  0  0  0  0  0
  -32.1908  -13.4905   20.9252 O   0  0  0  0  0  0  0  0  0  0  0  0
  -21.8462   -6.9202   21.6633 O   0  0  0  0  0  0  0  0  0  0  0  0
  -33.8672  -18.7089   23.1830 O   0  0  0  0  0  0  0  0  0  1  0  0
  -22.8233   -2.7134   18.2351 F   0  0  0  0  0  0  0  0  0  0  0  0
  -19.8094   -5.8190   20.1527 F   0  0  0  0  0  0  0  0  0  0  0  0
  -32.1953  -13.8192   26.1555 S   0  0  0  0  0  0  0  0  0  0  0  0
  1  2  1  0  0  0  0
  1  5  2  0  0  0  0
  2  6  2  0  0  0  0
  3  8  2  0  0  0  0
  3 16  1  0  0  0  0
  4  9  1  0  0  0  0
  4 16  2  0  0  0  0
  5 18  1  0  0  0  0
  6 20  1  0  0  0  0
  7 10  2  0  0  0  0
  7 19  1  0  0  0  0
  8 22  1  0  0  0  0
  9 22  2  0  0  0  0
 10 23  1  0  0  0  0
 11 12  2  0  0  0  0
 11 24  1  0  0  0  0
 12 25  1  0  0  0  0
 13 21  1  0  0  0  0
 13 23  2  0  0  0  0
 14 25  2  0  0  0  0
 14 26  1  0  0  0  0
 15 28  2  0  0  0  0
 15 82  1  0  0  0  0
 16 27  1  0  0  0  0
 17 27  1  0  0  0  0
 17 29  2  0  0  0  0
 17 31  1  0  0  0  0
 18 20  2  0  0  0  0
 18 36  1  0  0  0  0
 19 21  2  0  0  0  0
 19 37  1  0  0  0  0
 20 45  1  0  0  0  0
 21 38  1  0  0  0  0
 22 78  1  0  0  0  0
 23 79  1  0  0  0  0
 24 26  2  0  0  0  0
 24 78  1  0  0  0  0
 25 80  1  0  0  0  0
 26 81  1  0  0  0  0
 27 61  2  0  0  0  0
 28 62  1  0  0  0  0
 28 68  1  0  0  0  0
 29 63  1  0  0  0  0
 29 66  1  0  0  0  0
 30 62  2  0  0  0  0
 30 69  1  0  0  0  0
 30 82  1  0  0  0  0
 31 67  1  0  0  0  0
 31 73  2  0  0  0  0
 32 46  1  0  0  0  0
 32 70  1  0  0  0  0
 32 74  2  0  0  0  0
 33 57  1  0  0  0  0
 33 64  1  0  0  0  0
 33 75  2  0  0  0  0
 34 58  1  0  0  0  0
 34 71  1  0  0  0  0
 34 76  2  0  0  0  0
 35 65  1  0  0  0  0
 35 68  1  0  0  0  0
 35 77  2  0  0  0  0
 36 39  1  0  0  0  0
 37 46  1  0  0  0  0
 38 64  1  0  0  0  0
 39 41  1  0  0  0  0
 40 42  1  0  0  0  0
 40 43  1  0  0  0  0
 41 45  1  0  0  0  0
 42 47  1  0  0  0  0
 43 65  1  0  0  0  0
 44 47  1  0  0  0  0
 44 65  1  0  0  0  0
 45 70  1  0  0  0  0
 46 64  1  0  0  0  0
 47 63  1  0  0  0  0
 48 58  1  0  0  0  0
 49 59  1  0  0  0  0
 50 60  1  0  0  0  0
 51 60  1  0  0  0  0
 52 60  1  0  0  0  0
 53 72  1  0  0  0  0
 54 55  1  0  0  0  0
 54 56  1  0  0  0  0
 55 59  1  0  0  0  0
 56 79  1  0  0  0  0
 57 60  1  0  0  0  0
 57 71  1  0  0  0  0
 58 72  1  0  0  0  0
 59 69  1  0  0  0  0
 61 63  1  0  0  0  0
M  CHG  1  72   1
M  ISO  4  35 100  56 101  68 100  79 101
M  END
> <Batch ID>
0198

> <Smiles>
CNC(C)C(=O)NC(C(=O)N1Cc2cc([101O:1][101CH2:1]CCC(C)Nc3nc([100NH:0][100C:0](=O)N4CCCC(n5nc(-c6ccc(Oc7ccc(F)cc7F)cc6)c(C(N)=O)c5N)C4)cs3)ccc2CC1C(=O)NC1CCCc2ccccc21)C(C)(C)C

> <Shape>
0.183

> <Color>
0.178

> <Negative vol penalty>
0.000

$$$$

  -OEChem-04052305443D

 86 94  0     1  0  0  0  0  0999 V2000
  -28.1360  -26.0251    8.5951 C   0  0  0  0  0  0  0  0  0  0  0  0
  -28.3828  -25.2887    9.7493 C   0  0  0  0  0  0  0  0  0  0  0  0
  -23.0931   -9.8255   19.9719 C   0  0  0  0  0  0  0  0  0  0  0  0
  -23.8357   -9.8948   22.2699 C   0  0  0  0  0  0  0  0  0  0  0  0
  -28.4667  -27.3788    8.5492 C   0  0  0  0  0  0  0  0  0  0  0  0
  -28.9616  -25.9054   10.8580 C   0  0  0  0  0  0  0  0  0  0  0  0
  -27.8306  -24.6922   16.7533 C   0  0  0  0  0  0  0  0  0  0  0  0
  -22.3593   -8.6708   20.2438 C   0  0  0  0  0  0  0  0  0  0  0  0
  -23.1019   -8.7401   22.5418 C   0  0  0  0  0  0  0  0  0  0  0  0
  -28.5031  -23.9174   17.6973 C   0  0  0  0  0  0  0  0  0  0  0  0
  -19.4087   -7.8779   21.6922 C   0  0  0  0  0  0  0  0  0  0  0  0
  -18.1060   -7.8065   21.1988 C   0  0  0  0  0  0  0  0  0  0  0  0
  -29.6280  -25.8915   18.5075 C   0  0  0  0  0  0  0  0  0  0  0  0
  -18.6956   -5.8386   19.9272 C   0  0  0  0  0  0  0  0  0  0  0  0
  -31.7191  -18.8273   22.1337 C   0  0  0  0  0  0  0  0  0  0  0  0
  -23.8313  -10.4374   20.9849 C   0  0  0  0  0  0  0  0  0  0  0  0
  -24.1479  -12.9625   20.8074 C   0  0  0  0  0  0  0  0  0  0  0  0
  -29.0409  -28.0147    9.6613 C   0  0  0  0  0  0  0  0  0  0  0  0
  -28.0603  -26.0732   16.6720 C   0  0  0  0  0  0  0  0  0  0  0  0
  -29.3015  -27.2685   10.8265 C   0  0  0  0  0  0  0  0  0  0  0  0
  -28.9552  -26.6821   17.5633 C   0  0  0  0  0  0  0  0  0  0  0  0
  -22.3637   -8.1281   21.5288 C   0  0  0  0  0  0  0  0  0  0  0  0
  -29.4041  -24.5165   18.5726 C   0  0  0  0  0  0  0  0  0  0  0  0
  -20.3549   -6.9297   21.3031 C   0  0  0  0  0  0  0  0  0  0  0  0
  -17.7495   -6.7868   20.3163 C   0  0  0  0  0  0  0  0  0  0  0  0
  -19.9983   -5.9101   20.4206 C   0  0  0  0  0  0  0  0  0  0  0  0
  -24.5900  -11.6299   20.7045 C   0  0  0  0  0  0  0  0  0  0  0  0
  -25.2350  -13.7146   20.4343 C   0  0  0  0  0  0  0  0  0  0  0  0
  -30.6080  -19.2002   22.8608 C   0  0  0  0  0  0  0  0  0  0  0  0
  -30.5023  -17.0296   21.8216 C   0  0  0  0  0  0  0  0  0  0  0  0
  -22.8691  -13.4747   21.2047 C   0  0  0  0  0  0  0  0  0  0  0  0
  -29.1977  -28.0304   14.4406 C   0  0  0  0  0  0  0  0  0  0  0  0
  -28.3414  -30.3239   16.5688 C   0  0  0  0  0  0  0  0  0  0  0  0
  -27.6943  -31.1719   19.8105 C   0  0  0  0  0  0  0  0  0  0  0  0
  -30.6887  -14.8212   20.6237 C   0  0  0  0  0  0  0  0  0  0  0  0
  -29.4247  -29.4688    9.5480 C   0  0  0  0  0  0  0  0  0  0  0  0
  -27.3069  -26.8993   15.6658 C   0  0  0  0  0  0  0  0  0  0  0  0
  -29.2221  -28.1640   17.5305 C   0  0  0  0  0  0  0  0  0  0  0  0
  -29.6902  -30.1354   10.8954 C   0  0  0  0  0  0  0  0  0  0  0  0
  -29.6169  -12.3406   18.3053 C   0  0  0  0  0  0  0  0  0  0  0  0
  -30.5817  -29.2514   11.7618 C   0  0  0  0  0  0  0  0  0  0  0  0
  -28.1772  -12.0442   18.7313 C   0  0  0  0  0  0  0  0  0  0  0  0
  -30.5206  -12.6073   19.5078 C   0  0  0  0  0  0  0  0  0  0  0  0
  -28.5960  -13.3442   20.8577 C   0  0  0  0  0  0  0  0  0  0  0  0
  -29.9051  -27.9076   12.0583 C   0  0  1  0  0  0  0  0  0  0  0  0
  -28.0025  -28.2154   15.3322 C   0  0  1  0  0  0  0  0  0  0  0  0
  -27.6339  -13.1330   19.6773 C   0  0  2  0  0  0  0  0  0  0  0  0
  -27.0557  -33.1296   21.2447 C   0  0  0  0  0  0  0  0  0  0  0  0
  -31.6550  -23.1272   26.7389 C   0  0  0  0  0  0  0  0  0  0  0  0
  -33.1923  -21.7311   25.3438 C   0  0  0  0  0  0  0  0  0  0  0  0
  -31.1911  -31.3961   16.3698 C   0  0  0  0  0  0  0  0  0  0  0  0
  -30.7733  -32.6980   18.4672 C   0  0  0  0  0  0  0  0  0  0  0  0
  -29.4156  -33.1565   16.4254 C   0  0  0  0  0  0  0  0  0  0  0  0
  -25.1892  -29.8615   20.6859 C   0  0  0  0  0  0  0  0  0  0  0  0
  -30.9976  -22.6053   24.3695 C   0  0  0  0  0  0  0  0  0  0  0  0
  -30.1875  -22.2512   22.0012 C   0  0  0  0  0  0  0  0  0  0  0  0
  -29.7809  -22.3628   19.5083 C   0  0  0  0  0  0  0  0  0  1  0  0
  -29.0232  -31.0213   17.7210 C   0  0  1  0  0  0  0  0  0  0  0  0
  -26.5483  -31.9427   20.4405 C   0  0  2  0  0  0  0  0  0  0  0  0
  -31.7300  -22.0808   25.6232 C   0  0  0  0  0  0  0  0  0  0  0  0
  -30.9967  -21.6460   23.1648 C   0  0  2  0  0  0  0  0  0  0  0  0
  -30.5633  -21.6773   20.6268 C   0  0  1  0  0  0  0  0  0  0  0  0
  -30.0974  -32.0397   17.2454 C   0  0  0  0  0  0  0  0  0  0  0  0
  -31.6604  -17.5828   21.5375 N   0  0  0  0  0  0  0  0  0  0  0  0
  -25.8588  -11.5375   20.2978 N   0  0  0  0  0  0  0  0  0  0  0  0
  -26.2234  -12.8215   20.1417 N   0  0  0  0  0  0  0  0  0  0  0  0
  -28.4657  -28.9280   16.5247 N   0  0  0  0  0  0  0  0  0  0  0  0
  -29.9445  -13.6527   20.3564 N   0  0  0  0  0  0  0  0  0  0  0  0
  -25.4321  -15.0461   20.3312 N   0  0  0  0  0  0  0  0  0  0  0  0
  -21.8641  -12.5632   21.5562 N   0  0  0  0  0  0  0  0  0  0  0  0
  -30.4058  -20.3809   23.5517 N   0  0  0  0  0  0  0  0  0  0  0  0
  -30.0257  -15.7585   21.4153 N   0  0  0  0  0  0  0  0  0  0  0  0
  -28.9031  -28.0632   13.0909 N   0  0  0  0  0  0  0  0  0  0  0  0
  -27.9601  -31.6080   18.5297 N   0  0  0  0  0  0  0  0  0  0  0  0
  -25.7673  -31.0579   21.3505 N   0  3  0  0  0  0  0  0  0  0  0  0
  -22.6197  -14.7038   21.2311 O   0  0  0  0  0  0  0  0  0  0  0  0
  -30.3053  -27.8713   14.9401 O   0  0  0  0  0  0  0  0  0  0  0  0
  -27.7154  -30.9923   15.7423 O   0  0  0  0  0  0  0  0  0  0  0  0
  -28.2962  -30.2752   20.3973 O   0  0  0  0  0  0  0  0  0  0  0  0
  -31.8194  -14.9907   20.1604 O   0  0  0  0  0  0  0  0  0  0  0  0
  -31.9586  -21.8657   20.3911 O   0  0  0  0  0  0  0  0  0  0  0  0
  -21.6476   -7.0016   21.7945 O   0  0  0  0  0  0  0  0  0  0  0  0
  -30.0666  -23.7576   19.5004 O   0  0  0  0  0  0  0  0  0  1  0  0
  -16.4980   -6.7174   19.8437 F   0  0  0  0  0  0  0  0  0  0  0  0
  -20.9027   -4.9956   20.0441 F   0  0  0  0  0  0  0  0  0  0  0  0
  -29.4352  -17.9502   22.8007 S   0  0  0  0  0  0  0  0  0  0  0  0
  1  2  1  0  0  0  0
  1  5  2  0  0  0  0
  2  6  2  0  0  0  0
  3  8  2  0  0  0  0
  3 16  1  0  0  0  0
  4  9  1  0  0  0  0
  4 16  2  0  0  0  0
  5 18  1  0  0  0  0
  6 20  1  0  0  0  0
  7 10  2  0  0  0  0
  7 19  1  0  0  0  0
  8 22  1  0  0  0  0
  9 22  2  0  0  0  0
 10 23  1  0  0  0  0
 11 12  2  0  0  0  0
 11 24  1  0  0  0  0
 12 25  1  0  0  0  0
 13 21  1  0  0  0  0
 13 23  2  0  0  0  0
 14 25  2  0  0  0  0
 14 26  1  0  0  0  0
 15 29  2  0  0  0  0
 15 64  1  0  0  0  0
 16 27  1  0  0  0  0
 17 27  1  0  0  0  0
 17 28  2  0  0  0  0
 17 31  1  0  0  0  0
 18 20  2  0  0  0  0
 18 36  1  0  0  0  0
 19 21  2  0  0  0  0
 19 37  1  0  0  0  0
 20 45  1  0  0  0  0
 21 38  1  0  0  0  0
 22 82  1  0  0  0  0
 23 83  1  0  0  0  0
 24 26  2  0  0  0  0
 24 82  1  0  0  0  0
 25 84  1  0  0  0  0
 26 85  1  0  0  0  0
 27 65  2  0  0  0  0
 28 66  1  0  0  0  0
 28 69  1  0  0  0  0
 29 71  1  0  0  0  0
 29 86  1  0  0  0  0
 30 64  2  0  0  0  0
 30 72  1  0  0  0  0
 30 86  1  0  0  0  0
 31 70  1  0  0  0  0
 31 76  2  0  0  0  0
 32 46  1  0  0  0  0
 32 73  1  0  0  0  0
 32 77  2  0  0  0  0
 33 58  1  0  0  0  0
 33 67  1  0  0  0  0
 33 78  2  0  0  0  0
 34 59  1  0  0  0  0
 34 74  1  0  0  0  0
 34 79  2  0  0  0  0
 35 68  1  0  0  0  0
 35 72  1  0  0  0  0
 35 80  2  0  0  0  0
 36 39  1  0  0  0  0
 37 46  1  0  0  0  0
 38 67  1  0  0  0  0
 39 41  1  0  0  0  0
 40 42  1  0  0  0  0
 40 43  1  0  0  0  0
 41 45  1  0  0  0  0
 42 47  1  0  0  0  0
 43 68  1  0  0  0  0
 44 47  1  0  0  0  0
 44 68  1  0  0  0  0
 45 73  1  0  0  0  0
 46 67  1  0  0  0  0
 47 66  1  0  0  0  0
 48 59  1  0  0  0  0
 49 60  1  0  0  0  0
 50 60  1  0  0  0  0
 51 63  1  0  0  0  0
 52 63  1  0  0  0  0
 53 63  1  0  0  0  0
 54 75  1  0  0  0  0
 55 60  1  0  0  0  0
 55 61  1  0  0  0  0
 56 61  1  0  0  0  0
 56 62  1  0  0  0  0
 57 62  1  0  0  0  0
 57 83  1  0  0  0  0
 58 63  1  0  0  0  0
 58 74  1  0  0  0  0
 59 75  1  0  0  0  0
 61 71  1  0  0  0  0
 62 81  1  0  0  0  0
 65 66  1  0  0  0  0
M  CHG  1  75   1
M  ISO  4  35 100  57 101  72 100  83 101
M  END
> <Batch ID>
0198

> <Smiles>
CNC(C)C(=O)NC(C(=O)N1Cc2cc([101O:1][101CH2:1]C(O)CC(CC(C)C)Nc3cnc([100NH:0][100C:0](=O)N4CCCC(n5nc(-c6ccc(Oc7ccc(F)cc7F)cc6)c(C(N)=O)c5N)C4)s3)ccc2CC1C(=O)NC1CCCc2ccccc21)C(C)(C)C

> <Shape>
0.214

> <Color>
0.183

> <Negative vol penalty>
0.000

$$$$

  -OEChem-04052305443D

 82 90  0     1  0  0  0  0  0999 V2000
  -20.6320  -34.5489   23.3174 C   0  0  0  0  0  0  0  0  0  0  0  0
  -21.8628  -34.0480   22.9051 C   0  0  0  0  0  0  0  0  0  0  0  0
  -24.6344  -12.4961   21.4888 C   0  0  0  0  0  0  0  0  0  0  0  0
  -24.5611  -12.7598   19.0884 C   0  0  0  0  0  0  0  0  0  0  0  0
  -19.7018  -33.7017   23.9181 C   0  0  0  0  0  0  0  0  0  0  0  0
  -22.1644  -32.6998   23.0944 C   0  0  0  0  0  0  0  0  0  0  0  0
  -25.5028  -29.1220   19.4121 C   0  0  0  0  0  0  0  0  0  0  0  0
  -23.7183  -11.4479   21.4017 C   0  0  0  0  0  0  0  0  0  0  0  0
  -23.6450  -11.7115   19.0012 C   0  0  0  0  0  0  0  0  0  0  0  0
  -26.8358  -28.7157   19.4553 C   0  0  0  0  0  0  0  0  0  0  0  0
  -23.7583   -8.1660   20.5890 C   0  0  0  0  0  0  0  0  0  0  0  0
  -24.0182   -7.0145   21.3320 C   0  0  0  0  0  0  0  0  0  0  0  0
  -31.7994  -22.3360   16.9941 C   0  0  0  0  0  0  0  0  0  0  0  0
  -26.1699  -26.6670   20.5409 C   0  0  0  0  0  0  0  0  0  0  0  0
  -21.9354   -7.3108   22.5199 C   0  0  0  0  0  0  0  0  0  0  0  0
  -31.6795  -20.9648   16.8940 C   0  0  0  0  0  0  0  0  0  0  0  0
  -25.0557  -13.1521   20.3322 C   0  0  0  0  0  0  0  0  0  0  0  0
  -27.4054  -14.1448   20.3686 C   0  0  0  0  0  0  0  0  0  0  0  0
  -19.9884  -32.3404   24.1061 C   0  0  0  0  0  0  0  0  0  0  0  0
  -24.4928  -28.3073   19.9436 C   0  0  0  0  0  0  0  0  0  0  0  0
  -21.2376  -31.8339   23.6995 C   0  0  0  0  0  0  0  0  0  0  0  0
  -24.8246  -27.0641   20.5009 C   0  0  0  0  0  0  0  0  0  0  0  0
  -23.2237  -11.0555   20.1579 C   0  0  0  0  0  0  0  0  0  0  0  0
  -27.1698  -27.4894   20.0224 C   0  0  0  0  0  0  0  0  0  0  0  0
  -22.5869   -8.8900   20.8114 C   0  0  0  0  0  0  0  0  0  0  0  0
  -23.1067   -6.5869   22.2974 C   0  0  0  0  0  0  0  0  0  0  0  0
  -21.6755   -8.4624   21.7769 C   0  0  0  0  0  0  0  0  0  0  0  0
  -26.0015  -14.2354   20.4216 C   0  0  0  0  0  0  0  0  0  0  0  0
  -30.7663  -22.9798   17.6440 C   0  0  0  0  0  0  0  0  0  0  0  0
  -27.8383  -15.4420   20.4970 C   0  0  0  0  0  0  0  0  0  0  0  0
  -29.6933  -21.0075   17.9988 C   0  0  0  0  0  0  0  0  0  0  0  0
  -28.2432  -12.9912   20.2167 C   0  0  0  0  0  0  0  0  0  0  0  0
  -22.3655  -28.6118   22.2858 C   0  0  0  0  0  0  0  0  0  0  0  0
  -21.2805  -25.7769   21.1420 C   0  0  0  0  0  0  0  0  0  0  0  0
  -21.9377  -22.9058   19.4180 C   0  0  0  0  0  0  0  0  0  0  0  0
  -27.4855  -20.8456   19.2011 C   0  0  0  0  0  0  0  0  0  0  0  0
  -18.9698  -31.4736   24.8030 C   0  0  0  0  0  0  0  0  0  0  0  0
  -23.0568  -28.7480   19.8652 C   0  0  0  0  0  0  0  0  0  0  0  0
  -23.7756  -26.1434   21.0670 C   0  0  0  0  0  0  0  0  0  0  0  0
  -19.2203  -29.9781   24.6273 C   0  0  0  0  0  0  0  0  0  0  0  0
  -25.3173  -19.6463   21.7580 C   0  0  0  0  0  0  0  0  0  0  0  0
  -20.6897  -29.6504   24.8732 C   0  0  0  0  0  0  0  0  0  0  0  0
  -25.4175  -18.1242   21.6339 C   0  0  0  0  0  0  0  0  0  0  0  0
  -25.3668  -20.3310   20.3933 C   0  0  0  0  0  0  0  0  0  0  0  0
  -26.6125  -18.4369   19.4291 C   0  0  0  0  0  0  0  0  0  0  0  0
  -21.5920  -30.3721   23.8650 C   0  0  1  0  0  0  0  0  0  0  0  0
  -22.1656  -28.0676   20.8996 C   0  0  1  0  0  0  0  0  0  0  0  0
  -26.6323  -17.7070   20.7820 C   0  0  2  0  0  0  0  0  0  0  0  0
  -20.8634  -20.7612   18.6805 C   0  0  0  0  0  0  0  0  0  0  0  0
  -21.5278  -24.6803   23.9786 C   0  0  0  0  0  0  0  0  0  0  0  0
  -21.3726  -22.3707   23.0246 C   0  0  0  0  0  0  0  0  0  0  0  0
  -19.4679  -23.9593   22.7573 C   0  0  0  0  0  0  0  0  0  0  0  0
  -22.3446  -23.5502   16.5582 C   0  0  0  0  0  0  0  0  0  0  0  0
  -29.8451  -25.1651   18.4196 C   0  0  0  0  0  0  0  0  0  0  0  0
  -29.3273  -27.5540   19.0238 C   0  0  0  0  0  0  0  0  0  1  0  0
  -21.5834  -24.3247   21.4219 C   0  0  1  0  0  0  0  0  0  0  0  0
  -21.1789  -22.2015   18.3078 C   0  0  2  0  0  0  0  0  0  0  0  0
  -30.4295  -26.5256   18.7946 C   0  0  1  0  0  0  0  0  0  0  0  0
  -21.0081  -23.8517   22.7868 C   0  0  0  0  0  0  0  0  0  0  0  0
  -30.6360  -20.2657   17.3868 N   0  0  0  0  0  0  0  0  0  0  0  0
  -25.5712  -15.4909   20.5722 N   0  0  0  0  0  0  0  0  0  0  0  0
  -29.6939  -22.3445   18.1604 N   0  0  0  0  0  0  0  0  0  0  0  0
  -26.7113  -16.2011   20.6149 N   0  0  0  0  0  0  0  0  0  0  0  0
  -22.3864  -26.6219   20.9725 N   0  0  0  0  0  0  0  0  0  0  0  0
  -26.5460  -19.8909   19.6446 N   0  0  0  0  0  0  0  0  0  0  0  0
  -29.0692  -15.9958   20.5196 N   0  0  0  0  0  0  0  0  0  0  0  0
  -27.6345  -11.7344   20.0980 N   0  0  0  0  0  0  0  0  0  0  0  0
  -30.8495  -24.3565   17.7655 N   0  0  0  0  0  0  0  0  0  0  0  0
  -28.5818  -20.3065   18.5287 N   0  0  0  0  0  0  0  0  0  0  0  0
  -21.5627  -29.6957   22.5859 N   0  0  0  0  0  0  0  0  0  0  0  0
  -21.0875  -23.5753   20.2726 N   0  0  0  0  0  0  0  0  0  0  0  0
  -21.9828  -22.1969   17.0529 N   0  3  0  0  0  0  0  0  0  0  0  0
  -29.4950  -13.0708   20.2037 O   0  0  0  0  0  0  0  0  0  0  0  0
  -23.1863  -28.0862   23.0286 O   0  0  0  0  0  0  0  0  0  0  0  0
  -20.1059  -26.1465   21.0690 O   0  0  0  0  0  0  0  0  0  0  0  0
  -23.1618  -22.8631   19.5193 O   0  0  0  0  0  0  0  0  0  0  0  0
  -27.3426  -22.0500   19.4266 O   0  0  0  0  0  0  0  0  0  0  0  0
  -31.1654  -26.3982   20.0130 O   0  0  0  0  0  0  0  0  0  0  0  0
  -22.3299  -10.0325   20.0724 O   0  0  0  0  0  0  0  0  0  0  0  0
  -28.4702  -27.0907   20.0664 O   0  0  0  0  0  0  0  0  0  1  0  0
  -23.3557   -5.4802   23.0098 F   0  0  0  0  0  0  0  0  0  0  0  0
  -20.5479   -9.1531   21.9942 F   0  0  0  0  0  0  0  0  0  0  0  0
  1  2  1  0  0  0  0
  1  5  2  0  0  0  0
  2  6  2  0  0  0  0
  3  8  2  0  0  0  0
  3 17  1  0  0  0  0
  4  9  1  0  0  0  0
  4 17  2  0  0  0  0
  5 19  1  0  0  0  0
  6 21  1  0  0  0  0
  7 10  2  0  0  0  0
  7 20  1  0  0  0  0
  8 23  1  0  0  0  0
  9 23  2  0  0  0  0
 10 24  1  0  0  0  0
 11 12  2  0  0  0  0
 11 25  1  0  0  0  0
 12 26  1  0  0  0  0
 13 16  2  0  0  0  0
 13 29  1  0  0  0  0
 14 22  1  0  0  0  0
 14 24  2  0  0  0  0
 15 26  2  0  0  0  0
 15 27  1  0  0  0  0
 16 60  1  0  0  0  0
 17 28  1  0  0  0  0
 18 28  1  0  0  0  0
 18 30  2  0  0  0  0
 18 32  1  0  0  0  0
 19 21  2  0  0  0  0
 19 37  1  0  0  0  0
 20 22  2  0  0  0  0
 20 38  1  0  0  0  0
 21 46  1  0  0  0  0
 22 39  1  0  0  0  0
 23 79  1  0  0  0  0
 24 80  1  0  0  0  0
 25 27  2  0  0  0  0
 25 79  1  0  0  0  0
 26 81  1  0  0  0  0
 27 82  1  0  0  0  0
 28 61  2  0  0  0  0
 29 62  2  0  0  0  0
 29 68  1  0  0  0  0
 30 63  1  0  0  0  0
 30 66  1  0  0  0  0
 31 60  2  0  0  0  0
 31 62  1  0  0  0  0
 31 69  1  0  0  0  0
 32 67  1  0  0  0  0
 32 73  2  0  0  0  0
 33 47  1  0  0  0  0
 33 70  1  0  0  0  0
 33 74  2  0  0  0  0
 34 56  1  0  0  0  0
 34 64  1  0  0  0  0
 34 75  2  0  0  0  0
 35 57  1  0  0  0  0
 35 71  1  0  0  0  0
 35 76  2  0  0  0  0
 36 65  1  0  0  0  0
 36 69  1  0  0  0  0
 36 77  2  0  0  0  0
 37 40  1  0  0  0  0
 38 47  1  0  0  0  0
 39 64  1  0  0  0  0
 40 42  1  0  0  0  0
 41 43  1  0  0  0  0
 41 44  1  0  0  0  0
 42 46  1  0  0  0  0
 43 48  1  0  0  0  0
 44 65  1  0  0  0  0
 45 48  1  0  0  0  0
 45 65  1  0  0  0  0
 46 70  1  0  0  0  0
 47 64  1  0  0  0  0
 48 63  1  0  0  0  0
 49 57  1  0  0  0  0
 50 59  1  0  0  0  0
 51 59  1  0  0  0  0
 52 59  1  0  0  0  0
 53 72  1  0  0  0  0
 54 58  1  0  0  0  0
 54 68  1  0  0  0  0
 55 58  1  0  0  0  0
 55 80  1  0  0  0  0
 56 59  1  0  0  0  0
 56 71  1  0  0  0  0
 57 72  1  0  0  0  0
 58 78  1  0  0  0  0
 61 63  1  0  0  0  0
M  CHG  1  72   1
M  ISO  4  36 100  55 101  69 100  80 101
M  END
> <Batch ID>
0198

> <Smiles>
CNC(C)C(=O)NC(C(=O)N1Cc2cc([101O:1][101CH2:1]C(O)CNc3ccnc([100NH:0][100C:0](=O)N4CCCC(n5nc(-c6ccc(Oc7ccc(F)cc7F)cc6)c(C(N)=O)c5N)C4)n3)ccc2CC1C(=O)NC1CCCc2ccccc21)C(C)(C)C

> <Shape>
0.247

> <Color>
0.085

> <Negative vol penalty>
0.000

$$$$

  -OEChem-04052305443D

 84 92  0     1  0  0  0  0  0999 V2000
  -18.4898  -19.9715   18.3852 C   0  0  0  0  0  0  0  0  0  0  0  0
  -18.6834  -19.4631   19.6656 C   0  0  0  0  0  0  0  0  0  0  0  0
  -26.7187  -29.6295   21.1684 C   0  0  0  0  0  0  0  0  0  0  0  0
  -25.1282  -28.1619   20.0944 C   0  0  0  0  0  0  0  0  0  0  0  0
  -18.9513  -19.2618   17.2774 C   0  0  0  0  0  0  0  0  0  0  0  0
  -19.3377  -18.2440   19.8388 C   0  0  0  0  0  0  0  0  0  0  0  0
  -25.3455  -17.7881   23.7873 C   0  0  0  0  0  0  0  0  0  0  0  0
  -25.8844  -30.7184   20.9160 C   0  0  0  0  0  0  0  0  0  0  0  0
  -24.2939  -29.2509   19.8419 C   0  0  0  0  0  0  0  0  0  0  0  0
  -26.3801  -17.5808   24.6998 C   0  0  0  0  0  0  0  0  0  0  0  0
  -24.0070  -33.8311   20.8741 C   0  0  0  0  0  0  0  0  0  0  0  0
  -23.7962  -34.7405   21.9105 C   0  0  0  0  0  0  0  0  0  0  0  0
  -26.4667  -15.2431   24.0867 C   0  0  0  0  0  0  0  0  0  0  0  0
  -22.8651  -32.9742   23.2709 C   0  0  0  0  0  0  0  0  0  0  0  0
  -31.1184  -18.8675   19.3322 C   0  0  0  0  0  0  0  0  0  0  0  0
  -26.3406  -28.3512   20.7576 C   0  0  0  0  0  0  0  0  0  0  0  0
  -27.1982  -26.3973   22.1555 C   0  0  0  0  0  0  0  0  0  0  0  0
  -19.6201  -18.0380   17.4377 C   0  0  0  0  0  0  0  0  0  0  0  0
  -24.8774  -16.7258   23.0091 C   0  0  0  0  0  0  0  0  0  0  0  0
  -19.8074  -17.5165   18.7321 C   0  0  0  0  0  0  0  0  0  0  0  0
  -25.4390  -15.4475   23.1621 C   0  0  0  0  0  0  0  0  0  0  0  0
  -24.6720  -30.5291   20.2528 C   0  0  0  0  0  0  0  0  0  0  0  0
  -26.9392  -16.3114   24.8493 C   0  0  0  0  0  0  0  0  0  0  0  0
  -23.6468  -32.4933   21.0361 C   0  0  0  0  0  0  0  0  0  0  0  0
  -23.2252  -34.3121   23.1089 C   0  0  0  0  0  0  0  0  0  0  0  0
  -23.0759  -32.0648   22.2345 C   0  0  0  0  0  0  0  0  0  0  0  0
  -27.2023  -27.2260   21.0175 C   0  0  0  0  0  0  0  0  0  0  0  0
  -28.1978  -25.4852   21.9196 C   0  0  0  0  0  0  0  0  0  0  0  0
  -30.2275  -19.8321   19.7539 C   0  0  0  0  0  0  0  0  0  0  0  0
  -29.9265  -17.6387   20.7030 C   0  0  0  0  0  0  0  0  0  0  0  0
  -26.3654  -26.4473   23.3215 C   0  0  0  0  0  0  0  0  0  0  0  0
  -22.4966  -15.5671   20.3510 C   0  0  0  0  0  0  0  0  0  0  0  0
  -25.1799  -14.1829   19.8087 C   0  0  0  0  0  0  0  0  0  0  0  0
  -30.8471  -15.8942   25.2374 C   0  0  0  0  0  0  0  0  0  0  0  0
  -28.4062  -13.1918   19.3123 C   0  0  0  0  0  0  0  0  0  0  0  0
  -30.8689  -21.9492   18.5485 C   0  0  0  0  0  0  0  0  0  0  0  0
  -20.0591  -17.2840   16.2075 C   0  0  0  0  0  0  0  0  0  0  0  0
  -23.7232  -16.8896   22.0578 C   0  0  0  0  0  0  0  0  0  0  0  0
  -24.8802  -14.3269   22.3286 C   0  0  0  0  0  0  0  0  0  0  0  0
  -21.0740  -16.1816   16.4986 C   0  0  0  0  0  0  0  0  0  0  0  0
  -31.7895  -25.3831   18.3544 C   0  0  0  0  0  0  0  0  0  0  0  0
  -20.6288  -15.3488   17.6966 C   0  0  0  0  0  0  0  0  0  0  0  0
  -30.6778  -26.1005   19.1236 C   0  0  0  0  0  0  0  0  0  0  0  0
  -31.2525  -24.1955   17.5576 C   0  0  0  0  0  0  0  0  0  0  0  0
  -29.3509  -23.9497   19.1043 C   0  0  0  0  0  0  0  0  0  0  0  0
  -20.5345  -16.2095   18.9623 C   0  0  1  0  0  0  0  0  0  0  0  0
  -23.8562  -16.0230   20.7927 C   0  0  1  0  0  0  0  0  0  0  0  0
  -29.8535  -25.1139   19.9737 C   0  0  2  0  0  0  0  0  0  0  0  0
  -30.3645  -12.1313   18.1558 C   0  0  0  0  0  0  0  0  0  0  0  0
  -24.1076  -11.6415   21.1108 C   0  0  0  0  0  0  0  0  0  0  0  0
  -26.1446  -10.4433   20.2843 C   0  0  0  0  0  0  0  0  0  0  0  0
  -24.5461  -11.4513   18.6560 C   0  0  0  0  0  0  0  0  0  0  0  0
  -28.9924  -15.6611   17.7898 C   0  0  0  0  0  0  0  0  0  0  0  0
  -29.4310  -16.4518   21.4902 C   0  0  0  0  0  0  0  0  0  0  0  0
  -30.2034  -16.7067   26.3501 C   0  0  0  0  0  0  0  0  0  0  0  0
  -30.5441  -15.4952   21.9382 C   0  0  0  0  0  0  0  0  0  0  0  0
  -31.5816  -16.1225   22.8672 C   0  0  0  0  0  0  0  0  0  0  0  0
  -28.8200  -17.2225   25.9850 C   0  0  0  0  0  0  0  0  0  1  0  0
  -26.0406  -12.9637   20.0239 C   0  0  1  0  0  0  0  0  0  0  0  0
  -29.2822  -13.1964   18.0725 C   0  0  2  0  0  0  0  0  0  0  0  0
  -25.2122  -11.6480   20.0352 C   0  0  0  0  0  0  0  0  0  0  0  0
  -30.9476  -17.6092   19.8757 N   0  0  0  0  0  0  0  0  0  0  0  0
  -28.1308  -26.8720   20.1251 N   0  0  0  0  0  0  0  0  0  0  0  0
  -28.7197  -25.8107   20.7023 N   0  0  0  0  0  0  0  0  0  0  0  0
  -24.6487  -14.7919   20.9521 N   0  0  0  0  0  0  0  0  0  0  0  0
  -30.4861  -23.3019   18.4287 N   0  0  0  0  0  0  0  0  0  0  0  0
  -28.6724  -24.4447   22.6368 N   0  0  0  0  0  0  0  0  0  0  0  0
  -25.3881  -27.4487   23.4020 N   0  0  0  0  0  0  0  0  0  0  0  0
  -30.0861  -21.2043   19.4299 N   0  0  0  0  0  0  0  0  0  0  0  0
  -21.8529  -16.4525   19.5076 N   0  0  0  0  0  0  0  0  0  0  0  0
  -30.9974  -16.6460   24.0810 N   0  0  0  0  0  0  0  0  0  0  0  0
  -27.0763  -13.0089   18.9974 N   0  0  0  0  0  0  0  0  0  0  0  0
  -29.9403  -14.5233   17.9081 N   0  3  0  0  0  0  0  0  0  0  0  0
  -26.4952  -25.6383   24.2713 O   0  0  0  0  0  0  0  0  0  0  0  0
  -22.0629  -14.4907   20.7445 O   0  0  0  0  0  0  0  0  0  0  0  0
  -24.9779  -14.5832   18.6588 O   0  0  0  0  0  0  0  0  0  0  0  0
  -31.1837  -14.7206   25.3685 O   0  0  0  0  0  0  0  0  0  0  0  0
  -28.8571  -13.3326   20.4470 O   0  0  0  0  0  0  0  0  0  0  0  0
  -31.8378  -21.4923   17.9365 O   0  0  0  0  0  0  0  0  0  0  0  0
  -23.8575  -31.5915   20.0065 O   0  0  0  0  0  0  0  0  0  0  0  0
  -27.9520  -16.1169   25.7387 O   0  0  0  0  0  0  0  0  0  1  0  0
  -23.0243  -35.1851   24.1047 F   0  0  0  0  0  0  0  0  0  0  0  0
  -22.7290  -30.7806   22.3963 F   0  0  0  0  0  0  0  0  0  0  0  0
  -29.1255  -19.1466   20.8751 S   0  0  0  0  0  0  0  0  0  0  0  0
  1  2  1  0  0  0  0
  1  5  2  0  0  0  0
  2  6  2  0  0  0  0
  3  8  2  0  0  0  0
  3 16  1  0  0  0  0
  4  9  1  0  0  0  0
  4 16  2  0  0  0  0
  5 18  1  0  0  0  0
  6 20  1  0  0  0  0
  7 10  2  0  0  0  0
  7 19  1  0  0  0  0
  8 22  1  0  0  0  0
  9 22  2  0  0  0  0
 10 23  1  0  0  0  0
 11 12  2  0  0  0  0
 11 24  1  0  0  0  0
 12 25  1  0  0  0  0
 13 21  1  0  0  0  0
 13 23  2  0  0  0  0
 14 25  2  0  0  0  0
 14 26  1  0  0  0  0
 15 29  2  0  0  0  0
 15 62  1  0  0  0  0
 16 27  1  0  0  0  0
 17 27  1  0  0  0  0
 17 28  2  0  0  0  0
 17 31  1  0  0  0  0
 18 20  2  0  0  0  0
 18 37  1  0  0  0  0
 19 21  2  0  0  0  0
 19 38  1  0  0  0  0
 20 46  1  0  0  0  0
 21 39  1  0  0  0  0
 22 80  1  0  0  0  0
 23 81  1  0  0  0  0
 24 26  2  0  0  0  0
 24 80  1  0  0  0  0
 25 82  1  0  0  0  0
 26 83  1  0  0  0  0
 27 63  2  0  0  0  0
 28 64  1  0  0  0  0
 28 67  1  0  0  0  0
 29 69  1  0  0  0  0
 29 84  1  0  0  0  0
 30 54  1  0  0  0  0
 30 62  2  0  0  0  0
 30 84  1  0  0  0  0
 31 68  1  0  0  0  0
 31 74  2  0  0  0  0
 32 47  1  0  0  0  0
 32 70  1  0  0  0  0
 32 75  2  0  0  0  0
 33 59  1  0  0  0  0
 33 65  1  0  0  0  0
 33 76  2  0  0  0  0
 34 55  1  0  0  0  0
 34 71  1  0  0  0  0
 34 77  2  0  0  0  0
 35 60  1  0  0  0  0
 35 72  1  0  0  0  0
 35 78  2  0  0  0  0
 36 66  1  0  0  0  0
 36 69  1  0  0  0  0
 36 79  2  0  0  0  0
 37 40  1  0  0  0  0
 38 47  1  0  0  0  0
 39 65  1  0  0  0  0
 40 42  1  0  0  0  0
 41 43  1  0  0  0  0
 41 44  1  0  0  0  0
 42 46  1  0  0  0  0
 43 48  1  0  0  0  0
 44 66  1  0  0  0  0
 45 48  1  0  0  0  0
 45 66  1  0  0  0  0
 46 70  1  0  0  0  0
 47 65  1  0  0  0  0
 48 64  1  0  0  0  0
 49 60  1  0  0  0  0
 50 61  1  0  0  0  0
 51 61  1  0  0  0  0
 52 61  1  0  0  0  0
 53 73  1  0  0  0  0
 54 56  1  0  0  0  0
 55 58  1  0  0  0  0
 56 57  1  0  0  0  0
 57 71  1  0  0  0  0
 58 81  1  0  0  0  0
 59 61  1  0  0  0  0
 59 72  1  0  0  0  0
 60 73  1  0  0  0  0
 63 64  1  0  0  0  0
M  CHG  1  73   1
M  ISO  4  36 100  58 101  69 100  81 101
M  END
> <Batch ID>
0198

> <Smiles>
CNC(C)C(=O)NC(C(=O)N1Cc2cc([101O:1][101CH2:1]CC(=O)NCCCc3ncc([100NH:0][100C:0](=O)N4CCCC(n5nc(-c6ccc(Oc7ccc(F)cc7F)cc6)c(C(N)=O)c5N)C4)s3)ccc2CC1C(=O)NC1CCCc2ccccc21)C(C)(C)C

> <Shape>
0.224

> <Color>
0.054

> <Negative vol penalty>
0.000

$$$$

  -OEChem-04052305443D

 83 91  0     1  0  0  0  0  0999 V2000
  -32.0916  -15.3461   19.3740 C   0  0  0  0  0  0  0  0  0  0  0  0
  -31.1331  -16.3539   19.3415 C   0  0  0  0  0  0  0  0  0  0  0  0
  -28.1699  -24.8328   18.6385 C   0  0  0  0  0  0  0  0  0  0  0  0
  -26.0161  -23.8043   19.0127 C   0  0  0  0  0  0  0  0  0  0  0  0
  -31.6989  -14.0167   19.5233 C   0  0  0  0  0  0  0  0  0  0  0  0
  -29.7811  -16.0326   19.4573 C   0  0  0  0  0  0  0  0  0  0  0  0
  -25.4327  -19.3469   22.2165 C   0  0  0  0  0  0  0  0  0  0  0  0
  -28.7932  -23.6017   18.8418 C   0  0  0  0  0  0  0  0  0  0  0  0
  -26.6393  -22.5731   19.2159 C   0  0  0  0  0  0  0  0  0  0  0  0
  -24.4723  -20.2296   21.7245 C   0  0  0  0  0  0  0  0  0  0  0  0
  -30.9781  -20.8002   19.6175 C   0  0  0  0  0  0  0  0  0  0  0  0
  -32.1123  -20.7719   20.4288 C   0  0  0  0  0  0  0  0  0  0  0  0
  -22.8486  -18.4456   21.7106 C   0  0  0  0  0  0  0  0  0  0  0  0
  -30.8124  -21.6298   22.2759 C   0  0  0  0  0  0  0  0  0  0  0  0
  -26.7814  -24.9342   18.7240 C   0  0  0  0  0  0  0  0  0  0  0  0
  -25.6730  -26.7331   17.2947 C   0  0  0  0  0  0  0  0  0  0  0  0
  -30.3421  -13.6799   19.6507 C   0  0  0  0  0  0  0  0  0  0  0  0
  -25.1107  -18.0021   22.4494 C   0  0  0  0  0  0  0  0  0  0  0  0
  -29.3698  -14.6973   19.6072 C   0  0  0  0  0  0  0  0  0  0  0  0
  -23.8061  -17.5485   22.2080 C   0  0  0  0  0  0  0  0  0  0  0  0
  -28.0279  -22.4718   19.1305 C   0  0  0  0  0  0  0  0  0  0  0  0
  -23.1807  -19.7783   21.4687 C   0  0  0  0  0  0  0  0  0  0  0  0
  -29.7611  -21.2434   20.1352 C   0  0  0  0  0  0  0  0  0  0  0  0
  -32.0295  -21.1866   21.7580 C   0  0  0  0  0  0  0  0  0  0  0  0
  -29.6782  -21.6581   21.4644 C   0  0  0  0  0  0  0  0  0  0  0  0
  -26.1370  -26.2058   18.5147 C   0  0  0  0  0  0  0  0  0  0  0  0
  -19.7777  -28.0942   22.7390 C   0  0  0  0  0  0  0  0  0  0  0  0
  -18.4049  -28.1201   22.6091 C   0  0  0  0  0  0  0  0  0  0  0  0
  -25.1456  -27.9568   17.6279 C   0  0  0  0  0  0  0  0  0  0  0  0
  -19.4622  -26.0039   22.1552 C   0  0  0  0  0  0  0  0  0  0  0  0
  -25.7149  -26.1674   15.9779 C   0  0  0  0  0  0  0  0  0  0  0  0
  -26.1229  -15.2202   21.2915 C   0  0  0  0  0  0  0  0  0  0  0  0
  -24.1844  -14.0021   23.5895 C   0  0  0  0  0  0  0  0  0  0  0  0
  -21.4879  -14.4377   25.6354 C   0  0  0  0  0  0  0  0  0  0  0  0
  -22.8927  -30.1781   22.7113 C   0  0  0  0  0  0  0  0  0  0  0  0
  -29.9629  -12.2244   19.7626 C   0  0  0  0  0  0  0  0  0  0  0  0
  -26.1510  -17.0688   23.0055 C   0  0  0  0  0  0  0  0  0  0  0  0
  -23.4041  -16.1191   22.4604 C   0  0  0  0  0  0  0  0  0  0  0  0
  -28.5350  -12.0032   20.2549 C   0  0  0  0  0  0  0  0  0  0  0  0
  -25.6092  -31.4901   20.8203 C   0  0  0  0  0  0  0  0  0  0  0  0
  -27.5656  -12.9138   19.5079 C   0  0  0  0  0  0  0  0  0  0  0  0
  -26.0106  -30.3322   19.9049 C   0  0  0  0  0  0  0  0  0  0  0  0
  -25.1740  -30.9957   22.1980 C   0  0  0  0  0  0  0  0  0  0  0  0
  -24.5170  -28.8108   21.2662 C   0  0  0  0  0  0  0  0  0  0  0  0
  -27.8952  -14.3910   19.7545 C   0  0  1  0  0  0  0  0  0  0  0  0
  -25.8508  -15.6007   22.7194 C   0  0  1  0  0  0  0  0  0  0  0  0
  -24.9102  -29.2556   19.8471 C   0  0  2  0  0  0  0  0  0  0  0  0
  -17.4514  -29.2298   22.8083 C   0  0  0  0  0  0  0  0  0  0  0  0
  -20.1232  -13.2512   27.3752 C   0  0  0  0  0  0  0  0  0  0  0  0
  -22.8454  -12.3448   21.4054 C   0  0  0  0  0  0  0  0  0  0  0  0
  -20.9429  -11.9343   22.9803 C   0  0  0  0  0  0  0  0  0  0  0  0
  -23.2312  -11.1231   23.5533 C   0  0  0  0  0  0  0  0  0  0  0  0
  -22.1343  -16.4654   27.6920 C   0  0  0  0  0  0  0  0  0  0  0  0
  -20.6358  -29.2328   23.1258 C   0  0  0  0  0  0  0  0  0  0  0  0
  -21.0470  -24.1074   21.8127 C   0  0  0  0  0  0  0  0  0  0  0  0
  -22.3643  -22.0094   21.3613 C   0  0  0  0  0  0  0  0  0  1  0  0
  -22.7312  -13.5992   23.6592 C   0  0  1  0  0  0  0  0  0  0  0  0
  -21.2980  -14.1824   27.1197 C   0  0  2  0  0  0  0  0  0  0  0  0
  -20.9770  -22.6417   21.3886 C   0  0  1  0  0  0  0  0  0  0  0  0
  -22.4455  -12.2769   22.8928 C   0  0  0  0  0  0  0  0  0  0  0  0
  -25.9233  -27.0273   19.5460 N   0  0  0  0  0  0  0  0  0  0  0  0
  -20.3857  -26.8815   22.4794 N   0  0  0  0  0  0  0  0  0  0  0  0
  -25.3193  -28.0832   18.9747 N   0  0  0  0  0  0  0  0  0  0  0  0
  -24.4584  -15.2437   22.9985 N   0  0  0  0  0  0  0  0  0  0  0  0
  -24.1278  -29.9780   22.0729 N   0  0  0  0  0  0  0  0  0  0  0  0
  -24.5550  -28.9262   16.8973 N   0  0  0  0  0  0  0  0  0  0  0  0
  -26.2919  -24.9008   15.8129 N   0  0  0  0  0  0  0  0  0  0  0  0
  -19.7207  -24.6826   21.8319 N   0  0  0  0  0  0  0  0  0  0  0  0
  -27.4197  -14.8043   21.0574 N   0  0  0  0  0  0  0  0  0  0  0  0
  -22.3874  -13.5548   25.0763 N   0  0  0  0  0  0  0  0  0  0  0  0
  -21.9546  -29.1681   22.5365 N   0  0  0  0  0  0  0  0  0  0  0  0
  -21.0467  -15.4639   27.8377 N   0  3  0  0  0  0  0  0  0  0  0  0
  -25.2691  -26.7743   14.9747 O   0  0  0  0  0  0  0  0  0  0  0  0
  -25.2226  -15.2969   20.4637 O   0  0  0  0  0  0  0  0  0  0  0  0
  -25.0442  -13.2463   24.0491 O   0  0  0  0  0  0  0  0  0  0  0  0
  -20.8945  -15.3286   25.0315 O   0  0  0  0  0  0  0  0  0  0  0  0
  -22.6425  -31.1850   23.3825 O   0  0  0  0  0  0  0  0  0  0  0  0
  -20.1881  -21.9184   22.3356 O   0  0  0  0  0  0  0  0  0  0  0  0
  -28.6357  -21.2702   19.3286 O   0  0  0  0  0  0  0  0  0  0  0  0
  -22.2415  -20.6377   20.9878 O   0  0  0  0  0  0  0  0  0  1  0  0
  -33.1184  -21.1579   22.5375 F   0  0  0  0  0  0  0  0  0  0  0  0
  -28.5115  -22.0837   21.9678 F   0  0  0  0  0  0  0  0  0  0  0  0
  -17.8419  -26.5691   22.1417 S   0  0  0  0  0  0  0  0  0  0  0  0
  1  2  1  0  0  0  0
  1  5  2  0  0  0  0
  2  6  2  0  0  0  0
  3  8  2  0  0  0  0
  3 15  1  0  0  0  0
  4  9  1  0  0  0  0
  4 15  2  0  0  0  0
  5 17  1  0  0  0  0
  6 19  1  0  0  0  0
  7 10  2  0  0  0  0
  7 18  1  0  0  0  0
  8 21  1  0  0  0  0
  9 21  2  0  0  0  0
 10 22  1  0  0  0  0
 11 12  2  0  0  0  0
 11 23  1  0  0  0  0
 12 24  1  0  0  0  0
 13 20  1  0  0  0  0
 13 22  2  0  0  0  0
 14 24  2  0  0  0  0
 14 25  1  0  0  0  0
 15 26  1  0  0  0  0
 16 26  1  0  0  0  0
 16 29  2  0  0  0  0
 16 31  1  0  0  0  0
 17 19  2  0  0  0  0
 17 36  1  0  0  0  0
 18 20  2  0  0  0  0
 18 37  1  0  0  0  0
 19 45  1  0  0  0  0
 20 38  1  0  0  0  0
 21 79  1  0  0  0  0
 22 80  1  0  0  0  0
 23 25  2  0  0  0  0
 23 79  1  0  0  0  0
 24 81  1  0  0  0  0
 25 82  1  0  0  0  0
 26 61  2  0  0  0  0
 27 28  2  0  0  0  0
 27 54  1  0  0  0  0
 27 62  1  0  0  0  0
 28 48  1  0  0  0  0
 28 83  1  0  0  0  0
 29 63  1  0  0  0  0
 29 66  1  0  0  0  0
 30 62  2  0  0  0  0
 30 68  1  0  0  0  0
 30 83  1  0  0  0  0
 31 67  1  0  0  0  0
 31 73  2  0  0  0  0
 32 46  1  0  0  0  0
 32 69  1  0  0  0  0
 32 74  2  0  0  0  0
 33 57  1  0  0  0  0
 33 64  1  0  0  0  0
 33 75  2  0  0  0  0
 34 58  1  0  0  0  0
 34 70  1  0  0  0  0
 34 76  2  0  0  0  0
 35 65  1  0  0  0  0
 35 71  1  0  0  0  0
 35 77  2  0  0  0  0
 36 39  1  0  0  0  0
 37 46  1  0  0  0  0
 38 64  1  0  0  0  0
 39 41  1  0  0  0  0
 40 42  1  0  0  0  0
 40 43  1  0  0  0  0
 41 45  1  0  0  0  0
 42 47  1  0  0  0  0
 43 65  1  0  0  0  0
 44 47  1  0  0  0  0
 44 65  1  0  0  0  0
 45 69  1  0  0  0  0
 46 64  1  0  0  0  0
 47 63  1  0  0  0  0
 49 58  1  0  0  0  0
 50 60  1  0  0  0  0
 51 60  1  0  0  0  0
 52 60  1  0  0  0  0
 53 72  1  0  0  0  0
 54 71  1  0  0  0  0
 55 59  1  0  0  0  0
 55 68  1  0  0  0  0
 56 59  1  0  0  0  0
 56 80  1  0  0  0  0
 57 60  1  0  0  0  0
 57 70  1  0  0  0  0
 58 72  1  0  0  0  0
 59 78  1  0  0  0  0
 61 63  1  0  0  0  0
M  CHG  1  72   1
M  ISO  4  35 100  56 101  71 100  80 101
M  END
> <Batch ID>
0198

> <Smiles>
CNC(C)C(=O)NC(C(=O)N1Cc2cc([101O:1][101CH2:1]C(O)CNc3nc(C[100NH:0][100C:0](=O)N4CCCC(n5nc(-c6ccc(Oc7ccc(F)cc7F)cc6)c(C(N)=O)c5N)C4)c(C)s3)ccc2CC1C(=O)NC1CCCc2ccccc21)C(C)(C)C

> <Shape>
0.215

> <Color>
0.083

> <Negative vol penalty>
0.000

$$$$

  -OEChem-04052305443D

 82 90  0     1  0  0  0  0  0999 V2000
  -30.1374  -30.3893   22.4923 C   0  0  0  0  0  0  0  0  0  0  0  0
  -29.5208  -29.4435   21.6794 C   0  0  0  0  0  0  0  0  0  0  0  0
  -26.5711  -12.4594   21.7783 C   0  0  0  0  0  0  0  0  0  0  0  0
  -25.7877  -13.9360   20.0338 C   0  0  0  0  0  0  0  0  0  0  0  0
  -29.5076  -30.8207   23.6590 C   0  0  0  0  0  0  0  0  0  0  0  0
  -28.2745  -28.9279   22.0333 C   0  0  0  0  0  0  0  0  0  0  0  0
  -25.0741  -28.7202   18.1142 C   0  0  0  0  0  0  0  0  0  0  0  0
  -25.3206  -11.8428   21.8179 C   0  0  0  0  0  0  0  0  0  0  0  0
  -24.5372  -13.3193   20.0734 C   0  0  0  0  0  0  0  0  0  0  0  0
  -25.2424  -27.6730   17.2094 C   0  0  0  0  0  0  0  0  0  0  0  0
  -22.4448   -9.6406   22.1265 C   0  0  0  0  0  0  0  0  0  0  0  0
  -22.4101   -8.2470   22.1733 C   0  0  0  0  0  0  0  0  0  0  0  0
  -23.4380  -26.4741   18.2705 C   0  0  0  0  0  0  0  0  0  0  0  0
  -23.5842   -8.1469   20.0641 C   0  0  0  0  0  0  0  0  0  0  0  0
  -28.5126  -23.3789   17.7573 C   0  0  0  0  0  0  0  0  0  0  0  0
  -26.5353  -22.4607   18.5960 C   0  0  0  0  0  0  0  0  0  0  0  0
  -26.8046  -13.5061   20.8863 C   0  0  0  0  0  0  0  0  0  0  0  0
  -29.1971  -13.7835   20.0455 C   0  0  0  0  0  0  0  0  0  0  0  0
  -28.2486  -30.3172   24.0224 C   0  0  0  0  0  0  0  0  0  0  0  0
  -24.0919  -28.6474   19.1125 C   0  0  0  0  0  0  0  0  0  0  0  0
  -27.6279  -29.3519   23.2066 C   0  0  0  0  0  0  0  0  0  0  0  0
  -23.2574  -27.5229   19.1851 C   0  0  0  0  0  0  0  0  0  0  0  0
  -27.1752  -23.1045   17.5566 C   0  0  0  0  0  0  0  0  0  0  0  0
  -24.3036  -12.2727   20.9655 C   0  0  0  0  0  0  0  0  0  0  0  0
  -24.4263  -26.5484   17.2893 C   0  0  0  0  0  0  0  0  0  0  0  0
  -23.0491  -10.2874   21.0484 C   0  0  0  0  0  0  0  0  0  0  0  0
  -22.9799   -7.5001   21.1422 C   0  0  0  0  0  0  0  0  0  0  0  0
  -23.6188   -9.5405   20.0173 C   0  0  0  0  0  0  0  0  0  0  0  0
  -28.0960  -14.1439   20.8452 C   0  0  0  0  0  0  0  0  0  0  0  0
  -30.1729  -14.6921   20.3752 C   0  0  0  0  0  0  0  0  0  0  0  0
  -28.4493  -22.4299   19.8219 C   0  0  0  0  0  0  0  0  0  0  0  0
  -29.3262  -12.7224   19.0900 C   0  0  0  0  0  0  0  0  0  0  0  0
  -24.1207  -28.6351   22.2910 C   0  0  0  0  0  0  0  0  0  0  0  0
  -29.8804  -20.2456   22.6524 C   0  0  0  0  0  0  0  0  0  0  0  0
  -20.8990  -28.7555   21.9324 C   0  0  0  0  0  0  0  0  0  0  0  0
  -18.1772  -28.1347   19.9694 C   0  0  0  0  0  0  0  0  0  0  0  0
  -27.6283  -30.7787   25.3174 C   0  0  0  0  0  0  0  0  0  0  0  0
  -23.9053  -29.7972   20.0641 C   0  0  0  0  0  0  0  0  0  0  0  0
  -22.1748  -27.4047   20.2255 C   0  0  0  0  0  0  0  0  0  0  0  0
  -26.1394  -30.4605   25.4270 C   0  0  0  0  0  0  0  0  0  0  0  0
  -31.6751  -17.4427   23.9801 C   0  0  0  0  0  0  0  0  0  0  0  0
  -25.8692  -29.0191   25.0071 C   0  0  0  0  0  0  0  0  0  0  0  0
  -31.0415  -16.2441   23.2752 C   0  0  0  0  0  0  0  0  0  0  0  0
  -30.6458  -18.5325   24.2629 C   0  0  0  0  0  0  0  0  0  0  0  0
  -29.2660  -17.7961   22.3458 C   0  0  0  0  0  0  0  0  0  0  0  0
  -26.2650  -28.7873   23.5438 C   0  0  1  0  0  0  0  0  0  0  0  0
  -23.2140  -29.3922   21.3623 C   0  0  1  0  0  0  0  0  0  0  0  0
  -30.2777  -16.6849   22.0140 C   0  0  2  0  0  0  0  0  0  0  0  0
  -15.6735  -28.3037   19.9628 C   0  0  0  0  0  0  0  0  0  0  0  0
  -24.8649  -23.1958   14.6451 C   0  0  0  0  0  0  0  0  0  0  0  0
  -20.7313  -26.3060   23.7440 C   0  0  0  0  0  0  0  0  0  0  0  0
  -18.3843  -25.9612   22.9437 C   0  0  0  0  0  0  0  0  0  0  0  0
  -18.9864  -28.0446   24.1762 C   0  0  0  0  0  0  0  0  0  0  0  0
  -18.1922  -29.9837   17.6585 C   0  0  0  0  0  0  0  0  0  0  0  0
  -29.1580  -22.0565   21.0796 C   0  0  0  0  0  0  0  0  0  0  0  0
  -29.1239  -20.5535   21.3847 C   0  0  0  0  0  0  0  0  0  0  0  0
  -24.2608  -24.2139   16.8670 C   0  0  0  0  0  0  0  0  0  1  0  0
  -19.7987  -27.7300   21.8028 C   0  0  1  0  0  0  0  0  0  0  0  0
  -16.9803  -28.9948   19.6058 C   0  0  2  0  0  0  0  0  0  0  0  0
  -25.1176  -23.1749   16.1469 C   0  0  2  0  0  0  0  0  0  0  0  0
  -19.4968  -27.0115   23.1482 C   0  0  0  0  0  0  0  0  0  0  0  0
  -29.1838  -23.0546   18.8818 N   0  0  0  0  0  0  0  0  0  0  0  0
  -27.1440  -22.1072   19.7470 N   0  0  0  0  0  0  0  0  0  0  0  0
  -28.3480  -15.1990   21.6245 N   0  0  0  0  0  0  0  0  0  0  0  0
  -29.6187  -15.5094   21.3160 N   0  0  0  0  0  0  0  0  0  0  0  0
  -22.0358  -28.5524   21.1371 N   0  0  0  0  0  0  0  0  0  0  0  0
  -29.9263  -18.9076   23.0444 N   0  0  0  0  0  0  0  0  0  0  0  0
  -31.4424  -14.8636   19.9493 N   0  0  0  0  0  0  0  0  0  0  0  0
  -28.2264  -11.8812   18.8729 N   0  0  0  0  0  0  0  0  0  0  0  0
  -26.5197  -23.4502   16.3892 N   0  0  0  0  0  0  0  0  0  0  0  0
  -25.2585  -29.3290   22.6561 N   0  0  0  0  0  0  0  0  0  0  0  0
  -18.6543  -28.4296   21.2290 N   0  0  0  0  0  0  0  0  0  0  0  0
  -16.9751  -29.2837   18.1438 N   0  3  0  0  0  0  0  0  0  0  0  0
  -30.3909  -12.5159   18.4597 O   0  0  0  0  0  0  0  0  0  0  0  0
  -23.8103  -27.5055   22.6508 O   0  0  0  0  0  0  0  0  0  0  0  0
  -30.4163  -21.1676   23.2728 O   0  0  0  0  0  0  0  0  0  0  0  0
  -20.7522  -29.7056   22.7052 O   0  0  0  0  0  0  0  0  0  0  0  0
  -18.6402  -27.2837   19.2131 O   0  0  0  0  0  0  0  0  0  0  0  0
  -23.0833  -11.6710   21.0037 O   0  0  0  0  0  0  0  0  0  0  0  0
  -24.5889  -25.5245   16.4078 O   0  0  0  0  0  0  0  0  0  1  0  0
  -22.9479   -6.1618   21.1881 F   0  0  0  0  0  0  0  0  0  0  0  0
  -24.2018  -10.1562   18.9796 F   0  0  0  0  0  0  0  0  0  0  0  0
  1  2  1  0  0  0  0
  1  5  2  0  0  0  0
  2  6  2  0  0  0  0
  3  8  2  0  0  0  0
  3 17  1  0  0  0  0
  4  9  1  0  0  0  0
  4 17  2  0  0  0  0
  5 19  1  0  0  0  0
  6 21  1  0  0  0  0
  7 10  2  0  0  0  0
  7 20  1  0  0  0  0
  8 24  1  0  0  0  0
  9 24  2  0  0  0  0
 10 25  1  0  0  0  0
 11 12  2  0  0  0  0
 11 26  1  0  0  0  0
 12 27  1  0  0  0  0
 13 22  1  0  0  0  0
 13 25  2  0  0  0  0
 14 27  2  0  0  0  0
 14 28  1  0  0  0  0
 15 23  1  0  0  0  0
 15 62  2  0  0  0  0
 16 23  2  0  0  0  0
 16 63  1  0  0  0  0
 17 29  1  0  0  0  0
 18 29  1  0  0  0  0
 18 30  2  0  0  0  0
 18 32  1  0  0  0  0
 19 21  2  0  0  0  0
 19 37  1  0  0  0  0
 20 22  2  0  0  0  0
 20 38  1  0  0  0  0
 21 46  1  0  0  0  0
 22 39  1  0  0  0  0
 23 70  1  0  0  0  0
 24 79  1  0  0  0  0
 25 80  1  0  0  0  0
 26 28  2  0  0  0  0
 26 79  1  0  0  0  0
 27 81  1  0  0  0  0
 28 82  1  0  0  0  0
 29 64  2  0  0  0  0
 30 65  1  0  0  0  0
 30 68  1  0  0  0  0
 31 55  1  0  0  0  0
 31 62  1  0  0  0  0
 31 63  2  0  0  0  0
 32 69  1  0  0  0  0
 32 74  2  0  0  0  0
 33 47  1  0  0  0  0
 33 71  1  0  0  0  0
 33 75  2  0  0  0  0
 34 56  1  0  0  0  0
 34 67  1  0  0  0  0
 34 76  2  0  0  0  0
 35 58  1  0  0  0  0
 35 66  1  0  0  0  0
 35 77  2  0  0  0  0
 36 59  1  0  0  0  0
 36 72  1  0  0  0  0
 36 78  2  0  0  0  0
 37 40  1  0  0  0  0
 38 47  1  0  0  0  0
 39 66  1  0  0  0  0
 40 42  1  0  0  0  0
 41 43  1  0  0  0  0
 41 44  1  0  0  0  0
 42 46  1  0  0  0  0
 43 48  1  0  0  0  0
 44 67  1  0  0  0  0
 45 48  1  0  0  0  0
 45 67  1  0  0  0  0
 46 71  1  0  0  0  0
 47 66  1  0  0  0  0
 48 65  1  0  0  0  0
 49 59  1  0  0  0  0
 50 60  1  0  0  0  0
 51 61  1  0  0  0  0
 52 61  1  0  0  0  0
 53 61  1  0  0  0  0
 54 73  1  0  0  0  0
 55 56  1  0  0  0  0
 57 60  1  0  0  0  0
 57 80  1  0  0  0  0
 58 61  1  0  0  0  0
 58 72  1  0  0  0  0
 59 73  1  0  0  0  0
 60 70  1  0  0  0  0
 64 65  1  0  0  0  0
M  CHG  1  73   1
M  ISO  4  34 100  56 100  57 101  80 101
M  END
> <Batch ID>
0198

> <Smiles>
CNC(C)C(=O)NC(C(=O)N1Cc2cc([101O:1][101CH2:1]C(C)Nc3cnc(C[100CH2:0][100C:0](=O)N4CCCC(n5nc(-c6ccc(Oc7ccc(F)cc7F)cc6)c(C(N)=O)c5N)C4)nc3)ccc2CC1C(=O)NC1CCCc2ccccc21)C(C)(C)C

> <Shape>
0.281

> <Color>
0.068

> <Negative vol penalty>
0.000

$$$$

  -OEChem-04052305443D

 84 92  0     1  0  0  0  0  0999 V2000
  -27.8563  -34.4771   24.7659 C   0  0  0  0  0  0  0  0  0  0  0  0
  -28.1116  -33.1111   24.7004 C   0  0  0  0  0  0  0  0  0  0  0  0
  -24.6049   -8.7237   20.8476 C   0  0  0  0  0  0  0  0  0  0  0  0
  -22.7853  -10.2916   20.5875 C   0  0  0  0  0  0  0  0  0  0  0  0
  -26.5901  -34.9646   24.4447 C   0  0  0  0  0  0  0  0  0  0  0  0
  -27.1006  -32.2316   24.3147 C   0  0  0  0  0  0  0  0  0  0  0  0
  -28.7028  -28.7702   20.9835 C   0  0  0  0  0  0  0  0  0  0  0  0
  -23.6917   -7.7143   21.1521 C   0  0  0  0  0  0  0  0  0  0  0  0
  -21.8720   -9.2822   20.8919 C   0  0  0  0  0  0  0  0  0  0  0  0
  -29.4363  -27.6958   21.4848 C   0  0  0  0  0  0  0  0  0  0  0  0
  -21.8675   -6.7284   23.8213 C   0  0  0  0  0  0  0  0  0  0  0  0
  -22.1568   -5.8989   24.9047 C   0  0  0  0  0  0  0  0  0  0  0  0
  -27.4585  -26.3168   21.4063 C   0  0  0  0  0  0  0  0  0  0  0  0
  -22.1517   -3.9800   23.4367 C   0  0  0  0  0  0  0  0  0  0  0  0
  -27.2901  -18.7708   18.3652 C   0  0  0  0  0  0  0  0  0  0  0  0
  -24.1518  -10.0124   20.5654 C   0  0  0  0  0  0  0  0  0  0  0  0
  -25.5800  -11.4078   18.9777 C   0  0  0  0  0  0  0  0  0  0  0  0
  -25.5658  -34.0916   24.0456 C   0  0  0  0  0  0  0  0  0  0  0  0
  -27.3368  -28.6289   20.6996 C   0  0  0  0  0  0  0  0  0  0  0  0
  -25.8192  -32.7078   23.9892 C   0  0  0  0  0  0  0  0  0  0  0  0
  -26.7105  -27.3903   20.8991 C   0  0  0  0  0  0  0  0  0  0  0  0
  -22.3252   -7.9936   21.1742 C   0  0  0  0  0  0  0  0  0  0  0  0
  -28.8135  -26.4697   21.6990 C   0  0  0  0  0  0  0  0  0  0  0  0
  -21.7202   -6.1838   22.5456 C   0  0  0  0  0  0  0  0  0  0  0  0
  -22.2989   -4.5247   24.7124 C   0  0  0  0  0  0  0  0  0  0  0  0
  -21.8623   -4.8096   22.3533 C   0  0  0  0  0  0  0  0  0  0  0  0
  -25.0947  -11.0556   20.2514 C   0  0  0  0  0  0  0  0  0  0  0  0
  -27.7188  -18.6804   19.6711 C   0  0  0  0  0  0  0  0  0  0  0  0
  -28.7388  -20.7181   19.4772 C   0  0  0  0  0  0  0  0  0  0  0  0
  -28.3106  -20.8080   18.1711 C   0  0  0  0  0  0  0  0  0  0  0  0
  -26.4428  -12.4497   19.2150 C   0  0  0  0  0  0  0  0  0  0  0  0
  -25.2778  -10.8435   17.6948 C   0  0  0  0  0  0  0  0  0  0  0  0
  -24.6693  -29.9743   21.7849 C   0  0  0  0  0  0  0  0  0  0  0  0
  -23.2939  -28.2469   19.4086 C   0  0  0  0  0  0  0  0  0  0  0  0
  -23.4508  -25.5497   17.3235 C   0  0  0  0  0  0  0  0  0  0  0  0
  -27.7081  -17.2469   21.7427 C   0  0  0  0  0  0  0  0  0  0  0  0
  -24.1998  -34.6605   23.7538 C   0  0  0  0  0  0  0  0  0  0  0  0
  -26.5659  -29.7901   20.1342 C   0  0  0  0  0  0  0  0  0  0  0  0
  -25.2511  -27.1809   20.5911 C   0  0  0  0  0  0  0  0  0  0  0  0
  -23.2897  -33.6998   22.9929 C   0  0  0  0  0  0  0  0  0  0  0  0
  -28.3224  -14.2462   23.5580 C   0  0  0  0  0  0  0  0  0  0  0  0
  -23.3394  -32.3093   23.6182 C   0  0  0  0  0  0  0  0  0  0  0  0
  -27.5773  -13.1776   22.7548 C   0  0  0  0  0  0  0  0  0  0  0  0
  -27.5662  -15.5735   23.5742 C   0  0  0  0  0  0  0  0  0  0  0  0
  -26.4489  -15.0235   21.4485 C   0  0  0  0  0  0  0  0  0  0  0  0
  -24.7554  -31.7246   23.5513 C   0  0  1  0  0  0  0  0  0  0  0  0
  -25.0621  -29.6781   20.3652 C   0  0  1  0  0  0  0  0  0  0  0  0
  -27.2035  -13.6877   21.3492 C   0  0  2  0  0  0  0  0  0  0  0  0
  -22.1609  -24.3782   15.5177 C   0  0  0  0  0  0  0  0  0  0  0  0
  -31.2169  -20.8596   21.4490 C   0  0  0  0  0  0  0  0  0  0  0  0
  -21.4012  -27.0991   21.5086 C   0  0  0  0  0  0  0  0  0  0  0  0
  -20.8052  -25.2912   19.8823 C   0  0  0  0  0  0  0  0  0  0  0  0
  -20.3167  -27.6742   19.3297 C   0  0  0  0  0  0  0  0  0  0  0  0
  -25.6167  -25.9609   15.3491 C   0  0  0  0  0  0  0  0  0  0  0  0
  -28.1218  -21.8917   16.0626 C   0  0  0  0  0  0  0  0  0  0  0  0
  -30.3251  -23.1893   21.7988 C   0  0  0  0  0  0  0  0  0  0  0  0
  -29.1105  -24.1121   21.7968 C   0  0  0  0  0  0  0  0  0  1  0  0
  -22.7098  -26.8595   19.2959 C   0  0  1  0  0  0  0  0  0  0  0  0
  -23.2261  -25.4183   15.8280 C   0  0  2  0  0  0  0  0  0  0  0  0
  -29.9863  -21.7577   21.3716 C   0  0  1  0  0  0  0  0  0  0  0  0
  -21.3353  -26.7351   20.0118 C   0  0  0  0  0  0  0  0  0  0  0  0
  -27.5783  -19.8362   17.5917 N   0  0  0  0  0  0  0  0  0  0  0  0
  -25.6068  -11.8124   21.2256 N   0  0  0  0  0  0  0  0  0  0  0  0
  -28.4509  -19.6525   20.2506 N   0  0  0  0  0  0  0  0  0  0  0  0
  -26.4229  -12.6503   20.5639 N   0  0  0  0  0  0  0  0  0  0  0  0
  -24.5387  -28.3483   20.0460 N   0  0  0  0  0  0  0  0  0  0  0  0
  -27.2496  -15.9964   22.2083 N   0  0  0  0  0  0  0  0  0  0  0  0
  -27.2090  -13.2047   18.3994 N   0  0  0  0  0  0  0  0  0  0  0  0
  -24.3697   -9.7778   17.6307 N   0  0  0  0  0  0  0  0  0  0  0  0
  -27.3739  -17.5268   20.4181 N   0  0  0  0  0  0  0  0  0  0  0  0
  -29.4871  -21.7512   20.0123 N   0  0  0  0  0  0  0  0  0  0  0  0
  -25.0369  -31.2335   22.2193 N   0  0  0  0  0  0  0  0  0  0  0  0
  -22.6719  -26.5470   17.8713 N   0  0  0  0  0  0  0  0  0  0  0  0
  -24.4893  -25.0147   15.1479 N   0  3  0  0  0  0  0  0  0  0  0  0
  -25.8101  -11.2608   16.6384 O   0  0  0  0  0  0  0  0  0  0  0  0
  -24.0753  -29.1239   22.4375 O   0  0  0  0  0  0  0  0  0  0  0  0
  -22.6722  -29.2046   18.9418 O   0  0  0  0  0  0  0  0  0  0  0  0
  -24.2358  -24.8364   17.9444 O   0  0  0  0  0  0  0  0  0  0  0  0
  -28.3732  -18.0013   22.4572 O   0  0  0  0  0  0  0  0  0  0  0  0
  -21.4337   -7.0088   21.4709 O   0  0  0  0  0  0  0  0  0  0  0  0
  -29.5269  -25.4195   22.1889 O   0  0  0  0  0  0  0  0  0  1  0  0
  -28.6117  -21.8959   17.3997 O   0  0  0  0  0  0  0  0  0  0  0  0
  -22.5783   -3.7284   25.7526 F   0  0  0  0  0  0  0  0  0  0  0  0
  -21.7231   -4.2807   21.1299 F   0  0  0  0  0  0  0  0  0  0  0  0
  1  2  1  0  0  0  0
  1  5  2  0  0  0  0
  2  6  2  0  0  0  0
  3  8  2  0  0  0  0
  3 16  1  0  0  0  0
  4  9  1  0  0  0  0
  4 16  2  0  0  0  0
  5 18  1  0  0  0  0
  6 20  1  0  0  0  0
  7 10  2  0  0  0  0
  7 19  1  0  0  0  0
  8 22  1  0  0  0  0
  9 22  2  0  0  0  0
 10 23  1  0  0  0  0
 11 12  2  0  0  0  0
 11 24  1  0  0  0  0
 12 25  1  0  0  0  0
 13 21  1  0  0  0  0
 13 23  2  0  0  0  0
 14 25  2  0  0  0  0
 14 26  1  0  0  0  0
 15 28  1  0  0  0  0
 15 62  2  0  0  0  0
 16 27  1  0  0  0  0
 17 27  1  0  0  0  0
 17 31  2  0  0  0  0
 17 32  1  0  0  0  0
 18 20  2  0  0  0  0
 18 37  1  0  0  0  0
 19 21  2  0  0  0  0
 19 38  1  0  0  0  0
 20 46  1  0  0  0  0
 21 39  1  0  0  0  0
 22 80  1  0  0  0  0
 23 81  1  0  0  0  0
 24 26  2  0  0  0  0
 24 80  1  0  0  0  0
 25 83  1  0  0  0  0
 26 84  1  0  0  0  0
 27 63  2  0  0  0  0
 28 64  2  0  0  0  0
 28 70  1  0  0  0  0
 29 30  2  0  0  0  0
 29 64  1  0  0  0  0
 29 71  1  0  0  0  0
 30 62  1  0  0  0  0
 30 82  1  0  0  0  0
 31 65  1  0  0  0  0
 31 68  1  0  0  0  0
 32 69  1  0  0  0  0
 32 75  2  0  0  0  0
 33 47  1  0  0  0  0
 33 72  1  0  0  0  0
 33 76  2  0  0  0  0
 34 58  1  0  0  0  0
 34 66  1  0  0  0  0
 34 77  2  0  0  0  0
 35 59  1  0  0  0  0
 35 73  1  0  0  0  0
 35 78  2  0  0  0  0
 36 67  1  0  0  0  0
 36 70  1  0  0  0  0
 36 79  2  0  0  0  0
 37 40  1  0  0  0  0
 38 47  1  0  0  0  0
 39 66  1  0  0  0  0
 40 42  1  0  0  0  0
 41 43  1  0  0  0  0
 41 44  1  0  0  0  0
 42 46  1  0  0  0  0
 43 48  1  0  0  0  0
 44 67  1  0  0  0  0
 45 48  1  0  0  0  0
 45 67  1  0  0  0  0
 46 72  1  0  0  0  0
 47 66  1  0  0  0  0
 48 65  1  0  0  0  0
 49 59  1  0  0  0  0
 50 60  1  0  0  0  0
 51 61  1  0  0  0  0
 52 61  1  0  0  0  0
 53 61  1  0  0  0  0
 54 74  1  0  0  0  0
 55 82  1  0  0  0  0
 56 57  1  0  0  0  0
 56 60  1  0  0  0  0
 57 81  1  0  0  0  0
 58 61  1  0  0  0  0
 58 73  1  0  0  0  0
 59 74  1  0  0  0  0
 60 71  1  0  0  0  0
 63 65  1  0  0  0  0
M  CHG  1  74   1
M  ISO  4  36 100  57 101  70 100  81 101
M  END
> <Batch ID>
0198

> <Smiles>
CNC(C)C(=O)NC(C(=O)N1Cc2cc([101O:1][101CH2:1]CC(C)Nc3nc([100NH:0][100C:0](=O)N4CCCC(n5nc(-c6ccc(Oc7ccc(F)cc7F)cc6)c(C(N)=O)c5N)C4)cnc3OC)ccc2CC1C(=O)NC1CCCc2ccccc21)C(C)(C)C

> <Shape>
0.294

> <Color>
0.092

> <Negative vol penalty>
0.000

$$$$
