
  -OEChem-04052305473D

 85 93  0     1  0  0  0  0  0999 V2000
  -25.2802  -17.5213   14.0163 C   0  0  0  0  0  0  0  0  0  0  0  0
  -26.2923  -17.3208   14.9495 C   0  0  0  0  0  0  0  0  0  0  0  0
  -23.7676  -30.2896   21.0121 C   0  0  0  0  0  0  0  0  0  0  0  0
  -25.2017  -29.7172   22.8702 C   0  0  0  0  0  0  0  0  0  0  0  0
  -23.9483  -17.3321   14.3825 C   0  0  0  0  0  0  0  0  0  0  0  0
  -25.9728  -16.9321   16.2500 C   0  0  0  0  0  0  0  0  0  0  0  0
  -28.9564  -13.2119   17.9539 C   0  0  0  0  0  0  0  0  0  0  0  0
  -23.3627  -31.4450   21.6805 C   0  0  0  0  0  0  0  0  0  0  0  0
  -24.7969  -30.8727   23.5386 C   0  0  0  0  0  0  0  0  0  0  0  0
  -30.2351  -13.5666   18.3817 C   0  0  0  0  0  0  0  0  0  0  0  0
  -22.2253  -34.7302   22.7431 C   0  0  0  0  0  0  0  0  0  0  0  0
  -22.1727  -35.9172   22.0126 C   0  0  0  0  0  0  0  0  0  0  0  0
  -29.4788  -13.5072   20.6716 C   0  0  0  0  0  0  0  0  0  0  0  0
  -24.5342  -35.7297   21.5378 C   0  0  0  0  0  0  0  0  0  0  0  0
  -29.2813  -21.1705   20.1432 C   0  0  0  0  0  0  0  0  0  0  0  0
  -24.6870  -29.4257   21.6070 C   0  0  0  0  0  0  0  0  0  0  0  0
  -26.1941  -28.0966   20.0354 C   0  0  0  0  0  0  0  0  0  0  0  0
  -23.6130  -16.9315   15.6854 C   0  0  0  0  0  0  0  0  0  0  0  0
  -27.9249  -13.0125   18.8826 C   0  0  0  0  0  0  0  0  0  0  0  0
  -24.6351  -16.7386   16.6344 C   0  0  0  0  0  0  0  0  0  0  0  0
  -28.1886  -13.1476   20.2531 C   0  0  0  0  0  0  0  0  0  0  0  0
  -23.8774  -31.7366   22.9437 C   0  0  0  0  0  0  0  0  0  0  0  0
  -30.4957  -13.7171   19.7405 C   0  0  0  0  0  0  0  0  0  0  0  0
  -23.4324  -34.0429   22.8711 C   0  0  0  0  0  0  0  0  0  0  0  0
  -23.3271  -36.4170   21.4099 C   0  0  0  0  0  0  0  0  0  0  0  0
  -24.5868  -34.5426   22.2684 C   0  0  0  0  0  0  0  0  0  0  0  0
  -25.1052  -28.2317   20.9173 C   0  0  0  0  0  0  0  0  0  0  0  0
  -29.9900  -19.0443   19.6887 C   0  0  0  0  0  0  0  0  0  0  0  0
  -28.7046  -18.5793   19.8595 C   0  0  0  0  0  0  0  0  0  0  0  0
  -27.9958  -20.7057   20.3132 C   0  0  0  0  0  0  0  0  0  0  0  0
  -26.1647  -26.7777   19.6530 C   0  0  0  0  0  0  0  0  0  0  0  0
  -27.1472  -29.0756   19.6009 C   0  0  0  0  0  0  0  0  0  0  0  0
  -31.1222  -18.1614   19.3435 C   0  0  0  0  0  0  0  0  0  0  0  0
  -25.1178  -14.3924   19.4478 C   0  0  0  0  0  0  0  0  0  0  0  0
  -24.8017  -11.9775   21.5904 C   0  0  0  0  0  0  0  0  0  0  0  0
  -26.3139   -9.6621   23.5900 C   0  0  0  0  0  0  0  0  0  0  0  0
  -25.6267  -21.3680   20.8566 C   0  0  0  0  0  0  0  0  0  0  0  0
  -22.1562  -16.7854   16.0477 C   0  0  0  0  0  0  0  0  0  0  0  0
  -26.5578  -12.6041   18.4066 C   0  0  0  0  0  0  0  0  0  0  0  0
  -27.1208  -12.9249   21.2918 C   0  0  0  0  0  0  0  0  0  0  0  0
  -21.9253  -16.0098   17.3420 C   0  0  0  0  0  0  0  0  0  0  0  0
  -22.6297  -23.2232   20.3535 C   0  0  0  0  0  0  0  0  0  0  0  0
  -22.8626  -16.5080   18.4375 C   0  0  0  0  0  0  0  0  0  0  0  0
  -23.0961  -24.6805   20.3828 C   0  0  0  0  0  0  0  0  0  0  0  0
  -23.4024  -22.3602   21.3495 C   0  0  0  0  0  0  0  0  0  0  0  0
  -25.3307  -23.8909   21.2604 C   0  0  0  0  0  0  0  0  0  0  0  0
  -24.3301  -16.2927   18.0480 C   0  0  1  0  0  0  0  0  0  0  0  0
  -25.4544  -12.9286   19.4089 C   0  0  1  0  0  0  0  0  0  0  0  0
  -24.6260  -24.7857   20.2278 C   0  0  2  0  0  0  0  0  0  0  0  0
  -28.3764  -17.1338   19.7030 C   0  0  0  0  0  0  0  0  0  0  0  0
  -25.7949   -7.8561   25.2533 C   0  0  0  0  0  0  0  0  0  0  0  0
  -34.2148  -17.5834   20.0264 C   0  0  0  0  0  0  0  0  0  0  0  0
  -24.2088  -14.0973   23.7034 C   0  0  0  0  0  0  0  0  0  0  0  0
  -24.6406  -12.3668   25.4604 C   0  0  0  0  0  0  0  0  0  0  0  0
  -22.7694  -12.0568   23.8402 C   0  0  0  0  0  0  0  0  0  0  0  0
  -27.5775   -7.5846   21.9030 C   0  0  0  0  0  0  0  0  0  0  0  0
  -33.0538  -15.7302   21.2853 C   0  0  0  0  0  0  0  0  0  0  0  0
  -31.8346  -14.8189   21.3682 C   0  0  0  0  0  0  0  0  0  1  0  0
  -25.1543  -11.7866   23.0458 C   0  0  1  0  0  0  0  0  0  0  0  0
  -26.0533   -8.1800   23.7901 C   0  0  2  0  0  0  0  0  0  0  0  0
  -32.9675  -16.7184   20.1241 C   0  0  1  0  0  0  0  0  0  0  0  0
  -24.2131  -12.5830   23.9930 C   0  0  0  0  0  0  0  0  0  0  0  0
  -30.3015  -20.3481   19.8278 N   0  0  0  0  0  0  0  0  0  0  0  0
  -24.4328  -27.0898   21.0851 N   0  0  0  0  0  0  0  0  0  0  0  0
  -27.6844  -19.4018   20.1745 N   0  0  0  0  0  0  0  0  0  0  0  0
  -25.1010  -26.2247   20.3034 N   0  0  0  0  0  0  0  0  0  0  0  0
  -25.7987  -12.5332   20.7761 N   0  0  0  0  0  0  0  0  0  0  0  0
  -24.8444  -22.5075   21.1400 N   0  0  0  0  0  0  0  0  0  0  0  0
  -26.9450  -26.0488   18.8271 N   0  0  0  0  0  0  0  0  0  0  0  0
  -27.0324  -30.3835   20.0914 N   0  0  0  0  0  0  0  0  0  0  0  0
  -31.3896  -17.9581   18.0535 N   0  0  0  0  0  0  0  0  0  0  0  0
  -26.9788  -21.6352   20.6442 N   0  0  0  0  0  0  0  0  0  0  0  0
  -24.7042  -14.9071   18.2339 N   0  0  0  0  0  0  0  0  0  0  0  0
  -25.1579  -10.3465   23.2794 N   0  0  0  0  0  0  0  0  0  0  0  0
  -31.8208  -17.6084   20.3403 N   0  3  0  0  0  0  0  0  0  0  0  0
  -27.2253   -7.3816   23.3319 N   0  3  0  0  0  0  0  0  0  0  0  0
  -28.0633  -28.8028   18.7886 O   0  0  0  0  0  0  0  0  0  0  0  0
  -25.2238  -15.0090   20.5015 O   0  0  0  0  0  0  0  0  0  0  0  0
  -23.6853  -11.6393   21.1892 O   0  0  0  0  0  0  0  0  0  0  0  0
  -27.4305  -10.1632   23.7021 O   0  0  0  0  0  0  0  0  0  0  0  0
  -25.1289  -20.2419   20.7792 O   0  0  0  0  0  0  0  0  0  0  0  0
  -23.4828  -32.8641   23.5961 O   0  0  0  0  0  0  0  0  0  0  0  0
  -31.7427  -14.0639   20.1608 O   0  0  0  0  0  0  0  0  0  1  0  0
  -23.2761  -37.5561   20.7071 F   0  0  0  0  0  0  0  0  0  0  0  0
  -25.7490  -33.8861   22.3869 F   0  0  0  0  0  0  0  0  0  0  0  0
  1  2  1  0  0  0  0
  1  5  2  0  0  0  0
  2  6  2  0  0  0  0
  3  8  2  0  0  0  0
  3 16  1  0  0  0  0
  4  9  1  0  0  0  0
  4 16  2  0  0  0  0
  5 18  1  0  0  0  0
  6 20  1  0  0  0  0
  7 10  2  0  0  0  0
  7 19  1  0  0  0  0
  8 22  1  0  0  0  0
  9 22  2  0  0  0  0
 10 23  1  0  0  0  0
 11 12  2  0  0  0  0
 11 24  1  0  0  0  0
 12 25  1  0  0  0  0
 13 21  1  0  0  0  0
 13 23  2  0  0  0  0
 14 25  2  0  0  0  0
 14 26  1  0  0  0  0
 15 30  1  0  0  0  0
 15 63  2  0  0  0  0
 16 27  1  0  0  0  0
 17 27  1  0  0  0  0
 17 31  2  0  0  0  0
 17 32  1  0  0  0  0
 18 20  2  0  0  0  0
 18 38  1  0  0  0  0
 19 21  2  0  0  0  0
 19 39  1  0  0  0  0
 20 47  1  0  0  0  0
 21 40  1  0  0  0  0
 22 82  1  0  0  0  0
 23 83  1  0  0  0  0
 24 26  2  0  0  0  0
 24 82  1  0  0  0  0
 25 84  1  0  0  0  0
 26 85  1  0  0  0  0
 27 64  2  0  0  0  0
 28 29  2  0  0  0  0
 28 33  1  0  0  0  0
 28 63  1  0  0  0  0
 29 50  1  0  0  0  0
 29 65  1  0  0  0  0
 30 65  2  0  0  0  0
 30 72  1  0  0  0  0
 31 66  1  0  0  0  0
 31 69  1  0  0  0  0
 32 70  1  0  0  0  0
 32 77  2  0  0  0  0
 33 71  1  0  0  0  0
 33 75  2  0  0  0  0
 34 48  1  0  0  0  0
 34 73  1  0  0  0  0
 34 78  2  0  0  0  0
 35 59  1  0  0  0  0
 35 67  1  0  0  0  0
 35 79  2  0  0  0  0
 36 60  1  0  0  0  0
 36 74  1  0  0  0  0
 36 80  2  0  0  0  0
 37 68  1  0  0  0  0
 37 72  1  0  0  0  0
 37 81  2  0  0  0  0
 38 41  1  0  0  0  0
 39 48  1  0  0  0  0
 40 67  1  0  0  0  0
 41 43  1  0  0  0  0
 42 44  1  0  0  0  0
 42 45  1  0  0  0  0
 43 47  1  0  0  0  0
 44 49  1  0  0  0  0
 45 68  1  0  0  0  0
 46 49  1  0  0  0  0
 46 68  1  0  0  0  0
 47 73  1  0  0  0  0
 48 67  1  0  0  0  0
 49 66  1  0  0  0  0
 51 60  1  0  0  0  0
 52 61  1  0  0  0  0
 53 62  1  0  0  0  0
 54 62  1  0  0  0  0
 55 62  1  0  0  0  0
 56 76  1  0  0  0  0
 57 58  1  0  0  0  0
 57 61  1  0  0  0  0
 58 83  1  0  0  0  0
 59 62  1  0  0  0  0
 59 74  1  0  0  0  0
 60 76  1  0  0  0  0
 61 75  1  0  0  0  0
 64 66  1  0  0  0  0
M  CHG  2  75   1  76   1
M  ISO  4  37 100  58 101  72 100  83 101
M  END
> <Batch ID>
0199

> <Smiles>
CNC(C)C(=O)NC(C(=O)N1Cc2cc([101O:1][101CH2:1]CC(C)NC(=N)c3ncc([100NH:0][100C:0](=O)N4CCCC(n5nc(-c6ccc(Oc7ccc(F)cc7F)cc6)c(C(N)=O)c5N)C4)nc3C)ccc2CC1C(=O)NC1CCCc2ccccc21)C(C)(C)C

> <Shape>
0.213

> <Color>
0.066

> <Negative vol penalty>
0.000

$$$$

  -OEChem-04052305473D

 83 91  0     1  0  0  0  0  0999 V2000
  -26.5151  -32.1077   14.7755 C   0  0  0  0  0  0  0  0  0  0  0  0
  -27.3625  -31.2887   15.5147 C   0  0  0  0  0  0  0  0  0  0  0  0
  -23.0373   -9.9496   20.1716 C   0  0  0  0  0  0  0  0  0  0  0  0
  -23.8492  -10.0956   22.4424 C   0  0  0  0  0  0  0  0  0  0  0  0
  -25.4844  -32.7979   15.4120 C   0  0  0  0  0  0  0  0  0  0  0  0
  -27.1804  -31.1603   16.8912 C   0  0  0  0  0  0  0  0  0  0  0  0
  -27.4925  -26.3528   18.4519 C   0  0  0  0  0  0  0  0  0  0  0  0
  -22.2847   -8.8259   20.5129 C   0  0  0  0  0  0  0  0  0  0  0  0
  -23.0966   -8.9719   22.7837 C   0  0  0  0  0  0  0  0  0  0  0  0
  -28.7686  -25.8055   18.5770 C   0  0  0  0  0  0  0  0  0  0  0  0
  -19.8731   -8.2609   23.5078 C   0  0  0  0  0  0  0  0  0  0  0  0
  -19.1426   -8.3083   24.6950 C   0  0  0  0  0  0  0  0  0  0  0  0
  -28.6916  -26.1854   20.9579 C   0  0  0  0  0  0  0  0  0  0  0  0
  -20.3757   -6.4057   25.5297 C   0  0  0  0  0  0  0  0  0  0  0  0
  -32.3138  -18.6221   21.4239 C   0  0  0  0  0  0  0  0  0  0  0  0
  -29.8976  -17.8752   22.2793 C   0  0  0  0  0  0  0  0  0  0  0  0
  -23.8196  -10.5844   21.1363 C   0  0  0  0  0  0  0  0  0  0  0  0
  -24.1906  -13.0912   20.8434 C   0  0  0  0  0  0  0  0  0  0  0  0
  -25.2835  -32.6703   16.7955 C   0  0  0  0  0  0  0  0  0  0  0  0
  -26.8096  -26.8313   19.5794 C   0  0  0  0  0  0  0  0  0  0  0  0
  -26.1469  -31.8504   17.5471 C   0  0  0  0  0  0  0  0  0  0  0  0
  -27.4059  -26.7359   20.8448 C   0  0  0  0  0  0  0  0  0  0  0  0
  -22.3144   -8.3370   21.8189 C   0  0  0  0  0  0  0  0  0  0  0  0
  -29.3696  -25.7244   19.8297 C   0  0  0  0  0  0  0  0  0  0  0  0
  -20.8550   -7.2859   23.3314 C   0  0  0  0  0  0  0  0  0  0  0  0
  -19.3939   -7.3807   25.7060 C   0  0  0  0  0  0  0  0  0  0  0  0
  -21.1063   -6.3583   24.3424 C   0  0  0  0  0  0  0  0  0  0  0  0
  -24.5977  -11.7449   20.7842 C   0  0  0  0  0  0  0  0  0  0  0  0
  -31.5441  -19.4603   22.2002 C   0  0  0  0  0  0  0  0  0  0  0  0
  -30.6669  -17.0373   21.5024 C   0  0  0  0  0  0  0  0  0  0  0  0
  -25.2837  -13.7999   20.4079 C   0  0  0  0  0  0  0  0  0  0  0  0
  -22.9367  -13.6513   21.2553 C   0  0  0  0  0  0  0  0  0  0  0  0
  -25.6958  -29.6650   20.4921 C   0  0  0  0  0  0  0  0  0  0  0  0
  -24.4498  -27.9491   22.9468 C   0  0  0  0  0  0  0  0  0  0  0  0
  -31.4028  -22.5013   20.8633 C   0  0  0  0  0  0  0  0  0  0  0  0
  -24.6016  -25.1535   24.8982 C   0  0  0  0  0  0  0  0  0  0  0  0
  -30.7652  -14.7772   20.3941 C   0  0  0  0  0  0  0  0  0  0  0  0
  -24.1853  -33.4731   17.4467 C   0  0  0  0  0  0  0  0  0  0  0  0
  -25.4227  -27.3943   19.4313 C   0  0  0  0  0  0  0  0  0  0  0  0
  -26.7067  -27.2168   22.0892 C   0  0  0  0  0  0  0  0  0  0  0  0
  -23.8274  -32.9897   18.8498 C   0  0  0  0  0  0  0  0  0  0  0  0
  -29.5667  -12.2298   18.2142 C   0  0  0  0  0  0  0  0  0  0  0  0
  -25.0907  -32.7541   19.6716 C   0  0  0  0  0  0  0  0  0  0  0  0
  -28.1336  -11.9873   18.6934 C   0  0  0  0  0  0  0  0  0  0  0  0
  -30.5117  -12.5236   19.3780 C   0  0  0  0  0  0  0  0  0  0  0  0
  -28.6460  -13.3637   20.7501 C   0  0  0  0  0  0  0  0  0  0  0  0
  -25.9660  -31.6660   19.0382 C   0  0  1  0  0  0  0  0  0  0  0  0
  -25.0287  -28.3213   20.5770 C   0  0  1  0  0  0  0  0  0  0  0  0
  -27.6446  -13.1277   19.6077 C   0  0  2  0  0  0  0  0  0  0  0  0
  -23.4722  -24.0481   26.8476 C   0  0  0  0  0  0  0  0  0  0  0  0
  -25.8095  -29.9131   24.8452 C   0  0  0  0  0  0  0  0  0  0  0  0
  -25.4604  -28.2606   26.6933 C   0  0  0  0  0  0  0  0  0  0  0  0
  -23.4944  -29.2465   25.5163 C   0  0  0  0  0  0  0  0  0  0  0  0
  -23.8683  -22.7865   23.2800 C   0  0  0  0  0  0  0  0  0  0  0  0
  -32.0498  -20.8204   22.5855 C   0  0  0  0  0  0  0  0  0  0  0  0
  -31.9802  -23.2313   19.6607 C   0  0  0  0  0  0  0  0  0  0  0  0
  -30.9889  -24.1859   19.0132 C   0  0  0  0  0  0  0  0  0  1  0  0
  -24.9294  -27.5434   24.3195 C   0  0  1  0  0  0  0  0  0  0  0  0
  -23.5309  -24.1690   25.3328 C   0  0  2  0  0  0  0  0  0  0  0  0
  -24.9377  -28.7335   25.3200 C   0  0  0  0  0  0  0  0  0  0  0  0
  -30.3223  -19.1018   22.6421 N   0  0  0  0  0  0  0  0  0  0  0  0
  -31.8888  -17.3957   21.0609 N   0  0  0  0  0  0  0  0  0  0  0  0
  -25.8514  -11.6041   20.3456 N   0  0  0  0  0  0  0  0  0  0  0  0
  -26.2415  -12.8711   20.1251 N   0  0  0  0  0  0  0  0  0  0  0  0
  -25.3547  -27.7651   21.8917 N   0  0  0  0  0  0  0  0  0  0  0  0
  -29.9860  -13.6174   20.1978 N   0  0  0  0  0  0  0  0  0  0  0  0
  -25.5092  -15.1206   20.2431 N   0  0  0  0  0  0  0  0  0  0  0  0
  -21.9212  -12.7805   21.6735 N   0  0  0  0  0  0  0  0  0  0  0  0
  -30.1484  -15.7628   21.1640 N   0  0  0  0  0  0  0  0  0  0  0  0
  -25.4272  -30.3537   19.3246 N   0  0  0  0  0  0  0  0  0  0  0  0
  -32.3320  -21.6401   21.4291 N   0  0  0  0  0  0  0  0  0  0  0  0
  -24.0904  -26.4230   24.7305 N   0  0  0  0  0  0  0  0  0  0  0  0
  -23.8066  -22.8194   24.7639 N   0  3  0  0  0  0  0  0  0  0  0  0
  -22.7174  -14.8862   21.2369 O   0  0  0  0  0  0  0  0  0  0  0  0
  -26.4007  -30.0492   21.4180 O   0  0  0  0  0  0  0  0  0  0  0  0
  -23.3114  -28.4055   22.8144 O   0  0  0  0  0  0  0  0  0  0  0  0
  -30.2548  -22.6688   21.2656 O   0  0  0  0  0  0  0  0  0  0  0  0
  -25.7750  -24.8295   24.7285 O   0  0  0  0  0  0  0  0  0  0  0  0
  -31.8854  -14.8990   19.8918 O   0  0  0  0  0  0  0  0  0  0  0  0
  -21.5799   -7.2407   22.1524 O   0  0  0  0  0  0  0  0  0  0  0  0
  -30.6154  -25.1913   19.9545 O   0  0  0  0  0  0  0  0  0  1  0  0
  -18.6933   -7.4272   26.8467 F   0  0  0  0  0  0  0  0  0  0  0  0
  -22.0490   -5.4200   24.1792 F   0  0  0  0  0  0  0  0  0  0  0  0
  1  2  1  0  0  0  0
  1  5  2  0  0  0  0
  2  6  2  0  0  0  0
  3  8  2  0  0  0  0
  3 17  1  0  0  0  0
  4  9  1  0  0  0  0
  4 17  2  0  0  0  0
  5 19  1  0  0  0  0
  6 21  1  0  0  0  0
  7 10  2  0  0  0  0
  7 20  1  0  0  0  0
  8 23  1  0  0  0  0
  9 23  2  0  0  0  0
 10 24  1  0  0  0  0
 11 12  2  0  0  0  0
 11 25  1  0  0  0  0
 12 26  1  0  0  0  0
 13 22  1  0  0  0  0
 13 24  2  0  0  0  0
 14 26  2  0  0  0  0
 14 27  1  0  0  0  0
 15 29  1  0  0  0  0
 15 62  2  0  0  0  0
 16 30  2  0  0  0  0
 16 61  1  0  0  0  0
 17 28  1  0  0  0  0
 18 28  1  0  0  0  0
 18 31  2  0  0  0  0
 18 32  1  0  0  0  0
 19 21  2  0  0  0  0
 19 38  1  0  0  0  0
 20 22  2  0  0  0  0
 20 39  1  0  0  0  0
 21 47  1  0  0  0  0
 22 40  1  0  0  0  0
 23 80  1  0  0  0  0
 24 81  1  0  0  0  0
 25 27  2  0  0  0  0
 25 80  1  0  0  0  0
 26 82  1  0  0  0  0
 27 83  1  0  0  0  0
 28 63  2  0  0  0  0
 29 55  1  0  0  0  0
 29 61  2  0  0  0  0
 30 62  1  0  0  0  0
 30 69  1  0  0  0  0
 31 64  1  0  0  0  0
 31 67  1  0  0  0  0
 32 68  1  0  0  0  0
 32 74  2  0  0  0  0
 33 48  1  0  0  0  0
 33 70  1  0  0  0  0
 33 75  2  0  0  0  0
 34 58  1  0  0  0  0
 34 65  1  0  0  0  0
 34 76  2  0  0  0  0
 35 56  1  0  0  0  0
 35 71  1  0  0  0  0
 35 77  2  0  0  0  0
 36 59  1  0  0  0  0
 36 72  1  0  0  0  0
 36 78  2  0  0  0  0
 37 66  1  0  0  0  0
 37 69  1  0  0  0  0
 37 79  2  0  0  0  0
 38 41  1  0  0  0  0
 39 48  1  0  0  0  0
 40 65  1  0  0  0  0
 41 43  1  0  0  0  0
 42 44  1  0  0  0  0
 42 45  1  0  0  0  0
 43 47  1  0  0  0  0
 44 49  1  0  0  0  0
 45 66  1  0  0  0  0
 46 49  1  0  0  0  0
 46 66  1  0  0  0  0
 47 70  1  0  0  0  0
 48 65  1  0  0  0  0
 49 64  1  0  0  0  0
 50 59  1  0  0  0  0
 51 60  1  0  0  0  0
 52 60  1  0  0  0  0
 53 60  1  0  0  0  0
 54 73  1  0  0  0  0
 55 71  1  0  0  0  0
 56 57  1  0  0  0  0
 57 81  1  0  0  0  0
 58 60  1  0  0  0  0
 58 72  1  0  0  0  0
 59 73  1  0  0  0  0
 63 64  1  0  0  0  0
M  CHG  1  73   1
M  ISO  4  37 100  57 101  69 100  81 101
M  END
> <Batch ID>
0199

> <Smiles>
CNC(C)C(=O)NC(C(=O)N1Cc2cc([101O:1][101CH2:1]CC(=O)NCc3cnc([100NH:0][100C:0](=O)N4CCCC(n5nc(-c6ccc(Oc7ccc(F)cc7F)cc6)c(C(N)=O)c5N)C4)cn3)ccc2CC1C(=O)NC1CCCc2ccccc21)C(C)(C)C

> <Shape>
0.270

> <Color>
0.217

> <Negative vol penalty>
0.000

$$$$

  -OEChem-04052305473D

 82 90  0     1  0  0  0  0  0999 V2000
  -31.8166  -29.3815   20.4291 C   0  0  0  0  0  0  0  0  0  0  0  0
  -31.8145  -28.7339   21.6603 C   0  0  0  0  0  0  0  0  0  0  0  0
  -23.3251   -9.7753   19.9301 C   0  0  0  0  0  0  0  0  0  0  0  0
  -23.7766   -9.9563   22.2967 C   0  0  0  0  0  0  0  0  0  0  0  0
  -31.1335  -28.8247   19.3487 C   0  0  0  0  0  0  0  0  0  0  0  0
  -31.1284  -27.5295   21.8122 C   0  0  0  0  0  0  0  0  0  0  0  0
  -31.4551  -21.3307   25.3878 C   0  0  0  0  0  0  0  0  0  0  0  0
  -22.6380   -8.5819   20.1525 C   0  0  0  0  0  0  0  0  0  0  0  0
  -23.0895   -8.7629   22.5190 C   0  0  0  0  0  0  0  0  0  0  0  0
  -30.6715  -20.5148   26.2027 C   0  0  0  0  0  0  0  0  0  0  0  0
  -21.0734   -5.3008   20.0535 C   0  0  0  0  0  0  0  0  0  0  0  0
  -21.3310   -4.2326   19.1944 C   0  0  0  0  0  0  0  0  0  0  0  0
  -32.7737  -15.1376   25.7626 C   0  0  0  0  0  0  0  0  0  0  0  0
  -29.5925  -19.6066   24.2456 C   0  0  0  0  0  0  0  0  0  0  0  0
  -30.6404  -14.8122   24.6919 C   0  0  0  0  0  0  0  0  0  0  0  0
  -23.6560   -4.2655   19.8506 C   0  0  0  0  0  0  0  0  0  0  0  0
  -33.3824  -14.5644   24.6552 C   0  0  0  0  0  0  0  0  0  0  0  0
  -23.8945  -10.4624   21.0022 C   0  0  0  0  0  0  0  0  0  0  0  0
  -24.0704  -12.9973   20.7757 C   0  0  0  0  0  0  0  0  0  0  0  0
  -30.4467  -27.6079   19.4848 C   0  0  0  0  0  0  0  0  0  0  0  0
  -31.3054  -21.2986   23.9939 C   0  0  0  0  0  0  0  0  0  0  0  0
  -30.4344  -26.9565   20.7329 C   0  0  0  0  0  0  0  0  0  0  0  0
  -30.3772  -20.4213   23.4151 C   0  0  0  0  0  0  0  0  0  0  0  0
  -31.3877  -15.2608   25.7768 C   0  0  0  0  0  0  0  0  0  0  0  0
  -22.5202   -8.0758   21.4469 C   0  0  0  0  0  0  0  0  0  0  0  0
  -29.7381  -19.6547   25.6318 C   0  0  0  0  0  0  0  0  0  0  0  0
  -22.1071   -5.8515   20.8112 C   0  0  0  0  0  0  0  0  0  0  0  0
  -22.6223   -3.7149   19.0930 C   0  0  0  0  0  0  0  0  0  0  0  0
  -23.3983   -5.3338   20.7097 C   0  0  0  0  0  0  0  0  0  0  0  0
  -24.6049  -11.6949   20.7731 C   0  0  0  0  0  0  0  0  0  0  0  0
  -25.1452  -13.8099   20.5093 C   0  0  0  0  0  0  0  0  0  0  0  0
  -31.3032  -14.2474   23.6115 C   0  0  0  0  0  0  0  0  0  0  0  0
  -22.7230  -13.4334   20.9989 C   0  0  0  0  0  0  0  0  0  0  0  0
  -30.4491  -23.4132   21.7805 C   0  0  0  0  0  0  0  0  0  0  0  0
  -31.2571  -21.0229   19.7419 C   0  0  0  0  0  0  0  0  0  0  0  0
  -31.6944  -17.6775   19.2277 C   0  0  0  0  0  0  0  0  0  0  0  0
  -31.0310  -13.1969   21.3380 C   0  0  0  0  0  0  0  0  0  0  0  0
  -29.6833  -27.0689   18.3010 C   0  0  0  0  0  0  0  0  0  0  0  0
  -32.1770  -22.1656   23.1274 C   0  0  0  0  0  0  0  0  0  0  0  0
  -30.1921  -20.3342   21.9229 C   0  0  0  0  0  0  0  0  0  0  0  0
  -29.2932  -25.6001   18.4454 C   0  0  0  0  0  0  0  0  0  0  0  0
  -29.3681  -13.8140   18.2507 C   0  0  0  0  0  0  0  0  0  0  0  0
  -28.7007  -25.3384   19.8264 C   0  0  0  0  0  0  0  0  0  0  0  0
  -27.9082  -13.4649   18.5492 C   0  0  0  0  0  0  0  0  0  0  0  0
  -30.3344  -12.8777   18.9741 C   0  0  0  0  0  0  0  0  0  0  0  0
  -28.6602  -12.4133   20.7207 C   0  0  0  0  0  0  0  0  0  0  0  0
  -29.7224  -25.6358   20.9306 C   0  0  1  0  0  0  0  0  0  0  0  0
  -31.5795  -22.4239   21.7476 C   0  0  1  0  0  0  0  0  0  0  0  0
  -27.6502  -13.3697   20.0657 C   0  0  2  0  0  0  0  0  0  0  0  0
  -32.3219  -16.0236   17.4478 C   0  0  0  0  0  0  0  0  0  0  0  0
  -28.6890  -14.6524   27.3246 C   0  0  0  0  0  0  0  0  0  0  0  0
  -28.4918  -21.3262   18.4885 C   0  0  0  0  0  0  0  0  0  0  0  0
  -28.8135  -19.0913   17.4069 C   0  0  0  0  0  0  0  0  0  0  0  0
  -30.3478  -20.9774   16.8489 C   0  0  0  0  0  0  0  0  0  0  0  0
  -34.0516  -16.7497   20.7579 C   0  0  0  0  0  0  0  0  0  0  0  0
  -28.9830  -17.0576   28.0132 C   0  0  0  0  0  0  0  0  0  0  0  0
  -29.5404  -18.4336   27.6631 C   0  0  0  0  0  0  0  0  0  1  0  0
  -30.5256  -19.8627   19.1112 C   0  0  1  0  0  0  0  0  0  0  0  0
  -32.8270  -16.8967   18.5859 C   0  0  2  0  0  0  0  0  0  0  0  0
  -29.3187  -15.9940   26.9630 C   0  0  1  0  0  0  0  0  0  0  0  0
  -29.5466  -20.3172   17.9921 C   0  0  0  0  0  0  0  0  0  0  0  0
  -25.9171  -11.6765   20.5247 N   0  0  0  0  0  0  0  0  0  0  0  0
  -26.2162  -12.9774   20.3686 N   0  0  0  0  0  0  0  0  0  0  0  0
  -32.6389  -14.1409   23.6240 N   0  3  0  0  0  0  0  0  0  0  0  0
  -31.0634  -21.2065   21.1184 N   0  0  0  0  0  0  0  0  0  0  0  0
  -30.0324  -12.8413   20.4067 N   0  0  0  0  0  0  0  0  0  0  0  0
  -25.2690  -15.1484   20.3841 N   0  0  0  0  0  0  0  0  0  0  0  0
  -21.7422  -12.4666   21.2592 N   0  0  0  0  0  0  0  0  0  0  0  0
  -30.7540  -15.8268   26.8684 N   0  0  0  0  0  0  0  0  0  0  0  0
  -30.5471  -13.7884   22.5045 N   0  0  0  0  0  0  0  0  0  0  0  0
  -30.6794  -24.5555   21.0379 N   0  0  0  0  0  0  0  0  0  0  0  0
  -31.5521  -18.9277   18.6635 N   0  0  0  0  0  0  0  0  0  0  0  0
  -33.4875  -16.0196   19.5936 N   0  3  0  0  0  0  0  0  0  0  0  0
  -22.3952  -14.6433   20.9523 O   0  0  0  0  0  0  0  0  0  0  0  0
  -29.4418  -23.1582   22.4303 O   0  0  0  0  0  0  0  0  0  0  0  0
  -31.9796  -21.7355   19.0406 O   0  0  0  0  0  0  0  0  0  0  0  0
  -31.0025  -17.2225   20.1358 O   0  0  0  0  0  0  0  0  0  0  0  0
  -32.2291  -13.0168   21.1054 O   0  0  0  0  0  0  0  0  0  0  0  0
  -21.8496   -6.9115   21.6643 O   0  0  0  0  0  0  0  0  0  0  0  0
  -28.9715  -18.8577   26.4249 O   0  0  0  0  0  0  0  0  0  1  0  0
  -22.8692   -2.6881   18.2691 F   0  0  0  0  0  0  0  0  0  0  0  0
  -24.3952   -5.8579   21.4360 F   0  0  0  0  0  0  0  0  0  0  0  0
  1  2  1  0  0  0  0
  1  5  2  0  0  0  0
  2  6  2  0  0  0  0
  3  8  2  0  0  0  0
  3 18  1  0  0  0  0
  4  9  1  0  0  0  0
  4 18  2  0  0  0  0
  5 20  1  0  0  0  0
  6 22  1  0  0  0  0
  7 10  2  0  0  0  0
  7 21  1  0  0  0  0
  8 25  1  0  0  0  0
  9 25  2  0  0  0  0
 10 26  1  0  0  0  0
 11 12  2  0  0  0  0
 11 27  1  0  0  0  0
 12 28  1  0  0  0  0
 13 17  2  0  0  0  0
 13 24  1  0  0  0  0
 14 23  1  0  0  0  0
 14 26  2  0  0  0  0
 15 24  2  0  0  0  0
 15 32  1  0  0  0  0
 16 28  2  0  0  0  0
 16 29  1  0  0  0  0
 17 64  1  0  0  0  0
 18 30  1  0  0  0  0
 19 30  1  0  0  0  0
 19 31  2  0  0  0  0
 19 33  1  0  0  0  0
 20 22  2  0  0  0  0
 20 38  1  0  0  0  0
 21 23  2  0  0  0  0
 21 39  1  0  0  0  0
 22 47  1  0  0  0  0
 23 40  1  0  0  0  0
 24 69  1  0  0  0  0
 25 79  1  0  0  0  0
 26 80  1  0  0  0  0
 27 29  2  0  0  0  0
 27 79  1  0  0  0  0
 28 81  1  0  0  0  0
 29 82  1  0  0  0  0
 30 62  2  0  0  0  0
 31 63  1  0  0  0  0
 31 67  1  0  0  0  0
 32 64  2  0  0  0  0
 32 70  1  0  0  0  0
 33 68  1  0  0  0  0
 33 74  2  0  0  0  0
 34 48  1  0  0  0  0
 34 71  1  0  0  0  0
 34 75  2  0  0  0  0
 35 58  1  0  0  0  0
 35 65  1  0  0  0  0
 35 76  2  0  0  0  0
 36 59  1  0  0  0  0
 36 72  1  0  0  0  0
 36 77  2  0  0  0  0
 37 66  1  0  0  0  0
 37 70  1  0  0  0  0
 37 78  2  0  0  0  0
 38 41  1  0  0  0  0
 39 48  1  0  0  0  0
 40 65  1  0  0  0  0
 41 43  1  0  0  0  0
 42 44  1  0  0  0  0
 42 45  1  0  0  0  0
 43 47  1  0  0  0  0
 44 49  1  0  0  0  0
 45 66  1  0  0  0  0
 46 49  1  0  0  0  0
 46 66  1  0  0  0  0
 47 71  1  0  0  0  0
 48 65  1  0  0  0  0
 49 63  1  0  0  0  0
 50 59  1  0  0  0  0
 51 60  1  0  0  0  0
 52 61  1  0  0  0  0
 53 61  1  0  0  0  0
 54 61  1  0  0  0  0
 55 73  1  0  0  0  0
 56 57  1  0  0  0  0
 56 60  1  0  0  0  0
 57 80  1  0  0  0  0
 58 61  1  0  0  0  0
 58 72  1  0  0  0  0
 59 73  1  0  0  0  0
 60 69  1  0  0  0  0
 62 63  1  0  0  0  0
M  CHG  2  64   1  73   1
M  ISO  4  37 100  57 101  70 100  80 101
M  END
> <Batch ID>
0199

> <Smiles>
CNC(C)C(=O)NC(C(=O)N1Cc2cc([101O:1][101CH2:1]CC(C)Nc3ccnc([100NH:0][100C:0](=O)N4CCCC(n5nc(-c6ccc(Oc7ccc(F)cc7F)cc6)c(C(N)=O)c5N)C4)c3)ccc2CC1C(=O)NC1CCCc2ccccc21)C(C)(C)C

> <Shape>
0.191

> <Color>
0.182

> <Negative vol penalty>
0.000

$$$$

  -OEChem-04052305473D

 82 90  0     1  0  0  0  0  0999 V2000
  -23.1302  -11.4143   22.9566 C   0  0  0  0  0  0  0  0  0  0  0  0
  -23.3400  -12.6476   23.5653 C   0  0  0  0  0  0  0  0  0  0  0  0
  -22.4875  -28.0238   19.4708 C   0  0  0  0  0  0  0  0  0  0  0  0
  -22.8450  -27.6462   21.8302 C   0  0  0  0  0  0  0  0  0  0  0  0
  -23.7703  -11.1134   21.7552 C   0  0  0  0  0  0  0  0  0  0  0  0
  -24.1910  -13.5802   22.9734 C   0  0  0  0  0  0  0  0  0  0  0  0
  -23.5813  -19.6738   23.0253 C   0  0  0  0  0  0  0  0  0  0  0  0
  -21.1083  -27.9631   19.6700 C   0  0  0  0  0  0  0  0  0  0  0  0
  -21.4657  -27.5856   22.0295 C   0  0  0  0  0  0  0  0  0  0  0  0
  -24.1635  -20.6680   23.8103 C   0  0  0  0  0  0  0  0  0  0  0  0
  -18.8934  -29.7591   22.3106 C   0  0  0  0  0  0  0  0  0  0  0  0
  -18.3656  -30.4575   23.3966 C   0  0  0  0  0  0  0  0  0  0  0  0
  -25.8296  -21.0313   22.1040 C   0  0  0  0  0  0  0  0  0  0  0  0
  -17.5041  -28.3918   24.3064 C   0  0  0  0  0  0  0  0  0  0  0  0
  -30.4136  -23.2828   25.5752 C   0  0  0  0  0  0  0  0  0  0  0  0
  -28.7853  -24.0607   26.9799 C   0  0  0  0  0  0  0  0  0  0  0  0
  -23.3559  -27.8653   20.5509 C   0  0  0  0  0  0  0  0  0  0  0  0
  -25.5991  -29.0713   20.4050 C   0  0  0  0  0  0  0  0  0  0  0  0
  -24.6220  -12.0465   21.1432 C   0  0  0  0  0  0  0  0  0  0  0  0
  -24.1263  -19.3427   21.7763 C   0  0  0  0  0  0  0  0  0  0  0  0
  -24.8442  -13.2909   21.7632 C   0  0  0  0  0  0  0  0  0  0  0  0
  -25.2509  -20.0343   21.3040 C   0  0  0  0  0  0  0  0  0  0  0  0
  -20.5974  -27.7440   20.9493 C   0  0  0  0  0  0  0  0  0  0  0  0
  -25.2895  -21.3450   23.3510 C   0  0  0  0  0  0  0  0  0  0  0  0
  -18.7264  -28.3770   22.2225 C   0  0  0  0  0  0  0  0  0  0  0  0
  -17.6710  -29.7739   24.3945 C   0  0  0  0  0  0  0  0  0  0  0  0
  -18.0319  -27.6934   23.2204 C   0  0  0  0  0  0  0  0  0  0  0  0
  -24.7807  -27.9274   20.3457 C   0  0  0  0  0  0  0  0  0  0  0  0
  -29.5074  -23.2587   24.5381 C   0  0  0  0  0  0  0  0  0  0  0  0
  -27.8792  -24.0373   25.9427 C   0  0  0  0  0  0  0  0  0  0  0  0
  -26.8629  -28.6034   20.1395 C   0  0  0  0  0  0  0  0  0  0  0  0
  -25.2483  -30.4348   20.6759 C   0  0  0  0  0  0  0  0  0  0  0  0
  -25.4022  -16.7216   20.5093 C   0  0  0  0  0  0  0  0  0  0  0  0
  -25.4137  -18.5071   17.8012 C   0  0  0  0  0  0  0  0  0  0  0  0
  -25.4216  -21.6076   16.3751 C   0  0  0  0  0  0  0  0  0  0  0  0
  -29.4440  -23.2394   20.7846 C   0  0  0  0  0  0  0  0  0  0  0  0
  -25.3288  -11.6578   19.8688 C   0  0  0  0  0  0  0  0  0  0  0  0
  -23.4707  -18.2863   20.9299 C   0  0  0  0  0  0  0  0  0  0  0  0
  -25.8625  -19.7306   19.9615 C   0  0  0  0  0  0  0  0  0  0  0  0
  -25.9220  -12.8451   19.1148 C   0  0  0  0  0  0  0  0  0  0  0  0
  -29.1492  -25.1258   17.7794 C   0  0  0  0  0  0  0  0  0  0  0  0
  -26.6781  -13.7614   20.0717 C   0  0  0  0  0  0  0  0  0  0  0  0
  -28.0701  -26.1610   18.1017 C   0  0  0  0  0  0  0  0  0  0  0  0
  -28.8560  -23.7805   18.4398 C   0  0  0  0  0  0  0  0  0  0  0  0
  -27.5484  -24.8771   20.2179 C   0  0  0  0  0  0  0  0  0  0  0  0
  -25.7406  -14.3384   21.1393 C   0  0  1  0  0  0  0  0  0  0  0  0
  -24.4149  -17.6756   19.8989 C   0  0  1  0  0  0  0  0  0  0  0  0
  -27.8295  -26.2662   19.6197 C   0  0  2  0  0  0  0  0  0  0  0  0
  -25.4701  -22.7478   14.1402 C   0  0  0  0  0  0  0  0  0  0  0  0
  -24.4387  -25.4140   25.6427 C   0  0  0  0  0  0  0  0  0  0  0  0
  -28.3870  -17.8719   17.5443 C   0  0  0  0  0  0  0  0  0  0  0  0
  -28.5756  -19.7523   15.9021 C   0  0  0  0  0  0  0  0  0  0  0  0
  -27.1144  -17.7957   15.3928 C   0  0  0  0  0  0  0  0  0  0  0  0
  -22.8104  -22.9150   16.8557 C   0  0  0  0  0  0  0  0  0  0  0  0
  -29.9240  -22.8093   23.1812 C   0  0  0  0  0  0  0  0  0  0  0  0
  -24.9975  -23.0493   24.9838 C   0  0  0  0  0  0  0  0  0  1  0  0
  -26.3890  -19.4596   17.1528 C   0  0  1  0  0  0  0  0  0  0  0  0
  -24.5894  -22.2027   15.2537 C   0  0  2  0  0  0  0  0  0  0  0  0
  -25.5385  -24.4625   25.1904 C   0  0  2  0  0  0  0  0  0  0  0  0
  -27.6064  -18.7245   16.5242 C   0  0  0  0  0  0  0  0  0  0  0  0
  -30.0688  -23.6841   26.8148 N   0  0  0  0  0  0  0  0  0  0  0  0
  -25.4669  -26.8165   20.0645 N   0  0  0  0  0  0  0  0  0  0  0  0
  -28.2239  -23.6356   24.7032 N   0  0  0  0  0  0  0  0  0  0  0  0
  -26.7298  -27.2601   19.9446 N   0  0  0  0  0  0  0  0  0  0  0  0
  -25.1889  -18.6851   19.1736 N   0  0  0  0  0  0  0  0  0  0  0  0
  -28.6392  -23.9498   19.8787 N   0  0  0  0  0  0  0  0  0  0  0  0
  -28.0639  -29.2142   20.0560 N   0  0  0  0  0  0  0  0  0  0  0  0
  -23.9042  -30.7415   20.9278 N   0  0  0  0  0  0  0  0  0  0  0  0
  -26.5812  -24.4404   26.1967 N   0  0  0  0  0  0  0  0  0  0  0  0
  -24.9503  -15.4181   20.5877 N   0  0  0  0  0  0  0  0  0  0  0  0
  -25.6152  -20.2532   16.2041 N   0  0  0  0  0  0  0  0  0  0  0  0
  -29.1766  -23.4624   22.1298 N   0  0  0  0  0  0  0  0  0  0  0  0
  -23.7431  -23.3150   15.7708 N   0  3  0  0  0  0  0  0  0  0  0  0
  -26.0991  -31.3566   20.6778 O   0  0  0  0  0  0  0  0  0  0  0  0
  -26.4938  -17.1370   20.8803 O   0  0  0  0  0  0  0  0  0  0  0  0
  -24.8659  -17.6417   17.1137 O   0  0  0  0  0  0  0  0  0  0  0  0
  -25.8596  -22.2780   17.3075 O   0  0  0  0  0  0  0  0  0  0  0  0
  -30.3385  -22.4680   20.4216 O   0  0  0  0  0  0  0  0  0  0  0  0
  -19.2517  -27.6850   21.1441 O   0  0  0  0  0  0  0  0  0  0  0  0
  -25.8601  -22.3154   24.1156 O   0  0  0  0  0  0  0  0  0  1  0  0
  -17.1656  -30.4445   25.4380 F   0  0  0  0  0  0  0  0  0  0  0  0
  -17.8693  -26.3655   23.1419 F   0  0  0  0  0  0  0  0  0  0  0  0
  1  2  1  0  0  0  0
  1  5  2  0  0  0  0
  2  6  2  0  0  0  0
  3  8  2  0  0  0  0
  3 17  1  0  0  0  0
  4  9  1  0  0  0  0
  4 17  2  0  0  0  0
  5 19  1  0  0  0  0
  6 21  1  0  0  0  0
  7 10  2  0  0  0  0
  7 20  1  0  0  0  0
  8 23  1  0  0  0  0
  9 23  2  0  0  0  0
 10 24  1  0  0  0  0
 11 12  2  0  0  0  0
 11 25  1  0  0  0  0
 12 26  1  0  0  0  0
 13 22  1  0  0  0  0
 13 24  2  0  0  0  0
 14 26  2  0  0  0  0
 14 27  1  0  0  0  0
 15 29  2  0  0  0  0
 15 61  1  0  0  0  0
 16 30  1  0  0  0  0
 16 61  2  0  0  0  0
 17 28  1  0  0  0  0
 18 28  1  0  0  0  0
 18 31  2  0  0  0  0
 18 32  1  0  0  0  0
 19 21  2  0  0  0  0
 19 37  1  0  0  0  0
 20 22  2  0  0  0  0
 20 38  1  0  0  0  0
 21 46  1  0  0  0  0
 22 39  1  0  0  0  0
 23 79  1  0  0  0  0
 24 80  1  0  0  0  0
 25 27  2  0  0  0  0
 25 79  1  0  0  0  0
 26 81  1  0  0  0  0
 27 82  1  0  0  0  0
 28 62  2  0  0  0  0
 29 55  1  0  0  0  0
 29 63  1  0  0  0  0
 30 63  2  0  0  0  0
 30 69  1  0  0  0  0
 31 64  1  0  0  0  0
 31 67  1  0  0  0  0
 32 68  1  0  0  0  0
 32 74  2  0  0  0  0
 33 47  1  0  0  0  0
 33 70  1  0  0  0  0
 33 75  2  0  0  0  0
 34 57  1  0  0  0  0
 34 65  1  0  0  0  0
 34 76  2  0  0  0  0
 35 58  1  0  0  0  0
 35 71  1  0  0  0  0
 35 77  2  0  0  0  0
 36 66  1  0  0  0  0
 36 72  1  0  0  0  0
 36 78  2  0  0  0  0
 37 40  1  0  0  0  0
 38 47  1  0  0  0  0
 39 65  1  0  0  0  0
 40 42  1  0  0  0  0
 41 43  1  0  0  0  0
 41 44  1  0  0  0  0
 42 46  1  0  0  0  0
 43 48  1  0  0  0  0
 44 66  1  0  0  0  0
 45 48  1  0  0  0  0
 45 66  1  0  0  0  0
 46 70  1  0  0  0  0
 47 65  1  0  0  0  0
 48 64  1  0  0  0  0
 49 58  1  0  0  0  0
 50 59  1  0  0  0  0
 51 60  1  0  0  0  0
 52 60  1  0  0  0  0
 53 60  1  0  0  0  0
 54 73  1  0  0  0  0
 55 72  1  0  0  0  0
 56 59  1  0  0  0  0
 56 80  1  0  0  0  0
 57 60  1  0  0  0  0
 57 71  1  0  0  0  0
 58 73  1  0  0  0  0
 59 69  1  0  0  0  0
 62 64  1  0  0  0  0
M  CHG  1  73   1
M  ISO  4  36 100  56 101  72 100  80 101
M  END
> <Batch ID>
0199

> <Smiles>
CNC(C)C(=O)NC(C(=O)N1Cc2cc([101O:1][101CH2:1]C(C)Nc3cncc(C[100NH:0][100C:0](=O)N4CCCC(n5nc(-c6ccc(Oc7ccc(F)cc7F)cc6)c(C(N)=O)c5N)C4)n3)ccc2CC1C(=O)NC1CCCc2ccccc21)C(C)(C)C

> <Shape>
0.188

> <Color>
0.061

> <Negative vol penalty>
0.000

$$$$

  -OEChem-04052305473D

 82 90  0     1  0  0  0  0  0999 V2000
  -19.9202  -33.2497   20.1661 C   0  0  0  0  0  0  0  0  0  0  0  0
  -21.2567  -32.8645   20.1387 C   0  0  0  0  0  0  0  0  0  0  0  0
  -26.5257  -12.9460   21.7023 C   0  0  0  0  0  0  0  0  0  0  0  0
  -26.0305  -14.1163   19.6475 C   0  0  0  0  0  0  0  0  0  0  0  0
  -19.0560  -32.6977   21.1106 C   0  0  0  0  0  0  0  0  0  0  0  0
  -21.7300  -31.9277   21.0568 C   0  0  0  0  0  0  0  0  0  0  0  0
  -24.6821  -28.4198   18.9061 C   0  0  0  0  0  0  0  0  0  0  0  0
  -25.2481  -12.3863   21.6915 C   0  0  0  0  0  0  0  0  0  0  0  0
  -24.7529  -13.5567   19.6367 C   0  0  0  0  0  0  0  0  0  0  0  0
  -25.9952  -28.7854   18.6130 C   0  0  0  0  0  0  0  0  0  0  0  0
  -23.6482   -9.8609   20.1117 C   0  0  0  0  0  0  0  0  0  0  0  0
  -23.5350   -8.4984   20.3880 C   0  0  0  0  0  0  0  0  0  0  0  0
  -26.7474  -27.6617   20.6107 C   0  0  0  0  0  0  0  0  0  0  0  0
  -22.1297   -9.0005   22.2881 C   0  0  0  0  0  0  0  0  0  0  0  0
  -29.5346  -23.0579   17.3489 C   0  0  0  0  0  0  0  0  0  0  0  0
  -26.9169  -13.8110   20.6804 C   0  0  0  0  0  0  0  0  0  0  0  0
  -29.4023  -13.8592   20.1078 C   0  0  0  0  0  0  0  0  0  0  0  0
  -19.5167  -31.7464   22.0345 C   0  0  0  0  0  0  0  0  0  0  0  0
  -24.3900  -27.6806   20.0613 C   0  0  0  0  0  0  0  0  0  0  0  0
  -20.8714  -31.3634   22.0155 C   0  0  0  0  0  0  0  0  0  0  0  0
  -25.4301  -27.2859   20.9148 C   0  0  0  0  0  0  0  0  0  0  0  0
  -24.3617  -12.6916   20.6586 C   0  0  0  0  0  0  0  0  0  0  0  0
  -27.0278  -28.4088   19.4669 C   0  0  0  0  0  0  0  0  0  0  0  0
  -23.0022  -10.7932   20.9237 C   0  0  0  0  0  0  0  0  0  0  0  0
  -22.7757   -8.0682   21.4762 C   0  0  0  0  0  0  0  0  0  0  0  0
  -22.2430  -10.3630   22.0118 C   0  0  0  0  0  0  0  0  0  0  0  0
  -28.2363  -14.3899   20.6913 C   0  0  0  0  0  0  0  0  0  0  0  0
  -30.1782  -23.6868   18.3941 C   0  0  0  0  0  0  0  0  0  0  0  0
  -30.3800  -14.7799   20.3957 C   0  0  0  0  0  0  0  0  0  0  0  0
  -29.8147  -21.7467   19.3502 C   0  0  0  0  0  0  0  0  0  0  0  0
  -29.5853  -12.6427   19.3713 C   0  0  0  0  0  0  0  0  0  0  0  0
  -22.6535  -28.1941   22.6737 C   0  0  0  0  0  0  0  0  0  0  0  0
  -23.3932  -25.0988   23.3015 C   0  0  0  0  0  0  0  0  0  0  0  0
  -25.5144  -22.4704   22.8128 C   0  0  0  0  0  0  0  0  0  0  0  0
  -30.2527  -20.6376   21.5692 C   0  0  0  0  0  0  0  0  0  0  0  0
  -18.5558  -31.2128   23.0673 C   0  0  0  0  0  0  0  0  0  0  0  0
  -22.9715  -27.2713   20.3492 C   0  0  0  0  0  0  0  0  0  0  0  0
  -25.1718  -26.4744   22.1571 C   0  0  0  0  0  0  0  0  0  0  0  0
  -19.0507  -29.9476   23.7634 C   0  0  0  0  0  0  0  0  0  0  0  0
  -31.5766  -18.0757   23.6576 C   0  0  0  0  0  0  0  0  0  0  0  0
  -20.5058  -30.1084   24.1920 C   0  0  0  0  0  0  0  0  0  0  0  0
  -30.9812  -16.7909   23.0771 C   0  0  0  0  0  0  0  0  0  0  0  0
  -30.5872  -19.2380   23.5951 C   0  0  0  0  0  0  0  0  0  0  0  0
  -29.4164  -18.2081   21.6878 C   0  0  0  0  0  0  0  0  0  0  0  0
  -21.4168  -30.3315   22.9788 C   0  0  1  0  0  0  0  0  0  0  0  0
  -22.7272  -26.9583   21.8223 C   0  0  1  0  0  0  0  0  0  0  0  0
  -30.3987  -17.0256   21.6695 C   0  0  2  0  0  0  0  0  0  0  0  0
  -25.8789  -20.0813   23.4884 C   0  0  0  0  0  0  0  0  0  0  0  0
  -24.4249  -26.0271   26.0188 C   0  0  0  0  0  0  0  0  0  0  0  0
  -25.6106  -23.8332   26.2402 C   0  0  0  0  0  0  0  0  0  0  0  0
  -23.1225  -23.8928   26.0711 C   0  0  0  0  0  0  0  0  0  0  0  0
  -25.2744  -21.5225   20.0194 C   0  0  0  0  0  0  0  0  0  0  0  0
  -30.5280  -28.0046   18.6852 C   0  0  0  0  0  0  0  0  0  0  0  0
  -31.3200  -25.6541   19.4197 C   0  0  0  0  0  0  0  0  0  0  0  0
  -29.3421  -27.8866   19.6311 C   0  0  0  0  0  0  0  0  0  1  0  0
  -24.5165  -24.3930   24.0220 C   0  0  1  0  0  0  0  0  0  0  0  0
  -25.2528  -21.0160   22.4652 C   0  0  2  0  0  0  0  0  0  0  0  0
  -31.7012  -27.0875   19.0464 C   0  0  1  0  0  0  0  0  0  0  0  0
  -24.4236  -24.5535   25.5657 C   0  0  0  0  0  0  0  0  0  0  0  0
  -28.4516  -15.5572   21.3038 N   0  0  0  0  0  0  0  0  0  0  0  0
  -30.3394  -22.9366   19.5426 N   0  0  0  0  0  0  0  0  0  0  0  0
  -29.7642  -15.7675   21.1067 N   0  0  0  0  0  0  0  0  0  0  0  0
  -23.7675  -26.1041   22.3987 N   0  0  0  0  0  0  0  0  0  0  0  0
  -30.0806  -19.4034   22.2310 N   0  0  0  0  0  0  0  0  0  0  0  0
  -31.6978  -14.8330   20.1075 N   0  0  0  0  0  0  0  0  0  0  0  0
  -28.4751  -11.8121   19.1667 N   0  0  0  0  0  0  0  0  0  0  0  0
  -30.6449  -24.9892   18.3287 N   0  0  0  0  0  0  0  0  0  0  0  0
  -29.7595  -20.6662   20.2652 N   0  0  0  0  0  0  0  0  0  0  0  0
  -21.6631  -29.0801   22.2948 N   0  0  0  0  0  0  0  0  0  0  0  0
  -24.4899  -23.0086   23.5625 N   0  0  0  0  0  0  0  0  0  0  0  0
  -25.8197  -20.6937   21.1252 N   0  3  0  0  0  0  0  0  0  0  0  0
  -30.7037  -12.2943   18.9226 O   0  0  0  0  0  0  0  0  0  0  0  0
  -23.4361  -28.3328   23.6064 O   0  0  0  0  0  0  0  0  0  0  0  0
  -22.2270  -24.7654   23.5260 O   0  0  0  0  0  0  0  0  0  0  0  0
  -26.5280  -23.0681   22.4581 O   0  0  0  0  0  0  0  0  0  0  0  0
  -30.8217  -21.5897   22.1093 O   0  0  0  0  0  0  0  0  0  0  0  0
  -32.6079  -27.0363   17.9432 O   0  0  0  0  0  0  0  0  0  0  0  0
  -23.1150  -12.1455   20.6476 O   0  0  0  0  0  0  0  0  0  0  0  0
  -28.3103  -28.7648   19.1836 O   0  0  0  0  0  0  0  0  0  1  0  0
  -22.6658   -6.7596   21.7404 F   0  0  0  0  0  0  0  0  0  0  0  0
  -21.6191  -11.2539   22.7947 F   0  0  0  0  0  0  0  0  0  0  0  0
  -29.1112  -21.4615   17.8111 S   0  0  0  0  0  0  0  0  0  0  0  0
  1  2  1  0  0  0  0
  1  5  2  0  0  0  0
  2  6  2  0  0  0  0
  3  8  2  0  0  0  0
  3 16  1  0  0  0  0
  4  9  1  0  0  0  0
  4 16  2  0  0  0  0
  5 18  1  0  0  0  0
  6 20  1  0  0  0  0
  7 10  2  0  0  0  0
  7 19  1  0  0  0  0
  8 22  1  0  0  0  0
  9 22  2  0  0  0  0
 10 23  1  0  0  0  0
 11 12  2  0  0  0  0
 11 24  1  0  0  0  0
 12 25  1  0  0  0  0
 13 21  1  0  0  0  0
 13 23  2  0  0  0  0
 14 25  2  0  0  0  0
 14 26  1  0  0  0  0
 15 28  2  0  0  0  0
 15 82  1  0  0  0  0
 16 27  1  0  0  0  0
 17 27  1  0  0  0  0
 17 29  2  0  0  0  0
 17 31  1  0  0  0  0
 18 20  2  0  0  0  0
 18 36  1  0  0  0  0
 19 21  2  0  0  0  0
 19 37  1  0  0  0  0
 20 45  1  0  0  0  0
 21 38  1  0  0  0  0
 22 78  1  0  0  0  0
 23 79  1  0  0  0  0
 24 26  2  0  0  0  0
 24 78  1  0  0  0  0
 25 80  1  0  0  0  0
 26 81  1  0  0  0  0
 27 60  2  0  0  0  0
 28 61  1  0  0  0  0
 28 67  1  0  0  0  0
 29 62  1  0  0  0  0
 29 65  1  0  0  0  0
 30 61  2  0  0  0  0
 30 68  1  0  0  0  0
 30 82  1  0  0  0  0
 31 66  1  0  0  0  0
 31 72  2  0  0  0  0
 32 46  1  0  0  0  0
 32 69  1  0  0  0  0
 32 73  2  0  0  0  0
 33 56  1  0  0  0  0
 33 63  1  0  0  0  0
 33 74  2  0  0  0  0
 34 57  1  0  0  0  0
 34 70  1  0  0  0  0
 34 75  2  0  0  0  0
 35 64  1  0  0  0  0
 35 68  1  0  0  0  0
 35 76  2  0  0  0  0
 36 39  1  0  0  0  0
 37 46  1  0  0  0  0
 38 63  1  0  0  0  0
 39 41  1  0  0  0  0
 40 42  1  0  0  0  0
 40 43  1  0  0  0  0
 41 45  1  0  0  0  0
 42 47  1  0  0  0  0
 43 64  1  0  0  0  0
 44 47  1  0  0  0  0
 44 64  1  0  0  0  0
 45 69  1  0  0  0  0
 46 63  1  0  0  0  0
 47 62  1  0  0  0  0
 48 57  1  0  0  0  0
 49 59  1  0  0  0  0
 50 59  1  0  0  0  0
 51 59  1  0  0  0  0
 52 71  1  0  0  0  0
 53 55  1  0  0  0  0
 53 58  1  0  0  0  0
 54 58  1  0  0  0  0
 54 67  1  0  0  0  0
 55 79  1  0  0  0  0
 56 59  1  0  0  0  0
 56 70  1  0  0  0  0
 57 71  1  0  0  0  0
 58 77  1  0  0  0  0
 60 62  1  0  0  0  0
M  CHG  1  71   1
M  ISO  4  35 100  55 101  68 100  79 101
M  END
> <Batch ID>
0199

> <Smiles>
CNC(C)C(=O)NC(C(=O)N1Cc2cc([101O:1][101CH2:1]CC(O)CNc3csc([100NH:0][100C:0](=O)N4CCCC(n5nc(-c6ccc(Oc7ccc(F)cc7F)cc6)c(C(N)=O)c5N)C4)n3)ccc2CC1C(=O)NC1CCCc2ccccc21)C(C)(C)C

> <Shape>
0.264

> <Color>
0.092

> <Negative vol penalty>
0.000

$$$$

  -OEChem-04052305473D

 86 94  0     1  0  0  0  0  0999 V2000
  -22.6361   -8.1490   21.7826 C   0  0  0  0  0  0  0  0  0  0  0  0
  -23.6121   -8.8485   22.4851 C   0  0  0  0  0  0  0  0  0  0  0  0
  -22.8830  -29.5764   21.3560 C   0  0  0  0  0  0  0  0  0  0  0  0
  -23.9467  -28.4419   23.2049 C   0  0  0  0  0  0  0  0  0  0  0  0
  -22.2585   -8.5712   20.5086 C   0  0  0  0  0  0  0  0  0  0  0  0
  -24.2120   -9.9700   21.9135 C   0  0  0  0  0  0  0  0  0  0  0  0
  -26.1029  -15.0176   24.8207 C   0  0  0  0  0  0  0  0  0  0  0  0
  -29.5006  -20.8522   22.5791 C   0  0  0  0  0  0  0  0  0  0  0  0
  -21.7954  -29.8870   22.1722 C   0  0  0  0  0  0  0  0  0  0  0  0
  -22.8591  -28.7525   24.0212 C   0  0  0  0  0  0  0  0  0  0  0  0
  -27.3582  -15.4281   25.2675 C   0  0  0  0  0  0  0  0  0  0  0  0
  -18.5767  -30.6680   23.6733 C   0  0  0  0  0  0  0  0  0  0  0  0
  -17.2972  -30.4781   23.1515 C   0  0  0  0  0  0  0  0  0  0  0  0
  -28.7283  -21.8313   21.9639 C   0  0  0  0  0  0  0  0  0  0  0  0
  -27.6556  -16.7033   23.2415 C   0  0  0  0  0  0  0  0  0  0  0  0
  -17.7696  -28.1281   22.8487 C   0  0  0  0  0  0  0  0  0  0  0  0
  -29.6150  -19.7080   20.4972 C   0  0  0  0  0  0  0  0  0  0  0  0
  -23.9587  -28.8538   21.8723 C   0  0  0  0  0  0  0  0  0  0  0  0
  -26.2449  -29.3010   20.8327 C   0  0  0  0  0  0  0  0  0  0  0  0
  -22.8472   -9.7041   19.9250 C   0  0  0  0  0  0  0  0  0  0  0  0
  -25.6184  -15.4388   23.5740 C   0  0  0  0  0  0  0  0  0  0  0  0
  -23.8429  -10.4070   20.6299 C   0  0  0  0  0  0  0  0  0  0  0  0
  -26.3928  -16.2988   22.7823 C   0  0  0  0  0  0  0  0  0  0  0  0
  -29.9563  -19.7671   21.8387 C   0  0  0  0  0  0  0  0  0  0  0  0
  -21.7835  -29.4751   23.5048 C   0  0  0  0  0  0  0  0  0  0  0  0
  -28.1360  -16.2687   24.4766 C   0  0  0  0  0  0  0  0  0  0  0  0
  -19.4528  -29.5881   23.7827 C   0  0  0  0  0  0  0  0  0  0  0  0
  -16.8936  -29.2081   22.7392 C   0  0  0  0  0  0  0  0  0  0  0  0
  -19.0492  -28.3181   23.3704 C   0  0  0  0  0  0  0  0  0  0  0  0
  -25.0822  -28.5321   21.0295 C   0  0  0  0  0  0  0  0  0  0  0  0
  -28.4421  -21.6799   20.6167 C   0  0  0  0  0  0  0  0  0  0  0  0
  -26.9974  -28.5658   19.9497 C   0  0  0  0  0  0  0  0  0  0  0  0
  -26.6119  -30.5667   21.3976 C   0  0  0  0  0  0  0  0  0  0  0  0
  -24.7793  -13.9724   20.8815 C   0  0  0  0  0  0  0  0  0  0  0  0
  -32.2597  -19.7818   23.9850 C   0  0  0  0  0  0  0  0  0  0  0  0
  -23.8412  -16.9526   20.0092 C   0  0  0  0  0  0  0  0  0  0  0  0
  -24.1610  -20.3259   20.4159 C   0  0  0  0  0  0  0  0  0  0  0  0
  -27.2458  -22.7350   18.6668 C   0  0  0  0  0  0  0  0  0  0  0  0
  -22.4402  -10.0945   18.5262 C   0  0  0  0  0  0  0  0  0  0  0  0
  -24.2510  -15.0087   23.1183 C   0  0  0  0  0  0  0  0  0  0  0  0
  -25.9098  -16.7957   21.4451 C   0  0  0  0  0  0  0  0  0  0  0  0
  -22.8565  -11.5126   18.1441 C   0  0  0  0  0  0  0  0  0  0  0  0
  -26.5556  -25.3878   16.3945 C   0  0  0  0  0  0  0  0  0  0  0  0
  -24.3083  -11.7670   18.5372 C   0  0  0  0  0  0  0  0  0  0  0  0
  -26.2112  -26.5668   17.3074 C   0  0  0  0  0  0  0  0  0  0  0  0
  -26.0332  -24.0657   16.9540 C   0  0  0  0  0  0  0  0  0  0  0  0
  -26.0868  -24.9557   19.2506 C   0  0  0  0  0  0  0  0  0  0  0  0
  -24.4991  -11.6429   20.0537 C   0  0  1  0  0  0  0  0  0  0  0  0
  -24.0742  -15.0847   21.6049 C   0  0  1  0  0  0  0  0  0  0  0  0
  -26.6487  -26.3005   18.7611 C   0  0  2  0  0  0  0  0  0  0  0  0
  -33.4967  -21.4671   25.4094 C   0  0  0  0  0  0  0  0  0  0  0  0
  -23.6581  -22.7657   20.1134 C   0  0  0  0  0  0  0  0  0  0  0  0
  -30.9930  -14.9510   24.5337 C   0  0  0  0  0  0  0  0  0  0  0  0
  -25.5549  -16.6237   17.5062 C   0  0  0  0  0  0  0  0  0  0  0  0
  -25.4146  -19.1006   17.1693 C   0  0  0  0  0  0  0  0  0  0  0  0
  -23.3395  -17.7171   17.1175 C   0  0  0  0  0  0  0  0  0  0  0  0
  -22.1758  -20.3077   22.6108 C   0  0  0  0  0  0  0  0  0  0  0  0
  -32.3172  -20.5156   25.3163 C   0  0  0  0  0  0  0  0  0  0  0  0
  -31.5712  -17.3901   24.2600 C   0  0  0  0  0  0  0  0  0  0  0  0
  -31.1174  -18.7865   23.8176 C   0  0  2  0  0  0  0  0  0  0  0  0
  -24.5029  -18.1243   19.3249 C   0  0  1  0  0  0  0  0  0  0  0  0
  -23.1254  -21.4225   20.5874 C   0  0  2  0  0  0  0  0  0  0  0  0
  -30.4837  -16.3199   24.1008 C   0  0  2  0  0  0  0  0  0  1  0  0
  -24.7132  -17.8807   17.8037 C   0  0  0  0  0  0  0  0  0  0  0  0
  -28.8670  -20.6397   19.8648 N   0  0  0  0  0  0  0  0  0  0  0  0
  -25.0907  -27.3956   20.3279 N   0  0  0  0  0  0  0  0  0  0  0  0
  -26.2679  -27.4450   19.6815 N   0  0  0  0  0  0  0  0  0  0  0  0
  -24.5688  -16.3421   21.0406 N   0  0  0  0  0  0  0  0  0  0  0  0
  -26.4911  -23.8793   18.3326 N   0  0  0  0  0  0  0  0  0  0  0  0
  -28.2052  -28.7751   19.3843 N   0  0  0  0  0  0  0  0  0  0  0  0
  -25.7225  -31.1844   22.2873 N   0  0  0  0  0  0  0  0  0  0  0  0
  -30.7272  -18.7781   22.4240 N   0  0  0  0  0  0  0  0  0  0  0  0
  -27.6533  -22.6821   19.9994 N   0  0  0  0  0  0  0  0  0  0  0  0
  -24.0159  -12.8317   20.7228 N   0  0  0  0  0  0  0  0  0  0  0  0
  -23.6866  -19.2928   19.6357 N   0  0  0  0  0  0  0  0  0  0  0  0
  -22.7381  -21.5497   22.0208 N   0  3  0  0  0  0  0  0  0  0  0  0
  -27.6892  -31.1408   21.1088 O   0  0  0  0  0  0  0  0  0  0  0  0
  -25.9303  -14.1375   20.4947 O   0  0  0  0  0  0  0  0  0  0  0  0
  -33.0972  -19.9650   23.1011 O   0  0  0  0  0  0  0  0  0  0  0  0
  -22.7170  -16.5967   19.6469 O   0  0  0  0  0  0  0  0  0  0  0  0
  -25.2803  -20.3820   20.9204 O   0  0  0  0  0  0  0  0  0  0  0  0
  -27.5343  -21.8795   17.8261 O   0  0  0  0  0  0  0  0  0  0  0  0
  -20.7225  -29.7782   24.3017 O   0  0  0  0  0  0  0  0  0  0  0  0
  -29.3618  -16.6703   24.9100 O   0  0  0  0  0  0  0  0  0  1  0  0
  -15.6643  -29.0255   22.2396 F   0  0  0  0  0  0  0  0  0  0  0  0
  -19.8859  -27.2766   23.4742 F   0  0  0  0  0  0  0  0  0  0  0  0
  1  2  1  0  0  0  0
  1  5  2  0  0  0  0
  2  6  2  0  0  0  0
  3  9  2  0  0  0  0
  3 18  1  0  0  0  0
  4 10  1  0  0  0  0
  4 18  2  0  0  0  0
  5 20  1  0  0  0  0
  6 22  1  0  0  0  0
  7 11  2  0  0  0  0
  7 21  1  0  0  0  0
  8 14  2  0  0  0  0
  8 24  1  0  0  0  0
  9 25  1  0  0  0  0
 10 25  2  0  0  0  0
 11 26  1  0  0  0  0
 12 13  2  0  0  0  0
 12 27  1  0  0  0  0
 13 28  1  0  0  0  0
 14 31  1  0  0  0  0
 15 23  1  0  0  0  0
 15 26  2  0  0  0  0
 16 28  2  0  0  0  0
 16 29  1  0  0  0  0
 17 24  2  0  0  0  0
 17 65  1  0  0  0  0
 18 30  1  0  0  0  0
 19 30  1  0  0  0  0
 19 32  2  0  0  0  0
 19 33  1  0  0  0  0
 20 22  2  0  0  0  0
 20 39  1  0  0  0  0
 21 23  2  0  0  0  0
 21 40  1  0  0  0  0
 22 48  1  0  0  0  0
 23 41  1  0  0  0  0
 24 72  1  0  0  0  0
 25 83  1  0  0  0  0
 26 84  1  0  0  0  0
 27 29  2  0  0  0  0
 27 83  1  0  0  0  0
 28 85  1  0  0  0  0
 29 86  1  0  0  0  0
 30 66  2  0  0  0  0
 31 65  2  0  0  0  0
 31 73  1  0  0  0  0
 32 67  1  0  0  0  0
 32 70  1  0  0  0  0
 33 71  1  0  0  0  0
 33 77  2  0  0  0  0
 34 49  1  0  0  0  0
 34 74  1  0  0  0  0
 34 78  2  0  0  0  0
 35 58  1  0  0  0  0
 35 60  1  0  0  0  0
 35 79  2  0  0  0  0
 36 61  1  0  0  0  0
 36 68  1  0  0  0  0
 36 80  2  0  0  0  0
 37 62  1  0  0  0  0
 37 75  1  0  0  0  0
 37 81  2  0  0  0  0
 38 69  1  0  0  0  0
 38 73  1  0  0  0  0
 38 82  2  0  0  0  0
 39 42  1  0  0  0  0
 40 49  1  0  0  0  0
 41 68  1  0  0  0  0
 42 44  1  0  0  0  0
 43 45  1  0  0  0  0
 43 46  1  0  0  0  0
 44 48  1  0  0  0  0
 45 50  1  0  0  0  0
 46 69  1  0  0  0  0
 47 50  1  0  0  0  0
 47 69  1  0  0  0  0
 48 74  1  0  0  0  0
 49 68  1  0  0  0  0
 50 67  1  0  0  0  0
 51 58  1  0  0  0  0
 52 62  1  0  0  0  0
 53 63  1  0  0  0  0
 54 64  1  0  0  0  0
 55 64  1  0  0  0  0
 56 64  1  0  0  0  0
 57 76  1  0  0  0  0
 59 60  1  0  0  0  0
 59 63  1  0  0  0  0
 60 72  1  0  0  0  0
 61 64  1  0  0  0  0
 61 75  1  0  0  0  0
 62 76  1  0  0  0  0
 63 84  1  0  0  0  0
 66 67  1  0  0  0  0
M  CHG  1  76   1
M  ISO  4  38 100  63 101  73 100  84 101
M  END
> <Batch ID>
0199

> <Smiles>
CCC(=O)C(C[101CH:1](C)[101O:1]c1ccc2c(c1)CN(C(=O)C(NC(=O)C(C)NC)C(C)(C)C)C(C(=O)NC1CCCc3ccccc31)C2)Nc1ccc([100NH:0][100C:0](=O)N2CCCC(n3nc(-c4ccc(Oc5ccc(F)cc5F)cc4)c(C(N)=O)c3N)C2)nc1

> <Shape>
0.225

> <Color>
0.071

> <Negative vol penalty>
0.000

$$$$

  -OEChem-04052305473D

 81 89  0     1  0  0  0  0  0999 V2000
  -15.7329  -24.1874   22.0477 C   0  0  0  0  0  0  0  0  0  0  0  0
  -16.8975  -23.4876   22.3464 C   0  0  0  0  0  0  0  0  0  0  0  0
  -29.5275  -18.9211   24.7771 C   0  0  0  0  0  0  0  0  0  0  0  0
  -23.0732   -9.8675   19.9456 C   0  0  0  0  0  0  0  0  0  0  0  0
  -23.8327   -9.8814   22.2391 C   0  0  0  0  0  0  0  0  0  0  0  0
  -14.6489  -23.5228   21.4756 C   0  0  0  0  0  0  0  0  0  0  0  0
  -16.9786  -22.1224   22.0742 C   0  0  0  0  0  0  0  0  0  0  0  0
  -21.3624  -20.8337   19.8911 C   0  0  0  0  0  0  0  0  0  0  0  0
  -22.3296   -8.7149   20.1988 C   0  0  0  0  0  0  0  0  0  0  0  0
  -23.0890   -8.7288   22.4923 C   0  0  0  0  0  0  0  0  0  0  0  0
  -22.4791  -20.7275   20.7191 C   0  0  0  0  0  0  0  0  0  0  0  0
  -20.5161   -5.5633   20.1493 C   0  0  0  0  0  0  0  0  0  0  0  0
  -20.5798   -4.5302   19.2144 C   0  0  0  0  0  0  0  0  0  0  0  0
  -30.3586  -18.1089   24.0136 C   0  0  0  0  0  0  0  0  0  0  0  0
  -28.3196  -19.3626   24.2485 C   0  0  0  0  0  0  0  0  0  0  0  0
  -22.2173  -18.3297   20.7544 C   0  0  0  0  0  0  0  0  0  0  0  0
  -22.9646   -4.3616   19.5631 C   0  0  0  0  0  0  0  0  0  0  0  0
  -23.8248  -10.4507   20.9657 C   0  0  0  0  0  0  0  0  0  0  0  0
  -24.1661  -12.9756   20.8383 C   0  0  0  0  0  0  0  0  0  0  0  0
  -14.7202  -22.1508   21.1873 C   0  0  0  0  0  0  0  0  0  0  0  0
  -20.6572  -19.6876   19.4967 C   0  0  0  0  0  0  0  0  0  0  0  0
  -15.8941  -21.4385   21.4989 C   0  0  0  0  0  0  0  0  0  0  0  0
  -21.0936  -18.4238   19.9192 C   0  0  0  0  0  0  0  0  0  0  0  0
  -22.3374   -8.1456   21.4721 C   0  0  0  0  0  0  0  0  0  0  0  0
  -22.9050  -19.4756   21.1532 C   0  0  0  0  0  0  0  0  0  0  0  0
  -21.6767   -5.9957   20.7911 C   0  0  0  0  0  0  0  0  0  0  0  0
  -21.8040   -3.9293   18.9213 C   0  0  0  0  0  0  0  0  0  0  0  0
  -22.9009   -5.3948   20.4980 C   0  0  0  0  0  0  0  0  0  0  0  0
  -24.5937  -11.6410   20.7046 C   0  0  0  0  0  0  0  0  0  0  0  0
  -29.9393  -17.7693   22.7374 C   0  0  0  0  0  0  0  0  0  0  0  0
  -27.9917  -18.9670   22.9618 C   0  0  0  0  0  0  0  0  0  0  0  0
  -25.2582  -13.7242   20.4731 C   0  0  0  0  0  0  0  0  0  0  0  0
  -22.8955  -13.4923   21.2555 C   0  0  0  0  0  0  0  0  0  0  0  0
  -17.6896  -18.6266   19.9109 C   0  0  0  0  0  0  0  0  0  0  0  0
  -18.6600  -16.2852   17.8864 C   0  0  0  0  0  0  0  0  0  0  0  0
  -21.2407  -14.4939   16.5530 C   0  0  0  0  0  0  0  0  0  0  0  0
  -30.7417  -14.7450   20.6595 C   0  0  0  0  0  0  0  0  0  0  0  0
  -13.5058  -21.4658   20.6123 C   0  0  0  0  0  0  0  0  0  0  0  0
  -19.4705  -19.8170   18.5815 C   0  0  0  0  0  0  0  0  0  0  0  0
  -20.3833  -17.1611   19.5077 C   0  0  0  0  0  0  0  0  0  0  0  0
  -13.8072  -20.0959   20.0100 C   0  0  0  0  0  0  0  0  0  0  0  0
  -29.6051  -12.3533   18.2795 C   0  0  0  0  0  0  0  0  0  0  0  0
  -14.6786  -19.2765   20.9566 C   0  0  0  0  0  0  0  0  0  0  0  0
  -28.1676  -12.0605   18.7130 C   0  0  0  0  0  0  0  0  0  0  0  0
  -30.5219  -12.5778   19.4799 C   0  0  0  0  0  0  0  0  0  0  0  0
  -28.6197  -13.3126   20.8640 C   0  0  0  0  0  0  0  0  0  0  0  0
  -16.0293  -19.9621   21.1956 C   0  0  1  0  0  0  0  0  0  0  0  0
  -18.5224  -18.6244   18.6602 C   0  0  1  0  0  0  0  0  0  0  0  0
  -27.6458  -13.1343   19.6867 C   0  0  2  0  0  0  0  0  0  0  0  0
  -21.7189  -12.6213   14.9523 C   0  0  0  0  0  0  0  0  0  0  0  0
  -17.7245  -14.2655   19.9734 C   0  0  0  0  0  0  0  0  0  0  0  0
  -19.0614  -12.5175   18.7796 C   0  0  0  0  0  0  0  0  0  0  0  0
  -17.1740  -13.6557   17.6113 C   0  0  0  0  0  0  0  0  0  0  0  0
  -22.8502  -16.2507   14.7973 C   0  0  0  0  0  0  0  0  0  0  0  0
  -30.8068  -16.8992   21.8901 C   0  0  0  0  0  0  0  0  0  0  0  0
  -25.8687  -20.2596   23.1801 C   0  0  0  0  0  0  0  0  0  0  0  0
  -24.6531  -20.5812   22.3269 C   0  0  0  0  0  0  0  0  0  1  0  0
  -19.3114  -14.9331   18.0493 C   0  0  1  0  0  0  0  0  0  0  0  0
  -21.5766  -14.1262   15.1189 C   0  0  2  0  0  0  0  0  0  0  0  0
  -18.3303  -13.8667   18.6129 C   0  0  0  0  0  0  0  0  0  0  0  0
  -25.8587  -11.5442   20.2869 N   0  0  0  0  0  0  0  0  0  0  0  0
  -28.7731  -18.1789   22.1898 N   0  0  0  0  0  0  0  0  0  0  0  0
  -26.2353  -12.8275   20.1548 N   0  0  0  0  0  0  0  0  0  0  0  0
  -19.2247  -17.3402   18.6172 N   0  0  0  0  0  0  0  0  0  0  0  0
  -29.9710  -13.6088   20.3628 N   0  0  0  0  0  0  0  0  0  0  0  0
  -25.4683  -15.0555   20.3962 N   0  0  0  0  0  0  0  0  0  0  0  0
  -21.8837  -12.5839   21.5952 N   0  0  0  0  0  0  0  0  0  0  0  0
  -26.7852  -19.4147   22.4494 N   0  0  0  0  0  0  0  0  0  0  0  0
  -16.9080  -19.7557   20.0644 N   0  0  0  0  0  0  0  0  0  0  0  0
  -19.8796  -14.5944   16.7490 N   0  0  0  0  0  0  0  0  0  0  0  0
  -30.1422  -15.6762   21.4987 N   0  0  0  0  0  0  0  0  0  0  0  0
  -22.8567  -14.7679   14.7059 N   0  3  0  0  0  0  0  0  0  0  0  0
  -22.6589  -14.7231   21.3092 O   0  0  0  0  0  0  0  0  0  0  0  0
  -17.7505  -17.6737   20.6790 O   0  0  0  0  0  0  0  0  0  0  0  0
  -17.6905  -16.4025   17.1328 O   0  0  0  0  0  0  0  0  0  0  0  0
  -22.0998  -14.6704   17.4140 O   0  0  0  0  0  0  0  0  0  0  0  0
  -31.8777  -14.9194   20.2056 O   0  0  0  0  0  0  0  0  0  0  0  0
  -21.6117   -7.0210   21.7196 O   0  0  0  0  0  0  0  0  0  0  0  0
  -23.9942  -19.3692   21.9620 O   0  0  0  0  0  0  0  0  0  1  0  0
  -21.8648   -2.9361   18.0246 F   0  0  0  0  0  0  0  0  0  0  0  0
  -24.0190   -5.8051   21.1122 F   0  0  0  0  0  0  0  0  0  0  0  0
  1  2  1  0  0  0  0
  1  6  2  0  0  0  0
  2  7  2  0  0  0  0
  3 14  1  0  0  0  0
  3 15  2  0  0  0  0
  4  9  2  0  0  0  0
  4 18  1  0  0  0  0
  5 10  1  0  0  0  0
  5 18  2  0  0  0  0
  6 20  1  0  0  0  0
  7 22  1  0  0  0  0
  8 11  2  0  0  0  0
  8 21  1  0  0  0  0
  9 24  1  0  0  0  0
 10 24  2  0  0  0  0
 11 25  1  0  0  0  0
 12 13  2  0  0  0  0
 12 26  1  0  0  0  0
 13 27  1  0  0  0  0
 14 30  2  0  0  0  0
 15 31  1  0  0  0  0
 16 23  1  0  0  0  0
 16 25  2  0  0  0  0
 17 27  2  0  0  0  0
 17 28  1  0  0  0  0
 18 29  1  0  0  0  0
 19 29  1  0  0  0  0
 19 32  2  0  0  0  0
 19 33  1  0  0  0  0
 20 22  2  0  0  0  0
 20 38  1  0  0  0  0
 21 23  2  0  0  0  0
 21 39  1  0  0  0  0
 22 47  1  0  0  0  0
 23 40  1  0  0  0  0
 24 78  1  0  0  0  0
 25 79  1  0  0  0  0
 26 28  2  0  0  0  0
 26 78  1  0  0  0  0
 27 80  1  0  0  0  0
 28 81  1  0  0  0  0
 29 61  2  0  0  0  0
 30 55  1  0  0  0  0
 30 62  1  0  0  0  0
 31 62  2  0  0  0  0
 31 68  1  0  0  0  0
 32 63  1  0  0  0  0
 32 66  1  0  0  0  0
 33 67  1  0  0  0  0
 33 73  2  0  0  0  0
 34 48  1  0  0  0  0
 34 69  1  0  0  0  0
 34 74  2  0  0  0  0
 35 58  1  0  0  0  0
 35 64  1  0  0  0  0
 35 75  2  0  0  0  0
 36 59  1  0  0  0  0
 36 70  1  0  0  0  0
 36 76  2  0  0  0  0
 37 65  1  0  0  0  0
 37 71  1  0  0  0  0
 37 77  2  0  0  0  0
 38 41  1  0  0  0  0
 39 48  1  0  0  0  0
 40 64  1  0  0  0  0
 41 43  1  0  0  0  0
 42 44  1  0  0  0  0
 42 45  1  0  0  0  0
 43 47  1  0  0  0  0
 44 49  1  0  0  0  0
 45 65  1  0  0  0  0
 46 49  1  0  0  0  0
 46 65  1  0  0  0  0
 47 69  1  0  0  0  0
 48 64  1  0  0  0  0
 49 63  1  0  0  0  0
 50 59  1  0  0  0  0
 51 60  1  0  0  0  0
 52 60  1  0  0  0  0
 53 60  1  0  0  0  0
 54 72  1  0  0  0  0
 55 71  1  0  0  0  0
 56 57  1  0  0  0  0
 56 68  1  0  0  0  0
 57 79  1  0  0  0  0
 58 60  1  0  0  0  0
 58 70  1  0  0  0  0
 59 72  1  0  0  0  0
 61 63  1  0  0  0  0
M  CHG  1  72   1
M  ISO  4  37 100  57 101  71 100  79 101
M  END
> <Batch ID>
0199

> <Smiles>
CNC(C)C(=O)NC(C(=O)N1Cc2cc([101O:1][101CH2:1]CNc3cccc(C[100NH:0][100C:0](=O)N4CCCC(n5nc(-c6ccc(Oc7ccc(F)cc7F)cc6)c(C(N)=O)c5N)C4)n3)ccc2CC1C(=O)NC1CCCc2ccccc21)C(C)(C)C

> <Shape>
0.154

> <Color>
0.191

> <Negative vol penalty>
0.000

$$$$

  -OEChem-04052305473D

 82 90  0     1  0  0  0  0  0999 V2000
  -24.4346  -20.2277   26.9811 C   0  0  0  0  0  0  0  0  0  0  0  0
  -25.3961  -20.9113   26.2437 C   0  0  0  0  0  0  0  0  0  0  0  0
  -26.8974  -12.2453   21.7718 C   0  0  0  0  0  0  0  0  0  0  0  0
  -26.0839  -13.9770   20.2965 C   0  0  0  0  0  0  0  0  0  0  0  0
  -23.0849  -20.5397   26.8235 C   0  0  0  0  0  0  0  0  0  0  0  0
  -25.0082  -21.9066   25.3474 C   0  0  0  0  0  0  0  0  0  0  0  0
  -27.8886  -26.0577   25.6883 C   0  0  0  0  0  0  0  0  0  0  0  0
  -25.6025  -11.7418   21.8949 C   0  0  0  0  0  0  0  0  0  0  0  0
  -24.7889  -13.4735   20.4196 C   0  0  0  0  0  0  0  0  0  0  0  0
  -29.1442  -26.0129   25.0840 C   0  0  0  0  0  0  0  0  0  0  0  0
  -23.4913   -9.8261   20.0767 C   0  0  0  0  0  0  0  0  0  0  0  0
  -23.3205   -8.4453   19.9778 C   0  0  0  0  0  0  0  0  0  0  0  0
  -28.2696  -27.2247   23.1905 C   0  0  0  0  0  0  0  0  0  0  0  0
  -22.3970   -8.3996   22.2099 C   0  0  0  0  0  0  0  0  0  0  0  0
  -27.1381  -13.3629   20.9726 C   0  0  0  0  0  0  0  0  0  0  0  0
  -29.4414  -13.5217   19.8874 C   0  0  0  0  0  0  0  0  0  0  0  0
  -22.6810  -21.5460   25.9319 C   0  0  0  0  0  0  0  0  0  0  0  0
  -26.8096  -26.6780   25.0423 C   0  0  0  0  0  0  0  0  0  0  0  0
  -23.6518  -22.2314   25.1767 C   0  0  0  0  0  0  0  0  0  0  0  0
  -27.0019  -27.2784   23.7898 C   0  0  0  0  0  0  0  0  0  0  0  0
  -24.5482  -12.3559   21.2189 C   0  0  0  0  0  0  0  0  0  0  0  0
  -29.3342  -26.5939   23.8336 C   0  0  0  0  0  0  0  0  0  0  0  0
  -23.1150  -10.4937   21.2422 C   0  0  0  0  0  0  0  0  0  0  0  0
  -22.7733   -7.7321   21.0443 C   0  0  0  0  0  0  0  0  0  0  0  0
  -22.5678   -9.7805   22.3088 C   0  0  0  0  0  0  0  0  0  0  0  0
  -28.4755  -13.8838   20.8454 C   0  0  0  0  0  0  0  0  0  0  0  0
  -30.5342  -14.2958   20.1920 C   0  0  0  0  0  0  0  0  0  0  0  0
  -29.5780  -22.6987   19.7582 C   0  0  0  0  0  0  0  0  0  0  0  0
  -30.3712  -21.2739   21.3000 C   0  0  0  0  0  0  0  0  0  0  0  0
  -31.0478  -23.4137   21.2962 C   0  0  0  0  0  0  0  0  0  0  0  0
  -29.3580  -12.5706   18.8177 C   0  0  0  0  0  0  0  0  0  0  0  0
  -23.9807  -25.7069   23.9661 C   0  0  0  0  0  0  0  0  0  0  0  0
  -23.5467  -28.8711   23.3987 C   0  0  0  0  0  0  0  0  0  0  0  0
  -24.9462  -31.9300   22.8231 C   0  0  0  0  0  0  0  0  0  0  0  0
  -31.1689  -19.5538   22.9588 C   0  0  0  0  0  0  0  0  0  0  0  0
  -21.2070  -21.8154   25.7607 C   0  0  0  0  0  0  0  0  0  0  0  0
  -25.4679  -26.7413   25.7194 C   0  0  0  0  0  0  0  0  0  0  0  0
  -25.8809  -27.9743   23.0635 C   0  0  0  0  0  0  0  0  0  0  0  0
  -20.9068  -23.1412   25.0660 C   0  0  0  0  0  0  0  0  0  0  0  0
  -32.6749  -16.4639   23.8868 C   0  0  0  0  0  0  0  0  0  0  0  0
  -21.7872  -23.3084   23.8316 C   0  0  0  0  0  0  0  0  0  0  0  0
  -31.8607  -15.4191   23.1203 C   0  0  0  0  0  0  0  0  0  0  0  0
  -31.7998  -17.6151   24.3795 C   0  0  0  0  0  0  0  0  0  0  0  0
  -30.1678  -17.2154   22.5778 C   0  0  0  0  0  0  0  0  0  0  0  0
  -23.2723  -23.3345   24.2127 C   0  0  1  0  0  0  0  0  0  0  0  0
  -24.3148  -26.9492   24.7425 C   0  0  1  0  0  0  0  0  0  0  0  0
  -31.0171  -16.0687   22.0058 C   0  0  2  0  0  0  0  0  0  0  0  0
  -24.3362  -34.3195   22.3589 C   0  0  0  0  0  0  0  0  0  0  0  0
  -33.1063  -26.4702   21.7891 C   0  0  0  0  0  0  0  0  0  0  0  0
  -22.8505  -28.1318   20.5214 C   0  0  0  0  0  0  0  0  0  0  0  0
  -23.1854  -30.5331   19.8970 C   0  0  0  0  0  0  0  0  0  0  0  0
  -21.4002  -29.9063   21.5226 C   0  0  0  0  0  0  0  0  0  0  0  0
  -26.2901  -32.8729   25.2856 C   0  0  0  0  0  0  0  0  0  0  0  0
  -30.5896  -26.5315   21.8147 C   0  0  0  0  0  0  0  0  0  1  0  0
  -23.8225  -29.7969   22.2386 C   0  0  1  0  0  0  0  0  0  0  0  0
  -24.6714  -33.2938   23.4305 C   0  0  2  0  0  0  0  0  0  0  0  0
  -31.8281  -25.7835   21.3262 C   0  0  2  0  0  0  0  0  0  0  0  0
  -22.8355  -29.5773   21.0575 C   0  0  0  0  0  0  0  0  0  0  0  0
  -28.9161  -14.8154   21.6952 N   0  0  0  0  0  0  0  0  0  0  0  0
  -29.5674  -21.4445   20.2382 N   0  0  0  0  0  0  0  0  0  0  0  0
  -30.2907  -23.7325   20.2340 N   0  0  0  0  0  0  0  0  0  0  0  0
  -31.1389  -22.2091   21.8823 N   0  0  0  0  0  0  0  0  0  0  0  0
  -30.1709  -15.0451   21.2722 N   0  0  0  0  0  0  0  0  0  0  0  0
  -24.5863  -28.0042   23.7639 N   0  0  0  0  0  0  0  0  0  0  0  0
  -31.0333  -18.1841   23.2688 N   0  0  0  0  0  0  0  0  0  0  0  0
  -31.7610  -14.4018   19.6387 N   0  0  0  0  0  0  0  0  0  0  0  0
  -28.7542  -22.9561   18.6410 N   0  0  0  0  0  0  0  0  0  0  0  0
  -28.1615  -11.8613   18.6460 N   0  0  0  0  0  0  0  0  0  0  0  0
  -30.4162  -19.9742   21.8628 N   0  0  0  0  0  0  0  0  0  0  0  0
  -31.8116  -24.4291   21.8416 N   0  0  0  0  0  0  0  0  0  0  0  0
  -23.6324  -24.6271   24.7549 N   0  0  0  0  0  0  0  0  0  0  0  0
  -23.8099  -31.1499   22.7842 N   0  0  0  0  0  0  0  0  0  0  0  0
  -25.8634  -33.7746   24.1848 N   0  3  0  0  0  0  0  0  0  0  0  0
  -30.3218  -12.3444   18.0473 O   0  0  0  0  0  0  0  0  0  0  0  0
  -24.0335  -25.7270   22.7419 O   0  0  0  0  0  0  0  0  0  0  0  0
  -22.4517  -28.9204   23.9646 O   0  0  0  0  0  0  0  0  0  0  0  0
  -26.0569  -31.5919   22.4199 O   0  0  0  0  0  0  0  0  0  0  0  0
  -31.9199  -20.2931   23.6003 O   0  0  0  0  0  0  0  0  0  0  0  0
  -23.2845  -11.8647   21.3386 O   0  0  0  0  0  0  0  0  0  0  0  0
  -30.5586  -26.5509   23.2413 O   0  0  0  0  0  0  0  0  0  1  0  0
  -22.6079   -6.4063   20.9486 F   0  0  0  0  0  0  0  0  0  0  0  0
  -22.2034  -10.4165   23.4306 F   0  0  0  0  0  0  0  0  0  0  0  0
  1  2  1  0  0  0  0
  1  5  2  0  0  0  0
  2  6  2  0  0  0  0
  3  8  2  0  0  0  0
  3 15  1  0  0  0  0
  4  9  1  0  0  0  0
  4 15  2  0  0  0  0
  5 17  1  0  0  0  0
  6 19  1  0  0  0  0
  7 10  2  0  0  0  0
  7 18  1  0  0  0  0
  8 21  1  0  0  0  0
  9 21  2  0  0  0  0
 10 22  1  0  0  0  0
 11 12  2  0  0  0  0
 11 23  1  0  0  0  0
 12 24  1  0  0  0  0
 13 20  1  0  0  0  0
 13 22  2  0  0  0  0
 14 24  2  0  0  0  0
 14 25  1  0  0  0  0
 15 26  1  0  0  0  0
 16 26  1  0  0  0  0
 16 27  2  0  0  0  0
 16 31  1  0  0  0  0
 17 19  2  0  0  0  0
 17 36  1  0  0  0  0
 18 20  2  0  0  0  0
 18 37  1  0  0  0  0
 19 45  1  0  0  0  0
 20 38  1  0  0  0  0
 21 79  1  0  0  0  0
 22 80  1  0  0  0  0
 23 25  2  0  0  0  0
 23 79  1  0  0  0  0
 24 81  1  0  0  0  0
 25 82  1  0  0  0  0
 26 59  2  0  0  0  0
 27 63  1  0  0  0  0
 27 66  1  0  0  0  0
 28 60  1  0  0  0  0
 28 61  2  0  0  0  0
 28 67  1  0  0  0  0
 29 60  2  0  0  0  0
 29 62  1  0  0  0  0
 29 69  1  0  0  0  0
 30 61  1  0  0  0  0
 30 62  2  0  0  0  0
 30 70  1  0  0  0  0
 31 68  1  0  0  0  0
 31 74  2  0  0  0  0
 32 46  1  0  0  0  0
 32 71  1  0  0  0  0
 32 75  2  0  0  0  0
 33 55  1  0  0  0  0
 33 64  1  0  0  0  0
 33 76  2  0  0  0  0
 34 56  1  0  0  0  0
 34 72  1  0  0  0  0
 34 77  2  0  0  0  0
 35 65  1  0  0  0  0
 35 69  1  0  0  0  0
 35 78  2  0  0  0  0
 36 39  1  0  0  0  0
 37 46  1  0  0  0  0
 38 64  1  0  0  0  0
 39 41  1  0  0  0  0
 40 42  1  0  0  0  0
 40 43  1  0  0  0  0
 41 45  1  0  0  0  0
 42 47  1  0  0  0  0
 43 65  1  0  0  0  0
 44 47  1  0  0  0  0
 44 65  1  0  0  0  0
 45 71  1  0  0  0  0
 46 64  1  0  0  0  0
 47 63  1  0  0  0  0
 48 56  1  0  0  0  0
 49 57  1  0  0  0  0
 50 58  1  0  0  0  0
 51 58  1  0  0  0  0
 52 58  1  0  0  0  0
 53 73  1  0  0  0  0
 54 57  1  0  0  0  0
 54 80  1  0  0  0  0
 55 58  1  0  0  0  0
 55 72  1  0  0  0  0
 56 73  1  0  0  0  0
 57 70  1  0  0  0  0
 59 63  1  0  0  0  0
M  CHG  1  73   1
M  ISO  4  35 100  54 101  69 100  80 101
M  END
> <Batch ID>
0199

> <Smiles>
CNC(C)C(=O)NC(C(=O)N1Cc2cc([101O:1][101CH2:1]C(C)Nc3nc(N)nc([100NH:0][100C:0](=O)N4CCCC(n5nc(-c6ccc(Oc7ccc(F)cc7F)cc6)c(C(N)=O)c5N)C4)n3)ccc2CC1C(=O)NC1CCCc2ccccc21)C(C)(C)C

> <Shape>
0.242

> <Color>
0.085

> <Negative vol penalty>
0.000

$$$$

  -OEChem-04052305473D

 88 96  0     1  0  0  0  0  0999 V2000
  -25.0308  -31.4391   24.3557 C   0  0  0  0  0  0  0  0  0  0  0  0
  -24.8325  -30.0736   24.5329 C   0  0  0  0  0  0  0  0  0  0  0  0
  -23.3268   -9.7587   19.9355 C   0  0  0  0  0  0  0  0  0  0  0  0
  -24.4208   -9.4134   22.0618 C   0  0  0  0  0  0  0  0  0  0  0  0
  -25.1998  -31.9570   23.0723 C   0  0  0  0  0  0  0  0  0  0  0  0
  -24.8021  -29.2252   23.4266 C   0  0  0  0  0  0  0  0  0  0  0  0
  -27.5060  -25.0034   24.1410 C   0  0  0  0  0  0  0  0  0  0  0  0
  -22.8695   -8.4411   19.9568 C   0  0  0  0  0  0  0  0  0  0  0  0
  -23.9635   -8.0958   22.0831 C   0  0  0  0  0  0  0  0  0  0  0  0
  -26.9271  -24.0003   24.9171 C   0  0  0  0  0  0  0  0  0  0  0  0
  -21.0867   -6.4707   22.7929 C   0  0  0  0  0  0  0  0  0  0  0  0
  -20.5450   -5.9936   23.9864 C   0  0  0  0  0  0  0  0  0  0  0  0
  -26.3006  -22.8175   22.9102 C   0  0  0  0  0  0  0  0  0  0  0  0
  -22.2387   -4.2725   24.0672 C   0  0  0  0  0  0  0  0  0  0  0  0
  -30.8383  -19.5524   23.0897 C   0  0  0  0  0  0  0  0  0  0  0  0
  -24.1026  -10.2448   20.9879 C   0  0  0  0  0  0  0  0  0  0  0  0
  -23.9246  -12.7404   21.4857 C   0  0  0  0  0  0  0  0  0  0  0  0
  -25.1811  -31.1133   21.9505 C   0  0  0  0  0  0  0  0  0  0  0  0
  -27.4769  -24.9264   22.7411 C   0  0  0  0  0  0  0  0  0  0  0  0
  -24.9697  -29.7325   22.1269 C   0  0  0  0  0  0  0  0  0  0  0  0
  -26.8821  -23.8197   22.1186 C   0  0  0  0  0  0  0  0  0  0  0  0
  -30.0917  -19.9921   24.1637 C   0  0  0  0  0  0  0  0  0  0  0  0
  -23.1878   -7.6097   21.0306 C   0  0  0  0  0  0  0  0  0  0  0  0
  -26.3218  -22.9085   24.3017 C   0  0  0  0  0  0  0  0  0  0  0  0
  -22.2044   -5.8487   22.2365 C   0  0  0  0  0  0  0  0  0  0  0  0
  -21.1210   -4.8946   24.6236 C   0  0  0  0  0  0  0  0  0  0  0  0
  -22.7803   -4.7496   22.8736 C   0  0  0  0  0  0  0  0  0  0  0  0
  -24.5758  -11.6056   20.9662 C   0  0  0  0  0  0  0  0  0  0  0  0
  -29.0323  -19.1849   24.5249 C   0  0  0  0  0  0  0  0  0  0  0  0
  -24.7798  -13.7807   21.2156 C   0  0  0  0  0  0  0  0  0  0  0  0
  -29.5207  -17.7142   22.8619 C   0  0  0  0  0  0  0  0  0  0  0  0
  -22.6599  -12.8449   22.1529 C   0  0  0  0  0  0  0  0  0  0  0  0
  -26.2249  -26.7040   20.4224 C   0  0  0  0  0  0  0  0  0  0  0  0
  -26.6870  -17.7876   26.1193 C   0  0  0  0  0  0  0  0  0  0  0  0
  -27.8290  -24.6375   18.5044 C   0  0  0  0  0  0  0  0  0  0  0  0
  -29.2349  -21.5539   18.1026 C   0  0  0  0  0  0  0  0  0  0  0  0
  -29.8976  -15.9702   21.0834 C   0  0  0  0  0  0  0  0  0  0  0  0
  -25.3212  -31.7256   20.5793 C   0  0  0  0  0  0  0  0  0  0  0  0
  -28.1293  -26.0035   21.9186 C   0  0  0  0  0  0  0  0  0  0  0  0
  -26.8421  -23.6797   20.6195 C   0  0  0  0  0  0  0  0  0  0  0  0
  -25.6499  -30.7090   19.4890 C   0  0  0  0  0  0  0  0  0  0  0  0
  -28.9157  -13.9736   18.3038 C   0  0  0  0  0  0  0  0  0  0  0  0
  -24.7469  -29.4856   19.6100 C   0  0  0  0  0  0  0  0  0  0  0  0
  -27.6455  -13.2729   18.7914 C   0  0  0  0  0  0  0  0  0  0  0  0
  -29.9458  -14.1230   19.4219 C   0  0  0  0  0  0  0  0  0  0  0  0
  -28.1751  -14.0608   21.1336 C   0  0  0  0  0  0  0  0  0  0  0  0
  -24.9552  -28.7768   20.9537 C   0  0  1  0  0  0  0  0  0  0  0  0
  -27.5887  -26.0774   20.4939 C   0  0  1  0  0  0  0  0  0  0  0  0
  -27.0820  -13.9454   20.0586 C   0  0  2  0  0  0  0  0  0  0  0  0
  -25.4901  -17.0491   25.5741 C   0  0  0  0  0  0  0  0  0  0  0  0
  -30.5371  -19.7144   16.9991 C   0  0  0  0  0  0  0  0  0  0  0  0
  -31.8962  -22.9054   25.6270 C   0  0  0  0  0  0  0  0  0  0  0  0
  -31.1134  -22.8460   23.2334 C   0  0  0  0  0  0  0  0  0  0  0  0
  -25.1938  -24.1378   17.0497 C   0  0  0  0  0  0  0  0  0  0  0  0
  -26.2168  -22.0842   16.0475 C   0  0  0  0  0  0  0  0  0  0  0  0
  -27.1904  -24.3277   15.5557 C   0  0  0  0  0  0  0  0  0  0  0  0
  -31.7843  -22.5003   19.2705 C   0  0  0  0  0  0  0  0  0  0  0  0
  -26.1516  -20.2091   26.6837 C   0  0  0  0  0  0  0  0  0  0  0  0
  -26.3263  -21.6869   26.3422 C   0  0  0  0  0  0  0  0  0  1  0  0
  -26.8392  -19.2479   25.7131 C   0  0  1  0  0  0  0  0  0  0  0  0
  -27.5064  -23.3155   17.8509 C   0  0  1  0  0  0  0  0  0  0  0  0
  -30.5875  -21.1261   17.5623 C   0  0  2  0  0  0  0  0  0  0  0  0
  -31.5145  -22.0220   24.4482 C   0  0  0  0  0  0  0  0  0  0  0  0
  -26.5257  -23.4696   16.6542 C   0  0  0  0  0  0  0  0  0  0  0  0
  -30.5801  -18.4140   22.4132 N   0  0  0  0  0  0  0  0  0  0  0  0
  -25.7537  -11.8973   20.4081 N   0  0  0  0  0  0  0  0  0  0  0  0
  -28.7168  -18.0350   23.8936 N   0  0  0  0  0  0  0  0  0  0  0  0
  -25.8494  -13.2273   20.5753 N   0  0  0  0  0  0  0  0  0  0  0  0
  -27.4881  -24.7619   19.8587 N   0  0  0  0  0  0  0  0  0  0  0  0
  -29.3420  -14.7717   20.5879 N   0  0  0  0  0  0  0  0  0  0  0  0
  -24.7137  -15.1057   21.4656 N   0  0  0  0  0  0  0  0  0  0  0  0
  -21.9093  -11.6776   22.3487 N   0  0  0  0  0  0  0  0  0  0  0  0
  -30.4119  -21.1844   24.8262 N   0  0  0  0  0  0  0  0  0  0  0  0
  -28.2451  -19.5716   25.5951 N   0  0  0  0  0  0  0  0  0  0  0  0
  -29.2194  -16.5122   22.1747 N   0  0  0  0  0  0  0  0  0  0  0  0
  -26.1691  -27.9893   20.9268 N   0  0  0  0  0  0  0  0  0  0  0  0
  -28.7867  -22.7103   17.5001 N   0  0  0  0  0  0  0  0  0  0  0  0
  -31.6128  -21.1647   18.6431 N   0  3  0  0  0  0  0  0  0  0  0  0
  -22.2012  -13.9433   22.5487 O   0  0  0  0  0  0  0  0  0  0  0  0
  -25.2926  -26.0690   19.9436 O   0  0  0  0  0  0  0  0  0  0  0  0
  -27.4864  -17.2196   26.8641 O   0  0  0  0  0  0  0  0  0  0  0  0
  -28.3703  -25.5245   17.8396 O   0  0  0  0  0  0  0  0  0  0  0  0
  -28.6342  -20.9230   18.9697 O   0  0  0  0  0  0  0  0  0  0  0  0
  -30.8849  -16.4929   20.5600 O   0  0  0  0  0  0  0  0  0  0  0  0
  -22.7415   -6.3240   21.0519 O   0  0  0  0  0  0  0  0  0  0  0  0
  -25.7554  -21.9283   25.0568 O   0  0  0  0  0  0  0  0  0  1  0  0
  -20.6016   -4.4375   25.7705 F   0  0  0  0  0  0  0  0  0  0  0  0
  -23.8549   -4.1486   22.3445 F   0  0  0  0  0  0  0  0  0  0  0  0
  1  2  1  0  0  0  0
  1  5  2  0  0  0  0
  2  6  2  0  0  0  0
  3  8  2  0  0  0  0
  3 16  1  0  0  0  0
  4  9  1  0  0  0  0
  4 16  2  0  0  0  0
  5 18  1  0  0  0  0
  6 20  1  0  0  0  0
  7 10  2  0  0  0  0
  7 19  1  0  0  0  0
  8 23  1  0  0  0  0
  9 23  2  0  0  0  0
 10 24  1  0  0  0  0
 11 12  2  0  0  0  0
 11 25  1  0  0  0  0
 12 26  1  0  0  0  0
 13 21  1  0  0  0  0
 13 24  2  0  0  0  0
 14 26  2  0  0  0  0
 14 27  1  0  0  0  0
 15 22  1  0  0  0  0
 15 65  2  0  0  0  0
 16 28  1  0  0  0  0
 17 28  1  0  0  0  0
 17 30  2  0  0  0  0
 17 32  1  0  0  0  0
 18 20  2  0  0  0  0
 18 38  1  0  0  0  0
 19 21  2  0  0  0  0
 19 39  1  0  0  0  0
 20 47  1  0  0  0  0
 21 40  1  0  0  0  0
 22 29  2  0  0  0  0
 22 73  1  0  0  0  0
 23 85  1  0  0  0  0
 24 86  1  0  0  0  0
 25 27  2  0  0  0  0
 25 85  1  0  0  0  0
 26 87  1  0  0  0  0
 27 88  1  0  0  0  0
 28 66  2  0  0  0  0
 29 67  1  0  0  0  0
 29 74  1  0  0  0  0
 30 68  1  0  0  0  0
 30 71  1  0  0  0  0
 31 65  1  0  0  0  0
 31 67  2  0  0  0  0
 31 75  1  0  0  0  0
 32 72  1  0  0  0  0
 32 79  2  0  0  0  0
 33 48  1  0  0  0  0
 33 76  1  0  0  0  0
 33 80  2  0  0  0  0
 34 50  1  0  0  0  0
 34 60  1  0  0  0  0
 34 81  2  0  0  0  0
 35 61  1  0  0  0  0
 35 69  1  0  0  0  0
 35 82  2  0  0  0  0
 36 62  1  0  0  0  0
 36 77  1  0  0  0  0
 36 83  2  0  0  0  0
 37 70  1  0  0  0  0
 37 75  1  0  0  0  0
 37 84  2  0  0  0  0
 38 41  1  0  0  0  0
 39 48  1  0  0  0  0
 40 69  1  0  0  0  0
 41 43  1  0  0  0  0
 42 44  1  0  0  0  0
 42 45  1  0  0  0  0
 43 47  1  0  0  0  0
 44 49  1  0  0  0  0
 45 70  1  0  0  0  0
 46 49  1  0  0  0  0
 46 70  1  0  0  0  0
 47 76  1  0  0  0  0
 48 69  1  0  0  0  0
 49 68  1  0  0  0  0
 51 62  1  0  0  0  0
 52 63  1  0  0  0  0
 53 63  1  0  0  0  0
 54 64  1  0  0  0  0
 55 64  1  0  0  0  0
 56 64  1  0  0  0  0
 57 78  1  0  0  0  0
 58 59  1  0  0  0  0
 58 60  1  0  0  0  0
 59 86  1  0  0  0  0
 60 74  1  0  0  0  0
 61 64  1  0  0  0  0
 61 77  1  0  0  0  0
 62 78  1  0  0  0  0
 63 73  1  0  0  0  0
 66 68  1  0  0  0  0
M  CHG  1  78   1
M  ISO  4  37 100  59 101  75 100  86 101
M  END
> <Batch ID>
0199

> <Smiles>
CNC(C)C(=O)NC(C(=O)N1Cc2cc([101O:1][101CH2:1]CC(Nc3nc([100NH:0][100C:0](=O)N4CCCC(n5nc(-c6ccc(Oc7ccc(F)cc7F)cc6)c(C(N)=O)c5N)C4)ncc3NC(C)C)C(C)=O)ccc2CC1C(=O)NC1CCCc2ccccc21)C(C)(C)C

> <Shape>
0.246

> <Color>
0.102

> <Negative vol penalty>
0.000

$$$$

  -OEChem-04052305473D

 86 94  0     1  0  0  0  0  0999 V2000
  -26.8608  -24.1628   16.6644 C   0  0  0  0  0  0  0  0  0  0  0  0
  -25.7145  -24.5844   17.3304 C   0  0  0  0  0  0  0  0  0  0  0  0
  -26.7048  -13.9277   20.5202 C   0  0  0  0  0  0  0  0  0  0  0  0
  -24.3076  -14.1836   20.3620 C   0  0  0  0  0  0  0  0  0  0  0  0
  -28.1175  -24.4194   17.2110 C   0  0  0  0  0  0  0  0  0  0  0  0
  -25.8243  -25.2620   18.5442 C   0  0  0  0  0  0  0  0  0  0  0  0
  -22.7843  -29.3045   18.7941 C   0  0  0  0  0  0  0  0  0  0  0  0
  -26.5312  -12.7304   21.2144 C   0  0  0  0  0  0  0  0  0  0  0  0
  -24.1339  -12.9863   21.0562 C   0  0  0  0  0  0  0  0  0  0  0  0
  -21.4347  -29.0711   19.0546 C   0  0  0  0  0  0  0  0  0  0  0  0
  -23.0603   -9.8143   22.4717 C   0  0  0  0  0  0  0  0  0  0  0  0
  -22.1156   -8.9117   21.9834 C   0  0  0  0  0  0  0  0  0  0  0  0
  -20.8047  -21.6564   20.4645 C   0  0  0  0  0  0  0  0  0  0  0  0
  -21.7868  -29.6544   21.3687 C   0  0  0  0  0  0  0  0  0  0  0  0
  -23.3271   -8.7720   19.8978 C   0  0  0  0  0  0  0  0  0  0  0  0
  -25.5930  -14.6543   20.0940 C   0  0  0  0  0  0  0  0  0  0  0  0
  -19.6009  -22.3516   20.4347 C   0  0  0  0  0  0  0  0  0  0  0  0
  -25.8813  -16.0584   17.9838 C   0  0  0  0  0  0  0  0  0  0  0  0
  -28.2430  -25.1090   18.4273 C   0  0  0  0  0  0  0  0  0  0  0  0
  -23.6490  -29.7047   19.8229 C   0  0  0  0  0  0  0  0  0  0  0  0
  -27.0837  -25.5269   19.1083 C   0  0  0  0  0  0  0  0  0  0  0  0
  -23.1464  -29.8946   21.1181 C   0  0  0  0  0  0  0  0  0  0  0  0
  -19.5845  -23.7145   20.7094 C   0  0  0  0  0  0  0  0  0  0  0  0
  -25.2458  -12.2597   21.4824 C   0  0  0  0  0  0  0  0  0  0  0  0
  -20.9364  -29.2432   20.3427 C   0  0  0  0  0  0  0  0  0  0  0  0
  -24.1385  -10.1958   21.6731 C   0  0  0  0  0  0  0  0  0  0  0  0
  -22.2490   -8.3906   20.6964 C   0  0  0  0  0  0  0  0  0  0  0  0
  -24.2719   -9.6746   20.3861 C   0  0  0  0  0  0  0  0  0  0  0  0
  -25.7717  -15.8915   19.3773 C   0  0  0  0  0  0  0  0  0  0  0  0
  -21.9552  -22.3647   20.7719 C   0  0  0  0  0  0  0  0  0  0  0  0
  -20.7896  -24.3306   21.0060 C   0  0  0  0  0  0  0  0  0  0  0  0
  -26.0363  -17.4122   17.8113 C   0  0  0  0  0  0  0  0  0  0  0  0
  -18.3801  -21.6232   20.1133 C   0  0  0  0  0  0  0  0  0  0  0  0
  -25.8460  -15.0775   16.9387 C   0  0  0  0  0  0  0  0  0  0  0  0
  -26.2429  -28.4677   21.1814 C   0  0  0  0  0  0  0  0  0  0  0  0
  -26.3070  -31.3117   22.7402 C   0  0  0  0  0  0  0  0  0  0  0  0
  -24.5921  -34.0429   23.8566 C   0  0  0  0  0  0  0  0  0  0  0  0
  -24.4461  -22.1527   21.0830 C   0  0  0  0  0  0  0  0  0  0  0  0
  -29.6210  -25.3216   19.0024 C   0  0  0  0  0  0  0  0  0  0  0  0
  -25.0967  -29.9782   19.5199 C   0  0  0  0  0  0  0  0  0  0  0  0
  -24.0289  -30.3427   22.2534 C   0  0  0  0  0  0  0  0  0  0  0  0
  -29.6643  -26.3748   20.1065 C   0  0  0  0  0  0  0  0  0  0  0  0
  -27.7388  -21.2993   20.0309 C   0  0  0  0  0  0  0  0  0  0  0  0
  -28.5281  -26.1539   21.0999 C   0  0  0  0  0  0  0  0  0  0  0  0
  -27.6166  -19.8326   19.6113 C   0  0  0  0  0  0  0  0  0  0  0  0
  -26.8671  -21.6165   21.2447 C   0  0  0  0  0  0  0  0  0  0  0  0
  -25.3326  -19.7702   20.6915 C   0  0  0  0  0  0  0  0  0  0  0  0
  -27.1626  -26.2866   20.4148 C   0  0  1  0  0  0  0  0  0  0  0  0
  -25.9928  -29.8854   20.7511 C   0  0  1  0  0  0  0  0  0  0  0  0
  -26.1428  -19.4184   19.4331 C   0  0  2  0  0  0  0  0  0  0  0  0
  -24.9076  -36.1813   25.1314 C   0  0  0  0  0  0  0  0  0  0  0  0
  -26.4182  -29.7361   25.3508 C   0  0  0  0  0  0  0  0  0  0  0  0
  -25.7782  -31.8319   26.5618 C   0  0  0  0  0  0  0  0  0  0  0  0
  -27.9141  -31.7389   25.2765 C   0  0  0  0  0  0  0  0  0  0  0  0
  -23.7456  -35.6828   21.5429 C   0  0  0  0  0  0  0  0  0  0  0  0
  -17.8378  -27.4125   20.6135 C   0  0  0  0  0  0  0  0  0  0  0  0
  -17.8750  -25.0756   19.5049 C   0  0  0  0  0  0  0  0  0  0  0  0
  -18.9613  -28.0355   19.7982 C   0  0  0  0  0  0  0  0  0  1  0  0
  -25.7188  -31.8393   24.0266 C   0  0  1  0  0  0  0  0  0  0  0  0
  -24.8892  -35.5284   23.7581 C   0  0  2  0  0  0  0  0  0  0  0  0
  -17.0638  -26.3206   19.8674 C   0  0  1  0  0  0  0  0  0  0  0  0
  -26.4408  -31.2762   25.2832 C   0  0  0  0  0  0  0  0  0  0  0  0
  -25.8505  -17.0468   20.0428 N   0  0  0  0  0  0  0  0  0  0  0  0
  -21.9788  -23.6886   21.0444 N   0  0  0  0  0  0  0  0  0  0  0  0
  -18.3560  -20.3518   19.8516 N   0  0  0  0  0  0  0  0  0  0  0  0
  -26.0115  -17.9527   19.0633 N   0  0  0  0  0  0  0  0  0  0  0  0
  -25.4384  -30.5913   21.9081 N   0  0  0  0  0  0  0  0  0  0  0  0
  -25.4841  -21.2005   21.0016 N   0  0  0  0  0  0  0  0  0  0  0  0
  -20.7849  -25.7202   21.2870 N   0  0  0  0  0  0  0  0  0  0  0  0
  -26.1902  -18.1811   16.7124 N   0  0  0  0  0  0  0  0  0  0  0  0
  -25.6798  -13.7313   17.2912 N   0  0  0  0  0  0  0  0  0  0  0  0
  -18.3968  -24.4265   20.6858 N   0  0  0  0  0  0  0  0  0  0  0  0
  -23.1772  -21.6481   20.8001 N   0  0  0  0  0  0  0  0  0  0  0  0
  -26.8329  -27.6809   20.2107 N   0  0  0  0  0  0  0  0  0  0  0  0
  -25.7481  -33.2941   23.9223 N   0  0  0  0  0  0  0  0  0  0  0  0
  -23.8559  -36.2093   22.9277 N   0  3  0  0  0  0  0  0  0  0  0  0
  -25.9750  -15.3840   15.7291 O   0  0  0  0  0  0  0  0  0  0  0  0
  -25.9255  -28.1142   22.3110 O   0  0  0  0  0  0  0  0  0  0  0  0
  -27.4915  -31.5368   22.4799 O   0  0  0  0  0  0  0  0  0  0  0  0
  -23.4489  -33.5922   23.8773 O   0  0  0  0  0  0  0  0  0  0  0  0
  -24.6699  -23.3351   21.3549 O   0  0  0  0  0  0  0  0  0  0  0  0
  -15.9506  -25.9125   20.6647 O   0  0  0  0  0  0  0  0  0  0  0  0
  -25.0760  -11.0913   22.1596 O   0  0  0  0  0  0  0  0  0  0  0  0
  -19.6196  -29.0155   20.5999 O   0  0  0  0  0  0  0  0  0  1  0  0
  -21.3425   -7.5227   20.2282 F   0  0  0  0  0  0  0  0  0  0  0  0
  -25.3061  -10.0365   19.6146 F   0  0  0  0  0  0  0  0  0  0  0  0
  1  2  1  0  0  0  0
  1  5  2  0  0  0  0
  2  6  2  0  0  0  0
  3  8  2  0  0  0  0
  3 16  1  0  0  0  0
  4  9  1  0  0  0  0
  4 16  2  0  0  0  0
  5 19  1  0  0  0  0
  6 21  1  0  0  0  0
  7 10  2  0  0  0  0
  7 20  1  0  0  0  0
  8 24  1  0  0  0  0
  9 24  2  0  0  0  0
 10 25  1  0  0  0  0
 11 12  2  0  0  0  0
 11 26  1  0  0  0  0
 12 27  1  0  0  0  0
 13 17  2  0  0  0  0
 13 30  1  0  0  0  0
 14 22  1  0  0  0  0
 14 25  2  0  0  0  0
 15 27  2  0  0  0  0
 15 28  1  0  0  0  0
 16 29  1  0  0  0  0
 17 23  1  0  0  0  0
 17 33  1  0  0  0  0
 18 29  1  0  0  0  0
 18 32  2  0  0  0  0
 18 34  1  0  0  0  0
 19 21  2  0  0  0  0
 19 39  1  0  0  0  0
 20 22  2  0  0  0  0
 20 40  1  0  0  0  0
 21 48  1  0  0  0  0
 22 41  1  0  0  0  0
 23 31  2  0  0  0  0
 23 72  1  0  0  0  0
 24 83  1  0  0  0  0
 25 84  1  0  0  0  0
 26 28  2  0  0  0  0
 26 83  1  0  0  0  0
 27 85  1  0  0  0  0
 28 86  1  0  0  0  0
 29 63  2  0  0  0  0
 30 64  2  0  0  0  0
 30 73  1  0  0  0  0
 31 64  1  0  0  0  0
 31 69  1  0  0  0  0
 32 66  1  0  0  0  0
 32 70  1  0  0  0  0
 33 65  2  0  0  0  0
 34 71  1  0  0  0  0
 34 77  2  0  0  0  0
 35 49  1  0  0  0  0
 35 74  1  0  0  0  0
 35 78  2  0  0  0  0
 36 59  1  0  0  0  0
 36 67  1  0  0  0  0
 36 79  2  0  0  0  0
 37 60  1  0  0  0  0
 37 75  1  0  0  0  0
 37 80  2  0  0  0  0
 38 68  1  0  0  0  0
 38 73  1  0  0  0  0
 38 81  2  0  0  0  0
 39 42  1  0  0  0  0
 40 49  1  0  0  0  0
 41 67  1  0  0  0  0
 42 44  1  0  0  0  0
 43 45  1  0  0  0  0
 43 46  1  0  0  0  0
 44 48  1  0  0  0  0
 45 50  1  0  0  0  0
 46 68  1  0  0  0  0
 47 50  1  0  0  0  0
 47 68  1  0  0  0  0
 48 74  1  0  0  0  0
 49 67  1  0  0  0  0
 50 66  1  0  0  0  0
 51 60  1  0  0  0  0
 52 62  1  0  0  0  0
 53 62  1  0  0  0  0
 54 62  1  0  0  0  0
 55 76  1  0  0  0  0
 56 58  1  0  0  0  0
 56 61  1  0  0  0  0
 57 61  1  0  0  0  0
 57 72  1  0  0  0  0
 58 84  1  0  0  0  0
 59 62  1  0  0  0  0
 59 75  1  0  0  0  0
 60 76  1  0  0  0  0
 61 82  1  0  0  0  0
 63 66  1  0  0  0  0
M  CHG  1  76   1
M  ISO  4  38 100  58 101  73 100  84 101
M  END
> <Batch ID>
0199

> <Smiles>
CNC(C)C(=O)NC(C(=O)N1Cc2cc([101O:1][101CH2:1]CC(O)CNc3c(C=N)cc([100NH:0][100C:0](=O)N4CCCC(n5nc(-c6ccc(Oc7ccc(F)cc7F)cc6)c(C(N)=O)c5N)C4)nc3N)ccc2CC1C(=O)NC1CCCc2ccccc21)C(C)(C)C

> <Shape>
0.266

> <Color>
0.071

> <Negative vol penalty>
0.000

$$$$

  -OEChem-04052305473D

 82 90  0     1  0  0  0  0  0999 V2000
  -20.4813  -34.1743   20.8562 C   0  0  0  0  0  0  0  0  0  0  0  0
  -21.6453  -33.5061   20.4903 C   0  0  0  0  0  0  0  0  0  0  0  0
  -23.8097   -9.8419   21.7871 C   0  0  0  0  0  0  0  0  0  0  0  0
  -24.5020  -11.0848   23.7398 C   0  0  0  0  0  0  0  0  0  0  0  0
  -19.7526  -33.7465   21.9652 C   0  0  0  0  0  0  0  0  0  0  0  0
  -22.0820  -32.4103   21.2339 C   0  0  0  0  0  0  0  0  0  0  0  0
  -24.9210  -27.4164   19.1110 C   0  0  0  0  0  0  0  0  0  0  0  0
  -28.8315  -20.5474   19.7801 C   0  0  0  0  0  0  0  0  0  0  0  0
  -23.3187   -8.8263   22.6076 C   0  0  0  0  0  0  0  0  0  0  0  0
  -24.0109  -10.0693   24.5603 C   0  0  0  0  0  0  0  0  0  0  0  0
  -26.2651  -27.0485   19.0679 C   0  0  0  0  0  0  0  0  0  0  0  0
  -20.5723   -8.2590   24.4966 C   0  0  0  0  0  0  0  0  0  0  0  0
  -19.3148   -7.7349   24.1974 C   0  0  0  0  0  0  0  0  0  0  0  0
  -28.6345  -19.1916   20.0173 C   0  0  0  0  0  0  0  0  0  0  0  0
  -25.9818  -25.7970   21.1106 C   0  0  0  0  0  0  0  0  0  0  0  0
  -20.2973   -5.5480   23.8990 C   0  0  0  0  0  0  0  0  0  0  0  0
  -30.9042  -20.0118   18.7440 C   0  0  0  0  0  0  0  0  0  0  0  0
  -24.4014  -10.9711   22.3532 C   0  0  0  0  0  0  0  0  0  0  0  0
  -24.2092  -13.1478   21.0369 C   0  0  0  0  0  0  0  0  0  0  0  0
  -20.1753  -32.6389   22.7171 C   0  0  0  0  0  0  0  0  0  0  0  0
  -24.0984  -26.9855   20.1618 C   0  0  0  0  0  0  0  0  0  0  0  0
  -21.3590  -31.9681   22.3548 C   0  0  0  0  0  0  0  0  0  0  0  0
  -24.6270  -26.1587   21.1634 C   0  0  0  0  0  0  0  0  0  0  0  0
  -29.9853  -20.9736   19.1318 C   0  0  0  0  0  0  0  0  0  0  0  0
  -23.4193   -8.9400   23.9941 C   0  0  0  0  0  0  0  0  0  0  0  0
  -26.7964  -26.2411   20.0694 C   0  0  0  0  0  0  0  0  0  0  0  0
  -21.6924   -7.4276   24.4970 C   0  0  0  0  0  0  0  0  0  0  0  0
  -19.1773   -6.3794   23.8986 C   0  0  0  0  0  0  0  0  0  0  0  0
  -21.5549   -6.0721   24.1982 C   0  0  0  0  0  0  0  0  0  0  0  0
  -24.9093  -12.0203   21.5062 C   0  0  0  0  0  0  0  0  0  0  0  0
  -29.6138  -18.3095   19.5896 C   0  0  0  0  0  0  0  0  0  0  0  0
  -25.1277  -13.8308   20.2777 C   0  0  0  0  0  0  0  0  0  0  0  0
  -22.8502  -13.5426   21.2669 C   0  0  0  0  0  0  0  0  0  0  0  0
  -22.4428  -28.4370   22.4544 C   0  0  0  0  0  0  0  0  0  0  0  0
  -21.3832  -25.4304   23.0544 C   0  0  0  0  0  0  0  0  0  0  0  0
  -21.9195  -22.0684   22.8179 C   0  0  0  0  0  0  0  0  0  0  0  0
  -30.2485  -15.8733   19.4982 C   0  0  0  0  0  0  0  0  0  0  0  0
  -19.3801  -32.2426   23.9358 C   0  0  0  0  0  0  0  0  0  0  0  0
  -22.6442  -27.3691   20.1795 C   0  0  0  0  0  0  0  0  0  0  0  0
  -23.7812  -25.6528   22.3023 C   0  0  0  0  0  0  0  0  0  0  0  0
  -19.7082  -30.8427   24.4485 C   0  0  0  0  0  0  0  0  0  0  0  0
  -29.7155  -12.4602   18.6359 C   0  0  0  0  0  0  0  0  0  0  0  0
  -21.2185  -30.6382   24.5129 C   0  0  0  0  0  0  0  0  0  0  0  0
  -28.3600  -12.1342   19.2672 C   0  0  0  0  0  0  0  0  0  0  0  0
  -30.5364  -13.4051   19.5117 C   0  0  0  0  0  0  0  0  0  0  0  0
  -28.4908  -14.3124   20.5421 C   0  0  0  0  0  0  0  0  0  0  0  0
  -21.8516  -30.7600   23.1216 C   0  0  1  0  0  0  0  0  0  0  0  0
  -22.0238  -27.2958   21.5713 C   0  0  1  0  0  0  0  0  0  0  0  0
  -27.6014  -13.4153   19.6660 C   0  0  2  0  0  0  0  0  0  0  0  0
  -20.8945  -19.8620   23.4331 C   0  0  0  0  0  0  0  0  0  0  0  0
  -22.2548  -25.8356   25.9502 C   0  0  0  0  0  0  0  0  0  0  0  0
  -22.1003  -23.3574   26.2704 C   0  0  0  0  0  0  0  0  0  0  0  0
  -20.0616  -24.6658   25.6749 C   0  0  0  0  0  0  0  0  0  0  0  0
  -21.7188  -21.2400   19.9838 C   0  0  0  0  0  0  0  0  0  0  0  0
  -29.2877  -23.3658   19.2605 C   0  0  0  0  0  0  0  0  0  0  0  0
  -28.7105  -25.7613   18.7420 C   0  0  0  0  0  0  0  0  0  1  0  0
  -21.8466  -24.2874   23.9248 C   0  0  1  0  0  0  0  0  0  0  0  0
  -21.0192  -20.9344   22.3620 C   0  0  2  0  0  0  0  0  0  0  0  0
  -29.8251  -24.7230   18.8109 C   0  0  1  0  0  0  0  0  0  0  0  0
  -21.5825  -24.5475   25.4348 C   0  0  0  0  0  0  0  0  0  0  0  0
  -30.7476  -18.6860   18.9569 N   0  0  0  0  0  0  0  0  0  0  0  0
  -26.1748  -11.9851   21.0805 N   0  0  0  0  0  0  0  0  0  0  0  0
  -26.2772  -13.0991   20.3357 N   0  0  0  0  0  0  0  0  0  0  0  0
  -22.3667  -26.0604   22.2787 N   0  0  0  0  0  0  0  0  0  0  0  0
  -29.7552  -14.5980   19.8460 N   0  0  0  0  0  0  0  0  0  0  0  0
  -25.0560  -14.9798   19.5726 N   0  0  0  0  0  0  0  0  0  0  0  0
  -22.0442  -12.7259   22.0716 N   0  0  0  0  0  0  0  0  0  0  0  0
  -30.2079  -22.3171   18.8814 N   0  0  0  0  0  0  0  0  0  0  0  0
  -29.4044  -16.9302   19.8373 N   0  0  0  0  0  0  0  0  0  0  0  0
  -21.6303  -29.5506   22.3581 N   0  0  0  0  0  0  0  0  0  0  0  0
  -21.1995  -23.0885   23.4029 N   0  0  0  0  0  0  0  0  0  0  0  0
  -21.5654  -20.3038   21.1271 N   0  3  0  0  0  0  0  0  0  0  0  0
  -22.3602  -14.5802   20.7599 O   0  0  0  0  0  0  0  0  0  0  0  0
  -23.4293  -28.3157   23.1711 O   0  0  0  0  0  0  0  0  0  0  0  0
  -20.1912  -25.7479   23.0570 O   0  0  0  0  0  0  0  0  0  0  0  0
  -23.1399  -22.0494   22.6732 O   0  0  0  0  0  0  0  0  0  0  0  0
  -31.3270  -16.0154   18.9162 O   0  0  0  0  0  0  0  0  0  0  0  0
  -30.7888  -25.1820   19.7611 O   0  0  0  0  0  0  0  0  0  0  0  0
  -22.9400   -7.9493   24.7951 O   0  0  0  0  0  0  0  0  0  0  0  0
  -28.1082  -25.8811   20.0301 O   0  0  0  0  0  0  0  0  0  1  0  0
  -17.9694   -5.8759   23.6128 F   0  0  0  0  0  0  0  0  0  0  0  0
  -22.6270   -5.2682   24.1982 F   0  0  0  0  0  0  0  0  0  0  0  0
  1  2  1  0  0  0  0
  1  5  2  0  0  0  0
  2  6  2  0  0  0  0
  3  9  2  0  0  0  0
  3 18  1  0  0  0  0
  4 10  1  0  0  0  0
  4 18  2  0  0  0  0
  5 20  1  0  0  0  0
  6 22  1  0  0  0  0
  7 11  2  0  0  0  0
  7 21  1  0  0  0  0
  8 14  2  0  0  0  0
  8 24  1  0  0  0  0
  9 25  1  0  0  0  0
 10 25  2  0  0  0  0
 11 26  1  0  0  0  0
 12 13  2  0  0  0  0
 12 27  1  0  0  0  0
 13 28  1  0  0  0  0
 14 31  1  0  0  0  0
 15 23  1  0  0  0  0
 15 26  2  0  0  0  0
 16 28  2  0  0  0  0
 16 29  1  0  0  0  0
 17 24  2  0  0  0  0
 17 61  1  0  0  0  0
 18 30  1  0  0  0  0
 19 30  1  0  0  0  0
 19 32  2  0  0  0  0
 19 33  1  0  0  0  0
 20 22  2  0  0  0  0
 20 38  1  0  0  0  0
 21 23  2  0  0  0  0
 21 39  1  0  0  0  0
 22 47  1  0  0  0  0
 23 40  1  0  0  0  0
 24 68  1  0  0  0  0
 25 79  1  0  0  0  0
 26 80  1  0  0  0  0
 27 29  2  0  0  0  0
 27 79  1  0  0  0  0
 28 81  1  0  0  0  0
 29 82  1  0  0  0  0
 30 62  2  0  0  0  0
 31 61  2  0  0  0  0
 31 69  1  0  0  0  0
 32 63  1  0  0  0  0
 32 66  1  0  0  0  0
 33 67  1  0  0  0  0
 33 73  2  0  0  0  0
 34 48  1  0  0  0  0
 34 70  1  0  0  0  0
 34 74  2  0  0  0  0
 35 57  1  0  0  0  0
 35 64  1  0  0  0  0
 35 75  2  0  0  0  0
 36 58  1  0  0  0  0
 36 71  1  0  0  0  0
 36 76  2  0  0  0  0
 37 65  1  0  0  0  0
 37 69  1  0  0  0  0
 37 77  2  0  0  0  0
 38 41  1  0  0  0  0
 39 48  1  0  0  0  0
 40 64  1  0  0  0  0
 41 43  1  0  0  0  0
 42 44  1  0  0  0  0
 42 45  1  0  0  0  0
 43 47  1  0  0  0  0
 44 49  1  0  0  0  0
 45 65  1  0  0  0  0
 46 49  1  0  0  0  0
 46 65  1  0  0  0  0
 47 70  1  0  0  0  0
 48 64  1  0  0  0  0
 49 63  1  0  0  0  0
 50 58  1  0  0  0  0
 51 60  1  0  0  0  0
 52 60  1  0  0  0  0
 53 60  1  0  0  0  0
 54 72  1  0  0  0  0
 55 59  1  0  0  0  0
 55 68  1  0  0  0  0
 56 59  1  0  0  0  0
 56 80  1  0  0  0  0
 57 60  1  0  0  0  0
 57 71  1  0  0  0  0
 58 72  1  0  0  0  0
 59 78  1  0  0  0  0
 62 63  1  0  0  0  0
M  CHG  1  72   1
M  ISO  4  37 100  56 101  69 100  80 101
M  END
> <Batch ID>
0199

> <Smiles>
CNC(C)C(=O)NC(C(=O)N1Cc2cc([101O:1][101CH2:1]C(O)CNc3ccc([100NH:0][100C:0](=O)N4CCCC(n5nc(-c6ccc(Oc7ccc(F)cc7F)cc6)c(C(N)=O)c5N)C4)nc3)ccc2CC1C(=O)NC1CCCc2ccccc21)C(C)(C)C

> <Shape>
0.252

> <Color>
0.167

> <Negative vol penalty>
0.000

$$$$

  -OEChem-04052305473D

 83 91  0     1  0  0  0  0  0999 V2000
  -27.1059  -29.8366   10.2664 C   0  0  0  0  0  0  0  0  0  0  0  0
  -27.9986  -29.4809   11.2724 C   0  0  0  0  0  0  0  0  0  0  0  0
  -23.1832   -9.7099   20.2001 C   0  0  0  0  0  0  0  0  0  0  0  0
  -23.8911  -10.0256   22.4884 C   0  0  0  0  0  0  0  0  0  0  0  0
  -25.7343  -29.8236   10.5166 C   0  0  0  0  0  0  0  0  0  0  0  0
  -27.5203  -29.1130   12.5295 C   0  0  0  0  0  0  0  0  0  0  0  0
  -29.9142  -24.9201   16.2970 C   0  0  0  0  0  0  0  0  0  0  0  0
  -22.4893   -8.5590   20.5736 C   0  0  0  0  0  0  0  0  0  0  0  0
  -23.1973   -8.8747   22.8619 C   0  0  0  0  0  0  0  0  0  0  0  0
  -30.7500  -25.0255   17.4079 C   0  0  0  0  0  0  0  0  0  0  0  0
  -19.9980   -7.9946   23.5026 C   0  0  0  0  0  0  0  0  0  0  0  0
  -19.2181   -8.0559   24.6574 C   0  0  0  0  0  0  0  0  0  0  0  0
  -28.8223  -24.9621   18.8567 C   0  0  0  0  0  0  0  0  0  0  0  0
  -20.5332   -6.2830   25.6395 C   0  0  0  0  0  0  0  0  0  0  0  0
  -29.8634  -19.3599   22.3720 C   0  0  0  0  0  0  0  0  0  0  0  0
  -31.8858  -18.9507   21.2772 C   0  0  0  0  0  0  0  0  0  0  0  0
  -23.8841  -10.4433   21.1575 C   0  0  0  0  0  0  0  0  0  0  0  0
  -24.1087  -12.9503   20.7431 C   0  0  0  0  0  0  0  0  0  0  0  0
  -25.2385  -29.4461   11.7745 C   0  0  0  0  0  0  0  0  0  0  0  0
  -28.5231  -24.8458   16.4574 C   0  0  0  0  0  0  0  0  0  0  0  0
  -26.1408  -29.0962   12.7971 C   0  0  0  0  0  0  0  0  0  0  0  0
  -27.9712  -24.8533   17.7464 C   0  0  0  0  0  0  0  0  0  0  0  0
  -31.0941  -19.8407   21.9738 C   0  0  0  0  0  0  0  0  0  0  0  0
  -22.4964   -8.1413   21.9044 C   0  0  0  0  0  0  0  0  0  0  0  0
  -30.2039  -25.0494   18.6879 C   0  0  0  0  0  0  0  0  0  0  0  0
  -21.0454   -7.0775   23.4161 C   0  0  0  0  0  0  0  0  0  0  0  0
  -19.4858   -7.2001   25.7259 C   0  0  0  0  0  0  0  0  0  0  0  0
  -21.3131   -6.2217   24.4846 C   0  0  0  0  0  0  0  0  0  0  0  0
  -24.6015  -11.6320   20.7723 C   0  0  0  0  0  0  0  0  0  0  0  0
  -25.1719  -13.7048   20.3109 C   0  0  0  0  0  0  0  0  0  0  0  0
  -30.2922  -17.3368   21.4284 C   0  0  0  0  0  0  0  0  0  0  0  0
  -22.8063  -13.4484   21.0768 C   0  0  0  0  0  0  0  0  0  0  0  0
  -26.0627  -26.6494   15.5647 C   0  0  0  0  0  0  0  0  0  0  0  0
  -24.3243  -24.2026   16.7950 C   0  0  0  0  0  0  0  0  0  0  0  0
  -24.1674  -21.5497   18.9360 C   0  0  0  0  0  0  0  0  0  0  0  0
  -30.5773  -15.0335   20.4487 C   0  0  0  0  0  0  0  0  0  0  0  0
  -23.7498  -29.4929   12.0118 C   0  0  0  0  0  0  0  0  0  0  0  0
  -27.6370  -24.7055   15.2501 C   0  0  0  0  0  0  0  0  0  0  0  0
  -26.4855  -24.7558   17.9734 C   0  0  0  0  0  0  0  0  0  0  0  0
  -23.3074  -28.7299   13.2578 C   0  0  0  0  0  0  0  0  0  0  0  0
  -29.6308  -12.3044   18.3671 C   0  0  0  0  0  0  0  0  0  0  0  0
  -24.2065  -29.0731   14.4413 C   0  0  0  0  0  0  0  0  0  0  0  0
  -28.1975  -11.9946   18.8049 C   0  0  0  0  0  0  0  0  0  0  0  0
  -30.5074  -12.7187   19.5477 C   0  0  0  0  0  0  0  0  0  0  0  0
  -28.5383  -13.5059   20.8016 C   0  0  0  0  0  0  0  0  0  0  0  0
  -25.6595  -28.6674   14.1662 C   0  0  1  0  0  0  0  0  0  0  0  0
  -26.2018  -25.1544   15.5070 C   0  0  1  0  0  0  0  0  0  0  0  0
  -27.6010  -13.1466   19.6371 C   0  0  2  0  0  0  0  0  0  0  0  0
  -22.6024  -19.7646   19.7493 C   0  0  0  0  0  0  0  0  0  0  0  0
  -22.8647  -26.2649   18.5056 C   0  0  0  0  0  0  0  0  0  0  0  0
  -22.0290  -24.3861   19.9338 C   0  0  0  0  0  0  0  0  0  0  0  0
  -21.3949  -24.4958   17.5237 C   0  0  0  0  0  0  0  0  0  0  0  0
  -25.9350  -19.3894   17.9524 C   0  0  0  0  0  0  0  0  0  0  0  0
  -31.7814  -24.1242   21.7994 C   0  0  0  0  0  0  0  0  0  0  0  0
  -30.7057  -22.0901   22.9813 C   0  0  0  0  0  0  0  0  0  0  0  0
  -30.5676  -24.5424   20.9828 C   0  0  0  0  0  0  0  0  0  1  0  0
  -23.7614  -23.8692   18.1555 C   0  0  1  0  0  0  0  0  0  0  0  0
  -23.6818  -20.1248   18.7405 C   0  0  2  0  0  0  0  0  0  0  0  0
  -31.4298  -23.4303   23.1196 C   0  0  1  0  0  0  0  0  0  0  0  0
  -22.5404  -24.7578   18.5256 C   0  0  0  0  0  0  0  0  0  0  0  0
  -29.4287  -18.1087   22.1154 N   0  0  0  0  0  0  0  0  0  0  0  0
  -31.5152  -17.6865   20.9860 N   0  0  0  0  0  0  0  0  0  0  0  0
  -25.8784  -11.5502   20.3891 N   0  0  0  0  0  0  0  0  0  0  0  0
  -26.1969  -12.8267   20.1148 N   0  0  0  0  0  0  0  0  0  0  0  0
  -25.6603  -24.6265   16.7610 N   0  0  0  0  0  0  0  0  0  0  0  0
  -29.8811  -13.8170   20.2868 N   0  0  0  0  0  0  0  0  0  0  0  0
  -25.3206  -15.0271   20.0832 N   0  0  0  0  0  0  0  0  0  0  0  0
  -21.8313  -12.5364   21.5035 N   0  0  0  0  0  0  0  0  0  0  0  0
  -31.5077  -21.1323   22.2550 N   0  0  0  0  0  0  0  0  0  0  0  0
  -29.8690  -16.0156   21.1405 N   0  0  0  0  0  0  0  0  0  0  0  0
  -25.8269  -27.2402   14.3380 N   0  0  0  0  0  0  0  0  0  0  0  0
  -23.4764  -22.4385   18.1399 N   0  0  0  0  0  0  0  0  0  0  0  0
  -24.8118  -19.1661   18.8988 N   0  3  0  0  0  0  0  0  0  0  0  0
  -22.5109  -14.6639   20.9833 O   0  0  0  0  0  0  0  0  0  0  0  0
  -26.1605  -27.2242   16.6426 O   0  0  0  0  0  0  0  0  0  0  0  0
  -23.6072  -24.0842   15.7983 O   0  0  0  0  0  0  0  0  0  0  0  0
  -25.0669  -21.8452   19.7196 O   0  0  0  0  0  0  0  0  0  0  0  0
  -31.7072  -15.2015   19.9828 O   0  0  0  0  0  0  0  0  0  0  0  0
  -32.6293  -23.2156   23.8657 O   0  0  0  0  0  0  0  0  0  0  0  0
  -21.8192   -7.0184   22.2692 O   0  0  0  0  0  0  0  0  0  0  0  0
  -31.0174  -25.1529   19.7739 O   0  0  0  0  0  0  0  0  0  1  0  0
  -18.7378   -7.2601   26.8354 F   0  0  0  0  0  0  0  0  0  0  0  0
  -22.3188   -5.3394   24.4079 F   0  0  0  0  0  0  0  0  0  0  0  0
  1  2  1  0  0  0  0
  1  5  2  0  0  0  0
  2  6  2  0  0  0  0
  3  8  2  0  0  0  0
  3 17  1  0  0  0  0
  4  9  1  0  0  0  0
  4 17  2  0  0  0  0
  5 19  1  0  0  0  0
  6 21  1  0  0  0  0
  7 10  2  0  0  0  0
  7 20  1  0  0  0  0
  8 24  1  0  0  0  0
  9 24  2  0  0  0  0
 10 25  1  0  0  0  0
 11 12  2  0  0  0  0
 11 26  1  0  0  0  0
 12 27  1  0  0  0  0
 13 22  1  0  0  0  0
 13 25  2  0  0  0  0
 14 27  2  0  0  0  0
 14 28  1  0  0  0  0
 15 23  1  0  0  0  0
 15 61  2  0  0  0  0
 16 23  2  0  0  0  0
 16 62  1  0  0  0  0
 17 29  1  0  0  0  0
 18 29  1  0  0  0  0
 18 30  2  0  0  0  0
 18 32  1  0  0  0  0
 19 21  2  0  0  0  0
 19 37  1  0  0  0  0
 20 22  2  0  0  0  0
 20 38  1  0  0  0  0
 21 46  1  0  0  0  0
 22 39  1  0  0  0  0
 23 69  1  0  0  0  0
 24 80  1  0  0  0  0
 25 81  1  0  0  0  0
 26 28  2  0  0  0  0
 26 80  1  0  0  0  0
 27 82  1  0  0  0  0
 28 83  1  0  0  0  0
 29 63  2  0  0  0  0
 30 64  1  0  0  0  0
 30 67  1  0  0  0  0
 31 61  1  0  0  0  0
 31 62  2  0  0  0  0
 31 70  1  0  0  0  0
 32 68  1  0  0  0  0
 32 74  2  0  0  0  0
 33 47  1  0  0  0  0
 33 71  1  0  0  0  0
 33 75  2  0  0  0  0
 34 57  1  0  0  0  0
 34 65  1  0  0  0  0
 34 76  2  0  0  0  0
 35 58  1  0  0  0  0
 35 72  1  0  0  0  0
 35 77  2  0  0  0  0
 36 66  1  0  0  0  0
 36 70  1  0  0  0  0
 36 78  2  0  0  0  0
 37 40  1  0  0  0  0
 38 47  1  0  0  0  0
 39 65  1  0  0  0  0
 40 42  1  0  0  0  0
 41 43  1  0  0  0  0
 41 44  1  0  0  0  0
 42 46  1  0  0  0  0
 43 48  1  0  0  0  0
 44 66  1  0  0  0  0
 45 48  1  0  0  0  0
 45 66  1  0  0  0  0
 46 71  1  0  0  0  0
 47 65  1  0  0  0  0
 48 64  1  0  0  0  0
 49 58  1  0  0  0  0
 50 60  1  0  0  0  0
 51 60  1  0  0  0  0
 52 60  1  0  0  0  0
 53 73  1  0  0  0  0
 54 56  1  0  0  0  0
 54 59  1  0  0  0  0
 55 59  1  0  0  0  0
 55 69  1  0  0  0  0
 56 81  1  0  0  0  0
 57 60  1  0  0  0  0
 57 72  1  0  0  0  0
 58 73  1  0  0  0  0
 59 79  1  0  0  0  0
 63 64  1  0  0  0  0
M  CHG  1  73   1
M  ISO  4  36 100  56 101  70 100  81 101
M  END
> <Batch ID>
0199

> <Smiles>
CNC(C)C(=O)NC(C(=O)N1Cc2cc([101O:1][101CH2:1]CC(O)CNc3cnc([100NH:0][100C:0](=O)N4CCCC(n5nc(-c6ccc(Oc7ccc(F)cc7F)cc6)c(C(N)=O)c5N)C4)nc3)ccc2CC1C(=O)NC1CCCc2ccccc21)C(C)(C)C

> <Shape>
0.205

> <Color>
0.185

> <Negative vol penalty>
0.000

$$$$

  -OEChem-04052305473D

 82 90  0     1  0  0  0  0  0999 V2000
  -19.1884  -33.4954   22.2969 C   0  0  0  0  0  0  0  0  0  0  0  0
  -20.5294  -33.2796   21.9956 C   0  0  0  0  0  0  0  0  0  0  0  0
  -26.1928  -13.3304   21.0746 C   0  0  0  0  0  0  0  0  0  0  0  0
  -24.7065  -14.7337   19.7867 C   0  0  0  0  0  0  0  0  0  0  0  0
  -18.4705  -32.5325   23.0049 C   0  0  0  0  0  0  0  0  0  0  0  0
  -21.1535  -32.1011   22.4031 C   0  0  0  0  0  0  0  0  0  0  0  0
  -25.5170  -29.0200   19.4078 C   0  0  0  0  0  0  0  0  0  0  0  0
  -25.1082  -12.5515   21.4777 C   0  0  0  0  0  0  0  0  0  0  0  0
  -23.6218  -13.9547   20.1898 C   0  0  0  0  0  0  0  0  0  0  0  0
  -26.9042  -28.9886   19.5432 C   0  0  0  0  0  0  0  0  0  0  0  0
  -22.7783   -9.9777   22.5559 C   0  0  0  0  0  0  0  0  0  0  0  0
  -22.9252   -8.5912   22.5159 C   0  0  0  0  0  0  0  0  0  0  0  0
  -28.1700  -22.5454   16.8005 C   0  0  0  0  0  0  0  0  0  0  0  0
  -26.7187  -27.0210   20.9264 C   0  0  0  0  0  0  0  0  0  0  0  0
  -23.3346   -8.7033   20.1374 C   0  0  0  0  0  0  0  0  0  0  0  0
  -28.2611  -23.6102   15.9275 C   0  0  0  0  0  0  0  0  0  0  0  0
  -25.9920  -14.4216   20.2292 C   0  0  0  0  0  0  0  0  0  0  0  0
  -27.9188  -15.0376   18.6750 C   0  0  0  0  0  0  0  0  0  0  0  0
  -19.0836  -31.3374   23.4129 C   0  0  0  0  0  0  0  0  0  0  0  0
  -24.7181  -28.0569   20.0407 C   0  0  0  0  0  0  0  0  0  0  0  0
  -20.4434  -31.1219   23.1185 C   0  0  0  0  0  0  0  0  0  0  0  0
  -25.3217  -27.0409   20.7954 C   0  0  0  0  0  0  0  0  0  0  0  0
  -23.8227  -12.8636   21.0353 C   0  0  0  0  0  0  0  0  0  0  0  0
  -27.5051  -27.9907   20.3050 C   0  0  0  0  0  0  0  0  0  0  0  0
  -22.9095  -10.7270   21.3867 C   0  0  0  0  0  0  0  0  0  0  0  0
  -23.2034   -7.9540   21.3067 C   0  0  0  0  0  0  0  0  0  0  0  0
  -23.1877  -10.0898   20.1775 C   0  0  0  0  0  0  0  0  0  0  0  0
  -27.1119  -15.2269   19.8129 C   0  0  0  0  0  0  0  0  0  0  0  0
  -28.7799  -22.7237   18.0254 C   0  0  0  0  0  0  0  0  0  0  0  0
  -28.8348  -16.0596   18.7297 C   0  0  0  0  0  0  0  0  0  0  0  0
  -29.4503  -24.8164   17.4435 C   0  0  0  0  0  0  0  0  0  0  0  0
  -27.8467  -14.0282   17.6593 C   0  0  0  0  0  0  0  0  0  0  0  0
  -22.4431  -28.1359   22.2592 C   0  0  0  0  0  0  0  0  0  0  0  0
  -22.1921  -24.9788   21.5580 C   0  0  0  0  0  0  0  0  0  0  0  0
  -23.6670  -22.1583   20.3267 C   0  0  0  0  0  0  0  0  0  0  0  0
  -29.2528  -21.6189   20.2395 C   0  0  0  0  0  0  0  0  0  0  0  0
  -18.2794  -30.3468   24.2172 C   0  0  0  0  0  0  0  0  0  0  0  0
  -23.2249  -28.0889   19.8629 C   0  0  0  0  0  0  0  0  0  0  0  0
  -24.5101  -25.9716   21.4784 C   0  0  0  0  0  0  0  0  0  0  0  0
  -18.9145  -28.9604   24.2868 C   0  0  0  0  0  0  0  0  0  0  0  0
  -30.5412  -19.0221   22.3068 C   0  0  0  0  0  0  0  0  0  0  0  0
  -20.4007  -29.0698   24.6126 C   0  0  0  0  0  0  0  0  0  0  0  0
  -29.8680  -17.7592   21.7644 C   0  0  0  0  0  0  0  0  0  0  0  0
  -29.6023  -20.2265   22.2678 C   0  0  0  0  0  0  0  0  0  0  0  0
  -28.3154  -19.2304   20.4183 C   0  0  0  0  0  0  0  0  0  0  0  0
  -21.1490  -29.8453   23.5218 C   0  0  1  0  0  0  0  0  0  0  0  0
  -22.4751  -27.3594   20.9733 C   0  0  1  0  0  0  0  0  0  0  0  0
  -29.2432  -18.0052   20.3771 C   0  0  2  0  0  0  0  0  0  0  0  0
  -23.2246  -19.7223   19.9171 C   0  0  0  0  0  0  0  0  0  0  0  0
  -32.0994  -25.4776   19.0540 C   0  0  0  0  0  0  0  0  0  0  0  0
  -22.5357  -24.4178   24.5375 C   0  0  0  0  0  0  0  0  0  0  0  0
  -23.0356  -22.0335   23.9598 C   0  0  0  0  0  0  0  0  0  0  0  0
  -20.8083  -23.0093   23.4032 C   0  0  0  0  0  0  0  0  0  0  0  0
  -24.0716  -22.4562   17.4101 C   0  0  0  0  0  0  0  0  0  0  0  0
  -30.9508  -27.7071   19.2887 C   0  0  0  0  0  0  0  0  0  0  0  0
  -29.6317  -28.4704   19.3546 C   0  0  0  0  0  0  0  0  0  1  0  0
  -22.8384  -23.7149   22.0717 C   0  0  1  0  0  0  0  0  0  0  0  0
  -23.1837  -21.1233   19.3269 C   0  0  2  0  0  0  0  0  0  0  0  0
  -30.7591  -26.2061   19.0501 C   0  0  1  0  0  0  0  0  0  0  0  0
  -22.3200  -23.3150   23.4819 C   0  0  0  0  0  0  0  0  0  0  0  0
  -28.8959  -24.7649   16.2173 N   0  0  0  0  0  0  0  0  0  0  0  0
  -27.4828  -16.2858   20.5376 N   0  0  0  0  0  0  0  0  0  0  0  0
  -29.4314  -23.8503   18.3816 N   0  0  0  0  0  0  0  0  0  0  0  0
  -28.5328  -16.7710   19.8535 N   0  0  0  0  0  0  0  0  0  0  0  0
  -23.0534  -26.0495   21.2797 N   0  0  0  0  0  0  0  0  0  0  0  0
  -29.0519  -20.4004   20.9219 N   0  0  0  0  0  0  0  0  0  0  0  0
  -29.8611  -16.4100   17.9258 N   0  0  0  0  0  0  0  0  0  0  0  0
  -26.8442  -13.0536   17.7558 N   0  0  0  0  0  0  0  0  0  0  0  0
  -28.7121  -21.6562   18.9547 N   0  0  0  0  0  0  0  0  0  0  0  0
  -30.1108  -25.9860   17.7741 N   0  0  0  0  0  0  0  0  0  0  0  0
  -21.3728  -29.0034   22.3662 N   0  0  0  0  0  0  0  0  0  0  0  0
  -22.6227  -22.7002   21.0459 N   0  0  0  0  0  0  0  0  0  0  0  0
  -24.0381  -21.1441   18.1060 N   0  3  0  0  0  0  0  0  0  0  0  0
  -28.6578  -13.9821   16.7035 O   0  0  0  0  0  0  0  0  0  0  0  0
  -23.3234  -27.9600   23.0933 O   0  0  0  0  0  0  0  0  0  0  0  0
  -20.9688  -25.0123   21.4025 O   0  0  0  0  0  0  0  0  0  0  0  0
  -24.8526  -22.4535   20.4593 O   0  0  0  0  0  0  0  0  0  0  0  0
  -29.8835  -22.5502   20.7464 O   0  0  0  0  0  0  0  0  0  0  0  0
  -22.7642  -12.1036   21.4282 O   0  0  0  0  0  0  0  0  0  0  0  0
  -28.8589  -27.9582   20.4393 O   0  0  0  0  0  0  0  0  0  1  0  0
  -23.3459   -6.6227   21.2687 F   0  0  0  0  0  0  0  0  0  0  0  0
  -23.3161  -10.8044   19.0511 F   0  0  0  0  0  0  0  0  0  0  0  0
  1  2  1  0  0  0  0
  1  5  2  0  0  0  0
  2  6  2  0  0  0  0
  3  8  2  0  0  0  0
  3 17  1  0  0  0  0
  4  9  1  0  0  0  0
  4 17  2  0  0  0  0
  5 19  1  0  0  0  0
  6 21  1  0  0  0  0
  7 10  2  0  0  0  0
  7 20  1  0  0  0  0
  8 23  1  0  0  0  0
  9 23  2  0  0  0  0
 10 24  1  0  0  0  0
 11 12  2  0  0  0  0
 11 25  1  0  0  0  0
 12 26  1  0  0  0  0
 13 16  1  0  0  0  0
 13 29  2  0  0  0  0
 14 22  1  0  0  0  0
 14 24  2  0  0  0  0
 15 26  2  0  0  0  0
 15 27  1  0  0  0  0
 16 61  2  0  0  0  0
 17 28  1  0  0  0  0
 18 28  1  0  0  0  0
 18 30  2  0  0  0  0
 18 32  1  0  0  0  0
 19 21  2  0  0  0  0
 19 37  1  0  0  0  0
 20 22  2  0  0  0  0
 20 38  1  0  0  0  0
 21 46  1  0  0  0  0
 22 39  1  0  0  0  0
 23 79  1  0  0  0  0
 24 80  1  0  0  0  0
 25 27  2  0  0  0  0
 25 79  1  0  0  0  0
 26 81  1  0  0  0  0
 27 82  1  0  0  0  0
 28 62  2  0  0  0  0
 29 63  1  0  0  0  0
 29 69  1  0  0  0  0
 30 64  1  0  0  0  0
 30 67  1  0  0  0  0
 31 61  1  0  0  0  0
 31 63  2  0  0  0  0
 31 70  1  0  0  0  0
 32 68  1  0  0  0  0
 32 74  2  0  0  0  0
 33 47  1  0  0  0  0
 33 71  1  0  0  0  0
 33 75  2  0  0  0  0
 34 57  1  0  0  0  0
 34 65  1  0  0  0  0
 34 76  2  0  0  0  0
 35 58  1  0  0  0  0
 35 72  1  0  0  0  0
 35 77  2  0  0  0  0
 36 66  1  0  0  0  0
 36 69  1  0  0  0  0
 36 78  2  0  0  0  0
 37 40  1  0  0  0  0
 38 47  1  0  0  0  0
 39 65  1  0  0  0  0
 40 42  1  0  0  0  0
 41 43  1  0  0  0  0
 41 44  1  0  0  0  0
 42 46  1  0  0  0  0
 43 48  1  0  0  0  0
 44 66  1  0  0  0  0
 45 48  1  0  0  0  0
 45 66  1  0  0  0  0
 46 71  1  0  0  0  0
 47 65  1  0  0  0  0
 48 64  1  0  0  0  0
 49 58  1  0  0  0  0
 50 59  1  0  0  0  0
 51 60  1  0  0  0  0
 52 60  1  0  0  0  0
 53 60  1  0  0  0  0
 54 73  1  0  0  0  0
 55 56  1  0  0  0  0
 55 59  1  0  0  0  0
 56 80  1  0  0  0  0
 57 60  1  0  0  0  0
 57 72  1  0  0  0  0
 58 73  1  0  0  0  0
 59 70  1  0  0  0  0
 62 64  1  0  0  0  0
M  CHG  1  73   1
M  ISO  4  36 100  56 101  69 100  80 101
M  END
> <Batch ID>
0199

> <Smiles>
CNC(C)C(=O)NC(C(=O)N1Cc2cc([101O:1][101CH2:1]CC(C)Nc3nccc([100NH:0][100C:0](=O)N4CCCC(n5nc(-c6ccc(Oc7ccc(F)cc7F)cc6)c(C(N)=O)c5N)C4)n3)ccc2CC1C(=O)NC1CCCc2ccccc21)C(C)(C)C

> <Shape>
0.263

> <Color>
0.077

> <Negative vol penalty>
0.000

$$$$

  -OEChem-04052305473D

 81 89  0     1  0  0  0  0  0999 V2000
  -26.7801  -34.2424   24.8115 C   0  0  0  0  0  0  0  0  0  0  0  0
  -27.6266  -33.5924   23.9192 C   0  0  0  0  0  0  0  0  0  0  0  0
  -22.8999  -10.1682   19.9057 C   0  0  0  0  0  0  0  0  0  0  0  0
  -23.8252   -9.7900   22.1053 C   0  0  0  0  0  0  0  0  0  0  0  0
  -25.7573  -33.5348   25.4417 C   0  0  0  0  0  0  0  0  0  0  0  0
  -27.4515  -32.2340   23.6574 C   0  0  0  0  0  0  0  0  0  0  0  0
  -28.1532  -27.4274   18.3923 C   0  0  0  0  0  0  0  0  0  0  0  0
  -22.0998   -9.0345   20.0474 C   0  0  0  0  0  0  0  0  0  0  0  0
  -23.0250   -8.6563   22.2469 C   0  0  0  0  0  0  0  0  0  0  0  0
  -28.7431  -26.1908   18.1345 C   0  0  0  0  0  0  0  0  0  0  0  0
  -23.0475   -5.4436   21.1939 C   0  0  0  0  0  0  0  0  0  0  0  0
  -23.6430   -4.2896   21.7029 C   0  0  0  0  0  0  0  0  0  0  0  0
  -26.8930  -25.0884   19.2212 C   0  0  0  0  0  0  0  0  0  0  0  0
  -22.0875   -4.3024   23.5515 C   0  0  0  0  0  0  0  0  0  0  0  0
  -31.3895  -19.2642   20.0365 C   0  0  0  0  0  0  0  0  0  0  0  0
  -23.7627  -10.5460   20.9347 C   0  0  0  0  0  0  0  0  0  0  0  0
  -24.2657  -13.0374   21.1524 C   0  0  0  0  0  0  0  0  0  0  0  0
  -25.5636  -32.1692   25.1802 C   0  0  0  0  0  0  0  0  0  0  0  0
  -26.9320  -27.5045   19.0774 C   0  0  0  0  0  0  0  0  0  0  0  0
  -26.4261  -31.5071   24.2857 C   0  0  0  0  0  0  0  0  0  0  0  0
  -26.2884  -26.3271   19.4843 C   0  0  0  0  0  0  0  0  0  0  0  0
  -22.1622   -8.2786   21.2180 C   0  0  0  0  0  0  0  0  0  0  0  0
  -28.1144  -25.0211   18.5515 C   0  0  0  0  0  0  0  0  0  0  0  0
  -21.9720   -6.0271   21.8637 C   0  0  0  0  0  0  0  0  0  0  0  0
  -23.1630   -3.7189   22.8817 C   0  0  0  0  0  0  0  0  0  0  0  0
  -21.4920   -5.4565   23.0425 C   0  0  0  0  0  0  0  0  0  0  0  0
  -24.5899  -11.7166   20.7887 C   0  0  0  0  0  0  0  0  0  0  0  0
  -25.3766  -13.7698   20.8120 C   0  0  0  0  0  0  0  0  0  0  0  0
  -30.1425  -19.6453   20.4859 C   0  0  0  0  0  0  0  0  0  0  0  0
  -31.0244  -17.6143   21.4346 C   0  0  0  0  0  0  0  0  0  0  0  0
  -23.0675  -13.5558   21.7451 C   0  0  0  0  0  0  0  0  0  0  0  0
  -25.9782  -28.7877   21.8246 C   0  0  0  0  0  0  0  0  0  0  0  0
  -23.0436  -27.8842   20.7785 C   0  0  0  0  0  0  0  0  0  0  0  0
  -29.5809  -21.7789   19.2749 C   0  0  0  0  0  0  0  0  0  0  0  0
  -21.1824  -25.8174   18.8009 C   0  0  0  0  0  0  0  0  0  0  0  0
  -30.9159  -14.4382   20.6908 C   0  0  0  0  0  0  0  0  0  0  0  0
  -24.4740  -31.4356   25.9214 C   0  0  0  0  0  0  0  0  0  0  0  0
  -26.2956  -28.8448   19.3242 C   0  0  0  0  0  0  0  0  0  0  0  0
  -24.9663  -26.3545   20.2053 C   0  0  0  0  0  0  0  0  0  0  0  0
  -24.1212  -30.0844   25.3048 C   0  0  0  0  0  0  0  0  0  0  0  0
  -29.4463  -12.5046   18.0874 C   0  0  0  0  0  0  0  0  0  0  0  0
  -25.3877  -29.2976   24.9826 C   0  0  0  0  0  0  0  0  0  0  0  0
  -28.0279  -12.2312   18.5909 C   0  0  0  0  0  0  0  0  0  0  0  0
  -30.4621  -12.4916   19.2275 C   0  0  0  0  0  0  0  0  0  0  0  0
  -28.7217  -13.1138   20.8577 C   0  0  0  0  0  0  0  0  0  0  0  0
  -26.2526  -30.0402   23.9569 C   0  0  1  0  0  0  0  0  0  0  0  0
  -25.3033  -28.8308   20.4828 C   0  0  1  0  0  0  0  0  0  0  0  0
  -27.6539  -13.1721   19.7519 C   0  0  2  0  0  0  0  0  0  0  0  0
  -18.8067  -25.2913   18.1871 C   0  0  0  0  0  0  0  0  0  0  0  0
  -22.6813  -26.4310   23.4369 C   0  0  0  0  0  0  0  0  0  0  0  0
  -20.7728  -25.1764   22.4113 C   0  0  0  0  0  0  0  0  0  0  0  0
  -20.6554  -27.6582   22.6342 C   0  0  0  0  0  0  0  0  0  0  0  0
  -21.6427  -26.5027   15.9588 C   0  0  0  0  0  0  0  0  0  0  0  0
  -31.2187  -16.3729   22.2154 C   0  0  0  0  0  0  0  0  0  0  0  0
  -28.4282  -22.7648   19.2346 C   0  0  0  0  0  0  0  0  0  1  0  0
  -22.1983  -26.6403   20.9092 C   0  0  1  0  0  0  0  0  0  0  0  0
  -20.0451  -26.1013   17.8363 C   0  0  2  0  0  0  0  0  0  0  0  0
  -21.6028  -26.4757   22.3360 C   0  0  0  0  0  0  0  0  0  0  0  0
  -31.8970  -18.1000   20.5797 N   0  0  0  0  0  0  0  0  0  0  0  0
  -25.8111  -11.6131   20.2577 N   0  0  0  0  0  0  0  0  0  0  0  0
  -26.2640  -12.8781   20.2852 N   0  0  0  0  0  0  0  0  0  0  0  0
  -24.3873  -27.6896   20.4288 N   0  0  0  0  0  0  0  0  0  0  0  0
  -30.0495  -13.4059   20.2951 N   0  0  0  0  0  0  0  0  0  0  0  0
  -25.6711  -15.0833   20.9147 N   0  0  0  0  0  0  0  0  0  0  0  0
  -22.0236  -12.6650   22.0303 N   0  0  0  0  0  0  0  0  0  0  0  0
  -29.3151  -20.7493   20.1713 N   0  0  0  0  0  0  0  0  0  0  0  0
  -25.7073  -29.8804   22.6259 N   0  0  0  0  0  0  0  0  0  0  0  0
  -21.1985  -26.7129   19.8492 N   0  0  0  0  0  0  0  0  0  0  0  0
  -30.4449  -15.2633   21.7048 N   0  0  0  0  0  0  0  0  0  0  0  0
  -20.4502  -25.7609   16.4432 N   0  3  0  0  0  0  0  0  0  0  0  0
  -22.9203  -14.7754   21.9988 O   0  0  0  0  0  0  0  0  0  0  0  0
  -26.6907  -27.8331   22.1121 O   0  0  0  0  0  0  0  0  0  0  0  0
  -22.5289  -28.9883   20.9724 O   0  0  0  0  0  0  0  0  0  0  0  0
  -30.5820  -21.9321   18.5829 O   0  0  0  0  0  0  0  0  0  0  0  0
  -21.9748  -24.8915   18.6423 O   0  0  0  0  0  0  0  0  0  0  0  0
  -32.0247  -14.6150   20.1748 O   0  0  0  0  0  0  0  0  0  0  0  0
  -21.3814   -7.1724   21.3566 O   0  0  0  0  0  0  0  0  0  0  0  0
  -28.6884  -23.8128   18.3016 O   0  0  0  0  0  0  0  0  0  1  0  0
  -23.7340   -2.6098   23.3696 F   0  0  0  0  0  0  0  0  0  0  0  0
  -20.4584   -6.0118   23.6898 F   0  0  0  0  0  0  0  0  0  0  0  0
  -29.5719  -18.5062   21.6340 S   0  0  0  0  0  0  0  0  0  0  0  0
  1  2  1  0  0  0  0
  1  5  2  0  0  0  0
  2  6  2  0  0  0  0
  3  8  2  0  0  0  0
  3 16  1  0  0  0  0
  4  9  1  0  0  0  0
  4 16  2  0  0  0  0
  5 18  1  0  0  0  0
  6 20  1  0  0  0  0
  7 10  2  0  0  0  0
  7 19  1  0  0  0  0
  8 22  1  0  0  0  0
  9 22  2  0  0  0  0
 10 23  1  0  0  0  0
 11 12  2  0  0  0  0
 11 24  1  0  0  0  0
 12 25  1  0  0  0  0
 13 21  1  0  0  0  0
 13 23  2  0  0  0  0
 14 25  2  0  0  0  0
 14 26  1  0  0  0  0
 15 29  2  0  0  0  0
 15 59  1  0  0  0  0
 16 27  1  0  0  0  0
 17 27  1  0  0  0  0
 17 28  2  0  0  0  0
 17 31  1  0  0  0  0
 18 20  2  0  0  0  0
 18 37  1  0  0  0  0
 19 21  2  0  0  0  0
 19 38  1  0  0  0  0
 20 46  1  0  0  0  0
 21 39  1  0  0  0  0
 22 77  1  0  0  0  0
 23 78  1  0  0  0  0
 24 26  2  0  0  0  0
 24 77  1  0  0  0  0
 25 79  1  0  0  0  0
 26 80  1  0  0  0  0
 27 60  2  0  0  0  0
 28 61  1  0  0  0  0
 28 64  1  0  0  0  0
 29 66  1  0  0  0  0
 29 81  1  0  0  0  0
 30 54  1  0  0  0  0
 30 59  2  0  0  0  0
 30 81  1  0  0  0  0
 31 65  1  0  0  0  0
 31 71  2  0  0  0  0
 32 47  1  0  0  0  0
 32 67  1  0  0  0  0
 32 72  2  0  0  0  0
 33 56  1  0  0  0  0
 33 62  1  0  0  0  0
 33 73  2  0  0  0  0
 34 55  1  0  0  0  0
 34 66  1  0  0  0  0
 34 74  2  0  0  0  0
 35 57  1  0  0  0  0
 35 68  1  0  0  0  0
 35 75  2  0  0  0  0
 36 63  1  0  0  0  0
 36 69  1  0  0  0  0
 36 76  2  0  0  0  0
 37 40  1  0  0  0  0
 38 47  1  0  0  0  0
 39 62  1  0  0  0  0
 40 42  1  0  0  0  0
 41 43  1  0  0  0  0
 41 44  1  0  0  0  0
 42 46  1  0  0  0  0
 43 48  1  0  0  0  0
 44 63  1  0  0  0  0
 45 48  1  0  0  0  0
 45 63  1  0  0  0  0
 46 67  1  0  0  0  0
 47 62  1  0  0  0  0
 48 61  1  0  0  0  0
 49 57  1  0  0  0  0
 50 58  1  0  0  0  0
 51 58  1  0  0  0  0
 52 58  1  0  0  0  0
 53 70  1  0  0  0  0
 54 69  1  0  0  0  0
 55 78  1  0  0  0  0
 56 58  1  0  0  0  0
 56 68  1  0  0  0  0
 57 70  1  0  0  0  0
 60 61  1  0  0  0  0
M  CHG  1  70   1
M  ISO  4  36 100  55 101  69 100  78 101
M  END
> <Batch ID>
0199

> <Smiles>
CNC(C)C(=O)NC(C(=O)N1Cc2cc([101O:1][101CH2:1]C(=O)Nc3cnc(C[100NH:0][100C:0](=O)N4CCCC(n5nc(-c6ccc(Oc7ccc(F)cc7F)cc6)c(C(N)=O)c5N)C4)s3)ccc2CC1C(=O)NC1CCCc2ccccc21)C(C)(C)C

> <Shape>
0.372

> <Color>
0.191

> <Negative vol penalty>
0.000

$$$$

  -OEChem-04052305473D

 82 90  0     1  0  0  0  0  0999 V2000
  -23.1190  -17.1917   25.0207 C   0  0  0  0  0  0  0  0  0  0  0  0
  -24.3366  -17.7187   24.6022 C   0  0  0  0  0  0  0  0  0  0  0  0
  -22.8328  -10.0617   20.0666 C   0  0  0  0  0  0  0  0  0  0  0  0
  -23.7754   -9.9507   22.2884 C   0  0  0  0  0  0  0  0  0  0  0  0
  -21.9416  -17.5577   24.3697 C   0  0  0  0  0  0  0  0  0  0  0  0
  -24.3776  -18.6112   23.5316 C   0  0  0  0  0  0  0  0  0  0  0  0
  -27.3624  -22.5998   24.4411 C   0  0  0  0  0  0  0  0  0  0  0  0
  -22.0443   -8.9454   20.3453 C   0  0  0  0  0  0  0  0  0  0  0  0
  -22.9869   -8.8344   22.5671 C   0  0  0  0  0  0  0  0  0  0  0  0
  -28.7379  -22.4059   24.3228 C   0  0  0  0  0  0  0  0  0  0  0  0
  -23.0331   -5.5211   21.8956 C   0  0  0  0  0  0  0  0  0  0  0  0
  -23.6427   -4.4395   22.5314 C   0  0  0  0  0  0  0  0  0  0  0  0
  -28.6853  -23.4127   22.1313 C   0  0  0  0  0  0  0  0  0  0  0  0
  -22.0988   -4.6544   24.3773 C   0  0  0  0  0  0  0  0  0  0  0  0
  -29.8645  -17.9981   21.1380 C   0  0  0  0  0  0  0  0  0  0  0  0
  -23.6984  -10.5643   21.0381 C   0  0  0  0  0  0  0  0  0  0  0  0
  -24.1792  -13.0684   20.9602 C   0  0  0  0  0  0  0  0  0  0  0  0
  -21.9672  -18.4626   23.2968 C   0  0  0  0  0  0  0  0  0  0  0  0
  -26.6349  -23.1928   23.3992 C   0  0  0  0  0  0  0  0  0  0  0  0
  -23.1997  -18.9887   22.8648 C   0  0  0  0  0  0  0  0  0  0  0  0
  -27.3010  -23.6154   22.2399 C   0  0  0  0  0  0  0  0  0  0  0  0
  -22.1213   -8.3317   21.5956 C   0  0  0  0  0  0  0  0  0  0  0  0
  -29.3991  -22.8097   23.1666 C   0  0  0  0  0  0  0  0  0  0  0  0
  -21.9564   -6.1694   22.5008 C   0  0  0  0  0  0  0  0  0  0  0  0
  -23.1755   -4.0061   23.7722 C   0  0  0  0  0  0  0  0  0  0  0  0
  -21.4893   -5.7360   23.7416 C   0  0  0  0  0  0  0  0  0  0  0  0
  -24.5136  -11.7171   20.7506 C   0  0  0  0  0  0  0  0  0  0  0  0
  -30.7021  -16.9416   20.8557 C   0  0  0  0  0  0  0  0  0  0  0  0
  -31.6775  -19.3701   21.3829 C   0  0  0  0  0  0  0  0  0  0  0  0
  -32.5153  -18.3135   21.1013 C   0  0  0  0  0  0  0  0  0  0  0  0
  -25.2810  -13.7657   20.5285 C   0  0  0  0  0  0  0  0  0  0  0  0
  -22.9799  -13.6420   21.4972 C   0  0  0  0  0  0  0  0  0  0  0  0
  -24.2619  -22.2553   21.5035 C   0  0  0  0  0  0  0  0  0  0  0  0
  -24.3609  -25.3401   20.5051 C   0  0  0  0  0  0  0  0  0  0  0  0
  -26.1665  -28.2145   20.1521 C   0  0  0  0  0  0  0  0  0  0  0  0
  -30.7958  -14.4913   20.2782 C   0  0  0  0  0  0  0  0  0  0  0  0
  -20.6740  -18.7919   22.5939 C   0  0  0  0  0  0  0  0  0  0  0  0
  -25.1560  -23.4193   23.5533 C   0  0  0  0  0  0  0  0  0  0  0  0
  -26.5693  -24.2754   21.1009 C   0  0  0  0  0  0  0  0  0  0  0  0
  -20.7607  -20.0325   21.7086 C   0  0  0  0  0  0  0  0  0  0  0  0
  -29.3510  -12.2233   17.9445 C   0  0  0  0  0  0  0  0  0  0  0  0
  -22.0213  -19.9891   20.8508 C   0  0  0  0  0  0  0  0  0  0  0  0
  -27.9362  -12.0006   18.4837 C   0  0  0  0  0  0  0  0  0  0  0  0
  -30.3727  -12.3603   19.0719 C   0  0  0  0  0  0  0  0  0  0  0  0
  -28.6307  -13.1472   20.6262 C   0  0  0  0  0  0  0  0  0  0  0  0
  -23.2823  -19.9788   21.7233 C   0  0  1  0  0  0  0  0  0  0  0  0
  -24.4316  -23.5658   22.2187 C   0  0  1  0  0  0  0  0  0  0  0  0
  -27.5569  -13.0681   19.5288 C   0  0  2  0  0  0  0  0  0  0  0  0
  -25.9895  -30.5557   19.2660 C   0  0  0  0  0  0  0  0  0  0  0  0
  -24.6189  -24.2787   17.6561 C   0  0  0  0  0  0  0  0  0  0  0  0
  -25.3811  -26.5568   16.9507 C   0  0  0  0  0  0  0  0  0  0  0  0
  -23.0960  -26.2472   17.9021 C   0  0  0  0  0  0  0  0  0  0  0  0
  -32.4550  -21.5810   20.5659 C   0  0  0  0  0  0  0  0  0  0  0  0
  -26.6756  -29.3872   22.8213 C   0  0  0  0  0  0  0  0  0  0  0  0
  -32.5508  -21.0350   23.0033 C   0  0  0  0  0  0  0  0  0  0  0  0
  -31.3032  -21.5026   23.7340 C   0  0  0  0  0  0  0  0  0  1  0  0
  -25.1055  -26.0920   19.4285 C   0  0  1  0  0  0  0  0  0  0  0  0
  -25.8365  -29.6585   20.4844 C   0  0  2  0  0  0  0  0  0  0  0  0
  -24.5641  -25.7795   18.0048 C   0  0  0  0  0  0  0  0  0  0  0  0
  -30.3371  -19.2313   21.4067 N   0  0  0  0  0  0  0  0  0  0  0  0
  -25.7324  -11.5629   20.2263 N   0  0  0  0  0  0  0  0  0  0  0  0
  -32.0426  -17.0804   20.8323 N   0  0  0  0  0  0  0  0  0  0  0  0
  -26.1734  -12.8263   20.1028 N   0  0  0  0  0  0  0  0  0  0  0  0
  -25.1230  -24.4691   21.2966 N   0  0  0  0  0  0  0  0  0  0  0  0
  -29.9492  -13.3923   20.0209 N   0  0  0  0  0  0  0  0  0  0  0  0
  -33.9145  -18.5142   21.0901 N   0  0  0  0  0  0  0  0  0  0  0  0
  -25.5637  -15.0847   20.4753 N   0  0  0  0  0  0  0  0  0  0  0  0
  -21.9463  -12.7816   21.8919 N   0  0  0  0  0  0  0  0  0  0  0  0
  -30.1264  -15.6758   20.5835 N   0  0  0  0  0  0  0  0  0  0  0  0
  -23.5611  -21.3075   22.2245 N   0  0  0  0  0  0  0  0  0  0  0  0
  -25.0407  -27.5023   19.7961 N   0  0  0  0  0  0  0  0  0  0  0  0
  -32.2215  -20.6324   21.6552 N   0  0  3  0  0  0  0  0  0  0  0  0
  -26.7408  -30.1631   21.5561 N   0  3  0  0  0  0  0  0  0  0  0  0
  -22.8228  -14.8816   21.6081 O   0  0  0  0  0  0  0  0  0  0  0  0
  -24.7308  -22.1150   20.3800 O   0  0  0  0  0  0  0  0  0  0  0  0
  -23.1491  -25.5244   20.6436 O   0  0  0  0  0  0  0  0  0  0  0  0
  -27.3091  -27.7644   20.1997 O   0  0  0  0  0  0  0  0  0  0  0  0
  -32.0236  -14.3958   20.2044 O   0  0  0  0  0  0  0  0  0  0  0  0
  -21.3518   -7.2426   21.8680 O   0  0  0  0  0  0  0  0  0  0  0  0
  -30.7416  -22.6210   23.0482 O   0  0  0  0  0  0  0  0  0  1  0  0
  -23.7600   -2.9664   24.3818 F   0  0  0  0  0  0  0  0  0  0  0  0
  -20.4545   -6.3541   24.3273 F   0  0  0  0  0  0  0  0  0  0  0  0
  1  2  1  0  0  0  0
  1  5  2  0  0  0  0
  2  6  2  0  0  0  0
  3  8  2  0  0  0  0
  3 16  1  0  0  0  0
  4  9  1  0  0  0  0
  4 16  2  0  0  0  0
  5 18  1  0  0  0  0
  6 20  1  0  0  0  0
  7 10  2  0  0  0  0
  7 19  1  0  0  0  0
  8 22  1  0  0  0  0
  9 22  2  0  0  0  0
 10 23  1  0  0  0  0
 11 12  2  0  0  0  0
 11 24  1  0  0  0  0
 12 25  1  0  0  0  0
 13 21  1  0  0  0  0
 13 23  2  0  0  0  0
 14 25  2  0  0  0  0
 14 26  1  0  0  0  0
 15 28  1  0  0  0  0
 15 60  2  0  0  0  0
 16 27  1  0  0  0  0
 17 27  1  0  0  0  0
 17 31  2  0  0  0  0
 17 32  1  0  0  0  0
 18 20  2  0  0  0  0
 18 37  1  0  0  0  0
 19 21  2  0  0  0  0
 19 38  1  0  0  0  0
 20 46  1  0  0  0  0
 21 39  1  0  0  0  0
 22 79  1  0  0  0  0
 23 80  1  0  0  0  0
 24 26  2  0  0  0  0
 24 79  1  0  0  0  0
 25 81  1  0  0  0  0
 26 82  1  0  0  0  0
 27 61  2  0  0  0  0
 28 62  2  0  0  0  0
 28 69  1  0  0  0  0
 29 30  2  0  0  0  0
 29 60  1  0  0  0  0
 29 72  1  0  0  0  0
 30 62  1  0  0  0  0
 30 66  1  0  0  0  0
 31 63  1  0  0  0  0
 31 67  1  0  0  0  0
 32 68  1  0  0  0  0
 32 74  2  0  0  0  0
 33 47  1  0  0  0  0
 33 70  1  0  0  0  0
 33 75  2  0  0  0  0
 34 57  1  0  0  0  0
 34 64  1  0  0  0  0
 34 76  2  0  0  0  0
 35 58  1  0  0  0  0
 35 71  1  0  0  0  0
 35 77  2  0  0  0  0
 36 65  1  0  0  0  0
 36 69  1  0  0  0  0
 36 78  2  0  0  0  0
 37 40  1  0  0  0  0
 38 47  1  0  0  0  0
 39 64  1  0  0  0  0
 40 42  1  0  0  0  0
 41 43  1  0  0  0  0
 41 44  1  0  0  0  0
 42 46  1  0  0  0  0
 43 48  1  0  0  0  0
 44 65  1  0  0  0  0
 45 48  1  0  0  0  0
 45 65  1  0  0  0  0
 46 70  1  0  0  0  0
 47 64  1  0  0  0  0
 48 63  1  0  0  0  0
 49 58  1  0  0  0  0
 50 59  1  0  0  0  0
 51 59  1  0  0  0  0
 52 59  1  0  0  0  0
 53 72  1  0  0  0  0
 54 73  1  0  0  0  0
 55 56  1  0  0  0  0
 55 72  1  0  0  0  0
 56 80  1  0  0  0  0
 57 59  1  0  0  0  0
 57 71  1  0  0  0  0
 58 73  1  0  0  0  0
 61 63  1  0  0  0  0
M  CHG  1  73   1
M  ISO  4  36 100  56 101  69 100  80 101
M  END
> <Batch ID>
0199

> <Smiles>
CNC(C)C(=O)NC(C(=O)N1Cc2cc([101O:1][101CH2:1]CN(C)c3ncc([100NH:0][100C:0](=O)N4CCCC(n5nc(-c6ccc(Oc7ccc(F)cc7F)cc6)c(C(N)=O)c5N)C4)nc3N)ccc2CC1C(=O)NC1CCCc2ccccc21)C(C)(C)C

> <Shape>
0.233

> <Color>
0.178

> <Negative vol penalty>
0.000

$$$$

  -OEChem-04052305473D

 84 92  0     1  0  0  0  0  0999 V2000
  -30.1060  -34.2579   24.8818 C   0  0  0  0  0  0  0  0  0  0  0  0
  -30.7220  -33.0482   24.5774 C   0  0  0  0  0  0  0  0  0  0  0  0
  -23.0122   -9.8799   19.9806 C   0  0  0  0  0  0  0  0  0  0  0  0
  -23.7356   -9.9415   22.2849 C   0  0  0  0  0  0  0  0  0  0  0  0
  -28.7150  -34.3529   24.8700 C   0  0  0  0  0  0  0  0  0  0  0  0
  -29.9473  -31.9325   24.2622 C   0  0  0  0  0  0  0  0  0  0  0  0
  -31.3230  -27.5078   20.2577 C   0  0  0  0  0  0  0  0  0  0  0  0
  -22.2521   -8.7418   20.2496 C   0  0  0  0  0  0  0  0  0  0  0  0
  -22.9754   -8.8034   22.5540 C   0  0  0  0  0  0  0  0  0  0  0  0
  -31.8598  -26.2312   20.4182 C   0  0  0  0  0  0  0  0  0  0  0  0
  -23.2392   -5.4646   22.0916 C   0  0  0  0  0  0  0  0  0  0  0  0
  -23.8321   -4.4529   22.8469 C   0  0  0  0  0  0  0  0  0  0  0  0
  -29.6343  -25.3003   20.4052 C   0  0  0  0  0  0  0  0  0  0  0  0
  -22.1058   -4.6906   24.5203 C   0  0  0  0  0  0  0  0  0  0  0  0
  -29.7512  -17.7393   22.6512 C   0  0  0  0  0  0  0  0  0  0  0  0
  -23.7541  -10.4797   20.9982 C   0  0  0  0  0  0  0  0  0  0  0  0
  -24.1250  -12.9970   20.8154 C   0  0  0  0  0  0  0  0  0  0  0  0
  -27.9232  -33.2402   24.5451 C   0  0  0  0  0  0  0  0  0  0  0  0
  -29.9349  -27.6918   20.1806 C   0  0  0  0  0  0  0  0  0  0  0  0
  -28.5444  -32.0123   24.2474 C   0  0  0  0  0  0  0  0  0  0  0  0
  -29.0825  -26.5801   20.2412 C   0  0  0  0  0  0  0  0  0  0  0  0
  -22.2336   -8.2035   21.5363 C   0  0  0  0  0  0  0  0  0  0  0  0
  -31.0153  -25.1275   20.4949 C   0  0  0  0  0  0  0  0  0  0  0  0
  -22.0796   -6.0894   22.5506 C   0  0  0  0  0  0  0  0  0  0  0  0
  -23.2654   -4.0659   24.0612 C   0  0  0  0  0  0  0  0  0  0  0  0
  -21.5129   -5.7023   23.7650 C   0  0  0  0  0  0  0  0  0  0  0  0
  -24.5400  -11.6551   20.7208 C   0  0  0  0  0  0  0  0  0  0  0  0
  -31.3923  -19.3312   22.6965 C   0  0  0  0  0  0  0  0  0  0  0  0
  -30.5537  -16.9341   21.8733 C   0  0  0  0  0  0  0  0  0  0  0  0
  -32.1952  -18.5257   21.9192 C   0  0  0  0  0  0  0  0  0  0  0  0
  -25.2308  -13.7249   20.4497 C   0  0  0  0  0  0  0  0  0  0  0  0
  -22.8537  -13.5372   21.1996 C   0  0  0  0  0  0  0  0  0  0  0  0
  -31.8080  -20.6641   23.1773 C   0  0  0  0  0  0  0  0  0  0  0  0
  -27.7773  -29.2426   21.9251 C   0  0  0  0  0  0  0  0  0  0  0  0
  -25.7798  -28.3701   19.5228 C   0  0  0  0  0  0  0  0  0  0  0  0
  -25.0899  -26.2171   16.9663 C   0  0  0  0  0  0  0  0  0  0  0  0
  -30.7045  -14.7182   20.6844 C   0  0  0  0  0  0  0  0  0  0  0  0
  -26.4221  -33.3790   24.5917 C   0  0  0  0  0  0  0  0  0  0  0  0
  -29.3729  -29.0725   19.9806 C   0  0  0  0  0  0  0  0  0  0  0  0
  -27.5863  -26.7217   20.1432 C   0  0  0  0  0  0  0  0  0  0  0  0
  -25.6834  -32.2476   23.8814 C   0  0  0  0  0  0  0  0  0  0  0  0
  -29.6019  -12.2524   18.3646 C   0  0  0  0  0  0  0  0  0  0  0  0
  -26.2646  -30.8957   24.2833 C   0  0  0  0  0  0  0  0  0  0  0  0
  -28.1525  -11.9876   18.7786 C   0  0  0  0  0  0  0  0  0  0  0  0
  -30.5002  -12.5044   19.5743 C   0  0  0  0  0  0  0  0  0  0  0  0
  -28.5795  -13.2859   20.9044 C   0  0  0  0  0  0  0  0  0  0  0  0
  -27.7390  -30.7861   23.8762 C   0  0  1  0  0  0  0  0  0  0  0  0
  -27.9204  -29.1973   20.4301 C   0  0  1  0  0  0  0  0  0  0  0  0
  -27.6237  -13.0908   19.7161 C   0  0  2  0  0  0  0  0  0  0  0  0
  -23.3657  -25.7353   15.2078 C   0  0  0  0  0  0  0  0  0  0  0  0
  -33.8370  -23.1874   20.4494 C   0  0  0  0  0  0  0  0  0  0  0  0
  -23.9520  -27.1655   21.6484 C   0  0  0  0  0  0  0  0  0  0  0  0
  -22.7828  -25.9046   19.8287 C   0  0  0  0  0  0  0  0  0  0  0  0
  -22.7624  -28.3990   19.8269 C   0  0  0  0  0  0  0  0  0  0  0  0
  -27.0368  -26.6376   14.7773 C   0  0  0  0  0  0  0  0  0  0  0  0
  -32.5432  -22.9554   22.6243 C   0  0  0  0  0  0  0  0  0  0  0  0
  -24.8979  -27.1766   19.2460 C   0  0  1  0  0  0  0  0  0  0  0  0
  -24.6618  -26.4624   15.5307 C   0  0  2  0  0  0  0  0  0  0  0  0
  -32.7703  -23.7769   21.3619 C   0  0  2  0  0  0  0  0  0  1  0  0
  -23.6268  -27.1586   20.1413 C   0  0  0  0  0  0  0  0  0  0  0  0
  -30.1561  -18.9523   23.0767 N   0  0  0  0  0  0  0  0  0  0  0  0
  -25.8102  -11.5348   20.3258 N   0  0  0  0  0  0  0  0  0  0  0  0
  -31.7901  -17.3128   21.4934 N   0  0  0  0  0  0  0  0  0  0  0  0
  -26.2029  -12.8104   20.1688 N   0  0  0  0  0  0  0  0  0  0  0  0
  -27.0847  -28.0930   19.9544 N   0  0  0  0  0  0  0  0  0  0  0  0
  -29.9385  -13.5645   20.4143 N   0  0  0  0  0  0  0  0  0  0  0  0
  -33.4820  -18.9824   21.5553 N   0  0  0  0  0  0  0  0  0  0  0  0
  -25.4567  -15.0517   20.3440 N   0  0  0  0  0  0  0  0  0  0  0  0
  -21.8268  -12.6481   21.5449 N   0  0  0  0  0  0  0  0  0  0  0  0
  -31.8552  -20.8704   24.4934 N   0  0  0  0  0  0  0  0  0  0  0  0
  -30.0543  -15.6719   21.4669 N   0  0  0  0  0  0  0  0  0  0  0  0
  -27.8533  -30.5147   22.4593 N   0  0  0  0  0  0  0  0  0  0  0  0
  -24.6198  -27.1978   17.8140 N   0  0  0  0  0  0  0  0  0  0  0  0
  -32.1145  -21.5994   22.2708 N   0  3  0  0  0  0  0  0  0  0  0  0
  -25.7142  -25.9880   14.5881 N   0  3  0  0  0  0  0  0  0  0  0  0
  -22.6298  -14.7713   21.2197 O   0  0  0  0  0  0  0  0  0  0  0  0
  -27.6089  -28.2006   22.5478 O   0  0  0  0  0  0  0  0  0  0  0  0
  -25.3299  -29.5064   19.3551 O   0  0  0  0  0  0  0  0  0  0  0  0
  -25.7699  -25.2502   17.3027 O   0  0  0  0  0  0  0  0  0  0  0  0
  -31.8427  -14.8624   20.2307 O   0  0  0  0  0  0  0  0  0  0  0  0
  -21.4918   -7.0931   21.7992 O   0  0  0  0  0  0  0  0  0  0  0  0
  -31.5366  -23.8803   20.6523 O   0  0  0  0  0  0  0  0  0  1  0  0
  -23.8340   -3.0932   24.7857 F   0  0  0  0  0  0  0  0  0  0  0  0
  -20.3983   -6.2980   24.2106 F   0  0  0  0  0  0  0  0  0  0  0  0
  1  2  1  0  0  0  0
  1  5  2  0  0  0  0
  2  6  2  0  0  0  0
  3  8  2  0  0  0  0
  3 16  1  0  0  0  0
  4  9  1  0  0  0  0
  4 16  2  0  0  0  0
  5 18  1  0  0  0  0
  6 20  1  0  0  0  0
  7 10  2  0  0  0  0
  7 19  1  0  0  0  0
  8 22  1  0  0  0  0
  9 22  2  0  0  0  0
 10 23  1  0  0  0  0
 11 12  2  0  0  0  0
 11 24  1  0  0  0  0
 12 25  1  0  0  0  0
 13 21  1  0  0  0  0
 13 23  2  0  0  0  0
 14 25  2  0  0  0  0
 14 26  1  0  0  0  0
 15 29  1  0  0  0  0
 15 61  2  0  0  0  0
 16 27  1  0  0  0  0
 17 27  1  0  0  0  0
 17 31  2  0  0  0  0
 17 32  1  0  0  0  0
 18 20  2  0  0  0  0
 18 38  1  0  0  0  0
 19 21  2  0  0  0  0
 19 39  1  0  0  0  0
 20 47  1  0  0  0  0
 21 40  1  0  0  0  0
 22 81  1  0  0  0  0
 23 82  1  0  0  0  0
 24 26  2  0  0  0  0
 24 81  1  0  0  0  0
 25 83  1  0  0  0  0
 26 84  1  0  0  0  0
 27 62  2  0  0  0  0
 28 30  2  0  0  0  0
 28 33  1  0  0  0  0
 28 61  1  0  0  0  0
 29 63  2  0  0  0  0
 29 71  1  0  0  0  0
 30 63  1  0  0  0  0
 30 67  1  0  0  0  0
 31 64  1  0  0  0  0
 31 68  1  0  0  0  0
 32 69  1  0  0  0  0
 32 76  2  0  0  0  0
 33 70  1  0  0  0  0
 33 74  2  0  0  0  0
 34 48  1  0  0  0  0
 34 72  1  0  0  0  0
 34 77  2  0  0  0  0
 35 57  1  0  0  0  0
 35 65  1  0  0  0  0
 35 78  2  0  0  0  0
 36 58  1  0  0  0  0
 36 73  1  0  0  0  0
 36 79  2  0  0  0  0
 37 66  1  0  0  0  0
 37 71  1  0  0  0  0
 37 80  2  0  0  0  0
 38 41  1  0  0  0  0
 39 48  1  0  0  0  0
 40 65  1  0  0  0  0
 41 43  1  0  0  0  0
 42 44  1  0  0  0  0
 42 45  1  0  0  0  0
 43 47  1  0  0  0  0
 44 49  1  0  0  0  0
 45 66  1  0  0  0  0
 46 49  1  0  0  0  0
 46 66  1  0  0  0  0
 47 72  1  0  0  0  0
 48 65  1  0  0  0  0
 49 64  1  0  0  0  0
 50 58  1  0  0  0  0
 51 59  1  0  0  0  0
 52 60  1  0  0  0  0
 53 60  1  0  0  0  0
 54 60  1  0  0  0  0
 55 75  1  0  0  0  0
 56 59  1  0  0  0  0
 56 74  1  0  0  0  0
 57 60  1  0  0  0  0
 57 73  1  0  0  0  0
 58 75  1  0  0  0  0
 59 82  1  0  0  0  0
 62 64  1  0  0  0  0
M  CHG  2  74   1  75   1
M  ISO  4  37 100  59 101  71 100  82 101
M  END
> <Batch ID>
0199

> <Smiles>
CNC(C)C(=O)NC(C(=O)N1Cc2cc([101O:1][101CH:1](C)CNC(=N)c3ncc([100NH:0][100C:0](=O)N4CCCC(n5nc(-c6ccc(Oc7ccc(F)cc7F)cc6)c(C(N)=O)c5N)C4)nc3N)ccc2CC1C(=O)NC1CCCc2ccccc21)C(C)(C)C

> <Shape>
0.322

> <Color>
0.179

> <Negative vol penalty>
0.000

$$$$

  -OEChem-04052305473D

 83 91  0     1  0  0  0  0  0999 V2000
  -30.9003  -33.4728   28.3643 C   0  0  0  0  0  0  0  0  0  0  0  0
  -31.1682  -32.6858   27.2489 C   0  0  0  0  0  0  0  0  0  0  0  0
  -23.8736   -9.6894   21.7108 C   0  0  0  0  0  0  0  0  0  0  0  0
  -24.4953  -10.9082   23.7021 C   0  0  0  0  0  0  0  0  0  0  0  0
  -29.6647  -33.3771   29.0031 C   0  0  0  0  0  0  0  0  0  0  0  0
  -30.2009  -31.8017   26.7722 C   0  0  0  0  0  0  0  0  0  0  0  0
  -29.1478  -30.2976   20.9298 C   0  0  0  0  0  0  0  0  0  0  0  0
  -23.3841   -8.6490   22.5004 C   0  0  0  0  0  0  0  0  0  0  0  0
  -24.0057   -9.8677   24.4917 C   0  0  0  0  0  0  0  0  0  0  0  0
  -29.5374  -29.2039   20.1579 C   0  0  0  0  0  0  0  0  0  0  0  0
  -20.6065   -7.9921   24.3131 C   0  0  0  0  0  0  0  0  0  0  0  0
  -19.3670   -7.4492   23.9746 C   0  0  0  0  0  0  0  0  0  0  0  0
  -27.4280  -28.1306   20.6246 C   0  0  0  0  0  0  0  0  0  0  0  0
  -20.3998   -5.2880   23.6589 C   0  0  0  0  0  0  0  0  0  0  0  0
  -28.5692  -19.1783   20.2190 C   0  0  0  0  0  0  0  0  0  0  0  0
  -24.4292  -10.8190   22.3117 C   0  0  0  0  0  0  0  0  0  0  0  0
  -24.2241  -13.0163   21.0319 C   0  0  0  0  0  0  0  0  0  0  0  0
  -28.6783  -32.4984   28.5282 C   0  0  0  0  0  0  0  0  0  0  0  0
  -27.8976  -30.3113   21.5648 C   0  0  0  0  0  0  0  0  0  0  0  0
  -28.9515  -31.6932   27.4060 C   0  0  0  0  0  0  0  0  0  0  0  0
  -27.0238  -29.2268   21.4019 C   0  0  0  0  0  0  0  0  0  0  0  0
  -23.4501   -8.7381   23.8908 C   0  0  0  0  0  0  0  0  0  0  0  0
  -28.6787  -28.1190   20.0075 C   0  0  0  0  0  0  0  0  0  0  0  0
  -21.7427   -7.1829   24.3245 C   0  0  0  0  0  0  0  0  0  0  0  0
  -19.2637   -6.0972   23.6475 C   0  0  0  0  0  0  0  0  0  0  0  0
  -21.6393   -5.8309   23.9974 C   0  0  0  0  0  0  0  0  0  0  0  0
  -24.9356  -11.8939   21.4966 C   0  0  0  0  0  0  0  0  0  0  0  0
  -29.5564  -18.3095   19.8090 C   0  0  0  0  0  0  0  0  0  0  0  0
  -29.8054  -20.9439   19.4551 C   0  0  0  0  0  0  0  0  0  0  0  0
  -30.7931  -20.0753   19.0457 C   0  0  0  0  0  0  0  0  0  0  0  0
  -25.1461  -13.7314   20.3074 C   0  0  0  0  0  0  0  0  0  0  0  0
  -22.8525  -13.3799   21.2370 C   0  0  0  0  0  0  0  0  0  0  0  0
  -26.9176  -30.4433   24.5858 C   0  0  0  0  0  0  0  0  0  0  0  0
  -23.9867  -30.6804   23.2160 C   0  0  0  0  0  0  0  0  0  0  0  0
  -21.9974  -30.0837   20.5080 C   0  0  0  0  0  0  0  0  0  0  0  0
  -30.2418  -15.8884   19.6873 C   0  0  0  0  0  0  0  0  0  0  0  0
  -27.3750  -32.3953   29.2802 C   0  0  0  0  0  0  0  0  0  0  0  0
  -27.4814  -31.5102   22.3722 C   0  0  0  0  0  0  0  0  0  0  0  0
  -25.6627  -29.2013   22.0462 C   0  0  0  0  0  0  0  0  0  0  0  0
  -26.2673  -31.7062   28.4875 C   0  0  0  0  0  0  0  0  0  0  0  0
  -29.7974  -12.4826   18.7493 C   0  0  0  0  0  0  0  0  0  0  0  0
  -26.7914  -30.4303   27.8363 C   0  0  0  0  0  0  0  0  0  0  0  0
  -28.4344  -12.1181   19.3422 C   0  0  0  0  0  0  0  0  0  0  0  0
  -30.5786  -13.4266   19.6616 C   0  0  0  0  0  0  0  0  0  0  0  0
  -28.4919  -14.2738   20.6601 C   0  0  0  0  0  0  0  0  0  0  0  0
  -27.9188  -30.7403   26.8441 C   0  0  1  0  0  0  0  0  0  0  0  0
  -26.3938  -31.1940   23.3942 C   0  0  1  0  0  0  0  0  0  0  0  0
  -27.6412  -13.3762   19.7467 C   0  0  2  0  0  0  0  0  0  0  0  0
  -19.6376  -30.3557   19.6990 C   0  0  0  0  0  0  0  0  0  0  0  0
  -23.1223  -28.3255   24.9531 C   0  0  0  0  0  0  0  0  0  0  0  0
  -21.1346  -28.0418   23.4576 C   0  0  0  0  0  0  0  0  0  0  0  0
  -21.4266  -30.1529   24.7542 C   0  0  0  0  0  0  0  0  0  0  0  0
  -22.8430  -31.8227   18.2675 C   0  0  0  0  0  0  0  0  0  0  0  0
  -29.0259  -23.3076   19.6302 C   0  0  0  0  0  0  0  0  0  0  0  0
  -28.5301  -25.7764   19.6254 C   0  0  0  0  0  0  0  0  0  1  0  0
  -22.9305  -29.6965   22.7738 C   0  0  1  0  0  0  0  0  0  0  0  0
  -21.0254  -30.9750   19.7562 C   0  0  2  0  0  0  0  0  0  0  0  0
  -29.5277  -24.6934   19.2290 C   0  0  1  0  0  0  0  0  0  0  0  0
  -22.1799  -29.0535   23.9740 C   0  0  0  0  0  0  0  0  0  0  0  0
  -28.6759  -20.5111   20.0494 N   0  0  0  0  0  0  0  0  0  0  0  0
  -26.2111  -11.8917   21.1003 N   0  0  0  0  0  0  0  0  0  0  0  0
  -30.6861  -18.7425   19.2150 N   0  0  0  0  0  0  0  0  0  0  0  0
  -26.3084  -13.0214   20.3790 N   0  0  0  0  0  0  0  0  0  0  0  0
  -25.3041  -30.3942   22.8309 N   0  0  0  0  0  0  0  0  0  0  0  0
  -29.7662  -14.5973   19.9995 N   0  0  0  0  0  0  0  0  0  0  0  0
  -25.0679  -14.8920   19.6224 N   0  0  0  0  0  0  0  0  0  0  0  0
  -22.0445  -12.5323   22.0071 N   0  0  0  0  0  0  0  0  0  0  0  0
  -29.3690  -16.9219   20.0260 N   0  0  0  0  0  0  0  0  0  0  0  0
  -29.9887  -22.3002   19.2452 N   0  0  0  0  0  0  0  0  0  0  0  0
  -27.3748  -31.2555   25.6059 N   0  0  0  0  0  0  0  0  0  0  0  0
  -22.0661  -30.4159   21.8445 N   0  0  0  0  0  0  0  0  0  0  0  0
  -21.4990  -31.1967   18.3607 N   0  3  0  0  0  0  0  0  0  0  0  0
  -22.3538  -14.4172   20.7381 O   0  0  0  0  0  0  0  0  0  0  0  0
  -26.9063  -29.2179   24.5806 O   0  0  0  0  0  0  0  0  0  0  0  0
  -23.6540  -31.6702   23.8727 O   0  0  0  0  0  0  0  0  0  0  0  0
  -22.6296  -29.1804   19.9648 O   0  0  0  0  0  0  0  0  0  0  0  0
  -31.3304  -16.0627   19.1337 O   0  0  0  0  0  0  0  0  0  0  0  0
  -30.7545  -24.9616   19.9110 O   0  0  0  0  0  0  0  0  0  0  0  0
  -22.9724   -7.7232   24.6616 O   0  0  0  0  0  0  0  0  0  0  0  0
  -29.0568  -27.0499   19.2552 O   0  0  0  0  0  0  0  0  0  1  0  0
  -18.0731   -5.5757   23.3238 F   0  0  0  0  0  0  0  0  0  0  0  0
  -22.7271   -5.0483   24.0077 F   0  0  0  0  0  0  0  0  0  0  0  0
  -31.9041  -20.5442   18.4575 F   0  0  0  0  0  0  0  0  0  0  0  0
  1  2  1  0  0  0  0
  1  5  2  0  0  0  0
  2  6  2  0  0  0  0
  3  8  2  0  0  0  0
  3 16  1  0  0  0  0
  4  9  1  0  0  0  0
  4 16  2  0  0  0  0
  5 18  1  0  0  0  0
  6 20  1  0  0  0  0
  7 10  2  0  0  0  0
  7 19  1  0  0  0  0
  8 22  1  0  0  0  0
  9 22  2  0  0  0  0
 10 23  1  0  0  0  0
 11 12  2  0  0  0  0
 11 24  1  0  0  0  0
 12 25  1  0  0  0  0
 13 21  1  0  0  0  0
 13 23  2  0  0  0  0
 14 25  2  0  0  0  0
 14 26  1  0  0  0  0
 15 28  1  0  0  0  0
 15 60  2  0  0  0  0
 16 27  1  0  0  0  0
 17 27  1  0  0  0  0
 17 31  2  0  0  0  0
 17 32  1  0  0  0  0
 18 20  2  0  0  0  0
 18 37  1  0  0  0  0
 19 21  2  0  0  0  0
 19 38  1  0  0  0  0
 20 46  1  0  0  0  0
 21 39  1  0  0  0  0
 22 79  1  0  0  0  0
 23 80  1  0  0  0  0
 24 26  2  0  0  0  0
 24 79  1  0  0  0  0
 25 81  1  0  0  0  0
 26 82  1  0  0  0  0
 27 61  2  0  0  0  0
 28 62  2  0  0  0  0
 28 68  1  0  0  0  0
 29 30  2  0  0  0  0
 29 60  1  0  0  0  0
 29 69  1  0  0  0  0
 30 62  1  0  0  0  0
 30 83  1  0  0  0  0
 31 63  1  0  0  0  0
 31 66  1  0  0  0  0
 32 67  1  0  0  0  0
 32 73  2  0  0  0  0
 33 47  1  0  0  0  0
 33 70  1  0  0  0  0
 33 74  2  0  0  0  0
 34 56  1  0  0  0  0
 34 64  1  0  0  0  0
 34 75  2  0  0  0  0
 35 57  1  0  0  0  0
 35 71  1  0  0  0  0
 35 76  2  0  0  0  0
 36 65  1  0  0  0  0
 36 68  1  0  0  0  0
 36 77  2  0  0  0  0
 37 40  1  0  0  0  0
 38 47  1  0  0  0  0
 39 64  1  0  0  0  0
 40 42  1  0  0  0  0
 41 43  1  0  0  0  0
 41 44  1  0  0  0  0
 42 46  1  0  0  0  0
 43 48  1  0  0  0  0
 44 65  1  0  0  0  0
 45 48  1  0  0  0  0
 45 65  1  0  0  0  0
 46 70  1  0  0  0  0
 47 64  1  0  0  0  0
 48 63  1  0  0  0  0
 49 57  1  0  0  0  0
 50 59  1  0  0  0  0
 51 59  1  0  0  0  0
 52 59  1  0  0  0  0
 53 72  1  0  0  0  0
 54 58  1  0  0  0  0
 54 69  1  0  0  0  0
 55 58  1  0  0  0  0
 55 80  1  0  0  0  0
 56 59  1  0  0  0  0
 56 71  1  0  0  0  0
 57 72  1  0  0  0  0
 58 78  1  0  0  0  0
 61 63  1  0  0  0  0
M  CHG  1  72   1
M  ISO  4  36 100  55 101  68 100  80 101
M  END
> <Batch ID>
0199

> <Smiles>
CNC(C)C(=O)NC(C(=O)N1Cc2cc([101O:1][101CH2:1]C(O)CNc3ncc([100NH:0][100C:0](=O)N4CCCC(n5nc(-c6ccc(Oc7ccc(F)cc7F)cc6)c(C(N)=O)c5N)C4)nc3F)ccc2CC1C(=O)NC1CCCc2ccccc21)C(C)(C)C

> <Shape>
0.325

> <Color>
0.156

> <Negative vol penalty>
0.000

$$$$

  -OEChem-04052305473D

 81 89  0     1  0  0  0  0  0999 V2000
  -22.7923  -11.0967   22.5959 C   0  0  0  0  0  0  0  0  0  0  0  0
  -23.0594  -12.2670   23.2991 C   0  0  0  0  0  0  0  0  0  0  0  0
  -26.3689  -28.6866   18.8850 C   0  0  0  0  0  0  0  0  0  0  0  0
  -26.4830  -28.7170   21.2981 C   0  0  0  0  0  0  0  0  0  0  0  0
  -23.4969  -10.8108   21.4273 C   0  0  0  0  0  0  0  0  0  0  0  0
  -24.0321  -13.1516   22.8346 C   0  0  0  0  0  0  0  0  0  0  0  0
  -23.9506  -19.2613   23.2472 C   0  0  0  0  0  0  0  0  0  0  0  0
  -25.0988  -29.2606   18.9377 C   0  0  0  0  0  0  0  0  0  0  0  0
  -25.2128  -29.2911   21.3509 C   0  0  0  0  0  0  0  0  0  0  0  0
  -24.5529  -20.1494   24.1374 C   0  0  0  0  0  0  0  0  0  0  0  0
  -22.0028  -28.2682   21.0678 C   0  0  0  0  0  0  0  0  0  0  0  0
  -21.0947  -27.7489   21.9904 C   0  0  0  0  0  0  0  0  0  0  0  0
  -26.3739  -20.4601   22.5860 C   0  0  0  0  0  0  0  0  0  0  0  0
  -20.9417  -29.9113   23.0569 C   0  0  0  0  0  0  0  0  0  0  0  0
  -27.0610  -28.4147   20.0652 C   0  0  0  0  0  0  0  0  0  0  0  0
  -29.6080  -28.4934   19.9447 C   0  0  0  0  0  0  0  0  0  0  0  0
  -24.4720  -11.6970   20.9430 C   0  0  0  0  0  0  0  0  0  0  0  0
  -24.5619  -18.9570   22.0224 C   0  0  0  0  0  0  0  0  0  0  0  0
  -24.7514  -12.8766   21.6591 C   0  0  0  0  0  0  0  0  0  0  0  0
  -25.7761  -19.5697   21.6810 C   0  0  0  0  0  0  0  0  0  0  0  0
  -24.5207  -29.5629   20.1707 C   0  0  0  0  0  0  0  0  0  0  0  0
  -25.7661  -20.7468   23.8081 C   0  0  0  0  0  0  0  0  0  0  0  0
  -22.3804  -29.6091   21.1397 C   0  0  0  0  0  0  0  0  0  0  0  0
  -20.5641  -28.5704   22.9850 C   0  0  0  0  0  0  0  0  0  0  0  0
  -21.8498  -30.4306   22.1343 C   0  0  0  0  0  0  0  0  0  0  0  0
  -28.3729  -27.8212   20.0114 C   0  0  0  0  0  0  0  0  0  0  0  0
  -30.5443  -27.4890   19.9140 C   0  0  0  0  0  0  0  0  0  0  0  0
  -29.9356  -22.2375   25.4746 C   0  0  0  0  0  0  0  0  0  0  0  0
  -28.3663  -23.0312   26.7564 C   0  0  0  0  0  0  0  0  0  0  0  0
  -29.8842  -29.9000   19.9135 C   0  0  0  0  0  0  0  0  0  0  0  0
  -25.7020  -16.3105   20.6808 C   0  0  0  0  0  0  0  0  0  0  0  0
  -26.0824  -18.2462   18.1057 C   0  0  0  0  0  0  0  0  0  0  0  0
  -26.4717  -21.4126   16.8937 C   0  0  0  0  0  0  0  0  0  0  0  0
  -30.5072  -21.8197   21.8396 C   0  0  0  0  0  0  0  0  0  0  0  0
  -25.2409  -11.3221   19.7009 C   0  0  0  0  0  0  0  0  0  0  0  0
  -23.8862  -18.0175   21.0617 C   0  0  0  0  0  0  0  0  0  0  0  0
  -26.4632  -19.2922   20.3698 C   0  0  0  0  0  0  0  0  0  0  0  0
  -25.9926  -12.4931   19.0732 C   0  0  0  0  0  0  0  0  0  0  0  0
  -31.1210  -22.9489   18.5192 C   0  0  0  0  0  0  0  0  0  0  0  0
  -26.7472  -13.2775   20.1419 C   0  0  0  0  0  0  0  0  0  0  0  0
  -30.5977  -24.3863   18.5191 C   0  0  0  0  0  0  0  0  0  0  0  0
  -30.2571  -22.0339   19.3844 C   0  0  0  0  0  0  0  0  0  0  0  0
  -29.5294  -23.9391   20.7680 C   0  0  0  0  0  0  0  0  0  0  0  0
  -25.7818  -13.8730   21.1738 C   0  0  1  0  0  0  0  0  0  0  0  0
  -24.8525  -17.3857   20.0644 C   0  0  1  0  0  0  0  0  0  0  0  0
  -30.4003  -24.9113   19.9539 C   0  0  2  0  0  0  0  0  0  0  0  0
  -26.7954  -22.6751   14.7493 C   0  0  0  0  0  0  0  0  0  0  0  0
  -25.0926  -24.7323   26.2970 C   0  0  0  0  0  0  0  0  0  0  0  0
  -29.0004  -17.3581   18.0262 C   0  0  0  0  0  0  0  0  0  0  0  0
  -29.4805  -19.3081   16.5310 C   0  0  0  0  0  0  0  0  0  0  0  0
  -27.9001  -17.5274   15.7867 C   0  0  0  0  0  0  0  0  0  0  0  0
  -23.9537  -22.9224   17.2672 C   0  0  0  0  0  0  0  0  0  0  0  0
  -30.7078  -21.7601   24.3125 C   0  0  0  0  0  0  0  0  0  0  0  0
  -25.4947  -22.3700   25.5248 C   0  0  0  0  0  0  0  0  0  1  0  0
  -27.1848  -19.1425   17.5955 C   0  0  1  0  0  0  0  0  0  0  0  0
  -25.7854  -22.1473   15.7563 C   0  0  2  0  0  0  0  0  0  0  0  0
  -26.1381  -23.7129   25.8643 C   0  0  2  0  0  0  0  0  0  0  0  0
  -28.3797  -18.3380   17.0105 C   0  0  0  0  0  0  0  0  0  0  0  0
  -28.5089  -26.4925   20.0222 N   0  0  0  0  0  0  0  0  0  0  0  0
  -28.7012  -22.6905   25.4568 N   0  0  0  0  0  0  0  0  0  0  0  0
  -29.2413  -22.8757   27.7498 N   0  0  0  0  0  0  0  0  0  0  0  0
  -29.8405  -26.3217   19.9618 N   0  0  0  0  0  0  0  0  0  0  0  0
  -25.7660  -18.3616   19.4667 N   0  0  0  0  0  0  0  0  0  0  0  0
  -30.1105  -22.5879   20.7325 N   0  0  0  0  0  0  0  0  0  0  0  0
  -31.8927  -27.4993   19.8508 N   0  0  0  0  0  0  0  0  0  0  0  0
  -28.8053  -30.7938   19.9524 N   0  0  0  0  0  0  0  0  0  0  0  0
  -27.0921  -23.5354   26.9407 N   0  0  0  0  0  0  0  0  0  0  0  0
  -25.1341  -15.0515   20.6388 N   0  0  0  0  0  0  0  0  0  0  0  0
  -26.5601  -20.0588   16.6476 N   0  0  0  0  0  0  0  0  0  0  0  0
  -30.3402  -22.4220   23.0806 N   0  0  0  0  0  0  0  0  0  0  0  0
  -25.0005  -23.2995   16.2828 N   0  3  0  0  0  0  0  0  0  0  0  0
  -31.0522  -30.3507   19.8362 O   0  0  0  0  0  0  0  0  0  0  0  0
  -26.7927  -16.6014   21.1577 O   0  0  0  0  0  0  0  0  0  0  0  0
  -25.5177  -17.4771   17.3238 O   0  0  0  0  0  0  0  0  0  0  0  0
  -26.8910  -21.9832   17.8983 O   0  0  0  0  0  0  0  0  0  0  0  0
  -30.9804  -20.6835   21.7298 O   0  0  0  0  0  0  0  0  0  0  0  0
  -23.2814  -30.1233   20.2225 O   0  0  0  0  0  0  0  0  0  0  0  0
  -26.3564  -21.6135   24.6754 O   0  0  0  0  0  0  0  0  0  1  0  0
  -19.6909  -28.0720   23.8700 F   0  0  0  0  0  0  0  0  0  0  0  0
  -22.2079  -31.7199   22.2077 F   0  0  0  0  0  0  0  0  0  0  0  0
  -30.6237  -22.2471   27.0465 S   0  0  0  0  0  0  0  0  0  0  0  0
  1  2  1  0  0  0  0
  1  5  2  0  0  0  0
  2  6  2  0  0  0  0
  3  8  2  0  0  0  0
  3 15  1  0  0  0  0
  4  9  1  0  0  0  0
  4 15  2  0  0  0  0
  5 17  1  0  0  0  0
  6 19  1  0  0  0  0
  7 10  2  0  0  0  0
  7 18  1  0  0  0  0
  8 21  1  0  0  0  0
  9 21  2  0  0  0  0
 10 22  1  0  0  0  0
 11 12  2  0  0  0  0
 11 23  1  0  0  0  0
 12 24  1  0  0  0  0
 13 20  1  0  0  0  0
 13 22  2  0  0  0  0
 14 24  2  0  0  0  0
 14 25  1  0  0  0  0
 15 26  1  0  0  0  0
 16 26  1  0  0  0  0
 16 27  2  0  0  0  0
 16 30  1  0  0  0  0
 17 19  2  0  0  0  0
 17 35  1  0  0  0  0
 18 20  2  0  0  0  0
 18 36  1  0  0  0  0
 19 44  1  0  0  0  0
 20 37  1  0  0  0  0
 21 77  1  0  0  0  0
 22 78  1  0  0  0  0
 23 25  2  0  0  0  0
 23 77  1  0  0  0  0
 24 79  1  0  0  0  0
 25 80  1  0  0  0  0
 26 59  2  0  0  0  0
 27 62  1  0  0  0  0
 27 65  1  0  0  0  0
 28 53  1  0  0  0  0
 28 60  2  0  0  0  0
 28 81  1  0  0  0  0
 29 60  1  0  0  0  0
 29 61  2  0  0  0  0
 29 67  1  0  0  0  0
 30 66  1  0  0  0  0
 30 72  2  0  0  0  0
 31 45  1  0  0  0  0
 31 68  1  0  0  0  0
 31 73  2  0  0  0  0
 32 55  1  0  0  0  0
 32 63  1  0  0  0  0
 32 74  2  0  0  0  0
 33 56  1  0  0  0  0
 33 69  1  0  0  0  0
 33 75  2  0  0  0  0
 34 64  1  0  0  0  0
 34 70  1  0  0  0  0
 34 76  2  0  0  0  0
 35 38  1  0  0  0  0
 36 45  1  0  0  0  0
 37 63  1  0  0  0  0
 38 40  1  0  0  0  0
 39 41  1  0  0  0  0
 39 42  1  0  0  0  0
 40 44  1  0  0  0  0
 41 46  1  0  0  0  0
 42 64  1  0  0  0  0
 43 46  1  0  0  0  0
 43 64  1  0  0  0  0
 44 68  1  0  0  0  0
 45 63  1  0  0  0  0
 46 62  1  0  0  0  0
 47 56  1  0  0  0  0
 48 57  1  0  0  0  0
 49 58  1  0  0  0  0
 50 58  1  0  0  0  0
 51 58  1  0  0  0  0
 52 71  1  0  0  0  0
 53 70  1  0  0  0  0
 54 57  1  0  0  0  0
 54 78  1  0  0  0  0
 55 58  1  0  0  0  0
 55 69  1  0  0  0  0
 56 71  1  0  0  0  0
 57 67  1  0  0  0  0
 59 62  1  0  0  0  0
 61 81  1  0  0  0  0
M  CHG  1  71   1
M  ISO  4  34 100  54 101  70 100  78 101
M  END
> <Batch ID>
0199

> <Smiles>
CNC(C)C(=O)NC(C(=O)N1Cc2cc([101O:1][101CH2:1]C(C)Nc3nsc(C[100NH:0][100C:0](=O)N4CCCC(n5nc(-c6ccc(Oc7ccc(F)cc7F)cc6)c(C(N)=O)c5N)C4)n3)ccc2CC1C(=O)NC1CCCc2ccccc21)C(C)(C)C

> <Shape>
0.199

> <Color>
0.061

> <Negative vol penalty>
0.000

$$$$

  -OEChem-04052305473D

 83 91  0     1  0  0  0  0  0999 V2000
  -25.2295  -20.6167   25.8721 C   0  0  0  0  0  0  0  0  0  0  0  0
  -26.3584  -21.3025   25.4353 C   0  0  0  0  0  0  0  0  0  0  0  0
  -27.0235  -12.7447   20.9914 C   0  0  0  0  0  0  0  0  0  0  0  0
  -26.8906  -13.1646   18.6158 C   0  0  0  0  0  0  0  0  0  0  0  0
  -23.9731  -20.9536   25.3704 C   0  0  0  0  0  0  0  0  0  0  0  0
  -26.2315  -22.3248   24.4956 C   0  0  0  0  0  0  0  0  0  0  0  0
  -29.5587  -27.4558   24.1658 C   0  0  0  0  0  0  0  0  0  0  0  0
  -26.3368  -11.5432   20.8174 C   0  0  0  0  0  0  0  0  0  0  0  0
  -26.2040  -11.9630   18.4419 C   0  0  0  0  0  0  0  0  0  0  0  0
  -30.6580  -27.8124   23.3860 C   0  0  0  0  0  0  0  0  0  0  0  0
  -23.1393  -10.5449   20.3656 C   0  0  0  0  0  0  0  0  0  0  0  0
  -22.1091  -10.2528   21.2594 C   0  0  0  0  0  0  0  0  0  0  0  0
  -29.1825  -28.8839   21.8068 C   0  0  0  0  0  0  0  0  0  0  0  0
  -23.2698   -8.2468   21.9418 C   0  0  0  0  0  0  0  0  0  0  0  0
  -31.4024  -21.9921   17.5049 C   0  0  0  0  0  0  0  0  0  0  0  0
  -27.3003  -13.5555   19.8906 C   0  0  0  0  0  0  0  0  0  0  0  0
  -29.4023  -14.9946   20.0265 C   0  0  0  0  0  0  0  0  0  0  0  0
  -23.8296  -21.9871   24.4313 C   0  0  0  0  0  0  0  0  0  0  0  0
  -28.2600  -27.8017   23.7658 C   0  0  0  0  0  0  0  0  0  0  0  0
  -24.9721  -22.6749   23.9798 C   0  0  0  0  0  0  0  0  0  0  0  0
  -28.0686  -28.5328   22.5846 C   0  0  0  0  0  0  0  0  0  0  0  0
  -25.9271  -11.1522   19.5427 C   0  0  0  0  0  0  0  0  0  0  0  0
  -30.4698  -28.5241   22.2048 C   0  0  0  0  0  0  0  0  0  0  0  0
  -24.2348   -9.6879   20.2598 C   0  0  0  0  0  0  0  0  0  0  0  0
  -22.1743   -9.1038   22.0475 C   0  0  0  0  0  0  0  0  0  0  0  0
  -24.3001   -8.5389   21.0479 C   0  0  0  0  0  0  0  0  0  0  0  0
  -28.0091  -14.7971   20.0697 C   0  0  0  0  0  0  0  0  0  0  0  0
  -30.2549  -22.3327   18.1901 C   0  0  0  0  0  0  0  0  0  0  0  0
  -29.5658  -16.3392   20.2541 C   0  0  0  0  0  0  0  0  0  0  0  0
  -31.0667  -24.3470   17.8848 C   0  0  0  0  0  0  0  0  0  0  0  0
  -30.4546  -14.0473   19.8007 C   0  0  0  0  0  0  0  0  0  0  0  0
  -25.6416  -26.1727   22.9948 C   0  0  0  0  0  0  0  0  0  0  0  0
  -24.3034  -29.1261   22.9002 C   0  0  0  0  0  0  0  0  0  0  0  0
  -24.7323  -32.4904   22.5198 C   0  0  0  0  0  0  0  0  0  0  0  0
  -28.1287  -21.6423   19.3516 C   0  0  0  0  0  0  0  0  0  0  0  0
  -22.4565  -22.2836   23.8823 C   0  0  0  0  0  0  0  0  0  0  0  0
  -27.0868  -27.4328   24.6318 C   0  0  0  0  0  0  0  0  0  0  0  0
  -26.6964  -28.9460   22.1213 C   0  0  0  0  0  0  0  0  0  0  0  0
  -22.3634  -23.6301   23.1692 C   0  0  0  0  0  0  0  0  0  0  0  0
  -26.2544  -19.8466   21.7887 C   0  0  0  0  0  0  0  0  0  0  0  0
  -23.5417  -23.8130   22.2178 C   0  0  0  0  0  0  0  0  0  0  0  0
  -26.6585  -18.3891   21.5552 C   0  0  0  0  0  0  0  0  0  0  0  0
  -26.1607  -20.6261   20.4783 C   0  0  0  0  0  0  0  0  0  0  0  0
  -27.7590  -19.0973   19.3932 C   0  0  0  0  0  0  0  0  0  0  0  0
  -24.8723  -23.8066   22.9800 C   0  0  1  0  0  0  0  0  0  0  0  0
  -25.7683  -27.3907   23.8655 C   0  0  1  0  0  0  0  0  0  0  0  0
  -27.9297  -18.2885   20.6895 C   0  0  2  0  0  0  0  0  0  0  0  0
  -29.8656  -26.5703   17.9697 C   0  0  0  0  0  0  0  0  0  0  0  0
  -23.4476  -34.6450   22.4540 C   0  0  0  0  0  0  0  0  0  0  0  0
  -23.3375  -28.4613   20.0833 C   0  0  0  0  0  0  0  0  0  0  0  0
  -22.9191  -30.9037   19.7255 C   0  0  0  0  0  0  0  0  0  0  0  0
  -21.6696  -29.6728   21.4993 C   0  0  0  0  0  0  0  0  0  0  0  0
  -26.1882  -33.5647   24.8619 C   0  0  0  0  0  0  0  0  0  0  0  0
  -32.5343  -27.7082   18.9425 C   0  0  0  0  0  0  0  0  0  0  0  0
  -32.6743  -28.0064   21.4780 C   0  0  0  0  0  0  0  0  0  1  0  0
  -31.2113  -25.8509   17.9233 C   0  0  1  0  0  0  0  0  0  0  0  0
  -24.1222  -30.1842   21.8388 C   0  0  1  0  0  0  0  0  0  0  0  0
  -24.2198  -33.6689   23.3278 C   0  0  2  0  0  0  0  0  0  0  0  0
  -33.4007  -28.0905   20.1394 C   0  0  1  0  0  0  0  0  0  0  0  0
  -23.0379  -29.7962   20.7942 C   0  0  0  0  0  0  0  0  0  0  0  0
  -27.3355  -15.9259   20.3064 N   0  0  0  0  0  0  0  0  0  0  0  0
  -30.0609  -23.6826   18.4092 N   0  0  0  0  0  0  0  0  0  0  0  0
  -28.3095  -16.8456   20.4140 N   0  0  0  0  0  0  0  0  0  0  0  0
  -25.5806  -28.5563   22.9992 N   0  0  0  0  0  0  0  0  0  0  0  0
  -27.4020  -20.4882   19.7133 N   0  0  0  0  0  0  0  0  0  0  0  0
  -30.6601  -17.1259   20.3313 N   0  0  0  0  0  0  0  0  0  0  0  0
  -30.1109  -12.7060   19.5836 N   0  0  0  0  0  0  0  0  0  0  0  0
  -29.3089  -21.3855   18.6545 N   0  0  0  0  0  0  0  0  0  0  0  0
  -25.0867  -25.0801   23.6332 N   0  0  0  0  0  0  0  0  0  0  0  0
  -23.8507  -31.4305   22.5469 N   0  0  0  0  0  0  0  0  0  0  0  0
  -25.3564  -34.3991   23.9569 N   0  3  0  0  0  0  0  0  0  0  0  0
  -32.0263  -26.3201   19.0766 N   0  3  0  0  0  0  0  0  0  0  0  0
  -31.6647  -14.3775   19.8080 O   0  0  0  0  0  0  0  0  0  0  0  0
  -26.0180  -26.2212   21.8297 O   0  0  0  0  0  0  0  0  0  0  0  0
  -23.3489  -28.8217   23.6198 O   0  0  0  0  0  0  0  0  0  0  0  0
  -25.8055  -32.5095   21.9211 O   0  0  0  0  0  0  0  0  0  0  0  0
  -27.7471  -22.7735   19.6626 O   0  0  0  0  0  0  0  0  0  0  0  0
  -34.5453  -27.2375   20.1920 O   0  0  0  0  0  0  0  0  0  0  0  0
  -25.2572   -9.9797   19.3726 O   0  0  0  0  0  0  0  0  0  0  0  0
  -31.5410  -28.8728   21.4414 O   0  0  0  0  0  0  0  0  0  1  0  0
  -21.1857   -8.8242   22.9069 F   0  0  0  0  0  0  0  0  0  0  0  0
  -25.3505   -7.7124   20.9516 F   0  0  0  0  0  0  0  0  0  0  0  0
  -32.2808  -23.4119   17.1125 S   0  0  0  0  0  0  0  0  0  0  0  0
  1  2  1  0  0  0  0
  1  5  2  0  0  0  0
  2  6  2  0  0  0  0
  3  8  2  0  0  0  0
  3 16  1  0  0  0  0
  4  9  1  0  0  0  0
  4 16  2  0  0  0  0
  5 18  1  0  0  0  0
  6 20  1  0  0  0  0
  7 10  2  0  0  0  0
  7 19  1  0  0  0  0
  8 22  1  0  0  0  0
  9 22  2  0  0  0  0
 10 23  1  0  0  0  0
 11 12  2  0  0  0  0
 11 24  1  0  0  0  0
 12 25  1  0  0  0  0
 13 21  1  0  0  0  0
 13 23  2  0  0  0  0
 14 25  2  0  0  0  0
 14 26  1  0  0  0  0
 15 28  2  0  0  0  0
 15 83  1  0  0  0  0
 16 27  1  0  0  0  0
 17 27  1  0  0  0  0
 17 29  2  0  0  0  0
 17 31  1  0  0  0  0
 18 20  2  0  0  0  0
 18 36  1  0  0  0  0
 19 21  2  0  0  0  0
 19 37  1  0  0  0  0
 20 45  1  0  0  0  0
 21 38  1  0  0  0  0
 22 79  1  0  0  0  0
 23 80  1  0  0  0  0
 24 26  2  0  0  0  0
 24 79  1  0  0  0  0
 25 81  1  0  0  0  0
 26 82  1  0  0  0  0
 27 61  2  0  0  0  0
 28 62  1  0  0  0  0
 28 68  1  0  0  0  0
 29 63  1  0  0  0  0
 29 66  1  0  0  0  0
 30 56  1  0  0  0  0
 30 62  2  0  0  0  0
 30 83  1  0  0  0  0
 31 67  1  0  0  0  0
 31 73  2  0  0  0  0
 32 46  1  0  0  0  0
 32 69  1  0  0  0  0
 32 74  2  0  0  0  0
 33 57  1  0  0  0  0
 33 64  1  0  0  0  0
 33 75  2  0  0  0  0
 34 58  1  0  0  0  0
 34 70  1  0  0  0  0
 34 76  2  0  0  0  0
 35 65  1  0  0  0  0
 35 68  1  0  0  0  0
 35 77  2  0  0  0  0
 36 39  1  0  0  0  0
 37 46  1  0  0  0  0
 38 64  1  0  0  0  0
 39 41  1  0  0  0  0
 40 42  1  0  0  0  0
 40 43  1  0  0  0  0
 41 45  1  0  0  0  0
 42 47  1  0  0  0  0
 43 65  1  0  0  0  0
 44 47  1  0  0  0  0
 44 65  1  0  0  0  0
 45 69  1  0  0  0  0
 46 64  1  0  0  0  0
 47 63  1  0  0  0  0
 48 56  1  0  0  0  0
 49 58  1  0  0  0  0
 50 60  1  0  0  0  0
 51 60  1  0  0  0  0
 52 60  1  0  0  0  0
 53 71  1  0  0  0  0
 54 59  1  0  0  0  0
 54 72  1  0  0  0  0
 55 59  1  0  0  0  0
 55 80  1  0  0  0  0
 56 72  1  0  0  0  0
 57 60  1  0  0  0  0
 57 70  1  0  0  0  0
 58 71  1  0  0  0  0
 59 78  1  0  0  0  0
 61 63  1  0  0  0  0
M  CHG  2  71   1  72   1
M  ISO  4  35 100  55 101  68 100  80 101
M  END
> <Batch ID>
0199

> <Smiles>
CNC(C)C(=O)NC(C(=O)N1Cc2cc([101O:1][101CH2:1]C(O)CNC(C)c3nc([100NH:0][100C:0](=O)N4CCCC(n5nc(-c6ccc(Oc7ccc(F)cc7F)cc6)c(C(N)=O)c5N)C4)cs3)ccc2CC1C(=O)NC1CCCc2ccccc21)C(C)(C)C

> <Shape>
0.238

> <Color>
0.079

> <Negative vol penalty>
0.000

$$$$

  -OEChem-04052305473D

 80 88  0     1  0  0  0  0  0999 V2000
  -18.7915  -24.2400   20.3519 C   0  0  0  0  0  0  0  0  0  0  0  0
  -20.1721  -24.0708   20.3245 C   0  0  0  0  0  0  0  0  0  0  0  0
  -23.9485   -9.6862   21.4803 C   0  0  0  0  0  0  0  0  0  0  0  0
  -24.4795  -10.7684   23.5741 C   0  0  0  0  0  0  0  0  0  0  0  0
  -18.2348  -25.3039   21.0604 C   0  0  0  0  0  0  0  0  0  0  0  0
  -20.9968  -24.9661   21.0047 C   0  0  0  0  0  0  0  0  0  0  0  0
  -24.6426  -22.6351   23.6353 C   0  0  0  0  0  0  0  0  0  0  0  0
  -23.4882   -8.5677   22.1751 C   0  0  0  0  0  0  0  0  0  0  0  0
  -24.0191   -9.6499   24.2689 C   0  0  0  0  0  0  0  0  0  0  0  0
  -25.7466  -22.1722   22.9207 C   0  0  0  0  0  0  0  0  0  0  0  0
  -20.7063   -7.6577   23.8679 C   0  0  0  0  0  0  0  0  0  0  0  0
  -19.4977   -7.0933   23.4602 C   0  0  0  0  0  0  0  0  0  0  0  0
  -27.0006  -24.1135   23.6123 C   0  0  0  0  0  0  0  0  0  0  0  0
  -20.6268   -5.0075   23.0004 C   0  0  0  0  0  0  0  0  0  0  0  0
  -32.2130  -17.9450   21.9293 C   0  0  0  0  0  0  0  0  0  0  0  0
  -24.4442  -10.7865   22.1798 C   0  0  0  0  0  0  0  0  0  0  0  0
  -24.1712  -13.0676   21.0709 C   0  0  0  0  0  0  0  0  0  0  0  0
  -19.0525  -26.2072   21.7576 C   0  0  0  0  0  0  0  0  0  0  0  0
  -24.7059  -23.8481   24.3360 C   0  0  0  0  0  0  0  0  0  0  0  0
  -20.4506  -26.0439   21.7220 C   0  0  0  0  0  0  0  0  0  0  0  0
  -25.8968  -24.5883   24.3371 C   0  0  0  0  0  0  0  0  0  0  0  0
  -23.5235   -8.5496   23.5694 C   0  0  0  0  0  0  0  0  0  0  0  0
  -26.9249  -22.9128   22.9068 C   0  0  0  0  0  0  0  0  0  0  0  0
  -21.8752   -6.8970   23.8419 C   0  0  0  0  0  0  0  0  0  0  0  0
  -19.4579   -5.7682   23.0264 C   0  0  0  0  0  0  0  0  0  0  0  0
  -21.8354   -5.5719   23.4081 C   0  0  0  0  0  0  0  0  0  0  0  0
  -24.9203  -11.9420   21.4626 C   0  0  0  0  0  0  0  0  0  0  0  0
  -31.4577  -17.0458   22.6525 C   0  0  0  0  0  0  0  0  0  0  0  0
  -25.0760  -13.8746   20.4254 C   0  0  0  0  0  0  0  0  0  0  0  0
  -30.6613  -19.3192   22.6463 C   0  0  0  0  0  0  0  0  0  0  0  0
  -22.7817  -13.3580   21.2727 C   0  0  0  0  0  0  0  0  0  0  0  0
  -23.1665  -26.6236   24.1593 C   0  0  0  0  0  0  0  0  0  0  0  0
  -24.8693  -27.2938   26.8377 C   0  0  0  0  0  0  0  0  0  0  0  0
  -27.6276  -26.6717   28.7486 C   0  0  0  0  0  0  0  0  0  0  0  0
  -31.0290  -14.4161   20.7708 C   0  0  0  0  0  0  0  0  0  0  0  0
  -18.4074  -27.3693   22.4704 C   0  0  0  0  0  0  0  0  0  0  0  0
  -23.5148  -24.3204   25.1238 C   0  0  0  0  0  0  0  0  0  0  0  0
  -26.0227  -25.8868   25.0897 C   0  0  0  0  0  0  0  0  0  0  0  0
  -19.3300  -28.0563   23.4740 C   0  0  0  0  0  0  0  0  0  0  0  0
  -29.1120  -13.6733   17.8639 C   0  0  0  0  0  0  0  0  0  0  0  0
  -20.7030  -28.3013   22.8562 C   0  0  0  0  0  0  0  0  0  0  0  0
  -27.7527  -13.2469   18.4212 C   0  0  0  0  0  0  0  0  0  0  0  0
  -30.2599  -13.2013   18.7535 C   0  0  0  0  0  0  0  0  0  0  0  0
  -28.7863  -13.1652   20.7286 C   0  0  0  0  0  0  0  0  0  0  0  0
  -21.3769  -26.9797   22.4678 C   0  0  1  0  0  0  0  0  0  0  0  0
  -23.5259  -25.8243   25.3799 C   0  0  1  0  0  0  0  0  0  0  0  0
  -27.5945  -13.6663   19.8951 C   0  0  2  0  0  0  0  0  0  0  0  0
  -28.7655  -27.4030   30.8623 C   0  0  0  0  0  0  0  0  0  0  0  0
  -25.8379  -29.8258   25.4374 C   0  0  0  0  0  0  0  0  0  0  0  0
  -27.6491  -30.0004   27.1570 C   0  0  0  0  0  0  0  0  0  0  0  0
  -25.2564  -30.1260   27.8511 C   0  0  0  0  0  0  0  0  0  0  0  0
  -27.4077  -23.9709   29.9387 C   0  0  0  0  0  0  0  0  0  0  0  0
  -31.6556  -15.5984   22.8609 C   0  0  0  0  0  0  0  0  0  0  0  0
  -30.3045  -21.7642   22.2999 C   0  0  0  0  0  0  0  0  0  0  0  0
  -29.2929  -22.8232   22.7049 C   0  0  0  0  0  0  0  0  0  1  0  0
  -26.2201  -27.9057   27.1206 C   0  0  1  0  0  0  0  0  0  0  0  0
  -27.7860  -26.4217   30.2375 C   0  0  2  0  0  0  0  0  0  0  0  0
  -26.2382  -29.4410   26.8757 C   0  0  0  0  0  0  0  0  0  0  0  0
  -31.7576  -19.2490   21.9243 N   0  0  0  0  0  0  0  0  0  0  0  0
  -26.2022  -12.0228   21.0963 N   0  0  0  0  0  0  0  0  0  0  0  0
  -26.2656  -13.2089   20.4677 N   0  0  0  0  0  0  0  0  0  0  0  0
  -24.8286  -26.3097   25.8398 N   0  0  0  0  0  0  0  0  0  0  0  0
  -30.0498  -13.6331   20.1375 N   0  0  0  0  0  0  0  0  0  0  0  0
  -24.9620  -15.0814   19.8313 N   0  0  0  0  0  0  0  0  0  0  0  0
  -21.9955  -12.4202   21.9559 N   0  0  0  0  0  0  0  0  0  0  0  0
  -29.9376  -20.4815   22.8550 N   0  0  0  0  0  0  0  0  0  0  0  0
  -21.9213  -26.3267   23.6390 N   0  0  0  0  0  0  0  0  0  0  0  0
  -26.5688  -27.5136   28.4819 N   0  0  0  0  0  0  0  0  0  0  0  0
  -30.7481  -14.7877   22.0799 N   0  0  0  0  0  0  0  0  0  0  0  0
  -28.2867  -25.0391   30.4802 N   0  3  0  0  0  0  0  0  0  0  0  0
  -22.2493  -14.4102   20.8450 O   0  0  0  0  0  0  0  0  0  0  0  0
  -23.9596  -27.4495   23.7229 O   0  0  0  0  0  0  0  0  0  0  0  0
  -23.8879  -27.6698   27.4834 O   0  0  0  0  0  0  0  0  0  0  0  0
  -28.3713  -26.1731   27.9066 O   0  0  0  0  0  0  0  0  0  0  0  0
  -32.0736  -14.7631   20.2092 O   0  0  0  0  0  0  0  0  0  0  0  0
  -23.0742   -7.4585   24.2478 O   0  0  0  0  0  0  0  0  0  0  0  0
  -28.0038  -22.4636   22.2096 O   0  0  0  0  0  0  0  0  0  1  0  0
  -18.2969   -5.2259   22.6363 F   0  0  0  0  0  0  0  0  0  0  0  0
  -22.9549   -4.8357   23.3820 F   0  0  0  0  0  0  0  0  0  0  0  0
  -30.1218  -17.8551   23.3607 S   0  0  0  0  0  0  0  0  0  0  0  0
  1  2  1  0  0  0  0
  1  5  2  0  0  0  0
  2  6  2  0  0  0  0
  3  8  2  0  0  0  0
  3 16  1  0  0  0  0
  4  9  1  0  0  0  0
  4 16  2  0  0  0  0
  5 18  1  0  0  0  0
  6 20  1  0  0  0  0
  7 10  2  0  0  0  0
  7 19  1  0  0  0  0
  8 22  1  0  0  0  0
  9 22  2  0  0  0  0
 10 23  1  0  0  0  0
 11 12  2  0  0  0  0
 11 24  1  0  0  0  0
 12 25  1  0  0  0  0
 13 21  1  0  0  0  0
 13 23  2  0  0  0  0
 14 25  2  0  0  0  0
 14 26  1  0  0  0  0
 15 28  2  0  0  0  0
 15 59  1  0  0  0  0
 16 27  1  0  0  0  0
 17 27  1  0  0  0  0
 17 29  2  0  0  0  0
 17 31  1  0  0  0  0
 18 20  2  0  0  0  0
 18 36  1  0  0  0  0
 19 21  2  0  0  0  0
 19 37  1  0  0  0  0
 20 45  1  0  0  0  0
 21 38  1  0  0  0  0
 22 76  1  0  0  0  0
 23 77  1  0  0  0  0
 24 26  2  0  0  0  0
 24 76  1  0  0  0  0
 25 78  1  0  0  0  0
 26 79  1  0  0  0  0
 27 60  2  0  0  0  0
 28 53  1  0  0  0  0
 28 80  1  0  0  0  0
 29 61  1  0  0  0  0
 29 64  1  0  0  0  0
 30 59  2  0  0  0  0
 30 66  1  0  0  0  0
 30 80  1  0  0  0  0
 31 65  1  0  0  0  0
 31 71  2  0  0  0  0
 32 46  1  0  0  0  0
 32 67  1  0  0  0  0
 32 72  2  0  0  0  0
 33 56  1  0  0  0  0
 33 62  1  0  0  0  0
 33 73  2  0  0  0  0
 34 57  1  0  0  0  0
 34 68  1  0  0  0  0
 34 74  2  0  0  0  0
 35 63  1  0  0  0  0
 35 69  1  0  0  0  0
 35 75  2  0  0  0  0
 36 39  1  0  0  0  0
 37 46  1  0  0  0  0
 38 62  1  0  0  0  0
 39 41  1  0  0  0  0
 40 42  1  0  0  0  0
 40 43  1  0  0  0  0
 41 45  1  0  0  0  0
 42 47  1  0  0  0  0
 43 63  1  0  0  0  0
 44 47  1  0  0  0  0
 44 63  1  0  0  0  0
 45 67  1  0  0  0  0
 46 62  1  0  0  0  0
 47 61  1  0  0  0  0
 48 57  1  0  0  0  0
 49 58  1  0  0  0  0
 50 58  1  0  0  0  0
 51 58  1  0  0  0  0
 52 70  1  0  0  0  0
 53 69  1  0  0  0  0
 54 55  1  0  0  0  0
 54 66  1  0  0  0  0
 55 77  1  0  0  0  0
 56 58  1  0  0  0  0
 56 68  1  0  0  0  0
 57 70  1  0  0  0  0
 60 61  1  0  0  0  0
M  CHG  1  70   1
M  ISO  4  35 100  55 101  69 100  77 101
M  END
> <Batch ID>
0199

> <Smiles>
CNC(C)C(=O)NC(C(=O)N1Cc2cc([101O:1][101CH2:1]CNc3ncc(C[100NH:0][100C:0](=O)N4CCCC(n5nc(-c6ccc(Oc7ccc(F)cc7F)cc6)c(C(N)=O)c5N)C4)s3)ccc2CC1C(=O)NC1CCCc2ccccc21)C(C)(C)C

> <Shape>
0.219

> <Color>
0.138

> <Negative vol penalty>
0.000

$$$$

  -OEChem-04052305473D

 83 91  0     1  0  0  0  0  0999 V2000
  -33.4495  -17.4745   29.5498 C   0  0  0  0  0  0  0  0  0  0  0  0
  -32.3409  -17.8272   28.7869 C   0  0  0  0  0  0  0  0  0  0  0  0
  -23.0670   -9.8446   19.9469 C   0  0  0  0  0  0  0  0  0  0  0  0
  -23.8277   -9.8653   22.2400 C   0  0  0  0  0  0  0  0  0  0  0  0
  -33.8972  -18.3238   30.5609 C   0  0  0  0  0  0  0  0  0  0  0  0
  -31.6787  -19.0290   29.0353 C   0  0  0  0  0  0  0  0  0  0  0  0
  -30.5750  -21.5534   24.7863 C   0  0  0  0  0  0  0  0  0  0  0  0
  -22.3291   -8.6888   20.2021 C   0  0  0  0  0  0  0  0  0  0  0  0
  -23.0897   -8.7095   22.4952 C   0  0  0  0  0  0  0  0  0  0  0  0
  -29.4781  -21.1098   24.0488 C   0  0  0  0  0  0  0  0  0  0  0  0
  -19.8659   -7.8979   23.1024 C   0  0  0  0  0  0  0  0  0  0  0  0
  -19.1096   -7.8592   24.2738 C   0  0  0  0  0  0  0  0  0  0  0  0
  -28.1320  -22.8688   25.0044 C   0  0  0  0  0  0  0  0  0  0  0  0
  -20.3611   -5.9313   25.0181 C   0  0  0  0  0  0  0  0  0  0  0  0
  -31.2466  -19.3220   19.2837 C   0  0  0  0  0  0  0  0  0  0  0  0
  -23.8164  -10.4328   20.9658 C   0  0  0  0  0  0  0  0  0  0  0  0
  -24.1453  -12.9592   20.8347 C   0  0  0  0  0  0  0  0  0  0  0  0
  -33.2460  -19.5411   30.8154 C   0  0  0  0  0  0  0  0  0  0  0  0
  -30.4556  -22.6532   25.6481 C   0  0  0  0  0  0  0  0  0  0  0  0
  -32.1174  -19.8947   30.0516 C   0  0  0  0  0  0  0  0  0  0  0  0
  -29.2295  -23.3259   25.7498 C   0  0  0  0  0  0  0  0  0  0  0  0
  -22.3404   -8.1212   21.4763 C   0  0  0  0  0  0  0  0  0  0  0  0
  -28.2556  -21.7657   24.1600 C   0  0  0  0  0  0  0  0  0  0  0  0
  -20.8697   -6.9533   22.8889 C   0  0  0  0  0  0  0  0  0  0  0  0
  -19.3572   -6.8760   25.2316 C   0  0  0  0  0  0  0  0  0  0  0  0
  -21.1173   -5.9700   23.8467 C   0  0  0  0  0  0  0  0  0  0  0  0
  -24.5793  -11.6265   20.7026 C   0  0  0  0  0  0  0  0  0  0  0  0
  -30.5647  -18.0102   20.9037 C   0  0  0  0  0  0  0  0  0  0  0  0
  -25.2335  -13.7126   20.4678 C   0  0  0  0  0  0  0  0  0  0  0  0
  -29.4136  -18.7517   20.7389 C   0  0  0  0  0  0  0  0  0  0  0  0
  -22.8724  -13.4703   21.2519 C   0  0  0  0  0  0  0  0  0  0  0  0
  -30.7774  -23.0945   28.7795 C   0  0  0  0  0  0  0  0  0  0  0  0
  -30.3618  -26.2129   27.9885 C   0  0  0  0  0  0  0  0  0  0  0  0
  -29.1288  -28.5015   25.7775 C   0  0  0  0  0  0  0  0  0  0  0  0
  -30.7121  -14.7602   20.6496 C   0  0  0  0  0  0  0  0  0  0  0  0
  -33.7382  -20.4042   31.9501 C   0  0  0  0  0  0  0  0  0  0  0  0
  -31.6552  -23.1357   26.4165 C   0  0  0  0  0  0  0  0  0  0  0  0
  -29.0543  -24.5240   26.6455 C   0  0  0  0  0  0  0  0  0  0  0  0
  -33.2073  -21.8346   31.9019 C   0  0  0  0  0  0  0  0  0  0  0  0
  -29.5857  -12.3597   18.2736 C   0  0  0  0  0  0  0  0  0  0  0  0
  -31.7059  -21.8380   31.6327 C   0  0  0  0  0  0  0  0  0  0  0  0
  -28.1500  -12.0606   18.7084 C   0  0  0  0  0  0  0  0  0  0  0  0
  -30.5022  -12.5903   19.4732 C   0  0  0  0  0  0  0  0  0  0  0  0
  -28.5972  -13.3178   20.8574 C   0  0  0  0  0  0  0  0  0  0  0  0
  -31.3874  -21.2015   30.2745 C   0  0  1  0  0  0  0  0  0  0  0  0
  -31.2852  -23.9492   27.6529 C   0  0  1  0  0  0  0  0  0  0  0  0
  -27.6236  -13.1331   19.6809 C   0  0  2  0  0  0  0  0  0  0  0  0
  -28.9081  -30.9757   25.4211 C   0  0  0  0  0  0  0  0  0  0  0  0
  -26.3637  -18.9756   19.9182 C   0  0  0  0  0  0  0  0  0  0  0  0
  -25.7335  -20.0028   24.8137 C   0  0  0  0  0  0  0  0  0  0  0  0
  -28.1169  -26.3076   30.0529 C   0  0  0  0  0  0  0  0  0  0  0  0
  -27.3333  -28.4398   29.0003 C   0  0  0  0  0  0  0  0  0  0  0  0
  -29.6011  -28.3204   30.0325 C   0  0  0  0  0  0  0  0  0  0  0  0
  -30.7083  -28.3993   23.2768 C   0  0  0  0  0  0  0  0  0  0  0  0
  -30.7675  -16.9164   21.8772 C   0  0  0  0  0  0  0  0  0  0  0  0
  -26.1169  -19.4436   22.3846 C   0  0  0  0  0  0  0  0  0  0  0  0
  -29.1711  -27.1296   27.8441 C   0  0  1  0  0  0  0  0  0  0  0  0
  -29.7516  -29.7384   25.1557 C   0  0  2  0  0  0  0  0  0  0  0  0
  -27.0669  -19.4779   21.1763 C   0  0  1  0  0  0  0  0  0  0  0  0
  -26.7425  -19.9969   23.6724 C   0  0  1  0  0  0  0  0  0  1  0  0
  -28.5581  -27.5256   29.2169 C   0  0  0  0  0  0  0  0  0  0  0  0
  -31.6167  -18.3355   20.0699 N   0  0  0  0  0  0  0  0  0  0  0  0
  -25.8445  -11.5353   20.2843 N   0  0  0  0  0  0  0  0  0  0  0  0
  -26.2148  -12.8202   20.1502 N   0  0  0  0  0  0  0  0  0  0  0  0
  -30.2550  -24.9537   27.3810 N   0  0  0  0  0  0  0  0  0  0  0  0
  -29.9467  -13.6199   20.3549 N   0  0  0  0  0  0  0  0  0  0  0  0
  -25.4371  -15.0448   20.3890 N   0  0  0  0  0  0  0  0  0  0  0  0
  -21.8652  -12.5575   21.5935 N   0  0  0  0  0  0  0  0  0  0  0  0
  -28.2208  -18.6410   21.4308 N   0  0  0  0  0  0  0  0  0  0  0  0
  -31.6725  -22.1302   29.2018 N   0  0  0  0  0  0  0  0  0  0  0  0
  -29.6226  -28.2618   27.0424 N   0  0  0  0  0  0  0  0  0  0  0  0
  -30.1085  -15.6896   21.4879 N   0  0  0  0  0  0  0  0  0  0  0  0
  -29.8832  -29.5667   23.6812 N   0  3  0  0  0  0  0  0  0  0  0  0
  -22.6299  -14.7000   21.3040 O   0  0  0  0  0  0  0  0  0  0  0  0
  -29.6569  -23.2960   29.2330 O   0  0  0  0  0  0  0  0  0  0  0  0
  -31.3529  -26.6023   28.6111 O   0  0  0  0  0  0  0  0  0  0  0  0
  -28.2855  -27.8185   25.2005 O   0  0  0  0  0  0  0  0  0  0  0  0
  -31.8470  -14.9395   20.1948 O   0  0  0  0  0  0  0  0  0  0  0  0
  -21.6203   -6.9935   21.7258 O   0  0  0  0  0  0  0  0  0  0  0  0
  -27.1832  -21.3344   23.4418 O   0  0  0  0  0  0  0  0  0  1  0  0
  -18.6318   -6.8399   26.3571 F   0  0  0  0  0  0  0  0  0  0  0  0
  -22.0812   -5.0605   23.6477 F   0  0  0  0  0  0  0  0  0  0  0  0
  -29.6471  -19.9074   19.4934 S   0  0  0  0  0  0  0  0  0  0  0  0
  1  2  1  0  0  0  0
  1  5  2  0  0  0  0
  2  6  2  0  0  0  0
  3  8  2  0  0  0  0
  3 16  1  0  0  0  0
  4  9  1  0  0  0  0
  4 16  2  0  0  0  0
  5 18  1  0  0  0  0
  6 20  1  0  0  0  0
  7 10  2  0  0  0  0
  7 19  1  0  0  0  0
  8 22  1  0  0  0  0
  9 22  2  0  0  0  0
 10 23  1  0  0  0  0
 11 12  2  0  0  0  0
 11 24  1  0  0  0  0
 12 25  1  0  0  0  0
 13 21  1  0  0  0  0
 13 23  2  0  0  0  0
 14 25  2  0  0  0  0
 14 26  1  0  0  0  0
 15 62  2  0  0  0  0
 15 83  1  0  0  0  0
 16 27  1  0  0  0  0
 17 27  1  0  0  0  0
 17 29  2  0  0  0  0
 17 31  1  0  0  0  0
 18 20  2  0  0  0  0
 18 36  1  0  0  0  0
 19 21  2  0  0  0  0
 19 37  1  0  0  0  0
 20 45  1  0  0  0  0
 21 38  1  0  0  0  0
 22 79  1  0  0  0  0
 23 80  1  0  0  0  0
 24 26  2  0  0  0  0
 24 79  1  0  0  0  0
 25 81  1  0  0  0  0
 26 82  1  0  0  0  0
 27 63  2  0  0  0  0
 28 30  2  0  0  0  0
 28 55  1  0  0  0  0
 28 62  1  0  0  0  0
 29 64  1  0  0  0  0
 29 67  1  0  0  0  0
 30 69  1  0  0  0  0
 30 83  1  0  0  0  0
 31 68  1  0  0  0  0
 31 74  2  0  0  0  0
 32 46  1  0  0  0  0
 32 70  1  0  0  0  0
 32 75  2  0  0  0  0
 33 57  1  0  0  0  0
 33 65  1  0  0  0  0
 33 76  2  0  0  0  0
 34 58  1  0  0  0  0
 34 71  1  0  0  0  0
 34 77  2  0  0  0  0
 35 66  1  0  0  0  0
 35 72  1  0  0  0  0
 35 78  2  0  0  0  0
 36 39  1  0  0  0  0
 37 46  1  0  0  0  0
 38 65  1  0  0  0  0
 39 41  1  0  0  0  0
 40 42  1  0  0  0  0
 40 43  1  0  0  0  0
 41 45  1  0  0  0  0
 42 47  1  0  0  0  0
 43 66  1  0  0  0  0
 44 47  1  0  0  0  0
 44 66  1  0  0  0  0
 45 70  1  0  0  0  0
 46 65  1  0  0  0  0
 47 64  1  0  0  0  0
 48 58  1  0  0  0  0
 49 59  1  0  0  0  0
 50 60  1  0  0  0  0
 51 61  1  0  0  0  0
 52 61  1  0  0  0  0
 53 61  1  0  0  0  0
 54 73  1  0  0  0  0
 55 72  1  0  0  0  0
 56 59  1  0  0  0  0
 56 60  1  0  0  0  0
 57 61  1  0  0  0  0
 57 71  1  0  0  0  0
 58 73  1  0  0  0  0
 59 69  1  0  0  0  0
 60 80  1  0  0  0  0
 63 64  1  0  0  0  0
M  CHG  1  73   1
M  ISO  4  35 100  60 101  72 100  80 101
M  END
> <Batch ID>
0199

> <Smiles>
CNC(C)C(=O)NC(C(=O)N1Cc2cc([101O:1][101CH:1](C)CC(C)Nc3scnc3C[100NH:0][100C:0](=O)N3CCCC(n4nc(-c5ccc(Oc6ccc(F)cc6F)cc5)c(C(N)=O)c4N)C3)ccc2CC1C(=O)NC1CCCc2ccccc21)C(C)(C)C

> <Shape>
0.195

> <Color>
0.195

> <Negative vol penalty>
0.000

$$$$

  -OEChem-04052305473D

 81 89  0     1  0  0  0  0  0999 V2000
  -22.0064  -23.5311   20.4301 C   0  0  0  0  0  0  0  0  0  0  0  0
  -23.1642  -22.8577   20.8061 C   0  0  0  0  0  0  0  0  0  0  0  0
  -21.7490  -29.0056   21.1821 C   0  0  0  0  0  0  0  0  0  0  0  0
  -22.7950  -28.4403   23.2853 C   0  0  0  0  0  0  0  0  0  0  0  0
  -20.7637  -22.9181   20.5838 C   0  0  0  0  0  0  0  0  0  0  0  0
  -23.0798  -21.5711   21.3372 C   0  0  0  0  0  0  0  0  0  0  0  0
  -26.5172  -18.4229   19.3579 C   0  0  0  0  0  0  0  0  0  0  0  0
  -20.5240  -28.5494   21.6687 C   0  0  0  0  0  0  0  0  0  0  0  0
  -21.5699  -27.9841   23.7719 C   0  0  0  0  0  0  0  0  0  0  0  0
  -27.8236  -18.5259   19.8338 C   0  0  0  0  0  0  0  0  0  0  0  0
  -19.6435  -25.2217   23.4737 C   0  0  0  0  0  0  0  0  0  0  0  0
  -19.6296  -24.0049   24.1555 C   0  0  0  0  0  0  0  0  0  0  0  0
  -27.4459  -16.6210   21.2650 C   0  0  0  0  0  0  0  0  0  0  0  0
  -18.7792  -25.1176   26.1242 C   0  0  0  0  0  0  0  0  0  0  0  0
  -29.7310  -23.5504   23.2001 C   0  0  0  0  0  0  0  0  0  0  0  0
  -22.8845  -28.9510   21.9904 C   0  0  0  0  0  0  0  0  0  0  0  0
  -24.6696  -30.7268   21.5809 C   0  0  0  0  0  0  0  0  0  0  0  0
  -20.6647  -21.6196   21.1081 C   0  0  0  0  0  0  0  0  0  0  0  0
  -25.6605  -17.4233   19.8408 C   0  0  0  0  0  0  0  0  0  0  0  0
  -21.8345  -20.9407   21.4994 C   0  0  0  0  0  0  0  0  0  0  0  0
  -26.1299  -16.5059   20.7917 C   0  0  0  0  0  0  0  0  0  0  0  0
  -20.4344  -28.0387   22.9636 C   0  0  0  0  0  0  0  0  0  0  0  0
  -28.2872  -17.6267   20.7896 C   0  0  0  0  0  0  0  0  0  0  0  0
  -19.2254  -26.3865   24.1172 C   0  0  0  0  0  0  0  0  0  0  0  0
  -19.1974  -23.9528   25.4807 C   0  0  0  0  0  0  0  0  0  0  0  0
  -18.7932  -26.3345   25.4424 C   0  0  0  0  0  0  0  0  0  0  0  0
  -24.1504  -29.4216   21.4881 C   0  0  0  0  0  0  0  0  0  0  0  0
  -30.7064  -24.1458   22.4280 C   0  0  0  0  0  0  0  0  0  0  0  0
  -25.8905  -30.6559   20.9557 C   0  0  0  0  0  0  0  0  0  0  0  0
  -30.8809  -21.7566   22.6806 C   0  0  0  0  0  0  0  0  0  0  0  0
  -30.5932  -19.5547   23.2225 C   0  0  0  0  0  0  0  0  0  0  0  0
  -24.0994  -31.8985   22.1790 C   0  0  0  0  0  0  0  0  0  0  0  0
  -22.9001  -17.4036   21.4168 C   0  0  0  0  0  0  0  0  0  0  0  0
  -23.0762  -14.2057   20.9023 C   0  0  0  0  0  0  0  0  0  0  0  0
  -25.0252  -11.4747   20.2781 C   0  0  0  0  0  0  0  0  0  0  0  0
  -29.7114  -26.1525   19.9702 C   0  0  0  0  0  0  0  0  0  0  0  0
  -19.2957  -21.0164   21.2995 C   0  0  0  0  0  0  0  0  0  0  0  0
  -24.2625  -17.3091   19.2976 C   0  0  0  0  0  0  0  0  0  0  0  0
  -25.2564  -15.4021   21.3274 C   0  0  0  0  0  0  0  0  0  0  0  0
  -19.3211  -19.5063   21.5216 C   0  0  0  0  0  0  0  0  0  0  0  0
  -28.2064  -28.2572   17.5244 C   0  0  0  0  0  0  0  0  0  0  0  0
  -20.3885  -19.1353   22.5461 C   0  0  0  0  0  0  0  0  0  0  0  0
  -27.0431  -28.9120   18.2713 C   0  0  0  0  0  0  0  0  0  0  0  0
  -28.4158  -26.8097   17.9637 C   0  0  0  0  0  0  0  0  0  0  0  0
  -27.4097  -27.2753   20.1648 C   0  0  0  0  0  0  0  0  0  0  0  0
  -21.7858  -19.5344   22.0563 C   0  0  1  0  0  0  0  0  0  0  0  0
  -23.3148  -16.5701   20.2374 C   0  0  1  0  0  0  0  0  0  0  0  0
  -27.1954  -28.7533   19.7960 C   0  0  2  0  0  0  0  0  0  0  0  0
  -24.8881   -8.9910   19.9466 C   0  0  0  0  0  0  0  0  0  0  0  0
  -22.6988  -13.8281   23.9064 C   0  0  0  0  0  0  0  0  0  0  0  0
  -23.5090  -11.4740   23.6418 C   0  0  0  0  0  0  0  0  0  0  0  0
  -21.4264  -12.2120   22.4839 C   0  0  0  0  0  0  0  0  0  0  0  0
  -26.1287  -11.6626   17.5384 C   0  0  0  0  0  0  0  0  0  0  0  0
  -30.8941  -25.5654   22.0716 C   0  0  0  0  0  0  0  0  0  0  0  0
  -30.9481  -18.0923   23.1853 C   0  0  0  0  0  0  0  0  0  0  0  0
  -29.7982  -17.2932   22.5956 C   0  0  0  0  0  0  0  0  0  1  0  0
  -23.6667  -13.0338   21.6485 C   0  0  1  0  0  0  0  0  0  0  0  0
  -24.8904  -10.3511   19.2662 C   0  0  2  0  0  0  0  0  0  0  0  0
  -22.8413  -12.6588   22.9117 C   0  0  0  0  0  0  0  0  0  0  0  0
  -29.8292  -22.1804   23.3457 N   0  0  0  0  0  0  0  0  0  0  0  0
  -24.9739  -28.5829   20.8537 N   0  0  0  0  0  0  0  0  0  0  0  0
  -31.3118  -20.4226   22.5883 N   0  0  0  0  0  0  0  0  0  0  0  0
  -26.0230  -29.3630   20.5421 N   0  0  0  0  0  0  0  0  0  0  0  0
  -23.8955  -15.3358   20.7699 N   0  0  0  0  0  0  0  0  0  0  0  0
  -28.5546  -26.7286   19.4198 N   0  0  0  0  0  0  0  0  0  0  0  0
  -26.8529  -31.5740   20.7247 N   0  0  0  0  0  0  0  0  0  0  0  0
  -22.8367  -31.7956   22.7784 N   0  0  0  0  0  0  0  0  0  0  0  0
  -22.2684  -18.5846   21.0767 N   0  0  0  0  0  0  0  0  0  0  0  0
  -23.7950  -11.9536   20.6763 N   0  0  0  0  0  0  0  0  0  0  0  0
  -29.7657  -26.1210   21.3583 N   0  0  0  0  0  0  0  0  0  0  0  0
  -26.0211  -10.3893   18.2961 N   0  3  0  0  0  0  0  0  0  0  0  0
  -24.6849  -33.0078   22.1672 O   0  0  0  0  0  0  0  0  0  0  0  0
  -23.1346  -17.0041   22.5513 O   0  0  0  0  0  0  0  0  0  0  0  0
  -21.9329  -14.1190   20.4473 O   0  0  0  0  0  0  0  0  0  0  0  0
  -26.1128  -11.8839   20.6782 O   0  0  0  0  0  0  0  0  0  0  0  0
  -30.6303  -25.7045   19.2760 O   0  0  0  0  0  0  0  0  0  0  0  0
  -19.2391  -27.5936   23.4388 O   0  0  0  0  0  0  0  0  0  0  0  0
  -29.5617  -17.7253   21.2563 O   0  0  0  0  0  0  0  0  0  1  0  0
  -19.1826  -22.7840   26.1347 F   0  0  0  0  0  0  0  0  0  0  0  0
  -18.3893  -27.4500   26.0655 F   0  0  0  0  0  0  0  0  0  0  0  0
  -31.7971  -22.9516   21.8575 S   0  0  0  0  0  0  0  0  0  0  0  0
  1  2  1  0  0  0  0
  1  5  2  0  0  0  0
  2  6  2  0  0  0  0
  3  8  2  0  0  0  0
  3 16  1  0  0  0  0
  4  9  1  0  0  0  0
  4 16  2  0  0  0  0
  5 18  1  0  0  0  0
  6 20  1  0  0  0  0
  7 10  2  0  0  0  0
  7 19  1  0  0  0  0
  8 22  1  0  0  0  0
  9 22  2  0  0  0  0
 10 23  1  0  0  0  0
 11 12  2  0  0  0  0
 11 24  1  0  0  0  0
 12 25  1  0  0  0  0
 13 21  1  0  0  0  0
 13 23  2  0  0  0  0
 14 25  2  0  0  0  0
 14 26  1  0  0  0  0
 15 28  2  0  0  0  0
 15 60  1  0  0  0  0
 16 27  1  0  0  0  0
 17 27  1  0  0  0  0
 17 29  2  0  0  0  0
 17 32  1  0  0  0  0
 18 20  2  0  0  0  0
 18 37  1  0  0  0  0
 19 21  2  0  0  0  0
 19 38  1  0  0  0  0
 20 46  1  0  0  0  0
 21 39  1  0  0  0  0
 22 77  1  0  0  0  0
 23 78  1  0  0  0  0
 24 26  2  0  0  0  0
 24 77  1  0  0  0  0
 25 79  1  0  0  0  0
 26 80  1  0  0  0  0
 27 61  2  0  0  0  0
 28 54  1  0  0  0  0
 28 81  1  0  0  0  0
 29 63  1  0  0  0  0
 29 66  1  0  0  0  0
 30 60  2  0  0  0  0
 30 62  1  0  0  0  0
 30 81  1  0  0  0  0
 31 55  1  0  0  0  0
 31 62  2  0  0  0  0
 32 67  1  0  0  0  0
 32 72  2  0  0  0  0
 33 47  1  0  0  0  0
 33 68  1  0  0  0  0
 33 73  2  0  0  0  0
 34 57  1  0  0  0  0
 34 64  1  0  0  0  0
 34 74  2  0  0  0  0
 35 58  1  0  0  0  0
 35 69  1  0  0  0  0
 35 75  2  0  0  0  0
 36 65  1  0  0  0  0
 36 70  1  0  0  0  0
 36 76  2  0  0  0  0
 37 40  1  0  0  0  0
 38 47  1  0  0  0  0
 39 64  1  0  0  0  0
 40 42  1  0  0  0  0
 41 43  1  0  0  0  0
 41 44  1  0  0  0  0
 42 46  1  0  0  0  0
 43 48  1  0  0  0  0
 44 65  1  0  0  0  0
 45 48  1  0  0  0  0
 45 65  1  0  0  0  0
 46 68  1  0  0  0  0
 47 64  1  0  0  0  0
 48 63  1  0  0  0  0
 49 58  1  0  0  0  0
 50 59  1  0  0  0  0
 51 59  1  0  0  0  0
 52 59  1  0  0  0  0
 53 71  1  0  0  0  0
 54 70  1  0  0  0  0
 55 56  1  0  0  0  0
 56 78  1  0  0  0  0
 57 59  1  0  0  0  0
 57 69  1  0  0  0  0
 58 71  1  0  0  0  0
 61 63  1  0  0  0  0
M  CHG  1  71   1
M  ISO  4  36 100  56 101  70 100  78 101
M  END
> <Batch ID>
0199

> <Smiles>
CNC(C)C(=O)NC(C(=O)N1Cc2cc([101O:1][101CH2:1]C=CNc3ncc(C[100NH:0][100C:0](=O)N4CCCC(n5nc(-c6ccc(Oc7ccc(F)cc7F)cc6)c(C(N)=O)c5N)C4)s3)ccc2CC1C(=O)NC1CCCc2ccccc21)C(C)(C)C

> <Shape>
0.205

> <Color>
0.062

> <Negative vol penalty>
0.000

$$$$

  -OEChem-04052305473D

 79 87  0     1  0  0  0  0  0999 V2000
  -23.3573  -21.0132   14.5205 C   0  0  0  0  0  0  0  0  0  0  0  0
  -24.5009  -20.3160   14.8965 C   0  0  0  0  0  0  0  0  0  0  0  0
  -27.1447  -28.5945   19.3794 C   0  0  0  0  0  0  0  0  0  0  0  0
  -25.7778  -27.2351   20.8357 C   0  0  0  0  0  0  0  0  0  0  0  0
  -22.2975  -21.1466   15.4166 C   0  0  0  0  0  0  0  0  0  0  0  0
  -24.5858  -19.7526   16.1692 C   0  0  0  0  0  0  0  0  0  0  0  0
  -27.3805  -14.5231   17.7015 C   0  0  0  0  0  0  0  0  0  0  0  0
  -26.1899  -29.6100   19.4311 C   0  0  0  0  0  0  0  0  0  0  0  0
  -24.8230  -28.2507   20.8875 C   0  0  0  0  0  0  0  0  0  0  0  0
  -28.6331  -14.2553   18.2521 C   0  0  0  0  0  0  0  0  0  0  0  0
  -25.2620  -32.0496   21.5807 C   0  0  0  0  0  0  0  0  0  0  0  0
  -25.7136  -33.3546   21.7765 C   0  0  0  0  0  0  0  0  0  0  0  0
  -27.6397  -14.1558   20.4481 C   0  0  0  0  0  0  0  0  0  0  0  0
  -24.7325  -34.0105   19.6683 C   0  0  0  0  0  0  0  0  0  0  0  0
  -31.0255  -18.7392   21.8099 C   0  0  0  0  0  0  0  0  0  0  0  0
  -26.9387  -27.4070   20.0817 C   0  0  0  0  0  0  0  0  0  0  0  0
  -29.0222  -26.1775   20.8909 C   0  0  0  0  0  0  0  0  0  0  0  0
  -22.3655  -20.5763   16.6975 C   0  0  0  0  0  0  0  0  0  0  0  0
  -26.2480  -14.6201   18.5227 C   0  0  0  0  0  0  0  0  0  0  0  0
  -23.5264  -19.8796   17.0837 C   0  0  0  0  0  0  0  0  0  0  0  0
  -26.3735  -14.4223   19.9052 C   0  0  0  0  0  0  0  0  0  0  0  0
  -25.0291  -29.4381   20.1852 C   0  0  0  0  0  0  0  0  0  0  0  0
  -28.7633  -14.0745   19.6260 C   0  0  0  0  0  0  0  0  0  0  0  0
  -24.5457  -31.7249   20.4286 C   0  0  0  0  0  0  0  0  0  0  0  0
  -25.4489  -34.3351   20.8204 C   0  0  0  0  0  0  0  0  0  0  0  0
  -24.2809  -32.7054   19.4725 C   0  0  0  0  0  0  0  0  0  0  0  0
  -27.9244  -26.3574   20.0282 C   0  0  0  0  0  0  0  0  0  0  0  0
  -30.6065  -18.7436   20.4721 C   0  0  0  0  0  0  0  0  0  0  0  0
  -29.6455  -25.0469   20.4221 C   0  0  0  0  0  0  0  0  0  0  0  0
  -29.4409  -26.9620   22.0156 C   0  0  0  0  0  0  0  0  0  0  0  0
  -24.1593  -16.9182   19.2009 C   0  0  0  0  0  0  0  0  0  0  0  0
  -22.6628  -14.5419   20.8245 C   0  0  0  0  0  0  0  0  0  0  0  0
  -22.8902  -11.5324   22.4178 C   0  0  0  0  0  0  0  0  0  0  0  0
  -29.4613  -19.8227   18.5047 C   0  0  0  0  0  0  0  0  0  0  0  0
  -21.2138  -20.7874   17.6482 C   0  0  0  0  0  0  0  0  0  0  0  0
  -24.8997  -14.8830   17.9101 C   0  0  0  0  0  0  0  0  0  0  0  0
  -25.1854  -14.4961   20.8279 C   0  0  0  0  0  0  0  0  0  0  0  0
  -21.2307  -19.8403   18.8453 C   0  0  0  0  0  0  0  0  0  0  0  0
  -28.9494  -22.4363   16.1417 C   0  0  0  0  0  0  0  0  0  0  0  0
  -22.6272  -19.7765   19.4557 C   0  0  0  0  0  0  0  0  0  0  0  0
  -28.7274  -23.6746   17.0131 C   0  0  0  0  0  0  0  0  0  0  0  0
  -28.3287  -21.1866   16.7635 C   0  0  0  0  0  0  0  0  0  0  0  0
  -28.5094  -22.1557   19.0212 C   0  0  0  0  0  0  0  0  0  0  0  0
  -23.6461  -19.2331   18.4467 C   0  0  1  0  0  0  0  0  0  0  0  0
  -23.8978  -15.4695   18.8999 C   0  0  1  0  0  0  0  0  0  0  0  0
  -29.1729  -23.4273   18.4677 C   0  0  2  0  0  0  0  0  0  0  0  0
  -21.5059   -9.8610   23.6777 C   0  0  0  0  0  0  0  0  0  0  0  0
  -22.6936  -16.3645   23.2713 C   0  0  0  0  0  0  0  0  0  0  0  0
  -22.1945  -14.3591   24.6848 C   0  0  0  0  0  0  0  0  0  0  0  0
  -20.5650  -15.0929   22.9443 C   0  0  0  0  0  0  0  0  0  0  0  0
  -23.4355   -9.4088   20.4299 C   0  0  0  0  0  0  0  0  0  0  0  0
  -31.7028  -14.5633   21.6637 C   0  0  0  0  0  0  0  0  0  0  0  0
  -32.2233  -15.6227   20.6898 C   0  0  0  0  0  0  0  0  0  0  0  0
  -30.2164  -14.2691   21.4985 C   0  0  0  0  0  0  0  0  0  1  0  0
  -22.7314  -14.0012   22.2323 C   0  0  1  0  0  0  0  0  0  0  0  0
  -22.0476  -10.2736   22.3179 C   0  0  2  0  0  0  0  0  0  0  0  0
  -22.0690  -14.9549   23.2663 C   0  0  0  0  0  0  0  0  0  0  0  0
  -31.6715  -17.6010   22.0786 N   0  0  0  0  0  0  0  0  0  0  0  0
  -27.8518  -25.4167   19.0828 N   0  0  0  0  0  0  0  0  0  0  0  0
  -30.9829  -17.6090   19.8758 N   0  0  0  0  0  0  0  0  0  0  0  0
  -28.9120  -24.6347   19.3487 N   0  0  0  0  0  0  0  0  0  0  0  0
  -31.6063  -16.9842   20.8876 N   0  0  0  0  0  0  0  0  0  0  0  0
  -23.8894  -14.7618   20.1819 N   0  0  0  0  0  0  0  0  0  0  0  0
  -28.7997  -21.0142   18.1394 N   0  0  0  0  0  0  0  0  0  0  0  0
  -30.7441  -24.3752   20.8274 N   0  0  0  0  0  0  0  0  0  0  0  0
  -28.6863  -28.0915   22.3604 N   0  0  0  0  0  0  0  0  0  0  0  0
  -29.8925  -19.7858   19.8304 N   0  0  0  0  0  0  0  0  0  0  0  0
  -23.5308  -17.7946   18.3370 N   0  0  0  0  0  0  0  0  0  0  0  0
  -22.1421  -12.6674   22.1865 N   0  0  0  0  0  0  0  0  0  0  0  0
  -22.8598   -9.1485   21.7744 N   0  3  0  0  0  0  0  0  0  0  0  0
  -30.4637  -26.6793   22.6846 O   0  0  0  0  0  0  0  0  0  0  0  0
  -24.8768  -17.2186   20.1477 O   0  0  0  0  0  0  0  0  0  0  0  0
  -21.5614  -14.7542   20.3112 O   0  0  0  0  0  0  0  0  0  0  0  0
  -24.0910  -11.5113   22.6788 O   0  0  0  0  0  0  0  0  0  0  0  0
  -29.6567  -18.9140   17.6935 O   0  0  0  0  0  0  0  0  0  0  0  0
  -24.0973  -30.4289   20.2360 O   0  0  0  0  0  0  0  0  0  0  0  0
  -29.9848  -13.8137   20.1661 O   0  0  0  0  0  0  0  0  0  1  0  0
  -25.8813  -35.5887   21.0093 F   0  0  0  0  0  0  0  0  0  0  0  0
  -23.5922  -32.3997   18.3643 F   0  0  0  0  0  0  0  0  0  0  0  0
  1  2  1  0  0  0  0
  1  5  2  0  0  0  0
  2  6  2  0  0  0  0
  3  8  2  0  0  0  0
  3 16  1  0  0  0  0
  4  9  1  0  0  0  0
  4 16  2  0  0  0  0
  5 18  1  0  0  0  0
  6 20  1  0  0  0  0
  7 10  2  0  0  0  0
  7 19  1  0  0  0  0
  8 22  1  0  0  0  0
  9 22  2  0  0  0  0
 10 23  1  0  0  0  0
 11 12  2  0  0  0  0
 11 24  1  0  0  0  0
 12 25  1  0  0  0  0
 13 21  1  0  0  0  0
 13 23  2  0  0  0  0
 14 25  2  0  0  0  0
 14 26  1  0  0  0  0
 15 28  1  0  0  0  0
 15 58  2  0  0  0  0
 16 27  1  0  0  0  0
 17 27  1  0  0  0  0
 17 29  2  0  0  0  0
 17 30  1  0  0  0  0
 18 20  2  0  0  0  0
 18 35  1  0  0  0  0
 19 21  2  0  0  0  0
 19 36  1  0  0  0  0
 20 44  1  0  0  0  0
 21 37  1  0  0  0  0
 22 76  1  0  0  0  0
 23 77  1  0  0  0  0
 24 26  2  0  0  0  0
 24 76  1  0  0  0  0
 25 78  1  0  0  0  0
 26 79  1  0  0  0  0
 27 59  2  0  0  0  0
 28 60  2  0  0  0  0
 28 67  1  0  0  0  0
 29 61  1  0  0  0  0
 29 65  1  0  0  0  0
 30 66  1  0  0  0  0
 30 71  2  0  0  0  0
 31 45  1  0  0  0  0
 31 68  1  0  0  0  0
 31 72  2  0  0  0  0
 32 55  1  0  0  0  0
 32 63  1  0  0  0  0
 32 73  2  0  0  0  0
 33 56  1  0  0  0  0
 33 69  1  0  0  0  0
 33 74  2  0  0  0  0
 34 64  1  0  0  0  0
 34 67  1  0  0  0  0
 34 75  2  0  0  0  0
 35 38  1  0  0  0  0
 36 45  1  0  0  0  0
 37 63  1  0  0  0  0
 38 40  1  0  0  0  0
 39 41  1  0  0  0  0
 39 42  1  0  0  0  0
 40 44  1  0  0  0  0
 41 46  1  0  0  0  0
 42 64  1  0  0  0  0
 43 46  1  0  0  0  0
 43 64  1  0  0  0  0
 44 68  1  0  0  0  0
 45 63  1  0  0  0  0
 46 61  1  0  0  0  0
 47 56  1  0  0  0  0
 48 57  1  0  0  0  0
 49 57  1  0  0  0  0
 50 57  1  0  0  0  0
 51 70  1  0  0  0  0
 52 53  1  0  0  0  0
 52 54  1  0  0  0  0
 53 62  1  0  0  0  0
 54 77  1  0  0  0  0
 55 57  1  0  0  0  0
 55 69  1  0  0  0  0
 56 70  1  0  0  0  0
 58 62  1  0  0  0  0
 59 61  1  0  0  0  0
 60 62  1  0  0  0  0
M  CHG  1  70   1
M  ISO  4  34 100  54 101  67 100  77 101
M  END
> <Batch ID>
0199

> <Smiles>
CNC(C)C(=O)NC(C(=O)N1Cc2cc([101O:1][101CH2:1]CCn3ncc([100NH:0][100C:0](=O)N4CCCC(n5nc(-c6ccc(Oc7ccc(F)cc7F)cc6)c(C(N)=O)c5N)C4)n3)ccc2CC1C(=O)NC1CCCc2ccccc21)C(C)(C)C

> <Shape>
0.210

> <Color>
0.060

> <Negative vol penalty>
0.000

$$$$

  -OEChem-04052305473D

 83 91  0     1  0  0  0  0  0999 V2000
  -18.1469  -32.5061   21.7586 C   0  0  0  0  0  0  0  0  0  0  0  0
  -19.4683  -32.5048   21.3235 C   0  0  0  0  0  0  0  0  0  0  0  0
  -26.4379  -13.0176   21.6719 C   0  0  0  0  0  0  0  0  0  0  0  0
  -25.9795  -14.0660   19.5441 C   0  0  0  0  0  0  0  0  0  0  0  0
  -17.7440  -31.6270   22.7630 C   0  0  0  0  0  0  0  0  0  0  0  0
  -20.3879  -31.6250   21.8935 C   0  0  0  0  0  0  0  0  0  0  0  0
  -25.0721  -28.8620   19.0776 C   0  0  0  0  0  0  0  0  0  0  0  0
  -25.1680  -12.4406   21.6612 C   0  0  0  0  0  0  0  0  0  0  0  0
  -24.7096  -13.4890   19.5333 C   0  0  0  0  0  0  0  0  0  0  0  0
  -26.4336  -29.1555   19.0145 C   0  0  0  0  0  0  0  0  0  0  0  0
  -23.6396   -9.8101   20.1857 C   0  0  0  0  0  0  0  0  0  0  0  0
  -23.5365   -8.4635   20.5342 C   0  0  0  0  0  0  0  0  0  0  0  0
  -26.8443  -27.6097   20.8204 C   0  0  0  0  0  0  0  0  0  0  0  0
  -22.0782   -9.0500   22.3690 C   0  0  0  0  0  0  0  0  0  0  0  0
  -29.1600  -21.4734   17.6621 C   0  0  0  0  0  0  0  0  0  0  0  0
  -29.7446  -23.5848   17.0066 C   0  0  0  0  0  0  0  0  0  0  0  0
  -26.8436  -13.8304   20.6134 C   0  0  0  0  0  0  0  0  0  0  0  0
  -29.3417  -13.8813   20.0993 C   0  0  0  0  0  0  0  0  0  0  0  0
  -18.6568  -30.7294   23.3388 C   0  0  0  0  0  0  0  0  0  0  0  0
  -24.5842  -27.9468   20.0214 C   0  0  0  0  0  0  0  0  0  0  0  0
  -19.9971  -30.7340   22.9074 C   0  0  0  0  0  0  0  0  0  0  0  0
  -25.4765  -27.3044   20.8917 C   0  0  0  0  0  0  0  0  0  0  0  0
  -24.3039  -12.6763   20.5919 C   0  0  0  0  0  0  0  0  0  0  0  0
  -27.3196  -28.5314   19.8879 C   0  0  0  0  0  0  0  0  0  0  0  0
  -22.9620  -10.7767   20.9288 C   0  0  0  0  0  0  0  0  0  0  0  0
  -22.7558   -8.0834   21.6258 C   0  0  0  0  0  0  0  0  0  0  0  0
  -22.1813  -10.3967   22.0204 C   0  0  0  0  0  0  0  0  0  0  0  0
  -28.1550  -14.4272   20.6242 C   0  0  0  0  0  0  0  0  0  0  0  0
  -29.6748  -21.7199   18.9157 C   0  0  0  0  0  0  0  0  0  0  0  0
  -30.2588  -23.8318   18.2605 C   0  0  0  0  0  0  0  0  0  0  0  0
  -30.3004  -14.8299   20.3593 C   0  0  0  0  0  0  0  0  0  0  0  0
  -29.5582  -12.6287   19.4360 C   0  0  0  0  0  0  0  0  0  0  0  0
  -22.5629  -28.1115   22.4690 C   0  0  0  0  0  0  0  0  0  0  0  0
  -23.0061  -24.8991   22.5470 C   0  0  0  0  0  0  0  0  0  0  0  0
  -24.9918  -22.2291   21.7885 C   0  0  0  0  0  0  0  0  0  0  0  0
  -30.0710  -20.7410   21.2029 C   0  0  0  0  0  0  0  0  0  0  0  0
  -18.1857  -29.8306   24.4545 C   0  0  0  0  0  0  0  0  0  0  0  0
  -23.1163  -27.6212   20.0587 C   0  0  0  0  0  0  0  0  0  0  0  0
  -25.0059  -26.2991   21.9096 C   0  0  0  0  0  0  0  0  0  0  0  0
  -19.1350  -28.6710   24.7446 C   0  0  0  0  0  0  0  0  0  0  0  0
  -31.3741  -18.3166   23.4615 C   0  0  0  0  0  0  0  0  0  0  0  0
  -20.5759  -29.1663   24.8187 C   0  0  0  0  0  0  0  0  0  0  0  0
  -30.8094  -16.9937   22.9389 C   0  0  0  0  0  0  0  0  0  0  0  0
  -30.3722  -19.4600   23.3108 C   0  0  0  0  0  0  0  0  0  0  0  0
  -29.2623  -18.3105   21.4357 C   0  0  0  0  0  0  0  0  0  0  0  0
  -21.0184  -29.7775   23.4838 C   0  0  1  0  0  0  0  0  0  0  0  0
  -22.6631  -27.0581   21.4022 C   0  0  1  0  0  0  0  0  0  0  0  0
  -30.2594  -17.1424   21.5068 C   0  0  2  0  0  0  0  0  0  0  0  0
  -25.1050  -19.7322   22.0111 C   0  0  0  0  0  0  0  0  0  0  0  0
  -23.7377  -25.1975   25.4941 C   0  0  0  0  0  0  0  0  0  0  0  0
  -24.7351  -22.9028   25.4070 C   0  0  0  0  0  0  0  0  0  0  0  0
  -22.2994  -23.2195   24.9714 C   0  0  0  0  0  0  0  0  0  0  0  0
  -25.0520  -21.8540   18.8534 C   0  0  0  0  0  0  0  0  0  0  0  0
  -30.8564  -27.9660   19.4445 C   0  0  0  0  0  0  0  0  0  0  0  0
  -31.3875  -25.4567   19.7807 C   0  0  0  0  0  0  0  0  0  0  0  0
  -29.5530  -27.7791   20.2068 C   0  0  0  0  0  0  0  0  0  1  0  0
  -23.9770  -23.9702   23.2352 C   0  0  1  0  0  0  0  0  0  0  0  0
  -24.6804  -20.8970   21.1305 C   0  0  2  0  0  0  0  0  0  0  0  0
  -31.9091  -26.8942   19.7466 C   0  0  1  0  0  0  0  0  0  0  0  0
  -23.6962  -23.8428   24.7592 C   0  0  0  0  0  0  0  0  0  0  0  0
  -29.1857  -22.4014   16.6850 N   0  0  0  0  0  0  0  0  0  0  0  0
  -28.3404  -15.6293   21.1760 N   0  0  0  0  0  0  0  0  0  0  0  0
  -30.2334  -22.9036   19.2375 N   0  0  0  0  0  0  0  0  0  0  0  0
  -29.6548  -15.8466   20.9994 N   0  0  0  0  0  0  0  0  0  0  0  0
  -23.5606  -26.0190   21.9113 N   0  0  0  0  0  0  0  0  0  0  0  0
  -29.8978  -19.5429   21.9277 N   0  0  0  0  0  0  0  0  0  0  0  0
  -31.6242  -14.8852   20.1005 N   0  0  0  0  0  0  0  0  0  0  0  0
  -28.4639  -11.7728   19.2509 N   0  0  0  0  0  0  0  0  0  0  0  0
  -29.6102  -20.6909   19.8877 N   0  0  0  0  0  0  0  0  0  0  0  0
  -30.8162  -25.0750   18.5096 N   0  0  0  0  0  0  0  0  0  0  0  0
  -21.3313  -28.7353   22.5297 N   0  0  0  0  0  0  0  0  0  0  0  0
  -23.9174  -22.7064   22.5090 N   0  0  0  0  0  0  0  0  0  0  0  0
  -25.3930  -20.7844   19.8264 N   0  3  0  0  0  0  0  0  0  0  0  0
  -30.6917  -12.2716   19.0344 O   0  0  0  0  0  0  0  0  0  0  0  0
  -23.5307  -28.3404   23.1849 O   0  0  0  0  0  0  0  0  0  0  0  0
  -21.8010  -24.6367   22.5665 O   0  0  0  0  0  0  0  0  0  0  0  0
  -26.0805  -22.7885   21.6777 O   0  0  0  0  0  0  0  0  0  0  0  0
  -30.6144  -21.7292   21.7029 O   0  0  0  0  0  0  0  0  0  0  0  0
  -32.9452  -26.9708   18.7657 O   0  0  0  0  0  0  0  0  0  0  0  0
  -23.0648  -12.1132   20.5810 O   0  0  0  0  0  0  0  0  0  0  0  0
  -28.6489  -28.8165   19.8289 O   0  0  0  0  0  0  0  0  0  1  0  0
  -22.6556   -6.7900   21.9595 F   0  0  0  0  0  0  0  0  0  0  0  0
  -21.5271  -11.3207   22.7374 F   0  0  0  0  0  0  0  0  0  0  0  0
  1  2  1  0  0  0  0
  1  5  2  0  0  0  0
  2  6  2  0  0  0  0
  3  8  2  0  0  0  0
  3 17  1  0  0  0  0
  4  9  1  0  0  0  0
  4 17  2  0  0  0  0
  5 19  1  0  0  0  0
  6 21  1  0  0  0  0
  7 10  2  0  0  0  0
  7 20  1  0  0  0  0
  8 23  1  0  0  0  0
  9 23  2  0  0  0  0
 10 24  1  0  0  0  0
 11 12  2  0  0  0  0
 11 25  1  0  0  0  0
 12 26  1  0  0  0  0
 13 22  1  0  0  0  0
 13 24  2  0  0  0  0
 14 26  2  0  0  0  0
 14 27  1  0  0  0  0
 15 29  2  0  0  0  0
 15 61  1  0  0  0  0
 16 30  1  0  0  0  0
 16 61  2  0  0  0  0
 17 28  1  0  0  0  0
 18 28  1  0  0  0  0
 18 31  2  0  0  0  0
 18 32  1  0  0  0  0
 19 21  2  0  0  0  0
 19 37  1  0  0  0  0
 20 22  2  0  0  0  0
 20 38  1  0  0  0  0
 21 46  1  0  0  0  0
 22 39  1  0  0  0  0
 23 80  1  0  0  0  0
 24 81  1  0  0  0  0
 25 27  2  0  0  0  0
 25 80  1  0  0  0  0
 26 82  1  0  0  0  0
 27 83  1  0  0  0  0
 28 62  2  0  0  0  0
 29 63  1  0  0  0  0
 29 69  1  0  0  0  0
 30 63  2  0  0  0  0
 30 70  1  0  0  0  0
 31 64  1  0  0  0  0
 31 67  1  0  0  0  0
 32 68  1  0  0  0  0
 32 74  2  0  0  0  0
 33 47  1  0  0  0  0
 33 71  1  0  0  0  0
 33 75  2  0  0  0  0
 34 57  1  0  0  0  0
 34 65  1  0  0  0  0
 34 76  2  0  0  0  0
 35 58  1  0  0  0  0
 35 72  1  0  0  0  0
 35 77  2  0  0  0  0
 36 66  1  0  0  0  0
 36 69  1  0  0  0  0
 36 78  2  0  0  0  0
 37 40  1  0  0  0  0
 38 47  1  0  0  0  0
 39 65  1  0  0  0  0
 40 42  1  0  0  0  0
 41 43  1  0  0  0  0
 41 44  1  0  0  0  0
 42 46  1  0  0  0  0
 43 48  1  0  0  0  0
 44 66  1  0  0  0  0
 45 48  1  0  0  0  0
 45 66  1  0  0  0  0
 46 71  1  0  0  0  0
 47 65  1  0  0  0  0
 48 64  1  0  0  0  0
 49 58  1  0  0  0  0
 50 60  1  0  0  0  0
 51 60  1  0  0  0  0
 52 60  1  0  0  0  0
 53 73  1  0  0  0  0
 54 56  1  0  0  0  0
 54 59  1  0  0  0  0
 55 59  1  0  0  0  0
 55 70  1  0  0  0  0
 56 81  1  0  0  0  0
 57 60  1  0  0  0  0
 57 72  1  0  0  0  0
 58 73  1  0  0  0  0
 59 79  1  0  0  0  0
 62 64  1  0  0  0  0
M  CHG  1  73   1
M  ISO  4  36 100  56 101  69 100  81 101
M  END
> <Batch ID>
0199

> <Smiles>
CNC(C)C(=O)NC(C(=O)N1Cc2cc([101O:1][101CH2:1]CC(O)CNc3cncc([100NH:0][100C:0](=O)N4CCCC(n5nc(-c6ccc(Oc7ccc(F)cc7F)cc6)c(C(N)=O)c5N)C4)n3)ccc2CC1C(=O)NC1CCCc2ccccc21)C(C)(C)C

> <Shape>
0.281

> <Color>
0.094

> <Negative vol penalty>
0.000

$$$$

  -OEChem-04052305473D

 80 88  0     1  0  0  0  0  0999 V2000
  -18.7915  -24.2400   20.3519 C   0  0  0  0  0  0  0  0  0  0  0  0
  -20.1721  -24.0708   20.3245 C   0  0  0  0  0  0  0  0  0  0  0  0
  -23.9485   -9.6862   21.4803 C   0  0  0  0  0  0  0  0  0  0  0  0
  -24.4795  -10.7684   23.5741 C   0  0  0  0  0  0  0  0  0  0  0  0
  -18.2348  -25.3039   21.0604 C   0  0  0  0  0  0  0  0  0  0  0  0
  -20.9968  -24.9661   21.0047 C   0  0  0  0  0  0  0  0  0  0  0  0
  -24.6426  -22.6351   23.6353 C   0  0  0  0  0  0  0  0  0  0  0  0
  -23.4882   -8.5677   22.1751 C   0  0  0  0  0  0  0  0  0  0  0  0
  -24.0191   -9.6499   24.2689 C   0  0  0  0  0  0  0  0  0  0  0  0
  -25.7466  -22.1722   22.9207 C   0  0  0  0  0  0  0  0  0  0  0  0
  -20.7063   -7.6577   23.8679 C   0  0  0  0  0  0  0  0  0  0  0  0
  -19.4977   -7.0933   23.4602 C   0  0  0  0  0  0  0  0  0  0  0  0
  -27.0006  -24.1135   23.6123 C   0  0  0  0  0  0  0  0  0  0  0  0
  -20.6268   -5.0075   23.0004 C   0  0  0  0  0  0  0  0  0  0  0  0
  -32.2130  -17.9450   21.9293 C   0  0  0  0  0  0  0  0  0  0  0  0
  -24.4442  -10.7865   22.1798 C   0  0  0  0  0  0  0  0  0  0  0  0
  -24.1712  -13.0676   21.0709 C   0  0  0  0  0  0  0  0  0  0  0  0
  -19.0525  -26.2072   21.7576 C   0  0  0  0  0  0  0  0  0  0  0  0
  -24.7059  -23.8481   24.3360 C   0  0  0  0  0  0  0  0  0  0  0  0
  -20.4506  -26.0439   21.7220 C   0  0  0  0  0  0  0  0  0  0  0  0
  -25.8968  -24.5883   24.3371 C   0  0  0  0  0  0  0  0  0  0  0  0
  -23.5235   -8.5496   23.5694 C   0  0  0  0  0  0  0  0  0  0  0  0
  -26.9249  -22.9128   22.9068 C   0  0  0  0  0  0  0  0  0  0  0  0
  -21.8752   -6.8970   23.8419 C   0  0  0  0  0  0  0  0  0  0  0  0
  -19.4579   -5.7682   23.0264 C   0  0  0  0  0  0  0  0  0  0  0  0
  -21.8354   -5.5719   23.4081 C   0  0  0  0  0  0  0  0  0  0  0  0
  -24.9203  -11.9420   21.4626 C   0  0  0  0  0  0  0  0  0  0  0  0
  -31.4577  -17.0458   22.6525 C   0  0  0  0  0  0  0  0  0  0  0  0
  -25.0760  -13.8746   20.4254 C   0  0  0  0  0  0  0  0  0  0  0  0
  -30.6613  -19.3192   22.6463 C   0  0  0  0  0  0  0  0  0  0  0  0
  -22.7817  -13.3580   21.2727 C   0  0  0  0  0  0  0  0  0  0  0  0
  -23.1665  -26.6236   24.1593 C   0  0  0  0  0  0  0  0  0  0  0  0
  -24.8693  -27.2938   26.8377 C   0  0  0  0  0  0  0  0  0  0  0  0
  -27.6276  -26.6717   28.7486 C   0  0  0  0  0  0  0  0  0  0  0  0
  -31.0290  -14.4161   20.7708 C   0  0  0  0  0  0  0  0  0  0  0  0
  -18.4074  -27.3693   22.4704 C   0  0  0  0  0  0  0  0  0  0  0  0
  -23.5148  -24.3204   25.1238 C   0  0  0  0  0  0  0  0  0  0  0  0
  -26.0227  -25.8868   25.0897 C   0  0  0  0  0  0  0  0  0  0  0  0
  -19.3300  -28.0563   23.4740 C   0  0  0  0  0  0  0  0  0  0  0  0
  -29.1120  -13.6733   17.8639 C   0  0  0  0  0  0  0  0  0  0  0  0
  -20.7030  -28.3013   22.8562 C   0  0  0  0  0  0  0  0  0  0  0  0
  -27.7527  -13.2469   18.4212 C   0  0  0  0  0  0  0  0  0  0  0  0
  -30.2599  -13.2013   18.7535 C   0  0  0  0  0  0  0  0  0  0  0  0
  -28.7863  -13.1652   20.7286 C   0  0  0  0  0  0  0  0  0  0  0  0
  -21.3769  -26.9797   22.4678 C   0  0  1  0  0  0  0  0  0  0  0  0
  -23.5259  -25.8243   25.3799 C   0  0  1  0  0  0  0  0  0  0  0  0
  -27.5945  -13.6663   19.8951 C   0  0  2  0  0  0  0  0  0  0  0  0
  -28.7655  -27.4030   30.8623 C   0  0  0  0  0  0  0  0  0  0  0  0
  -25.8379  -29.8258   25.4374 C   0  0  0  0  0  0  0  0  0  0  0  0
  -27.6491  -30.0004   27.1570 C   0  0  0  0  0  0  0  0  0  0  0  0
  -25.2564  -30.1260   27.8511 C   0  0  0  0  0  0  0  0  0  0  0  0
  -27.4077  -23.9709   29.9387 C   0  0  0  0  0  0  0  0  0  0  0  0
  -31.6556  -15.5984   22.8609 C   0  0  0  0  0  0  0  0  0  0  0  0
  -30.3045  -21.7642   22.2999 C   0  0  0  0  0  0  0  0  0  0  0  0
  -29.2929  -22.8232   22.7049 C   0  0  0  0  0  0  0  0  0  1  0  0
  -26.2201  -27.9057   27.1206 C   0  0  1  0  0  0  0  0  0  0  0  0
  -27.7860  -26.4217   30.2375 C   0  0  2  0  0  0  0  0  0  0  0  0
  -26.2382  -29.4410   26.8757 C   0  0  0  0  0  0  0  0  0  0  0  0
  -31.7576  -19.2490   21.9243 N   0  0  0  0  0  0  0  0  0  0  0  0
  -26.2022  -12.0228   21.0963 N   0  0  0  0  0  0  0  0  0  0  0  0
  -26.2656  -13.2089   20.4677 N   0  0  0  0  0  0  0  0  0  0  0  0
  -24.8286  -26.3097   25.8398 N   0  0  0  0  0  0  0  0  0  0  0  0
  -30.0498  -13.6331   20.1375 N   0  0  0  0  0  0  0  0  0  0  0  0
  -24.9620  -15.0814   19.8313 N   0  0  0  0  0  0  0  0  0  0  0  0
  -21.9955  -12.4202   21.9559 N   0  0  0  0  0  0  0  0  0  0  0  0
  -29.9376  -20.4815   22.8550 N   0  0  0  0  0  0  0  0  0  0  0  0
  -21.9213  -26.3267   23.6390 N   0  0  0  0  0  0  0  0  0  0  0  0
  -26.5688  -27.5136   28.4819 N   0  0  0  0  0  0  0  0  0  0  0  0
  -30.7481  -14.7877   22.0799 N   0  0  0  0  0  0  0  0  0  0  0  0
  -28.2867  -25.0391   30.4802 N   0  3  0  0  0  0  0  0  0  0  0  0
  -22.2493  -14.4102   20.8450 O   0  0  0  0  0  0  0  0  0  0  0  0
  -23.9596  -27.4495   23.7229 O   0  0  0  0  0  0  0  0  0  0  0  0
  -23.8879  -27.6698   27.4834 O   0  0  0  0  0  0  0  0  0  0  0  0
  -28.3713  -26.1731   27.9066 O   0  0  0  0  0  0  0  0  0  0  0  0
  -32.0736  -14.7631   20.2092 O   0  0  0  0  0  0  0  0  0  0  0  0
  -23.0742   -7.4585   24.2478 O   0  0  0  0  0  0  0  0  0  0  0  0
  -28.0038  -22.4636   22.2096 O   0  0  0  0  0  0  0  0  0  1  0  0
  -18.2969   -5.2259   22.6363 F   0  0  0  0  0  0  0  0  0  0  0  0
  -22.9549   -4.8357   23.3820 F   0  0  0  0  0  0  0  0  0  0  0  0
  -30.1218  -17.8551   23.3607 S   0  0  0  0  0  0  0  0  0  0  0  0
  1  2  1  0  0  0  0
  1  5  2  0  0  0  0
  2  6  2  0  0  0  0
  3  8  2  0  0  0  0
  3 16  1  0  0  0  0
  4  9  1  0  0  0  0
  4 16  2  0  0  0  0
  5 18  1  0  0  0  0
  6 20  1  0  0  0  0
  7 10  2  0  0  0  0
  7 19  1  0  0  0  0
  8 22  1  0  0  0  0
  9 22  2  0  0  0  0
 10 23  1  0  0  0  0
 11 12  2  0  0  0  0
 11 24  1  0  0  0  0
 12 25  1  0  0  0  0
 13 21  1  0  0  0  0
 13 23  2  0  0  0  0
 14 25  2  0  0  0  0
 14 26  1  0  0  0  0
 15 28  2  0  0  0  0
 15 59  1  0  0  0  0
 16 27  1  0  0  0  0
 17 27  1  0  0  0  0
 17 29  2  0  0  0  0
 17 31  1  0  0  0  0
 18 20  2  0  0  0  0
 18 36  1  0  0  0  0
 19 21  2  0  0  0  0
 19 37  1  0  0  0  0
 20 45  1  0  0  0  0
 21 38  1  0  0  0  0
 22 76  1  0  0  0  0
 23 77  1  0  0  0  0
 24 26  2  0  0  0  0
 24 76  1  0  0  0  0
 25 78  1  0  0  0  0
 26 79  1  0  0  0  0
 27 60  2  0  0  0  0
 28 53  1  0  0  0  0
 28 80  1  0  0  0  0
 29 61  1  0  0  0  0
 29 64  1  0  0  0  0
 30 59  2  0  0  0  0
 30 66  1  0  0  0  0
 30 80  1  0  0  0  0
 31 65  1  0  0  0  0
 31 71  2  0  0  0  0
 32 46  1  0  0  0  0
 32 67  1  0  0  0  0
 32 72  2  0  0  0  0
 33 56  1  0  0  0  0
 33 62  1  0  0  0  0
 33 73  2  0  0  0  0
 34 57  1  0  0  0  0
 34 68  1  0  0  0  0
 34 74  2  0  0  0  0
 35 63  1  0  0  0  0
 35 69  1  0  0  0  0
 35 75  2  0  0  0  0
 36 39  1  0  0  0  0
 37 46  1  0  0  0  0
 38 62  1  0  0  0  0
 39 41  1  0  0  0  0
 40 42  1  0  0  0  0
 40 43  1  0  0  0  0
 41 45  1  0  0  0  0
 42 47  1  0  0  0  0
 43 63  1  0  0  0  0
 44 47  1  0  0  0  0
 44 63  1  0  0  0  0
 45 67  1  0  0  0  0
 46 62  1  0  0  0  0
 47 61  1  0  0  0  0
 48 57  1  0  0  0  0
 49 58  1  0  0  0  0
 50 58  1  0  0  0  0
 51 58  1  0  0  0  0
 52 70  1  0  0  0  0
 53 69  1  0  0  0  0
 54 55  1  0  0  0  0
 54 66  1  0  0  0  0
 55 77  1  0  0  0  0
 56 58  1  0  0  0  0
 56 68  1  0  0  0  0
 57 70  1  0  0  0  0
 60 61  1  0  0  0  0
M  CHG  1  70   1
M  ISO  4  35 100  55 101  69 100  77 101
M  END
> <Batch ID>
0199

> <Smiles>
CNC(C)C(=O)NC(C(=O)N1Cc2cc([101O:1][101CH2:1]CNc3ncc(C[100NH:0][100C:0](=O)N4CCCC(n5nc(-c6ccc(Oc7ccc(F)cc7F)cc6)c(C(N)=O)c5N)C4)s3)ccc2CC1C(=O)NC1CCCc2ccccc21)C(C)(C)C

> <Shape>
0.219

> <Color>
0.138

> <Negative vol penalty>
0.000

$$$$

  -OEChem-04052305473D

 87 95  0     1  0  0  0  0  0999 V2000
  -18.5425  -30.4879   24.5977 C   0  0  0  0  0  0  0  0  0  0  0  0
  -19.9219  -30.3816   24.4515 C   0  0  0  0  0  0  0  0  0  0  0  0
  -24.5123  -13.9130   20.8943 C   0  0  0  0  0  0  0  0  0  0  0  0
  -26.7953  -13.3306   20.3596 C   0  0  0  0  0  0  0  0  0  0  0  0
  -17.7074  -29.5163   24.0476 C   0  0  0  0  0  0  0  0  0  0  0  0
  -20.4671  -29.3030   23.7560 C   0  0  0  0  0  0  0  0  0  0  0  0
  -25.4750  -29.3477   20.2311 C   0  0  0  0  0  0  0  0  0  0  0  0
  -24.0995  -12.6325   20.5262 C   0  0  0  0  0  0  0  0  0  0  0  0
  -26.3824  -12.0501   19.9915 C   0  0  0  0  0  0  0  0  0  0  0  0
  -26.7954  -28.9712   20.4727 C   0  0  0  0  0  0  0  0  0  0  0  0
  -24.0985   -9.5318   21.8747 C   0  0  0  0  0  0  0  0  0  0  0  0
  -23.2050   -8.8714   22.7179 C   0  0  0  0  0  0  0  0  0  0  0  0
  -26.3509  -26.8094   19.4990 C   0  0  0  0  0  0  0  0  0  0  0  0
  -21.6013   -8.7400   20.9156 C   0  0  0  0  0  0  0  0  0  0  0  0
  -25.8603  -14.2621   20.8109 C   0  0  0  0  0  0  0  0  0  0  0  0
  -26.6958  -16.0124   22.4680 C   0  0  0  0  0  0  0  0  0  0  0  0
  -18.2421  -28.4304   23.3368 C   0  0  0  0  0  0  0  0  0  0  0  0
  -24.5781  -28.4524   19.6305 C   0  0  0  0  0  0  0  0  0  0  0  0
  -19.6384  -28.3152   23.1971 C   0  0  0  0  0  0  0  0  0  0  0  0
  -25.0202  -27.1778   19.2485 C   0  0  0  0  0  0  0  0  0  0  0  0
  -25.0345  -11.7011   20.0749 C   0  0  0  0  0  0  0  0  0  0  0  0
  -27.2328  -27.7009   20.1093 C   0  0  0  0  0  0  0  0  0  0  0  0
  -23.7435   -9.7964   20.5519 C   0  0  0  0  0  0  0  0  0  0  0  0
  -21.9564   -8.4754   22.2384 C   0  0  0  0  0  0  0  0  0  0  0  0
  -22.4949   -9.4004   20.0724 C   0  0  0  0  0  0  0  0  0  0  0  0
  -26.2873  -15.5848   21.1905 C   0  0  0  0  0  0  0  0  0  0  0  0
  -26.9977  -17.3423   22.3047 C   0  0  0  0  0  0  0  0  0  0  0  0
  -31.1389  -22.0518   21.1520 C   0  0  0  0  0  0  0  0  0  0  0  0
  -32.2953  -23.7634   21.4527 C   0  0  0  0  0  0  0  0  0  0  0  0
  -26.7937  -15.2734   23.6928 C   0  0  0  0  0  0  0  0  0  0  0  0
  -21.8571  -27.0695   20.5178 C   0  0  0  0  0  0  0  0  0  0  0  0
  -21.8532  -26.0038   17.4540 C   0  0  0  0  0  0  0  0  0  0  0  0
  -23.6414  -25.2476   14.6473 C   0  0  0  0  0  0  0  0  0  0  0  0
  -29.3805  -21.4804   19.4409 C   0  0  0  0  0  0  0  0  0  0  0  0
  -17.3019  -27.3799   22.8007 C   0  0  0  0  0  0  0  0  0  0  0  0
  -23.1641  -28.8832   19.3524 C   0  0  0  0  0  0  0  0  0  0  0  0
  -24.1024  -26.1867   18.5824 C   0  0  0  0  0  0  0  0  0  0  0  0
  -17.9400  -26.4671   21.7568 C   0  0  0  0  0  0  0  0  0  0  0  0
  -26.1247  -20.4652   18.4179 C   0  0  0  0  0  0  0  0  0  0  0  0
  -19.3099  -25.9910   22.2297 C   0  0  0  0  0  0  0  0  0  0  0  0
  -25.9104  -19.1402   19.1531 C   0  0  0  0  0  0  0  0  0  0  0  0
  -27.5729  -20.6327   17.9614 C   0  0  0  0  0  0  0  0  0  0  0  0
  -28.3658  -19.1374   19.7516 C   0  0  0  0  0  0  0  0  0  0  0  0
  -20.2664  -27.1730   22.4282 C   0  0  1  0  0  0  0  0  0  0  0  0
  -22.2005  -27.7100   19.2027 C   0  0  1  0  0  0  0  0  0  0  0  0
  -26.9367  -18.9528   20.2876 C   0  0  2  0  0  0  0  0  0  0  0  0
  -35.0663  -25.6650   18.5572 C   0  0  0  0  0  0  0  0  0  0  0  0
  -23.3665  -24.3613   12.3157 C   0  0  0  0  0  0  0  0  0  0  0  0
  -34.1424  -27.7446   21.7159 C   0  0  0  0  0  0  0  0  0  0  0  0
  -21.5249  -23.1822   18.5679 C   0  0  0  0  0  0  0  0  0  0  0  0
  -22.2041  -22.2939   16.3278 C   0  0  0  0  0  0  0  0  0  0  0  0
  -20.1374  -23.6736   16.5461 C   0  0  0  0  0  0  0  0  0  0  0  0
  -33.5559  -22.9014   23.4664 C   0  0  0  0  0  0  0  0  0  0  0  0
  -24.6906  -27.7428   13.4508 C   0  0  0  0  0  0  0  0  0  0  0  0
  -35.1756  -26.3296   19.9223 C   0  0  0  0  0  0  0  0  0  0  0  0
  -31.3155  -26.6883   20.8570 C   0  0  0  0  0  0  0  0  0  0  0  0
  -29.5065  -28.3633   20.3272 C   0  0  0  0  0  0  0  0  0  1  0  0
  -22.3982  -24.7879   16.7444 C   0  0  1  0  0  0  0  0  0  0  0  0
  -23.4248  -25.6056   13.1881 C   0  0  2  0  0  0  0  0  0  0  0  0
  -33.8690  -27.0085   20.3964 C   0  0  1  0  0  0  0  0  0  0  0  0
  -32.6641  -26.0339   20.4861 C   0  0  1  0  0  0  0  0  0  0  0  0
  -30.8426  -27.7734   19.8834 C   0  0  2  0  0  0  0  0  0  0  0  0
  -21.5832  -23.5022   17.0608 C   0  0  0  0  0  0  0  0  0  0  0  0
  -26.3249  -16.5638   20.2826 N   0  0  0  0  0  0  0  0  0  0  0  0
  -31.3668  -23.3004   20.6483 N   0  0  0  0  0  0  0  0  0  0  0  0
  -31.8679  -21.7131   22.2175 N   0  0  0  0  0  0  0  0  0  0  0  0
  -26.7606  -17.6198   20.9906 N   0  0  0  0  0  0  0  0  0  0  0  0
  -32.5990  -22.8250   22.3892 N   0  0  0  0  0  0  0  0  0  0  0  0
  -22.7275  -26.6527   18.3375 N   0  0  0  0  0  0  0  0  0  0  0  0
  -28.4879  -20.4457   19.0895 N   0  0  0  0  0  0  0  0  0  0  0  0
  -27.4401  -18.2898   23.1585 N   0  0  0  0  0  0  0  0  0  0  0  0
  -26.4446  -13.9161   23.6839 N   0  0  0  0  0  0  0  0  0  0  0  0
  -30.1785  -21.2015   20.5500 N   0  0  0  0  0  0  0  0  0  0  0  0
  -32.9374  -24.9858   21.4541 N   0  0  0  0  0  0  0  0  0  0  0  0
  -20.7686  -27.6366   21.1525 N   0  0  0  0  0  0  0  0  0  0  0  0
  -22.4475  -25.1304   15.3271 N   0  0  0  0  0  0  0  0  0  0  0  0
  -24.5336  -26.4721   12.6973 N   0  3  0  0  0  0  0  0  0  0  0  0
  -27.1637  -15.8052   24.7670 O   0  0  0  0  0  0  0  0  0  0  0  0
  -22.5290  -26.1294   20.9257 O   0  0  0  0  0  0  0  0  0  0  0  0
  -20.6969  -26.3688   17.2273 O   0  0  0  0  0  0  0  0  0  0  0  0
  -24.7579  -25.0843   15.1345 O   0  0  0  0  0  0  0  0  0  0  0  0
  -29.4140  -22.5468   18.8215 O   0  0  0  0  0  0  0  0  0  0  0  0
  -30.6817  -27.1946   18.5892 O   0  0  0  0  0  0  0  0  0  0  0  0
  -24.6320  -10.4514   19.7158 O   0  0  0  0  0  0  0  0  0  0  0  0
  -28.5294  -27.3282   20.3461 O   0  0  0  0  0  0  0  0  0  1  0  0
  -21.0990   -7.8399   23.0478 F   0  0  0  0  0  0  0  0  0  0  0  0
  -22.1487   -9.6507   18.8023 F   0  0  0  0  0  0  0  0  0  0  0  0
  1  2  1  0  0  0  0
  1  5  2  0  0  0  0
  2  6  2  0  0  0  0
  3  8  2  0  0  0  0
  3 15  1  0  0  0  0
  4  9  1  0  0  0  0
  4 15  2  0  0  0  0
  5 17  1  0  0  0  0
  6 19  1  0  0  0  0
  7 10  2  0  0  0  0
  7 18  1  0  0  0  0
  8 21  1  0  0  0  0
  9 21  2  0  0  0  0
 10 22  1  0  0  0  0
 11 12  2  0  0  0  0
 11 23  1  0  0  0  0
 12 24  1  0  0  0  0
 13 20  1  0  0  0  0
 13 22  2  0  0  0  0
 14 24  2  0  0  0  0
 14 25  1  0  0  0  0
 15 26  1  0  0  0  0
 16 26  1  0  0  0  0
 16 27  2  0  0  0  0
 16 30  1  0  0  0  0
 17 19  2  0  0  0  0
 17 35  1  0  0  0  0
 18 20  2  0  0  0  0
 18 36  1  0  0  0  0
 19 44  1  0  0  0  0
 20 37  1  0  0  0  0
 21 84  1  0  0  0  0
 22 85  1  0  0  0  0
 23 25  2  0  0  0  0
 23 84  1  0  0  0  0
 24 86  1  0  0  0  0
 25 87  1  0  0  0  0
 26 64  2  0  0  0  0
 27 67  1  0  0  0  0
 27 71  1  0  0  0  0
 28 65  1  0  0  0  0
 28 66  2  0  0  0  0
 28 73  1  0  0  0  0
 29 65  2  0  0  0  0
 29 68  1  0  0  0  0
 29 74  1  0  0  0  0
 30 72  1  0  0  0  0
 30 78  2  0  0  0  0
 31 45  1  0  0  0  0
 31 75  1  0  0  0  0
 31 79  2  0  0  0  0
 32 58  1  0  0  0  0
 32 69  1  0  0  0  0
 32 80  2  0  0  0  0
 33 59  1  0  0  0  0
 33 76  1  0  0  0  0
 33 81  2  0  0  0  0
 34 70  1  0  0  0  0
 34 73  1  0  0  0  0
 34 82  2  0  0  0  0
 35 38  1  0  0  0  0
 36 45  1  0  0  0  0
 37 69  1  0  0  0  0
 38 40  1  0  0  0  0
 39 41  1  0  0  0  0
 39 42  1  0  0  0  0
 40 44  1  0  0  0  0
 41 46  1  0  0  0  0
 42 70  1  0  0  0  0
 43 46  1  0  0  0  0
 43 70  1  0  0  0  0
 44 75  1  0  0  0  0
 45 69  1  0  0  0  0
 46 67  1  0  0  0  0
 47 55  1  0  0  0  0
 48 59  1  0  0  0  0
 49 60  1  0  0  0  0
 50 63  1  0  0  0  0
 51 63  1  0  0  0  0
 52 63  1  0  0  0  0
 53 68  1  0  0  0  0
 54 77  1  0  0  0  0
 55 60  1  0  0  0  0
 56 61  1  0  0  0  0
 56 62  1  0  0  0  0
 57 62  1  0  0  0  0
 57 85  1  0  0  0  0
 58 63  1  0  0  0  0
 58 76  1  0  0  0  0
 59 77  1  0  0  0  0
 60 61  1  0  0  0  0
 61 74  1  0  0  0  0
 62 83  1  0  0  0  0
 64 67  1  0  0  0  0
 66 68  1  0  0  0  0
M  CHG  1  77   1
M  ISO  4  34 100  57 101  73 100  85 101
M  END
> <Batch ID>
0199

> <Smiles>
CCC(C)C(CC(O)[101CH2:1][101O:1]c1ccc2c(c1)CN(C(=O)C(NC(=O)C(C)NC)C(C)(C)C)C(C(=O)NC1CCCc3ccccc31)C2)Nc1nc([100NH:0][100C:0](=O)N2CCCC(n3nc(-c4ccc(Oc5ccc(F)cc5F)cc4)c(C(N)=O)c3N)C2)nn1C

> <Shape>
0.251

> <Color>
0.085

> <Negative vol penalty>
0.000

$$$$

  -OEChem-04052305473D

 83 91  0     1  0  0  0  0  0999 V2000
  -19.6758  -25.9709   26.1273 C   0  0  0  0  0  0  0  0  0  0  0  0
  -20.9181  -25.7559   25.5392 C   0  0  0  0  0  0  0  0  0  0  0  0
  -23.0232  -10.6500   23.1051 C   0  0  0  0  0  0  0  0  0  0  0  0
  -23.6169  -12.3334   24.7332 C   0  0  0  0  0  0  0  0  0  0  0  0
  -18.6902  -26.6731   25.4349 C   0  0  0  0  0  0  0  0  0  0  0  0
  -21.1752  -26.2420   24.2578 C   0  0  0  0  0  0  0  0  0  0  0  0
  -26.5079  -28.3722   22.1295 C   0  0  0  0  0  0  0  0  0  0  0  0
  -22.2634   -9.9863   24.0684 C   0  0  0  0  0  0  0  0  0  0  0  0
  -22.8571  -11.6697   25.6965 C   0  0  0  0  0  0  0  0  0  0  0  0
  -27.5126  -27.7859   21.3610 C   0  0  0  0  0  0  0  0  0  0  0  0
  -19.5941  -11.3783   26.5263 C   0  0  0  0  0  0  0  0  0  0  0  0
  -18.7552  -12.1486   27.3316 C   0  0  0  0  0  0  0  0  0  0  0  0
  -26.5431  -28.7462   19.3718 C   0  0  0  0  0  0  0  0  0  0  0  0
  -19.9408  -11.3878   29.2944 C   0  0  0  0  0  0  0  0  0  0  0  0
  -31.5705  -18.9273   18.7988 C   0  0  0  0  0  0  0  0  0  0  0  0
  -23.7000  -11.8235   23.4376 C   0  0  0  0  0  0  0  0  0  0  0  0
  -24.0495  -13.5161   21.5613 C   0  0  0  0  0  0  0  0  0  0  0  0
  -18.9385  -27.1764   24.1482 C   0  0  0  0  0  0  0  0  0  0  0  0
  -25.5054  -29.1423   21.5226 C   0  0  0  0  0  0  0  0  0  0  0  0
  -20.1915  -26.9504   23.5470 C   0  0  0  0  0  0  0  0  0  0  0  0
  -25.5283  -29.3434   20.1351 C   0  0  0  0  0  0  0  0  0  0  0  0
  -22.1803  -10.4962   25.3640 C   0  0  0  0  0  0  0  0  0  0  0  0
  -27.5287  -27.9705   19.9816 C   0  0  0  0  0  0  0  0  0  0  0  0
  -20.6063  -10.6126   27.1050 C   0  0  0  0  0  0  0  0  0  0  0  0
  -18.9286  -12.1534   28.7156 C   0  0  0  0  0  0  0  0  0  0  0  0
  -20.7796  -10.6174   28.4891 C   0  0  0  0  0  0  0  0  0  0  0  0
  -24.4856  -12.5092   22.4432 C   0  0  0  0  0  0  0  0  0  0  0  0
  -25.1648  -13.8352   20.8260 C   0  0  0  0  0  0  0  0  0  0  0  0
  -30.4182  -19.6585   18.9983 C   0  0  0  0  0  0  0  0  0  0  0  0
  -30.3606  -17.3775   19.7704 C   0  0  0  0  0  0  0  0  0  0  0  0
  -22.7522  -14.1101   21.4196 C   0  0  0  0  0  0  0  0  0  0  0  0
  -22.3440  -28.9190   21.2789 C   0  0  0  0  0  0  0  0  0  0  0  0
  -22.6360  -31.8334   19.8849 C   0  0  0  0  0  0  0  0  0  0  0  0
  -24.6048  -34.0560   18.2023 C   0  0  0  0  0  0  0  0  0  0  0  0
  -30.6044  -14.9700   20.4710 C   0  0  0  0  0  0  0  0  0  0  0  0
  -17.8261  -27.8885   23.4201 C   0  0  0  0  0  0  0  0  0  0  0  0
  -24.4438  -29.7901   22.3687 C   0  0  0  0  0  0  0  0  0  0  0  0
  -24.4866  -30.1779   19.4374 C   0  0  0  0  0  0  0  0  0  0  0  0
  -18.3049  -28.6948   22.2155 C   0  0  0  0  0  0  0  0  0  0  0  0
  -29.6626  -11.5364   20.4980 C   0  0  0  0  0  0  0  0  0  0  0  0
  -19.2667  -27.8681   21.3679 C   0  0  0  0  0  0  0  0  0  0  0  0
  -28.1959  -11.5662   20.9339 C   0  0  0  0  0  0  0  0  0  0  0  0
  -30.4893  -12.6020   21.2156 C   0  0  0  0  0  0  0  0  0  0  0  0
  -28.4883  -13.9967   21.5620 C   0  0  0  0  0  0  0  0  0  0  0  0
  -20.5167  -27.4836   22.1686 C   0  0  1  0  0  0  0  0  0  0  0  0
  -23.1797  -30.1296   21.5851 C   0  0  1  0  0  0  0  0  0  0  0  0
  -27.6023  -12.9839   20.8183 C   0  0  2  0  0  0  0  0  0  0  0  0
  -24.5536  -36.3400   17.1640 C   0  0  0  0  0  0  0  0  0  0  0  0
  -21.0678  -30.7191   17.5166 C   0  0  0  0  0  0  0  0  0  0  0  0
  -21.8590  -32.6713   16.1635 C   0  0  0  0  0  0  0  0  0  0  0  0
  -20.4404  -33.0471   18.1806 C   0  0  0  0  0  0  0  0  0  0  0  0
  -26.7254  -35.0524   20.0103 C   0  0  0  0  0  0  0  0  0  0  0  0
  -30.5547  -23.1957   17.6867 C   0  0  0  0  0  0  0  0  0  0  0  0
  -29.5276  -25.3482   18.5088 C   0  0  0  0  0  0  0  0  0  0  0  0
  -31.1540  -21.8253   18.0036 C   0  0  0  0  0  0  0  0  0  0  0  0
  -29.0590  -26.1713   19.7043 C   0  0  0  0  0  0  0  0  0  1  0  0
  -22.8462  -32.3274   18.4739 C   0  0  1  0  0  0  0  0  0  0  0  0
  -24.8634  -35.5363   18.4174 C   0  0  2  0  0  0  0  0  0  0  0  0
  -30.1189  -23.9969   18.9233 C   0  0  2  0  0  0  0  0  0  0  0  0
  -21.5720  -32.1738   17.5963 C   0  0  0  0  0  0  0  0  0  0  0  0
  -31.5395  -17.6193   19.2413 N   0  0  0  0  0  0  0  0  0  0  0  0
  -25.7771  -12.2083   22.2840 N   0  0  0  0  0  0  0  0  0  0  0  0
  -26.1622  -13.0310   21.2936 N   0  0  0  0  0  0  0  0  0  0  0  0
  -23.4658  -30.7852   20.3074 N   0  0  0  0  0  0  0  0  0  0  0  0
  -29.8689  -13.9194   21.0592 N   0  0  0  0  0  0  0  0  0  0  0  0
  -25.3799  -14.7223   19.8314 N   0  0  0  0  0  0  0  0  0  0  0  0
  -21.7188  -13.6652   22.2553 N   0  0  0  0  0  0  0  0  0  0  0  0
  -30.1817  -20.9801   18.6534 N   0  0  0  0  0  0  0  0  0  0  0  0
  -29.9001  -16.1669   20.3450 N   0  0  0  0  0  0  0  0  0  0  0  0
  -21.4232  -28.6079   22.2612 N   0  0  0  0  0  0  0  0  0  0  0  0
  -23.3305  -33.6987   18.5894 N   0  0  0  0  0  0  0  0  0  0  0  0
  -26.2902  -35.7653   18.7817 N   0  3  0  0  0  0  0  0  0  0  0  0
  -22.5124  -14.9971   20.5656 O   0  0  0  0  0  0  0  0  0  0  0  0
  -22.5203  -28.3130   20.2285 O   0  0  0  0  0  0  0  0  0  0  0  0
  -21.7724  -32.3630   20.5887 O   0  0  0  0  0  0  0  0  0  0  0  0
  -25.4474  -33.2937   17.7341 O   0  0  0  0  0  0  0  0  0  0  0  0
  -31.7641  -14.8113   20.0812 O   0  0  0  0  0  0  0  0  0  0  0  0
  -31.2423  -24.2360   19.7668 O   0  0  0  0  0  0  0  0  0  0  0  0
  -21.4388   -9.8490   26.3041 O   0  0  0  0  0  0  0  0  0  0  0  0
  -28.5078  -27.3988   19.2291 O   0  0  0  0  0  0  0  0  0  1  0  0
  -18.1239  -12.8944   29.4886 F   0  0  0  0  0  0  0  0  0  0  0  0
  -21.7511   -9.8848   29.0508 F   0  0  0  0  0  0  0  0  0  0  0  0
  -29.2408  -18.6778   19.7687 S   0  0  0  0  0  0  0  0  0  0  0  0
  1  2  1  0  0  0  0
  1  5  2  0  0  0  0
  2  6  2  0  0  0  0
  3  8  2  0  0  0  0
  3 16  1  0  0  0  0
  4  9  1  0  0  0  0
  4 16  2  0  0  0  0
  5 18  1  0  0  0  0
  6 20  1  0  0  0  0
  7 10  2  0  0  0  0
  7 19  1  0  0  0  0
  8 22  1  0  0  0  0
  9 22  2  0  0  0  0
 10 23  1  0  0  0  0
 11 12  2  0  0  0  0
 11 24  1  0  0  0  0
 12 25  1  0  0  0  0
 13 21  1  0  0  0  0
 13 23  2  0  0  0  0
 14 25  2  0  0  0  0
 14 26  1  0  0  0  0
 15 29  2  0  0  0  0
 15 61  1  0  0  0  0
 16 27  1  0  0  0  0
 17 27  1  0  0  0  0
 17 28  2  0  0  0  0
 17 31  1  0  0  0  0
 18 20  2  0  0  0  0
 18 36  1  0  0  0  0
 19 21  2  0  0  0  0
 19 37  1  0  0  0  0
 20 45  1  0  0  0  0
 21 38  1  0  0  0  0
 22 79  1  0  0  0  0
 23 80  1  0  0  0  0
 24 26  2  0  0  0  0
 24 79  1  0  0  0  0
 25 81  1  0  0  0  0
 26 82  1  0  0  0  0
 27 62  2  0  0  0  0
 28 63  1  0  0  0  0
 28 66  1  0  0  0  0
 29 68  1  0  0  0  0
 29 83  1  0  0  0  0
 30 61  2  0  0  0  0
 30 69  1  0  0  0  0
 30 83  1  0  0  0  0
 31 67  1  0  0  0  0
 31 73  2  0  0  0  0
 32 46  1  0  0  0  0
 32 70  1  0  0  0  0
 32 74  2  0  0  0  0
 33 57  1  0  0  0  0
 33 64  1  0  0  0  0
 33 75  2  0  0  0  0
 34 58  1  0  0  0  0
 34 71  1  0  0  0  0
 34 76  2  0  0  0  0
 35 65  1  0  0  0  0
 35 69  1  0  0  0  0
 35 77  2  0  0  0  0
 36 39  1  0  0  0  0
 37 46  1  0  0  0  0
 38 64  1  0  0  0  0
 39 41  1  0  0  0  0
 40 42  1  0  0  0  0
 40 43  1  0  0  0  0
 41 45  1  0  0  0  0
 42 47  1  0  0  0  0
 43 65  1  0  0  0  0
 44 47  1  0  0  0  0
 44 65  1  0  0  0  0
 45 70  1  0  0  0  0
 46 64  1  0  0  0  0
 47 63  1  0  0  0  0
 48 58  1  0  0  0  0
 49 60  1  0  0  0  0
 50 60  1  0  0  0  0
 51 60  1  0  0  0  0
 52 72  1  0  0  0  0
 53 55  1  0  0  0  0
 53 59  1  0  0  0  0
 54 56  1  0  0  0  0
 54 59  1  0  0  0  0
 55 68  1  0  0  0  0
 56 80  1  0  0  0  0
 57 60  1  0  0  0  0
 57 71  1  0  0  0  0
 58 72  1  0  0  0  0
 59 78  1  0  0  0  0
 62 63  1  0  0  0  0
M  CHG  1  72   1
M  ISO  4  35 100  56 101  69 100  80 101
M  END
> <Batch ID>
0199

> <Smiles>
CNC(C)C(=O)NC(C(=O)N1Cc2cc([101O:1][101CH2:1]CC(O)CCNc3cnc([100NH:0][100C:0](=O)N4CCCC(n5nc(-c6ccc(Oc7ccc(F)cc7F)cc6)c(C(N)=O)c5N)C4)s3)ccc2CC1C(=O)NC1CCCc2ccccc21)C(C)(C)C

> <Shape>
0.235

> <Color>
0.146

> <Negative vol penalty>
0.000

$$$$

  -OEChem-04052305473D

 81 89  0     1  0  0  0  0  0999 V2000
  -28.2308  -30.8546   27.7764 C   0  0  0  0  0  0  0  0  0  0  0  0
  -28.1655  -29.9235   26.7448 C   0  0  0  0  0  0  0  0  0  0  0  0
  -24.7177   -8.5069   21.3849 C   0  0  0  0  0  0  0  0  0  0  0  0
  -23.1715  -10.3628   21.3431 C   0  0  0  0  0  0  0  0  0  0  0  0
  -27.0936  -31.5774   28.1346 C   0  0  0  0  0  0  0  0  0  0  0  0
  -26.9625  -29.7139   26.0715 C   0  0  0  0  0  0  0  0  0  0  0  0
  -27.5618  -29.4853   21.0482 C   0  0  0  0  0  0  0  0  0  0  0  0
  -23.9432   -7.8837   22.3633 C   0  0  0  0  0  0  0  0  0  0  0  0
  -22.3969   -9.7395   22.3214 C   0  0  0  0  0  0  0  0  0  0  0  0
  -28.0570  -28.2940   20.5196 C   0  0  0  0  0  0  0  0  0  0  0  0
  -21.0825   -6.0867   22.5052 C   0  0  0  0  0  0  0  0  0  0  0  0
  -20.8159   -4.7262   22.3517 C   0  0  0  0  0  0  0  0  0  0  0  0
  -25.8163  -27.6400   19.9106 C   0  0  0  0  0  0  0  0  0  0  0  0
  -27.8972  -18.9160   19.8780 C   0  0  0  0  0  0  0  0  0  0  0  0
  -21.9110   -4.2740   24.4573 C   0  0  0  0  0  0  0  0  0  0  0  0
  -25.7463  -19.7917   19.7818 C   0  0  0  0  0  0  0  0  0  0  0  0
  -24.3319   -9.7465   20.8748 C   0  0  0  0  0  0  0  0  0  0  0  0
  -25.0083  -10.2569   18.4686 C   0  0  0  0  0  0  0  0  0  0  0  0
  -25.8785  -31.3834   27.4589 C   0  0  0  0  0  0  0  0  0  0  0  0
  -26.1866  -29.7585   21.0217 C   0  0  0  0  0  0  0  0  0  0  0  0
  -25.8076  -30.4337   26.4219 C   0  0  0  0  0  0  0  0  0  0  0  0
  -25.3065  -28.8366   20.4372 C   0  0  0  0  0  0  0  0  0  0  0  0
  -27.0914  -20.0882   19.7946 C   0  0  0  0  0  0  0  0  0  0  0  0
  -22.7828   -8.4999   22.8316 C   0  0  0  0  0  0  0  0  0  0  0  0
  -27.1839  -27.3699   19.9533 C   0  0  0  0  0  0  0  0  0  0  0  0
  -21.7634   -6.5409   23.6348 C   0  0  0  0  0  0  0  0  0  0  0  0
  -21.2301   -3.8198   23.3277 C   0  0  0  0  0  0  0  0  0  0  0  0
  -22.1776   -5.6345   24.6108 C   0  0  0  0  0  0  0  0  0  0  0  0
  -25.1318  -10.3911   19.8645 C   0  0  0  0  0  0  0  0  0  0  0  0
  -25.9928  -11.0667   17.9573 C   0  0  0  0  0  0  0  0  0  0  0  0
  -27.1370  -17.7681   19.9260 C   0  0  0  0  0  0  0  0  0  0  0  0
  -24.0860   -9.4706   17.7027 C   0  0  0  0  0  0  0  0  0  0  0  0
  -23.9543  -30.2496   23.2306 C   0  0  0  0  0  0  0  0  0  0  0  0
  -22.1014  -30.9125   20.6520 C   0  0  0  0  0  0  0  0  0  0  0  0
  -21.5333  -30.5069   17.3114 C   0  0  0  0  0  0  0  0  0  0  0  0
  -28.8136  -15.8932   20.0676 C   0  0  0  0  0  0  0  0  0  0  0  0
  -24.6643  -32.1541   27.9132 C   0  0  0  0  0  0  0  0  0  0  0  0
  -25.6714  -31.0600   21.5721 C   0  0  0  0  0  0  0  0  0  0  0  0
  -23.8238  -29.0913   20.3657 C   0  0  0  0  0  0  0  0  0  0  0  0
  -23.5216  -32.1422   26.9011 C   0  0  0  0  0  0  0  0  0  0  0  0
  -30.3130  -12.8379   19.0217 C   0  0  0  0  0  0  0  0  0  0  0  0
  -23.2864  -30.7288   26.3781 C   0  0  0  0  0  0  0  0  0  0  0  0
  -29.1422  -11.8530   18.9862 C   0  0  0  0  0  0  0  0  0  0  0  0
  -30.1880  -13.8260   20.1800 C   0  0  0  0  0  0  0  0  0  0  0  0
  -27.7390  -13.5608   20.2115 C   0  0  0  0  0  0  0  0  0  0  0  0
  -24.5271  -30.1959   25.6514 C   0  0  1  0  0  0  0  0  0  0  0  0
  -24.1955  -31.0047   21.9542 C   0  0  1  0  0  0  0  0  0  0  0  0
  -27.7872  -12.5867   19.0230 C   0  0  2  0  0  0  0  0  0  0  0  0
  -19.9193  -31.1387   15.4967 C   0  0  0  0  0  0  0  0  0  0  0  0
  -20.1087  -28.8599   21.7129 C   0  0  0  0  0  0  0  0  0  0  0  0
  -19.0342  -28.8374   19.4517 C   0  0  0  0  0  0  0  0  0  0  0  0
  -19.0719  -30.9410   20.7919 C   0  0  0  0  0  0  0  0  0  0  0  0
  -23.6308  -31.9263   15.7802 C   0  0  0  0  0  0  0  0  0  0  0  0
  -26.7718  -22.5585   19.6490 C   0  0  0  0  0  0  0  0  0  0  0  0
  -26.8010  -25.0707   19.4808 C   0  0  0  0  0  0  0  0  0  1  0  0
  -21.2123  -30.1042   19.7382 C   0  0  1  0  0  0  0  0  0  0  0  0
  -21.2075  -31.5065   16.2164 C   0  0  2  0  0  0  0  0  0  0  0  0
  -27.6489  -23.8064   19.5694 C   0  0  1  0  0  0  0  0  0  0  0  0
  -19.8844  -29.6796   20.4266 C   0  0  0  0  0  0  0  0  0  0  0  0
  -26.1173  -11.2208   20.2175 N   0  0  0  0  0  0  0  0  0  0  0  0
  -26.6219  -11.6151   19.0361 N   0  0  0  0  0  0  0  0  0  0  0  0
  -23.3679  -30.3755   20.9230 N   0  0  0  0  0  0  0  0  0  0  0  0
  -28.8811  -14.4862   20.1481 N   0  0  0  0  0  0  0  0  0  0  0  0
  -26.3731  -11.3560   16.6948 N   0  0  0  0  0  0  0  0  0  0  0  0
  -23.1392   -8.6962   18.3870 N   0  0  0  0  0  0  0  0  0  0  0  0
  -27.5983  -21.3753   19.7335 N   0  0  0  0  0  0  0  0  0  0  0  0
  -27.5181  -16.4060   20.0107 N   0  0  0  0  0  0  0  0  0  0  0  0
  -24.6204  -30.7674   24.3250 N   0  0  0  0  0  0  0  0  0  0  0  0
  -21.0307  -30.9048   18.5322 N   0  0  0  0  0  0  0  0  0  0  0  0
  -22.3090  -31.5536   15.2136 N   0  3  0  0  0  0  0  0  0  0  0  0
  -24.1116   -9.4424   16.4488 O   0  0  0  0  0  0  0  0  0  0  0  0
  -23.2173  -29.2706   23.2235 O   0  0  0  0  0  0  0  0  0  0  0  0
  -21.6901  -31.9846   21.1028 O   0  0  0  0  0  0  0  0  0  0  0  0
  -22.1667  -29.4743   17.1038 O   0  0  0  0  0  0  0  0  0  0  0  0
  -29.8306  -16.5902   20.0230 O   0  0  0  0  0  0  0  0  0  0  0  0
  -28.4417  -23.8968   20.7550 O   0  0  0  0  0  0  0  0  0  0  0  0
  -22.0266   -7.8920   23.7861 O   0  0  0  0  0  0  0  0  0  0  0  0
  -27.6644  -26.2060   19.4372 O   0  0  0  0  0  0  0  0  0  1  0  0
  -20.9727   -2.5136   23.1809 F   0  0  0  0  0  0  0  0  0  0  0  0
  -22.8311   -6.0650   25.6987 F   0  0  0  0  0  0  0  0  0  0  0  0
  -25.4592  -18.1058   19.8702 S   0  0  0  0  0  0  0  0  0  0  0  0
  1  2  1  0  0  0  0
  1  5  2  0  0  0  0
  2  6  2  0  0  0  0
  3  8  2  0  0  0  0
  3 17  1  0  0  0  0
  4  9  1  0  0  0  0
  4 17  2  0  0  0  0
  5 19  1  0  0  0  0
  6 21  1  0  0  0  0
  7 10  2  0  0  0  0
  7 20  1  0  0  0  0
  8 24  1  0  0  0  0
  9 24  2  0  0  0  0
 10 25  1  0  0  0  0
 11 12  2  0  0  0  0
 11 26  1  0  0  0  0
 12 27  1  0  0  0  0
 13 22  1  0  0  0  0
 13 25  2  0  0  0  0
 14 23  1  0  0  0  0
 14 31  2  0  0  0  0
 15 27  2  0  0  0  0
 15 28  1  0  0  0  0
 16 23  2  0  0  0  0
 16 81  1  0  0  0  0
 17 29  1  0  0  0  0
 18 29  1  0  0  0  0
 18 30  2  0  0  0  0
 18 32  1  0  0  0  0
 19 21  2  0  0  0  0
 19 37  1  0  0  0  0
 20 22  2  0  0  0  0
 20 38  1  0  0  0  0
 21 46  1  0  0  0  0
 22 39  1  0  0  0  0
 23 66  1  0  0  0  0
 24 77  1  0  0  0  0
 25 78  1  0  0  0  0
 26 28  2  0  0  0  0
 26 77  1  0  0  0  0
 27 79  1  0  0  0  0
 28 80  1  0  0  0  0
 29 60  2  0  0  0  0
 30 61  1  0  0  0  0
 30 64  1  0  0  0  0
 31 67  1  0  0  0  0
 31 81  1  0  0  0  0
 32 65  1  0  0  0  0
 32 71  2  0  0  0  0
 33 47  1  0  0  0  0
 33 68  1  0  0  0  0
 33 72  2  0  0  0  0
 34 56  1  0  0  0  0
 34 62  1  0  0  0  0
 34 73  2  0  0  0  0
 35 57  1  0  0  0  0
 35 69  1  0  0  0  0
 35 74  2  0  0  0  0
 36 63  1  0  0  0  0
 36 67  1  0  0  0  0
 36 75  2  0  0  0  0
 37 40  1  0  0  0  0
 38 47  1  0  0  0  0
 39 62  1  0  0  0  0
 40 42  1  0  0  0  0
 41 43  1  0  0  0  0
 41 44  1  0  0  0  0
 42 46  1  0  0  0  0
 43 48  1  0  0  0  0
 44 63  1  0  0  0  0
 45 48  1  0  0  0  0
 45 63  1  0  0  0  0
 46 68  1  0  0  0  0
 47 62  1  0  0  0  0
 48 61  1  0  0  0  0
 49 57  1  0  0  0  0
 50 59  1  0  0  0  0
 51 59  1  0  0  0  0
 52 59  1  0  0  0  0
 53 70  1  0  0  0  0
 54 58  1  0  0  0  0
 54 66  1  0  0  0  0
 55 58  1  0  0  0  0
 55 78  1  0  0  0  0
 56 59  1  0  0  0  0
 56 69  1  0  0  0  0
 57 70  1  0  0  0  0
 58 76  1  0  0  0  0
 60 61  1  0  0  0  0
M  CHG  1  70   1
M  ISO  4  36 100  55 101  67 100  78 101
M  END
> <Batch ID>
0199

> <Smiles>
CNC(C)C(=O)NC(C(=O)N1Cc2cc([101O:1][101CH2:1]C(O)CNc3csc([100NH:0][100C:0](=O)N4CCCC(n5nc(-c6ccc(Oc7ccc(F)cc7F)cc6)c(C(N)=O)c5N)C4)c3)ccc2CC1C(=O)NC1CCCc2ccccc21)C(C)(C)C

> <Shape>
0.275

> <Color>
0.115

> <Negative vol penalty>
0.000

$$$$

  -OEChem-04052305473D

 86 94  0     1  0  0  0  0  0999 V2000
  -20.1843  -32.6465   15.8026 C   0  0  0  0  0  0  0  0  0  0  0  0
  -21.0096  -31.5283   15.8638 C   0  0  0  0  0  0  0  0  0  0  0  0
  -23.1796   -9.7975   20.6854 C   0  0  0  0  0  0  0  0  0  0  0  0
  -23.8822  -10.3668   22.9258 C   0  0  0  0  0  0  0  0  0  0  0  0
  -20.4491  -33.7521   16.6098 C   0  0  0  0  0  0  0  0  0  0  0  0
  -22.1011  -31.5155   16.7315 C   0  0  0  0  0  0  0  0  0  0  0  0
  -24.3266  -26.6906   19.7768 C   0  0  0  0  0  0  0  0  0  0  0  0
  -22.4814   -8.6976   21.1838 C   0  0  0  0  0  0  0  0  0  0  0  0
  -23.1840   -9.2669   23.4243 C   0  0  0  0  0  0  0  0  0  0  0  0
  -25.3961  -25.8330   19.5228 C   0  0  0  0  0  0  0  0  0  0  0  0
  -23.1924   -5.5660   22.2382 C   0  0  0  0  0  0  0  0  0  0  0  0
  -23.3276   -4.3532   21.5627 C   0  0  0  0  0  0  0  0  0  0  0  0
  -26.7972  -27.1618   20.9686 C   0  0  0  0  0  0  0  0  0  0  0  0
  -20.9474   -4.3179   21.1498 C   0  0  0  0  0  0  0  0  0  0  0  0
  -23.8800  -10.6321   21.5564 C   0  0  0  0  0  0  0  0  0  0  0  0
  -24.1128  -13.0761   20.8633 C   0  0  0  0  0  0  0  0  0  0  0  0
  -21.5388  -33.7490   17.4948 C   0  0  0  0  0  0  0  0  0  0  0  0
  -24.4876  -27.7983   20.6214 C   0  0  0  0  0  0  0  0  0  0  0  0
  -22.3816  -32.6225   17.5503 C   0  0  0  0  0  0  0  0  0  0  0  0
  -25.7275  -28.0305   21.2337 C   0  0  0  0  0  0  0  0  0  0  0  0
  -22.4836   -8.4323   22.5532 C   0  0  0  0  0  0  0  0  0  0  0  0
  -26.6324  -26.0702   20.1164 C   0  0  0  0  0  0  0  0  0  0  0  0
  -21.9347   -6.1547   22.3697 C   0  0  0  0  0  0  0  0  0  0  0  0
  -22.2051   -3.7291   21.0184 C   0  0  0  0  0  0  0  0  0  0  0  0
  -20.8122   -5.5307   21.8254 C   0  0  0  0  0  0  0  0  0  0  0  0
  -24.6018  -11.7681   21.0421 C   0  0  0  0  0  0  0  0  0  0  0  0
  -25.1793  -13.7745   20.3523 C   0  0  0  0  0  0  0  0  0  0  0  0
  -30.3070  -17.4961   21.0699 C   0  0  0  0  0  0  0  0  0  0  0  0
  -30.3922  -19.7962   21.5886 C   0  0  0  0  0  0  0  0  0  0  0  0
  -22.8109  -13.6118   21.1350 C   0  0  0  0  0  0  0  0  0  0  0  0
  -24.2547  -30.9477   20.2595 C   0  0  0  0  0  0  0  0  0  0  0  0
  -24.7043  -30.9582   23.4720 C   0  0  0  0  0  0  0  0  0  0  0  0
  -25.9198  -29.3618   26.2325 C   0  0  0  0  0  0  0  0  0  0  0  0
  -30.5882  -15.0965   20.3563 C   0  0  0  0  0  0  0  0  0  0  0  0
  -21.8128  -34.9859   18.3132 C   0  0  0  0  0  0  0  0  0  0  0  0
  -23.3169  -28.6987   20.9063 C   0  0  0  0  0  0  0  0  0  0  0  0
  -25.9468  -29.1942   22.1643 C   0  0  0  0  0  0  0  0  0  0  0  0
  -22.7703  -34.7460   19.4777 C   0  0  0  0  0  0  0  0  0  0  0  0
  -29.6395  -12.1531   18.5918 C   0  0  0  0  0  0  0  0  0  0  0  0
  -23.9811  -33.9412   19.0161 C   0  0  0  0  0  0  0  0  0  0  0  0
  -28.2041  -11.8981   19.0572 C   0  0  0  0  0  0  0  0  0  0  0  0
  -30.5141  -12.6953   19.7209 C   0  0  0  0  0  0  0  0  0  0  0  0
  -28.5438  -13.6235   20.8724 C   0  0  0  0  0  0  0  0  0  0  0  0
  -23.5608  -32.5609   18.4969 C   0  0  1  0  0  0  0  0  0  0  0  0
  -23.7329  -30.0890   21.3767 C   0  0  1  0  0  0  0  0  0  0  0  0
  -27.6086  -13.1379   19.7529 C   0  0  2  0  0  0  0  0  0  0  0  0
  -26.1745  -29.6355   28.7140 C   0  0  0  0  0  0  0  0  0  0  0  0
  -34.0237  -23.0121   21.5433 C   0  0  0  0  0  0  0  0  0  0  0  0
  -34.2742  -23.0552   24.0321 C   0  0  0  0  0  0  0  0  0  0  0  0
  -27.0031  -32.9126   23.0179 C   0  0  0  0  0  0  0  0  0  0  0  0
  -27.7966  -32.4101   25.3387 C   0  0  0  0  0  0  0  0  0  0  0  0
  -25.5545  -33.4450   24.9858 C   0  0  0  0  0  0  0  0  0  0  0  0
  -24.2746  -26.9640   26.7829 C   0  0  0  0  0  0  0  0  0  0  0  0
  -32.1628  -22.0930   22.9615 C   0  0  0  0  0  0  0  0  0  0  0  0
  -30.3480  -23.5203   21.9321 C   0  0  0  0  0  0  0  0  0  0  0  0
  -28.6478  -25.0856   20.9069 C   0  0  0  0  0  0  0  0  0  1  0  0
  -25.9068  -31.0151   24.3830 C   0  0  1  0  0  0  0  0  0  0  0  0
  -25.3029  -29.0912   27.5929 C   0  0  2  0  0  0  0  0  0  0  0  0
  -33.2800  -23.1549   22.8745 C   0  0  0  0  0  0  0  0  0  0  0  0
  -31.0962  -22.1753   21.8537 C   0  0  2  0  0  0  0  0  0  0  0  0
  -29.3055  -23.7099   20.8199 C   0  0  1  0  0  0  0  0  0  0  0  0
  -26.5620  -32.4248   24.4123 C   0  0  0  0  0  0  0  0  0  0  0  0
  -25.8795  -11.6406   20.6744 N   0  0  0  0  0  0  0  0  0  0  0  0
  -31.4454  -18.0390   20.6941 N   0  0  0  0  0  0  0  0  0  0  0  0
  -31.4958  -19.3879   20.9992 N   0  0  0  0  0  0  0  0  0  0  0  0
  -26.2024  -12.8773   20.2593 N   0  0  0  0  0  0  0  0  0  0  0  0
  -24.7732  -30.0495   22.4064 N   0  0  0  0  0  0  0  0  0  0  0  0
  -29.8889  -13.8713   20.3299 N   0  0  0  0  0  0  0  0  0  0  0  0
  -25.3325  -15.0624   19.9777 N   0  0  0  0  0  0  0  0  0  0  0  0
  -21.8322  -12.7561   21.6586 N   0  0  0  0  0  0  0  0  0  0  0  0
  -29.8808  -16.1519   20.9310 N   0  0  0  0  0  0  0  0  0  0  0  0
  -30.1485  -21.0905   22.0103 N   0  0  0  0  0  0  0  0  0  0  0  0
  -23.2775  -31.6701   19.6017 N   0  0  0  0  0  0  0  0  0  0  0  0
  -25.4546  -30.5390   25.6858 N   0  0  0  0  0  0  0  0  0  0  0  0
  -25.1303  -27.6257   27.8012 N   0  3  0  0  0  0  0  0  0  0  0  0
  -22.5192  -14.8099   20.9044 O   0  0  0  0  0  0  0  0  0  0  0  0
  -25.4551  -30.9554   20.0135 O   0  0  0  0  0  0  0  0  0  0  0  0
  -23.7366  -31.6879   23.7016 O   0  0  0  0  0  0  0  0  0  0  0  0
  -26.7357  -28.6063   25.7090 O   0  0  0  0  0  0  0  0  0  0  0  0
  -31.7198  -15.2082   19.8778 O   0  0  0  0  0  0  0  0  0  0  0  0
  -29.9334  -23.5826   19.5442 O   0  0  0  0  0  0  0  0  0  0  0  0
  -21.8023   -7.3592   23.0400 O   0  0  0  0  0  0  0  0  0  0  0  0
  -27.6848  -25.2297   19.8681 O   0  0  0  0  0  0  0  0  0  1  0  0
  -22.3352   -2.5652   20.3684 F   0  0  0  0  0  0  0  0  0  0  0  0
  -19.6016   -6.0921   21.9475 F   0  0  0  0  0  0  0  0  0  0  0  0
  -29.2076  -18.5779   21.8201 S   0  0  0  0  0  0  0  0  0  0  0  0
  1  2  1  0  0  0  0
  1  5  2  0  0  0  0
  2  6  2  0  0  0  0
  3  8  2  0  0  0  0
  3 15  1  0  0  0  0
  4  9  1  0  0  0  0
  4 15  2  0  0  0  0
  5 17  1  0  0  0  0
  6 19  1  0  0  0  0
  7 10  2  0  0  0  0
  7 18  1  0  0  0  0
  8 21  1  0  0  0  0
  9 21  2  0  0  0  0
 10 22  1  0  0  0  0
 11 12  2  0  0  0  0
 11 23  1  0  0  0  0
 12 24  1  0  0  0  0
 13 20  1  0  0  0  0
 13 22  2  0  0  0  0
 14 24  2  0  0  0  0
 14 25  1  0  0  0  0
 15 26  1  0  0  0  0
 16 26  1  0  0  0  0
 16 27  2  0  0  0  0
 16 30  1  0  0  0  0
 17 19  2  0  0  0  0
 17 35  1  0  0  0  0
 18 20  2  0  0  0  0
 18 36  1  0  0  0  0
 19 44  1  0  0  0  0
 20 37  1  0  0  0  0
 21 82  1  0  0  0  0
 22 83  1  0  0  0  0
 23 25  2  0  0  0  0
 23 82  1  0  0  0  0
 24 84  1  0  0  0  0
 25 85  1  0  0  0  0
 26 63  2  0  0  0  0
 27 66  1  0  0  0  0
 27 69  1  0  0  0  0
 28 64  2  0  0  0  0
 28 71  1  0  0  0  0
 28 86  1  0  0  0  0
 29 65  2  0  0  0  0
 29 72  1  0  0  0  0
 29 86  1  0  0  0  0
 30 70  1  0  0  0  0
 30 76  2  0  0  0  0
 31 45  1  0  0  0  0
 31 73  1  0  0  0  0
 31 77  2  0  0  0  0
 32 57  1  0  0  0  0
 32 67  1  0  0  0  0
 32 78  2  0  0  0  0
 33 58  1  0  0  0  0
 33 74  1  0  0  0  0
 33 79  2  0  0  0  0
 34 68  1  0  0  0  0
 34 71  1  0  0  0  0
 34 80  2  0  0  0  0
 35 38  1  0  0  0  0
 36 45  1  0  0  0  0
 37 67  1  0  0  0  0
 38 40  1  0  0  0  0
 39 41  1  0  0  0  0
 39 42  1  0  0  0  0
 40 44  1  0  0  0  0
 41 46  1  0  0  0  0
 42 68  1  0  0  0  0
 43 46  1  0  0  0  0
 43 68  1  0  0  0  0
 44 73  1  0  0  0  0
 45 67  1  0  0  0  0
 46 66  1  0  0  0  0
 47 58  1  0  0  0  0
 48 59  1  0  0  0  0
 49 59  1  0  0  0  0
 50 62  1  0  0  0  0
 51 62  1  0  0  0  0
 52 62  1  0  0  0  0
 53 75  1  0  0  0  0
 54 59  1  0  0  0  0
 54 60  1  0  0  0  0
 55 60  1  0  0  0  0
 55 61  1  0  0  0  0
 56 61  1  0  0  0  0
 56 83  1  0  0  0  0
 57 62  1  0  0  0  0
 57 74  1  0  0  0  0
 58 75  1  0  0  0  0
 60 72  1  0  0  0  0
 61 81  1  0  0  0  0
 63 66  1  0  0  0  0
 64 65  1  0  0  0  0
M  CHG  1  75   1
M  ISO  4  34 100  56 101  71 100  83 101
M  END
> <Batch ID>
0199

> <Smiles>
CNC(C)C(=O)NC(C(=O)N1Cc2cc([101O:1][101CH2:1]C(O)CC(CC(C)C)Nc3nnc([100NH:0][100C:0](=O)N4CCCC(n5nc(-c6ccc(Oc7ccc(F)cc7F)cc6)c(C(N)=O)c5N)C4)s3)ccc2CC1C(=O)NC1CCCc2ccccc21)C(C)(C)C

> <Shape>
0.311

> <Color>
0.179

> <Negative vol penalty>
0.000

$$$$

  -OEChem-04052305473D

 83 91  0     1  0  0  0  0  0999 V2000
  -30.0980  -21.1942   21.8291 C   0  0  0  0  0  0  0  0  0  0  0  0
  -28.7133  -21.3228   21.8682 C   0  0  0  0  0  0  0  0  0  0  0  0
  -29.5652  -26.0001   18.4303 C   0  0  0  0  0  0  0  0  0  0  0  0
  -29.7430  -25.6663   20.8166 C   0  0  0  0  0  0  0  0  0  0  0  0
  -30.6763  -20.0711   21.2389 C   0  0  0  0  0  0  0  0  0  0  0  0
  -27.9061  -20.3288   21.3161 C   0  0  0  0  0  0  0  0  0  0  0  0
  -24.0093  -19.1054   24.3100 C   0  0  0  0  0  0  0  0  0  0  0  0
  -30.9117  -25.6669   18.2834 C   0  0  0  0  0  0  0  0  0  0  0  0
  -31.0894  -25.3330   20.6697 C   0  0  0  0  0  0  0  0  0  0  0  0
  -22.9188  -19.9739   24.3226 C   0  0  0  0  0  0  0  0  0  0  0  0
  -34.2106  -24.5538   17.2378 C   0  0  0  0  0  0  0  0  0  0  0  0
  -34.5538  -23.6814   16.2050 C   0  0  0  0  0  0  0  0  0  0  0  0
  -21.7407  -18.5070   22.8129 C   0  0  0  0  0  0  0  0  0  0  0  0
  -33.1317  -21.9821   17.1678 C   0  0  0  0  0  0  0  0  0  0  0  0
  -20.1023  -27.0486   23.2138 C   0  0  0  0  0  0  0  0  0  0  0  0
  -18.1722  -28.3255   21.8521 C   0  0  0  0  0  0  0  0  0  0  0  0
  -28.9809  -25.9999   19.6969 C   0  0  0  0  0  0  0  0  0  0  0  0
  -26.4881  -25.4696   19.8093 C   0  0  0  0  0  0  0  0  0  0  0  0
  -29.8755  -19.0582   20.6880 C   0  0  0  0  0  0  0  0  0  0  0  0
  -23.9779  -17.9345   23.5389 C   0  0  0  0  0  0  0  0  0  0  0  0
  -28.4742  -19.1917   20.7169 C   0  0  0  0  0  0  0  0  0  0  0  0
  -22.8311  -17.6239   22.7943 C   0  0  0  0  0  0  0  0  0  0  0  0
  -31.6738  -25.3333   19.4031 C   0  0  0  0  0  0  0  0  0  0  0  0
  -21.7854  -19.6763   23.5717 C   0  0  0  0  0  0  0  0  0  0  0  0
  -33.3280  -24.1403   18.2357 C   0  0  0  0  0  0  0  0  0  0  0  0
  -34.0143  -22.3956   16.1700 C   0  0  0  0  0  0  0  0  0  0  0  0
  -32.7885  -22.8545   18.2007 C   0  0  0  0  0  0  0  0  0  0  0  0
  -27.5902  -26.3446   19.8494 C   0  0  0  0  0  0  0  0  0  0  0  0
  -20.0240  -28.4256   23.1666 C   0  0  0  0  0  0  0  0  0  0  0  0
  -19.1239  -26.3708   22.5156 C   0  0  0  0  0  0  0  0  0  0  0  0
  -25.3977  -26.2815   20.0049 C   0  0  0  0  0  0  0  0  0  0  0  0
  -26.4532  -24.0498   19.6128 C   0  0  0  0  0  0  0  0  0  0  0  0
  -25.6750  -16.8101   21.0978 C   0  0  0  0  0  0  0  0  0  0  0  0
  -23.8790  -14.1521   21.5791 C   0  0  0  0  0  0  0  0  0  0  0  0
  -20.9977  -12.7827   22.7916 C   0  0  0  0  0  0  0  0  0  0  0  0
  -22.8573  -30.4512   22.7078 C   0  0  0  0  0  0  0  0  0  0  0  0
  -30.5471  -17.8853   20.0186 C   0  0  0  0  0  0  0  0  0  0  0  0
  -25.1520  -16.9946   23.5571 C   0  0  0  0  0  0  0  0  0  0  0  0
  -22.7392  -16.3695   21.9658 C   0  0  0  0  0  0  0  0  0  0  0  0
  -29.6145  -16.6986   19.7901 C   0  0  0  0  0  0  0  0  0  0  0  0
  -25.0063  -31.3246   20.0067 C   0  0  0  0  0  0  0  0  0  0  0  0
  -28.2900  -17.1672   19.1961 C   0  0  0  0  0  0  0  0  0  0  0  0
  -25.7830  -30.0371   19.7262 C   0  0  0  0  0  0  0  0  0  0  0  0
  -24.7423  -31.5107   21.4993 C   0  0  0  0  0  0  0  0  0  0  0  0
  -24.8638  -29.0787   21.8792 C   0  0  0  0  0  0  0  0  0  0  0  0
  -27.5645  -18.1230   20.1508 C   0  0  1  0  0  0  0  0  0  0  0  0
  -25.2110  -16.0884   22.3313 C   0  0  1  0  0  0  0  0  0  0  0  0
  -25.1053  -28.8191   20.3823 C   0  0  2  0  0  0  0  0  0  0  0  0
  -19.7969  -10.5897   23.0059 C   0  0  0  0  0  0  0  0  0  0  0  0
  -23.1235  -14.2799   18.6256 C   0  0  0  0  0  0  0  0  0  0  0  0
  -21.2403  -12.7031   19.1108 C   0  0  0  0  0  0  0  0  0  0  0  0
  -23.5983  -11.9788   19.4823 C   0  0  0  0  0  0  0  0  0  0  0  0
  -21.0080  -12.9337   25.7473 C   0  0  0  0  0  0  0  0  0  0  0  0
  -21.0392  -29.2449   23.8905 C   0  0  0  0  0  0  0  0  0  0  0  0
  -20.1736  -24.2289   23.2480 C   0  0  0  0  0  0  0  0  0  0  0  0
  -20.9933  -21.9088   23.7822 C   0  0  0  0  0  0  0  0  0  1  0  0
  -22.5515  -13.6510   21.0635 C   0  0  1  0  0  0  0  0  0  0  0  0
  -20.7509  -11.5699   23.6705 C   0  0  2  0  0  0  0  0  0  0  0  0
  -19.9452  -22.7328   23.0422 C   0  0  1  0  0  0  0  0  0  0  0  0
  -22.6306  -13.1779   19.5845 C   0  0  0  0  0  0  0  0  0  0  0  0
  -19.0688  -29.0994   22.4930 N   0  0  0  0  0  0  0  0  0  0  0  0
  -18.1401  -26.9796   21.8215 N   0  0  0  0  0  0  0  0  0  0  0  0
  -27.2326  -27.6151   20.0543 N   0  0  0  0  0  0  0  0  0  0  0  0
  -25.8936  -27.5444   20.1446 N   0  0  0  0  0  0  0  0  0  0  0  0
  -23.9156  -15.4854   22.0113 N   0  0  0  0  0  0  0  0  0  0  0  0
  -24.0969  -30.3213   22.0602 N   0  0  0  0  0  0  0  0  0  0  0  0
  -24.0727  -26.0313   20.0694 N   0  0  0  0  0  0  0  0  0  0  0  0
  -27.6652  -23.3710   19.4269 N   0  0  0  0  0  0  0  0  0  0  0  0
  -19.1675  -24.9870   22.5385 N   0  0  0  0  0  0  0  0  0  0  0  0
  -26.9266  -17.3832   21.2186 N   0  0  0  0  0  0  0  0  0  0  0  0
  -22.1136  -12.6199   21.9981 N   0  0  0  0  0  0  0  0  0  0  0  0
  -22.3120  -29.2738   23.2049 N   0  0  0  0  0  0  0  0  0  0  0  0
  -20.1632  -11.9866   24.9751 N   0  3  0  0  0  0  0  0  0  0  0  0
  -25.3778  -23.4045   19.5861 O   0  0  0  0  0  0  0  0  0  0  0  0
  -24.9517  -16.8432   20.1091 O   0  0  0  0  0  0  0  0  0  0  0  0
  -24.8459  -13.3866   21.6042 O   0  0  0  0  0  0  0  0  0  0  0  0
  -20.2711  -13.7738   22.8047 O   0  0  0  0  0  0  0  0  0  0  0  0
  -22.2767  -31.5353   22.8289 O   0  0  0  0  0  0  0  0  0  0  0  0
  -18.6639  -22.3791   23.5671 O   0  0  0  0  0  0  0  0  0  0  0  0
  -32.9876  -25.0078   19.2600 O   0  0  0  0  0  0  0  0  0  0  0  0
  -20.7198  -20.5227   23.5816 O   0  0  0  0  0  0  0  0  0  1  0  0
  -34.3428  -21.5585   15.1772 F   0  0  0  0  0  0  0  0  0  0  0  0
  -31.9391  -22.4520   19.1558 F   0  0  0  0  0  0  0  0  0  0  0  0
  1  2  1  0  0  0  0
  1  5  2  0  0  0  0
  2  6  2  0  0  0  0
  3  8  2  0  0  0  0
  3 17  1  0  0  0  0
  4  9  1  0  0  0  0
  4 17  2  0  0  0  0
  5 19  1  0  0  0  0
  6 21  1  0  0  0  0
  7 10  2  0  0  0  0
  7 20  1  0  0  0  0
  8 23  1  0  0  0  0
  9 23  2  0  0  0  0
 10 24  1  0  0  0  0
 11 12  2  0  0  0  0
 11 25  1  0  0  0  0
 12 26  1  0  0  0  0
 13 22  1  0  0  0  0
 13 24  2  0  0  0  0
 14 26  2  0  0  0  0
 14 27  1  0  0  0  0
 15 29  2  0  0  0  0
 15 30  1  0  0  0  0
 16 61  2  0  0  0  0
 16 62  1  0  0  0  0
 17 28  1  0  0  0  0
 18 28  1  0  0  0  0
 18 31  2  0  0  0  0
 18 32  1  0  0  0  0
 19 21  2  0  0  0  0
 19 37  1  0  0  0  0
 20 22  2  0  0  0  0
 20 38  1  0  0  0  0
 21 46  1  0  0  0  0
 22 39  1  0  0  0  0
 23 80  1  0  0  0  0
 24 81  1  0  0  0  0
 25 27  2  0  0  0  0
 25 80  1  0  0  0  0
 26 82  1  0  0  0  0
 27 83  1  0  0  0  0
 28 63  2  0  0  0  0
 29 54  1  0  0  0  0
 29 61  1  0  0  0  0
 30 62  2  0  0  0  0
 30 69  1  0  0  0  0
 31 64  1  0  0  0  0
 31 67  1  0  0  0  0
 32 68  1  0  0  0  0
 32 74  2  0  0  0  0
 33 47  1  0  0  0  0
 33 70  1  0  0  0  0
 33 75  2  0  0  0  0
 34 57  1  0  0  0  0
 34 65  1  0  0  0  0
 34 76  2  0  0  0  0
 35 58  1  0  0  0  0
 35 71  1  0  0  0  0
 35 77  2  0  0  0  0
 36 66  1  0  0  0  0
 36 72  1  0  0  0  0
 36 78  2  0  0  0  0
 37 40  1  0  0  0  0
 38 47  1  0  0  0  0
 39 65  1  0  0  0  0
 40 42  1  0  0  0  0
 41 43  1  0  0  0  0
 41 44  1  0  0  0  0
 42 46  1  0  0  0  0
 43 48  1  0  0  0  0
 44 66  1  0  0  0  0
 45 48  1  0  0  0  0
 45 66  1  0  0  0  0
 46 70  1  0  0  0  0
 47 65  1  0  0  0  0
 48 64  1  0  0  0  0
 49 58  1  0  0  0  0
 50 60  1  0  0  0  0
 51 60  1  0  0  0  0
 52 60  1  0  0  0  0
 53 73  1  0  0  0  0
 54 72  1  0  0  0  0
 55 59  1  0  0  0  0
 55 69  1  0  0  0  0
 56 59  1  0  0  0  0
 56 81  1  0  0  0  0
 57 60  1  0  0  0  0
 57 71  1  0  0  0  0
 58 73  1  0  0  0  0
 59 79  1  0  0  0  0
 63 64  1  0  0  0  0
M  CHG  1  73   1
M  ISO  4  36 100  56 101  72 100  81 101
M  END
> <Batch ID>
0199

> <Smiles>
CNC(C)C(=O)NC(C(=O)N1Cc2cc([101O:1][101CH2:1]C(O)CNc3cc(C[100NH:0][100C:0](=O)N4CCCC(n5nc(-c6ccc(Oc7ccc(F)cc7F)cc6)c(C(N)=O)c5N)C4)ncn3)ccc2CC1C(=O)NC1CCCc2ccccc21)C(C)(C)C

> <Shape>
0.220

> <Color>
0.061

> <Negative vol penalty>
0.000

$$$$

  -OEChem-04052305473D

 81 89  0     1  0  0  0  0  0999 V2000
  -28.2308  -30.8546   27.7764 C   0  0  0  0  0  0  0  0  0  0  0  0
  -28.1655  -29.9235   26.7448 C   0  0  0  0  0  0  0  0  0  0  0  0
  -24.7177   -8.5069   21.3849 C   0  0  0  0  0  0  0  0  0  0  0  0
  -23.1715  -10.3628   21.3431 C   0  0  0  0  0  0  0  0  0  0  0  0
  -27.0936  -31.5774   28.1346 C   0  0  0  0  0  0  0  0  0  0  0  0
  -26.9625  -29.7139   26.0715 C   0  0  0  0  0  0  0  0  0  0  0  0
  -27.5618  -29.4853   21.0482 C   0  0  0  0  0  0  0  0  0  0  0  0
  -23.9432   -7.8837   22.3633 C   0  0  0  0  0  0  0  0  0  0  0  0
  -22.3969   -9.7395   22.3214 C   0  0  0  0  0  0  0  0  0  0  0  0
  -28.0570  -28.2940   20.5196 C   0  0  0  0  0  0  0  0  0  0  0  0
  -21.0825   -6.0867   22.5052 C   0  0  0  0  0  0  0  0  0  0  0  0
  -20.8159   -4.7262   22.3517 C   0  0  0  0  0  0  0  0  0  0  0  0
  -25.8163  -27.6400   19.9106 C   0  0  0  0  0  0  0  0  0  0  0  0
  -27.8972  -18.9160   19.8780 C   0  0  0  0  0  0  0  0  0  0  0  0
  -21.9110   -4.2740   24.4573 C   0  0  0  0  0  0  0  0  0  0  0  0
  -25.7463  -19.7917   19.7818 C   0  0  0  0  0  0  0  0  0  0  0  0
  -24.3319   -9.7465   20.8748 C   0  0  0  0  0  0  0  0  0  0  0  0
  -25.0083  -10.2569   18.4686 C   0  0  0  0  0  0  0  0  0  0  0  0
  -25.8785  -31.3834   27.4589 C   0  0  0  0  0  0  0  0  0  0  0  0
  -26.1866  -29.7585   21.0217 C   0  0  0  0  0  0  0  0  0  0  0  0
  -25.8076  -30.4337   26.4219 C   0  0  0  0  0  0  0  0  0  0  0  0
  -25.3065  -28.8366   20.4372 C   0  0  0  0  0  0  0  0  0  0  0  0
  -27.0914  -20.0882   19.7946 C   0  0  0  0  0  0  0  0  0  0  0  0
  -22.7828   -8.4999   22.8316 C   0  0  0  0  0  0  0  0  0  0  0  0
  -27.1839  -27.3699   19.9533 C   0  0  0  0  0  0  0  0  0  0  0  0
  -21.7634   -6.5409   23.6348 C   0  0  0  0  0  0  0  0  0  0  0  0
  -21.2301   -3.8198   23.3277 C   0  0  0  0  0  0  0  0  0  0  0  0
  -22.1776   -5.6345   24.6108 C   0  0  0  0  0  0  0  0  0  0  0  0
  -25.1318  -10.3911   19.8645 C   0  0  0  0  0  0  0  0  0  0  0  0
  -25.9928  -11.0667   17.9573 C   0  0  0  0  0  0  0  0  0  0  0  0
  -27.1370  -17.7681   19.9260 C   0  0  0  0  0  0  0  0  0  0  0  0
  -24.0860   -9.4706   17.7027 C   0  0  0  0  0  0  0  0  0  0  0  0
  -23.9543  -30.2496   23.2306 C   0  0  0  0  0  0  0  0  0  0  0  0
  -22.1014  -30.9125   20.6520 C   0  0  0  0  0  0  0  0  0  0  0  0
  -21.5333  -30.5069   17.3114 C   0  0  0  0  0  0  0  0  0  0  0  0
  -28.8136  -15.8932   20.0676 C   0  0  0  0  0  0  0  0  0  0  0  0
  -24.6643  -32.1541   27.9132 C   0  0  0  0  0  0  0  0  0  0  0  0
  -25.6714  -31.0600   21.5721 C   0  0  0  0  0  0  0  0  0  0  0  0
  -23.8238  -29.0913   20.3657 C   0  0  0  0  0  0  0  0  0  0  0  0
  -23.5216  -32.1422   26.9011 C   0  0  0  0  0  0  0  0  0  0  0  0
  -30.3130  -12.8379   19.0217 C   0  0  0  0  0  0  0  0  0  0  0  0
  -23.2864  -30.7288   26.3781 C   0  0  0  0  0  0  0  0  0  0  0  0
  -29.1422  -11.8530   18.9862 C   0  0  0  0  0  0  0  0  0  0  0  0
  -30.1880  -13.8260   20.1800 C   0  0  0  0  0  0  0  0  0  0  0  0
  -27.7390  -13.5608   20.2115 C   0  0  0  0  0  0  0  0  0  0  0  0
  -24.5271  -30.1959   25.6514 C   0  0  1  0  0  0  0  0  0  0  0  0
  -24.1955  -31.0047   21.9542 C   0  0  1  0  0  0  0  0  0  0  0  0
  -27.7872  -12.5867   19.0230 C   0  0  2  0  0  0  0  0  0  0  0  0
  -19.9193  -31.1387   15.4967 C   0  0  0  0  0  0  0  0  0  0  0  0
  -20.1087  -28.8599   21.7129 C   0  0  0  0  0  0  0  0  0  0  0  0
  -19.0342  -28.8374   19.4517 C   0  0  0  0  0  0  0  0  0  0  0  0
  -19.0719  -30.9410   20.7919 C   0  0  0  0  0  0  0  0  0  0  0  0
  -23.6308  -31.9263   15.7802 C   0  0  0  0  0  0  0  0  0  0  0  0
  -26.7718  -22.5585   19.6490 C   0  0  0  0  0  0  0  0  0  0  0  0
  -26.8010  -25.0707   19.4808 C   0  0  0  0  0  0  0  0  0  1  0  0
  -21.2123  -30.1042   19.7382 C   0  0  1  0  0  0  0  0  0  0  0  0
  -21.2075  -31.5065   16.2164 C   0  0  2  0  0  0  0  0  0  0  0  0
  -27.6489  -23.8064   19.5694 C   0  0  1  0  0  0  0  0  0  0  0  0
  -19.8844  -29.6796   20.4266 C   0  0  0  0  0  0  0  0  0  0  0  0
  -26.1173  -11.2208   20.2175 N   0  0  0  0  0  0  0  0  0  0  0  0
  -26.6219  -11.6151   19.0361 N   0  0  0  0  0  0  0  0  0  0  0  0
  -23.3679  -30.3755   20.9230 N   0  0  0  0  0  0  0  0  0  0  0  0
  -28.8811  -14.4862   20.1481 N   0  0  0  0  0  0  0  0  0  0  0  0
  -26.3731  -11.3560   16.6948 N   0  0  0  0  0  0  0  0  0  0  0  0
  -23.1392   -8.6962   18.3870 N   0  0  0  0  0  0  0  0  0  0  0  0
  -27.5983  -21.3753   19.7335 N   0  0  0  0  0  0  0  0  0  0  0  0
  -27.5181  -16.4060   20.0107 N   0  0  0  0  0  0  0  0  0  0  0  0
  -24.6204  -30.7674   24.3250 N   0  0  0  0  0  0  0  0  0  0  0  0
  -21.0307  -30.9048   18.5322 N   0  0  0  0  0  0  0  0  0  0  0  0
  -22.3090  -31.5536   15.2136 N   0  3  0  0  0  0  0  0  0  0  0  0
  -24.1116   -9.4424   16.4488 O   0  0  0  0  0  0  0  0  0  0  0  0
  -23.2173  -29.2706   23.2235 O   0  0  0  0  0  0  0  0  0  0  0  0
  -21.6901  -31.9846   21.1028 O   0  0  0  0  0  0  0  0  0  0  0  0
  -22.1667  -29.4743   17.1038 O   0  0  0  0  0  0  0  0  0  0  0  0
  -29.8306  -16.5902   20.0230 O   0  0  0  0  0  0  0  0  0  0  0  0
  -28.4417  -23.8968   20.7550 O   0  0  0  0  0  0  0  0  0  0  0  0
  -22.0266   -7.8920   23.7861 O   0  0  0  0  0  0  0  0  0  0  0  0
  -27.6644  -26.2060   19.4372 O   0  0  0  0  0  0  0  0  0  1  0  0
  -20.9727   -2.5136   23.1809 F   0  0  0  0  0  0  0  0  0  0  0  0
  -22.8311   -6.0650   25.6987 F   0  0  0  0  0  0  0  0  0  0  0  0
  -25.4592  -18.1058   19.8702 S   0  0  0  0  0  0  0  0  0  0  0  0
  1  2  1  0  0  0  0
  1  5  2  0  0  0  0
  2  6  2  0  0  0  0
  3  8  2  0  0  0  0
  3 17  1  0  0  0  0
  4  9  1  0  0  0  0
  4 17  2  0  0  0  0
  5 19  1  0  0  0  0
  6 21  1  0  0  0  0
  7 10  2  0  0  0  0
  7 20  1  0  0  0  0
  8 24  1  0  0  0  0
  9 24  2  0  0  0  0
 10 25  1  0  0  0  0
 11 12  2  0  0  0  0
 11 26  1  0  0  0  0
 12 27  1  0  0  0  0
 13 22  1  0  0  0  0
 13 25  2  0  0  0  0
 14 23  1  0  0  0  0
 14 31  2  0  0  0  0
 15 27  2  0  0  0  0
 15 28  1  0  0  0  0
 16 23  2  0  0  0  0
 16 81  1  0  0  0  0
 17 29  1  0  0  0  0
 18 29  1  0  0  0  0
 18 30  2  0  0  0  0
 18 32  1  0  0  0  0
 19 21  2  0  0  0  0
 19 37  1  0  0  0  0
 20 22  2  0  0  0  0
 20 38  1  0  0  0  0
 21 46  1  0  0  0  0
 22 39  1  0  0  0  0
 23 66  1  0  0  0  0
 24 77  1  0  0  0  0
 25 78  1  0  0  0  0
 26 28  2  0  0  0  0
 26 77  1  0  0  0  0
 27 79  1  0  0  0  0
 28 80  1  0  0  0  0
 29 60  2  0  0  0  0
 30 61  1  0  0  0  0
 30 64  1  0  0  0  0
 31 67  1  0  0  0  0
 31 81  1  0  0  0  0
 32 65  1  0  0  0  0
 32 71  2  0  0  0  0
 33 47  1  0  0  0  0
 33 68  1  0  0  0  0
 33 72  2  0  0  0  0
 34 56  1  0  0  0  0
 34 62  1  0  0  0  0
 34 73  2  0  0  0  0
 35 57  1  0  0  0  0
 35 69  1  0  0  0  0
 35 74  2  0  0  0  0
 36 63  1  0  0  0  0
 36 67  1  0  0  0  0
 36 75  2  0  0  0  0
 37 40  1  0  0  0  0
 38 47  1  0  0  0  0
 39 62  1  0  0  0  0
 40 42  1  0  0  0  0
 41 43  1  0  0  0  0
 41 44  1  0  0  0  0
 42 46  1  0  0  0  0
 43 48  1  0  0  0  0
 44 63  1  0  0  0  0
 45 48  1  0  0  0  0
 45 63  1  0  0  0  0
 46 68  1  0  0  0  0
 47 62  1  0  0  0  0
 48 61  1  0  0  0  0
 49 57  1  0  0  0  0
 50 59  1  0  0  0  0
 51 59  1  0  0  0  0
 52 59  1  0  0  0  0
 53 70  1  0  0  0  0
 54 58  1  0  0  0  0
 54 66  1  0  0  0  0
 55 58  1  0  0  0  0
 55 78  1  0  0  0  0
 56 59  1  0  0  0  0
 56 69  1  0  0  0  0
 57 70  1  0  0  0  0
 58 76  1  0  0  0  0
 60 61  1  0  0  0  0
M  CHG  1  70   1
M  ISO  4  36 100  55 101  67 100  78 101
M  END
> <Batch ID>
0199

> <Smiles>
CNC(C)C(=O)NC(C(=O)N1Cc2cc([101O:1][101CH2:1]C(O)CNc3csc([100NH:0][100C:0](=O)N4CCCC(n5nc(-c6ccc(Oc7ccc(F)cc7F)cc6)c(C(N)=O)c5N)C4)c3)ccc2CC1C(=O)NC1CCCc2ccccc21)C(C)(C)C

> <Shape>
0.275

> <Color>
0.115

> <Negative vol penalty>
0.000

$$$$

  -OEChem-04052305473D

 82 90  0     1  0  0  0  0  0999 V2000
  -17.7940  -31.8199   20.0924 C   0  0  0  0  0  0  0  0  0  0  0  0
  -19.0999  -31.6516   19.6431 C   0  0  0  0  0  0  0  0  0  0  0  0
  -26.7412  -12.5107   21.7651 C   0  0  0  0  0  0  0  0  0  0  0  0
  -26.0132  -14.1095   20.1064 C   0  0  0  0  0  0  0  0  0  0  0  0
  -17.4764  -31.5542   21.4237 C   0  0  0  0  0  0  0  0  0  0  0  0
  -20.0891  -31.2183   20.5252 C   0  0  0  0  0  0  0  0  0  0  0  0
  -24.8555  -27.6003   19.2225 C   0  0  0  0  0  0  0  0  0  0  0  0
  -25.4494  -11.9886   21.8288 C   0  0  0  0  0  0  0  0  0  0  0  0
  -24.7214  -13.5873   20.1701 C   0  0  0  0  0  0  0  0  0  0  0  0
  -26.1934  -27.8757   18.9433 C   0  0  0  0  0  0  0  0  0  0  0  0
  -23.5159   -9.8961   20.0078 C   0  0  0  0  0  0  0  0  0  0  0  0
  -23.3766   -8.5082   20.0011 C   0  0  0  0  0  0  0  0  0  0  0  0
  -26.7524  -27.4731   21.2552 C   0  0  0  0  0  0  0  0  0  0  0  0
  -22.2865   -8.6072   22.1549 C   0  0  0  0  0  0  0  0  0  0  0  0
  -29.3560  -21.6720   19.7114 C   0  0  0  0  0  0  0  0  0  0  0  0
  -30.7035  -23.7516   20.7048 C   0  0  0  0  0  0  0  0  0  0  0  0
  -27.0232  -13.5713   20.9039 C   0  0  0  0  0  0  0  0  0  0  0  0
  -29.3994  -13.7013   19.9851 C   0  0  0  0  0  0  0  0  0  0  0  0
  -18.4603  -31.1082   22.3203 C   0  0  0  0  0  0  0  0  0  0  0  0
  -24.4536  -27.2693   20.5246 C   0  0  0  0  0  0  0  0  0  0  0  0
  -19.7846  -30.9476   21.8701 C   0  0  0  0  0  0  0  0  0  0  0  0
  -25.4092  -27.1915   21.5477 C   0  0  0  0  0  0  0  0  0  0  0  0
  -24.4395  -12.5268   21.0313 C   0  0  0  0  0  0  0  0  0  0  0  0
  -27.1417  -27.8149   19.9603 C   0  0  0  0  0  0  0  0  0  0  0  0
  -23.0405  -10.6395   21.0881 C   0  0  0  0  0  0  0  0  0  0  0  0
  -22.7619   -7.8638   21.0746 C   0  0  0  0  0  0  0  0  0  0  0  0
  -22.4258   -9.9950   22.1616 C   0  0  0  0  0  0  0  0  0  0  0  0
  -28.3573  -14.1115   20.8381 C   0  0  0  0  0  0  0  0  0  0  0  0
  -30.0869  -21.5560   20.8732 C   0  0  0  0  0  0  0  0  0  0  0  0
  -29.9732  -23.8676   19.5426 C   0  0  0  0  0  0  0  0  0  0  0  0
  -30.4526  -14.5205   20.3112 C   0  0  0  0  0  0  0  0  0  0  0  0
  -29.4141  -12.6720   18.9872 C   0  0  0  0  0  0  0  0  0  0  0  0
  -22.4971  -28.5683   22.6666 C   0  0  0  0  0  0  0  0  0  0  0  0
  -23.1441  -25.8570   24.3256 C   0  0  0  0  0  0  0  0  0  0  0  0
  -25.2716  -23.2517   24.9030 C   0  0  0  0  0  0  0  0  0  0  0  0
  -30.7849  -19.9821   22.7123 C   0  0  0  0  0  0  0  0  0  0  0  0
  -18.0790  -30.8791   23.7614 C   0  0  0  0  0  0  0  0  0  0  0  0
  -23.0108  -26.9490   20.8038 C   0  0  0  0  0  0  0  0  0  0  0  0
  -25.0325  -26.8210   22.9582 C   0  0  0  0  0  0  0  0  0  0  0  0
  -19.1075  -30.0643   24.5414 C   0  0  0  0  0  0  0  0  0  0  0  0
  -32.2680  -17.0043   23.9812 C   0  0  0  0  0  0  0  0  0  0  0  0
  -20.5158  -30.5861   24.2744 C   0  0  0  0  0  0  0  0  0  0  0  0
  -31.5325  -15.8874   23.2371 C   0  0  0  0  0  0  0  0  0  0  0  0
  -31.3385  -18.1688   24.3186 C   0  0  0  0  0  0  0  0  0  0  0  0
  -29.8556  -17.5998   22.4354 C   0  0  0  0  0  0  0  0  0  0  0  0
  -20.8804  -30.4556   22.7906 C   0  0  1  0  0  0  0  0  0  0  0  0
  -22.6329  -27.1250   22.2713 C   0  0  1  0  0  0  0  0  0  0  0  0
  -30.7655  -16.4334   22.0168 C   0  0  2  0  0  0  0  0  0  0  0  0
  -25.5484  -21.2170   26.3453 C   0  0  0  0  0  0  0  0  0  0  0  0
  -23.9398  -27.6337   26.6752 C   0  0  0  0  0  0  0  0  0  0  0  0
  -25.0770  -25.6518   27.6985 C   0  0  0  0  0  0  0  0  0  0  0  0
  -22.6147  -25.6073   27.3015 C   0  0  0  0  0  0  0  0  0  0  0  0
  -25.2711  -21.4466   22.5577 C   0  0  0  0  0  0  0  0  0  0  0  0
  -30.6590  -26.2608   19.3757 C   0  0  0  0  0  0  0  0  0  0  0  0
  -28.9163  -27.7796   18.3774 C   0  0  0  0  0  0  0  0  0  1  0  0
  -24.1910  -25.4433   25.3316 C   0  0  1  0  0  0  0  0  0  0  0  0
  -25.0262  -21.7586   25.0237 C   0  0  2  0  0  0  0  0  0  0  0  0
  -30.4024  -27.4454   18.4462 C   0  0  1  0  0  0  0  0  0  0  0  0
  -23.9627  -26.0929   26.7256 C   0  0  0  0  0  0  0  0  0  0  0  0
  -30.7735  -22.5937   21.3909 N   0  0  0  0  0  0  0  0  0  0  0  0
  -29.2863  -22.8299   19.0251 N   0  0  0  0  0  0  0  0  0  0  0  0
  -28.7159  -15.1132   21.6456 N   0  0  0  0  0  0  0  0  0  0  0  0
  -29.9952  -15.3393   21.3014 N   0  0  0  0  0  0  0  0  0  0  0  0
  -23.6083  -26.5228   23.1824 N   0  0  0  0  0  0  0  0  0  0  0  0
  -30.6493  -18.6363   23.1139 N   0  0  0  0  0  0  0  0  0  0  0  0
  -31.7160  -14.6129   19.8448 N   0  0  0  0  0  0  0  0  0  0  0  0
  -28.2463  -11.9249   18.7806 N   0  0  0  0  0  0  0  0  0  0  0  0
  -30.1109  -20.3030   21.5344 N   0  0  0  0  0  0  0  0  0  0  0  0
  -29.9540  -25.0926   18.8975 N   0  0  0  0  0  0  0  0  0  0  0  0
  -21.2309  -29.0874   22.4748 N   0  0  0  0  0  0  0  0  0  0  0  0
  -24.1904  -23.9845   25.3449 N   0  0  0  0  0  0  0  0  0  0  0  0
  -25.7066  -21.0305   23.9156 N   0  3  0  0  0  0  0  0  0  0  0  0
  -30.4375  -12.4112   18.3103 O   0  0  0  0  0  0  0  0  0  0  0  0
  -23.4687  -29.1662   23.1139 O   0  0  0  0  0  0  0  0  0  0  0  0
  -21.9590  -25.5926   24.5428 O   0  0  0  0  0  0  0  0  0  0  0  0
  -26.3193  -23.7212   24.4642 O   0  0  0  0  0  0  0  0  0  0  0  0
  -31.4721  -20.7837   23.3504 O   0  0  0  0  0  0  0  0  0  0  0  0
  -31.0834  -28.5943   18.9546 O   0  0  0  0  0  0  0  0  0  0  0  0
  -23.1788  -12.0174   21.0930 O   0  0  0  0  0  0  0  0  0  0  0  0
  -28.4481  -28.0839   19.6906 O   0  0  0  0  0  0  0  0  0  1  0  0
  -22.6269   -6.5311   21.0672 F   0  0  0  0  0  0  0  0  0  0  0  0
  -21.9661  -10.7040   23.2018 F   0  0  0  0  0  0  0  0  0  0  0  0
  1  2  1  0  0  0  0
  1  5  2  0  0  0  0
  2  6  2  0  0  0  0
  3  8  2  0  0  0  0
  3 17  1  0  0  0  0
  4  9  1  0  0  0  0
  4 17  2  0  0  0  0
  5 19  1  0  0  0  0
  6 21  1  0  0  0  0
  7 10  2  0  0  0  0
  7 20  1  0  0  0  0
  8 23  1  0  0  0  0
  9 23  2  0  0  0  0
 10 24  1  0  0  0  0
 11 12  2  0  0  0  0
 11 25  1  0  0  0  0
 12 26  1  0  0  0  0
 13 22  1  0  0  0  0
 13 24  2  0  0  0  0
 14 26  2  0  0  0  0
 14 27  1  0  0  0  0
 15 29  2  0  0  0  0
 15 61  1  0  0  0  0
 16 30  1  0  0  0  0
 16 60  2  0  0  0  0
 17 28  1  0  0  0  0
 18 28  1  0  0  0  0
 18 31  2  0  0  0  0
 18 32  1  0  0  0  0
 19 21  2  0  0  0  0
 19 37  1  0  0  0  0
 20 22  2  0  0  0  0
 20 38  1  0  0  0  0
 21 46  1  0  0  0  0
 22 39  1  0  0  0  0
 23 79  1  0  0  0  0
 24 80  1  0  0  0  0
 25 27  2  0  0  0  0
 25 79  1  0  0  0  0
 26 81  1  0  0  0  0
 27 82  1  0  0  0  0
 28 62  2  0  0  0  0
 29 60  1  0  0  0  0
 29 68  1  0  0  0  0
 30 61  2  0  0  0  0
 30 69  1  0  0  0  0
 31 63  1  0  0  0  0
 31 66  1  0  0  0  0
 32 67  1  0  0  0  0
 32 73  2  0  0  0  0
 33 47  1  0  0  0  0
 33 70  1  0  0  0  0
 33 74  2  0  0  0  0
 34 56  1  0  0  0  0
 34 64  1  0  0  0  0
 34 75  2  0  0  0  0
 35 57  1  0  0  0  0
 35 71  1  0  0  0  0
 35 76  2  0  0  0  0
 36 65  1  0  0  0  0
 36 68  1  0  0  0  0
 36 77  2  0  0  0  0
 37 40  1  0  0  0  0
 38 47  1  0  0  0  0
 39 64  1  0  0  0  0
 40 42  1  0  0  0  0
 41 43  1  0  0  0  0
 41 44  1  0  0  0  0
 42 46  1  0  0  0  0
 43 48  1  0  0  0  0
 44 65  1  0  0  0  0
 45 48  1  0  0  0  0
 45 65  1  0  0  0  0
 46 70  1  0  0  0  0
 47 64  1  0  0  0  0
 48 63  1  0  0  0  0
 49 57  1  0  0  0  0
 50 59  1  0  0  0  0
 51 59  1  0  0  0  0
 52 59  1  0  0  0  0
 53 72  1  0  0  0  0
 54 58  1  0  0  0  0
 54 69  1  0  0  0  0
 55 58  1  0  0  0  0
 55 80  1  0  0  0  0
 56 59  1  0  0  0  0
 56 71  1  0  0  0  0
 57 72  1  0  0  0  0
 58 78  1  0  0  0  0
 62 63  1  0  0  0  0
M  CHG  1  72   1
M  ISO  4  36 100  55 101  68 100  80 101
M  END
> <Batch ID>
0199

> <Smiles>
CNC(C)C(=O)NC(C(=O)N1Cc2cc([101O:1][101CH2:1]C(O)CNc3cnc([100NH:0][100C:0](=O)N4CCCC(n5nc(-c6ccc(Oc7ccc(F)cc7F)cc6)c(C(N)=O)c5N)C4)cn3)ccc2CC1C(=O)NC1CCCc2ccccc21)C(C)(C)C

> <Shape>
0.259

> <Color>
0.110

> <Negative vol penalty>
0.000

$$$$

  -OEChem-04052305473D

 84 92  0     1  0  0  0  0  0999 V2000
  -25.7561  -11.0357   20.9678 C   0  0  0  0  0  0  0  0  0  0  0  0
  -26.8083  -11.9342   20.8228 C   0  0  0  0  0  0  0  0  0  0  0  0
  -20.1716  -28.7339   22.9723 C   0  0  0  0  0  0  0  0  0  0  0  0
  -21.2022  -26.5825   22.5897 C   0  0  0  0  0  0  0  0  0  0  0  0
  -24.4564  -11.4291   20.6514 C   0  0  0  0  0  0  0  0  0  0  0  0
  -26.5616  -13.2263   20.3601 C   0  0  0  0  0  0  0  0  0  0  0  0
  -28.9129  -19.9553   21.0727 C   0  0  0  0  0  0  0  0  0  0  0  0
  -19.0424  -28.3186   22.2666 C   0  0  0  0  0  0  0  0  0  0  0  0
  -20.0730  -26.1671   21.8840 C   0  0  0  0  0  0  0  0  0  0  0  0
  -29.3432  -21.0333   20.3004 C   0  0  0  0  0  0  0  0  0  0  0  0
  -16.9635  -25.0515   22.5961 C   0  0  0  0  0  0  0  0  0  0  0  0
  -16.4598  -23.7804   22.8723 C   0  0  0  0  0  0  0  0  0  0  0  0
  -27.0468  -21.6266   19.8600 C   0  0  0  0  0  0  0  0  0  0  0  0
  -16.8108  -23.1409   20.5691 C   0  0  0  0  0  0  0  0  0  0  0  0
  -31.3406  -29.9232   17.4995 C   0  0  0  0  0  0  0  0  0  0  0  0
  -21.2515  -27.8659   23.1338 C   0  0  0  0  0  0  0  0  0  0  0  0
  -22.6545  -28.1619   25.2437 C   0  0  0  0  0  0  0  0  0  0  0  0
  -24.1923  -12.7297   20.1938 C   0  0  0  0  0  0  0  0  0  0  0  0
  -27.5441  -19.6980   21.2358 C   0  0  0  0  0  0  0  0  0  0  0  0
  -25.2574  -13.6370   20.0360 C   0  0  0  0  0  0  0  0  0  0  0  0
  -26.6017  -20.5462   20.6369 C   0  0  0  0  0  0  0  0  0  0  0  0
  -31.2664  -30.2753   18.8318 C   0  0  0  0  0  0  0  0  0  0  0  0
  -18.9931  -27.0351   21.7225 C   0  0  0  0  0  0  0  0  0  0  0  0
  -28.4102  -21.8675   19.6915 C   0  0  0  0  0  0  0  0  0  0  0  0
  -17.3908  -25.3673   21.3064 C   0  0  0  0  0  0  0  0  0  0  0  0
  -16.3835  -22.8251   21.8588 C   0  0  0  0  0  0  0  0  0  0  0  0
  -17.3144  -24.4120   20.2929 C   0  0  0  0  0  0  0  0  0  0  0  0
  -22.4184  -28.2946   23.8622 C   0  0  0  0  0  0  0  0  0  0  0  0
  -31.0071  -29.2421   19.7089 C   0  0  0  0  0  0  0  0  0  0  0  0
  -23.8944  -28.7208   25.4354 C   0  0  0  0  0  0  0  0  0  0  0  0
  -30.9285  -27.7446   18.0005 C   0  0  0  0  0  0  0  0  0  0  0  0
  -21.8271  -27.5848   26.2626 C   0  0  0  0  0  0  0  0  0  0  0  0
  -25.6110  -17.2865   20.4932 C   0  0  0  0  0  0  0  0  0  0  0  0
  -23.4384  -19.0272   22.1581 C   0  0  0  0  0  0  0  0  0  0  0  0
  -30.4862  -25.2888   18.3436 C   0  0  0  0  0  0  0  0  0  0  0  0
  -22.4485  -22.0798   23.3196 C   0  0  0  0  0  0  0  0  0  0  0  0
  -28.5072  -29.3961   21.8130 C   0  0  0  0  0  0  0  0  0  0  0  0
  -22.7776  -13.0942   19.8194 C   0  0  0  0  0  0  0  0  0  0  0  0
  -27.0960  -18.5468   22.0939 C   0  0  0  0  0  0  0  0  0  0  0  0
  -25.1206  -20.3251   20.7976 C   0  0  0  0  0  0  0  0  0  0  0  0
  -22.5495  -14.5982   19.6918 C   0  0  0  0  0  0  0  0  0  0  0  0
  -26.8262  -32.0413   23.6226 C   0  0  0  0  0  0  0  0  0  0  0  0
  -23.6670  -15.2402   18.8758 C   0  0  0  0  0  0  0  0  0  0  0  0
  -25.5185  -31.3543   24.0204 C   0  0  0  0  0  0  0  0  0  0  0  0
  -27.2756  -31.6102   22.2296 C   0  0  0  0  0  0  0  0  0  0  0  0
  -26.1137  -29.4484   22.4541 C   0  0  0  0  0  0  0  0  0  0  0  0
  -25.0265  -15.0550   19.5606 C   0  0  1  0  0  0  0  0  0  0  0  0
  -25.6817  -18.0752   21.7701 C   0  0  1  0  0  0  0  0  0  0  0  0
  -25.6180  -29.8255   23.8620 C   0  0  2  0  0  0  0  0  0  0  0  0
  -20.6111  -23.1927   24.6167 C   0  0  0  0  0  0  0  0  0  0  0  0
  -21.6107  -18.8441   19.7217 C   0  0  0  0  0  0  0  0  0  0  0  0
  -20.2549  -20.7155   20.6850 C   0  0  0  0  0  0  0  0  0  0  0  0
  -20.4518  -18.5566   21.9192 C   0  0  0  0  0  0  0  0  0  0  0  0
  -24.3235  -22.9841   25.4232 C   0  0  0  0  0  0  0  0  0  0  0  0
  -30.9031  -29.5015   21.1762 C   0  0  0  0  0  0  0  0  0  0  0  0
  -30.3676  -24.0458   17.4692 C   0  0  0  0  0  0  0  0  0  0  0  0
  -30.0783  -22.7814   18.2639 C   0  0  0  0  0  0  0  0  0  1  0  0
  -22.4442  -20.1093   21.8123 C   0  0  1  0  0  0  0  0  0  0  0  0
  -21.9788  -22.5320   24.6904 C   0  0  2  0  0  0  0  0  0  0  0  0
  -21.2182  -19.5597   21.0297 C   0  0  0  0  0  0  0  0  0  0  0  0
  -31.1762  -28.6628   17.0471 N   0  0  0  0  0  0  0  0  0  0  0  0
  -23.4273  -28.8912   23.2217 N   0  0  0  0  0  0  0  0  0  0  0  0
  -30.8319  -27.9601   19.3263 N   0  0  0  0  0  0  0  0  0  0  0  0
  -24.3093  -29.1384   24.2051 N   0  0  0  0  0  0  0  0  0  0  0  0
  -24.7323  -19.1826   21.6411 N   0  0  0  0  0  0  0  0  0  0  0  0
  -27.3681  -30.1455   22.1511 N   0  0  0  0  0  0  0  0  0  0  0  0
  -31.4455  -31.6005   19.2458 N   0  0  0  0  0  0  0  0  0  0  0  0
  -24.6593  -28.8909   26.5347 N   0  0  0  0  0  0  0  0  0  0  0  0
  -20.5831  -27.0555   25.8928 N   0  0  0  0  0  0  0  0  0  0  0  0
  -30.7505  -26.4107   17.5625 N   0  0  0  0  0  0  0  0  0  0  0  0
  -25.1707  -15.9871   20.6583 N   0  0  0  0  0  0  0  0  0  0  0  0
  -22.1045  -20.7683   23.0688 N   0  0  0  0  0  0  0  0  0  0  0  0
  -29.6520  -30.1324   21.5336 N   0  0  0  0  0  0  0  0  0  0  0  0
  -22.9422  -23.5094   25.2716 N   0  3  0  0  0  0  0  0  0  0  0  0
  -22.1733  -27.5547   27.4679 O   0  0  0  0  0  0  0  0  0  0  0  0
  -25.9307  -17.8179   19.4363 O   0  0  0  0  0  0  0  0  0  0  0  0
  -23.0820  -18.0827   22.8670 O   0  0  0  0  0  0  0  0  0  0  0  0
  -30.3573  -25.2442   19.5625 O   0  0  0  0  0  0  0  0  0  0  0  0
  -23.0562  -22.8174   22.5468 O   0  0  0  0  0  0  0  0  0  0  0  0
  -28.5057  -28.1611   21.7686 O   0  0  0  0  0  0  0  0  0  0  0  0
  -17.8913  -26.6294   21.0340 O   0  0  0  0  0  0  0  0  0  0  0  0
  -28.8274  -22.9201   18.9366 O   0  0  0  0  0  0  0  0  0  1  0  0
  -15.9012  -21.6040   22.1245 F   0  0  0  0  0  0  0  0  0  0  0  0
  -17.7245  -24.7092   19.0522 F   0  0  0  0  0  0  0  0  0  0  0  0
  1  2  1  0  0  0  0
  1  5  2  0  0  0  0
  2  6  2  0  0  0  0
  3  8  2  0  0  0  0
  3 16  1  0  0  0  0
  4  9  1  0  0  0  0
  4 16  2  0  0  0  0
  5 18  1  0  0  0  0
  6 20  1  0  0  0  0
  7 10  2  0  0  0  0
  7 19  1  0  0  0  0
  8 23  1  0  0  0  0
  9 23  2  0  0  0  0
 10 24  1  0  0  0  0
 11 12  2  0  0  0  0
 11 25  1  0  0  0  0
 12 26  1  0  0  0  0
 13 21  1  0  0  0  0
 13 24  2  0  0  0  0
 14 26  2  0  0  0  0
 14 27  1  0  0  0  0
 15 22  1  0  0  0  0
 15 61  2  0  0  0  0
 16 28  1  0  0  0  0
 17 28  1  0  0  0  0
 17 30  2  0  0  0  0
 17 32  1  0  0  0  0
 18 20  2  0  0  0  0
 18 38  1  0  0  0  0
 19 21  2  0  0  0  0
 19 39  1  0  0  0  0
 20 47  1  0  0  0  0
 21 40  1  0  0  0  0
 22 29  2  0  0  0  0
 22 67  1  0  0  0  0
 23 81  1  0  0  0  0
 24 82  1  0  0  0  0
 25 27  2  0  0  0  0
 25 81  1  0  0  0  0
 26 83  1  0  0  0  0
 27 84  1  0  0  0  0
 28 62  2  0  0  0  0
 29 55  1  0  0  0  0
 29 63  1  0  0  0  0
 30 64  1  0  0  0  0
 30 68  1  0  0  0  0
 31 61  1  0  0  0  0
 31 63  2  0  0  0  0
 31 70  1  0  0  0  0
 32 69  1  0  0  0  0
 32 75  2  0  0  0  0
 33 48  1  0  0  0  0
 33 71  1  0  0  0  0
 33 76  2  0  0  0  0
 34 58  1  0  0  0  0
 34 65  1  0  0  0  0
 34 77  2  0  0  0  0
 35 56  1  0  0  0  0
 35 70  1  0  0  0  0
 35 78  2  0  0  0  0
 36 59  1  0  0  0  0
 36 72  1  0  0  0  0
 36 79  2  0  0  0  0
 37 66  1  0  0  0  0
 37 73  1  0  0  0  0
 37 80  2  0  0  0  0
 38 41  1  0  0  0  0
 39 48  1  0  0  0  0
 40 65  1  0  0  0  0
 41 43  1  0  0  0  0
 42 44  1  0  0  0  0
 42 45  1  0  0  0  0
 43 47  1  0  0  0  0
 44 49  1  0  0  0  0
 45 66  1  0  0  0  0
 46 49  1  0  0  0  0
 46 66  1  0  0  0  0
 47 71  1  0  0  0  0
 48 65  1  0  0  0  0
 49 64  1  0  0  0  0
 50 59  1  0  0  0  0
 51 60  1  0  0  0  0
 52 60  1  0  0  0  0
 53 60  1  0  0  0  0
 54 74  1  0  0  0  0
 55 73  1  0  0  0  0
 56 57  1  0  0  0  0
 57 82  1  0  0  0  0
 58 60  1  0  0  0  0
 58 72  1  0  0  0  0
 59 74  1  0  0  0  0
 62 64  1  0  0  0  0
M  CHG  1  74   1
M  ISO  4  37 100  57 101  73 100  82 101
M  END
> <Batch ID>
0199

> <Smiles>
CNC(C)C(=O)NC(C(=O)N1Cc2cc([101O:1][101CH2:1]CC(=O)Nc3ncc(N)c(C[100NH:0][100C:0](=O)N4CCCC(n5nc(-c6ccc(Oc7ccc(F)cc7F)cc6)c(C(N)=O)c5N)C4)n3)ccc2CC1C(=O)NC1CCCc2ccccc21)C(C)(C)C

> <Shape>
0.205

> <Color>
0.083

> <Negative vol penalty>
0.000

$$$$

  -OEChem-04052305473D

 86 94  0     1  0  0  0  0  0999 V2000
  -16.9163  -30.5646   23.4266 C   0  0  0  0  0  0  0  0  0  0  0  0
  -18.1172  -31.1728   23.7775 C   0  0  0  0  0  0  0  0  0  0  0  0
  -35.1940  -24.7178   20.4217 C   0  0  0  0  0  0  0  0  0  0  0  0
  -34.1682  -23.9913   22.4850 C   0  0  0  0  0  0  0  0  0  0  0  0
  -16.9060  -29.2348   23.0074 C   0  0  0  0  0  0  0  0  0  0  0  0
  -19.3086  -30.4513   23.7104 C   0  0  0  0  0  0  0  0  0  0  0  0
  -24.8372  -32.6062   22.1947 C   0  0  0  0  0  0  0  0  0  0  0  0
  -35.9225  -23.5297   20.3655 C   0  0  0  0  0  0  0  0  0  0  0  0
  -34.8967  -22.8031   22.4288 C   0  0  0  0  0  0  0  0  0  0  0  0
  -25.9291  -33.0101   22.9618 C   0  0  0  0  0  0  0  0  0  0  0  0
  -38.6911  -22.2353   21.8092 C   0  0  0  0  0  0  0  0  0  0  0  0
  -40.0465  -22.3215   21.4912 C   0  0  0  0  0  0  0  0  0  0  0  0
  -26.9118  -30.8222   22.7041 C   0  0  0  0  0  0  0  0  0  0  0  0
  -39.6795  -20.9303   19.5503 C   0  0  0  0  0  0  0  0  0  0  0  0
  -34.3169  -24.9486   21.4815 C   0  0  0  0  0  0  0  0  0  0  0  0
  -32.2905  -26.4193   20.9930 C   0  0  0  0  0  0  0  0  0  0  0  0
  -18.0991  -28.4996   22.9260 C   0  0  0  0  0  0  0  0  0  0  0  0
  -24.7692  -31.3016   21.6848 C   0  0  0  0  0  0  0  0  0  0  0  0
  -19.3142  -29.1101   23.2910 C   0  0  0  0  0  0  0  0  0  0  0  0
  -25.8192  -30.4050   21.9287 C   0  0  0  0  0  0  0  0  0  0  0  0
  -31.6499  -31.6982   27.9468 C   0  0  0  0  0  0  0  0  0  0  0  0
  -35.7739  -22.5723   21.3690 C   0  0  0  0  0  0  0  0  0  0  0  0
  -26.9653  -32.1172   23.2190 C   0  0  0  0  0  0  0  0  0  0  0  0
  -37.8299  -21.4966   20.9978 C   0  0  0  0  0  0  0  0  0  0  0  0
  -40.5407  -21.6690   20.3617 C   0  0  0  0  0  0  0  0  0  0  0  0
  -38.3241  -20.8441   19.8683 C   0  0  0  0  0  0  0  0  0  0  0  0
  -33.5645  -26.1760   21.5404 C   0  0  0  0  0  0  0  0  0  0  0  0
  -30.6996  -31.3478   28.9480 C   0  0  0  0  0  0  0  0  0  0  0  0
  -32.0203  -27.7258   21.3196 C   0  0  0  0  0  0  0  0  0  0  0  0
  -32.2657  -30.5651   27.4613 C   0  0  0  0  0  0  0  0  0  0  0  0
  -31.4285  -25.5428   20.2552 C   0  0  0  0  0  0  0  0  0  0  0  0
  -22.7911  -28.8434   22.0692 C   0  0  0  0  0  0  0  0  0  0  0  0
  -24.6083  -27.5177   19.7320 C   0  0  0  0  0  0  0  0  0  0  0  0
  -27.5990  -27.4214   18.0909 C   0  0  0  0  0  0  0  0  0  0  0  0
  -33.9136  -31.3119   25.7083 C   0  0  0  0  0  0  0  0  0  0  0  0
  -18.0321  -27.0507   22.5125 C   0  0  0  0  0  0  0  0  0  0  0  0
  -23.5972  -30.8897   20.8368 C   0  0  0  0  0  0  0  0  0  0  0  0
  -25.8039  -28.9996   21.3873 C   0  0  0  0  0  0  0  0  0  0  0  0
  -19.3850  -26.4688   22.1108 C   0  0  0  0  0  0  0  0  0  0  0  0
  -34.2064  -31.8930   22.2077 C   0  0  0  0  0  0  0  0  0  0  0  0
  -20.4532  -26.8467   23.1321 C   0  0  0  0  0  0  0  0  0  0  0  0
  -33.9530  -30.5163   21.5892 C   0  0  0  0  0  0  0  0  0  0  0  0
  -34.9851  -31.7915   23.5181 C   0  0  0  0  0  0  0  0  0  0  0  0
  -34.1547  -29.5030   23.8957 C   0  0  0  0  0  0  0  0  0  0  0  0
  -20.6304  -28.3680   23.2078 C   0  0  1  0  0  0  0  0  0  0  0  0
  -23.3888  -29.3789   20.7989 C   0  0  1  0  0  0  0  0  0  0  0  0
  -33.3171  -29.5495   22.6073 C   0  0  2  0  0  0  0  0  0  0  0  0
  -29.8479  -32.3019   29.6930 C   0  0  0  0  0  0  0  0  0  0  0  0
  -28.7980  -26.2076   16.2507 C   0  0  0  0  0  0  0  0  0  0  0  0
  -31.2542  -36.2699   28.8700 C   0  0  0  0  0  0  0  0  0  0  0  0
  -32.8892  -37.2397   27.2438 C   0  0  0  0  0  0  0  0  0  0  0  0
  -25.0174  -25.1247   21.5803 C   0  0  0  0  0  0  0  0  0  0  0  0
  -26.9307  -24.4187   20.1282 C   0  0  0  0  0  0  0  0  0  0  0  0
  -24.6257  -24.5352   19.1817 C   0  0  0  0  0  0  0  0  0  0  0  0
  -27.9327  -29.9033   16.5136 C   0  0  0  0  0  0  0  0  0  0  0  0
  -29.3000  -32.1176   25.9935 C   0  0  0  0  0  0  0  0  0  0  0  0
  -30.3494  -33.1896   25.6658 C   0  0  0  0  0  0  0  0  0  0  0  0
  -31.5727  -35.2079   26.5681 C   0  0  0  0  0  0  0  0  0  0  0  0
  -28.6916  -31.5064   24.7364 C   0  0  0  0  0  0  0  0  0  1  0  0
  -25.8627  -26.6785   19.6996 C   0  0  1  0  0  0  0  0  0  0  0  0
  -27.9358  -27.4074   16.6108 C   0  0  2  0  0  0  0  0  0  0  0  0
  -32.2409  -35.9469   27.7473 C   0  0  0  0  0  0  0  0  0  0  0  0
  -30.9266  -33.8572   26.9262 C   0  0  2  0  0  0  0  0  0  0  0  0
  -25.6088  -25.2151   20.1594 C   0  0  0  0  0  0  0  0  0  0  0  0
  -34.0686  -27.2424   22.1671 N   0  0  0  0  0  0  0  0  0  0  0  0
  -30.5668  -30.0553   29.2361 N   0  0  0  0  0  0  0  0  0  0  0  0
  -33.1066  -28.1684   22.0154 N   0  0  0  0  0  0  0  0  0  0  0  0
  -24.6333  -28.6423   20.5690 N   0  0  0  0  0  0  0  0  0  0  0  0
  -34.3214  -30.8619   24.4347 N   0  0  0  0  0  0  0  0  0  0  0  0
  -30.9618  -28.5276   21.0765 N   0  0  0  0  0  0  0  0  0  0  0  0
  -31.8610  -24.2327   20.0080 N   0  0  0  0  0  0  0  0  0  0  0  0
  -31.9200  -32.9857   27.5201 N   0  0  0  0  0  0  0  0  0  0  0  0
  -33.2641  -30.3485   26.4795 N   0  0  0  0  0  0  0  0  0  0  0  0
  -21.4093  -28.8426   22.0842 N   0  0  0  0  0  0  0  0  0  0  0  0
  -26.3974  -26.7956   18.3472 N   0  0  0  0  0  0  0  0  0  0  0  0
  -28.6743  -28.6463   16.2358 N   0  3  0  0  0  0  0  0  0  0  0  0
  -30.3151  -25.9153   19.8137 O   0  0  0  0  0  0  0  0  0  0  0  0
  -23.5288  -28.4579   22.9686 O   0  0  0  0  0  0  0  0  0  0  0  0
  -23.6444  -27.1916   19.0348 O   0  0  0  0  0  0  0  0  0  0  0  0
  -28.3306  -27.9328   18.9357 O   0  0  0  0  0  0  0  0  0  0  0  0
  -34.1006  -32.4745   26.0763 O   0  0  0  0  0  0  0  0  0  0  0  0
  -36.4844  -21.4127   21.3144 O   0  0  0  0  0  0  0  0  0  0  0  0
  -28.0399  -32.5117   23.9736 O   0  0  0  0  0  0  0  0  0  1  0  0
  -41.8420  -21.7531   20.0556 F   0  0  0  0  0  0  0  0  0  0  0  0
  -37.5014  -20.1339   19.0843 F   0  0  0  0  0  0  0  0  0  0  0  0
  -31.6208  -29.2027   28.2747 S   0  0  0  0  0  0  0  0  0  0  0  0
  1  2  1  0  0  0  0
  1  5  2  0  0  0  0
  2  6  2  0  0  0  0
  3  8  2  0  0  0  0
  3 15  1  0  0  0  0
  4  9  1  0  0  0  0
  4 15  2  0  0  0  0
  5 17  1  0  0  0  0
  6 19  1  0  0  0  0
  7 10  2  0  0  0  0
  7 18  1  0  0  0  0
  8 22  1  0  0  0  0
  9 22  2  0  0  0  0
 10 23  1  0  0  0  0
 11 12  2  0  0  0  0
 11 24  1  0  0  0  0
 12 25  1  0  0  0  0
 13 20  1  0  0  0  0
 13 23  2  0  0  0  0
 14 25  2  0  0  0  0
 14 26  1  0  0  0  0
 15 27  1  0  0  0  0
 16 27  1  0  0  0  0
 16 29  2  0  0  0  0
 16 31  1  0  0  0  0
 17 19  2  0  0  0  0
 17 36  1  0  0  0  0
 18 20  2  0  0  0  0
 18 37  1  0  0  0  0
 19 45  1  0  0  0  0
 20 38  1  0  0  0  0
 21 28  1  0  0  0  0
 21 30  2  0  0  0  0
 21 72  1  0  0  0  0
 22 82  1  0  0  0  0
 23 83  1  0  0  0  0
 24 26  2  0  0  0  0
 24 82  1  0  0  0  0
 25 84  1  0  0  0  0
 26 85  1  0  0  0  0
 27 65  2  0  0  0  0
 28 48  1  0  0  0  0
 28 66  2  0  0  0  0
 29 67  1  0  0  0  0
 29 70  1  0  0  0  0
 30 73  1  0  0  0  0
 30 86  1  0  0  0  0
 31 71  1  0  0  0  0
 31 77  2  0  0  0  0
 32 46  1  0  0  0  0
 32 74  1  0  0  0  0
 32 78  2  0  0  0  0
 33 60  1  0  0  0  0
 33 68  1  0  0  0  0
 33 79  2  0  0  0  0
 34 61  1  0  0  0  0
 34 75  1  0  0  0  0
 34 80  2  0  0  0  0
 35 69  1  0  0  0  0
 35 73  1  0  0  0  0
 35 81  2  0  0  0  0
 36 39  1  0  0  0  0
 37 46  1  0  0  0  0
 38 68  1  0  0  0  0
 39 41  1  0  0  0  0
 40 42  1  0  0  0  0
 40 43  1  0  0  0  0
 41 45  1  0  0  0  0
 42 47  1  0  0  0  0
 43 69  1  0  0  0  0
 44 47  1  0  0  0  0
 44 69  1  0  0  0  0
 45 74  1  0  0  0  0
 46 68  1  0  0  0  0
 47 67  1  0  0  0  0
 49 61  1  0  0  0  0
 50 62  1  0  0  0  0
 51 62  1  0  0  0  0
 52 64  1  0  0  0  0
 53 64  1  0  0  0  0
 54 64  1  0  0  0  0
 55 76  1  0  0  0  0
 56 57  1  0  0  0  0
 56 59  1  0  0  0  0
 57 63  1  0  0  0  0
 58 62  1  0  0  0  0
 58 63  1  0  0  0  0
 59 83  1  0  0  0  0
 60 64  1  0  0  0  0
 60 75  1  0  0  0  0
 61 76  1  0  0  0  0
 63 72  1  0  0  0  0
 65 67  1  0  0  0  0
 66 86  1  0  0  0  0
M  CHG  1  76   1
M  ISO  4  35 100  59 101  73 100  83 101
M  END
> <Batch ID>
0199

> <Smiles>
CNC(C)C(=O)NC(C(=O)N1Cc2cc([101O:1][101CH2:1]CCC(CC(C)C)Nc3c(C)nsc3[100NH:0][100C:0](=O)N3CCCC(n4nc(-c5ccc(Oc6ccc(F)cc6F)cc5)c(C(N)=O)c4N)C3)ccc2CC1C(=O)NC1CCCc2ccccc21)C(C)(C)C

> <Shape>
0.172

> <Color>
0.089

> <Negative vol penalty>
0.000

$$$$

  -OEChem-04052305473D

 82 90  0     1  0  0  0  0  0999 V2000
  -20.4813  -34.1743   20.8562 C   0  0  0  0  0  0  0  0  0  0  0  0
  -21.6453  -33.5061   20.4903 C   0  0  0  0  0  0  0  0  0  0  0  0
  -23.8097   -9.8419   21.7871 C   0  0  0  0  0  0  0  0  0  0  0  0
  -24.5020  -11.0848   23.7398 C   0  0  0  0  0  0  0  0  0  0  0  0
  -19.7526  -33.7465   21.9652 C   0  0  0  0  0  0  0  0  0  0  0  0
  -22.0820  -32.4103   21.2339 C   0  0  0  0  0  0  0  0  0  0  0  0
  -24.9210  -27.4164   19.1110 C   0  0  0  0  0  0  0  0  0  0  0  0
  -28.8315  -20.5474   19.7801 C   0  0  0  0  0  0  0  0  0  0  0  0
  -23.3187   -8.8263   22.6076 C   0  0  0  0  0  0  0  0  0  0  0  0
  -24.0109  -10.0693   24.5603 C   0  0  0  0  0  0  0  0  0  0  0  0
  -26.2651  -27.0485   19.0679 C   0  0  0  0  0  0  0  0  0  0  0  0
  -20.5723   -8.2590   24.4966 C   0  0  0  0  0  0  0  0  0  0  0  0
  -19.3148   -7.7349   24.1974 C   0  0  0  0  0  0  0  0  0  0  0  0
  -28.6345  -19.1916   20.0173 C   0  0  0  0  0  0  0  0  0  0  0  0
  -25.9818  -25.7970   21.1106 C   0  0  0  0  0  0  0  0  0  0  0  0
  -20.2973   -5.5480   23.8990 C   0  0  0  0  0  0  0  0  0  0  0  0
  -30.9042  -20.0118   18.7440 C   0  0  0  0  0  0  0  0  0  0  0  0
  -24.4014  -10.9711   22.3532 C   0  0  0  0  0  0  0  0  0  0  0  0
  -24.2092  -13.1478   21.0369 C   0  0  0  0  0  0  0  0  0  0  0  0
  -20.1753  -32.6389   22.7171 C   0  0  0  0  0  0  0  0  0  0  0  0
  -24.0984  -26.9855   20.1618 C   0  0  0  0  0  0  0  0  0  0  0  0
  -21.3590  -31.9681   22.3548 C   0  0  0  0  0  0  0  0  0  0  0  0
  -24.6270  -26.1587   21.1634 C   0  0  0  0  0  0  0  0  0  0  0  0
  -29.9853  -20.9736   19.1318 C   0  0  0  0  0  0  0  0  0  0  0  0
  -23.4193   -8.9400   23.9941 C   0  0  0  0  0  0  0  0  0  0  0  0
  -26.7964  -26.2411   20.0694 C   0  0  0  0  0  0  0  0  0  0  0  0
  -21.6924   -7.4276   24.4970 C   0  0  0  0  0  0  0  0  0  0  0  0
  -19.1773   -6.3794   23.8986 C   0  0  0  0  0  0  0  0  0  0  0  0
  -21.5549   -6.0721   24.1982 C   0  0  0  0  0  0  0  0  0  0  0  0
  -24.9093  -12.0203   21.5062 C   0  0  0  0  0  0  0  0  0  0  0  0
  -29.6138  -18.3095   19.5896 C   0  0  0  0  0  0  0  0  0  0  0  0
  -25.1277  -13.8308   20.2777 C   0  0  0  0  0  0  0  0  0  0  0  0
  -22.8502  -13.5426   21.2669 C   0  0  0  0  0  0  0  0  0  0  0  0
  -22.4428  -28.4370   22.4544 C   0  0  0  0  0  0  0  0  0  0  0  0
  -21.3832  -25.4304   23.0544 C   0  0  0  0  0  0  0  0  0  0  0  0
  -21.9195  -22.0684   22.8179 C   0  0  0  0  0  0  0  0  0  0  0  0
  -30.2485  -15.8733   19.4982 C   0  0  0  0  0  0  0  0  0  0  0  0
  -19.3801  -32.2426   23.9358 C   0  0  0  0  0  0  0  0  0  0  0  0
  -22.6442  -27.3691   20.1795 C   0  0  0  0  0  0  0  0  0  0  0  0
  -23.7812  -25.6528   22.3023 C   0  0  0  0  0  0  0  0  0  0  0  0
  -19.7082  -30.8427   24.4485 C   0  0  0  0  0  0  0  0  0  0  0  0
  -29.7155  -12.4602   18.6359 C   0  0  0  0  0  0  0  0  0  0  0  0
  -21.2185  -30.6382   24.5129 C   0  0  0  0  0  0  0  0  0  0  0  0
  -28.3600  -12.1342   19.2672 C   0  0  0  0  0  0  0  0  0  0  0  0
  -30.5364  -13.4051   19.5117 C   0  0  0  0  0  0  0  0  0  0  0  0
  -28.4908  -14.3124   20.5421 C   0  0  0  0  0  0  0  0  0  0  0  0
  -21.8516  -30.7600   23.1216 C   0  0  1  0  0  0  0  0  0  0  0  0
  -22.0238  -27.2958   21.5713 C   0  0  1  0  0  0  0  0  0  0  0  0
  -27.6014  -13.4153   19.6660 C   0  0  2  0  0  0  0  0  0  0  0  0
  -20.8945  -19.8620   23.4331 C   0  0  0  0  0  0  0  0  0  0  0  0
  -22.2548  -25.8356   25.9502 C   0  0  0  0  0  0  0  0  0  0  0  0
  -22.1003  -23.3574   26.2704 C   0  0  0  0  0  0  0  0  0  0  0  0
  -20.0616  -24.6658   25.6749 C   0  0  0  0  0  0  0  0  0  0  0  0
  -21.7188  -21.2400   19.9838 C   0  0  0  0  0  0  0  0  0  0  0  0
  -29.2877  -23.3658   19.2605 C   0  0  0  0  0  0  0  0  0  0  0  0
  -28.7105  -25.7613   18.7420 C   0  0  0  0  0  0  0  0  0  1  0  0
  -21.8466  -24.2874   23.9248 C   0  0  1  0  0  0  0  0  0  0  0  0
  -21.0192  -20.9344   22.3620 C   0  0  2  0  0  0  0  0  0  0  0  0
  -29.8251  -24.7230   18.8109 C   0  0  1  0  0  0  0  0  0  0  0  0
  -21.5825  -24.5475   25.4348 C   0  0  0  0  0  0  0  0  0  0  0  0
  -30.7476  -18.6860   18.9569 N   0  0  0  0  0  0  0  0  0  0  0  0
  -26.1748  -11.9851   21.0805 N   0  0  0  0  0  0  0  0  0  0  0  0
  -26.2772  -13.0991   20.3357 N   0  0  0  0  0  0  0  0  0  0  0  0
  -22.3667  -26.0604   22.2787 N   0  0  0  0  0  0  0  0  0  0  0  0
  -29.7552  -14.5980   19.8460 N   0  0  0  0  0  0  0  0  0  0  0  0
  -25.0560  -14.9798   19.5726 N   0  0  0  0  0  0  0  0  0  0  0  0
  -22.0442  -12.7259   22.0716 N   0  0  0  0  0  0  0  0  0  0  0  0
  -30.2079  -22.3171   18.8814 N   0  0  0  0  0  0  0  0  0  0  0  0
  -29.4044  -16.9302   19.8373 N   0  0  0  0  0  0  0  0  0  0  0  0
  -21.6303  -29.5506   22.3581 N   0  0  0  0  0  0  0  0  0  0  0  0
  -21.1995  -23.0885   23.4029 N   0  0  0  0  0  0  0  0  0  0  0  0
  -21.5654  -20.3038   21.1271 N   0  3  0  0  0  0  0  0  0  0  0  0
  -22.3602  -14.5802   20.7599 O   0  0  0  0  0  0  0  0  0  0  0  0
  -23.4293  -28.3157   23.1711 O   0  0  0  0  0  0  0  0  0  0  0  0
  -20.1912  -25.7479   23.0570 O   0  0  0  0  0  0  0  0  0  0  0  0
  -23.1399  -22.0494   22.6732 O   0  0  0  0  0  0  0  0  0  0  0  0
  -31.3270  -16.0154   18.9162 O   0  0  0  0  0  0  0  0  0  0  0  0
  -30.7888  -25.1820   19.7611 O   0  0  0  0  0  0  0  0  0  0  0  0
  -22.9400   -7.9493   24.7951 O   0  0  0  0  0  0  0  0  0  0  0  0
  -28.1082  -25.8811   20.0301 O   0  0  0  0  0  0  0  0  0  1  0  0
  -17.9694   -5.8759   23.6128 F   0  0  0  0  0  0  0  0  0  0  0  0
  -22.6270   -5.2682   24.1982 F   0  0  0  0  0  0  0  0  0  0  0  0
  1  2  1  0  0  0  0
  1  5  2  0  0  0  0
  2  6  2  0  0  0  0
  3  9  2  0  0  0  0
  3 18  1  0  0  0  0
  4 10  1  0  0  0  0
  4 18  2  0  0  0  0
  5 20  1  0  0  0  0
  6 22  1  0  0  0  0
  7 11  2  0  0  0  0
  7 21  1  0  0  0  0
  8 14  2  0  0  0  0
  8 24  1  0  0  0  0
  9 25  1  0  0  0  0
 10 25  2  0  0  0  0
 11 26  1  0  0  0  0
 12 13  2  0  0  0  0
 12 27  1  0  0  0  0
 13 28  1  0  0  0  0
 14 31  1  0  0  0  0
 15 23  1  0  0  0  0
 15 26  2  0  0  0  0
 16 28  2  0  0  0  0
 16 29  1  0  0  0  0
 17 24  2  0  0  0  0
 17 61  1  0  0  0  0
 18 30  1  0  0  0  0
 19 30  1  0  0  0  0
 19 32  2  0  0  0  0
 19 33  1  0  0  0  0
 20 22  2  0  0  0  0
 20 38  1  0  0  0  0
 21 23  2  0  0  0  0
 21 39  1  0  0  0  0
 22 47  1  0  0  0  0
 23 40  1  0  0  0  0
 24 68  1  0  0  0  0
 25 79  1  0  0  0  0
 26 80  1  0  0  0  0
 27 29  2  0  0  0  0
 27 79  1  0  0  0  0
 28 81  1  0  0  0  0
 29 82  1  0  0  0  0
 30 62  2  0  0  0  0
 31 61  2  0  0  0  0
 31 69  1  0  0  0  0
 32 63  1  0  0  0  0
 32 66  1  0  0  0  0
 33 67  1  0  0  0  0
 33 73  2  0  0  0  0
 34 48  1  0  0  0  0
 34 70  1  0  0  0  0
 34 74  2  0  0  0  0
 35 57  1  0  0  0  0
 35 64  1  0  0  0  0
 35 75  2  0  0  0  0
 36 58  1  0  0  0  0
 36 71  1  0  0  0  0
 36 76  2  0  0  0  0
 37 65  1  0  0  0  0
 37 69  1  0  0  0  0
 37 77  2  0  0  0  0
 38 41  1  0  0  0  0
 39 48  1  0  0  0  0
 40 64  1  0  0  0  0
 41 43  1  0  0  0  0
 42 44  1  0  0  0  0
 42 45  1  0  0  0  0
 43 47  1  0  0  0  0
 44 49  1  0  0  0  0
 45 65  1  0  0  0  0
 46 49  1  0  0  0  0
 46 65  1  0  0  0  0
 47 70  1  0  0  0  0
 48 64  1  0  0  0  0
 49 63  1  0  0  0  0
 50 58  1  0  0  0  0
 51 60  1  0  0  0  0
 52 60  1  0  0  0  0
 53 60  1  0  0  0  0
 54 72  1  0  0  0  0
 55 59  1  0  0  0  0
 55 68  1  0  0  0  0
 56 59  1  0  0  0  0
 56 80  1  0  0  0  0
 57 60  1  0  0  0  0
 57 71  1  0  0  0  0
 58 72  1  0  0  0  0
 59 78  1  0  0  0  0
 62 63  1  0  0  0  0
M  CHG  1  72   1
M  ISO  4  37 100  56 101  69 100  80 101
M  END
> <Batch ID>
0199

> <Smiles>
CNC(C)C(=O)NC(C(=O)N1Cc2cc([101O:1][101CH2:1]C(O)CNc3ccc([100NH:0][100C:0](=O)N4CCCC(n5nc(-c6ccc(Oc7ccc(F)cc7F)cc6)c(C(N)=O)c5N)C4)nc3)ccc2CC1C(=O)NC1CCCc2ccccc21)C(C)(C)C

> <Shape>
0.252

> <Color>
0.167

> <Negative vol penalty>
0.000

$$$$

  -OEChem-04052305473D

 83 91  0     1  0  0  0  0  0999 V2000
  -18.4164  -27.0449   18.9616 C   0  0  0  0  0  0  0  0  0  0  0  0
  -19.6348  -27.6920   18.7814 C   0  0  0  0  0  0  0  0  0  0  0  0
  -26.8431  -14.8788   22.3043 C   0  0  0  0  0  0  0  0  0  0  0  0
  -27.6858  -14.9453   20.0411 C   0  0  0  0  0  0  0  0  0  0  0  0
  -17.9520  -26.7816   20.2495 C   0  0  0  0  0  0  0  0  0  0  0  0
  -20.3889  -28.0771   19.8893 C   0  0  0  0  0  0  0  0  0  0  0  0
  -25.3019  -26.9611   19.3781 C   0  0  0  0  0  0  0  0  0  0  0  0
  -26.2821  -13.6257   22.0586 C   0  0  0  0  0  0  0  0  0  0  0  0
  -27.1248  -13.6921   19.7953 C   0  0  0  0  0  0  0  0  0  0  0  0
  -26.0662  -27.8050   18.5736 C   0  0  0  0  0  0  0  0  0  0  0  0
  -24.9366  -10.2495   22.1376 C   0  0  0  0  0  0  0  0  0  0  0  0
  -25.1090   -9.2606   23.1061 C   0  0  0  0  0  0  0  0  0  0  0  0
  -32.2451  -23.6410   19.4912 C   0  0  0  0  0  0  0  0  0  0  0  0
  -26.9034  -28.9158   20.5445 C   0  0  0  0  0  0  0  0  0  0  0  0
  -27.5055   -9.4270   22.8493 C   0  0  0  0  0  0  0  0  0  0  0  0
  -33.2416  -24.5777   19.3067 C   0  0  0  0  0  0  0  0  0  0  0  0
  -27.5450  -15.5387   21.2955 C   0  0  0  0  0  0  0  0  0  0  0  0
  -29.4160  -17.1060   22.0373 C   0  0  0  0  0  0  0  0  0  0  0  0
  -18.7054  -27.1550   21.3736 C   0  0  0  0  0  0  0  0  0  0  0  0
  -25.3243  -27.0955   20.7738 C   0  0  0  0  0  0  0  0  0  0  0  0
  -19.9335  -27.8197   21.1936 C   0  0  0  0  0  0  0  0  0  0  0  0
  -26.1404  -28.0707   21.3646 C   0  0  0  0  0  0  0  0  0  0  0  0
  -26.4229  -13.0323   20.8042 C   0  0  0  0  0  0  0  0  0  0  0  0
  -26.8649  -28.7845   19.1565 C   0  0  0  0  0  0  0  0  0  0  0  0
  -26.0486  -10.8271   21.5249 C   0  0  0  0  0  0  0  0  0  0  0  0
  -26.3935   -8.8494   23.4619 C   0  0  0  0  0  0  0  0  0  0  0  0
  -27.3331  -10.4159   21.8808 C   0  0  0  0  0  0  0  0  0  0  0  0
  -28.1243  -16.8335   21.5485 C   0  0  0  0  0  0  0  0  0  0  0  0
  -30.9629  -24.1432   19.5811 C   0  0  0  0  0  0  0  0  0  0  0  0
  -29.4775  -18.4767   22.0996 C   0  0  0  0  0  0  0  0  0  0  0  0
  -31.7231  -26.2692   19.3180 C   0  0  0  0  0  0  0  0  0  0  0  0
  -30.4665  -16.2011   22.4023 C   0  0  0  0  0  0  0  0  0  0  0  0
  -23.1591  -27.7879   22.9956 C   0  0  0  0  0  0  0  0  0  0  0  0
  -25.5959  -27.1093   25.0263 C   0  0  0  0  0  0  0  0  0  0  0  0
  -28.9623  -26.8804   25.5381 C   0  0  0  0  0  0  0  0  0  0  0  0
  -28.5463  -23.4998   19.8850 C   0  0  0  0  0  0  0  0  0  0  0  0
  -18.1400  -26.8913   22.7467 C   0  0  0  0  0  0  0  0  0  0  0  0
  -24.5146  -26.1597   21.6289 C   0  0  0  0  0  0  0  0  0  0  0  0
  -26.2154  -28.2427   22.8590 C   0  0  0  0  0  0  0  0  0  0  0  0
  -19.1761  -26.9972   23.8628 C   0  0  0  0  0  0  0  0  0  0  0  0
  -25.8395  -21.9625   21.6133 C   0  0  0  0  0  0  0  0  0  0  0  0
  -20.0168  -28.2586   23.6928 C   0  0  0  0  0  0  0  0  0  0  0  0
  -26.2989  -20.5135   21.7908 C   0  0  0  0  0  0  0  0  0  0  0  0
  -26.2874  -22.5392   20.2714 C   0  0  0  0  0  0  0  0  0  0  0  0
  -28.1833  -20.9695   20.1697 C   0  0  0  0  0  0  0  0  0  0  0  0
  -20.7920  -28.2309   22.3700 C   0  0  1  0  0  0  0  0  0  0  0  0
  -24.2186  -26.7226   23.0156 C   0  0  1  0  0  0  0  0  0  0  0  0
  -27.8115  -20.3664   21.5341 C   0  0  2  0  0  0  0  0  0  0  0  0
  -30.6528  -26.3381   27.3117 C   0  0  0  0  0  0  0  0  0  0  0  0
  -31.7532  -30.3344   17.4410 C   0  0  0  0  0  0  0  0  0  0  0  0
  -25.1164  -29.8341   26.3130 C   0  0  0  0  0  0  0  0  0  0  0  0
  -27.3672  -29.6426   27.3926 C   0  0  0  0  0  0  0  0  0  0  0  0
  -25.5829  -27.9843   27.9302 C   0  0  0  0  0  0  0  0  0  0  0  0
  -30.0390  -24.6061   23.9801 C   0  0  0  0  0  0  0  0  0  0  0  0
  -31.4317  -27.7377   19.2197 C   0  0  0  0  0  0  0  0  0  0  0  0
  -29.3862  -29.7658   16.7670 C   0  0  0  0  0  0  0  0  0  0  0  0
  -28.0710  -29.0846   17.1289 C   0  0  0  0  0  0  0  0  0  1  0  0
  -26.7070  -27.9057   25.6669 C   0  0  1  0  0  0  0  0  0  0  0  0
  -29.8139  -25.7922   26.1667 C   0  0  2  0  0  0  0  0  0  0  0  0
  -30.4881  -29.5715   17.8106 C   0  0  1  0  0  0  0  0  0  0  0  0
  -26.1907  -28.8400   26.7974 C   0  0  0  0  0  0  0  0  0  0  0  0
  -33.0154  -25.9047   19.2153 N   0  0  0  0  0  0  0  0  0  0  0  0
  -27.4161  -17.9420   21.3169 N   0  0  0  0  0  0  0  0  0  0  0  0
  -30.6646  -25.4564   19.4986 N   0  0  0  0  0  0  0  0  0  0  0  0
  -28.2659  -18.9244   21.6617 N   0  0  0  0  0  0  0  0  0  0  0  0
  -25.4004  -27.3077   23.6521 N   0  0  0  0  0  0  0  0  0  0  0  0
  -27.7317  -22.3680   20.0996 N   0  0  0  0  0  0  0  0  0  0  0  0
  -30.4491  -19.3307   22.4857 N   0  0  0  0  0  0  0  0  0  0  0  0
  -30.2360  -14.8243   22.2768 N   0  0  0  0  0  0  0  0  0  0  0  0
  -29.9069  -23.2172   19.7685 N   0  0  0  0  0  0  0  0  0  0  0  0
  -21.9481  -27.3673   22.4798 N   0  0  0  0  0  0  0  0  0  0  0  0
  -27.7056  -26.9356   26.1028 N   0  0  0  0  0  0  0  0  0  0  0  0
  -30.7315  -25.2015   25.1519 N   0  3  0  0  0  0  0  0  0  0  0  0
  -30.8370  -28.1272   17.9149 N   0  3  0  0  0  0  0  0  0  0  0  0
  -31.5709  -16.6010   22.8427 O   0  0  0  0  0  0  0  0  0  0  0  0
  -23.4205  -28.9080   23.4182 O   0  0  0  0  0  0  0  0  0  0  0  0
  -24.9309  -26.3343   25.7181 O   0  0  0  0  0  0  0  0  0  0  0  0
  -29.3723  -27.6110   24.6389 O   0  0  0  0  0  0  0  0  0  0  0  0
  -28.0750  -24.6390   19.8372 O   0  0  0  0  0  0  0  0  0  0  0  0
  -25.8758  -11.8093   20.5641 O   0  0  0  0  0  0  0  0  0  0  0  0
  -27.6114  -29.6100   18.3735 O   0  0  0  0  0  0  0  0  0  1  0  0
  -26.5589   -7.9008   24.3931 F   0  0  0  0  0  0  0  0  0  0  0  0
  -28.4053  -10.9680   21.2965 F   0  0  0  0  0  0  0  0  0  0  0  0
  1  2  1  0  0  0  0
  1  5  2  0  0  0  0
  2  6  2  0  0  0  0
  3  8  2  0  0  0  0
  3 17  1  0  0  0  0
  4  9  1  0  0  0  0
  4 17  2  0  0  0  0
  5 19  1  0  0  0  0
  6 21  1  0  0  0  0
  7 10  2  0  0  0  0
  7 20  1  0  0  0  0
  8 23  1  0  0  0  0
  9 23  2  0  0  0  0
 10 24  1  0  0  0  0
 11 12  2  0  0  0  0
 11 25  1  0  0  0  0
 12 26  1  0  0  0  0
 13 16  1  0  0  0  0
 13 29  2  0  0  0  0
 14 22  1  0  0  0  0
 14 24  2  0  0  0  0
 15 26  2  0  0  0  0
 15 27  1  0  0  0  0
 16 62  2  0  0  0  0
 17 28  1  0  0  0  0
 18 28  1  0  0  0  0
 18 30  2  0  0  0  0
 18 32  1  0  0  0  0
 19 21  2  0  0  0  0
 19 37  1  0  0  0  0
 20 22  2  0  0  0  0
 20 38  1  0  0  0  0
 21 46  1  0  0  0  0
 22 39  1  0  0  0  0
 23 80  1  0  0  0  0
 24 81  1  0  0  0  0
 25 27  2  0  0  0  0
 25 80  1  0  0  0  0
 26 82  1  0  0  0  0
 27 83  1  0  0  0  0
 28 63  2  0  0  0  0
 29 64  1  0  0  0  0
 29 70  1  0  0  0  0
 30 65  1  0  0  0  0
 30 68  1  0  0  0  0
 31 55  1  0  0  0  0
 31 62  1  0  0  0  0
 31 64  2  0  0  0  0
 32 69  1  0  0  0  0
 32 75  2  0  0  0  0
 33 47  1  0  0  0  0
 33 71  1  0  0  0  0
 33 76  2  0  0  0  0
 34 58  1  0  0  0  0
 34 66  1  0  0  0  0
 34 77  2  0  0  0  0
 35 59  1  0  0  0  0
 35 72  1  0  0  0  0
 35 78  2  0  0  0  0
 36 67  1  0  0  0  0
 36 70  1  0  0  0  0
 36 79  2  0  0  0  0
 37 40  1  0  0  0  0
 38 47  1  0  0  0  0
 39 66  1  0  0  0  0
 40 42  1  0  0  0  0
 41 43  1  0  0  0  0
 41 44  1  0  0  0  0
 42 46  1  0  0  0  0
 43 48  1  0  0  0  0
 44 67  1  0  0  0  0
 45 48  1  0  0  0  0
 45 67  1  0  0  0  0
 46 71  1  0  0  0  0
 47 66  1  0  0  0  0
 48 65  1  0  0  0  0
 49 59  1  0  0  0  0
 50 60  1  0  0  0  0
 51 61  1  0  0  0  0
 52 61  1  0  0  0  0
 53 61  1  0  0  0  0
 54 73  1  0  0  0  0
 55 74  1  0  0  0  0
 56 57  1  0  0  0  0
 56 60  1  0  0  0  0
 57 81  1  0  0  0  0
 58 61  1  0  0  0  0
 58 72  1  0  0  0  0
 59 73  1  0  0  0  0
 60 74  1  0  0  0  0
 63 65  1  0  0  0  0
M  CHG  2  73   1  74   1
M  ISO  4  36 100  57 101  70 100  81 101
M  END
> <Batch ID>
0199

> <Smiles>
CNC(C)C(=O)NC(C(=O)N1Cc2cc([101O:1][101CH2:1]CC(C)NCc3nccc([100NH:0][100C:0](=O)N4CCCC(n5nc(-c6ccc(Oc7ccc(F)cc7F)cc6)c(C(N)=O)c5N)C4)n3)ccc2CC1C(=O)NC1CCCc2ccccc21)C(C)(C)C

> <Shape>
0.206

> <Color>
0.091

> <Negative vol penalty>
0.000

$$$$

  -OEChem-04052305473D

 81 89  0     1  0  0  0  0  0999 V2000
  -30.3632  -25.0019   17.6411 C   0  0  0  0  0  0  0  0  0  0  0  0
  -28.9831  -24.9458   17.8070 C   0  0  0  0  0  0  0  0  0  0  0  0
  -26.2741  -15.0296   19.2358 C   0  0  0  0  0  0  0  0  0  0  0  0
  -24.0619  -14.9402   20.2029 C   0  0  0  0  0  0  0  0  0  0  0  0
  -31.1574  -25.6046   18.6157 C   0  0  0  0  0  0  0  0  0  0  0  0
  -28.3965  -25.4914   18.9484 C   0  0  0  0  0  0  0  0  0  0  0  0
  -22.9526  -28.2721   19.3190 C   0  0  0  0  0  0  0  0  0  0  0  0
  -26.5168  -13.7266   19.6704 C   0  0  0  0  0  0  0  0  0  0  0  0
  -24.3046  -13.6371   20.6375 C   0  0  0  0  0  0  0  0  0  0  0  0
  -21.6966  -27.8247   19.7267 C   0  0  0  0  0  0  0  0  0  0  0  0
  -24.3333  -10.5327   19.3026 C   0  0  0  0  0  0  0  0  0  0  0  0
  -23.3293   -9.5859   19.0999 C   0  0  0  0  0  0  0  0  0  0  0  0
  -20.4340  -21.7996   23.4637 C   0  0  0  0  0  0  0  0  0  0  0  0
  -22.0999  -28.7194   21.9304 C   0  0  0  0  0  0  0  0  0  0  0  0
  -23.2025   -9.2100   21.4832 C   0  0  0  0  0  0  0  0  0  0  0  0
  -19.6206  -22.6713   24.1457 C   0  0  0  0  0  0  0  0  0  0  0  0
  -25.0466  -15.6364   19.5021 C   0  0  0  0  0  0  0  0  0  0  0  0
  -24.2408  -17.3790   17.8223 C   0  0  0  0  0  0  0  0  0  0  0  0
  -30.5794  -26.1664   19.7650 C   0  0  0  0  0  0  0  0  0  0  0  0
  -23.7975  -28.9380   20.2186 C   0  0  0  0  0  0  0  0  0  0  0  0
  -29.1839  -26.1009   19.9399 C   0  0  0  0  0  0  0  0  0  0  0  0
  -23.3651  -29.1765   21.5309 C   0  0  0  0  0  0  0  0  0  0  0  0
  -25.5321  -13.0304   20.3713 C   0  0  0  0  0  0  0  0  0  0  0  0
  -21.2713  -28.0458   21.0333 C   0  0  0  0  0  0  0  0  0  0  0  0
  -24.7721  -10.8181   20.5956 C   0  0  0  0  0  0  0  0  0  0  0  0
  -22.7638   -8.9246   20.1902 C   0  0  0  0  0  0  0  0  0  0  0  0
  -24.2067  -10.1568   21.6859 C   0  0  0  0  0  0  0  0  0  0  0  0
  -24.7955  -16.9826   19.0540 C   0  0  0  0  0  0  0  0  0  0  0  0
  -21.6401  -22.5051   23.2918 C   0  0  0  0  0  0  0  0  0  0  0  0
  -24.2116  -18.7507   17.8845 C   0  0  0  0  0  0  0  0  0  0  0  0
  -23.7920  -16.5787   16.7205 C   0  0  0  0  0  0  0  0  0  0  0  0
  -26.6749  -28.3611   21.4398 C   0  0  0  0  0  0  0  0  0  0  0  0
  -26.3035  -31.3251   22.7043 C   0  0  0  0  0  0  0  0  0  0  0  0
  -24.1807  -33.8013   23.7087 C   0  0  0  0  0  0  0  0  0  0  0  0
  -24.0028  -22.6278   22.4264 C   0  0  0  0  0  0  0  0  0  0  0  0
  -31.4831  -26.7653   20.8134 C   0  0  0  0  0  0  0  0  0  0  0  0
  -25.1385  -29.4379   19.7557 C   0  0  0  0  0  0  0  0  0  0  0  0
  -24.2260  -29.9043   22.5296 C   0  0  0  0  0  0  0  0  0  0  0  0
  -30.7489  -27.6522   21.8158 C   0  0  0  0  0  0  0  0  0  0  0  0
  -26.4900  -22.4580   19.8844 C   0  0  0  0  0  0  0  0  0  0  0  0
  -29.4806  -26.9633   22.3094 C   0  0  0  0  0  0  0  0  0  0  0  0
  -26.2833  -21.0731   19.2668 C   0  0  0  0  0  0  0  0  0  0  0  0
  -26.2558  -22.4466   21.3939 C   0  0  0  0  0  0  0  0  0  0  0  0
  -24.7613  -20.4977   21.2006 C   0  0  0  0  0  0  0  0  0  0  0  0
  -28.5081  -26.7035   21.1525 C   0  0  1  0  0  0  0  0  0  0  0  0
  -26.1243  -29.6509   20.9004 C   0  0  1  0  0  0  0  0  0  0  0  0
  -24.9227  -20.4728   19.6718 C   0  0  2  0  0  0  0  0  0  0  0  0
  -24.1706  -36.0908   24.7362 C   0  0  0  0  0  0  0  0  0  0  0  0
  -26.9103  -30.1008   25.4325 C   0  0  0  0  0  0  0  0  0  0  0  0
  -25.9689  -32.1653   26.4907 C   0  0  0  0  0  0  0  0  0  0  0  0
  -27.9813  -32.3237   25.0251 C   0  0  0  0  0  0  0  0  0  0  0  0
  -22.8641  -34.9863   21.3378 C   0  0  0  0  0  0  0  0  0  0  0  0
  -18.6765  -25.7177   24.4027 C   0  0  0  0  0  0  0  0  0  0  0  0
  -19.9109  -25.0586   25.0352 C   0  0  0  0  0  0  0  0  0  0  0  0
  -19.9010  -27.2530   22.8081 C   0  0  0  0  0  0  0  0  0  1  0  0
  -25.7215  -31.8765   23.9835 C   0  0  1  0  0  0  0  0  0  0  0  0
  -24.1770  -35.2954   23.4400 C   0  0  2  0  0  0  0  0  0  0  0  0
  -18.8412  -26.1619   22.9431 C   0  0  2  0  0  0  0  0  0  0  0  0
  -26.6298  -31.6011   25.2149 C   0  0  0  0  0  0  0  0  0  0  0  0
  -25.0971  -18.0188   19.8409 N   0  0  0  0  0  0  0  0  0  0  0  0
  -21.6007  -23.7305   23.8216 N   0  0  0  0  0  0  0  0  0  0  0  0
  -20.3600  -23.8019   24.3331 N   0  0  0  0  0  0  0  0  0  0  0  0
  -24.7307  -19.0798   19.1020 N   0  0  0  0  0  0  0  0  0  0  0  0
  -25.5313  -30.3680   22.0310 N   0  0  0  0  0  0  0  0  0  0  0  0
  -24.9460  -21.8685   21.7021 N   0  0  0  0  0  0  0  0  0  0  0  0
  -23.7929  -19.6955   17.0158 N   0  0  0  0  0  0  0  0  0  0  0  0
  -23.8937  -15.1846   16.8223 N   0  0  0  0  0  0  0  0  0  0  0  0
  -22.7815  -21.9867   22.6313 N   0  0  0  0  0  0  0  0  0  0  0  0
  -27.8139  -27.9213   20.7927 N   0  0  0  0  0  0  0  0  0  0  0  0
  -25.4612  -33.2907   23.7372 N   0  0  0  0  0  0  0  0  0  0  0  0
  -17.5482  -26.7122   22.4395 N   0  3  0  0  0  0  0  0  0  0  0  0
  -22.9729  -35.6764   22.6488 N   0  3  0  0  0  0  0  0  0  0  0  0
  -23.3302  -17.0856   15.6701 O   0  0  0  0  0  0  0  0  0  0  0  0
  -26.1092  -27.8068   22.3749 O   0  0  0  0  0  0  0  0  0  0  0  0
  -27.3996  -31.7340   22.3132 O   0  0  0  0  0  0  0  0  0  0  0  0
  -23.1509  -33.1528   23.8802 O   0  0  0  0  0  0  0  0  0  0  0  0
  -24.2499  -23.7736   22.8113 O   0  0  0  0  0  0  0  0  0  0  0  0
  -25.7685  -11.7588   20.7953 O   0  0  0  0  0  0  0  0  0  0  0  0
  -20.0461  -27.6096   21.4340 O   0  0  0  0  0  0  0  0  0  1  0  0
  -21.7986   -8.0166   19.9955 F   0  0  0  0  0  0  0  0  0  0  0  0
  -24.6232  -10.4276   22.9304 F   0  0  0  0  0  0  0  0  0  0  0  0
  1  2  1  0  0  0  0
  1  5  2  0  0  0  0
  2  6  2  0  0  0  0
  3  8  2  0  0  0  0
  3 17  1  0  0  0  0
  4  9  1  0  0  0  0
  4 17  2  0  0  0  0
  5 19  1  0  0  0  0
  6 21  1  0  0  0  0
  7 10  2  0  0  0  0
  7 20  1  0  0  0  0
  8 23  1  0  0  0  0
  9 23  2  0  0  0  0
 10 24  1  0  0  0  0
 11 12  2  0  0  0  0
 11 25  1  0  0  0  0
 12 26  1  0  0  0  0
 13 16  2  0  0  0  0
 13 29  1  0  0  0  0
 14 22  1  0  0  0  0
 14 24  2  0  0  0  0
 15 26  2  0  0  0  0
 15 27  1  0  0  0  0
 16 62  1  0  0  0  0
 17 28  1  0  0  0  0
 18 28  1  0  0  0  0
 18 30  2  0  0  0  0
 18 31  1  0  0  0  0
 19 21  2  0  0  0  0
 19 36  1  0  0  0  0
 20 22  2  0  0  0  0
 20 37  1  0  0  0  0
 21 45  1  0  0  0  0
 22 38  1  0  0  0  0
 23 78  1  0  0  0  0
 24 79  1  0  0  0  0
 25 27  2  0  0  0  0
 25 78  1  0  0  0  0
 26 80  1  0  0  0  0
 27 81  1  0  0  0  0
 28 60  2  0  0  0  0
 29 61  2  0  0  0  0
 29 68  1  0  0  0  0
 30 63  1  0  0  0  0
 30 66  1  0  0  0  0
 31 67  1  0  0  0  0
 31 73  2  0  0  0  0
 32 46  1  0  0  0  0
 32 69  1  0  0  0  0
 32 74  2  0  0  0  0
 33 56  1  0  0  0  0
 33 64  1  0  0  0  0
 33 75  2  0  0  0  0
 34 57  1  0  0  0  0
 34 70  1  0  0  0  0
 34 76  2  0  0  0  0
 35 65  1  0  0  0  0
 35 68  1  0  0  0  0
 35 77  2  0  0  0  0
 36 39  1  0  0  0  0
 37 46  1  0  0  0  0
 38 64  1  0  0  0  0
 39 41  1  0  0  0  0
 40 42  1  0  0  0  0
 40 43  1  0  0  0  0
 41 45  1  0  0  0  0
 42 47  1  0  0  0  0
 43 65  1  0  0  0  0
 44 47  1  0  0  0  0
 44 65  1  0  0  0  0
 45 69  1  0  0  0  0
 46 64  1  0  0  0  0
 47 63  1  0  0  0  0
 48 57  1  0  0  0  0
 49 59  1  0  0  0  0
 50 59  1  0  0  0  0
 51 59  1  0  0  0  0
 52 72  1  0  0  0  0
 53 54  1  0  0  0  0
 53 58  1  0  0  0  0
 54 62  1  0  0  0  0
 55 58  1  0  0  0  0
 55 79  1  0  0  0  0
 56 59  1  0  0  0  0
 56 70  1  0  0  0  0
 57 72  1  0  0  0  0
 58 71  1  0  0  0  0
 60 63  1  0  0  0  0
 61 62  1  0  0  0  0
M  CHG  2  71   1  72   1
M  ISO  4  35 100  55 101  68 100  79 101
M  END
> <Batch ID>
0199

> <Smiles>
CNC(C)C(=O)NC(C(=O)N1Cc2cc([101O:1][101CH2:1]C(N)CCn3ccc([100NH:0][100C:0](=O)N4CCCC(n5nc(-c6ccc(Oc7ccc(F)cc7F)cc6)c(C(N)=O)c5N)C4)n3)ccc2CC1C(=O)NC1CCCc2ccccc21)C(C)(C)C

> <Shape>
0.276

> <Color>
0.069

> <Negative vol penalty>
0.000

$$$$

  -OEChem-04052305473D

 82 90  0     1  0  0  0  0  0999 V2000
  -19.5832  -31.5544   15.4589 C   0  0  0  0  0  0  0  0  0  0  0  0
  -20.6107  -30.6285   15.6088 C   0  0  0  0  0  0  0  0  0  0  0  0
  -24.4795   -9.9772   20.2329 C   0  0  0  0  0  0  0  0  0  0  0  0
  -25.2332  -10.4925   22.4697 C   0  0  0  0  0  0  0  0  0  0  0  0
  -19.6607  -32.7900   16.1003 C   0  0  0  0  0  0  0  0  0  0  0  0
  -21.7169  -30.9382   16.3992 C   0  0  0  0  0  0  0  0  0  0  0  0
  -24.9483  -27.0758   19.8843 C   0  0  0  0  0  0  0  0  0  0  0  0
  -24.2858   -8.6468   20.6046 C   0  0  0  0  0  0  0  0  0  0  0  0
  -25.0395   -9.1621   22.8415 C   0  0  0  0  0  0  0  0  0  0  0  0
  -26.1526  -26.4057   19.6733 C   0  0  0  0  0  0  0  0  0  0  0  0
  -21.9724   -6.8412   22.2841 C   0  0  0  0  0  0  0  0  0  0  0  0
  -20.7881   -6.2222   21.8841 C   0  0  0  0  0  0  0  0  0  0  0  0
  -27.3257  -28.1576   20.8454 C   0  0  0  0  0  0  0  0  0  0  0  0
  -22.0628   -4.5726   20.6630 C   0  0  0  0  0  0  0  0  0  0  0  0
  -27.4567  -20.2079   22.0509 C   0  0  0  0  0  0  0  0  0  0  0  0
  -24.9533  -10.9001   21.1654 C   0  0  0  0  0  0  0  0  0  0  0  0
  -24.2179  -13.3231   20.8560 C   0  0  0  0  0  0  0  0  0  0  0  0
  -20.7639  -33.1111   16.9068 C   0  0  0  0  0  0  0  0  0  0  0  0
  -24.9250  -28.2993   20.5691 C   0  0  0  0  0  0  0  0  0  0  0  0
  -21.8099  -32.1797   17.0509 C   0  0  0  0  0  0  0  0  0  0  0  0
  -26.1195  -28.8399   21.0660 C   0  0  0  0  0  0  0  0  0  0  0  0
  -24.5658   -8.2393   21.9089 C   0  0  0  0  0  0  0  0  0  0  0  0
  -27.3419  -26.9480   20.1514 C   0  0  0  0  0  0  0  0  0  0  0  0
  -23.2019   -6.3260   21.8735 C   0  0  0  0  0  0  0  0  0  0  0  0
  -20.8333   -5.0879   21.0736 C   0  0  0  0  0  0  0  0  0  0  0  0
  -23.2471   -5.1917   21.0630 C   0  0  0  0  0  0  0  0  0  0  0  0
  -25.1541  -12.2744   20.7819 C   0  0  0  0  0  0  0  0  0  0  0  0
  -28.4342  -19.6485   21.2549 C   0  0  0  0  0  0  0  0  0  0  0  0
  -24.8921  -14.4197   20.3770 C   0  0  0  0  0  0  0  0  0  0  0  0
  -29.1132  -21.7330   21.1950 C   0  0  0  0  0  0  0  0  0  0  0  0
  -22.8602  -13.3074   21.3166 C   0  0  0  0  0  0  0  0  0  0  0  0
  -29.9383  -22.9216   20.8502 C   0  0  0  0  0  0  0  0  0  0  0  0
  -24.0746  -31.2703   19.8252 C   0  0  0  0  0  0  0  0  0  0  0  0
  -24.6379  -31.8047   22.9747 C   0  0  0  0  0  0  0  0  0  0  0  0
  -26.2448  -30.8562   25.8322 C   0  0  0  0  0  0  0  0  0  0  0  0
  -29.4406  -17.6229   20.1456 C   0  0  0  0  0  0  0  0  0  0  0  0
  -20.8255  -34.4777   17.5419 C   0  0  0  0  0  0  0  0  0  0  0  0
  -23.6144  -28.9963   20.8117 C   0  0  0  0  0  0  0  0  0  0  0  0
  -26.1460  -30.1405   21.8251 C   0  0  0  0  0  0  0  0  0  0  0  0
  -21.8556  -34.5822   18.6636 C   0  0  0  0  0  0  0  0  0  0  0  0
  -29.3565  -14.7698   18.0172 C   0  0  0  0  0  0  0  0  0  0  0  0
  -23.1802  -33.9614   18.2314 C   0  0  0  0  0  0  0  0  0  0  0  0
  -28.1787  -13.9525   18.5528 C   0  0  0  0  0  0  0  0  0  0  0  0
  -30.1289  -15.4561   19.1424 C   0  0  0  0  0  0  0  0  0  0  0  0
  -28.1329  -15.4524   20.5864 C   0  0  0  0  0  0  0  0  0  0  0  0
  -23.0145  -32.4691   17.9199 C   0  0  1  0  0  0  0  0  0  0  0  0
  -23.7721  -30.4909   21.0737 C   0  0  1  0  0  0  0  0  0  0  0  0
  -27.2857  -14.7950   19.4847 C   0  0  2  0  0  0  0  0  0  0  0  0
  -26.5378  -31.5102   28.2372 C   0  0  0  0  0  0  0  0  0  0  0  0
  -31.5345  -25.3658   21.9915 C   0  0  0  0  0  0  0  0  0  0  0  0
  -26.4968  -34.0718   22.1292 C   0  0  0  0  0  0  0  0  0  0  0  0
  -27.4617  -34.0488   24.4393 C   0  0  0  0  0  0  0  0  0  0  0  0
  -25.0500  -34.5899   24.1022 C   0  0  0  0  0  0  0  0  0  0  0  0
  -25.1160  -28.2925   26.7875 C   0  0  0  0  0  0  0  0  0  0  0  0
  -29.5388  -26.4729   20.9286 C   0  0  0  0  0  0  0  0  0  1  0  0
  -25.8411  -32.2087   23.7921 C   0  0  1  0  0  0  0  0  0  0  0  0
  -25.7449  -30.6646   27.2527 C   0  0  2  0  0  0  0  0  0  0  0  0
  -30.4273  -25.2345   20.9564 C   0  0  2  0  0  0  0  0  0  0  0  0
  -26.2125  -33.7062   23.5998 C   0  0  0  0  0  0  0  0  0  0  0  0
  -26.3332  -12.6692   20.2942 N   0  0  0  0  0  0  0  0  0  0  0  0
  -29.3847  -20.5216   20.7629 N   0  0  0  0  0  0  0  0  0  0  0  0
  -29.6045  -24.0712   21.3139 N   0  0  0  0  0  0  0  0  0  0  0  0
  -26.1424  -13.9782   20.0574 N   0  0  0  0  0  0  0  0  0  0  0  0
  -24.8396  -30.7874   22.0312 N   0  0  0  0  0  0  0  0  0  0  0  0
  -29.2190  -16.2392   19.9814 N   0  0  0  0  0  0  0  0  0  0  0  0
  -24.5316  -15.7088   20.2023 N   0  0  0  0  0  0  0  0  0  0  0  0
  -22.3243  -12.0964   21.7754 N   0  0  0  0  0  0  0  0  0  0  0  0
  -31.0195  -22.6857   20.0254 N   0  0  0  0  0  0  0  0  0  0  0  0
  -28.4923  -18.2686   20.9384 N   0  0  0  0  0  0  0  0  0  0  0  0
  -22.9516  -31.7011   19.1450 N   0  0  0  0  0  0  0  0  0  0  0  0
  -25.5402  -31.8400   25.1712 N   0  0  0  0  0  0  0  0  0  0  0  0
  -25.8666  -29.2352   27.6564 N   0  3  0  0  0  0  0  0  0  0  0  0
  -22.1384  -14.3333   21.3058 O   0  0  0  0  0  0  0  0  0  0  0  0
  -25.2405  -31.4676   19.5037 O   0  0  0  0  0  0  0  0  0  0  0  0
  -23.5572  -32.3660   23.1713 O   0  0  0  0  0  0  0  0  0  0  0  0
  -27.1703  -30.2014   25.3578 O   0  0  0  0  0  0  0  0  0  0  0  0
  -30.3854  -18.1981   19.5994 O   0  0  0  0  0  0  0  0  0  0  0  0
  -24.3767   -6.9412   22.2720 O   0  0  0  0  0  0  0  0  0  0  0  0
  -28.5188  -26.2964   19.9463 O   0  0  0  0  0  0  0  0  0  1  0  0
  -19.6961   -4.4927   20.6908 F   0  0  0  0  0  0  0  0  0  0  0  0
  -24.4253   -4.6914   20.6663 F   0  0  0  0  0  0  0  0  0  0  0  0
  -27.7298  -21.8947   22.1976 S   0  0  0  0  0  0  0  0  0  0  0  0
  1  2  1  0  0  0  0
  1  5  2  0  0  0  0
  2  6  2  0  0  0  0
  3  8  2  0  0  0  0
  3 16  1  0  0  0  0
  4  9  1  0  0  0  0
  4 16  2  0  0  0  0
  5 18  1  0  0  0  0
  6 20  1  0  0  0  0
  7 10  2  0  0  0  0
  7 19  1  0  0  0  0
  8 22  1  0  0  0  0
  9 22  2  0  0  0  0
 10 23  1  0  0  0  0
 11 12  2  0  0  0  0
 11 24  1  0  0  0  0
 12 25  1  0  0  0  0
 13 21  1  0  0  0  0
 13 23  2  0  0  0  0
 14 25  2  0  0  0  0
 14 26  1  0  0  0  0
 15 28  2  0  0  0  0
 15 82  1  0  0  0  0
 16 27  1  0  0  0  0
 17 27  1  0  0  0  0
 17 29  2  0  0  0  0
 17 31  1  0  0  0  0
 18 20  2  0  0  0  0
 18 37  1  0  0  0  0
 19 21  2  0  0  0  0
 19 38  1  0  0  0  0
 20 46  1  0  0  0  0
 21 39  1  0  0  0  0
 22 78  1  0  0  0  0
 23 79  1  0  0  0  0
 24 26  2  0  0  0  0
 24 78  1  0  0  0  0
 25 80  1  0  0  0  0
 26 81  1  0  0  0  0
 27 60  2  0  0  0  0
 28 61  1  0  0  0  0
 28 69  1  0  0  0  0
 29 63  1  0  0  0  0
 29 66  1  0  0  0  0
 30 32  1  0  0  0  0
 30 61  2  0  0  0  0
 30 82  1  0  0  0  0
 31 67  1  0  0  0  0
 31 73  2  0  0  0  0
 32 62  2  0  0  0  0
 32 68  1  0  0  0  0
 33 47  1  0  0  0  0
 33 70  1  0  0  0  0
 33 74  2  0  0  0  0
 34 56  1  0  0  0  0
 34 64  1  0  0  0  0
 34 75  2  0  0  0  0
 35 57  1  0  0  0  0
 35 71  1  0  0  0  0
 35 76  2  0  0  0  0
 36 65  1  0  0  0  0
 36 69  1  0  0  0  0
 36 77  2  0  0  0  0
 37 40  1  0  0  0  0
 38 47  1  0  0  0  0
 39 64  1  0  0  0  0
 40 42  1  0  0  0  0
 41 43  1  0  0  0  0
 41 44  1  0  0  0  0
 42 46  1  0  0  0  0
 43 48  1  0  0  0  0
 44 65  1  0  0  0  0
 45 48  1  0  0  0  0
 45 65  1  0  0  0  0
 46 70  1  0  0  0  0
 47 64  1  0  0  0  0
 48 63  1  0  0  0  0
 49 57  1  0  0  0  0
 50 58  1  0  0  0  0
 51 59  1  0  0  0  0
 52 59  1  0  0  0  0
 53 59  1  0  0  0  0
 54 72  1  0  0  0  0
 55 58  1  0  0  0  0
 55 79  1  0  0  0  0
 56 59  1  0  0  0  0
 56 71  1  0  0  0  0
 57 72  1  0  0  0  0
 58 62  1  0  0  0  0
 60 63  1  0  0  0  0
M  CHG  1  72   1
M  ISO  4  36 100  55 101  69 100  79 101
M  END
> <Batch ID>
0199

> <Smiles>
CNC(C)C(=O)NC(C(=O)N1Cc2cc([101O:1][101CH2:1]C(C)NC(=N)c3nc([100NH:0][100C:0](=O)N4CCCC(n5nc(-c6ccc(Oc7ccc(F)cc7F)cc6)c(C(N)=O)c5N)C4)cs3)ccc2CC1C(=O)NC1CCCc2ccccc21)C(C)(C)C

> <Shape>
0.321

> <Color>
0.134

> <Negative vol penalty>
0.000

$$$$

  -OEChem-04052305473D

 82 90  0     1  0  0  0  0  0999 V2000
  -21.8848  -34.3836   19.9876 C   0  0  0  0  0  0  0  0  0  0  0  0
  -22.9839  -33.5308   20.0021 C   0  0  0  0  0  0  0  0  0  0  0  0
  -24.4744  -10.2271   21.8939 C   0  0  0  0  0  0  0  0  0  0  0  0
  -23.3466  -12.2881   22.4574 C   0  0  0  0  0  0  0  0  0  0  0  0
  -20.8737  -34.2319   20.9356 C   0  0  0  0  0  0  0  0  0  0  0  0
  -23.0730  -32.5264   20.9653 C   0  0  0  0  0  0  0  0  0  0  0  0
  -24.5257  -28.0854   19.0127 C   0  0  0  0  0  0  0  0  0  0  0  0
  -23.8301   -9.5854   22.9515 C   0  0  0  0  0  0  0  0  0  0  0  0
  -22.7023  -11.6463   23.5150 C   0  0  0  0  0  0  0  0  0  0  0  0
  -25.8820  -27.9265   18.7320 C   0  0  0  0  0  0  0  0  0  0  0  0
  -20.7794   -8.2695   23.5798 C   0  0  0  0  0  0  0  0  0  0  0  0
  -20.2272   -7.0122   23.3354 C   0  0  0  0  0  0  0  0  0  0  0  0
  -26.1566  -26.6928   20.7867 C   0  0  0  0  0  0  0  0  0  0  0  0
  -21.6525   -6.0556   25.0356 C   0  0  0  0  0  0  0  0  0  0  0  0
  -27.2957  -21.2727   21.3741 C   0  0  0  0  0  0  0  0  0  0  0  0
  -24.2327  -11.5785   21.6468 C   0  0  0  0  0  0  0  0  0  0  0  0
  -24.4451  -12.3574   19.2269 C   0  0  0  0  0  0  0  0  0  0  0  0
  -20.9458  -33.2190   21.9049 C   0  0  0  0  0  0  0  0  0  0  0  0
  -23.9759  -27.5577   20.1899 C   0  0  0  0  0  0  0  0  0  0  0  0
  -22.0625  -32.3619   21.9279 C   0  0  0  0  0  0  0  0  0  0  0  0
  -24.7924  -26.8442   21.0788 C   0  0  0  0  0  0  0  0  0  0  0  0
  -22.9441  -10.2949   23.7621 C   0  0  0  0  0  0  0  0  0  0  0  0
  -26.6983  -27.2326   19.6204 C   0  0  0  0  0  0  0  0  0  0  0  0
  -21.7683   -8.4199   24.5521 C   0  0  0  0  0  0  0  0  0  0  0  0
  -20.6637   -5.9053   24.0633 C   0  0  0  0  0  0  0  0  0  0  0  0
  -22.2048   -7.3130   25.2800 C   0  0  0  0  0  0  0  0  0  0  0  0
  -24.8984  -12.2422   20.5548 C   0  0  0  0  0  0  0  0  0  0  0  0
  -28.6386  -21.2548   21.0605 C   0  0  0  0  0  0  0  0  0  0  0  0
  -25.4297  -13.0716   18.5889 C   0  0  0  0  0  0  0  0  0  0  0  0
  -28.2503  -19.0981   20.9709 C   0  0  0  0  0  0  0  0  0  0  0  0
  -23.2418  -11.8632   18.6242 C   0  0  0  0  0  0  0  0  0  0  0  0
  -22.5420  -28.7904   22.7449 C   0  0  0  0  0  0  0  0  0  0  0  0
  -29.5777  -23.0584   19.5572 C   0  0  0  0  0  0  0  0  0  0  0  0
  -22.0807  -25.6715   23.5077 C   0  0  0  0  0  0  0  0  0  0  0  0
  -23.0803  -22.4265   23.1645 C   0  0  0  0  0  0  0  0  0  0  0  0
  -29.5276  -16.9789   20.4982 C   0  0  0  0  0  0  0  0  0  0  0  0
  -19.8513  -33.1240   22.9382 C   0  0  0  0  0  0  0  0  0  0  0  0
  -22.5055  -27.7148   20.4651 C   0  0  0  0  0  0  0  0  0  0  0  0
  -24.2470  -26.2408   22.3464 C   0  0  0  0  0  0  0  0  0  0  0  0
  -19.8398  -31.7972   23.6930 C   0  0  0  0  0  0  0  0  0  0  0  0
  -30.1374  -13.9337   18.7569 C   0  0  0  0  0  0  0  0  0  0  0  0
  -21.2493  -31.4273   24.1440 C   0  0  0  0  0  0  0  0  0  0  0  0
  -28.8198  -13.1674   18.8943 C   0  0  0  0  0  0  0  0  0  0  0  0
  -30.4658  -14.7281   20.0197 C   0  0  0  0  0  0  0  0  0  0  0  0
  -28.0807  -14.8560   20.6232 C   0  0  0  0  0  0  0  0  0  0  0  0
  -22.1832  -31.2447   22.9415 C   0  0  1  0  0  0  0  0  0  0  0  0
  -22.1566  -27.5789   21.9440 C   0  0  1  0  0  0  0  0  0  0  0  0
  -27.6751  -14.0923   19.3521 C   0  0  2  0  0  0  0  0  0  0  0  0
  -22.5317  -20.1038   23.9400 C   0  0  0  0  0  0  0  0  0  0  0  0
  -23.3716  -26.2704   26.2068 C   0  0  0  0  0  0  0  0  0  0  0  0
  -23.6599  -23.8054   26.5374 C   0  0  0  0  0  0  0  0  0  0  0  0
  -21.3714  -24.7731   26.3163 C   0  0  0  0  0  0  0  0  0  0  0  0
  -22.5181  -21.5134   20.4061 C   0  0  0  0  0  0  0  0  0  0  0  0
  -29.5329  -22.4617   20.9534 C   0  0  0  0  0  0  0  0  0  0  0  0
  -30.5049  -24.2524   19.3877 C   0  0  0  0  0  0  0  0  0  0  0  0
  -29.7740  -25.4991   18.9020 C   0  0  0  0  0  0  0  0  0  0  0  0
  -28.6542  -25.8995   19.8512 C   0  0  0  0  0  0  0  0  0  1  0  0
  -22.8599  -24.6326   24.2776 C   0  0  1  0  0  0  0  0  0  0  0  0
  -22.3003  -21.1582   22.8688 C   0  0  2  0  0  0  0  0  0  0  0  0
  -22.8267  -24.8833   25.8117 C   0  0  0  0  0  0  0  0  0  0  0  0
  -26.0790  -12.8354   20.7500 N   0  0  0  0  0  0  0  0  0  0  0  0
  -29.1878  -20.0087   20.8294 N   0  0  0  0  0  0  0  0  0  0  0  0
  -26.3761  -13.3303   19.5363 N   0  0  0  0  0  0  0  0  0  0  0  0
  -22.8044  -26.4267   22.5740 N   0  0  0  0  0  0  0  0  0  0  0  0
  -29.3375  -15.5849   20.3907 N   0  0  0  0  0  0  0  0  0  0  0  0
  -25.5696  -13.4972   17.3154 N   0  0  0  0  0  0  0  0  0  0  0  0
  -22.3384  -11.1495   19.4236 N   0  0  0  0  0  0  0  0  0  0  0  0
  -28.3761  -17.6943   20.8249 N   0  0  0  0  0  0  0  0  0  0  0  0
  -21.9516  -29.9623   22.3120 N   0  0  0  0  0  0  0  0  0  0  0  0
  -22.3247  -23.3375   23.8720 N   0  0  0  0  0  0  0  0  0  0  0  0
  -22.7132  -20.5909   21.5540 N   0  3  0  0  0  0  0  0  0  0  0  0
  -22.9831  -12.0349   17.4088 O   0  0  0  0  0  0  0  0  0  0  0  0
  -23.3166  -28.6705   23.6869 O   0  0  0  0  0  0  0  0  0  0  0  0
  -28.9121  -22.6096   18.6250 O   0  0  0  0  0  0  0  0  0  0  0  0
  -20.8730  -25.8030   23.7217 O   0  0  0  0  0  0  0  0  0  0  0  0
  -24.2447  -22.5910   22.8072 O   0  0  0  0  0  0  0  0  0  0  0  0
  -30.6247  -17.5023   20.2875 O   0  0  0  0  0  0  0  0  0  0  0  0
  -22.3150   -9.6690   24.7941 O   0  0  0  0  0  0  0  0  0  0  0  0
  -28.0226  -27.0766   19.3491 O   0  0  0  0  0  0  0  0  0  1  0  0
  -20.1322   -4.6982   23.8296 F   0  0  0  0  0  0  0  0  0  0  0  0
  -23.1536   -7.4515   26.2161 F   0  0  0  0  0  0  0  0  0  0  0  0
  -26.6851  -19.6700   21.3809 S   0  0  0  0  0  0  0  0  0  0  0  0
  1  2  1  0  0  0  0
  1  5  2  0  0  0  0
  2  6  2  0  0  0  0
  3  8  2  0  0  0  0
  3 16  1  0  0  0  0
  4  9  1  0  0  0  0
  4 16  2  0  0  0  0
  5 18  1  0  0  0  0
  6 20  1  0  0  0  0
  7 10  2  0  0  0  0
  7 19  1  0  0  0  0
  8 22  1  0  0  0  0
  9 22  2  0  0  0  0
 10 23  1  0  0  0  0
 11 12  2  0  0  0  0
 11 24  1  0  0  0  0
 12 25  1  0  0  0  0
 13 21  1  0  0  0  0
 13 23  2  0  0  0  0
 14 25  2  0  0  0  0
 14 26  1  0  0  0  0
 15 28  2  0  0  0  0
 15 82  1  0  0  0  0
 16 27  1  0  0  0  0
 17 27  1  0  0  0  0
 17 29  2  0  0  0  0
 17 31  1  0  0  0  0
 18 20  2  0  0  0  0
 18 37  1  0  0  0  0
 19 21  2  0  0  0  0
 19 38  1  0  0  0  0
 20 46  1  0  0  0  0
 21 39  1  0  0  0  0
 22 78  1  0  0  0  0
 23 79  1  0  0  0  0
 24 26  2  0  0  0  0
 24 78  1  0  0  0  0
 25 80  1  0  0  0  0
 26 81  1  0  0  0  0
 27 61  2  0  0  0  0
 28 54  1  0  0  0  0
 28 62  1  0  0  0  0
 29 63  1  0  0  0  0
 29 66  1  0  0  0  0
 30 62  2  0  0  0  0
 30 68  1  0  0  0  0
 30 82  1  0  0  0  0
 31 67  1  0  0  0  0
 31 72  2  0  0  0  0
 32 47  1  0  0  0  0
 32 69  1  0  0  0  0
 32 73  2  0  0  0  0
 33 54  1  0  0  0  0
 33 55  1  0  0  0  0
 33 74  2  0  0  0  0
 34 58  1  0  0  0  0
 34 64  1  0  0  0  0
 34 75  2  0  0  0  0
 35 59  1  0  0  0  0
 35 70  1  0  0  0  0
 35 76  2  0  0  0  0
 36 65  1  0  0  0  0
 36 68  1  0  0  0  0
 36 77  2  0  0  0  0
 37 40  1  0  0  0  0
 38 47  1  0  0  0  0
 39 64  1  0  0  0  0
 40 42  1  0  0  0  0
 41 43  1  0  0  0  0
 41 44  1  0  0  0  0
 42 46  1  0  0  0  0
 43 48  1  0  0  0  0
 44 65  1  0  0  0  0
 45 48  1  0  0  0  0
 45 65  1  0  0  0  0
 46 69  1  0  0  0  0
 47 64  1  0  0  0  0
 48 63  1  0  0  0  0
 49 59  1  0  0  0  0
 50 60  1  0  0  0  0
 51 60  1  0  0  0  0
 52 60  1  0  0  0  0
 53 71  1  0  0  0  0
 55 56  1  0  0  0  0
 56 57  1  0  0  0  0
 57 79  1  0  0  0  0
 58 60  1  0  0  0  0
 58 70  1  0  0  0  0
 59 71  1  0  0  0  0
 61 63  1  0  0  0  0
M  CHG  1  71   1
M  ISO  4  36 100  57 101  68 100  79 101
M  END
> <Batch ID>
0199

> <Smiles>
CNC(C)C(=O)NC(C(=O)N1Cc2cc([101O:1][101CH2:1]CCC(=O)Cc3csc([100NH:0][100C:0](=O)N4CCCC(n5nc(-c6ccc(Oc7ccc(F)cc7F)cc6)c(C(N)=O)c5N)C4)n3)ccc2CC1C(=O)NC1CCCc2ccccc21)C(C)(C)C

> <Shape>
0.229

> <Color>
0.095

> <Negative vol penalty>
0.000

$$$$

  -OEChem-04052305473D

 87 95  0     1  0  0  0  0  0999 V2000
  -27.1899  -32.9855   27.4409 C   0  0  0  0  0  0  0  0  0  0  0  0
  -27.5116  -31.9382   26.5836 C   0  0  0  0  0  0  0  0  0  0  0  0
  -26.1438  -11.5822   21.2349 C   0  0  0  0  0  0  0  0  0  0  0  0
  -25.8405  -12.1674   18.9105 C   0  0  0  0  0  0  0  0  0  0  0  0
  -25.8536  -33.2917   27.6948 C   0  0  0  0  0  0  0  0  0  0  0  0
  -26.4971  -31.1956   25.9805 C   0  0  0  0  0  0  0  0  0  0  0  0
  -27.3542  -30.3752   21.0573 C   0  0  0  0  0  0  0  0  0  0  0  0
  -24.9173  -10.9180   21.2277 C   0  0  0  0  0  0  0  0  0  0  0  0
  -24.6140  -11.5031   18.9033 C   0  0  0  0  0  0  0  0  0  0  0  0
  -28.2704  -29.3773   20.7282 C   0  0  0  0  0  0  0  0  0  0  0  0
  -23.5112   -8.3146   18.7078 C   0  0  0  0  0  0  0  0  0  0  0  0
  -23.2349   -7.4789   17.6258 C   0  0  0  0  0  0  0  0  0  0  0  0
  -26.4487  -27.8593   20.2850 C   0  0  0  0  0  0  0  0  0  0  0  0
  -29.5265  -21.1901   17.1252 C   0  0  0  0  0  0  0  0  0  0  0  0
  -21.2953   -8.8156   17.0887 C   0  0  0  0  0  0  0  0  0  0  0  0
  -28.7565  -19.4065   15.8493 C   0  0  0  0  0  0  0  0  0  0  0  0
  -26.6054  -12.2070   20.0763 C   0  0  0  0  0  0  0  0  0  0  0  0
  -29.1352  -12.3507   19.7815 C   0  0  0  0  0  0  0  0  0  0  0  0
  -24.8221  -32.5587   27.0869 C   0  0  0  0  0  0  0  0  0  0  0  0
  -25.9762  -30.1190   21.0132 C   0  0  0  0  0  0  0  0  0  0  0  0
  -25.1457  -31.4914   26.2275 C   0  0  0  0  0  0  0  0  0  0  0  0
  -25.5170  -28.8565   20.6116 C   0  0  0  0  0  0  0  0  0  0  0  0
  -29.0985  -19.8312   17.1143 C   0  0  0  0  0  0  0  0  0  0  0  0
  -24.1524  -10.8784   20.0620 C   0  0  0  0  0  0  0  0  0  0  0  0
  -27.8178  -28.1182   20.3448 C   0  0  0  0  0  0  0  0  0  0  0  0
  -22.6795   -9.4008   18.9804 C   0  0  0  0  0  0  0  0  0  0  0  0
  -22.1269   -7.7294   16.8162 C   0  0  0  0  0  0  0  0  0  0  0  0
  -21.5716   -9.6513   18.1708 C   0  0  0  0  0  0  0  0  0  0  0  0
  -27.8720  -12.8938   20.0832 C   0  0  0  0  0  0  0  0  0  0  0  0
  -30.0059  -13.4023   19.9317 C   0  0  0  0  0  0  0  0  0  0  0  0
  -29.4956  -21.7524   15.8679 C   0  0  0  0  0  0  0  0  0  0  0  0
  -29.4898  -11.0151   19.3994 C   0  0  0  0  0  0  0  0  0  0  0  0
  -23.6250  -30.1188   23.1523 C   0  0  0  0  0  0  0  0  0  0  0  0
  -31.0859  -25.0814   15.7301 C   0  0  0  0  0  0  0  0  0  0  0  0
  -21.7707  -29.6237   20.5372 C   0  0  0  0  0  0  0  0  0  0  0  0
  -21.5331  -28.4927   17.3261 C   0  0  0  0  0  0  0  0  0  0  0  0
  -29.3481  -19.3303   19.5705 C   0  0  0  0  0  0  0  0  0  0  0  0
  -23.3926  -32.8965   27.4288 C   0  0  0  0  0  0  0  0  0  0  0  0
  -25.0003  -31.2143   21.3455 C   0  0  0  0  0  0  0  0  0  0  0  0
  -24.0475  -28.5367   20.5284 C   0  0  0  0  0  0  0  0  0  0  0  0
  -22.3769  -32.3012   26.4570 C   0  0  0  0  0  0  0  0  0  0  0  0
  -30.5575  -17.4886   22.3674 C   0  0  0  0  0  0  0  0  0  0  0  0
  -22.6938  -30.8339   26.1861 C   0  0  0  0  0  0  0  0  0  0  0  0
  -30.1264  -16.0509   22.0686 C   0  0  0  0  0  0  0  0  0  0  0  0
  -29.5107  -18.5018   21.9076 C   0  0  0  0  0  0  0  0  0  0  0  0
  -28.6635  -16.9340   20.2066 C   0  0  0  0  0  0  0  0  0  0  0  0
  -24.0734  -30.6786   25.5348 C   0  0  1  0  0  0  0  0  0  0  0  0
  -23.6302  -30.6878   21.7617 C   0  0  1  0  0  0  0  0  0  0  0  0
  -29.7150  -15.8810   20.5930 C   0  0  2  0  0  0  0  0  0  0  0  0
  -34.7296  -26.4090   15.4595 C   0  0  0  0  0  0  0  0  0  0  0  0
  -19.8796  -28.1825   15.4641 C   0  0  0  0  0  0  0  0  0  0  0  0
  -20.6158  -27.1907   21.9714 C   0  0  0  0  0  0  0  0  0  0  0  0
  -19.7213  -26.4043   19.7693 C   0  0  0  0  0  0  0  0  0  0  0  0
  -18.9347  -28.5667   20.7325 C   0  0  0  0  0  0  0  0  0  0  0  0
  -23.0358  -30.3061   15.5337 C   0  0  0  0  0  0  0  0  0  0  0  0
  -32.5575  -25.2461   16.0574 C   0  0  0  0  0  0  0  0  0  0  0  0
  -33.2401  -26.2838   15.1734 C   0  0  0  0  0  0  0  0  0  0  0  0
  -29.1127  -24.6316   17.2408 C   0  0  0  0  0  0  0  0  0  0  0  0
  -28.2925  -26.1718   19.0634 C   0  0  0  0  0  0  0  0  0  1  0  0
  -30.3118  -24.0234   16.5018 C   0  0  1  0  0  0  0  0  0  0  0  0
  -21.2762  -28.4075   19.7921 C   0  0  1  0  0  0  0  0  0  0  0  0
  -20.9141  -29.1087   16.0844 C   0  0  2  0  0  0  0  0  0  0  0  0
  -29.5143  -25.6577   18.3076 C   0  0  1  0  0  0  0  0  0  0  0  0
  -20.1648  -27.6474   20.5697 C   0  0  0  0  0  0  0  0  0  0  0  0
  -27.9305  -14.1898   20.4013 N   0  0  0  0  0  0  0  0  0  0  0  0
  -29.2411  -14.4697   20.3003 N   0  0  0  0  0  0  0  0  0  0  0  0
  -23.1329  -29.6388   20.8693 N   0  0  0  0  0  0  0  0  0  0  0  0
  -29.1734  -18.2827   20.4994 N   0  0  0  0  0  0  0  0  0  0  0  0
  -31.3434  -13.5088   19.7832 N   0  0  0  0  0  0  0  0  0  0  0  0
  -28.4715  -10.0581   19.2922 N   0  0  0  0  0  0  0  0  0  0  0  0
  -29.0253  -18.9951   18.2560 N   0  0  0  0  0  0  0  0  0  0  0  0
  -29.8484  -23.0491   15.5374 N   0  0  0  0  0  0  0  0  0  0  0  0
  -24.0098  -31.0172   24.1292 N   0  0  0  0  0  0  0  0  0  0  0  0
  -20.8683  -28.8755   18.4719 N   0  0  0  0  0  0  0  0  0  0  0  0
  -21.9653  -29.3885   15.0658 N   0  3  0  0  0  0  0  0  0  0  0  0
  -30.6768  -10.6761   19.1762 O   0  0  0  0  0  0  0  0  0  0  0  0
  -23.2949  -28.9516   23.3263 O   0  0  0  0  0  0  0  0  0  0  0  0
  -30.5513  -25.7749   14.8632 O   0  0  0  0  0  0  0  0  0  0  0  0
  -20.9792  -30.5302   20.8082 O   0  0  0  0  0  0  0  0  0  0  0  0
  -22.5066  -27.7437   17.2835 O   0  0  0  0  0  0  0  0  0  0  0  0
  -29.7801  -20.4345   19.9114 O   0  0  0  0  0  0  0  0  0  0  0  0
  -30.3989  -25.0333   19.2377 O   0  0  0  0  0  0  0  0  0  0  0  0
  -22.9556  -10.2301   20.0545 O   0  0  0  0  0  0  0  0  0  0  0  0
  -28.7157  -27.1358   20.0215 O   0  0  0  0  0  0  0  0  0  1  0  0
  -21.8626   -6.9277   15.7763 F   0  0  0  0  0  0  0  0  0  0  0  0
  -20.7697  -10.6940   18.4270 F   0  0  0  0  0  0  0  0  0  0  0  0
  -28.9520  -20.6436   14.6815 S   0  0  0  0  0  0  0  0  0  0  0  0
  1  2  1  0  0  0  0
  1  5  2  0  0  0  0
  2  6  2  0  0  0  0
  3  8  2  0  0  0  0
  3 17  1  0  0  0  0
  4  9  1  0  0  0  0
  4 17  2  0  0  0  0
  5 19  1  0  0  0  0
  6 21  1  0  0  0  0
  7 10  2  0  0  0  0
  7 20  1  0  0  0  0
  8 24  1  0  0  0  0
  9 24  2  0  0  0  0
 10 25  1  0  0  0  0
 11 12  2  0  0  0  0
 11 26  1  0  0  0  0
 12 27  1  0  0  0  0
 13 22  1  0  0  0  0
 13 25  2  0  0  0  0
 14 23  1  0  0  0  0
 14 31  2  0  0  0  0
 15 27  2  0  0  0  0
 15 28  1  0  0  0  0
 16 23  2  0  0  0  0
 16 87  1  0  0  0  0
 17 29  1  0  0  0  0
 18 29  1  0  0  0  0
 18 30  2  0  0  0  0
 18 32  1  0  0  0  0
 19 21  2  0  0  0  0
 19 38  1  0  0  0  0
 20 22  2  0  0  0  0
 20 39  1  0  0  0  0
 21 47  1  0  0  0  0
 22 40  1  0  0  0  0
 23 71  1  0  0  0  0
 24 83  1  0  0  0  0
 25 84  1  0  0  0  0
 26 28  2  0  0  0  0
 26 83  1  0  0  0  0
 27 85  1  0  0  0  0
 28 86  1  0  0  0  0
 29 65  2  0  0  0  0
 30 66  1  0  0  0  0
 30 69  1  0  0  0  0
 31 72  1  0  0  0  0
 31 87  1  0  0  0  0
 32 70  1  0  0  0  0
 32 76  2  0  0  0  0
 33 48  1  0  0  0  0
 33 73  1  0  0  0  0
 33 77  2  0  0  0  0
 34 56  1  0  0  0  0
 34 60  1  0  0  0  0
 34 78  2  0  0  0  0
 35 61  1  0  0  0  0
 35 67  1  0  0  0  0
 35 79  2  0  0  0  0
 36 62  1  0  0  0  0
 36 74  1  0  0  0  0
 36 80  2  0  0  0  0
 37 68  1  0  0  0  0
 37 71  1  0  0  0  0
 37 81  2  0  0  0  0
 38 41  1  0  0  0  0
 39 48  1  0  0  0  0
 40 67  1  0  0  0  0
 41 43  1  0  0  0  0
 42 44  1  0  0  0  0
 42 45  1  0  0  0  0
 43 47  1  0  0  0  0
 44 49  1  0  0  0  0
 45 68  1  0  0  0  0
 46 49  1  0  0  0  0
 46 68  1  0  0  0  0
 47 73  1  0  0  0  0
 48 67  1  0  0  0  0
 49 66  1  0  0  0  0
 50 57  1  0  0  0  0
 51 62  1  0  0  0  0
 52 64  1  0  0  0  0
 53 64  1  0  0  0  0
 54 64  1  0  0  0  0
 55 75  1  0  0  0  0
 56 57  1  0  0  0  0
 58 60  1  0  0  0  0
 58 63  1  0  0  0  0
 59 63  1  0  0  0  0
 59 84  1  0  0  0  0
 60 72  1  0  0  0  0
 61 64  1  0  0  0  0
 61 74  1  0  0  0  0
 62 75  1  0  0  0  0
 63 82  1  0  0  0  0
 65 66  1  0  0  0  0
M  CHG  1  75   1
M  ISO  4  37 100  59 101  71 100  84 101
M  END
> <Batch ID>
0199

> <Smiles>
CCCC(=O)C(CC(O)[101CH2:1][101O:1]c1ccc2c(c1)CN(C(=O)C(NC(=O)C(C)NC)C(C)(C)C)C(C(=O)NC1CCCc3ccccc31)C2)Nc1cc([100NH:0][100C:0](=O)N2CCCC(n3nc(-c4ccc(Oc5ccc(F)cc5F)cc4)c(C(N)=O)c3N)C2)cs1

> <Shape>
0.291

> <Color>
0.098

> <Negative vol penalty>
0.000

$$$$

  -OEChem-04052305473D

 82 90  0     1  0  0  0  0  0999 V2000
  -19.9868  -27.9140   21.2301 C   0  0  0  0  0  0  0  0  0  0  0  0
  -21.1318  -27.1255   21.2402 C   0  0  0  0  0  0  0  0  0  0  0  0
  -26.5268  -28.6097   19.1533 C   0  0  0  0  0  0  0  0  0  0  0  0
  -26.4349  -27.4802   21.2870 C   0  0  0  0  0  0  0  0  0  0  0  0
  -18.7941  -27.4109   21.7454 C   0  0  0  0  0  0  0  0  0  0  0  0
  -21.0817  -25.8294   21.7545 C   0  0  0  0  0  0  0  0  0  0  0  0
  -25.1047  -23.0509   21.2080 C   0  0  0  0  0  0  0  0  0  0  0  0
  -25.4358  -29.3963   19.5226 C   0  0  0  0  0  0  0  0  0  0  0  0
  -25.3438  -28.2669   21.6564 C   0  0  0  0  0  0  0  0  0  0  0  0
  -26.2763  -23.2706   21.9311 C   0  0  0  0  0  0  0  0  0  0  0  0
  -22.7607  -30.2254   23.3026 C   0  0  0  0  0  0  0  0  0  0  0  0
  -22.7618  -30.7767   24.5838 C   0  0  0  0  0  0  0  0  0  0  0  0
  -25.7439  -21.3953   23.3520 C   0  0  0  0  0  0  0  0  0  0  0  0
  -24.8070  -31.9575   24.0739 C   0  0  0  0  0  0  0  0  0  0  0  0
  -29.4240  -17.0205   20.8514 C   0  0  0  0  0  0  0  0  0  0  0  0
  -29.9800  -17.2217   22.0956 C   0  0  0  0  0  0  0  0  0  0  0  0
  -27.0264  -27.6516   20.0355 C   0  0  0  0  0  0  0  0  0  0  0  0
  -29.5159  -27.1223   19.8636 C   0  0  0  0  0  0  0  0  0  0  0  0
  -18.7332  -26.1123   22.2775 C   0  0  0  0  0  0  0  0  0  0  0  0
  -24.2370  -22.0067   21.5590 C   0  0  0  0  0  0  0  0  0  0  0  0
  -19.8816  -25.2949   22.2572 C   0  0  0  0  0  0  0  0  0  0  0  0
  -24.5632  -21.1629   22.6302 C   0  0  0  0  0  0  0  0  0  0  0  0
  -24.8442  -29.2249   20.7742 C   0  0  0  0  0  0  0  0  0  0  0  0
  -26.5947  -22.4445   23.0050 C   0  0  0  0  0  0  0  0  0  0  0  0
  -23.7827  -30.5400   22.4069 C   0  0  0  0  0  0  0  0  0  0  0  0
  -23.7850  -31.6427   24.9695 C   0  0  0  0  0  0  0  0  0  0  0  0
  -24.8059  -31.4061   22.7926 C   0  0  0  0  0  0  0  0  0  0  0  0
  -28.1531  -26.8384   19.6543 C   0  0  0  0  0  0  0  0  0  0  0  0
  -29.4452  -19.2764   20.4772 C   0  0  0  0  0  0  0  0  0  0  0  0
  -30.0005  -19.4777   21.7216 C   0  0  0  0  0  0  0  0  0  0  0  0
  -30.1776  -26.0466   19.3236 C   0  0  0  0  0  0  0  0  0  0  0  0
  -30.1290  -28.2569   20.4901 C   0  0  0  0  0  0  0  0  0  0  0  0
  -21.2207  -21.8328   22.5466 C   0  0  0  0  0  0  0  0  0  0  0  0
  -21.7139  -18.6413   22.2413 C   0  0  0  0  0  0  0  0  0  0  0  0
  -23.9293  -16.0466   22.1614 C   0  0  0  0  0  0  0  0  0  0  0  0
  -28.6182  -20.3596   18.3584 C   0  0  0  0  0  0  0  0  0  0  0  0
  -17.4144  -25.6153   22.8150 C   0  0  0  0  0  0  0  0  0  0  0  0
  -22.9904  -21.7664   20.7523 C   0  0  0  0  0  0  0  0  0  0  0  0
  -23.6754  -20.0155   23.0348 C   0  0  0  0  0  0  0  0  0  0  0  0
  -17.5645  -24.4082   23.7352 C   0  0  0  0  0  0  0  0  0  0  0  0
  -29.7399  -22.7027   15.9235 C   0  0  0  0  0  0  0  0  0  0  0  0
  -18.4407  -23.3555   23.0730 C   0  0  0  0  0  0  0  0  0  0  0  0
  -29.5901  -24.0545   16.6251 C   0  0  0  0  0  0  0  0  0  0  0  0
  -28.6106  -21.7430   16.2942 C   0  0  0  0  0  0  0  0  0  0  0  0
  -28.2556  -22.9048   18.4374 C   0  0  0  0  0  0  0  0  0  0  0  0
  -19.8583  -23.8932   22.8394 C   0  0  1  0  0  0  0  0  0  0  0  0
  -21.9229  -20.9915   21.5186 C   0  0  1  0  0  0  0  0  0  0  0  0
  -29.4053  -23.8828   18.1456 C   0  0  2  0  0  0  0  0  0  0  0  0
  -24.0309  -13.5494   21.9359 C   0  0  0  0  0  0  0  0  0  0  0  0
  -31.5415  -20.6941   24.2105 C   0  0  0  0  0  0  0  0  0  0  0  0
  -20.7572  -18.3445   25.1235 C   0  0  0  0  0  0  0  0  0  0  0  0
  -21.7616  -16.0512   25.1472 C   0  0  0  0  0  0  0  0  0  0  0  0
  -19.9144  -16.5855   23.5581 C   0  0  0  0  0  0  0  0  0  0  0  0
  -25.5538  -16.2195   19.6936 C   0  0  0  0  0  0  0  0  0  0  0  0
  -30.1359  -22.6999   23.6222 C   0  0  0  0  0  0  0  0  0  0  0  0
  -28.8414  -23.2244   23.0088 C   0  0  0  0  0  0  0  0  0  1  0  0
  -22.2173  -17.5456   23.1496 C   0  0  1  0  0  0  0  0  0  0  0  0
  -24.0803  -14.8802   21.2016 C   0  0  2  0  0  0  0  0  0  0  0  0
  -30.2640  -21.1761   23.5304 C   0  0  1  0  0  0  0  0  0  0  0  0
  -21.1786  -17.1544   24.2384 C   0  0  0  0  0  0  0  0  0  0  0  0
  -29.1467  -18.0443   20.0198 N   0  0  0  0  0  0  0  0  0  0  0  0
  -30.2781  -18.4539   22.5530 N   0  0  0  0  0  0  0  0  0  0  0  0
  -27.9589  -25.6737   19.0300 N   0  0  0  0  0  0  0  0  0  0  0  0
  -29.2086  -25.2163   18.8422 N   0  0  0  0  0  0  0  0  0  0  0  0
  -22.4646  -19.8252   22.2191 N   0  0  0  0  0  0  0  0  0  0  0  0
  -28.4976  -21.6268   17.7497 N   0  0  0  0  0  0  0  0  0  0  0  0
  -31.4879  -25.7395   19.2183 N   0  0  0  0  0  0  0  0  0  0  0  0
  -29.3019  -29.2716   20.9908 N   0  0  0  0  0  0  0  0  0  0  0  0
  -29.1737  -20.3848   19.6372 N   0  0  0  0  0  0  0  0  0  0  0  0
  -30.2885  -20.7636   22.1426 N   0  0  0  0  0  0  0  0  0  0  0  0
  -20.5933  -22.9490   22.0269 N   0  0  0  0  0  0  0  0  0  0  0  0
  -22.6142  -16.4441   22.2793 N   0  0  0  0  0  0  0  0  0  0  0  0
  -25.3800  -14.9698   20.4780 N   0  3  0  0  0  0  0  0  0  0  0  0
  -31.3739  -28.3754   20.5880 O   0  0  0  0  0  0  0  0  0  0  0  0
  -21.2449  -21.4936   23.7239 O   0  0  0  0  0  0  0  0  0  0  0  0
  -20.6962  -18.4510   21.5707 O   0  0  0  0  0  0  0  0  0  0  0  0
  -24.8821  -16.5520   22.7507 O   0  0  0  0  0  0  0  0  0  0  0  0
  -28.2805  -19.3255   17.7767 O   0  0  0  0  0  0  0  0  0  0  0  0
  -23.7797  -29.9925   21.1350 O   0  0  0  0  0  0  0  0  0  0  0  0
  -27.7373  -22.6572   23.7129 O   0  0  0  0  0  0  0  0  0  1  0  0
  -23.7852  -32.1733   26.1994 F   0  0  0  0  0  0  0  0  0  0  0  0
  -25.7898  -31.7130   21.9361 F   0  0  0  0  0  0  0  0  0  0  0  0
  1  2  1  0  0  0  0
  1  5  2  0  0  0  0
  2  6  2  0  0  0  0
  3  8  2  0  0  0  0
  3 17  1  0  0  0  0
  4  9  1  0  0  0  0
  4 17  2  0  0  0  0
  5 19  1  0  0  0  0
  6 21  1  0  0  0  0
  7 10  2  0  0  0  0
  7 20  1  0  0  0  0
  8 23  1  0  0  0  0
  9 23  2  0  0  0  0
 10 24  1  0  0  0  0
 11 12  2  0  0  0  0
 11 25  1  0  0  0  0
 12 26  1  0  0  0  0
 13 22  1  0  0  0  0
 13 24  2  0  0  0  0
 14 26  2  0  0  0  0
 14 27  1  0  0  0  0
 15 16  1  0  0  0  0
 15 61  2  0  0  0  0
 16 62  2  0  0  0  0
 17 28  1  0  0  0  0
 18 28  1  0  0  0  0
 18 31  2  0  0  0  0
 18 32  1  0  0  0  0
 19 21  2  0  0  0  0
 19 37  1  0  0  0  0
 20 22  2  0  0  0  0
 20 38  1  0  0  0  0
 21 46  1  0  0  0  0
 22 39  1  0  0  0  0
 23 79  1  0  0  0  0
 24 80  1  0  0  0  0
 25 27  2  0  0  0  0
 25 79  1  0  0  0  0
 26 81  1  0  0  0  0
 27 82  1  0  0  0  0
 28 63  2  0  0  0  0
 29 30  2  0  0  0  0
 29 61  1  0  0  0  0
 29 69  1  0  0  0  0
 30 62  1  0  0  0  0
 30 70  1  0  0  0  0
 31 64  1  0  0  0  0
 31 67  1  0  0  0  0
 32 68  1  0  0  0  0
 32 74  2  0  0  0  0
 33 47  1  0  0  0  0
 33 71  1  0  0  0  0
 33 75  2  0  0  0  0
 34 57  1  0  0  0  0
 34 65  1  0  0  0  0
 34 76  2  0  0  0  0
 35 58  1  0  0  0  0
 35 72  1  0  0  0  0
 35 77  2  0  0  0  0
 36 66  1  0  0  0  0
 36 69  1  0  0  0  0
 36 78  2  0  0  0  0
 37 40  1  0  0  0  0
 38 47  1  0  0  0  0
 39 65  1  0  0  0  0
 40 42  1  0  0  0  0
 41 43  1  0  0  0  0
 41 44  1  0  0  0  0
 42 46  1  0  0  0  0
 43 48  1  0  0  0  0
 44 66  1  0  0  0  0
 45 48  1  0  0  0  0
 45 66  1  0  0  0  0
 46 71  1  0  0  0  0
 47 65  1  0  0  0  0
 48 64  1  0  0  0  0
 49 58  1  0  0  0  0
 50 59  1  0  0  0  0
 51 60  1  0  0  0  0
 52 60  1  0  0  0  0
 53 60  1  0  0  0  0
 54 73  1  0  0  0  0
 55 56  1  0  0  0  0
 55 59  1  0  0  0  0
 56 80  1  0  0  0  0
 57 60  1  0  0  0  0
 57 72  1  0  0  0  0
 58 73  1  0  0  0  0
 59 70  1  0  0  0  0
 63 64  1  0  0  0  0
M  CHG  1  73   1
M  ISO  4  36 100  56 101  69 100  80 101
M  END
> <Batch ID>
0199

> <Smiles>
CNC(C)C(=O)NC(C(=O)N1Cc2cc([101O:1][101CH2:1]CC(C)Nc3nccnc3[100NH:0][100C:0](=O)N3CCCC(n4nc(-c5ccc(Oc6ccc(F)cc6F)cc5)c(C(N)=O)c4N)C3)ccc2CC1C(=O)NC1CCCc2ccccc21)C(C)(C)C

> <Shape>
0.221

> <Color>
0.051

> <Negative vol penalty>
0.000

$$$$

  -OEChem-04052305473D

 83 91  0     1  0  0  0  0  0999 V2000
  -33.8147  -33.2514   18.4447 C   0  0  0  0  0  0  0  0  0  0  0  0
  -33.3151  -32.1693   19.1622 C   0  0  0  0  0  0  0  0  0  0  0  0
  -23.0763   -9.8644   19.9419 C   0  0  0  0  0  0  0  0  0  0  0  0
  -23.8360   -9.8746   22.2354 C   0  0  0  0  0  0  0  0  0  0  0  0
  -33.6936  -33.2812   17.0560 C   0  0  0  0  0  0  0  0  0  0  0  0
  -32.6931  -31.1168   18.4916 C   0  0  0  0  0  0  0  0  0  0  0  0
  -34.2020  -26.5829   20.1683 C   0  0  0  0  0  0  0  0  0  0  0  0
  -22.3337   -8.7107   20.1930 C   0  0  0  0  0  0  0  0  0  0  0  0
  -23.0933   -8.7209   22.4865 C   0  0  0  0  0  0  0  0  0  0  0  0
  -33.6532  -26.1329   21.3684 C   0  0  0  0  0  0  0  0  0  0  0  0
  -19.8660   -7.9202   23.0895 C   0  0  0  0  0  0  0  0  0  0  0  0
  -19.1090   -7.8807   24.2604 C   0  0  0  0  0  0  0  0  0  0  0  0
  -32.1069  -24.7511   20.1361 C   0  0  0  0  0  0  0  0  0  0  0  0
  -20.3525   -5.9453   24.9990 C   0  0  0  0  0  0  0  0  0  0  0  0
  -29.7670  -17.7313   22.7107 C   0  0  0  0  0  0  0  0  0  0  0  0
  -23.8276  -10.4463   20.9631 C   0  0  0  0  0  0  0  0  0  0  0  0
  -24.1666  -12.9717   20.8404 C   0  0  0  0  0  0  0  0  0  0  0  0
  -33.0784  -32.2241   16.3672 C   0  0  0  0  0  0  0  0  0  0  0  0
  -33.6992  -26.1278   18.9409 C   0  0  0  0  0  0  0  0  0  0  0  0
  -32.5625  -31.1331   17.0925 C   0  0  0  0  0  0  0  0  0  0  0  0
  -32.6527  -25.1948   18.9220 C   0  0  0  0  0  0  0  0  0  0  0  0
  -22.3422   -8.1390   21.4653 C   0  0  0  0  0  0  0  0  0  0  0  0
  -32.6036  -25.2191   21.3524 C   0  0  0  0  0  0  0  0  0  0  0  0
  -20.8662   -6.9722   22.8733 C   0  0  0  0  0  0  0  0  0  0  0  0
  -19.3522   -6.8933   25.2152 C   0  0  0  0  0  0  0  0  0  0  0  0
  -21.1095   -5.9849   23.8281 C   0  0  0  0  0  0  0  0  0  0  0  0
  -24.5953  -11.6378   20.7042 C   0  0  0  0  0  0  0  0  0  0  0  0
  -32.1886  -18.5665   21.9586 C   0  0  0  0  0  0  0  0  0  0  0  0
  -30.5659  -16.9561   21.8994 C   0  0  0  0  0  0  0  0  0  0  0  0
  -31.3893  -19.3420   22.7693 C   0  0  0  0  0  0  0  0  0  0  0  0
  -25.2580  -13.7220   20.4765 C   0  0  0  0  0  0  0  0  0  0  0  0
  -22.8955  -13.4866   21.2587 C   0  0  0  0  0  0  0  0  0  0  0  0
  -32.3051  -27.5056   16.4385 C   0  0  0  0  0  0  0  0  0  0  0  0
  -32.5601  -24.5373   15.1553 C   0  0  0  0  0  0  0  0  0  0  0  0
  -32.8473  -21.1752   15.6658 C   0  0  0  0  0  0  0  0  0  0  0  0
  -30.7230  -14.7738   20.6506 C   0  0  0  0  0  0  0  0  0  0  0  0
  -32.9287  -32.3231   14.8697 C   0  0  0  0  0  0  0  0  0  0  0  0
  -34.3198  -26.6025   17.6556 C   0  0  0  0  0  0  0  0  0  0  0  0
  -32.0903  -24.6600   17.6312 C   0  0  0  0  0  0  0  0  0  0  0  0
  -32.5901  -30.9926   14.2021 C   0  0  0  0  0  0  0  0  0  0  0  0
  -29.6115  -12.3563   18.2848 C   0  0  0  0  0  0  0  0  0  0  0  0
  -31.4742  -30.2827   14.9622 C   0  0  0  0  0  0  0  0  0  0  0  0
  -28.1721  -12.0636   18.7145 C   0  0  0  0  0  0  0  0  0  0  0  0
  -30.5262  -12.5874   19.4863 C   0  0  0  0  0  0  0  0  0  0  0  0
  -28.6183  -13.3112   20.8666 C   0  0  0  0  0  0  0  0  0  0  0  0
  -31.9034  -29.9608   16.3987 C   0  0  1  0  0  0  0  0  0  0  0  0
  -33.3882  -26.4643   16.4555 C   0  0  1  0  0  0  0  0  0  0  0  0
  -27.6458  -13.1356   19.6888 C   0  0  2  0  0  0  0  0  0  0  0  0
  -33.5439  -19.0166   21.5286 C   0  0  0  0  0  0  0  0  0  0  0  0
  -32.9950  -18.9997   14.4238 C   0  0  0  0  0  0  0  0  0  0  0  0
  -31.1749  -20.9572   25.4885 C   0  0  0  0  0  0  0  0  0  0  0  0
  -29.5659  -24.6642   14.5819 C   0  0  0  0  0  0  0  0  0  0  0  0
  -29.5967  -22.1841   14.2411 C   0  0  0  0  0  0  0  0  0  0  0  0
  -30.9381  -23.6635   12.7462 C   0  0  0  0  0  0  0  0  0  0  0  0
  -35.5176  -20.5789   16.7941 C   0  0  0  0  0  0  0  0  0  0  0  0
  -31.6374  -22.8890   23.9395 C   0  0  0  0  0  0  0  0  0  0  0  0
  -31.5189  -23.4607   22.5303 C   0  0  0  0  0  0  0  0  0  1  0  0
  -31.6899  -23.3039   15.1331 C   0  0  1  0  0  0  0  0  0  0  0  0
  -33.7763  -20.1398   15.0580 C   0  0  2  0  0  0  0  0  0  0  0  0
  -31.0921  -21.4618   24.0513 C   0  0  1  0  0  0  0  0  0  0  0  0
  -30.4568  -23.4653   14.2001 C   0  0  0  0  0  0  0  0  0  0  0  0
  -30.1643  -18.9382   23.1602 N   0  0  0  0  0  0  0  0  0  0  0  0
  -25.8604  -11.5429   20.2861 N   0  0  0  0  0  0  0  0  0  0  0  0
  -31.7911  -17.3598   21.5088 N   0  0  0  0  0  0  0  0  0  0  0  0
  -26.2359  -12.8268   20.1565 N   0  0  0  0  0  0  0  0  0  0  0  0
  -32.7266  -25.1591   16.4009 N   0  0  0  0  0  0  0  0  0  0  0  0
  -29.9660  -13.6185   20.3625 N   0  0  0  0  0  0  0  0  0  0  0  0
  -25.4669  -15.0537   20.4021 N   0  0  0  0  0  0  0  0  0  0  0  0
  -21.8846  -12.5767   21.5968 N   0  0  0  0  0  0  0  0  0  0  0  0
  -30.0745  -15.6990   21.4680 N   0  0  0  0  0  0  0  0  0  0  0  0
  -31.8530  -20.5725   23.1987 N   0  0  0  0  0  0  0  0  0  0  0  0
  -32.7744  -28.8052   16.4191 N   0  0  0  0  0  0  0  0  0  0  0  0
  -32.5661  -22.1926   14.7786 N   0  0  0  0  0  0  0  0  0  0  0  0
  -34.6726  -19.5707   16.1038 N   0  3  0  0  0  0  0  0  0  0  0  0
  -22.6579  -14.7170   21.3147 O   0  0  0  0  0  0  0  0  0  0  0  0
  -31.1307  -27.1559   16.4412 O   0  0  0  0  0  0  0  0  0  0  0  0
  -33.0789  -24.9303   14.1075 O   0  0  0  0  0  0  0  0  0  0  0  0
  -32.4115  -21.0881   16.8117 O   0  0  0  0  0  0  0  0  0  0  0  0
  -31.8519  -14.9433   20.1829 O   0  0  0  0  0  0  0  0  0  0  0  0
  -21.6175   -7.0133   21.7108 O   0  0  0  0  0  0  0  0  0  0  0  0
  -32.0657  -24.7787   22.5223 O   0  0  0  0  0  0  0  0  0  1  0  0
  -18.6262   -6.8564   26.3402 F   0  0  0  0  0  0  0  0  0  0  0  0
  -22.0698   -5.0722   23.6265 F   0  0  0  0  0  0  0  0  0  0  0  0
  1  2  1  0  0  0  0
  1  5  2  0  0  0  0
  2  6  2  0  0  0  0
  3  8  2  0  0  0  0
  3 16  1  0  0  0  0
  4  9  1  0  0  0  0
  4 16  2  0  0  0  0
  5 18  1  0  0  0  0
  6 20  1  0  0  0  0
  7 10  2  0  0  0  0
  7 19  1  0  0  0  0
  8 22  1  0  0  0  0
  9 22  2  0  0  0  0
 10 23  1  0  0  0  0
 11 12  2  0  0  0  0
 11 24  1  0  0  0  0
 12 25  1  0  0  0  0
 13 21  1  0  0  0  0
 13 23  2  0  0  0  0
 14 25  2  0  0  0  0
 14 26  1  0  0  0  0
 15 29  1  0  0  0  0
 15 62  2  0  0  0  0
 16 27  1  0  0  0  0
 17 27  1  0  0  0  0
 17 31  2  0  0  0  0
 17 32  1  0  0  0  0
 18 20  2  0  0  0  0
 18 37  1  0  0  0  0
 19 21  2  0  0  0  0
 19 38  1  0  0  0  0
 20 46  1  0  0  0  0
 21 39  1  0  0  0  0
 22 80  1  0  0  0  0
 23 81  1  0  0  0  0
 24 26  2  0  0  0  0
 24 80  1  0  0  0  0
 25 82  1  0  0  0  0
 26 83  1  0  0  0  0
 27 63  2  0  0  0  0
 28 30  2  0  0  0  0
 28 49  1  0  0  0  0
 28 64  1  0  0  0  0
 29 64  2  0  0  0  0
 29 70  1  0  0  0  0
 30 62  1  0  0  0  0
 30 71  1  0  0  0  0
 31 65  1  0  0  0  0
 31 68  1  0  0  0  0
 32 69  1  0  0  0  0
 32 75  2  0  0  0  0
 33 47  1  0  0  0  0
 33 72  1  0  0  0  0
 33 76  2  0  0  0  0
 34 58  1  0  0  0  0
 34 66  1  0  0  0  0
 34 77  2  0  0  0  0
 35 59  1  0  0  0  0
 35 73  1  0  0  0  0
 35 78  2  0  0  0  0
 36 67  1  0  0  0  0
 36 70  1  0  0  0  0
 36 79  2  0  0  0  0
 37 40  1  0  0  0  0
 38 47  1  0  0  0  0
 39 66  1  0  0  0  0
 40 42  1  0  0  0  0
 41 43  1  0  0  0  0
 41 44  1  0  0  0  0
 42 46  1  0  0  0  0
 43 48  1  0  0  0  0
 44 67  1  0  0  0  0
 45 48  1  0  0  0  0
 45 67  1  0  0  0  0
 46 72  1  0  0  0  0
 47 66  1  0  0  0  0
 48 65  1  0  0  0  0
 50 59  1  0  0  0  0
 51 60  1  0  0  0  0
 52 61  1  0  0  0  0
 53 61  1  0  0  0  0
 54 61  1  0  0  0  0
 55 74  1  0  0  0  0
 56 57  1  0  0  0  0
 56 60  1  0  0  0  0
 57 81  1  0  0  0  0
 58 61  1  0  0  0  0
 58 73  1  0  0  0  0
 59 74  1  0  0  0  0
 60 71  1  0  0  0  0
 63 65  1  0  0  0  0
M  CHG  1  74   1
M  ISO  4  36 100  57 101  70 100  81 101
M  END
> <Batch ID>
0199

> <Smiles>
CNC(C)C(=O)NC(C(=O)N1Cc2cc([101O:1][101CH2:1]CC(C)Nc3ncc([100NH:0][100C:0](=O)N4CCCC(n5nc(-c6ccc(Oc7ccc(F)cc7F)cc6)c(C(N)=O)c5N)C4)nc3C)ccc2CC1C(=O)NC1CCCc2ccccc21)C(C)(C)C

> <Shape>
0.180

> <Color>
0.188

> <Negative vol penalty>
0.000

$$$$

  -OEChem-04052305473D

 83 91  0     1  0  0  0  0  0999 V2000
  -16.9692  -29.4598   22.6123 C   0  0  0  0  0  0  0  0  0  0  0  0
  -18.1761  -29.5653   21.9284 C   0  0  0  0  0  0  0  0  0  0  0  0
  -26.6394  -12.5401   21.8111 C   0  0  0  0  0  0  0  0  0  0  0  0
  -25.9431  -14.0438   20.0530 C   0  0  0  0  0  0  0  0  0  0  0  0
  -16.9578  -29.0481   23.9443 C   0  0  0  0  0  0  0  0  0  0  0  0
  -19.3725  -29.2603   22.5765 C   0  0  0  0  0  0  0  0  0  0  0  0
  -24.3441  -26.6767   20.1039 C   0  0  0  0  0  0  0  0  0  0  0  0
  -25.3644  -11.9749   21.8327 C   0  0  0  0  0  0  0  0  0  0  0  0
  -24.6680  -13.4786   20.0745 C   0  0  0  0  0  0  0  0  0  0  0  0
  -25.5399  -27.2114   19.6263 C   0  0  0  0  0  0  0  0  0  0  0  0
  -22.3971   -9.8920   22.1008 C   0  0  0  0  0  0  0  0  0  0  0  0
  -22.3051   -8.5011   22.1491 C   0  0  0  0  0  0  0  0  0  0  0  0
  -26.5848  -26.7578   21.7527 C   0  0  0  0  0  0  0  0  0  0  0  0
  -23.5057   -8.3491   20.0580 C   0  0  0  0  0  0  0  0  0  0  0  0
  -29.0438  -21.6995   19.5070 C   0  0  0  0  0  0  0  0  0  0  0  0
  -30.2679  -23.8643   20.4777 C   0  0  0  0  0  0  0  0  0  0  0  0
  -26.9287  -13.5746   20.9213 C   0  0  0  0  0  0  0  0  0  0  0  0
  -29.3429  -13.7529   20.1164 C   0  0  0  0  0  0  0  0  0  0  0  0
  -18.1538  -28.7286   24.6062 C   0  0  0  0  0  0  0  0  0  0  0  0
  -24.2566  -26.1877   21.4152 C   0  0  0  0  0  0  0  0  0  0  0  0
  -19.3772  -28.8452   23.9190 C   0  0  0  0  0  0  0  0  0  0  0  0
  -25.3875  -26.2151   22.2436 C   0  0  0  0  0  0  0  0  0  0  0  0
  -24.3787  -12.4441   20.9644 C   0  0  0  0  0  0  0  0  0  0  0  0
  -26.6597  -27.2547   20.4517 C   0  0  0  0  0  0  0  0  0  0  0  0
  -23.0433  -10.5116   21.0311 C   0  0  0  0  0  0  0  0  0  0  0  0
  -22.8594   -7.7296   21.1277 C   0  0  0  0  0  0  0  0  0  0  0  0
  -23.5977   -9.7401   20.0097 C   0  0  0  0  0  0  0  0  0  0  0  0
  -28.2455  -14.1593   20.8989 C   0  0  0  0  0  0  0  0  0  0  0  0
  -29.7182  -21.6565   20.7074 C   0  0  0  0  0  0  0  0  0  0  0  0
  -29.5942  -23.9072   19.2770 C   0  0  0  0  0  0  0  0  0  0  0  0
  -30.3498  -14.6217   20.4595 C   0  0  0  0  0  0  0  0  0  0  0  0
  -29.4431  -12.6855   19.1644 C   0  0  0  0  0  0  0  0  0  0  0  0
  -22.5505  -26.9536   23.9856 C   0  0  0  0  0  0  0  0  0  0  0  0
  -23.9439  -24.2978   25.2215 C   0  0  0  0  0  0  0  0  0  0  0  0
  -26.5476  -22.0927   25.1518 C   0  0  0  0  0  0  0  0  0  0  0  0
  -30.3746  -20.1838   22.6430 C   0  0  0  0  0  0  0  0  0  0  0  0
  -18.0955  -28.3335   26.0606 C   0  0  0  0  0  0  0  0  0  0  0  0
  -22.9668  -25.5897   21.9065 C   0  0  0  0  0  0  0  0  0  0  0  0
  -25.3514  -25.6845   23.6527 C   0  0  0  0  0  0  0  0  0  0  0  0
  -19.3745  -27.6687   26.5630 C   0  0  0  0  0  0  0  0  0  0  0  0
  -31.8911  -17.3146   24.1074 C   0  0  0  0  0  0  0  0  0  0  0  0
  -20.5993  -28.4571   26.1103 C   0  0  0  0  0  0  0  0  0  0  0  0
  -31.2326  -16.1430   23.3754 C   0  0  0  0  0  0  0  0  0  0  0  0
  -30.9068  -18.4575   24.3494 C   0  0  0  0  0  0  0  0  0  0  0  0
  -29.5417  -17.7605   22.4206 C   0  0  0  0  0  0  0  0  0  0  0  0
  -20.6937  -28.4993   24.5803 C   0  0  1  0  0  0  0  0  0  0  0  0
  -22.8489  -25.5908   23.4275 C   0  0  1  0  0  0  0  0  0  0  0  0
  -30.5106  -16.6116   22.0968 C   0  0  2  0  0  0  0  0  0  0  0  0
  -27.4286  -20.0475   26.3088 C   0  0  0  0  0  0  0  0  0  0  0  0
  -31.7069  -26.2031   18.7857 C   0  0  0  0  0  0  0  0  0  0  0  0
  -24.8602  -26.0219   27.5662 C   0  0  0  0  0  0  0  0  0  0  0  0
  -26.4857  -24.2156   28.1689 C   0  0  0  0  0  0  0  0  0  0  0  0
  -24.0355  -23.7484   28.2028 C   0  0  0  0  0  0  0  0  0  0  0  0
  -26.4063  -20.4861   22.6703 C   0  0  0  0  0  0  0  0  0  0  0  0
  -28.0837  -27.6556   18.5896 C   0  0  0  0  0  0  0  0  0  1  0  0
  -25.2161  -24.0138   25.9829 C   0  0  1  0  0  0  0  0  0  0  0  0
  -26.5829  -20.5751   25.1602 C   0  0  2  0  0  0  0  0  0  0  0  0
  -30.2074  -26.3151   19.0498 C   0  0  1  0  0  0  0  0  0  0  0  0
  -29.5925  -27.5512   18.3731 C   0  0  1  0  0  0  0  0  0  0  0  0
  -25.1498  -24.5118   27.4544 C   0  0  0  0  0  0  0  0  0  0  0  0
  -30.3421  -22.7382   21.2144 N   0  0  0  0  0  0  0  0  0  0  0  0
  -28.9699  -22.8255   18.7701 N   0  0  0  0  0  0  0  0  0  0  0  0
  -28.5284  -15.2049   21.6804 N   0  0  0  0  0  0  0  0  0  0  0  0
  -29.8152  -15.4628   21.3907 N   0  0  0  0  0  0  0  0  0  0  0  0
  -24.0656  -25.1154   24.0891 N   0  0  0  0  0  0  0  0  0  0  0  0
  -30.2644  -18.8513   23.0935 N   0  0  0  0  0  0  0  0  0  0  0  0
  -31.6314  -14.7407   20.0526 N   0  0  0  0  0  0  0  0  0  0  0  0
  -28.3133  -11.8893   18.9319 N   0  0  0  0  0  0  0  0  0  0  0  0
  -29.7509  -20.4327   21.4209 N   0  0  0  0  0  0  0  0  0  0  0  0
  -29.5664  -25.1021   18.5820 N   0  0  0  0  0  0  0  0  0  0  0  0
  -21.2022  -27.2439   24.0704 N   0  0  0  0  0  0  0  0  0  0  0  0
  -25.4622  -22.5822   25.8471 N   0  0  0  0  0  0  0  0  0  0  0  0
  -27.1539  -20.0631   23.8824 N   0  3  0  0  0  0  0  0  0  0  0  0
  -30.5079  -12.4346   18.5505 O   0  0  0  0  0  0  0  0  0  0  0  0
  -23.4751  -27.6867   24.3161 O   0  0  0  0  0  0  0  0  0  0  0  0
  -22.8824  -23.8062   25.6129 O   0  0  0  0  0  0  0  0  0  0  0  0
  -27.3999  -22.7756   24.5881 O   0  0  0  0  0  0  0  0  0  0  0  0
  -31.0009  -21.0346   23.2802 O   0  0  0  0  0  0  0  0  0  0  0  0
  -29.8609  -27.5154   16.9703 O   0  0  0  0  0  0  0  0  0  0  0  0
  -23.1345  -11.8926   20.9850 O   0  0  0  0  0  0  0  0  0  0  0  0
  -27.8279  -27.7766   19.9883 O   0  0  0  0  0  0  0  0  0  1  0  0
  -22.7723   -6.3938   21.1749 F   0  0  0  0  0  0  0  0  0  0  0  0
  -24.2208  -10.3295   18.9801 F   0  0  0  0  0  0  0  0  0  0  0  0
  1  2  1  0  0  0  0
  1  5  2  0  0  0  0
  2  6  2  0  0  0  0
  3  8  2  0  0  0  0
  3 17  1  0  0  0  0
  4  9  1  0  0  0  0
  4 17  2  0  0  0  0
  5 19  1  0  0  0  0
  6 21  1  0  0  0  0
  7 10  2  0  0  0  0
  7 20  1  0  0  0  0
  8 23  1  0  0  0  0
  9 23  2  0  0  0  0
 10 24  1  0  0  0  0
 11 12  2  0  0  0  0
 11 25  1  0  0  0  0
 12 26  1  0  0  0  0
 13 22  1  0  0  0  0
 13 24  2  0  0  0  0
 14 26  2  0  0  0  0
 14 27  1  0  0  0  0
 15 29  2  0  0  0  0
 15 62  1  0  0  0  0
 16 30  1  0  0  0  0
 16 61  2  0  0  0  0
 17 28  1  0  0  0  0
 18 28  1  0  0  0  0
 18 31  2  0  0  0  0
 18 32  1  0  0  0  0
 19 21  2  0  0  0  0
 19 37  1  0  0  0  0
 20 22  2  0  0  0  0
 20 38  1  0  0  0  0
 21 46  1  0  0  0  0
 22 39  1  0  0  0  0
 23 80  1  0  0  0  0
 24 81  1  0  0  0  0
 25 27  2  0  0  0  0
 25 80  1  0  0  0  0
 26 82  1  0  0  0  0
 27 83  1  0  0  0  0
 28 63  2  0  0  0  0
 29 61  1  0  0  0  0
 29 69  1  0  0  0  0
 30 62  2  0  0  0  0
 30 70  1  0  0  0  0
 31 64  1  0  0  0  0
 31 67  1  0  0  0  0
 32 68  1  0  0  0  0
 32 74  2  0  0  0  0
 33 47  1  0  0  0  0
 33 71  1  0  0  0  0
 33 75  2  0  0  0  0
 34 56  1  0  0  0  0
 34 65  1  0  0  0  0
 34 76  2  0  0  0  0
 35 57  1  0  0  0  0
 35 72  1  0  0  0  0
 35 77  2  0  0  0  0
 36 66  1  0  0  0  0
 36 69  1  0  0  0  0
 36 78  2  0  0  0  0
 37 40  1  0  0  0  0
 38 47  1  0  0  0  0
 39 65  1  0  0  0  0
 40 42  1  0  0  0  0
 41 43  1  0  0  0  0
 41 44  1  0  0  0  0
 42 46  1  0  0  0  0
 43 48  1  0  0  0  0
 44 66  1  0  0  0  0
 45 48  1  0  0  0  0
 45 66  1  0  0  0  0
 46 71  1  0  0  0  0
 47 65  1  0  0  0  0
 48 64  1  0  0  0  0
 49 57  1  0  0  0  0
 50 58  1  0  0  0  0
 51 60  1  0  0  0  0
 52 60  1  0  0  0  0
 53 60  1  0  0  0  0
 54 73  1  0  0  0  0
 55 59  1  0  0  0  0
 55 81  1  0  0  0  0
 56 60  1  0  0  0  0
 56 72  1  0  0  0  0
 57 73  1  0  0  0  0
 58 59  1  0  0  0  0
 58 70  1  0  0  0  0
 59 79  1  0  0  0  0
 63 64  1  0  0  0  0
M  CHG  1  73   1
M  ISO  4  36 100  55 101  69 100  81 101
M  END
> <Batch ID>
0199

> <Smiles>
CNC(C)C(=O)NC(C(=O)N1Cc2cc([101O:1][101CH2:1]C(O)C(C)Nc3cnc([100NH:0][100C:0](=O)N4CCCC(n5nc(-c6ccc(Oc7ccc(F)cc7F)cc6)c(C(N)=O)c5N)C4)cn3)ccc2CC1C(=O)NC1CCCc2ccccc21)C(C)(C)C

> <Shape>
0.249

> <Color>
0.088

> <Negative vol penalty>
0.000

$$$$

  -OEChem-04052305473D

 81 89  0     1  0  0  0  0  0999 V2000
  -23.3784  -32.1186   24.4432 C   0  0  0  0  0  0  0  0  0  0  0  0
  -24.2809  -31.0845   24.2165 C   0  0  0  0  0  0  0  0  0  0  0  0
  -23.0778   -9.8736   19.9384 C   0  0  0  0  0  0  0  0  0  0  0  0
  -23.8422   -9.8742   22.2303 C   0  0  0  0  0  0  0  0  0  0  0  0
  -22.0130  -31.9030   24.2615 C   0  0  0  0  0  0  0  0  0  0  0  0
  -23.8183  -29.8337   23.8091 C   0  0  0  0  0  0  0  0  0  0  0  0
  -26.6150  -25.9350   20.0031 C   0  0  0  0  0  0  0  0  0  0  0  0
  -22.3371   -8.7178   20.1857 C   0  0  0  0  0  0  0  0  0  0  0  0
  -23.1015   -8.7184   22.4776 C   0  0  0  0  0  0  0  0  0  0  0  0
  -27.4004  -24.8053   20.2282 C   0  0  0  0  0  0  0  0  0  0  0  0
  -19.8764   -7.9110   23.0836 C   0  0  0  0  0  0  0  0  0  0  0  0
  -19.1218   -7.8651   24.2559 C   0  0  0  0  0  0  0  0  0  0  0  0
  -25.4570  -23.4048   19.9434 C   0  0  0  0  0  0  0  0  0  0  0  0
  -20.3692   -5.9279   24.9830 C   0  0  0  0  0  0  0  0  0  0  0  0
  -31.8235  -17.5500   21.6835 C   0  0  0  0  0  0  0  0  0  0  0  0
  -29.9233  -17.8484   22.7489 C   0  0  0  0  0  0  0  0  0  0  0  0
  -23.8304  -10.4517   20.9607 C   0  0  0  0  0  0  0  0  0  0  0  0
  -24.1662  -12.9781   20.8490 C   0  0  0  0  0  0  0  0  0  0  0  0
  -21.5342  -30.6517   23.8423 C   0  0  0  0  0  0  0  0  0  0  0  0
  -25.2403  -25.8086   19.7569 C   0  0  0  0  0  0  0  0  0  0  0  0
  -22.4451  -29.6008   23.6229 C   0  0  0  0  0  0  0  0  0  0  0  0
  -24.6568  -24.5343   19.7130 C   0  0  0  0  0  0  0  0  0  0  0  0
  -30.5745  -16.9521   21.9371 C   0  0  0  0  0  0  0  0  0  0  0  0
  -22.3489   -8.1402   21.4553 C   0  0  0  0  0  0  0  0  0  0  0  0
  -26.8210  -23.5402   20.2012 C   0  0  0  0  0  0  0  0  0  0  0  0
  -20.8773   -6.9653   22.8610 C   0  0  0  0  0  0  0  0  0  0  0  0
  -19.3682   -6.8736   25.2056 C   0  0  0  0  0  0  0  0  0  0  0  0
  -21.1237   -5.9738   23.8107 C   0  0  0  0  0  0  0  0  0  0  0  0
  -24.5962  -11.6453   20.7057 C   0  0  0  0  0  0  0  0  0  0  0  0
  -25.2559  -13.7314   20.4862 C   0  0  0  0  0  0  0  0  0  0  0  0
  -22.8953  -13.4895   21.2722 C   0  0  0  0  0  0  0  0  0  0  0  0
  -22.5986  -26.7942   21.2245 C   0  0  0  0  0  0  0  0  0  0  0  0
  -21.1474  -25.5661   18.5961 C   0  0  0  0  0  0  0  0  0  0  0  0
  -21.2656  -23.3842   15.9747 C   0  0  0  0  0  0  0  0  0  0  0  0
  -30.7199  -14.7892   20.6538 C   0  0  0  0  0  0  0  0  0  0  0  0
  -20.0455  -30.4529   23.7050 C   0  0  0  0  0  0  0  0  0  0  0  0
  -24.4119  -27.0352   19.4896 C   0  0  0  0  0  0  0  0  0  0  0  0
  -23.1894  -24.3432   19.4328 C   0  0  0  0  0  0  0  0  0  0  0  0
  -19.6684  -29.2055   22.9100 C   0  0  0  0  0  0  0  0  0  0  0  0
  -29.6065  -12.3810   18.2793 C   0  0  0  0  0  0  0  0  0  0  0  0
  -20.4848  -28.0058   23.3799 C   0  0  0  0  0  0  0  0  0  0  0  0
  -28.1684  -12.0846   18.7107 C   0  0  0  0  0  0  0  0  0  0  0  0
  -30.5234  -12.6078   19.4799 C   0  0  0  0  0  0  0  0  0  0  0  0
  -28.6175  -13.3230   20.8674 C   0  0  0  0  0  0  0  0  0  0  0  0
  -21.9841  -28.2370   23.1562 C   0  0  1  0  0  0  0  0  0  0  0  0
  -22.9253  -26.8225   19.7582 C   0  0  1  0  0  0  0  0  0  0  0  0
  -27.6428  -13.1515   19.6909 C   0  0  2  0  0  0  0  0  0  0  0  0
  -19.9149  -22.5800   14.0186 C   0  0  0  0  0  0  0  0  0  0  0  0
  -19.3950  -23.9288   20.4825 C   0  0  0  0  0  0  0  0  0  0  0  0
  -18.7625  -22.4899   18.5337 C   0  0  0  0  0  0  0  0  0  0  0  0
  -18.1856  -24.9168   18.5291 C   0  0  0  0  0  0  0  0  0  0  0  0
  -23.3159  -24.2854   14.0400 C   0  0  0  0  0  0  0  0  0  0  0  0
  -30.2285  -21.3775   22.9032 C   0  0  0  0  0  0  0  0  0  0  0  0
  -30.5390  -20.1301   23.7434 C   0  0  0  0  0  0  0  0  0  0  0  0
  -28.7172  -22.5893   21.2763 C   0  0  0  0  0  0  0  0  0  1  0  0
  -20.5938  -24.2147   18.2137 C   0  0  1  0  0  0  0  0  0  0  0  0
  -20.9678  -23.5674   14.4975 C   0  0  2  0  0  0  0  0  0  0  0  0
  -28.9937  -21.2723   21.9982 C   0  0  2  0  0  0  0  0  0  0  0  0
  -19.2616  -23.8910   18.9470 C   0  0  0  0  0  0  0  0  0  0  0  0
  -31.9598  -18.7347   22.2852 N   0  0  0  0  0  0  0  0  0  0  0  0
  -25.8605  -11.5539   20.2845 N   0  0  0  0  0  0  0  0  0  0  0  0
  -30.7880  -18.8884   22.9249 N   0  0  0  0  0  0  0  0  0  0  0  0
  -26.2342  -12.8388   20.1600 N   0  0  0  0  0  0  0  0  0  0  0  0
  -22.4202  -25.5737   19.1840 N   0  0  0  0  0  0  0  0  0  0  0  0
  -29.9638  -13.6342   20.3620 N   0  0  0  0  0  0  0  0  0  0  0  0
  -25.4630  -15.0636   20.4175 N   0  0  0  0  0  0  0  0  0  0  0  0
  -21.8862  -12.5767   21.6082 N   0  0  0  0  0  0  0  0  0  0  0  0
  -30.0720  -15.7099   21.4767 N   0  0  0  0  0  0  0  0  0  0  0  0
  -22.3242  -28.0364   21.7639 N   0  0  0  0  0  0  0  0  0  0  0  0
  -20.4907  -24.2127   16.7585 N   0  0  0  0  0  0  0  0  0  0  0  0
  -27.7955  -20.9408   22.8245 N   0  3  0  0  0  0  0  0  0  0  0  0
  -22.2042  -23.3640   13.6907 N   0  3  0  0  0  0  0  0  0  0  0  0
  -22.6563  -14.7193   21.3344 O   0  0  0  0  0  0  0  0  0  0  0  0
  -22.5943  -25.7243   21.8220 O   0  0  0  0  0  0  0  0  0  0  0  0
  -20.4782  -26.5785   18.3746 O   0  0  0  0  0  0  0  0  0  0  0  0
  -22.0994  -22.5834   16.3918 O   0  0  0  0  0  0  0  0  0  0  0  0
  -31.8477  -14.9622   20.1845 O   0  0  0  0  0  0  0  0  0  0  0  0
  -21.6260   -7.0126   21.6971 O   0  0  0  0  0  0  0  0  0  0  0  0
  -27.5852  -22.4359   20.4211 O   0  0  0  0  0  0  0  0  0  1  0  0
  -18.6446   -6.8306   26.3319 F   0  0  0  0  0  0  0  0  0  0  0  0
  -22.0847   -5.0632   23.6029 F   0  0  0  0  0  0  0  0  0  0  0  0
  1  2  1  0  0  0  0
  1  5  2  0  0  0  0
  2  6  2  0  0  0  0
  3  8  2  0  0  0  0
  3 17  1  0  0  0  0
  4  9  1  0  0  0  0
  4 17  2  0  0  0  0
  5 19  1  0  0  0  0
  6 21  1  0  0  0  0
  7 10  2  0  0  0  0
  7 20  1  0  0  0  0
  8 24  1  0  0  0  0
  9 24  2  0  0  0  0
 10 25  1  0  0  0  0
 11 12  2  0  0  0  0
 11 26  1  0  0  0  0
 12 27  1  0  0  0  0
 13 22  1  0  0  0  0
 13 25  2  0  0  0  0
 14 27  2  0  0  0  0
 14 28  1  0  0  0  0
 15 23  1  0  0  0  0
 15 60  2  0  0  0  0
 16 23  2  0  0  0  0
 16 62  1  0  0  0  0
 17 29  1  0  0  0  0
 18 29  1  0  0  0  0
 18 30  2  0  0  0  0
 18 31  1  0  0  0  0
 19 21  2  0  0  0  0
 19 36  1  0  0  0  0
 20 22  2  0  0  0  0
 20 37  1  0  0  0  0
 21 45  1  0  0  0  0
 22 38  1  0  0  0  0
 23 68  1  0  0  0  0
 24 78  1  0  0  0  0
 25 79  1  0  0  0  0
 26 28  2  0  0  0  0
 26 78  1  0  0  0  0
 27 80  1  0  0  0  0
 28 81  1  0  0  0  0
 29 61  2  0  0  0  0
 30 63  1  0  0  0  0
 30 66  1  0  0  0  0
 31 67  1  0  0  0  0
 31 73  2  0  0  0  0
 32 46  1  0  0  0  0
 32 69  1  0  0  0  0
 32 74  2  0  0  0  0
 33 56  1  0  0  0  0
 33 64  1  0  0  0  0
 33 75  2  0  0  0  0
 34 57  1  0  0  0  0
 34 70  1  0  0  0  0
 34 76  2  0  0  0  0
 35 65  1  0  0  0  0
 35 68  1  0  0  0  0
 35 77  2  0  0  0  0
 36 39  1  0  0  0  0
 37 46  1  0  0  0  0
 38 64  1  0  0  0  0
 39 41  1  0  0  0  0
 40 42  1  0  0  0  0
 40 43  1  0  0  0  0
 41 45  1  0  0  0  0
 42 47  1  0  0  0  0
 43 65  1  0  0  0  0
 44 47  1  0  0  0  0
 44 65  1  0  0  0  0
 45 69  1  0  0  0  0
 46 64  1  0  0  0  0
 47 63  1  0  0  0  0
 48 57  1  0  0  0  0
 49 59  1  0  0  0  0
 50 59  1  0  0  0  0
 51 59  1  0  0  0  0
 52 72  1  0  0  0  0
 53 54  1  0  0  0  0
 53 58  1  0  0  0  0
 54 62  1  0  0  0  0
 55 58  1  0  0  0  0
 55 79  1  0  0  0  0
 56 59  1  0  0  0  0
 56 70  1  0  0  0  0
 57 72  1  0  0  0  0
 58 71  1  0  0  0  0
 60 62  1  0  0  0  0
 61 63  1  0  0  0  0
M  CHG  2  71   1  72   1
M  ISO  4  35 100  55 101  68 100  79 101
M  END
> <Batch ID>
0199

> <Smiles>
CNC(C)C(=O)NC(C(=O)N1Cc2cc([101O:1][101CH2:1]C(N)CCn3cc([100NH:0][100C:0](=O)N4CCCC(n5nc(-c6ccc(Oc7ccc(F)cc7F)cc6)c(C(N)=O)c5N)C4)cn3)ccc2CC1C(=O)NC1CCCc2ccccc21)C(C)(C)C

> <Shape>
0.265

> <Color>
0.189

> <Negative vol penalty>
0.000

$$$$

  -OEChem-04052305473D

 82 90  0     1  0  0  0  0  0999 V2000
  -21.4898  -13.0600   19.5628 C   0  0  0  0  0  0  0  0  0  0  0  0
  -21.5753  -14.4139   19.8711 C   0  0  0  0  0  0  0  0  0  0  0  0
  -30.3379  -27.5997   21.2263 C   0  0  0  0  0  0  0  0  0  0  0  0
  -29.1216  -26.2039   22.7786 C   0  0  0  0  0  0  0  0  0  0  0  0
  -22.5738  -12.2195   19.8127 C   0  0  0  0  0  0  0  0  0  0  0  0
  -22.7447  -14.9280   20.4304 C   0  0  0  0  0  0  0  0  0  0  0  0
  -24.1761  -19.2830   18.2788 C   0  0  0  0  0  0  0  0  0  0  0  0
  -31.5197  -27.3429   21.9212 C   0  0  0  0  0  0  0  0  0  0  0  0
  -30.3035  -25.9470   23.4735 C   0  0  0  0  0  0  0  0  0  0  0  0
  -23.4940  -20.4370   18.6621 C   0  0  0  0  0  0  0  0  0  0  0  0
  -34.9184  -26.7648   23.0741 C   0  0  0  0  0  0  0  0  0  0  0  0
  -36.0558  -26.4570   22.3277 C   0  0  0  0  0  0  0  0  0  0  0  0
  -25.3050  -21.0056   20.1507 C   0  0  0  0  0  0  0  0  0  0  0  0
  -34.9249  -24.5358   21.3966 C   0  0  0  0  0  0  0  0  0  0  0  0
  -19.6808  -24.2161   22.7003 C   0  0  0  0  0  0  0  0  0  0  0  0
  -29.1388  -27.0303   21.6550 C   0  0  0  0  0  0  0  0  0  0  0  0
  -27.3869  -26.5603   19.8612 C   0  0  0  0  0  0  0  0  0  0  0  0
  -23.7605  -12.7253   20.3664 C   0  0  0  0  0  0  0  0  0  0  0  0
  -25.4249  -18.9756   18.8376 C   0  0  0  0  0  0  0  0  0  0  0  0
  -23.8451  -14.0932   20.6891 C   0  0  0  0  0  0  0  0  0  0  0  0
  -26.0021  -19.8485   19.7709 C   0  0  0  0  0  0  0  0  0  0  0  0
  -31.5025  -26.5165   23.0448 C   0  0  0  0  0  0  0  0  0  0  0  0
  -24.0571  -21.2970   19.6004 C   0  0  0  0  0  0  0  0  0  0  0  0
  -33.7843  -25.9580   22.9819 C   0  0  0  0  0  0  0  0  0  0  0  0
  -36.0591  -25.3425   21.4889 C   0  0  0  0  0  0  0  0  0  0  0  0
  -33.7875  -24.8435   22.1431 C   0  0  0  0  0  0  0  0  0  0  0  0
  -27.9176  -27.2958   20.9380 C   0  0  0  0  0  0  0  0  0  0  0  0
  -19.9404  -26.8684   22.5411 C   0  0  0  0  0  0  0  0  0  0  0  0
  -20.8345  -24.7893   22.2124 C   0  0  0  0  0  0  0  0  0  0  0  0
  -18.7865  -26.2950   23.0282 C   0  0  0  0  0  0  0  0  0  0  0  0
  -26.2231  -27.2146   19.5390 C   0  0  0  0  0  0  0  0  0  0  0  0
  -27.9002  -25.3903   19.2106 C   0  0  0  0  0  0  0  0  0  0  0  0
  -26.5680  -16.5893   20.5990 C   0  0  0  0  0  0  0  0  0  0  0  0
  -29.3923  -18.1153   20.1329 C   0  0  0  0  0  0  0  0  0  0  0  0
  -31.0317  -21.0241   19.4272 C   0  0  0  0  0  0  0  0  0  0  0  0
  -21.8539  -30.0625   22.0518 C   0  0  0  0  0  0  0  0  0  0  0  0
  -24.8887  -11.7692   20.6623 C   0  0  0  0  0  0  0  0  0  0  0  0
  -26.1600  -17.7407   18.3936 C   0  0  0  0  0  0  0  0  0  0  0  0
  -27.3495  -19.5743   20.3855 C   0  0  0  0  0  0  0  0  0  0  0  0
  -26.2258  -12.4628   20.9099 C   0  0  0  0  0  0  0  0  0  0  0  0
  -24.4545  -31.7655   20.3159 C   0  0  0  0  0  0  0  0  0  0  0  0
  -26.0485  -13.6384   21.8656 C   0  0  0  0  0  0  0  0  0  0  0  0
  -25.5633  -30.7182   20.1993 C   0  0  0  0  0  0  0  0  0  0  0  0
  -23.7090  -31.6527   21.6439 C   0  0  0  0  0  0  0  0  0  0  0  0
  -24.2842  -29.2631   21.8258 C   0  0  0  0  0  0  0  0  0  0  0  0
  -25.1054  -14.6930   21.2740 C   0  0  1  0  0  0  0  0  0  0  0  0
  -27.1926  -17.2623   19.4096 C   0  0  1  0  0  0  0  0  0  0  0  0
  -25.0279  -29.3012   20.4798 C   0  0  2  0  0  0  0  0  0  0  0  0
  -33.3410  -21.9669   19.1519 C   0  0  0  0  0  0  0  0  0  0  0  0
  -29.7562  -18.1021   23.1623 C   0  0  0  0  0  0  0  0  0  0  0  0
  -31.5344  -19.8428   22.8864 C   0  0  0  0  0  0  0  0  0  0  0  0
  -31.8287  -17.5882   21.8604 C   0  0  0  0  0  0  0  0  0  0  0  0
  -30.5109  -21.7864   16.6154 C   0  0  0  0  0  0  0  0  0  0  0  0
  -20.1034  -28.3477   22.4449 C   0  0  0  0  0  0  0  0  0  0  0  0
  -23.1191  -24.4307   21.2757 C   0  0  0  0  0  0  0  0  0  0  0  0
  -24.0288  -23.2600   20.9427 C   0  0  0  0  0  0  0  0  0  1  0  0
  -30.1555  -19.1970   20.8585 C   0  0  1  0  0  0  0  0  0  0  0  0
  -32.1481  -21.3391   18.4479 C   0  0  2  0  0  0  0  0  0  0  0  0
  -30.7924  -18.6870   22.1819 C   0  0  0  0  0  0  0  0  0  0  0  0
  -18.6361  -24.9586   23.1169 N   0  0  0  0  0  0  0  0  0  0  0  0
  -27.1536  -28.3376   21.2770 N   0  0  0  0  0  0  0  0  0  0  0  0
  -20.9850  -26.1257   22.1241 N   0  0  0  0  0  0  0  0  0  0  0  0
  -26.1311  -28.2616   20.4082 N   0  0  0  0  0  0  0  0  0  0  0  0
  -28.0260  -18.3509   19.9238 N   0  0  0  0  0  0  0  0  0  0  0  0
  -23.2258  -30.2850   21.8484 N   0  0  0  0  0  0  0  0  0  0  0  0
  -17.7259  -27.1284   23.4494 N   0  0  0  0  0  0  0  0  0  0  0  0
  -25.2797  -26.9908   18.5997 N   0  0  0  0  0  0  0  0  0  0  0  0
  -29.1086  -24.8473   19.6679 N   0  0  0  0  0  0  0  0  0  0  0  0
  -21.8616  -23.9543   21.8045 N   0  0  0  0  0  0  0  0  0  0  0  0
  -25.7958  -15.4883   20.2814 N   0  0  0  0  0  0  0  0  0  0  0  0
  -31.1166  -19.7315   19.8999 N   0  0  0  0  0  0  0  0  0  0  0  0
  -21.4796  -28.7364   22.2311 N   0  0  0  0  0  0  0  0  0  0  0  0
  -31.6678  -22.2860   17.4021 N   0  3  0  0  0  0  0  0  0  0  0  0
  -27.3132  -24.8522   18.2414 O   0  0  0  0  0  0  0  0  0  0  0  0
  -26.7728  -17.0350   21.7220 O   0  0  0  0  0  0  0  0  0  0  0  0
  -29.9879  -17.1019   19.7590 O   0  0  0  0  0  0  0  0  0  0  0  0
  -30.1727  -21.8439   19.7443 O   0  0  0  0  0  0  0  0  0  0  0  0
  -21.0233  -30.9773   22.0667 O   0  0  0  0  0  0  0  0  0  0  0  0
  -32.6556  -26.2654   23.7230 O   0  0  0  0  0  0  0  0  0  0  0  0
  -23.3932  -22.4237   19.9768 O   0  0  0  0  0  0  0  0  0  1  0  0
  -37.1509  -25.0480   20.7710 F   0  0  0  0  0  0  0  0  0  0  0  0
  -32.7005  -24.0654   22.0494 F   0  0  0  0  0  0  0  0  0  0  0  0
  1  2  1  0  0  0  0
  1  5  2  0  0  0  0
  2  6  2  0  0  0  0
  3  8  2  0  0  0  0
  3 16  1  0  0  0  0
  4  9  1  0  0  0  0
  4 16  2  0  0  0  0
  5 18  1  0  0  0  0
  6 20  1  0  0  0  0
  7 10  2  0  0  0  0
  7 19  1  0  0  0  0
  8 22  1  0  0  0  0
  9 22  2  0  0  0  0
 10 23  1  0  0  0  0
 11 12  2  0  0  0  0
 11 24  1  0  0  0  0
 12 25  1  0  0  0  0
 13 21  1  0  0  0  0
 13 23  2  0  0  0  0
 14 25  2  0  0  0  0
 14 26  1  0  0  0  0
 15 29  1  0  0  0  0
 15 60  2  0  0  0  0
 16 27  1  0  0  0  0
 17 27  1  0  0  0  0
 17 31  2  0  0  0  0
 17 32  1  0  0  0  0
 18 20  2  0  0  0  0
 18 37  1  0  0  0  0
 19 21  2  0  0  0  0
 19 38  1  0  0  0  0
 20 46  1  0  0  0  0
 21 39  1  0  0  0  0
 22 79  1  0  0  0  0
 23 80  1  0  0  0  0
 24 26  2  0  0  0  0
 24 79  1  0  0  0  0
 25 81  1  0  0  0  0
 26 82  1  0  0  0  0
 27 61  2  0  0  0  0
 28 30  2  0  0  0  0
 28 54  1  0  0  0  0
 28 62  1  0  0  0  0
 29 62  2  0  0  0  0
 29 69  1  0  0  0  0
 30 60  1  0  0  0  0
 30 66  1  0  0  0  0
 31 63  1  0  0  0  0
 31 67  1  0  0  0  0
 32 68  1  0  0  0  0
 32 74  2  0  0  0  0
 33 47  1  0  0  0  0
 33 70  1  0  0  0  0
 33 75  2  0  0  0  0
 34 57  1  0  0  0  0
 34 64  1  0  0  0  0
 34 76  2  0  0  0  0
 35 58  1  0  0  0  0
 35 71  1  0  0  0  0
 35 77  2  0  0  0  0
 36 65  1  0  0  0  0
 36 72  1  0  0  0  0
 36 78  2  0  0  0  0
 37 40  1  0  0  0  0
 38 47  1  0  0  0  0
 39 64  1  0  0  0  0
 40 42  1  0  0  0  0
 41 43  1  0  0  0  0
 41 44  1  0  0  0  0
 42 46  1  0  0  0  0
 43 48  1  0  0  0  0
 44 65  1  0  0  0  0
 45 48  1  0  0  0  0
 45 65  1  0  0  0  0
 46 70  1  0  0  0  0
 47 64  1  0  0  0  0
 48 63  1  0  0  0  0
 49 58  1  0  0  0  0
 50 59  1  0  0  0  0
 51 59  1  0  0  0  0
 52 59  1  0  0  0  0
 53 73  1  0  0  0  0
 54 72  1  0  0  0  0
 55 56  1  0  0  0  0
 55 69  1  0  0  0  0
 56 80  1  0  0  0  0
 57 59  1  0  0  0  0
 57 71  1  0  0  0  0
 58 73  1  0  0  0  0
 61 63  1  0  0  0  0
M  CHG  1  73   1
M  ISO  4  36 100  56 101  72 100  80 101
M  END
> <Batch ID>
0199

> <Smiles>
CNC(C)C(=O)NC(C(=O)N1Cc2cc([101O:1][101CH2:1]CNc3cnc(N)c(C[100NH:0][100C:0](=O)N4CCCC(n5nc(-c6ccc(Oc7ccc(F)cc7F)cc6)c(C(N)=O)c5N)C4)n3)ccc2CC1C(=O)NC1CCCc2ccccc21)C(C)(C)C

> <Shape>
0.225

> <Color>
0.068

> <Negative vol penalty>
0.000

$$$$

  -OEChem-04052305473D

 82 90  0     1  0  0  0  0  0999 V2000
  -30.7180  -33.4944   28.4343 C   0  0  0  0  0  0  0  0  0  0  0  0
  -30.9889  -32.7186   27.3118 C   0  0  0  0  0  0  0  0  0  0  0  0
  -23.8847   -9.6535   21.6883 C   0  0  0  0  0  0  0  0  0  0  0  0
  -24.4977  -10.8632   23.6878 C   0  0  0  0  0  0  0  0  0  0  0  0
  -29.4882  -33.3776   29.0807 C   0  0  0  0  0  0  0  0  0  0  0  0
  -30.0305  -31.8246   26.8357 C   0  0  0  0  0  0  0  0  0  0  0  0
  -28.9578  -30.3452   20.9905 C   0  0  0  0  0  0  0  0  0  0  0  0
  -23.4167   -8.5977   22.4704 C   0  0  0  0  0  0  0  0  0  0  0  0
  -24.0296   -9.8074   24.4700 C   0  0  0  0  0  0  0  0  0  0  0  0
  -29.3569  -29.2621   20.2086 C   0  0  0  0  0  0  0  0  0  0  0  0
  -20.6604   -7.8783   24.2920 C   0  0  0  0  0  0  0  0  0  0  0  0
  -19.4280   -7.3185   23.9550 C   0  0  0  0  0  0  0  0  0  0  0  0
  -28.4095  -19.2256   20.2665 C   0  0  0  0  0  0  0  0  0  0  0  0
  -28.5732  -20.5847   20.0645 C   0  0  0  0  0  0  0  0  0  0  0  0
  -27.2656  -28.1571   20.6823 C   0  0  0  0  0  0  0  0  0  0  0  0
  -20.4941   -5.1776   23.6128 C   0  0  0  0  0  0  0  0  0  0  0  0
  -24.4253  -10.7863   22.2969 C   0  0  0  0  0  0  0  0  0  0  0  0
  -24.1772  -12.9920   21.0396 C   0  0  0  0  0  0  0  0  0  0  0  0
  -28.5106  -32.4887   28.6066 C   0  0  0  0  0  0  0  0  0  0  0  0
  -27.7119  -30.3376   21.6341 C   0  0  0  0  0  0  0  0  0  0  0  0
  -28.7870  -31.6948   27.4772 C   0  0  0  0  0  0  0  0  0  0  0  0
  -26.8519  -29.2424   21.4697 C   0  0  0  0  0  0  0  0  0  0  0  0
  -23.4891   -8.6747   23.8613 C   0  0  0  0  0  0  0  0  0  0  0  0
  -28.5120  -28.1666   20.0567 C   0  0  0  0  0  0  0  0  0  0  0  0
  -21.8096   -7.0877   24.2893 C   0  0  0  0  0  0  0  0  0  0  0  0
  -19.3448   -5.9682   23.6154 C   0  0  0  0  0  0  0  0  0  0  0  0
  -21.7264   -5.7374   23.9498 C   0  0  0  0  0  0  0  0  0  0  0  0
  -24.9095  -11.8770   21.4895 C   0  0  0  0  0  0  0  0  0  0  0  0
  -29.4157  -18.3830   19.8385 C   0  0  0  0  0  0  0  0  0  0  0  0
  -29.7323  -21.0114   19.4482 C   0  0  0  0  0  0  0  0  0  0  0  0
  -25.0834  -13.7290   20.3170 C   0  0  0  0  0  0  0  0  0  0  0  0
  -22.8011  -13.3312   21.2557 C   0  0  0  0  0  0  0  0  0  0  0  0
  -26.7510  -30.4361   24.6624 C   0  0  0  0  0  0  0  0  0  0  0  0
  -23.8078  -30.6423   23.3142 C   0  0  0  0  0  0  0  0  0  0  0  0
  -21.8083  -30.0366   20.6157 C   0  0  0  0  0  0  0  0  0  0  0  0
  -30.1397  -15.9747   19.6897 C   0  0  0  0  0  0  0  0  0  0  0  0
  -27.2140  -32.3629   29.3667 C   0  0  0  0  0  0  0  0  0  0  0  0
  -27.2850  -31.5253   22.4523 C   0  0  0  0  0  0  0  0  0  0  0  0
  -25.4957  -29.1940   22.1231 C   0  0  0  0  0  0  0  0  0  0  0  0
  -26.1104  -31.6640   28.5770 C   0  0  0  0  0  0  0  0  0  0  0  0
  -29.7455  -12.5712   18.7214 C   0  0  0  0  0  0  0  0  0  0  0  0
  -26.6474  -30.3997   27.9136 C   0  0  0  0  0  0  0  0  0  0  0  0
  -28.3920  -12.1789   19.3182 C   0  0  0  0  0  0  0  0  0  0  0  0
  -30.5164  -13.5190   19.6385 C   0  0  0  0  0  0  0  0  0  0  0  0
  -28.4219  -14.3225   20.6565 C   0  0  0  0  0  0  0  0  0  0  0  0
  -27.7636  -30.7317   26.9159 C   0  0  1  0  0  0  0  0  0  0  0  0
  -26.2088  -31.1875   23.4795 C   0  0  1  0  0  0  0  0  0  0  0  0
  -27.5807  -13.4199   19.7392 C   0  0  2  0  0  0  0  0  0  0  0  0
  -19.4394  -30.2818   19.8247 C   0  0  0  0  0  0  0  0  0  0  0  0
  -22.9875  -28.2644   25.0412 C   0  0  0  0  0  0  0  0  0  0  0  0
  -20.9936  -27.9636   23.5573 C   0  0  0  0  0  0  0  0  0  0  0  0
  -21.2657  -30.0697   24.8661 C   0  0  0  0  0  0  0  0  0  0  0  0
  -22.6147  -31.8019   18.3814 C   0  0  0  0  0  0  0  0  0  0  0  0
  -28.9219  -23.3630   19.6446 C   0  0  0  0  0  0  0  0  0  0  0  0
  -28.3927  -25.8247   19.6598 C   0  0  0  0  0  0  0  0  0  1  0  0
  -22.7621  -29.6472   22.8725 C   0  0  1  0  0  0  0  0  0  0  0  0
  -20.8190  -30.9196   19.8766 C   0  0  2  0  0  0  0  0  0  0  0  0
  -29.4021  -24.7581   19.2493 C   0  0  1  0  0  0  0  0  0  0  0  0
  -22.0285  -28.9860   24.0734 C   0  0  0  0  0  0  0  0  0  0  0  0
  -26.1826  -11.8994   21.0862 N   0  0  0  0  0  0  0  0  0  0  0  0
  -30.5397  -18.8284   19.2381 N   0  0  0  0  0  0  0  0  0  0  0  0
  -30.7007  -20.1642   19.0399 N   0  0  0  0  0  0  0  0  0  0  0  0
  -26.2575  -13.0374   20.3753 N   0  0  0  0  0  0  0  0  0  0  0  0
  -25.1263  -30.3767   22.9183 N   0  0  0  0  0  0  0  0  0  0  0  0
  -29.6869  -14.6730   19.9921 N   0  0  0  0  0  0  0  0  0  0  0  0
  -24.9824  -14.8947   19.6436 N   0  0  0  0  0  0  0  0  0  0  0  0
  -22.0113  -12.4632   22.0220 N   0  0  0  0  0  0  0  0  0  0  0  0
  -29.2521  -16.9905   20.0432 N   0  0  0  0  0  0  0  0  0  0  0  0
  -29.8957  -22.3714   19.2463 N   0  0  0  0  0  0  0  0  0  0  0  0
  -27.2042  -31.2476   25.6849 N   0  0  0  0  0  0  0  0  0  0  0  0
  -21.8816  -30.3608   21.9539 N   0  0  0  0  0  0  0  0  0  0  0  0
  -21.2800  -31.1570   18.4795 N   0  3  0  0  0  0  0  0  0  0  0  0
  -22.2827  -14.3649   20.7695 O   0  0  0  0  0  0  0  0  0  0  0  0
  -26.7563  -29.2107   24.6490 O   0  0  0  0  0  0  0  0  0  0  0  0
  -23.4663  -31.6231   23.9798 O   0  0  0  0  0  0  0  0  0  0  0  0
  -22.4489  -29.1457   20.0622 O   0  0  0  0  0  0  0  0  0  0  0  0
  -31.2222  -16.1720   19.1319 O   0  0  0  0  0  0  0  0  0  0  0  0
  -30.6298  -25.0385   19.9248 O   0  0  0  0  0  0  0  0  0  0  0  0
  -23.0322   -7.6447   24.6249 O   0  0  0  0  0  0  0  0  0  0  0  0
  -28.8994  -27.1078   19.2947 O   0  0  0  0  0  0  0  0  0  1  0  0
  -18.1611   -5.4304   23.2933 F   0  0  0  0  0  0  0  0  0  0  0  0
  -22.8268   -4.9726   23.9466 F   0  0  0  0  0  0  0  0  0  0  0  0
  1  2  1  0  0  0  0
  1  5  2  0  0  0  0
  2  6  2  0  0  0  0
  3  8  2  0  0  0  0
  3 17  1  0  0  0  0
  4  9  1  0  0  0  0
  4 17  2  0  0  0  0
  5 19  1  0  0  0  0
  6 21  1  0  0  0  0
  7 10  2  0  0  0  0
  7 20  1  0  0  0  0
  8 23  1  0  0  0  0
  9 23  2  0  0  0  0
 10 24  1  0  0  0  0
 11 12  2  0  0  0  0
 11 25  1  0  0  0  0
 12 26  1  0  0  0  0
 13 14  2  0  0  0  0
 13 29  1  0  0  0  0
 14 30  1  0  0  0  0
 15 22  1  0  0  0  0
 15 24  2  0  0  0  0
 16 26  2  0  0  0  0
 16 27  1  0  0  0  0
 17 28  1  0  0  0  0
 18 28  1  0  0  0  0
 18 31  2  0  0  0  0
 18 32  1  0  0  0  0
 19 21  2  0  0  0  0
 19 37  1  0  0  0  0
 20 22  2  0  0  0  0
 20 38  1  0  0  0  0
 21 46  1  0  0  0  0
 22 39  1  0  0  0  0
 23 79  1  0  0  0  0
 24 80  1  0  0  0  0
 25 27  2  0  0  0  0
 25 79  1  0  0  0  0
 26 81  1  0  0  0  0
 27 82  1  0  0  0  0
 28 60  2  0  0  0  0
 29 61  2  0  0  0  0
 29 68  1  0  0  0  0
 30 62  2  0  0  0  0
 30 69  1  0  0  0  0
 31 63  1  0  0  0  0
 31 66  1  0  0  0  0
 32 67  1  0  0  0  0
 32 73  2  0  0  0  0
 33 47  1  0  0  0  0
 33 70  1  0  0  0  0
 33 74  2  0  0  0  0
 34 56  1  0  0  0  0
 34 64  1  0  0  0  0
 34 75  2  0  0  0  0
 35 57  1  0  0  0  0
 35 71  1  0  0  0  0
 35 76  2  0  0  0  0
 36 65  1  0  0  0  0
 36 68  1  0  0  0  0
 36 77  2  0  0  0  0
 37 40  1  0  0  0  0
 38 47  1  0  0  0  0
 39 64  1  0  0  0  0
 40 42  1  0  0  0  0
 41 43  1  0  0  0  0
 41 44  1  0  0  0  0
 42 46  1  0  0  0  0
 43 48  1  0  0  0  0
 44 65  1  0  0  0  0
 45 48  1  0  0  0  0
 45 65  1  0  0  0  0
 46 70  1  0  0  0  0
 47 64  1  0  0  0  0
 48 63  1  0  0  0  0
 49 57  1  0  0  0  0
 50 59  1  0  0  0  0
 51 59  1  0  0  0  0
 52 59  1  0  0  0  0
 53 72  1  0  0  0  0
 54 58  1  0  0  0  0
 54 69  1  0  0  0  0
 55 58  1  0  0  0  0
 55 80  1  0  0  0  0
 56 59  1  0  0  0  0
 56 71  1  0  0  0  0
 57 72  1  0  0  0  0
 58 78  1  0  0  0  0
 60 63  1  0  0  0  0
 61 62  1  0  0  0  0
M  CHG  1  72   1
M  ISO  4  36 100  55 101  68 100  80 101
M  END
> <Batch ID>
0199

> <Smiles>
CNC(C)C(=O)NC(C(=O)N1Cc2cc([101O:1][101CH2:1]C(O)CNc3ccc([100NH:0][100C:0](=O)N4CCCC(n5nc(-c6ccc(Oc7ccc(F)cc7F)cc6)c(C(N)=O)c5N)C4)nn3)ccc2CC1C(=O)NC1CCCc2ccccc21)C(C)(C)C

> <Shape>
0.326

> <Color>
0.143

> <Negative vol penalty>
0.000

$$$$

  -OEChem-04052305473D

 82 90  0     1  0  0  0  0  0999 V2000
  -39.6655  -29.5552   27.8695 C   0  0  0  0  0  0  0  0  0  0  0  0
  -38.5892  -28.6767   27.7979 C   0  0  0  0  0  0  0  0  0  0  0  0
  -23.0808   -9.8611   19.9391 C   0  0  0  0  0  0  0  0  0  0  0  0
  -23.8357   -9.8728   22.2341 C   0  0  0  0  0  0  0  0  0  0  0  0
  -39.4389  -30.9230   28.0165 C   0  0  0  0  0  0  0  0  0  0  0  0
  -37.2854  -29.1655   27.8745 C   0  0  0  0  0  0  0  0  0  0  0  0
  -34.2285  -27.0971   24.4073 C   0  0  0  0  0  0  0  0  0  0  0  0
  -22.3387   -8.7068   20.1891 C   0  0  0  0  0  0  0  0  0  0  0  0
  -23.0935   -8.7185   22.4841 C   0  0  0  0  0  0  0  0  0  0  0  0
  -33.7538  -25.8113   24.6628 C   0  0  0  0  0  0  0  0  0  0  0  0
  -19.8657   -7.9151   23.0807 C   0  0  0  0  0  0  0  0  0  0  0  0
  -19.1062   -7.8753   24.2500 C   0  0  0  0  0  0  0  0  0  0  0  0
  -31.6594  -26.7410   25.4168 C   0  0  0  0  0  0  0  0  0  0  0  0
  -20.3499   -5.9414   24.9919 C   0  0  0  0  0  0  0  0  0  0  0  0
  -23.8294  -10.4440   20.9616 C   0  0  0  0  0  0  0  0  0  0  0  0
  -24.1665  -12.9697   20.8388 C   0  0  0  0  0  0  0  0  0  0  0  0
  -38.1315  -31.4298   28.0853 C   0  0  0  0  0  0  0  0  0  0  0  0
  -33.4248  -28.2169   24.6652 C   0  0  0  0  0  0  0  0  0  0  0  0
  -37.0411  -30.5412   28.0240 C   0  0  0  0  0  0  0  0  0  0  0  0
  -32.1253  -28.0397   25.1612 C   0  0  0  0  0  0  0  0  0  0  0  0
  -30.0345  -17.9255   22.7274 C   0  0  0  0  0  0  0  0  0  0  0  0
  -22.3450   -8.1355   21.4616 C   0  0  0  0  0  0  0  0  0  0  0  0
  -32.4701  -25.6333   25.1704 C   0  0  0  0  0  0  0  0  0  0  0  0
  -20.8672   -6.9680   22.8669 C   0  0  0  0  0  0  0  0  0  0  0  0
  -19.3483   -6.8885   25.2056 C   0  0  0  0  0  0  0  0  0  0  0  0
  -21.1093   -5.9812   23.8225 C   0  0  0  0  0  0  0  0  0  0  0  0
  -24.5967  -11.6361   20.7039 C   0  0  0  0  0  0  0  0  0  0  0  0
  -31.0489  -18.8963   22.7935 C   0  0  0  0  0  0  0  0  0  0  0  0
  -25.2580  -13.7208   20.4769 C   0  0  0  0  0  0  0  0  0  0  0  0
  -30.5719  -16.9465   21.9344 C   0  0  0  0  0  0  0  0  0  0  0  0
  -22.8941  -13.4836   21.2542 C   0  0  0  0  0  0  0  0  0  0  0  0
  -33.6436  -30.7406   26.5852 C   0  0  0  0  0  0  0  0  0  0  0  0
  -30.9692  -31.6824   25.0094 C   0  0  0  0  0  0  0  0  0  0  0  0
  -28.2189  -30.8054   23.1890 C   0  0  0  0  0  0  0  0  0  0  0  0
  -30.7217  -14.7774   20.6621 C   0  0  0  0  0  0  0  0  0  0  0  0
  -37.9371  -32.9111   28.2918 C   0  0  0  0  0  0  0  0  0  0  0  0
  -33.9418  -29.5957   24.3590 C   0  0  0  0  0  0  0  0  0  0  0  0
  -31.2153  -29.2080   25.4361 C   0  0  0  0  0  0  0  0  0  0  0  0
  -36.5188  -33.3874   27.9886 C   0  0  0  0  0  0  0  0  0  0  0  0
  -29.6172  -12.3582   18.2946 C   0  0  0  0  0  0  0  0  0  0  0  0
  -35.4946  -32.4598   28.6346 C   0  0  0  0  0  0  0  0  0  0  0  0
  -28.1772  -12.0644   18.7215 C   0  0  0  0  0  0  0  0  0  0  0  0
  -30.5292  -12.5904   19.4980 C   0  0  0  0  0  0  0  0  0  0  0  0
  -28.6179  -13.3130   20.8741 C   0  0  0  0  0  0  0  0  0  0  0  0
  -35.6119  -31.0356   28.0784 C   0  0  1  0  0  0  0  0  0  0  0  0
  -33.2249  -30.6905   25.1431 C   0  0  1  0  0  0  0  0  0  0  0  0
  -27.6479  -13.1362   19.6944 C   0  0  2  0  0  0  0  0  0  0  0  0
  -26.1981  -31.7909   22.0745 C   0  0  0  0  0  0  0  0  0  0  0  0
  -29.6342  -32.0183   27.7324 C   0  0  0  0  0  0  0  0  0  0  0  0
  -27.4207  -32.0664   26.5634 C   0  0  0  0  0  0  0  0  0  0  0  0
  -29.1192  -33.8303   26.0874 C   0  0  0  0  0  0  0  0  0  0  0  0
  -29.0730  -29.8385   20.5255 C   0  0  0  0  0  0  0  0  0  0  0  0
  -31.9239  -21.0888   23.6017 C   0  0  0  0  0  0  0  0  0  0  0  0
  -32.5078  -23.3239   24.6034 C   0  0  0  0  0  0  0  0  0  1  0  0
  -29.4857  -31.4877   25.2100 C   0  0  1  0  0  0  0  0  0  0  0  0
  -27.6463  -31.3616   21.8979 C   0  0  2  0  0  0  0  0  0  0  0  0
  -31.4475  -22.2336   24.4936 C   0  0  1  0  0  0  0  0  0  0  0  0
  -28.9326  -32.3285   26.3951 C   0  0  0  0  0  0  0  0  0  0  0  0
  -25.8626  -11.5422   20.2885 N   0  0  0  0  0  0  0  0  0  0  0  0
  -32.1325  -18.5461   22.0949 N   0  0  0  0  0  0  0  0  0  0  0  0
  -26.2373  -12.8263   20.1592 N   0  0  0  0  0  0  0  0  0  0  0  0
  -31.7688  -30.5366   25.1263 N   0  0  0  0  0  0  0  0  0  0  0  0
  -29.9663  -13.6213   20.3727 N   0  0  0  0  0  0  0  0  0  0  0  0
  -28.8145  -17.9371   23.3017 N   0  0  0  0  0  0  0  0  0  0  0  0
  -25.4659  -15.0526   20.4024 N   0  0  0  0  0  0  0  0  0  0  0  0
  -21.8832  -12.5729   21.5906 N   0  0  0  0  0  0  0  0  0  0  0  0
  -30.9016  -20.0702   23.5128 N   0  0  0  0  0  0  0  0  0  0  0  0
  -30.0708  -15.7022   21.4778 N   0  0  0  0  0  0  0  0  0  0  0  0
  -34.9965  -30.9513   26.7712 N   0  0  0  0  0  0  0  0  0  0  0  0
  -28.8583  -31.7800   23.9257 N   0  0  0  0  0  0  0  0  0  0  0  0
  -27.7037  -30.3335   20.8205 N   0  3  0  0  0  0  0  0  0  0  0  0
  -22.6553  -14.7138   21.3093 O   0  0  0  0  0  0  0  0  0  0  0  0
  -32.8013  -30.6001   27.4641 O   0  0  0  0  0  0  0  0  0  0  0  0
  -31.4019  -32.8083   24.7511 O   0  0  0  0  0  0  0  0  0  0  0  0
  -28.1068  -29.6253   23.5136 O   0  0  0  0  0  0  0  0  0  0  0  0
  -31.8515  -14.9477   20.1967 O   0  0  0  0  0  0  0  0  0  0  0  0
  -31.8237  -17.3052   21.5506 O   0  0  0  0  0  0  0  0  0  0  0  0
  -30.2788  -22.8201   23.9168 O   0  0  0  0  0  0  0  0  0  0  0  0
  -21.6208   -7.0093   21.7059 O   0  0  0  0  0  0  0  0  0  0  0  0
  -32.0045  -24.3794   25.4214 O   0  0  0  0  0  0  0  0  0  1  0  0
  -18.6200   -6.8513   26.3291 F   0  0  0  0  0  0  0  0  0  0  0  0
  -22.0709   -5.0693   23.6233 F   0  0  0  0  0  0  0  0  0  0  0  0
  1  2  1  0  0  0  0
  1  5  2  0  0  0  0
  2  6  2  0  0  0  0
  3  8  2  0  0  0  0
  3 15  1  0  0  0  0
  4  9  1  0  0  0  0
  4 15  2  0  0  0  0
  5 17  1  0  0  0  0
  6 19  1  0  0  0  0
  7 10  2  0  0  0  0
  7 18  1  0  0  0  0
  8 22  1  0  0  0  0
  9 22  2  0  0  0  0
 10 23  1  0  0  0  0
 11 12  2  0  0  0  0
 11 24  1  0  0  0  0
 12 25  1  0  0  0  0
 13 20  1  0  0  0  0
 13 23  2  0  0  0  0
 14 25  2  0  0  0  0
 14 26  1  0  0  0  0
 15 27  1  0  0  0  0
 16 27  1  0  0  0  0
 16 29  2  0  0  0  0
 16 31  1  0  0  0  0
 17 19  2  0  0  0  0
 17 36  1  0  0  0  0
 18 20  2  0  0  0  0
 18 37  1  0  0  0  0
 19 45  1  0  0  0  0
 20 38  1  0  0  0  0
 21 28  1  0  0  0  0
 21 30  2  0  0  0  0
 21 64  1  0  0  0  0
 22 79  1  0  0  0  0
 23 80  1  0  0  0  0
 24 26  2  0  0  0  0
 24 79  1  0  0  0  0
 25 81  1  0  0  0  0
 26 82  1  0  0  0  0
 27 59  2  0  0  0  0
 28 60  2  0  0  0  0
 28 67  1  0  0  0  0
 29 61  1  0  0  0  0
 29 65  1  0  0  0  0
 30 68  1  0  0  0  0
 30 77  1  0  0  0  0
 31 66  1  0  0  0  0
 31 72  2  0  0  0  0
 32 46  1  0  0  0  0
 32 69  1  0  0  0  0
 32 73  2  0  0  0  0
 33 55  1  0  0  0  0
 33 62  1  0  0  0  0
 33 74  2  0  0  0  0
 34 56  1  0  0  0  0
 34 70  1  0  0  0  0
 34 75  2  0  0  0  0
 35 63  1  0  0  0  0
 35 68  1  0  0  0  0
 35 76  2  0  0  0  0
 36 39  1  0  0  0  0
 37 46  1  0  0  0  0
 38 62  1  0  0  0  0
 39 41  1  0  0  0  0
 40 42  1  0  0  0  0
 40 43  1  0  0  0  0
 41 45  1  0  0  0  0
 42 47  1  0  0  0  0
 43 63  1  0  0  0  0
 44 47  1  0  0  0  0
 44 63  1  0  0  0  0
 45 69  1  0  0  0  0
 46 62  1  0  0  0  0
 47 61  1  0  0  0  0
 48 56  1  0  0  0  0
 49 58  1  0  0  0  0
 50 58  1  0  0  0  0
 51 58  1  0  0  0  0
 52 71  1  0  0  0  0
 53 57  1  0  0  0  0
 53 67  1  0  0  0  0
 54 57  1  0  0  0  0
 54 80  1  0  0  0  0
 55 58  1  0  0  0  0
 55 70  1  0  0  0  0
 56 71  1  0  0  0  0
 57 78  1  0  0  0  0
 59 61  1  0  0  0  0
 60 77  1  0  0  0  0
M  CHG  1  71   1
M  ISO  4  35 100  54 101  68 100  80 101
M  END
> <Batch ID>
0199

> <Smiles>
CNC(C)C(=O)NC(C(=O)N1Cc2cc([101O:1][101CH2:1]C(O)CNc3noc([100NH:0][100C:0](=O)N4CCCC(n5nc(-c6ccc(Oc7ccc(F)cc7F)cc6)c(C(N)=O)c5N)C4)c3N)ccc2CC1C(=O)NC1CCCc2ccccc21)C(C)(C)C

> <Shape>
0.214

> <Color>
0.176

> <Negative vol penalty>
0.000

$$$$

  -OEChem-04052305473D

 84 92  0     1  0  0  0  0  0999 V2000
  -27.1210  -37.9893   20.6618 C   0  0  0  0  0  0  0  0  0  0  0  0
  -27.6847  -36.7538   20.3598 C   0  0  0  0  0  0  0  0  0  0  0  0
  -22.5676   -9.8232   22.7646 C   0  0  0  0  0  0  0  0  0  0  0  0
  -23.2423  -10.0423   20.4551 C   0  0  0  0  0  0  0  0  0  0  0  0
  -26.1954  -38.0972   21.6989 C   0  0  0  0  0  0  0  0  0  0  0  0
  -27.3239  -35.6256   21.0956 C   0  0  0  0  0  0  0  0  0  0  0  0
  -26.7973  -29.8887   19.0178 C   0  0  0  0  0  0  0  0  0  0  0  0
  -22.1275   -8.5238   22.5128 C   0  0  0  0  0  0  0  0  0  0  0  0
  -22.8022   -8.7429   20.2033 C   0  0  0  0  0  0  0  0  0  0  0  0
  -27.6579  -28.7927   19.0611 C   0  0  0  0  0  0  0  0  0  0  0  0
  -21.1569   -5.0209   22.5624 C   0  0  0  0  0  0  0  0  0  0  0  0
  -21.4990   -4.0304   23.4830 C   0  0  0  0  0  0  0  0  0  0  0  0
  -26.5252  -27.9890   21.0335 C   0  0  0  0  0  0  0  0  0  0  0  0
  -26.8153  -19.2223   19.8840 C   0  0  0  0  0  0  0  0  0  0  0  0
  -23.8412   -4.4624   23.0774 C   0  0  0  0  0  0  0  0  0  0  0  0
  -25.9413  -21.8312   19.7786 C   0  0  0  0  0  0  0  0  0  0  0  0
  -23.1250  -10.5825   21.7358 C   0  0  0  0  0  0  0  0  0  0  0  0
  -24.8650  -12.3225   22.4083 C   0  0  0  0  0  0  0  0  0  0  0  0
  -25.8159  -36.9680   22.4415 C   0  0  0  0  0  0  0  0  0  0  0  0
  -25.7995  -30.0491   19.9899 C   0  0  0  0  0  0  0  0  0  0  0  0
  -26.3934  -35.7187   22.1445 C   0  0  0  0  0  0  0  0  0  0  0  0
  -25.6516  -29.0865   20.9988 C   0  0  0  0  0  0  0  0  0  0  0  0
  -27.7264  -20.2452   19.6383 C   0  0  0  0  0  0  0  0  0  0  0  0
  -27.2892  -21.5651   19.5841 C   0  0  0  0  0  0  0  0  0  0  0  0
  -22.2448   -7.9836   21.2321 C   0  0  0  0  0  0  0  0  0  0  0  0
  -27.5238  -27.8441   20.0708 C   0  0  0  0  0  0  0  0  0  0  0  0
  -22.1569   -5.7320   21.8992 C   0  0  0  0  0  0  0  0  0  0  0  0
  -22.8411   -3.7512   23.7406 C   0  0  0  0  0  0  0  0  0  0  0  0
  -23.4991   -5.4528   22.1567 C   0  0  0  0  0  0  0  0  0  0  0  0
  -23.5793  -11.9250   21.9952 C   0  0  0  0  0  0  0  0  0  0  0  0
  -24.7845  -13.6896   22.5136 C   0  0  0  0  0  0  0  0  0  0  0  0
  -25.4794  -19.5477   20.0710 C   0  0  0  0  0  0  0  0  0  0  0  0
  -26.0281  -11.5271   22.6731 C   0  0  0  0  0  0  0  0  0  0  0  0
  -25.1547  -32.2380   22.2028 C   0  0  0  0  0  0  0  0  0  0  0  0
  -22.4724  -30.4623   22.6201 C   0  0  0  0  0  0  0  0  0  0  0  0
  -27.8794  -23.9916   19.2555 C   0  0  0  0  0  0  0  0  0  0  0  0
  -20.9227  -27.4377   22.3090 C   0  0  0  0  0  0  0  0  0  0  0  0
  -23.1761  -18.6407   20.5383 C   0  0  0  0  0  0  0  0  0  0  0  0
  -24.8471  -37.1426   23.5842 C   0  0  0  0  0  0  0  0  0  0  0  0
  -24.8620  -31.2229   19.9137 C   0  0  0  0  0  0  0  0  0  0  0  0
  -24.5835  -29.2019   22.0545 C   0  0  0  0  0  0  0  0  0  0  0  0
  -24.2372  -35.8308   24.0715 C   0  0  0  0  0  0  0  0  0  0  0  0
  -20.7721  -16.7727   22.3844 C   0  0  0  0  0  0  0  0  0  0  0  0
  -25.3193  -34.7689   24.2398 C   0  0  0  0  0  0  0  0  0  0  0  0
  -21.3939  -15.3777   22.4817 C   0  0  0  0  0  0  0  0  0  0  0  0
  -21.0637  -17.4308   21.0370 C   0  0  0  0  0  0  0  0  0  0  0  0
  -23.1044  -16.0791   20.7586 C   0  0  0  0  0  0  0  0  0  0  0  0
  -26.0089  -34.4674   22.9037 C   0  0  1  0  0  0  0  0  0  0  0  0
  -24.2114  -31.5559   21.2528 C   0  0  1  0  0  0  0  0  0  0  0  0
  -22.8926  -15.4024   22.1227 C   0  0  2  0  0  0  0  0  0  0  0  0
  -18.7423  -26.2846   22.7713 C   0  0  0  0  0  0  0  0  0  0  0  0
  -23.1808  -30.3166   25.5844 C   0  0  0  0  0  0  0  0  0  0  0  0
  -21.5590  -28.4223   25.8074 C   0  0  0  0  0  0  0  0  0  0  0  0
  -20.7522  -30.6770   25.1087 C   0  0  0  0  0  0  0  0  0  0  0  0
  -29.7111  -18.7950   20.0669 C   0  0  0  0  0  0  0  0  0  0  0  0
  -20.4949  -26.8451   19.4411 C   0  0  0  0  0  0  0  0  0  0  0  0
  -29.1385  -24.8030   18.9724 C   0  0  0  0  0  0  0  0  0  0  0  0
  -28.8761  -26.2980   18.8721 C   0  0  0  0  0  0  0  0  0  1  0  0
  -22.0949  -29.2823   23.4827 C   0  0  1  0  0  0  0  0  0  0  0  0
  -19.5644  -27.0546   21.7496 C   0  0  2  0  0  0  0  0  0  0  0  0
  -21.9182  -29.6731   24.9772 C   0  0  0  0  0  0  0  0  0  0  0  0
  -22.7432  -12.9562   21.8482 N   0  0  0  0  0  0  0  0  0  0  0  0
  -23.5052  -14.0151   22.1708 N   0  0  0  0  0  0  0  0  0  0  0  0
  -25.0855  -20.8272   20.0136 N   0  3  0  0  0  0  0  0  0  0  0  0
  -23.6955  -30.3707   21.9408 N   0  0  0  0  0  0  0  0  0  0  0  0
  -22.5029  -17.4219   20.7662 N   0  0  0  0  0  0  0  0  0  0  0  0
  -25.6840  -14.6329   22.8651 N   0  0  0  0  0  0  0  0  0  0  0  0
  -25.9373  -10.1374   22.5155 N   0  0  0  0  0  0  0  0  0  0  0  0
  -28.1819  -22.6349   19.3360 N   0  0  0  0  0  0  0  0  0  0  0  0
  -29.0885  -19.9224   19.4478 N   0  0  0  0  0  0  0  0  0  0  0  0
  -24.5479  -18.5105   20.3242 N   0  0  0  0  0  0  0  0  0  0  0  0
  -25.1738  -33.6147   22.0851 N   0  0  0  0  0  0  0  0  0  0  0  0
  -20.9061  -28.6953   22.8739 N   0  0  0  0  0  0  0  0  0  0  0  0
  -19.7250  -26.2027   20.5373 N   0  3  0  0  0  0  0  0  0  0  0  0
  -27.1112  -12.0321   23.0545 O   0  0  0  0  0  0  0  0  0  0  0  0
  -25.8152  -31.5653   22.9856 O   0  0  0  0  0  0  0  0  0  0  0  0
  -21.7068  -31.4266   22.5460 O   0  0  0  0  0  0  0  0  0  0  0  0
  -26.7790  -24.5177   19.3841 O   0  0  0  0  0  0  0  0  0  0  0  0
  -21.8996  -26.6940   22.2538 O   0  0  0  0  0  0  0  0  0  0  0  0
  -22.5843  -19.7230   20.5604 O   0  0  0  0  0  0  0  0  0  0  0  0
  -21.8157   -6.7156   20.9861 O   0  0  0  0  0  0  0  0  0  0  0  0
  -28.3629  -26.7737   20.1158 O   0  0  0  0  0  0  0  0  0  1  0  0
  -23.1695   -2.8011   24.6258 F   0  0  0  0  0  0  0  0  0  0  0  0
  -24.4642   -6.1335   21.5236 F   0  0  0  0  0  0  0  0  0  0  0  0
  1  2  1  0  0  0  0
  1  5  2  0  0  0  0
  2  6  2  0  0  0  0
  3  8  2  0  0  0  0
  3 17  1  0  0  0  0
  4  9  1  0  0  0  0
  4 17  2  0  0  0  0
  5 19  1  0  0  0  0
  6 21  1  0  0  0  0
  7 10  2  0  0  0  0
  7 20  1  0  0  0  0
  8 25  1  0  0  0  0
  9 25  2  0  0  0  0
 10 26  1  0  0  0  0
 11 12  2  0  0  0  0
 11 27  1  0  0  0  0
 12 28  1  0  0  0  0
 13 22  1  0  0  0  0
 13 26  2  0  0  0  0
 14 23  1  0  0  0  0
 14 32  2  0  0  0  0
 15 28  2  0  0  0  0
 15 29  1  0  0  0  0
 16 24  1  0  0  0  0
 16 64  2  0  0  0  0
 17 30  1  0  0  0  0
 18 30  1  0  0  0  0
 18 31  2  0  0  0  0
 18 33  1  0  0  0  0
 19 21  2  0  0  0  0
 19 39  1  0  0  0  0
 20 22  2  0  0  0  0
 20 40  1  0  0  0  0
 21 48  1  0  0  0  0
 22 41  1  0  0  0  0
 23 24  2  0  0  0  0
 23 70  1  0  0  0  0
 24 69  1  0  0  0  0
 25 81  1  0  0  0  0
 26 82  1  0  0  0  0
 27 29  2  0  0  0  0
 27 81  1  0  0  0  0
 28 83  1  0  0  0  0
 29 84  1  0  0  0  0
 30 62  2  0  0  0  0
 31 63  1  0  0  0  0
 31 67  1  0  0  0  0
 32 64  1  0  0  0  0
 32 71  1  0  0  0  0
 33 68  1  0  0  0  0
 33 75  2  0  0  0  0
 34 49  1  0  0  0  0
 34 72  1  0  0  0  0
 34 76  2  0  0  0  0
 35 59  1  0  0  0  0
 35 65  1  0  0  0  0
 35 77  2  0  0  0  0
 36 57  1  0  0  0  0
 36 69  1  0  0  0  0
 36 78  2  0  0  0  0
 37 60  1  0  0  0  0
 37 73  1  0  0  0  0
 37 79  2  0  0  0  0
 38 66  1  0  0  0  0
 38 71  1  0  0  0  0
 38 80  2  0  0  0  0
 39 42  1  0  0  0  0
 40 49  1  0  0  0  0
 41 65  1  0  0  0  0
 42 44  1  0  0  0  0
 43 45  1  0  0  0  0
 43 46  1  0  0  0  0
 44 48  1  0  0  0  0
 45 50  1  0  0  0  0
 46 66  1  0  0  0  0
 47 50  1  0  0  0  0
 47 66  1  0  0  0  0
 48 72  1  0  0  0  0
 49 65  1  0  0  0  0
 50 63  1  0  0  0  0
 51 60  1  0  0  0  0
 52 61  1  0  0  0  0
 53 61  1  0  0  0  0
 54 61  1  0  0  0  0
 55 70  1  0  0  0  0
 56 74  1  0  0  0  0
 57 58  1  0  0  0  0
 58 82  1  0  0  0  0
 59 61  1  0  0  0  0
 59 73  1  0  0  0  0
 60 74  1  0  0  0  0
 62 63  1  0  0  0  0
M  CHG  2  64   1  74   1
M  ISO  4  38 100  58 101  71 100  82 101
M  END
> <Batch ID>
0199

> <Smiles>
CNc1cc([100NH:0][100C:0](=O)N2CCCC(n3nc(-c4ccc(Oc5ccc(F)cc5F)cc4)c(C(N)=O)c3N)C2)ncc1NC(=O)C[101CH2:1][101O:1]c1ccc2c(c1)CN(C(=O)C(NC(=O)C(C)NC)C(C)(C)C)C(C(=O)NC1CCCc3ccccc31)C2

> <Shape>
0.280

> <Color>
0.084

> <Negative vol penalty>
0.000

$$$$

  -OEChem-04052305473D

 83 91  0     1  0  0  0  0  0999 V2000
  -16.6137  -29.3337   23.6809 C   0  0  0  0  0  0  0  0  0  0  0  0
  -17.4170  -29.4172   22.5482 C   0  0  0  0  0  0  0  0  0  0  0  0
  -26.5276  -12.7375   21.7925 C   0  0  0  0  0  0  0  0  0  0  0  0
  -26.0482  -14.1058   19.8599 C   0  0  0  0  0  0  0  0  0  0  0  0
  -17.1973  -29.1921   24.9391 C   0  0  0  0  0  0  0  0  0  0  0  0
  -18.8047  -29.3603   22.6732 C   0  0  0  0  0  0  0  0  0  0  0  0
  -24.6324  -27.0514   19.2059 C   0  0  0  0  0  0  0  0  0  0  0  0
  -25.2495  -12.1840   21.7177 C   0  0  0  0  0  0  0  0  0  0  0  0
  -24.7701  -13.5522   19.7850 C   0  0  0  0  0  0  0  0  0  0  0  0
  -25.8754  -27.5057   18.7672 C   0  0  0  0  0  0  0  0  0  0  0  0
  -23.6582   -9.8295   19.8854 C   0  0  0  0  0  0  0  0  0  0  0  0
  -23.5415   -8.4466   20.0251 C   0  0  0  0  0  0  0  0  0  0  0  0
  -26.7699  -27.1801   20.9838 C   0  0  0  0  0  0  0  0  0  0  0  0
  -29.2806  -21.6958   19.0743 C   0  0  0  0  0  0  0  0  0  0  0  0
  -22.1233   -8.7613   21.9556 C   0  0  0  0  0  0  0  0  0  0  0  0
  -30.4074  -23.9885   20.1015 C   0  0  0  0  0  0  0  0  0  0  0  0
  -26.9270  -13.6985   20.8637 C   0  0  0  0  0  0  0  0  0  0  0  0
  -29.4165  -13.7985   20.3159 C   0  0  0  0  0  0  0  0  0  0  0  0
  -18.5925  -29.1237   25.0787 C   0  0  0  0  0  0  0  0  0  0  0  0
  -24.4457  -26.6677   20.5417 C   0  0  0  0  0  0  0  0  0  0  0  0
  -19.4076  -29.2190   23.9346 C   0  0  0  0  0  0  0  0  0  0  0  0
  -25.5242  -26.7189   21.4362 C   0  0  0  0  0  0  0  0  0  0  0  0
  -29.3189  -22.8517   18.3003 C   0  0  0  0  0  0  0  0  0  0  0  0
  -29.8873  -24.0127   18.8153 C   0  0  0  0  0  0  0  0  0  0  0  0
  -24.3708  -12.5913   20.7139 C   0  0  0  0  0  0  0  0  0  0  0  0
  -26.9436  -27.5729   19.6569 C   0  0  0  0  0  0  0  0  0  0  0  0
  -23.0075  -10.6784   20.7808 C   0  0  0  0  0  0  0  0  0  0  0  0
  -22.7741   -7.9125   21.0602 C   0  0  0  0  0  0  0  0  0  0  0  0
  -22.2400  -10.1442   21.8159 C   0  0  0  0  0  0  0  0  0  0  0  0
  -28.2469  -14.2712   20.9409 C   0  0  0  0  0  0  0  0  0  0  0  0
  -30.3931  -14.6847   20.7000 C   0  0  0  0  0  0  0  0  0  0  0  0
  -29.8161  -21.7302   20.3540 C   0  0  0  0  0  0  0  0  0  0  0  0
  -29.6034  -12.6603   19.4643 C   0  0  0  0  0  0  0  0  0  0  0  0
  -22.6178  -27.6874   22.9339 C   0  0  0  0  0  0  0  0  0  0  0  0
  -23.8266  -25.0870   24.4501 C   0  0  0  0  0  0  0  0  0  0  0  0
  -26.3401  -22.7933   24.7107 C   0  0  0  0  0  0  0  0  0  0  0  0
  -30.2638  -20.3982   22.4448 C   0  0  0  0  0  0  0  0  0  0  0  0
  -19.1791  -29.0179   26.4641 C   0  0  0  0  0  0  0  0  0  0  0  0
  -23.1057  -26.1545   20.9926 C   0  0  0  0  0  0  0  0  0  0  0  0
  -25.3812  -26.2993   22.8757 C   0  0  0  0  0  0  0  0  0  0  0  0
  -20.6441  -28.5890   26.4741 C   0  0  0  0  0  0  0  0  0  0  0  0
  -31.5700  -17.6404   24.2795 C   0  0  0  0  0  0  0  0  0  0  0  0
  -21.4407  -29.3861   25.4460 C   0  0  0  0  0  0  0  0  0  0  0  0
  -30.9774  -16.4203   23.5709 C   0  0  0  0  0  0  0  0  0  0  0  0
  -30.5823  -18.8050   24.3251 C   0  0  0  0  0  0  0  0  0  0  0  0
  -29.4241  -17.9704   22.3173 C   0  0  0  0  0  0  0  0  0  0  0  0
  -20.9158  -29.1362   24.0270 C   0  0  1  0  0  0  0  0  0  0  0  0
  -22.8953  -26.2762   22.4987 C   0  0  1  0  0  0  0  0  0  0  0  0
  -30.4052  -16.7936   22.1893 C   0  0  2  0  0  0  0  0  0  0  0  0
  -27.0669  -20.8132   26.0703 C   0  0  0  0  0  0  0  0  0  0  0  0
  -32.0437  -26.3118   18.4790 C   0  0  0  0  0  0  0  0  0  0  0  0
  -24.6659  -26.9526   26.7139 C   0  0  0  0  0  0  0  0  0  0  0  0
  -26.1785  -25.1420   27.5517 C   0  0  0  0  0  0  0  0  0  0  0  0
  -23.7143  -24.7647   27.4637 C   0  0  0  0  0  0  0  0  0  0  0  0
  -26.2867  -21.0072   22.3515 C   0  0  0  0  0  0  0  0  0  0  0  0
  -30.0043  -27.6008   17.7549 C   0  0  0  0  0  0  0  0  0  0  0  0
  -28.4934  -27.7799   17.8649 C   0  0  0  0  0  0  0  0  0  1  0  0
  -25.0377  -24.8178   25.3102 C   0  0  1  0  0  0  0  0  0  0  0  0
  -26.3145  -21.2805   24.8341 C   0  0  2  0  0  0  0  0  0  0  0  0
  -30.5243  -26.4127   18.5701 C   0  0  1  0  0  0  0  0  0  0  0  0
  -24.9016  -25.4291   26.7333 C   0  0  0  0  0  0  0  0  0  0  0  0
  -28.4591  -15.3720   21.6670 N   0  0  0  0  0  0  0  0  0  0  0  0
  -29.7733  -15.5984   21.5007 N   0  0  0  0  0  0  0  0  0  0  0  0
  -30.3575  -22.8618   20.8252 N   0  3  0  0  0  0  0  0  0  0  0  0
  -24.0496  -25.8107   23.2701 N   0  0  0  0  0  0  0  0  0  0  0  0
  -30.0857  -19.1050   22.9804 N   0  0  0  0  0  0  0  0  0  0  0  0
  -28.7759  -22.8254   16.9966 N   0  0  0  0  0  0  0  0  0  0  0  0
  -31.7129  -14.7635   20.4276 N   0  0  0  0  0  0  0  0  0  0  0  0
  -28.4937  -11.8560   19.1710 N   0  0  0  0  0  0  0  0  0  0  0  0
  -29.9433  -25.1813   18.0771 N   0  0  0  0  0  0  0  0  0  0  0  0
  -29.7800  -20.5562   21.1465 N   0  0  0  0  0  0  0  0  0  0  0  0
  -21.3843  -27.8593   23.5324 N   0  0  0  0  0  0  0  0  0  0  0  0
  -25.2346  -23.3723   25.2970 N   0  0  0  0  0  0  0  0  0  0  0  0
  -26.9416  -20.6525   23.6369 N   0  3  0  0  0  0  0  0  0  0  0  0
  -30.7245  -12.3560   18.9911 O   0  0  0  0  0  0  0  0  0  0  0  0
  -23.4611  -28.5556   22.7421 O   0  0  0  0  0  0  0  0  0  0  0  0
  -22.7245  -24.6643   24.8083 O   0  0  0  0  0  0  0  0  0  0  0  0
  -27.2517  -23.4008   24.1534 O   0  0  0  0  0  0  0  0  0  0  0  0
  -30.8300  -21.2914   23.0801 O   0  0  0  0  0  0  0  0  0  0  0  0
  -23.1236  -12.0511   20.6403 O   0  0  0  0  0  0  0  0  0  0  0  0
  -28.1577  -28.0166   19.2315 O   0  0  0  0  0  0  0  0  0  1  0  0
  -22.6609   -6.5845   21.1933 F   0  0  0  0  0  0  0  0  0  0  0  0
  -21.6116  -10.9547   22.6786 F   0  0  0  0  0  0  0  0  0  0  0  0
  1  2  1  0  0  0  0
  1  5  2  0  0  0  0
  2  6  2  0  0  0  0
  3  8  2  0  0  0  0
  3 17  1  0  0  0  0
  4  9  1  0  0  0  0
  4 17  2  0  0  0  0
  5 19  1  0  0  0  0
  6 21  1  0  0  0  0
  7 10  2  0  0  0  0
  7 20  1  0  0  0  0
  8 25  1  0  0  0  0
  9 25  2  0  0  0  0
 10 26  1  0  0  0  0
 11 12  2  0  0  0  0
 11 27  1  0  0  0  0
 12 28  1  0  0  0  0
 13 22  1  0  0  0  0
 13 26  2  0  0  0  0
 14 23  1  0  0  0  0
 14 32  2  0  0  0  0
 15 28  2  0  0  0  0
 15 29  1  0  0  0  0
 16 24  1  0  0  0  0
 16 64  2  0  0  0  0
 17 30  1  0  0  0  0
 18 30  1  0  0  0  0
 18 31  2  0  0  0  0
 18 33  1  0  0  0  0
 19 21  2  0  0  0  0
 19 38  1  0  0  0  0
 20 22  2  0  0  0  0
 20 39  1  0  0  0  0
 21 47  1  0  0  0  0
 22 40  1  0  0  0  0
 23 24  2  0  0  0  0
 23 67  1  0  0  0  0
 24 70  1  0  0  0  0
 25 80  1  0  0  0  0
 26 81  1  0  0  0  0
 27 29  2  0  0  0  0
 27 80  1  0  0  0  0
 28 82  1  0  0  0  0
 29 83  1  0  0  0  0
 30 62  2  0  0  0  0
 31 63  1  0  0  0  0
 31 68  1  0  0  0  0
 32 64  1  0  0  0  0
 32 71  1  0  0  0  0
 33 69  1  0  0  0  0
 33 75  2  0  0  0  0
 34 48  1  0  0  0  0
 34 72  1  0  0  0  0
 34 76  2  0  0  0  0
 35 58  1  0  0  0  0
 35 65  1  0  0  0  0
 35 77  2  0  0  0  0
 36 59  1  0  0  0  0
 36 73  1  0  0  0  0
 36 78  2  0  0  0  0
 37 66  1  0  0  0  0
 37 71  1  0  0  0  0
 37 79  2  0  0  0  0
 38 41  1  0  0  0  0
 39 48  1  0  0  0  0
 40 65  1  0  0  0  0
 41 43  1  0  0  0  0
 42 44  1  0  0  0  0
 42 45  1  0  0  0  0
 43 47  1  0  0  0  0
 44 49  1  0  0  0  0
 45 66  1  0  0  0  0
 46 49  1  0  0  0  0
 46 66  1  0  0  0  0
 47 72  1  0  0  0  0
 48 65  1  0  0  0  0
 49 63  1  0  0  0  0
 50 59  1  0  0  0  0
 51 60  1  0  0  0  0
 52 61  1  0  0  0  0
 53 61  1  0  0  0  0
 54 61  1  0  0  0  0
 55 74  1  0  0  0  0
 56 57  1  0  0  0  0
 56 60  1  0  0  0  0
 57 81  1  0  0  0  0
 58 61  1  0  0  0  0
 58 73  1  0  0  0  0
 59 74  1  0  0  0  0
 60 70  1  0  0  0  0
 62 63  1  0  0  0  0
M  CHG  2  64   1  74   1
M  ISO  4  37 100  57 101  71 100  81 101
M  END
> <Batch ID>
0199

> <Smiles>
CNC(C)C(=O)NC(C(=O)N1Cc2cc([101O:1][101CH2:1]CC(C)Nc3cnc([100NH:0][100C:0](=O)N4CCCC(n5nc(-c6ccc(Oc7ccc(F)cc7F)cc6)c(C(N)=O)c5N)C4)cc3N)ccc2CC1C(=O)NC1CCCc2ccccc21)C(C)(C)C

> <Shape>
0.264

> <Color>
0.080

> <Negative vol penalty>
0.000

$$$$

  -OEChem-04052305473D

 83 91  0     1  0  0  0  0  0999 V2000
  -22.2089  -11.1735   20.0650 C   0  0  0  0  0  0  0  0  0  0  0  0
  -21.7943  -12.4496   20.4328 C   0  0  0  0  0  0  0  0  0  0  0  0
  -31.1752  -26.0719   18.6629 C   0  0  0  0  0  0  0  0  0  0  0  0
  -31.5689  -26.9713   20.8704 C   0  0  0  0  0  0  0  0  0  0  0  0
  -23.5648  -10.8496   20.0849 C   0  0  0  0  0  0  0  0  0  0  0  0
  -22.7355  -13.4021   20.8218 C   0  0  0  0  0  0  0  0  0  0  0  0
  -22.5059  -19.4360   19.7995 C   0  0  0  0  0  0  0  0  0  0  0  0
  -32.5086  -26.3083   18.3287 C   0  0  0  0  0  0  0  0  0  0  0  0
  -32.9024  -27.2077   20.5363 C   0  0  0  0  0  0  0  0  0  0  0  0
  -22.1089  -20.5081   20.5974 C   0  0  0  0  0  0  0  0  0  0  0  0
  -35.8977  -26.3423   17.0141 C   0  0  0  0  0  0  0  0  0  0  0  0
  -36.5879  -25.3310   16.3461 C   0  0  0  0  0  0  0  0  0  0  0  0
  -24.4077  -20.8855   21.2236 C   0  0  0  0  0  0  0  0  0  0  0  0
  -36.2012  -23.8385   18.2063 C   0  0  0  0  0  0  0  0  0  0  0  0
  -17.8513  -29.5793   21.5670 C   0  0  0  0  0  0  0  0  0  0  0  0
  -17.6239  -28.3081   21.0877 C   0  0  0  0  0  0  0  0  0  0  0  0
  -30.7053  -26.4035   19.9337 C   0  0  0  0  0  0  0  0  0  0  0  0
  -28.7885  -24.9923   20.8514 C   0  0  0  0  0  0  0  0  0  0  0  0
  -24.5239  -11.8015   20.4651 C   0  0  0  0  0  0  0  0  0  0  0  0
  -23.8579  -19.0732   19.7160 C   0  0  0  0  0  0  0  0  0  0  0  0
  -24.1054  -13.0901   20.8482 C   0  0  0  0  0  0  0  0  0  0  0  0
  -24.8196  -19.8100   20.4219 C   0  0  0  0  0  0  0  0  0  0  0  0
  -33.3722  -26.8762   19.2654 C   0  0  0  0  0  0  0  0  0  0  0  0
  -23.0595  -21.2313   21.3119 C   0  0  0  0  0  0  0  0  0  0  0  0
  -35.3592  -26.1019   18.2782 C   0  0  0  0  0  0  0  0  0  0  0  0
  -36.7397  -24.0790   16.9422 C   0  0  0  0  0  0  0  0  0  0  0  0
  -35.5110  -24.8499   18.8743 C   0  0  0  0  0  0  0  0  0  0  0  0
  -29.3278  -26.1601   20.2793 C   0  0  0  0  0  0  0  0  0  0  0  0
  -19.8536  -28.8943   22.4337 C   0  0  0  0  0  0  0  0  0  0  0  0
  -19.6258  -27.6229   21.9552 C   0  0  0  0  0  0  0  0  0  0  0  0
  -27.4479  -25.2614   20.9818 C   0  0  0  0  0  0  0  0  0  0  0  0
  -29.4410  -23.7734   21.2312 C   0  0  0  0  0  0  0  0  0  0  0  0
  -25.5332  -16.4757   20.4578 C   0  0  0  0  0  0  0  0  0  0  0  0
  -27.9524  -18.1061   19.0397 C   0  0  0  0  0  0  0  0  0  0  0  0
  -29.2646  -21.1172   18.1131 C   0  0  0  0  0  0  0  0  0  0  0  0
  -23.3941  -28.6060   22.5074 C   0  0  0  0  0  0  0  0  0  0  0  0
  -25.9741  -11.3904   20.5164 C   0  0  0  0  0  0  0  0  0  0  0  0
  -24.2729  -17.9309   18.8299 C   0  0  0  0  0  0  0  0  0  0  0  0
  -26.2860  -19.4737   20.3504 C   0  0  0  0  0  0  0  0  0  0  0  0
  -26.9398  -12.5708   20.5814 C   0  0  0  0  0  0  0  0  0  0  0  0
  -24.6563  -29.0599   19.1461 C   0  0  0  0  0  0  0  0  0  0  0  0
  -26.4728  -13.5861   21.6196 C   0  0  0  0  0  0  0  0  0  0  0  0
  -25.9483  -28.2422   19.1934 C   0  0  0  0  0  0  0  0  0  0  0  0
  -24.4124  -29.7849   20.4664 C   0  0  0  0  0  0  0  0  0  0  0  0
  -25.6812  -28.0782   21.7117 C   0  0  0  0  0  0  0  0  0  0  0  0
  -25.0983  -14.1583   21.2524 C   0  0  1  0  0  0  0  0  0  0  0  0
  -25.6179  -17.3277   19.2231 C   0  0  1  0  0  0  0  0  0  0  0  0
  -25.9727  -27.3030   20.4139 C   0  0  2  0  0  0  0  0  0  0  0  0
  -31.2739  -22.1332   17.0049 C   0  0  0  0  0  0  0  0  0  0  0  0
  -29.5794  -17.6546   21.5811 C   0  0  0  0  0  0  0  0  0  0  0  0
  -31.1465  -19.4499   20.8135 C   0  0  0  0  0  0  0  0  0  0  0  0
  -30.8667  -17.3765   19.4551 C   0  0  0  0  0  0  0  0  0  0  0  0
  -27.6244  -22.2746   15.9385 C   0  0  0  0  0  0  0  0  0  0  0  0
  -21.0935  -29.2400   23.1872 C   0  0  0  0  0  0  0  0  0  0  0  0
  -20.4306  -25.2729   21.7186 C   0  0  0  0  0  0  0  0  0  0  0  0
  -21.5138  -23.0001   21.6832 C   0  0  0  0  0  0  0  0  0  1  0  0
  -29.0026  -19.0835   19.5095 C   0  0  1  0  0  0  0  0  0  0  0  0
  -29.8664  -21.5936   16.8034 C   0  0  2  0  0  0  0  0  0  0  0  0
  -21.6368  -24.4445   22.1563 C   0  0  1  0  0  0  0  0  0  0  0  0
  -30.1211  -18.3965   20.3429 C   0  0  0  0  0  0  0  0  0  0  0  0
  -18.9703  -29.8953   22.2485 N   0  0  0  0  0  0  0  0  0  0  0  0
  -18.5070  -27.3070   21.2732 N   0  0  0  0  0  0  0  0  0  0  0  0
  -28.4052  -27.1009   20.0611 N   0  0  0  0  0  0  0  0  0  0  0  0
  -27.2726  -26.5246   20.4983 N   0  0  0  0  0  0  0  0  0  0  0  0
  -26.6412  -18.3444   19.4753 N   0  0  0  0  0  0  0  0  0  0  0  0
  -24.4295  -28.8322   21.5853 N   0  0  0  0  0  0  0  0  0  0  0  0
  -26.4139  -24.5383   21.4616 N   0  0  0  0  0  0  0  0  0  0  0  0
  -30.8234  -23.6643   21.0282 N   0  0  0  0  0  0  0  0  0  0  0  0
  -20.5720  -26.6366   22.1775 N   0  0  0  0  0  0  0  0  0  0  0  0
  -25.2270  -15.1516   20.2078 N   0  0  0  0  0  0  0  0  0  0  0  0
  -29.4836  -19.7710   18.3160 N   0  0  0  0  0  0  0  0  0  0  0  0
  -22.2454  -29.3654   22.3221 N   0  0  0  0  0  0  0  0  0  0  0  0
  -29.0288  -22.6747   16.2113 N   0  3  0  0  0  0  0  0  0  0  0  0
  -28.8138  -22.8034   21.7203 O   0  0  0  0  0  0  0  0  0  0  0  0
  -25.7324  -16.9818   21.5560 O   0  0  0  0  0  0  0  0  0  0  0  0
  -28.2821  -17.1700   18.3071 O   0  0  0  0  0  0  0  0  0  0  0  0
  -28.6639  -21.8653   18.8812 O   0  0  0  0  0  0  0  0  0  0  0  0
  -23.4845  -27.7836   23.4254 O   0  0  0  0  0  0  0  0  0  0  0  0
  -22.8188  -24.9945   21.5708 O   0  0  0  0  0  0  0  0  0  0  0  0
  -34.6735  -27.1068   18.9398 O   0  0  0  0  0  0  0  0  0  0  0  0
  -22.6746  -22.2778   22.0920 O   0  0  0  0  0  0  0  0  0  1  0  0
  -37.4013  -23.1074   16.3000 F   0  0  0  0  0  0  0  0  0  0  0  0
  -34.9949  -24.6126   20.0880 F   0  0  0  0  0  0  0  0  0  0  0  0
  1  2  1  0  0  0  0
  1  5  2  0  0  0  0
  2  6  2  0  0  0  0
  3  8  2  0  0  0  0
  3 17  1  0  0  0  0
  4  9  1  0  0  0  0
  4 17  2  0  0  0  0
  5 19  1  0  0  0  0
  6 21  1  0  0  0  0
  7 10  2  0  0  0  0
  7 20  1  0  0  0  0
  8 23  1  0  0  0  0
  9 23  2  0  0  0  0
 10 24  1  0  0  0  0
 11 12  2  0  0  0  0
 11 25  1  0  0  0  0
 12 26  1  0  0  0  0
 13 22  1  0  0  0  0
 13 24  2  0  0  0  0
 14 26  2  0  0  0  0
 14 27  1  0  0  0  0
 15 16  1  0  0  0  0
 15 61  2  0  0  0  0
 16 62  2  0  0  0  0
 17 28  1  0  0  0  0
 18 28  1  0  0  0  0
 18 31  2  0  0  0  0
 18 32  1  0  0  0  0
 19 21  2  0  0  0  0
 19 37  1  0  0  0  0
 20 22  2  0  0  0  0
 20 38  1  0  0  0  0
 21 46  1  0  0  0  0
 22 39  1  0  0  0  0
 23 80  1  0  0  0  0
 24 81  1  0  0  0  0
 25 27  2  0  0  0  0
 25 80  1  0  0  0  0
 26 82  1  0  0  0  0
 27 83  1  0  0  0  0
 28 63  2  0  0  0  0
 29 30  2  0  0  0  0
 29 54  1  0  0  0  0
 29 61  1  0  0  0  0
 30 62  1  0  0  0  0
 30 69  1  0  0  0  0
 31 64  1  0  0  0  0
 31 67  1  0  0  0  0
 32 68  1  0  0  0  0
 32 74  2  0  0  0  0
 33 47  1  0  0  0  0
 33 70  1  0  0  0  0
 33 75  2  0  0  0  0
 34 57  1  0  0  0  0
 34 65  1  0  0  0  0
 34 76  2  0  0  0  0
 35 58  1  0  0  0  0
 35 71  1  0  0  0  0
 35 77  2  0  0  0  0
 36 66  1  0  0  0  0
 36 72  1  0  0  0  0
 36 78  2  0  0  0  0
 37 40  1  0  0  0  0
 38 47  1  0  0  0  0
 39 65  1  0  0  0  0
 40 42  1  0  0  0  0
 41 43  1  0  0  0  0
 41 44  1  0  0  0  0
 42 46  1  0  0  0  0
 43 48  1  0  0  0  0
 44 66  1  0  0  0  0
 45 48  1  0  0  0  0
 45 66  1  0  0  0  0
 46 70  1  0  0  0  0
 47 65  1  0  0  0  0
 48 64  1  0  0  0  0
 49 58  1  0  0  0  0
 50 60  1  0  0  0  0
 51 60  1  0  0  0  0
 52 60  1  0  0  0  0
 53 73  1  0  0  0  0
 54 72  1  0  0  0  0
 55 59  1  0  0  0  0
 55 69  1  0  0  0  0
 56 59  1  0  0  0  0
 56 81  1  0  0  0  0
 57 60  1  0  0  0  0
 57 71  1  0  0  0  0
 58 73  1  0  0  0  0
 59 79  1  0  0  0  0
 63 64  1  0  0  0  0
M  CHG  1  73   1
M  ISO  4  36 100  56 101  72 100  81 101
M  END
> <Batch ID>
0199

> <Smiles>
CNC(C)C(=O)NC(C(=O)N1Cc2cc([101O:1][101CH2:1]C(O)CNc3nccnc3C[100NH:0][100C:0](=O)N3CCCC(n4nc(-c5ccc(Oc6ccc(F)cc6F)cc5)c(C(N)=O)c4N)C3)ccc2CC1C(=O)NC1CCCc2ccccc21)C(C)(C)C

> <Shape>
0.239

> <Color>
0.081

> <Negative vol penalty>
0.000

$$$$

  -OEChem-04052305473D

 81 89  0     1  0  0  0  0  0999 V2000
  -29.1282  -32.4964   22.0596 C   0  0  0  0  0  0  0  0  0  0  0  0
  -29.0937  -31.1570   21.6853 C   0  0  0  0  0  0  0  0  0  0  0  0
  -23.0446   -9.9704   19.9042 C   0  0  0  0  0  0  0  0  0  0  0  0
  -23.9615   -9.7447   22.1281 C   0  0  0  0  0  0  0  0  0  0  0  0
  -28.0486  -33.0567   22.7412 C   0  0  0  0  0  0  0  0  0  0  0  0
  -27.9798  -30.3767   21.9932 C   0  0  0  0  0  0  0  0  0  0  0  0
  -26.4831  -27.5051   18.0998 C   0  0  0  0  0  0  0  0  0  0  0  0
  -22.3358   -8.7814   20.0758 C   0  0  0  0  0  0  0  0  0  0  0  0
  -23.2526   -8.5557   22.2996 C   0  0  0  0  0  0  0  0  0  0  0  0
  -27.2153  -26.3464   17.8447 C   0  0  0  0  0  0  0  0  0  0  0  0
  -23.5498   -5.3207   21.3629 C   0  0  0  0  0  0  0  0  0  0  0  0
  -24.2277   -4.2369   21.9210 C   0  0  0  0  0  0  0  0  0  0  0  0
  -31.3387  -18.7128   20.3525 C   0  0  0  0  0  0  0  0  0  0  0  0
  -30.7139  -19.8451   19.7544 C   0  0  0  0  0  0  0  0  0  0  0  0
  -25.5315  -25.0407   18.9758 C   0  0  0  0  0  0  0  0  0  0  0  0
  -22.6464   -4.1882   23.7470 C   0  0  0  0  0  0  0  0  0  0  0  0
  -23.8575  -10.4521   20.9304 C   0  0  0  0  0  0  0  0  0  0  0  0
  -24.1555  -12.9820   21.0653 C   0  0  0  0  0  0  0  0  0  0  0  0
  -26.9169  -32.2853   23.0491 C   0  0  0  0  0  0  0  0  0  0  0  0
  -25.2729  -27.4415   18.8055 C   0  0  0  0  0  0  0  0  0  0  0  0
  -26.8846  -30.9268   22.6807 C   0  0  0  0  0  0  0  0  0  0  0  0
  -24.7846  -26.1997   19.2363 C   0  0  0  0  0  0  0  0  0  0  0  0
  -22.4398   -8.0741   21.2735 C   0  0  0  0  0  0  0  0  0  0  0  0
  -26.7410  -25.1143   18.2853 C   0  0  0  0  0  0  0  0  0  0  0  0
  -22.4203   -5.8384   21.9970 C   0  0  0  0  0  0  0  0  0  0  0  0
  -23.7759   -3.6706   23.1130 C   0  0  0  0  0  0  0  0  0  0  0  0
  -21.9686   -5.2721   23.1890 C   0  0  0  0  0  0  0  0  0  0  0  0
  -24.5904  -11.6799   20.7536 C   0  0  0  0  0  0  0  0  0  0  0  0
  -30.5204  -18.0966   21.2734 C   0  0  0  0  0  0  0  0  0  0  0  0
  -25.2094  -13.7895   20.7137 C   0  0  0  0  0  0  0  0  0  0  0  0
  -29.4415  -20.0509   20.2408 C   0  0  0  0  0  0  0  0  0  0  0  0
  -22.9101  -13.4222   21.6229 C   0  0  0  0  0  0  0  0  0  0  0  0
  -24.2145  -28.6340   21.5553 C   0  0  0  0  0  0  0  0  0  0  0  0
  -21.3955  -27.3662   20.5712 C   0  0  0  0  0  0  0  0  0  0  0  0
  -28.6039  -22.0845   19.0173 C   0  0  0  0  0  0  0  0  0  0  0  0
  -19.7686  -25.0629   18.6490 C   0  0  0  0  0  0  0  0  0  0  0  0
  -30.6785  -14.8983   20.6426 C   0  0  0  0  0  0  0  0  0  0  0  0
  -25.7942  -32.9227   23.8288 C   0  0  0  0  0  0  0  0  0  0  0  0
  -24.4818  -28.6973   19.0492 C   0  0  0  0  0  0  0  0  0  0  0  0
  -23.4810  -26.0751   19.9803 C   0  0  0  0  0  0  0  0  0  0  0  0
  -24.4937  -32.1245   23.7869 C   0  0  0  0  0  0  0  0  0  0  0  0
  -29.4111  -12.7632   18.0908 C   0  0  0  0  0  0  0  0  0  0  0  0
  -24.7655  -30.6468   24.0506 C   0  0  0  0  0  0  0  0  0  0  0  0
  -28.0113  -12.3938   18.5848 C   0  0  0  0  0  0  0  0  0  0  0  0
  -30.4061  -12.8719   19.2441 C   0  0  0  0  0  0  0  0  0  0  0  0
  -28.5952  -13.4077   20.8276 C   0  0  0  0  0  0  0  0  0  0  0  0
  -25.6836  -30.0542   22.9749 C   0  0  1  0  0  0  0  0  0  0  0  0
  -23.5176  -28.5773   20.2253 C   0  0  1  0  0  0  0  0  0  0  0  0
  -27.5442  -13.3412   19.7062 C   0  0  2  0  0  0  0  0  0  0  0  0
  -17.4652  -24.2433   18.0832 C   0  0  0  0  0  0  0  0  0  0  0  0
  -21.2567  -25.9137   23.2509 C   0  0  0  0  0  0  0  0  0  0  0  0
  -19.4992  -24.4229   22.2728 C   0  0  0  0  0  0  0  0  0  0  0  0
  -19.0833  -26.8745   22.4712 C   0  0  0  0  0  0  0  0  0  0  0  0
  -20.0954  -25.7628   15.7921 C   0  0  0  0  0  0  0  0  0  0  0  0
  -30.8003  -16.9029   22.1007 C   0  0  0  0  0  0  0  0  0  0  0  0
  -27.3389  -22.9220   18.9868 C   0  0  0  0  0  0  0  0  0  1  0  0
  -20.7106  -26.0303   20.7302 C   0  0  1  0  0  0  0  0  0  0  0  0
  -18.5895  -25.1937   17.7018 C   0  0  2  0  0  0  0  0  0  0  0  0
  -20.1630  -25.8126   22.1690 C   0  0  0  0  0  0  0  0  0  0  0  0
  -25.8245  -11.6569   20.2430 N   0  0  0  0  0  0  0  0  0  0  0  0
  -26.1739  -12.9546   20.2311 N   0  0  0  0  0  0  0  0  0  0  0  0
  -22.7471  -27.3323   20.1998 N   0  0  0  0  0  0  0  0  0  0  0  0
  -29.9042  -13.7863   20.2727 N   0  0  0  0  0  0  0  0  0  0  0  0
  -25.3959  -15.1252   20.7731 N   0  0  0  0  0  0  0  0  0  0  0  0
  -21.9366  -12.4606   21.9259 N   0  0  0  0  0  0  0  0  0  0  0  0
  -28.4804  -21.0418   19.9292 N   0  0  0  0  0  0  0  0  0  0  0  0
  -24.9382  -29.7928   21.7623 N   0  0  0  0  0  0  0  0  0  0  0  0
  -19.6923  -25.9670   19.6873 N   0  0  0  0  0  0  0  0  0  0  0  0
  -30.1264  -15.7174   21.6199 N   0  0  0  0  0  0  0  0  0  0  0  0
  -19.0104  -24.8874   16.3054 N   0  3  0  0  0  0  0  0  0  0  0  0
  -22.6615  -14.6341   21.8307 O   0  0  0  0  0  0  0  0  0  0  0  0
  -24.1026  -27.6965   22.3365 O   0  0  0  0  0  0  0  0  0  0  0  0
  -20.7530  -28.4017   20.7623 O   0  0  0  0  0  0  0  0  0  0  0  0
  -29.5674  -22.3498   18.3060 O   0  0  0  0  0  0  0  0  0  0  0  0
  -20.6654  -24.2384   18.4863 O   0  0  0  0  0  0  0  0  0  0  0  0
  -31.7777  -15.1461   20.1355 O   0  0  0  0  0  0  0  0  0  0  0  0
  -21.7480   -6.9139   21.4413 O   0  0  0  0  0  0  0  0  0  0  0  0
  -27.4540  -23.9819   18.0382 O   0  0  0  0  0  0  0  0  0  1  0  0
  -24.4260   -2.6288   23.6479 F   0  0  0  0  0  0  0  0  0  0  0  0
  -20.8834   -5.7642   23.8020 F   0  0  0  0  0  0  0  0  0  0  0  0
  -29.0053  -18.8823   21.4139 S   0  0  0  0  0  0  0  0  0  0  0  0
  1  2  1  0  0  0  0
  1  5  2  0  0  0  0
  2  6  2  0  0  0  0
  3  8  2  0  0  0  0
  3 17  1  0  0  0  0
  4  9  1  0  0  0  0
  4 17  2  0  0  0  0
  5 19  1  0  0  0  0
  6 21  1  0  0  0  0
  7 10  2  0  0  0  0
  7 20  1  0  0  0  0
  8 23  1  0  0  0  0
  9 23  2  0  0  0  0
 10 24  1  0  0  0  0
 11 12  2  0  0  0  0
 11 25  1  0  0  0  0
 12 26  1  0  0  0  0
 13 14  1  0  0  0  0
 13 29  2  0  0  0  0
 14 31  2  0  0  0  0
 15 22  1  0  0  0  0
 15 24  2  0  0  0  0
 16 26  2  0  0  0  0
 16 27  1  0  0  0  0
 17 28  1  0  0  0  0
 18 28  1  0  0  0  0
 18 30  2  0  0  0  0
 18 32  1  0  0  0  0
 19 21  2  0  0  0  0
 19 38  1  0  0  0  0
 20 22  2  0  0  0  0
 20 39  1  0  0  0  0
 21 47  1  0  0  0  0
 22 40  1  0  0  0  0
 23 77  1  0  0  0  0
 24 78  1  0  0  0  0
 25 27  2  0  0  0  0
 25 77  1  0  0  0  0
 26 79  1  0  0  0  0
 27 80  1  0  0  0  0
 28 60  2  0  0  0  0
 29 55  1  0  0  0  0
 29 81  1  0  0  0  0
 30 61  1  0  0  0  0
 30 64  1  0  0  0  0
 31 66  1  0  0  0  0
 31 81  1  0  0  0  0
 32 65  1  0  0  0  0
 32 71  2  0  0  0  0
 33 48  1  0  0  0  0
 33 67  1  0  0  0  0
 33 72  2  0  0  0  0
 34 57  1  0  0  0  0
 34 62  1  0  0  0  0
 34 73  2  0  0  0  0
 35 56  1  0  0  0  0
 35 66  1  0  0  0  0
 35 74  2  0  0  0  0
 36 58  1  0  0  0  0
 36 68  1  0  0  0  0
 36 75  2  0  0  0  0
 37 63  1  0  0  0  0
 37 69  1  0  0  0  0
 37 76  2  0  0  0  0
 38 41  1  0  0  0  0
 39 48  1  0  0  0  0
 40 62  1  0  0  0  0
 41 43  1  0  0  0  0
 42 44  1  0  0  0  0
 42 45  1  0  0  0  0
 43 47  1  0  0  0  0
 44 49  1  0  0  0  0
 45 63  1  0  0  0  0
 46 49  1  0  0  0  0
 46 63  1  0  0  0  0
 47 67  1  0  0  0  0
 48 62  1  0  0  0  0
 49 61  1  0  0  0  0
 50 58  1  0  0  0  0
 51 59  1  0  0  0  0
 52 59  1  0  0  0  0
 53 59  1  0  0  0  0
 54 70  1  0  0  0  0
 55 69  1  0  0  0  0
 56 78  1  0  0  0  0
 57 59  1  0  0  0  0
 57 68  1  0  0  0  0
 58 70  1  0  0  0  0
 60 61  1  0  0  0  0
M  CHG  1  70   1
M  ISO  4  37 100  56 101  69 100  78 101
M  END
> <Batch ID>
0199

> <Smiles>
CNC(C)C(=O)NC(C(=O)N1Cc2cc([101O:1][101CH2:1]C(=O)Nc3ccc(C[100NH:0][100C:0](=O)N4CCCC(n5nc(-c6ccc(Oc7ccc(F)cc7F)cc6)c(C(N)=O)c5N)C4)s3)ccc2CC1C(=O)NC1CCCc2ccccc21)C(C)(C)C

> <Shape>
0.340

> <Color>
0.188

> <Negative vol penalty>
0.000

$$$$

  -OEChem-04052305473D

 85 93  0     1  0  0  0  0  0999 V2000
  -23.1988  -22.1674   18.0457 C   0  0  0  0  0  0  0  0  0  0  0  0
  -24.3660  -21.4765   17.7361 C   0  0  0  0  0  0  0  0  0  0  0  0
  -24.8541  -25.6482   20.2410 C   0  0  0  0  0  0  0  0  0  0  0  0
  -25.6740  -25.2504   22.4785 C   0  0  0  0  0  0  0  0  0  0  0  0
  -22.5195  -21.8899   19.2312 C   0  0  0  0  0  0  0  0  0  0  0  0
  -24.8551  -20.5084   18.6124 C   0  0  0  0  0  0  0  0  0  0  0  0
  -28.3826  -14.2736   18.6394 C   0  0  0  0  0  0  0  0  0  0  0  0
  -23.6403  -26.0930   20.7648 C   0  0  0  0  0  0  0  0  0  0  0  0
  -24.4602  -25.6953   23.0024 C   0  0  0  0  0  0  0  0  0  0  0  0
  -29.4925  -13.6666   19.2254 C   0  0  0  0  0  0  0  0  0  0  0  0
  -22.4256  -28.9064   22.1939 C   0  0  0  0  0  0  0  0  0  0  0  0
  -21.8781  -30.0732   21.6606 C   0  0  0  0  0  0  0  0  0  0  0  0
  -28.1921  -13.2154   21.2065 C   0  0  0  0  0  0  0  0  0  0  0  0
  -19.9085  -28.8438   20.9925 C   0  0  0  0  0  0  0  0  0  0  0  0
  -30.9027  -19.0589   24.0587 C   0  0  0  0  0  0  0  0  0  0  0  0
  -25.8709  -25.2268   21.0978 C   0  0  0  0  0  0  0  0  0  0  0  0
  -28.2657  -25.5424   20.2774 C   0  0  0  0  0  0  0  0  0  0  0  0
  -22.9952  -20.9111   20.1179 C   0  0  0  0  0  0  0  0  0  0  0  0
  -27.1702  -14.3660   19.3379 C   0  0  0  0  0  0  0  0  0  0  0  0
  -24.1821  -20.2185   19.8116 C   0  0  0  0  0  0  0  0  0  0  0  0
  -27.0676  -13.8218   20.6261 C   0  0  0  0  0  0  0  0  0  0  0  0
  -23.4433  -26.1166   22.1455 C   0  0  0  0  0  0  0  0  0  0  0  0
  -29.3982  -13.1400   20.5103 C   0  0  0  0  0  0  0  0  0  0  0  0
  -21.7146  -27.7082   22.1264 C   0  0  0  0  0  0  0  0  0  0  0  0
  -20.6196  -30.0419   21.0599 C   0  0  0  0  0  0  0  0  0  0  0  0
  -20.4560  -27.6769   21.5258 C   0  0  0  0  0  0  0  0  0  0  0  0
  -27.1248  -24.7666   20.5573 C   0  0  0  0  0  0  0  0  0  0  0  0
  -31.6275  -18.3624   25.0041 C   0  0  0  0  0  0  0  0  0  0  0  0
  -30.8330  -18.4749   22.8104 C   0  0  0  0  0  0  0  0  0  0  0  0
  -29.1794  -24.6436   19.7837 C   0  0  0  0  0  0  0  0  0  0  0  0
  -32.0992  -16.7197   23.5054 C   0  0  0  0  0  0  0  0  0  0  0  0
  -28.4804  -26.9496   20.4484 C   0  0  0  0  0  0  0  0  0  0  0  0
  -25.3565  -16.7609   20.3764 C   0  0  0  0  0  0  0  0  0  0  0  0
  -23.3194  -14.3620   21.1625 C   0  0  0  0  0  0  0  0  0  0  0  0
  -22.8843  -11.0652   21.9295 C   0  0  0  0  0  0  0  0  0  0  0  0
  -29.9015  -18.7538   20.4864 C   0  0  0  0  0  0  0  0  0  0  0  0
  -22.2523  -20.6793   21.4098 C   0  0  0  0  0  0  0  0  0  0  0  0
  -25.9746  -15.0000   18.6814 C   0  0  0  0  0  0  0  0  0  0  0  0
  -25.7829  -13.8772   21.4103 C   0  0  0  0  0  0  0  0  0  0  0  0
  -22.6327  -19.3749   22.1055 C   0  0  0  0  0  0  0  0  0  0  0  0
  -29.4425  -20.4911   17.4126 C   0  0  0  0  0  0  0  0  0  0  0  0
  -24.1489  -19.2117   22.1420 C   0  0  0  0  0  0  0  0  0  0  0  0
  -28.9056  -21.8574   17.8451 C   0  0  0  0  0  0  0  0  0  0  0  0
  -28.9043  -19.3654   18.2940 C   0  0  0  0  0  0  0  0  0  0  0  0
  -28.5613  -20.9260   20.1691 C   0  0  0  0  0  0  0  0  0  0  0  0
  -24.7307  -19.1437   20.7249 C   0  0  1  0  0  0  0  0  0  0  0  0
  -24.9361  -15.4961   19.6828 C   0  0  1  0  0  0  0  0  0  0  0  0
  -29.1266  -22.0987   19.3513 C   0  0  2  0  0  0  0  0  0  0  0  0
  -31.7570  -18.9133   26.3844 C   0  0  0  0  0  0  0  0  0  0  0  0
  -21.1097   -9.4074   22.5619 C   0  0  0  0  0  0  0  0  0  0  0  0
  -33.6368  -15.5791   20.9891 C   0  0  0  0  0  0  0  0  0  0  0  0
  -23.2612  -15.5067   23.9903 C   0  0  0  0  0  0  0  0  0  0  0  0
  -22.2839  -13.3386   24.7729 C   0  0  0  0  0  0  0  0  0  0  0  0
  -21.0413  -14.7432   23.1280 C   0  0  0  0  0  0  0  0  0  0  0  0
  -23.3981   -9.4220   19.5223 C   0  0  0  0  0  0  0  0  0  0  0  0
  -33.0059  -13.3842   22.0523 C   0  0  0  0  0  0  0  0  0  0  0  0
  -30.5821  -12.6205   22.5064 C   0  0  0  0  0  0  0  0  0  1  0  0
  -23.1084  -13.4945   22.3798 C   0  0  1  0  0  0  0  0  0  0  0  0
  -21.8933  -10.0346   21.4193 C   0  0  2  0  0  0  0  0  0  0  0  0
  -32.6589  -14.8729   21.9237 C   0  0  1  0  0  0  0  0  0  0  0  0
  -32.0460  -12.5728   22.9378 C   0  0  1  0  0  0  0  0  0  0  0  0
  -22.4486  -14.2712   23.5540 C   0  0  0  0  0  0  0  0  0  0  0  0
  -27.2956  -23.4745   20.2655 N   0  0  0  0  0  0  0  0  0  0  0  0
  -32.2411  -17.1856   24.7608 N   0  0  0  0  0  0  0  0  0  0  0  0
  -31.4215  -17.3018   22.4977 N   0  0  0  0  0  0  0  0  0  0  0  0
  -28.5544  -23.4314   19.7970 N   0  0  0  0  0  0  0  0  0  0  0  0
  -24.6438  -14.5129   20.7278 N   0  0  0  0  0  0  0  0  0  0  0  0
  -29.1531  -19.6608   19.7067 N   0  0  0  0  0  0  0  0  0  0  0  0
  -30.4483  -24.7798   19.3437 N   0  0  0  0  0  0  0  0  0  0  0  0
  -27.4361  -27.7265   20.9684 N   0  0  0  0  0  0  0  0  0  0  0  0
  -30.1013  -19.1564   21.8065 N   0  0  0  0  0  0  0  0  0  0  0  0
  -32.7141  -15.5133   23.2208 N   0  0  0  0  0  0  0  0  0  0  0  0
  -24.5137  -17.8326   20.1518 N   0  0  0  0  0  0  0  0  0  0  0  0
  -22.3470  -12.3351   21.9277 N   0  0  0  0  0  0  0  0  0  0  0  0
  -22.6053   -8.9497   20.6865 N   0  3  0  0  0  0  0  0  0  0  0  0
  -29.5604  -27.5046   20.1337 O   0  0  0  0  0  0  0  0  0  0  0  0
  -26.3697  -16.7639   21.0657 O   0  0  0  0  0  0  0  0  0  0  0  0
  -22.3443  -14.8808   20.6132 O   0  0  0  0  0  0  0  0  0  0  0  0
  -24.0201  -10.7724   22.2966 O   0  0  0  0  0  0  0  0  0  0  0  0
  -30.3565  -17.7105   20.0104 O   0  0  0  0  0  0  0  0  0  0  0  0
  -32.4599  -11.2039   22.9095 O   0  0  0  0  0  0  0  0  0  0  0  0
  -22.2591  -26.5508   22.6570 O   0  0  0  0  0  0  0  0  0  0  0  0
  -30.4802  -12.5475   21.0849 O   0  0  0  0  0  0  0  0  0  1  0  0
  -20.0933  -31.1628   20.5492 F   0  0  0  0  0  0  0  0  0  0  0  0
  -19.7677  -26.5291   21.4591 F   0  0  0  0  0  0  0  0  0  0  0  0
  1  2  1  0  0  0  0
  1  5  2  0  0  0  0
  2  6  2  0  0  0  0
  3  8  2  0  0  0  0
  3 16  1  0  0  0  0
  4  9  1  0  0  0  0
  4 16  2  0  0  0  0
  5 18  1  0  0  0  0
  6 20  1  0  0  0  0
  7 10  2  0  0  0  0
  7 19  1  0  0  0  0
  8 22  1  0  0  0  0
  9 22  2  0  0  0  0
 10 23  1  0  0  0  0
 11 12  2  0  0  0  0
 11 24  1  0  0  0  0
 12 25  1  0  0  0  0
 13 21  1  0  0  0  0
 13 23  2  0  0  0  0
 14 25  2  0  0  0  0
 14 26  1  0  0  0  0
 15 28  1  0  0  0  0
 15 29  2  0  0  0  0
 16 27  1  0  0  0  0
 17 27  1  0  0  0  0
 17 30  2  0  0  0  0
 17 32  1  0  0  0  0
 18 20  2  0  0  0  0
 18 37  1  0  0  0  0
 19 21  2  0  0  0  0
 19 38  1  0  0  0  0
 20 46  1  0  0  0  0
 21 39  1  0  0  0  0
 22 82  1  0  0  0  0
 23 83  1  0  0  0  0
 24 26  2  0  0  0  0
 24 82  1  0  0  0  0
 25 84  1  0  0  0  0
 26 85  1  0  0  0  0
 27 63  2  0  0  0  0
 28 49  1  0  0  0  0
 28 64  2  0  0  0  0
 29 65  1  0  0  0  0
 29 71  1  0  0  0  0
 30 66  1  0  0  0  0
 30 69  1  0  0  0  0
 31 64  1  0  0  0  0
 31 65  2  0  0  0  0
 31 72  1  0  0  0  0
 32 70  1  0  0  0  0
 32 76  2  0  0  0  0
 33 47  1  0  0  0  0
 33 73  1  0  0  0  0
 33 77  2  0  0  0  0
 34 58  1  0  0  0  0
 34 67  1  0  0  0  0
 34 78  2  0  0  0  0
 35 59  1  0  0  0  0
 35 74  1  0  0  0  0
 35 79  2  0  0  0  0
 36 68  1  0  0  0  0
 36 71  1  0  0  0  0
 36 80  2  0  0  0  0
 37 40  1  0  0  0  0
 38 47  1  0  0  0  0
 39 67  1  0  0  0  0
 40 42  1  0  0  0  0
 41 43  1  0  0  0  0
 41 44  1  0  0  0  0
 42 46  1  0  0  0  0
 43 48  1  0  0  0  0
 44 68  1  0  0  0  0
 45 48  1  0  0  0  0
 45 68  1  0  0  0  0
 46 73  1  0  0  0  0
 47 67  1  0  0  0  0
 48 66  1  0  0  0  0
 50 59  1  0  0  0  0
 51 60  1  0  0  0  0
 52 62  1  0  0  0  0
 53 62  1  0  0  0  0
 54 62  1  0  0  0  0
 55 75  1  0  0  0  0
 56 60  1  0  0  0  0
 56 61  1  0  0  0  0
 57 61  1  0  0  0  0
 57 83  1  0  0  0  0
 58 62  1  0  0  0  0
 58 74  1  0  0  0  0
 59 75  1  0  0  0  0
 60 72  1  0  0  0  0
 61 81  1  0  0  0  0
 63 66  1  0  0  0  0
M  CHG  1  75   1
M  ISO  4  36 100  57 101  71 100  83 101
M  END
> <Batch ID>
0199

> <Smiles>
CNC(C)C(=O)NC(C(=O)N1Cc2cc([101O:1][101CH2:1]C(O)CC(C)Nc3nc(C)cc([100NH:0][100C:0](=O)N4CCCC(n5nc(-c6ccc(Oc7ccc(F)cc7F)cc6)c(C(N)=O)c5N)C4)n3)ccc2CC1C(=O)NC1CCCc2ccccc21)C(C)(C)C

> <Shape>
0.230

> <Color>
0.067

> <Negative vol penalty>
0.000

$$$$

  -OEChem-04052305473D

 83 91  0     1  0  0  0  0  0999 V2000
  -29.7613  -23.2946   17.6708 C   0  0  0  0  0  0  0  0  0  0  0  0
  -28.3781  -23.2181   17.7886 C   0  0  0  0  0  0  0  0  0  0  0  0
  -28.2225  -16.8238   21.2797 C   0  0  0  0  0  0  0  0  0  0  0  0
  -27.4685  -17.0794   18.9987 C   0  0  0  0  0  0  0  0  0  0  0  0
  -30.4858  -24.1171   18.5309 C   0  0  0  0  0  0  0  0  0  0  0  0
  -27.7178  -23.9732   18.7585 C   0  0  0  0  0  0  0  0  0  0  0  0
  -22.7995  -23.9463   18.6465 C   0  0  0  0  0  0  0  0  0  0  0  0
  -28.9509  -18.0084   21.1718 C   0  0  0  0  0  0  0  0  0  0  0  0
  -28.1968  -18.2641   18.8907 C   0  0  0  0  0  0  0  0  0  0  0  0
  -22.0430  -22.8376   19.0238 C   0  0  0  0  0  0  0  0  0  0  0  0
  -30.7192  -21.1537   21.6136 C   0  0  0  0  0  0  0  0  0  0  0  0
  -30.6385  -22.0630   22.6683 C   0  0  0  0  0  0  0  0  0  0  0  0
  -21.5234  -23.9130   21.1197 C   0  0  0  0  0  0  0  0  0  0  0  0
  -28.2527  -22.2413   22.3319 C   0  0  0  0  0  0  0  0  0  0  0  0
  -21.5487  -18.2241   25.6210 C   0  0  0  0  0  0  0  0  0  0  0  0
  -27.4814  -16.3592   20.1932 C   0  0  0  0  0  0  0  0  0  0  0  0
  -27.2321  -13.8512   20.5874 C   0  0  0  0  0  0  0  0  0  0  0  0
  -29.8345  -24.8727   19.5197 C   0  0  0  0  0  0  0  0  0  0  0  0
  -22.9327  -25.0439   19.5089 C   0  0  0  0  0  0  0  0  0  0  0  0
  -28.4291  -24.8275   19.6204 C   0  0  0  0  0  0  0  0  0  0  0  0
  -22.2800  -25.0355   20.7499 C   0  0  0  0  0  0  0  0  0  0  0  0
  -20.7161  -17.1250   25.5663 C   0  0  0  0  0  0  0  0  0  0  0  0
  -28.9380  -18.7286   19.9773 C   0  0  0  0  0  0  0  0  0  0  0  0
  -21.4072  -22.8196   20.2618 C   0  0  0  0  0  0  0  0  0  0  0  0
  -29.5667  -20.7883   20.9180 C   0  0  0  0  0  0  0  0  0  0  0  0
  -29.4053  -22.6068   23.0274 C   0  0  0  0  0  0  0  0  0  0  0  0
  -28.3334  -21.3321   21.2772 C   0  0  0  0  0  0  0  0  0  0  0  0
  -26.7293  -15.1352   20.3039 C   0  0  0  0  0  0  0  0  0  0  0  0
  -20.0911  -16.9091   24.3551 C   0  0  0  0  0  0  0  0  0  0  0  0
  -26.1240  -13.0397   20.5820 C   0  0  0  0  0  0  0  0  0  0  0  0
  -21.0955  -18.7383   23.4537 C   0  0  0  0  0  0  0  0  0  0  0  0
  -28.5802  -13.4298   20.8338 C   0  0  0  0  0  0  0  0  0  0  0  0
  -25.3702  -26.4589   20.9787 C   0  0  0  0  0  0  0  0  0  0  0  0
  -23.0987  -28.6105   21.8348 C   0  0  0  0  0  0  0  0  0  0  0  0
  -19.7959  -29.2746   22.3798 C   0  0  0  0  0  0  0  0  0  0  0  0
  -20.3055  -14.0770   21.5414 C   0  0  0  0  0  0  0  0  0  0  0  0
  -30.6669  -25.7524   20.4189 C   0  0  0  0  0  0  0  0  0  0  0  0
  -23.7303  -26.2434   19.0760 C   0  0  0  0  0  0  0  0  0  0  0  0
  -22.3749  -26.1972   21.7038 C   0  0  0  0  0  0  0  0  0  0  0  0
  -29.9332  -26.1662   21.6905 C   0  0  0  0  0  0  0  0  0  0  0  0
  -21.7744  -12.6545   18.6266 C   0  0  0  0  0  0  0  0  0  0  0  0
  -28.5532  -26.7039   21.3427 C   0  0  0  0  0  0  0  0  0  0  0  0
  -23.2562  -13.0131   18.7516 C   0  0  0  0  0  0  0  0  0  0  0  0
  -20.8768  -13.7736   19.1501 C   0  0  0  0  0  0  0  0  0  0  0  0
  -22.6610  -14.5775   20.6482 C   0  0  0  0  0  0  0  0  0  0  0  0
  -27.6923  -25.6162   20.6879 C   0  0  1  0  0  0  0  0  0  0  0  0
  -24.2196  -27.0900   20.2470 C   0  0  1  0  0  0  0  0  0  0  0  0
  -23.6069  -13.4565   20.1846 C   0  0  2  0  0  0  0  0  0  0  0  0
  -18.2503  -31.1120   23.1095 C   0  0  0  0  0  0  0  0  0  0  0  0
  -23.9701  -28.1911   24.7287 C   0  0  0  0  0  0  0  0  0  0  0  0
  -21.8332  -29.2741   25.4560 C   0  0  0  0  0  0  0  0  0  0  0  0
  -23.4929  -30.5686   24.1171 C   0  0  0  0  0  0  0  0  0  0  0  0
  -18.3495  -29.2411   19.7980 C   0  0  0  0  0  0  0  0  0  0  0  0
  -19.1661  -15.7501   24.1751 C   0  0  0  0  0  0  0  0  0  0  0  0
  -19.8904  -14.4162   23.9646 C   0  0  0  0  0  0  0  0  0  0  0  0
  -20.6539  -19.3745   21.0818 C   0  0  0  0  0  0  0  0  0  0  0  0
  -21.0678  -20.4704   20.1140 C   0  0  0  0  0  0  0  0  0  1  0  0
  -22.1417  -28.7507   22.9939 C   0  0  1  0  0  0  0  0  0  0  0  0
  -18.9108  -30.4216   21.9264 C   0  0  2  0  0  0  0  0  0  0  0  0
  -22.8591  -29.1733   24.3070 C   0  0  0  0  0  0  0  0  0  0  0  0
  -21.7623  -19.0553   24.5799 N   0  0  0  0  0  0  0  0  0  0  0  0
  -25.4049  -15.1437   20.1307 N   0  0  0  0  0  0  0  0  0  0  0  0
  -20.2584  -17.6988   23.2740 N   0  0  0  0  0  0  0  0  0  0  0  0
  -25.0661  -13.8551   20.3059 N   0  0  0  0  0  0  0  0  0  0  0  0
  -23.1715  -27.3441   21.2375 N   0  0  0  0  0  0  0  0  0  0  0  0
  -21.2608  -14.1461   20.5139 N   0  0  0  0  0  0  0  0  0  0  0  0
  -20.5316  -16.2947   26.6782 N   0  0  0  0  0  0  0  0  0  0  0  0
  -25.9611  -11.7152   20.7864 N   0  0  0  0  0  0  0  0  0  0  0  0
  -29.3645  -13.0285   19.7438 N   0  0  0  0  0  0  0  0  0  0  0  0
  -21.2912  -19.5703   22.3638 N   0  0  0  0  0  0  0  0  0  0  0  0
  -26.4756  -26.2156   20.1859 N   0  0  0  0  0  0  0  0  0  0  0  0
  -21.1030  -29.6768   22.5559 N   0  0  0  0  0  0  0  0  0  0  0  0
  -20.7539  -14.4414   22.8051 N   0  0  0  0  0  0  0  0  0  0  0  0
  -17.8414  -29.9223   21.0165 N   0  3  0  0  0  0  0  0  0  0  0  0
  -29.0694  -13.3941   21.9883 O   0  0  0  0  0  0  0  0  0  0  0  0
  -25.2637  -26.2123   22.1743 O   0  0  0  0  0  0  0  0  0  0  0  0
  -23.7521  -29.5904   21.4682 O   0  0  0  0  0  0  0  0  0  0  0  0
  -19.3695  -28.1366   22.5634 O   0  0  0  0  0  0  0  0  0  0  0  0
  -19.1409  -13.7122   21.3480 O   0  0  0  0  0  0  0  0  0  0  0  0
  -29.6484  -19.8848   19.8717 O   0  0  0  0  0  0  0  0  0  0  0  0
  -20.6688  -21.7385   20.6328 O   0  0  0  0  0  0  0  0  0  1  0  0
  -29.3277  -23.4787   24.0412 F   0  0  0  0  0  0  0  0  0  0  0  0
  -27.2226  -20.9839   20.6134 F   0  0  0  0  0  0  0  0  0  0  0  0
  1  2  1  0  0  0  0
  1  5  2  0  0  0  0
  2  6  2  0  0  0  0
  3  8  2  0  0  0  0
  3 16  1  0  0  0  0
  4  9  1  0  0  0  0
  4 16  2  0  0  0  0
  5 18  1  0  0  0  0
  6 20  1  0  0  0  0
  7 10  2  0  0  0  0
  7 19  1  0  0  0  0
  8 23  1  0  0  0  0
  9 23  2  0  0  0  0
 10 24  1  0  0  0  0
 11 12  2  0  0  0  0
 11 25  1  0  0  0  0
 12 26  1  0  0  0  0
 13 21  1  0  0  0  0
 13 24  2  0  0  0  0
 14 26  2  0  0  0  0
 14 27  1  0  0  0  0
 15 22  1  0  0  0  0
 15 61  2  0  0  0  0
 16 28  1  0  0  0  0
 17 28  1  0  0  0  0
 17 30  2  0  0  0  0
 17 32  1  0  0  0  0
 18 20  2  0  0  0  0
 18 37  1  0  0  0  0
 19 21  2  0  0  0  0
 19 38  1  0  0  0  0
 20 46  1  0  0  0  0
 21 39  1  0  0  0  0
 22 29  2  0  0  0  0
 22 67  1  0  0  0  0
 23 80  1  0  0  0  0
 24 81  1  0  0  0  0
 25 27  2  0  0  0  0
 25 80  1  0  0  0  0
 26 82  1  0  0  0  0
 27 83  1  0  0  0  0
 28 62  2  0  0  0  0
 29 54  1  0  0  0  0
 29 63  1  0  0  0  0
 30 64  1  0  0  0  0
 30 68  1  0  0  0  0
 31 61  1  0  0  0  0
 31 63  2  0  0  0  0
 31 70  1  0  0  0  0
 32 69  1  0  0  0  0
 32 75  2  0  0  0  0
 33 47  1  0  0  0  0
 33 71  1  0  0  0  0
 33 76  2  0  0  0  0
 34 58  1  0  0  0  0
 34 65  1  0  0  0  0
 34 77  2  0  0  0  0
 35 59  1  0  0  0  0
 35 72  1  0  0  0  0
 35 78  2  0  0  0  0
 36 66  1  0  0  0  0
 36 73  1  0  0  0  0
 36 79  2  0  0  0  0
 37 40  1  0  0  0  0
 38 47  1  0  0  0  0
 39 65  1  0  0  0  0
 40 42  1  0  0  0  0
 41 43  1  0  0  0  0
 41 44  1  0  0  0  0
 42 46  1  0  0  0  0
 43 48  1  0  0  0  0
 44 66  1  0  0  0  0
 45 48  1  0  0  0  0
 45 66  1  0  0  0  0
 46 71  1  0  0  0  0
 47 65  1  0  0  0  0
 48 64  1  0  0  0  0
 49 59  1  0  0  0  0
 50 60  1  0  0  0  0
 51 60  1  0  0  0  0
 52 60  1  0  0  0  0
 53 74  1  0  0  0  0
 54 55  1  0  0  0  0
 55 73  1  0  0  0  0
 56 57  1  0  0  0  0
 56 70  1  0  0  0  0
 57 81  1  0  0  0  0
 58 60  1  0  0  0  0
 58 72  1  0  0  0  0
 59 74  1  0  0  0  0
 62 64  1  0  0  0  0
M  CHG  1  74   1
M  ISO  4  36 100  57 101  73 100  81 101
M  END
> <Batch ID>
0199

> <Smiles>
CNC(C)C(=O)NC(C(=O)N1Cc2cc([101O:1][101CH2:1]CNc3ncc(N)c(CC[100NH:0][100C:0](=O)N4CCCC(n5nc(-c6ccc(Oc7ccc(F)cc7F)cc6)c(C(N)=O)c5N)C4)n3)ccc2CC1C(=O)NC1CCCc2ccccc21)C(C)(C)C

> <Shape>
0.215

> <Color>
0.061

> <Negative vol penalty>
0.000

$$$$

  -OEChem-04052305473D

 86 94  0     1  0  0  0  0  0999 V2000
  -24.2142  -36.8283   19.2291 C   0  0  0  0  0  0  0  0  0  0  0  0
  -25.0433  -35.7351   18.9990 C   0  0  0  0  0  0  0  0  0  0  0  0
  -24.6229   -9.3503   20.0567 C   0  0  0  0  0  0  0  0  0  0  0  0
  -24.3280   -9.9585   22.3762 C   0  0  0  0  0  0  0  0  0  0  0  0
  -23.4943  -36.9174   20.4198 C   0  0  0  0  0  0  0  0  0  0  0  0
  -25.1538  -34.7309   19.9601 C   0  0  0  0  0  0  0  0  0  0  0  0
  -25.9215  -28.7391   18.9523 C   0  0  0  0  0  0  0  0  0  0  0  0
  -24.4235   -8.0089   20.3830 C   0  0  0  0  0  0  0  0  0  0  0  0
  -24.1285   -8.6171   22.7025 C   0  0  0  0  0  0  0  0  0  0  0  0
  -27.0517  -27.9229   18.9661 C   0  0  0  0  0  0  0  0  0  0  0  0
  -21.6250   -6.3549   22.5131 C   0  0  0  0  0  0  0  0  0  0  0  0
  -20.5670   -6.0480   23.3686 C   0  0  0  0  0  0  0  0  0  0  0  0
  -26.5608  -27.2920   21.2421 C   0  0  0  0  0  0  0  0  0  0  0  0
  -22.1225   -5.0865   24.9475 C   0  0  0  0  0  0  0  0  0  0  0  0
  -24.5752  -10.3251   21.0533 C   0  0  0  0  0  0  0  0  0  0  0  0
  -23.8015  -12.6508   20.3460 C   0  0  0  0  0  0  0  0  0  0  0  0
  -23.5886  -35.9090   21.3918 C   0  0  0  0  0  0  0  0  0  0  0  0
  -25.1072  -28.8466   20.0888 C   0  0  0  0  0  0  0  0  0  0  0  0
  -24.4356  -34.8072   21.1655 C   0  0  0  0  0  0  0  0  0  0  0  0
  -25.4194  -28.1083   21.2393 C   0  0  0  0  0  0  0  0  0  0  0  0
  -24.1762   -7.6423   21.7059 C   0  0  0  0  0  0  0  0  0  0  0  0
  -27.3731  -27.2014   20.1121 C   0  0  0  0  0  0  0  0  0  0  0  0
  -22.9319   -6.0275   22.8748 C   0  0  0  0  0  0  0  0  0  0  0  0
  -20.8157   -5.4139   24.5858 C   0  0  0  0  0  0  0  0  0  0  0  0
  -23.1806   -5.3933   24.0920 C   0  0  0  0  0  0  0  0  0  0  0  0
  -24.7817  -11.7108   20.7169 C   0  0  0  0  0  0  0  0  0  0  0  0
  -24.5031  -13.8120   20.1316 C   0  0  0  0  0  0  0  0  0  0  0  0
  -26.8344  -19.4034   22.1213 C   0  0  0  0  0  0  0  0  0  0  0  0
  -27.1380  -21.4640   22.2588 C   0  0  0  0  0  0  0  0  0  0  0  0
  -22.3837  -12.4888   20.2077 C   0  0  0  0  0  0  0  0  0  0  0  0
  -24.2679  -31.2189   22.0308 C   0  0  0  0  0  0  0  0  0  0  0  0
  -22.3185  -28.9630   23.3086 C   0  0  0  0  0  0  0  0  0  0  0  0
  -21.6628  -25.6530   23.8195 C   0  0  0  0  0  0  0  0  0  0  0  0
  -28.4023  -17.4941   21.6285 C   0  0  0  0  0  0  0  0  0  0  0  0
  -22.8277  -36.0725   22.6836 C   0  0  0  0  0  0  0  0  0  0  0  0
  -23.8766  -29.7107   20.0488 C   0  0  0  0  0  0  0  0  0  0  0  0
  -24.5664  -28.1732   22.4789 C   0  0  0  0  0  0  0  0  0  0  0  0
  -22.7118  -34.7814   23.4898 C   0  0  0  0  0  0  0  0  0  0  0  0
  -29.4864  -14.6366   19.8019 C   0  0  0  0  0  0  0  0  0  0  0  0
  -24.0630  -34.0781   23.5687 C   0  0  0  0  0  0  0  0  0  0  0  0
  -28.2784  -13.6980   19.8466 C   0  0  0  0  0  0  0  0  0  0  0  0
  -29.6522  -15.4102   21.1087 C   0  0  0  0  0  0  0  0  0  0  0  0
  -27.2481  -15.1957   21.6023 C   0  0  0  0  0  0  0  0  0  0  0  0
  -24.5628  -33.6854   22.1731 C   0  0  1  0  0  0  0  0  0  0  0  0
  -23.4051  -30.1433   21.4337 C   0  0  1  0  0  0  0  0  0  0  0  0
  -27.0020  -14.4427   20.2847 C   0  0  2  0  0  0  0  0  0  0  0  0
  -20.0174  -24.1196   24.9325 C   0  0  0  0  0  0  0  0  0  0  0  0
  -32.0284  -23.0632   24.5426 C   0  0  0  0  0  0  0  0  0  0  0  0
  -31.9333  -22.5768   22.0901 C   0  0  0  0  0  0  0  0  0  0  0  0
  -28.7394  -24.2232   19.1630 C   0  0  0  0  0  0  0  0  0  0  0  0
  -23.5505  -29.6150   26.0228 C   0  0  0  0  0  0  0  0  0  0  0  0
  -22.5999  -27.4681   26.8921 C   0  0  0  0  0  0  0  0  0  0  0  0
  -21.0754  -29.2584   26.0593 C   0  0  0  0  0  0  0  0  0  0  0  0
  -24.7416  -22.0670   22.7889 C   0  0  0  0  0  0  0  0  0  0  0  0
  -20.9221  -24.3913   21.2469 C   0  0  0  0  0  0  0  0  0  0  0  0
  -29.7789  -22.9231   23.3382 C   0  0  0  0  0  0  0  0  0  0  0  0
  -29.0050  -24.6519   21.6693 C   0  0  0  0  0  0  0  0  0  0  0  0
  -22.4503  -27.9319   24.4034 C   0  0  1  0  0  0  0  0  0  0  0  0
  -20.3930  -24.8393   23.6465 C   0  0  2  0  0  0  0  0  0  0  0  0
  -31.2653  -23.3298   23.2444 C   0  0  0  0  0  0  0  0  0  0  0  0
  -28.9519  -23.1659   22.0620 C   0  0  2  0  0  0  0  0  0  0  0  0
  -28.2607  -25.0108   20.3755 C   0  0  1  0  0  0  0  0  0  1  0  0
  -22.4364  -28.5684   25.8218 C   0  0  0  0  0  0  0  0  0  0  0  0
  -26.0122  -12.2300   20.7378 N   0  0  0  0  0  0  0  0  0  0  0  0
  -27.8051  -20.3585   22.0213 N   0  0  0  0  0  0  0  0  0  0  0  0
  -25.6086  -19.8483   22.4057 N   0  0  0  0  0  0  0  0  0  0  0  0
  -25.8099  -13.5087   20.3772 N   0  0  0  0  0  0  0  0  0  0  0  0
  -25.8303  -21.1690   22.4884 N   0  0  0  0  0  0  0  0  0  0  0  0
  -23.3773  -29.0369   22.3925 N   0  0  0  0  0  0  0  0  0  0  0  0
  -28.4048  -16.0935   21.4583 N   0  0  0  0  0  0  0  0  0  0  0  0
  -24.1234  -15.0526   19.7588 N   0  0  0  0  0  0  0  0  0  0  0  0
  -21.8268  -11.2289   20.4665 N   0  0  0  0  0  0  0  0  0  0  0  0
  -27.1527  -18.0364   21.9272 N   0  0  0  0  0  0  0  0  0  0  0  0
  -27.5770  -22.7751   22.2961 N   0  0  0  0  0  0  0  0  0  0  0  0
  -23.8738  -32.5024   21.7039 N   0  0  0  0  0  0  0  0  0  0  0  0
  -21.3894  -26.9567   24.1756 N   0  0  0  0  0  0  0  0  0  0  0  0
  -20.5726  -23.8209   22.5733 N   0  3  0  0  0  0  0  0  0  0  0  0
  -21.6349  -13.4291   19.8490 O   0  0  0  0  0  0  0  0  0  0  0  0
  -25.2197  -30.9075   22.7370 O   0  0  0  0  0  0  0  0  0  0  0  0
  -21.3098  -29.6716   23.2637 O   0  0  0  0  0  0  0  0  0  0  0  0
  -22.7851  -25.1785   23.6587 O   0  0  0  0  0  0  0  0  0  0  0  0
  -29.4274  -18.1665   21.4906 O   0  0  0  0  0  0  0  0  0  0  0  0
  -23.9813   -6.3335   22.0247 O   0  0  0  0  0  0  0  0  0  0  0  0
  -28.4813  -26.4007   20.1286 O   0  0  0  0  0  0  0  0  0  1  0  0
  -19.7997   -5.1206   25.4080 F   0  0  0  0  0  0  0  0  0  0  0  0
  -24.4340   -5.0774   24.4454 F   0  0  0  0  0  0  0  0  0  0  0  0
  1  2  1  0  0  0  0
  1  5  2  0  0  0  0
  2  6  2  0  0  0  0
  3  8  2  0  0  0  0
  3 15  1  0  0  0  0
  4  9  1  0  0  0  0
  4 15  2  0  0  0  0
  5 17  1  0  0  0  0
  6 19  1  0  0  0  0
  7 10  2  0  0  0  0
  7 18  1  0  0  0  0
  8 21  1  0  0  0  0
  9 21  2  0  0  0  0
 10 22  1  0  0  0  0
 11 12  2  0  0  0  0
 11 23  1  0  0  0  0
 12 24  1  0  0  0  0
 13 20  1  0  0  0  0
 13 22  2  0  0  0  0
 14 24  2  0  0  0  0
 14 25  1  0  0  0  0
 15 26  1  0  0  0  0
 16 26  1  0  0  0  0
 16 27  2  0  0  0  0
 16 30  1  0  0  0  0
 17 19  2  0  0  0  0
 17 35  1  0  0  0  0
 18 20  2  0  0  0  0
 18 36  1  0  0  0  0
 19 44  1  0  0  0  0
 20 37  1  0  0  0  0
 21 83  1  0  0  0  0
 22 84  1  0  0  0  0
 23 25  2  0  0  0  0
 23 83  1  0  0  0  0
 24 85  1  0  0  0  0
 25 86  1  0  0  0  0
 26 64  2  0  0  0  0
 27 67  1  0  0  0  0
 27 71  1  0  0  0  0
 28 65  1  0  0  0  0
 28 66  2  0  0  0  0
 28 73  1  0  0  0  0
 29 65  2  0  0  0  0
 29 68  1  0  0  0  0
 29 74  1  0  0  0  0
 30 72  1  0  0  0  0
 30 78  2  0  0  0  0
 31 45  1  0  0  0  0
 31 75  1  0  0  0  0
 31 79  2  0  0  0  0
 32 58  1  0  0  0  0
 32 69  1  0  0  0  0
 32 80  2  0  0  0  0
 33 59  1  0  0  0  0
 33 76  1  0  0  0  0
 33 81  2  0  0  0  0
 34 70  1  0  0  0  0
 34 73  1  0  0  0  0
 34 82  2  0  0  0  0
 35 38  1  0  0  0  0
 36 45  1  0  0  0  0
 37 69  1  0  0  0  0
 38 40  1  0  0  0  0
 39 41  1  0  0  0  0
 39 42  1  0  0  0  0
 40 44  1  0  0  0  0
 41 46  1  0  0  0  0
 42 70  1  0  0  0  0
 43 46  1  0  0  0  0
 43 70  1  0  0  0  0
 44 75  1  0  0  0  0
 45 69  1  0  0  0  0
 46 67  1  0  0  0  0
 47 59  1  0  0  0  0
 48 60  1  0  0  0  0
 49 60  1  0  0  0  0
 50 62  1  0  0  0  0
 51 63  1  0  0  0  0
 52 63  1  0  0  0  0
 53 63  1  0  0  0  0
 54 68  1  0  0  0  0
 55 77  1  0  0  0  0
 56 60  1  0  0  0  0
 56 61  1  0  0  0  0
 57 61  1  0  0  0  0
 57 62  1  0  0  0  0
 58 63  1  0  0  0  0
 58 76  1  0  0  0  0
 59 77  1  0  0  0  0
 61 74  1  0  0  0  0
 62 84  1  0  0  0  0
 64 67  1  0  0  0  0
 66 68  1  0  0  0  0
M  CHG  1  77   1
M  ISO  4  34 100  62 101  73 100  84 101
M  END
> <Batch ID>
0199

> <Smiles>
CNC(C)C(=O)NC(C(=O)N1Cc2cc([101O:1][101CH:1](C)CC(CC(C)C)Nc3nc([100NH:0][100C:0](=O)N4CCCC(n5nc(-c6ccc(Oc7ccc(F)cc7F)cc6)c(C(N)=O)c5N)C4)nn3C)ccc2CC1C(=O)NC1CCCc2ccccc21)C(C)(C)C

> <Shape>
0.242

> <Color>
0.093

> <Negative vol penalty>
0.000

$$$$

  -OEChem-04052305473D

 82 90  0     1  0  0  0  0  0999 V2000
  -17.1155  -30.3787   21.2969 C   0  0  0  0  0  0  0  0  0  0  0  0
  -18.3272  -30.3713   20.6133 C   0  0  0  0  0  0  0  0  0  0  0  0
  -26.5936  -12.8645   21.7690 C   0  0  0  0  0  0  0  0  0  0  0  0
  -25.9971  -14.2182   19.8589 C   0  0  0  0  0  0  0  0  0  0  0  0
  -17.0885  -30.1281   22.6681 C   0  0  0  0  0  0  0  0  0  0  0  0
  -19.5128  -30.1144   21.3009 C   0  0  0  0  0  0  0  0  0  0  0  0
  -24.4232  -27.1287   19.1844 C   0  0  0  0  0  0  0  0  0  0  0  0
  -25.3239  -12.2872   21.7564 C   0  0  0  0  0  0  0  0  0  0  0  0
  -24.7274  -13.6409   19.8462 C   0  0  0  0  0  0  0  0  0  0  0  0
  -25.6343  -27.5720   18.6550 C   0  0  0  0  0  0  0  0  0  0  0  0
  -23.6910   -9.8986   20.0068 C   0  0  0  0  0  0  0  0  0  0  0  0
  -23.6069   -8.5141   20.1546 C   0  0  0  0  0  0  0  0  0  0  0  0
  -26.6594  -27.3466   20.8270 C   0  0  0  0  0  0  0  0  0  0  0  0
  -22.2769   -8.8079   22.1501 C   0  0  0  0  0  0  0  0  0  0  0  0
  -30.2506  -24.0838   19.8675 C   0  0  0  0  0  0  0  0  0  0  0  0
  -29.0932  -22.9288   18.1994 C   0  0  0  0  0  0  0  0  0  0  0  0
  -26.9302  -13.8301   20.8203 C   0  0  0  0  0  0  0  0  0  0  0  0
  -29.3884  -13.9746   20.1539 C   0  0  0  0  0  0  0  0  0  0  0  0
  -18.2733  -29.8584   23.3711 C   0  0  0  0  0  0  0  0  0  0  0  0
  -24.3181  -26.8009   20.5438 C   0  0  0  0  0  0  0  0  0  0  0  0
  -19.5017  -29.8612   22.6832 C   0  0  0  0  0  0  0  0  0  0  0  0
  -25.4464  -26.8969   21.3707 C   0  0  0  0  0  0  0  0  0  0  0  0
  -29.6732  -24.1101   18.6144 C   0  0  0  0  0  0  0  0  0  0  0  0
  -24.3908  -12.6753   20.7950 C   0  0  0  0  0  0  0  0  0  0  0  0
  -26.7520  -27.6838   19.4769 C   0  0  0  0  0  0  0  0  0  0  0  0
  -23.0681  -10.7377   20.9307 C   0  0  0  0  0  0  0  0  0  0  0  0
  -22.8999   -7.9688   21.2262 C   0  0  0  0  0  0  0  0  0  0  0  0
  -22.3611  -10.1924   22.0023 C   0  0  0  0  0  0  0  0  0  0  0  0
  -28.2414  -14.4273   20.8331 C   0  0  0  0  0  0  0  0  0  0  0  0
  -30.3655  -14.8797   20.4891 C   0  0  0  0  0  0  0  0  0  0  0  0
  -29.6681  -21.9042   20.1453 C   0  0  0  0  0  0  0  0  0  0  0  0
  -29.5555  -12.8377   19.2965 C   0  0  0  0  0  0  0  0  0  0  0  0
  -22.6237  -27.9094   22.9941 C   0  0  0  0  0  0  0  0  0  0  0  0
  -23.9420  -25.3835   24.5447 C   0  0  0  0  0  0  0  0  0  0  0  0
  -26.4868  -23.1192   24.7536 C   0  0  0  0  0  0  0  0  0  0  0  0
  -30.2135  -20.5947   22.2272 C   0  0  0  0  0  0  0  0  0  0  0  0
  -18.1993  -29.6400   24.8616 C   0  0  0  0  0  0  0  0  0  0  0  0
  -23.0112  -26.2987   21.0937 C   0  0  0  0  0  0  0  0  0  0  0  0
  -25.3913  -26.5380   22.8324 C   0  0  0  0  0  0  0  0  0  0  0  0
  -19.4585  -29.0064   25.4476 C   0  0  0  0  0  0  0  0  0  0  0  0
  -31.6569  -17.8668   24.0026 C   0  0  0  0  0  0  0  0  0  0  0  0
  -20.7053  -29.7038   24.9130 C   0  0  0  0  0  0  0  0  0  0  0  0
  -31.0539  -16.6339   23.3255 C   0  0  0  0  0  0  0  0  0  0  0  0
  -30.6511  -19.0130   24.0931 C   0  0  0  0  0  0  0  0  0  0  0  0
  -29.4139  -18.1515   22.1447 C   0  0  0  0  0  0  0  0  0  0  0  0
  -20.8063  -29.5621   23.3895 C   0  0  1  0  0  0  0  0  0  0  0  0
  -22.8879  -26.4829   22.6031 C   0  0  1  0  0  0  0  0  0  0  0  0
  -30.4095  -16.9927   21.9721 C   0  0  2  0  0  0  0  0  0  0  0  0
  -27.3092  -21.2034   26.1503 C   0  0  0  0  0  0  0  0  0  0  0  0
  -31.7857  -26.4067   18.0561 C   0  0  0  0  0  0  0  0  0  0  0  0
  -24.8952  -27.3489   26.6751 C   0  0  0  0  0  0  0  0  0  0  0  0
  -26.4702  -25.5853   27.4981 C   0  0  0  0  0  0  0  0  0  0  0  0
  -24.0084  -25.1888   27.5706 C   0  0  0  0  0  0  0  0  0  0  0  0
  -26.3118  -21.2343   22.4787 C   0  0  0  0  0  0  0  0  0  0  0  0
  -29.6962  -27.6507   17.3993 C   0  0  0  0  0  0  0  0  0  0  0  0
  -28.1927  -27.8245   17.5900 C   0  0  0  0  0  0  0  0  0  1  0  0
  -25.2035  -25.1590   25.3429 C   0  0  1  0  0  0  0  0  0  0  0  0
  -26.4819  -21.6129   24.9417 C   0  0  2  0  0  0  0  0  0  0  0  0
  -30.2734  -26.5016   18.2318 C   0  0  1  0  0  0  0  0  0  0  0  0
  -25.1452  -25.8292   26.7446 C   0  0  0  0  0  0  0  0  0  0  0  0
  -30.2664  -22.9940   20.6628 N   0  0  0  0  0  0  0  0  0  0  0  0
  -29.0724  -21.8025   18.9419 N   0  0  0  0  0  0  0  0  0  0  0  0
  -28.4675  -15.5338   21.5462 N   0  0  0  0  0  0  0  0  0  0  0  0
  -29.7678  -15.7841   21.3169 N   0  0  0  0  0  0  0  0  0  0  0  0
  -24.0893  -26.0580   23.3244 N   0  0  0  0  0  0  0  0  0  0  0  0
  -30.0852  -19.3000   22.7732 N   0  0  0  0  0  0  0  0  0  0  0  0
  -31.6692  -14.9822   20.1538 N   0  0  0  0  0  0  0  0  0  0  0  0
  -28.4483  -12.0121   19.0581 N   0  0  0  0  0  0  0  0  0  0  0  0
  -29.6757  -25.2467   17.8258 N   0  0  0  0  0  0  0  0  0  0  0  0
  -29.6654  -20.7401   20.9532 N   0  0  0  0  0  0  0  0  0  0  0  0
  -21.2833  -28.2425   23.0351 N   0  0  0  0  0  0  0  0  0  0  0  0
  -25.4122  -23.7155   25.3789 N   0  0  0  0  0  0  0  0  0  0  0  0
  -27.0437  -20.9387   23.7373 N   0  3  0  0  0  0  0  0  0  0  0  0
  -30.6583  -12.5528   18.7708 O   0  0  0  0  0  0  0  0  0  0  0  0
  -23.5662  -28.6525   23.2418 O   0  0  0  0  0  0  0  0  0  0  0  0
  -22.8664  -24.9693   24.9844 O   0  0  0  0  0  0  0  0  0  0  0  0
  -27.3588  -23.7084   24.1189 O   0  0  0  0  0  0  0  0  0  0  0  0
  -30.7927  -21.5000   22.8330 O   0  0  0  0  0  0  0  0  0  0  0  0
  -23.1518  -12.1120   20.7822 O   0  0  0  0  0  0  0  0  0  0  0  0
  -27.9352  -28.1168   18.9628 O   0  0  0  0  0  0  0  0  0  1  0  0
  -22.8179   -6.6393   21.3671 F   0  0  0  0  0  0  0  0  0  0  0  0
  -21.7596  -10.9935   22.8925 F   0  0  0  0  0  0  0  0  0  0  0  0
  1  2  1  0  0  0  0
  1  5  2  0  0  0  0
  2  6  2  0  0  0  0
  3  8  2  0  0  0  0
  3 17  1  0  0  0  0
  4  9  1  0  0  0  0
  4 17  2  0  0  0  0
  5 19  1  0  0  0  0
  6 21  1  0  0  0  0
  7 10  2  0  0  0  0
  7 20  1  0  0  0  0
  8 24  1  0  0  0  0
  9 24  2  0  0  0  0
 10 25  1  0  0  0  0
 11 12  2  0  0  0  0
 11 26  1  0  0  0  0
 12 27  1  0  0  0  0
 13 22  1  0  0  0  0
 13 25  2  0  0  0  0
 14 27  2  0  0  0  0
 14 28  1  0  0  0  0
 15 23  1  0  0  0  0
 15 61  2  0  0  0  0
 16 23  2  0  0  0  0
 16 62  1  0  0  0  0
 17 29  1  0  0  0  0
 18 29  1  0  0  0  0
 18 30  2  0  0  0  0
 18 32  1  0  0  0  0
 19 21  2  0  0  0  0
 19 37  1  0  0  0  0
 20 22  2  0  0  0  0
 20 38  1  0  0  0  0
 21 46  1  0  0  0  0
 22 39  1  0  0  0  0
 23 69  1  0  0  0  0
 24 79  1  0  0  0  0
 25 80  1  0  0  0  0
 26 28  2  0  0  0  0
 26 79  1  0  0  0  0
 27 81  1  0  0  0  0
 28 82  1  0  0  0  0
 29 63  2  0  0  0  0
 30 64  1  0  0  0  0
 30 67  1  0  0  0  0
 31 61  1  0  0  0  0
 31 62  2  0  0  0  0
 31 70  1  0  0  0  0
 32 68  1  0  0  0  0
 32 74  2  0  0  0  0
 33 47  1  0  0  0  0
 33 71  1  0  0  0  0
 33 75  2  0  0  0  0
 34 57  1  0  0  0  0
 34 65  1  0  0  0  0
 34 76  2  0  0  0  0
 35 58  1  0  0  0  0
 35 72  1  0  0  0  0
 35 77  2  0  0  0  0
 36 66  1  0  0  0  0
 36 70  1  0  0  0  0
 36 78  2  0  0  0  0
 37 40  1  0  0  0  0
 38 47  1  0  0  0  0
 39 65  1  0  0  0  0
 40 42  1  0  0  0  0
 41 43  1  0  0  0  0
 41 44  1  0  0  0  0
 42 46  1  0  0  0  0
 43 48  1  0  0  0  0
 44 66  1  0  0  0  0
 45 48  1  0  0  0  0
 45 66  1  0  0  0  0
 46 71  1  0  0  0  0
 47 65  1  0  0  0  0
 48 64  1  0  0  0  0
 49 58  1  0  0  0  0
 50 59  1  0  0  0  0
 51 60  1  0  0  0  0
 52 60  1  0  0  0  0
 53 60  1  0  0  0  0
 54 73  1  0  0  0  0
 55 56  1  0  0  0  0
 55 59  1  0  0  0  0
 56 80  1  0  0  0  0
 57 60  1  0  0  0  0
 57 72  1  0  0  0  0
 58 73  1  0  0  0  0
 59 69  1  0  0  0  0
 63 64  1  0  0  0  0
M  CHG  1  73   1
M  ISO  4  36 100  56 101  70 100  80 101
M  END
> <Batch ID>
0199

> <Smiles>
CNC(C)C(=O)NC(C(=O)N1Cc2cc([101O:1][101CH2:1]CC(C)Nc3cnc([100NH:0][100C:0](=O)N4CCCC(n5nc(-c6ccc(Oc7ccc(F)cc7F)cc6)c(C(N)=O)c5N)C4)nc3)ccc2CC1C(=O)NC1CCCc2ccccc21)C(C)(C)C

> <Shape>
0.260

> <Color>
0.081

> <Negative vol penalty>
0.000

$$$$

  -OEChem-04052305473D

 83 91  0     1  0  0  0  0  0999 V2000
  -21.9580  -11.2466   20.8681 C   0  0  0  0  0  0  0  0  0  0  0  0
  -21.6142  -12.5817   21.0545 C   0  0  0  0  0  0  0  0  0  0  0  0
  -29.9112  -27.7015   21.0265 C   0  0  0  0  0  0  0  0  0  0  0  0
  -28.4083  -25.8098   21.0224 C   0  0  0  0  0  0  0  0  0  0  0  0
  -23.3005  -10.8768   20.7984 C   0  0  0  0  0  0  0  0  0  0  0  0
  -22.6129  -13.5477   21.1723 C   0  0  0  0  0  0  0  0  0  0  0  0
  -21.6408  -17.6917   18.4287 C   0  0  0  0  0  0  0  0  0  0  0  0
  -30.9104  -26.9064   21.5878 C   0  0  0  0  0  0  0  0  0  0  0  0
  -29.4075  -25.0147   21.5836 C   0  0  0  0  0  0  0  0  0  0  0  0
  -20.7149  -18.5959   18.9473 C   0  0  0  0  0  0  0  0  0  0  0  0
  -33.1247  -24.5773   20.5368 C   0  0  0  0  0  0  0  0  0  0  0  0
  -34.4079  -24.6725   19.9982 C   0  0  0  0  0  0  0  0  0  0  0  0
  -22.5226  -19.9885   19.7301 C   0  0  0  0  0  0  0  0  0  0  0  0
  -35.2574  -25.3782   22.1470 C   0  0  0  0  0  0  0  0  0  0  0  0
  -20.2918  -26.8176   22.1586 C   0  0  0  0  0  0  0  0  0  0  0  0
  -28.6601  -27.1532   20.7438 C   0  0  0  0  0  0  0  0  0  0  0  0
  -27.3725  -28.1794   18.7954 C   0  0  0  0  0  0  0  0  0  0  0  0
  -24.3160  -11.8401   20.9058 C   0  0  0  0  0  0  0  0  0  0  0  0
  -23.0168  -17.9240   18.5667 C   0  0  0  0  0  0  0  0  0  0  0  0
  -23.9703  -13.1903   21.1053 C   0  0  0  0  0  0  0  0  0  0  0  0
  -23.4638  -19.0869   19.2101 C   0  0  0  0  0  0  0  0  0  0  0  0
  -30.6586  -25.5631   21.8663 C   0  0  0  0  0  0  0  0  0  0  0  0
  -21.1558  -19.7431   19.6007 C   0  0  0  0  0  0  0  0  0  0  0  0
  -32.9079  -24.8826   21.8804 C   0  0  0  0  0  0  0  0  0  0  0  0
  -35.4742  -25.0729   20.8033 C   0  0  0  0  0  0  0  0  0  0  0  0
  -33.9742  -25.2831   22.6856 C   0  0  0  0  0  0  0  0  0  0  0  0
  -27.6273  -27.9741   20.1646 C   0  0  0  0  0  0  0  0  0  0  0  0
  -20.3469  -28.1578   22.4829 C   0  0  0  0  0  0  0  0  0  0  0  0
  -19.0531  -26.2230   22.2863 C   0  0  0  0  0  0  0  0  0  0  0  0
  -26.2967  -29.0330   18.7706 C   0  0  0  0  0  0  0  0  0  0  0  0
  -18.1298  -28.1794   22.9840 C   0  0  0  0  0  0  0  0  0  0  0  0
  -28.0476  -27.6460   17.6485 C   0  0  0  0  0  0  0  0  0  0  0  0
  -25.4166  -16.4030   19.9919 C   0  0  0  0  0  0  0  0  0  0  0  0
  -27.2090  -18.6871   18.5455 C   0  0  0  0  0  0  0  0  0  0  0  0
  -27.3700  -21.8110   17.1807 C   0  0  0  0  0  0  0  0  0  0  0  0
  -21.8815  -30.1496   22.6388 C   0  0  0  0  0  0  0  0  0  0  0  0
  -25.7538  -11.3860   20.8716 C   0  0  0  0  0  0  0  0  0  0  0  0
  -24.0026  -16.9522   17.9782 C   0  0  0  0  0  0  0  0  0  0  0  0
  -24.9302  -19.3928   19.3667 C   0  0  0  0  0  0  0  0  0  0  0  0
  -26.7455  -12.5212   20.6305 C   0  0  0  0  0  0  0  0  0  0  0  0
  -24.2098  -32.5028   21.3279 C   0  0  0  0  0  0  0  0  0  0  0  0
  -26.4191  -13.7139   21.5236 C   0  0  0  0  0  0  0  0  0  0  0  0
  -25.3243  -31.6270   20.7508 C   0  0  0  0  0  0  0  0  0  0  0  0
  -23.6327  -31.9124   22.6133 C   0  0  0  0  0  0  0  0  0  0  0  0
  -24.3020  -29.6411   21.9331 C   0  0  0  0  0  0  0  0  0  0  0  0
  -25.0245  -14.2707   21.2127 C   0  0  1  0  0  0  0  0  0  0  0  0
  -25.3806  -17.0319   18.6278 C   0  0  1  0  0  0  0  0  0  0  0  0
  -24.8701  -30.1617   20.6027 C   0  0  2  0  0  0  0  0  0  0  0  0
  -28.3577  -23.7756   15.9715 C   0  0  0  0  0  0  0  0  0  0  0  0
  -28.3912  -19.3182   21.2867 C   0  0  0  0  0  0  0  0  0  0  0  0
  -29.2330  -21.4814   20.3484 C   0  0  0  0  0  0  0  0  0  0  0  0
  -30.0464  -19.3171   19.4120 C   0  0  0  0  0  0  0  0  0  0  0  0
  -26.5154  -20.7670   14.5466 C   0  0  0  0  0  0  0  0  0  0  0  0
  -20.0735  -24.0775   21.5239 C   0  0  0  0  0  0  0  0  0  0  0  0
  -20.7757  -21.7814   20.7655 C   0  0  0  0  0  0  0  0  0  1  0  0
  -27.6836  -20.0704   18.9204 C   0  0  1  0  0  0  0  0  0  0  0  0
  -27.9617  -22.3104   15.8750 C   0  0  2  0  0  0  0  0  0  0  0  0
  -19.6146  -22.6486   21.2396 C   0  0  1  0  0  0  0  0  0  0  0  0
  -28.8108  -20.0403   19.9908 C   0  0  0  0  0  0  0  0  0  0  0  0
  -26.7817  -28.6436   20.9525 N   0  0  0  0  0  0  0  0  0  0  0  0
  -19.2814  -28.8724   22.9006 N   0  0  0  0  0  0  0  0  0  0  0  0
  -17.9467  -26.8763   22.6980 N   0  0  0  0  0  0  0  0  0  0  0  0
  -25.9850  -29.2779   20.0756 N   0  0  0  0  0  0  0  0  0  0  0  0
  -25.8550  -18.4089   18.7799 N   0  0  0  0  0  0  0  0  0  0  0  0
  -23.2200  -30.5241   22.3961 N   0  0  0  0  0  0  0  0  0  0  0  0
  -25.5966  -29.5906   17.7600 N   0  0  0  0  0  0  0  0  0  0  0  0
  -16.9935  -28.8962   23.4179 N   0  0  0  0  0  0  0  0  0  0  0  0
  -29.1335  -26.7839   17.8534 N   0  0  0  0  0  0  0  0  0  0  0  0
  -21.5986  -28.8116   22.3662 N   0  0  0  0  0  0  0  0  0  0  0  0
  -18.9562  -24.8779   21.9724 N   0  0  0  0  0  0  0  0  0  0  0  0
  -25.0565  -15.0690   20.0060 N   0  0  0  0  0  0  0  0  0  0  0  0
  -28.0619  -20.7243   17.6723 N   0  0  0  0  0  0  0  0  0  0  0  0
  -26.9742  -22.1624   14.7687 N   0  3  0  0  0  0  0  0  0  0  0  0
  -27.7087  -27.9387   16.4767 O   0  0  0  0  0  0  0  0  0  0  0  0
  -25.7480  -17.0776   20.9597 O   0  0  0  0  0  0  0  0  0  0  0  0
  -28.0086  -17.8855   18.0560 O   0  0  0  0  0  0  0  0  0  0  0  0
  -26.3941  -22.3349   17.7133 O   0  0  0  0  0  0  0  0  0  0  0  0
  -21.0411  -30.9629   23.0318 O   0  0  0  0  0  0  0  0  0  0  0  0
  -19.1055  -22.0729   22.4444 O   0  0  0  0  0  0  0  0  0  0  0  0
  -31.6335  -24.7869   22.4138 O   0  0  0  0  0  0  0  0  0  0  0  0
  -20.2542  -20.6270   20.1084 O   0  0  0  0  0  0  0  0  0  1  0  0
  -36.7066  -25.1628   20.2864 F   0  0  0  0  0  0  0  0  0  0  0  0
  -33.7722  -25.5766   23.9774 F   0  0  0  0  0  0  0  0  0  0  0  0
  1  2  1  0  0  0  0
  1  5  2  0  0  0  0
  2  6  2  0  0  0  0
  3  8  2  0  0  0  0
  3 16  1  0  0  0  0
  4  9  1  0  0  0  0
  4 16  2  0  0  0  0
  5 18  1  0  0  0  0
  6 20  1  0  0  0  0
  7 10  2  0  0  0  0
  7 19  1  0  0  0  0
  8 22  1  0  0  0  0
  9 22  2  0  0  0  0
 10 23  1  0  0  0  0
 11 12  2  0  0  0  0
 11 24  1  0  0  0  0
 12 25  1  0  0  0  0
 13 21  1  0  0  0  0
 13 23  2  0  0  0  0
 14 25  2  0  0  0  0
 14 26  1  0  0  0  0
 15 28  2  0  0  0  0
 15 29  1  0  0  0  0
 16 27  1  0  0  0  0
 17 27  1  0  0  0  0
 17 30  2  0  0  0  0
 17 32  1  0  0  0  0
 18 20  2  0  0  0  0
 18 37  1  0  0  0  0
 19 21  2  0  0  0  0
 19 38  1  0  0  0  0
 20 46  1  0  0  0  0
 21 39  1  0  0  0  0
 22 80  1  0  0  0  0
 23 81  1  0  0  0  0
 24 26  2  0  0  0  0
 24 80  1  0  0  0  0
 25 82  1  0  0  0  0
 26 83  1  0  0  0  0
 27 60  2  0  0  0  0
 28 61  1  0  0  0  0
 28 69  1  0  0  0  0
 29 62  2  0  0  0  0
 29 70  1  0  0  0  0
 30 63  1  0  0  0  0
 30 66  1  0  0  0  0
 31 61  2  0  0  0  0
 31 62  1  0  0  0  0
 31 67  1  0  0  0  0
 32 68  1  0  0  0  0
 32 74  2  0  0  0  0
 33 47  1  0  0  0  0
 33 71  1  0  0  0  0
 33 75  2  0  0  0  0
 34 56  1  0  0  0  0
 34 64  1  0  0  0  0
 34 76  2  0  0  0  0
 35 57  1  0  0  0  0
 35 72  1  0  0  0  0
 35 77  2  0  0  0  0
 36 65  1  0  0  0  0
 36 69  1  0  0  0  0
 36 78  2  0  0  0  0
 37 40  1  0  0  0  0
 38 47  1  0  0  0  0
 39 64  1  0  0  0  0
 40 42  1  0  0  0  0
 41 43  1  0  0  0  0
 41 44  1  0  0  0  0
 42 46  1  0  0  0  0
 43 48  1  0  0  0  0
 44 65  1  0  0  0  0
 45 48  1  0  0  0  0
 45 65  1  0  0  0  0
 46 71  1  0  0  0  0
 47 64  1  0  0  0  0
 48 63  1  0  0  0  0
 49 57  1  0  0  0  0
 50 59  1  0  0  0  0
 51 59  1  0  0  0  0
 52 59  1  0  0  0  0
 53 73  1  0  0  0  0
 54 58  1  0  0  0  0
 54 70  1  0  0  0  0
 55 58  1  0  0  0  0
 55 81  1  0  0  0  0
 56 59  1  0  0  0  0
 56 72  1  0  0  0  0
 57 73  1  0  0  0  0
 58 79  1  0  0  0  0
 60 63  1  0  0  0  0
M  CHG  1  73   1
M  ISO  4  36 100  55 101  69 100  81 101
M  END
> <Batch ID>
0199

> <Smiles>
CNC(C)C(=O)NC(C(=O)N1Cc2cc([101O:1][101CH2:1]C(O)CNc3cc([100NH:0][100C:0](=O)N4CCCC(n5nc(-c6ccc(Oc7ccc(F)cc7F)cc6)c(C(N)=O)c5N)C4)nc(N)n3)ccc2CC1C(=O)NC1CCCc2ccccc21)C(C)(C)C

> <Shape>
0.234

> <Color>
0.069

> <Negative vol penalty>
0.000

$$$$

  -OEChem-04052305473D

 81 89  0     1  0  0  0  0  0999 V2000
  -15.7329  -24.1874   22.0477 C   0  0  0  0  0  0  0  0  0  0  0  0
  -16.8975  -23.4876   22.3464 C   0  0  0  0  0  0  0  0  0  0  0  0
  -29.5275  -18.9211   24.7771 C   0  0  0  0  0  0  0  0  0  0  0  0
  -23.0732   -9.8675   19.9456 C   0  0  0  0  0  0  0  0  0  0  0  0
  -23.8327   -9.8814   22.2391 C   0  0  0  0  0  0  0  0  0  0  0  0
  -14.6489  -23.5228   21.4756 C   0  0  0  0  0  0  0  0  0  0  0  0
  -16.9786  -22.1224   22.0742 C   0  0  0  0  0  0  0  0  0  0  0  0
  -21.3624  -20.8337   19.8911 C   0  0  0  0  0  0  0  0  0  0  0  0
  -22.3296   -8.7149   20.1988 C   0  0  0  0  0  0  0  0  0  0  0  0
  -23.0890   -8.7288   22.4923 C   0  0  0  0  0  0  0  0  0  0  0  0
  -22.4791  -20.7275   20.7191 C   0  0  0  0  0  0  0  0  0  0  0  0
  -20.5161   -5.5633   20.1493 C   0  0  0  0  0  0  0  0  0  0  0  0
  -20.5798   -4.5302   19.2144 C   0  0  0  0  0  0  0  0  0  0  0  0
  -30.3586  -18.1089   24.0136 C   0  0  0  0  0  0  0  0  0  0  0  0
  -28.3196  -19.3626   24.2485 C   0  0  0  0  0  0  0  0  0  0  0  0
  -22.2173  -18.3297   20.7544 C   0  0  0  0  0  0  0  0  0  0  0  0
  -22.9646   -4.3616   19.5631 C   0  0  0  0  0  0  0  0  0  0  0  0
  -23.8248  -10.4507   20.9657 C   0  0  0  0  0  0  0  0  0  0  0  0
  -24.1661  -12.9756   20.8383 C   0  0  0  0  0  0  0  0  0  0  0  0
  -14.7202  -22.1508   21.1873 C   0  0  0  0  0  0  0  0  0  0  0  0
  -20.6572  -19.6876   19.4967 C   0  0  0  0  0  0  0  0  0  0  0  0
  -15.8941  -21.4385   21.4989 C   0  0  0  0  0  0  0  0  0  0  0  0
  -21.0936  -18.4238   19.9192 C   0  0  0  0  0  0  0  0  0  0  0  0
  -22.3374   -8.1456   21.4721 C   0  0  0  0  0  0  0  0  0  0  0  0
  -22.9050  -19.4756   21.1532 C   0  0  0  0  0  0  0  0  0  0  0  0
  -21.6767   -5.9957   20.7911 C   0  0  0  0  0  0  0  0  0  0  0  0
  -21.8040   -3.9293   18.9213 C   0  0  0  0  0  0  0  0  0  0  0  0
  -22.9009   -5.3948   20.4980 C   0  0  0  0  0  0  0  0  0  0  0  0
  -24.5937  -11.6410   20.7046 C   0  0  0  0  0  0  0  0  0  0  0  0
  -29.9393  -17.7693   22.7374 C   0  0  0  0  0  0  0  0  0  0  0  0
  -27.9917  -18.9670   22.9618 C   0  0  0  0  0  0  0  0  0  0  0  0
  -25.2582  -13.7242   20.4731 C   0  0  0  0  0  0  0  0  0  0  0  0
  -22.8955  -13.4923   21.2555 C   0  0  0  0  0  0  0  0  0  0  0  0
  -17.6896  -18.6266   19.9109 C   0  0  0  0  0  0  0  0  0  0  0  0
  -18.6600  -16.2852   17.8864 C   0  0  0  0  0  0  0  0  0  0  0  0
  -21.2407  -14.4939   16.5530 C   0  0  0  0  0  0  0  0  0  0  0  0
  -30.7417  -14.7450   20.6595 C   0  0  0  0  0  0  0  0  0  0  0  0
  -13.5058  -21.4658   20.6123 C   0  0  0  0  0  0  0  0  0  0  0  0
  -19.4705  -19.8170   18.5815 C   0  0  0  0  0  0  0  0  0  0  0  0
  -20.3833  -17.1611   19.5077 C   0  0  0  0  0  0  0  0  0  0  0  0
  -13.8072  -20.0959   20.0100 C   0  0  0  0  0  0  0  0  0  0  0  0
  -29.6051  -12.3533   18.2795 C   0  0  0  0  0  0  0  0  0  0  0  0
  -14.6786  -19.2765   20.9566 C   0  0  0  0  0  0  0  0  0  0  0  0
  -28.1676  -12.0605   18.7130 C   0  0  0  0  0  0  0  0  0  0  0  0
  -30.5219  -12.5778   19.4799 C   0  0  0  0  0  0  0  0  0  0  0  0
  -28.6197  -13.3126   20.8640 C   0  0  0  0  0  0  0  0  0  0  0  0
  -16.0293  -19.9621   21.1956 C   0  0  1  0  0  0  0  0  0  0  0  0
  -18.5224  -18.6244   18.6602 C   0  0  1  0  0  0  0  0  0  0  0  0
  -27.6458  -13.1343   19.6867 C   0  0  2  0  0  0  0  0  0  0  0  0
  -21.7189  -12.6213   14.9523 C   0  0  0  0  0  0  0  0  0  0  0  0
  -17.7245  -14.2655   19.9734 C   0  0  0  0  0  0  0  0  0  0  0  0
  -19.0614  -12.5175   18.7796 C   0  0  0  0  0  0  0  0  0  0  0  0
  -17.1740  -13.6557   17.6113 C   0  0  0  0  0  0  0  0  0  0  0  0
  -22.8502  -16.2507   14.7973 C   0  0  0  0  0  0  0  0  0  0  0  0
  -30.8068  -16.8992   21.8901 C   0  0  0  0  0  0  0  0  0  0  0  0
  -25.8687  -20.2596   23.1801 C   0  0  0  0  0  0  0  0  0  0  0  0
  -24.6531  -20.5812   22.3269 C   0  0  0  0  0  0  0  0  0  1  0  0
  -19.3114  -14.9331   18.0493 C   0  0  1  0  0  0  0  0  0  0  0  0
  -21.5766  -14.1262   15.1189 C   0  0  2  0  0  0  0  0  0  0  0  0
  -18.3303  -13.8667   18.6129 C   0  0  0  0  0  0  0  0  0  0  0  0
  -25.8587  -11.5442   20.2869 N   0  0  0  0  0  0  0  0  0  0  0  0
  -28.7731  -18.1789   22.1898 N   0  0  0  0  0  0  0  0  0  0  0  0
  -26.2353  -12.8275   20.1548 N   0  0  0  0  0  0  0  0  0  0  0  0
  -19.2247  -17.3402   18.6172 N   0  0  0  0  0  0  0  0  0  0  0  0
  -29.9710  -13.6088   20.3628 N   0  0  0  0  0  0  0  0  0  0  0  0
  -25.4683  -15.0555   20.3962 N   0  0  0  0  0  0  0  0  0  0  0  0
  -21.8837  -12.5839   21.5952 N   0  0  0  0  0  0  0  0  0  0  0  0
  -26.7852  -19.4147   22.4494 N   0  0  0  0  0  0  0  0  0  0  0  0
  -16.9080  -19.7557   20.0644 N   0  0  0  0  0  0  0  0  0  0  0  0
  -19.8796  -14.5944   16.7490 N   0  0  0  0  0  0  0  0  0  0  0  0
  -30.1422  -15.6762   21.4987 N   0  0  0  0  0  0  0  0  0  0  0  0
  -22.8567  -14.7679   14.7059 N   0  3  0  0  0  0  0  0  0  0  0  0
  -22.6589  -14.7231   21.3092 O   0  0  0  0  0  0  0  0  0  0  0  0
  -17.7505  -17.6737   20.6790 O   0  0  0  0  0  0  0  0  0  0  0  0
  -17.6905  -16.4025   17.1328 O   0  0  0  0  0  0  0  0  0  0  0  0
  -22.0998  -14.6704   17.4140 O   0  0  0  0  0  0  0  0  0  0  0  0
  -31.8777  -14.9194   20.2056 O   0  0  0  0  0  0  0  0  0  0  0  0
  -21.6117   -7.0210   21.7196 O   0  0  0  0  0  0  0  0  0  0  0  0
  -23.9942  -19.3692   21.9620 O   0  0  0  0  0  0  0  0  0  1  0  0
  -21.8648   -2.9361   18.0246 F   0  0  0  0  0  0  0  0  0  0  0  0
  -24.0190   -5.8051   21.1122 F   0  0  0  0  0  0  0  0  0  0  0  0
  1  2  1  0  0  0  0
  1  6  2  0  0  0  0
  2  7  2  0  0  0  0
  3 14  1  0  0  0  0
  3 15  2  0  0  0  0
  4  9  2  0  0  0  0
  4 18  1  0  0  0  0
  5 10  1  0  0  0  0
  5 18  2  0  0  0  0
  6 20  1  0  0  0  0
  7 22  1  0  0  0  0
  8 11  2  0  0  0  0
  8 21  1  0  0  0  0
  9 24  1  0  0  0  0
 10 24  2  0  0  0  0
 11 25  1  0  0  0  0
 12 13  2  0  0  0  0
 12 26  1  0  0  0  0
 13 27  1  0  0  0  0
 14 30  2  0  0  0  0
 15 31  1  0  0  0  0
 16 23  1  0  0  0  0
 16 25  2  0  0  0  0
 17 27  2  0  0  0  0
 17 28  1  0  0  0  0
 18 29  1  0  0  0  0
 19 29  1  0  0  0  0
 19 32  2  0  0  0  0
 19 33  1  0  0  0  0
 20 22  2  0  0  0  0
 20 38  1  0  0  0  0
 21 23  2  0  0  0  0
 21 39  1  0  0  0  0
 22 47  1  0  0  0  0
 23 40  1  0  0  0  0
 24 78  1  0  0  0  0
 25 79  1  0  0  0  0
 26 28  2  0  0  0  0
 26 78  1  0  0  0  0
 27 80  1  0  0  0  0
 28 81  1  0  0  0  0
 29 61  2  0  0  0  0
 30 55  1  0  0  0  0
 30 62  1  0  0  0  0
 31 62  2  0  0  0  0
 31 68  1  0  0  0  0
 32 63  1  0  0  0  0
 32 66  1  0  0  0  0
 33 67  1  0  0  0  0
 33 73  2  0  0  0  0
 34 48  1  0  0  0  0
 34 69  1  0  0  0  0
 34 74  2  0  0  0  0
 35 58  1  0  0  0  0
 35 64  1  0  0  0  0
 35 75  2  0  0  0  0
 36 59  1  0  0  0  0
 36 70  1  0  0  0  0
 36 76  2  0  0  0  0
 37 65  1  0  0  0  0
 37 71  1  0  0  0  0
 37 77  2  0  0  0  0
 38 41  1  0  0  0  0
 39 48  1  0  0  0  0
 40 64  1  0  0  0  0
 41 43  1  0  0  0  0
 42 44  1  0  0  0  0
 42 45  1  0  0  0  0
 43 47  1  0  0  0  0
 44 49  1  0  0  0  0
 45 65  1  0  0  0  0
 46 49  1  0  0  0  0
 46 65  1  0  0  0  0
 47 69  1  0  0  0  0
 48 64  1  0  0  0  0
 49 63  1  0  0  0  0
 50 59  1  0  0  0  0
 51 60  1  0  0  0  0
 52 60  1  0  0  0  0
 53 60  1  0  0  0  0
 54 72  1  0  0  0  0
 55 71  1  0  0  0  0
 56 57  1  0  0  0  0
 56 68  1  0  0  0  0
 57 79  1  0  0  0  0
 58 60  1  0  0  0  0
 58 70  1  0  0  0  0
 59 72  1  0  0  0  0
 61 63  1  0  0  0  0
M  CHG  1  72   1
M  ISO  4  37 100  57 101  71 100  79 101
M  END
> <Batch ID>
0199

> <Smiles>
CNC(C)C(=O)NC(C(=O)N1Cc2cc([101O:1][101CH2:1]CNc3cccc(C[100NH:0][100C:0](=O)N4CCCC(n5nc(-c6ccc(Oc7ccc(F)cc7F)cc6)c(C(N)=O)c5N)C4)n3)ccc2CC1C(=O)NC1CCCc2ccccc21)C(C)(C)C

> <Shape>
0.154

> <Color>
0.191

> <Negative vol penalty>
0.000

$$$$

  -OEChem-04052305473D

 83 91  0     1  0  0  0  0  0999 V2000
  -20.3457  -32.3248   20.7260 C   0  0  0  0  0  0  0  0  0  0  0  0
  -21.5833  -31.7129   20.8971 C   0  0  0  0  0  0  0  0  0  0  0  0
  -26.3870  -12.6870   21.5972 C   0  0  0  0  0  0  0  0  0  0  0  0
  -25.8467  -13.5903   19.4226 C   0  0  0  0  0  0  0  0  0  0  0  0
  -19.1845  -31.6747   21.1419 C   0  0  0  0  0  0  0  0  0  0  0  0
  -21.6606  -30.4510   21.4853 C   0  0  0  0  0  0  0  0  0  0  0  0
  -24.7928  -27.3398   19.0044 C   0  0  0  0  0  0  0  0  0  0  0  0
  -25.1649  -12.0151   21.6218 C   0  0  0  0  0  0  0  0  0  0  0  0
  -24.6246  -12.9184   19.4471 C   0  0  0  0  0  0  0  0  0  0  0  0
  -26.1602  -27.5131   19.2138 C   0  0  0  0  0  0  0  0  0  0  0  0
  -23.8394   -9.2057   20.2865 C   0  0  0  0  0  0  0  0  0  0  0  0
  -23.8400   -7.8741   20.7018 C   0  0  0  0  0  0  0  0  0  0  0  0
  -26.1506  -25.6663   20.7657 C   0  0  0  0  0  0  0  0  0  0  0  0
  -22.3439   -8.4385   22.5130 C   0  0  0  0  0  0  0  0  0  0  0  0
  -28.4451  -21.0955   17.1642 C   0  0  0  0  0  0  0  0  0  0  0  0
  -26.7279  -13.4746   20.4976 C   0  0  0  0  0  0  0  0  0  0  0  0
  -29.2141  -13.6899   19.9684 C   0  0  0  0  0  0  0  0  0  0  0  0
  -19.2467  -30.4000   21.7267 C   0  0  0  0  0  0  0  0  0  0  0  0
  -24.0907  -26.3337   19.6835 C   0  0  0  0  0  0  0  0  0  0  0  0
  -20.4993  -29.7838   21.9107 C   0  0  0  0  0  0  0  0  0  0  0  0
  -24.7748  -25.4806   20.5612 C   0  0  0  0  0  0  0  0  0  0  0  0
  -24.2837  -12.1308   20.5468 C   0  0  0  0  0  0  0  0  0  0  0  0
  -26.8388  -26.6782   20.0967 C   0  0  0  0  0  0  0  0  0  0  0  0
  -23.0912  -10.1537   20.9844 C   0  0  0  0  0  0  0  0  0  0  0  0
  -23.0922   -7.4905   21.8150 C   0  0  0  0  0  0  0  0  0  0  0  0
  -22.3434   -9.7701   22.0977 C   0  0  0  0  0  0  0  0  0  0  0  0
  -27.9900  -14.1693   20.4719 C   0  0  0  0  0  0  0  0  0  0  0  0
  -28.4506  -22.0822   16.1995 C   0  0  0  0  0  0  0  0  0  0  0  0
  -28.9461  -21.4625   18.3964 C   0  0  0  0  0  0  0  0  0  0  0  0
  -30.0980  -14.7205   20.1760 C   0  0  0  0  0  0  0  0  0  0  0  0
  -29.3699  -23.5685   17.6531 C   0  0  0  0  0  0  0  0  0  0  0  0
  -29.5245  -12.4260   19.3668 C   0  0  0  0  0  0  0  0  0  0  0  0
  -21.6878  -26.2883   21.7640 C   0  0  0  0  0  0  0  0  0  0  0  0
  -21.9061  -23.0781   21.3528 C   0  0  0  0  0  0  0  0  0  0  0  0
  -23.8203  -20.3935   20.4721 C   0  0  0  0  0  0  0  0  0  0  0  0
  -29.4193  -20.6316   20.7271 C   0  0  0  0  0  0  0  0  0  0  0  0
  -17.9686  -29.7569   22.2036 C   0  0  0  0  0  0  0  0  0  0  0  0
  -22.6210  -26.1426   19.4265 C   0  0  0  0  0  0  0  0  0  0  0  0
  -24.0711  -24.3724   21.2995 C   0  0  0  0  0  0  0  0  0  0  0  0
  -18.1042  -28.2611   22.4764 C   0  0  0  0  0  0  0  0  0  0  0  0
  -30.9071  -18.4290   23.0961 C   0  0  0  0  0  0  0  0  0  0  0  0
  -19.3641  -27.9788   23.2887 C   0  0  0  0  0  0  0  0  0  0  0  0
  -30.4443  -17.0425   22.6426 C   0  0  0  0  0  0  0  0  0  0  0  0
  -29.8206  -19.4838   22.8942 C   0  0  0  0  0  0  0  0  0  0  0  0
  -28.7989  -18.1612   21.0843 C   0  0  0  0  0  0  0  0  0  0  0  0
  -20.6219  -28.4049   22.5220 C   0  0  1  0  0  0  0  0  0  0  0  0
  -21.9057  -25.4152   20.5607 C   0  0  1  0  0  0  0  0  0  0  0  0
  -29.8823  -17.0774   21.2078 C   0  0  2  0  0  0  0  0  0  0  0  0
  -23.7344  -17.8935   20.2726 C   0  0  0  0  0  0  0  0  0  0  0  0
  -31.7982  -24.7282   19.3286 C   0  0  0  0  0  0  0  0  0  0  0  0
  -22.1297  -22.8308   24.3858 C   0  0  0  0  0  0  0  0  0  0  0  0
  -22.9795  -20.4980   24.0631 C   0  0  0  0  0  0  0  0  0  0  0  0
  -20.6822  -21.1031   23.3022 C   0  0  0  0  0  0  0  0  0  0  0  0
  -24.3679  -20.4906   17.5652 C   0  0  0  0  0  0  0  0  0  0  0  0
  -30.3495  -26.7886   19.2914 C   0  0  0  0  0  0  0  0  0  0  0  0
  -28.9389  -27.3642   19.2164 C   0  0  0  0  0  0  0  0  0  1  0  0
  -22.6811  -21.9655   22.0166 C   0  0  1  0  0  0  0  0  0  0  0  0
  -23.5448  -19.2187   19.5511 C   0  0  2  0  0  0  0  0  0  0  0  0
  -30.3757  -25.2605   19.1864 C   0  0  1  0  0  0  0  0  0  0  0  0
  -22.1313  -21.6214   23.4296 C   0  0  0  0  0  0  0  0  0  0  0  0
  -28.0839  -15.4080   20.9625 N   0  0  0  0  0  0  0  0  0  0  0  0
  -28.9072  -23.3342   16.4103 N   0  0  0  0  0  0  0  0  0  0  0  0
  -29.4187  -22.6948   18.6768 N   0  0  0  0  0  0  0  0  0  0  0  0
  -29.3776  -15.7157   20.7684 N   0  0  0  0  0  0  0  0  0  0  0  0
  -22.6328  -24.2298   21.0193 N   0  0  0  0  0  0  0  0  0  0  0  0
  -29.3392  -19.4614   21.5113 N   0  0  0  0  0  0  0  0  0  0  0  0
  -27.9441  -21.7466   14.9199 N   0  0  0  0  0  0  0  0  0  0  0  0
  -31.4133  -14.8635   19.9078 N   0  0  0  0  0  0  0  0  0  0  0  0
  -28.4984  -11.4811   19.2301 N   0  0  0  0  0  0  0  0  0  0  0  0
  -28.9617  -20.4812   19.4185 N   0  0  0  0  0  0  0  0  0  0  0  0
  -29.8458  -24.8427   17.9052 N   0  0  0  0  0  0  0  0  0  0  0  0
  -20.9499  -27.4278   21.5061 N   0  0  0  0  0  0  0  0  0  0  0  0
  -22.6691  -20.8455   21.0817 N   0  0  0  0  0  0  0  0  0  0  0  0
  -24.4653  -19.2519   18.3795 N   0  3  0  0  0  0  0  0  0  0  0  0
  -30.6813  -12.1367   18.9774 O   0  0  0  0  0  0  0  0  0  0  0  0
  -22.1535  -25.9523   22.8465 O   0  0  0  0  0  0  0  0  0  0  0  0
  -20.7019  -22.9279   21.1318 O   0  0  0  0  0  0  0  0  0  0  0  0
  -24.9450  -20.8609   20.6373 O   0  0  0  0  0  0  0  0  0  0  0  0
  -29.8866  -21.6820   21.1747 O   0  0  0  0  0  0  0  0  0  0  0  0
  -23.0911  -11.4752   20.5704 O   0  0  0  0  0  0  0  0  0  0  0  0
  -28.1734  -26.8457   20.3033 O   0  0  0  0  0  0  0  0  0  1  0  0
  -23.0915   -6.2115   22.2128 F   0  0  0  0  0  0  0  0  0  0  0  0
  -21.6217  -10.6761   22.7715 F   0  0  0  0  0  0  0  0  0  0  0  0
  1  2  1  0  0  0  0
  1  5  2  0  0  0  0
  2  6  2  0  0  0  0
  3  8  2  0  0  0  0
  3 16  1  0  0  0  0
  4  9  1  0  0  0  0
  4 16  2  0  0  0  0
  5 18  1  0  0  0  0
  6 20  1  0  0  0  0
  7 10  2  0  0  0  0
  7 19  1  0  0  0  0
  8 22  1  0  0  0  0
  9 22  2  0  0  0  0
 10 23  1  0  0  0  0
 11 12  2  0  0  0  0
 11 24  1  0  0  0  0
 12 25  1  0  0  0  0
 13 21  1  0  0  0  0
 13 23  2  0  0  0  0
 14 25  2  0  0  0  0
 14 26  1  0  0  0  0
 15 28  1  0  0  0  0
 15 29  2  0  0  0  0
 16 27  1  0  0  0  0
 17 27  1  0  0  0  0
 17 30  2  0  0  0  0
 17 32  1  0  0  0  0
 18 20  2  0  0  0  0
 18 37  1  0  0  0  0
 19 21  2  0  0  0  0
 19 38  1  0  0  0  0
 20 46  1  0  0  0  0
 21 39  1  0  0  0  0
 22 80  1  0  0  0  0
 23 81  1  0  0  0  0
 24 26  2  0  0  0  0
 24 80  1  0  0  0  0
 25 82  1  0  0  0  0
 26 83  1  0  0  0  0
 27 61  2  0  0  0  0
 28 62  2  0  0  0  0
 28 67  1  0  0  0  0
 29 63  1  0  0  0  0
 29 70  1  0  0  0  0
 30 64  1  0  0  0  0
 30 68  1  0  0  0  0
 31 62  1  0  0  0  0
 31 63  2  0  0  0  0
 31 71  1  0  0  0  0
 32 69  1  0  0  0  0
 32 75  2  0  0  0  0
 33 47  1  0  0  0  0
 33 72  1  0  0  0  0
 33 76  2  0  0  0  0
 34 57  1  0  0  0  0
 34 65  1  0  0  0  0
 34 77  2  0  0  0  0
 35 58  1  0  0  0  0
 35 73  1  0  0  0  0
 35 78  2  0  0  0  0
 36 66  1  0  0  0  0
 36 70  1  0  0  0  0
 36 79  2  0  0  0  0
 37 40  1  0  0  0  0
 38 47  1  0  0  0  0
 39 65  1  0  0  0  0
 40 42  1  0  0  0  0
 41 43  1  0  0  0  0
 41 44  1  0  0  0  0
 42 46  1  0  0  0  0
 43 48  1  0  0  0  0
 44 66  1  0  0  0  0
 45 48  1  0  0  0  0
 45 66  1  0  0  0  0
 46 72  1  0  0  0  0
 47 65  1  0  0  0  0
 48 64  1  0  0  0  0
 49 58  1  0  0  0  0
 50 59  1  0  0  0  0
 51 60  1  0  0  0  0
 52 60  1  0  0  0  0
 53 60  1  0  0  0  0
 54 74  1  0  0  0  0
 55 56  1  0  0  0  0
 55 59  1  0  0  0  0
 56 81  1  0  0  0  0
 57 60  1  0  0  0  0
 57 73  1  0  0  0  0
 58 74  1  0  0  0  0
 59 71  1  0  0  0  0
 61 64  1  0  0  0  0
M  CHG  1  74   1
M  ISO  4  36 100  56 101  70 100  81 101
M  END
> <Batch ID>
0199

> <Smiles>
CNC(C)C(=O)NC(C(=O)N1Cc2cc([101O:1][101CH2:1]CC(C)Nc3nc(N)cc([100NH:0][100C:0](=O)N4CCCC(n5nc(-c6ccc(Oc7ccc(F)cc7F)cc6)c(C(N)=O)c5N)C4)n3)ccc2CC1C(=O)NC1CCCc2ccccc21)C(C)(C)C

> <Shape>
0.273

> <Color>
0.080

> <Negative vol penalty>
0.000

$$$$

  -OEChem-04052305473D

 83 91  0     1  0  0  0  0  0999 V2000
  -15.7233  -27.2035   22.3086 C   0  0  0  0  0  0  0  0  0  0  0  0
  -16.2531  -26.4366   21.2759 C   0  0  0  0  0  0  0  0  0  0  0  0
  -24.6745   -8.5307   21.1648 C   0  0  0  0  0  0  0  0  0  0  0  0
  -22.9561  -10.2133   20.9344 C   0  0  0  0  0  0  0  0  0  0  0  0
  -16.5643  -27.9945   23.0902 C   0  0  0  0  0  0  0  0  0  0  0  0
  -17.6243  -26.4611   21.0235 C   0  0  0  0  0  0  0  0  0  0  0  0
  -22.9539  -22.2616   18.7266 C   0  0  0  0  0  0  0  0  0  0  0  0
  -23.6943   -7.5523   21.3306 C   0  0  0  0  0  0  0  0  0  0  0  0
  -21.9759   -9.2348   21.1001 C   0  0  0  0  0  0  0  0  0  0  0  0
  -23.9795  -22.2424   17.7823 C   0  0  0  0  0  0  0  0  0  0  0  0
  -21.6486   -4.6665   22.1736 C   0  0  0  0  0  0  0  0  0  0  0  0
  -21.8269   -3.7344   23.1959 C   0  0  0  0  0  0  0  0  0  0  0  0
  -25.3462  -23.5851   19.2480 C   0  0  0  0  0  0  0  0  0  0  0  0
  -21.8399   -5.5208   24.8224 C   0  0  0  0  0  0  0  0  0  0  0  0
  -29.4944  -20.3264   21.1053 C   0  0  0  0  0  0  0  0  0  0  0  0
  -24.3054   -9.8612   20.9667 C   0  0  0  0  0  0  0  0  0  0  0  0
  -25.8972  -11.2992   19.5862 C   0  0  0  0  0  0  0  0  0  0  0  0
  -17.9477  -28.0213   22.8534 C   0  0  0  0  0  0  0  0  0  0  0  0
  -23.1131  -22.9531   19.9361 C   0  0  0  0  0  0  0  0  0  0  0  0
  -18.4844  -27.2542   21.8017 C   0  0  0  0  0  0  0  0  0  0  0  0
  -24.3221  -23.6095   20.2071 C   0  0  0  0  0  0  0  0  0  0  0  0
  -28.0151  -18.5872   19.6922 C   0  0  0  0  0  0  0  0  0  0  0  0
  -22.3450   -7.9043   21.2983 C   0  0  0  0  0  0  0  0  0  0  0  0
  -25.1747  -22.9066   18.0417 C   0  0  0  0  0  0  0  0  0  0  0  0
  -21.5660   -6.0258   22.4757 C   0  0  0  0  0  0  0  0  0  0  0  0
  -21.9225   -4.1615   24.5203 C   0  0  0  0  0  0  0  0  0  0  0  0
  -21.6616   -6.4529   23.8001 C   0  0  0  0  0  0  0  0  0  0  0  0
  -25.3175  -10.8725   20.7960 C   0  0  0  0  0  0  0  0  0  0  0  0
  -28.3552  -18.3616   21.0104 C   0  0  0  0  0  0  0  0  0  0  0  0
  -28.4847  -19.7650   19.1476 C   0  0  0  0  0  0  0  0  0  0  0  0
  -26.7955  -12.2690   19.9592 C   0  0  0  0  0  0  0  0  0  0  0  0
  -25.6462  -10.8585   18.2451 C   0  0  0  0  0  0  0  0  0  0  0  0
  -21.6506  -25.4103   21.3244 C   0  0  0  0  0  0  0  0  0  0  0  0
  -23.5917  -24.6577   23.8121 C   0  0  0  0  0  0  0  0  0  0  0  0
  -26.4798  -23.1971   24.8945 C   0  0  0  0  0  0  0  0  0  0  0  0
  -28.1447  -16.7677   22.9499 C   0  0  0  0  0  0  0  0  0  0  0  0
  -18.8108  -28.9282   23.6944 C   0  0  0  0  0  0  0  0  0  0  0  0
  -22.0073  -22.9419   20.9557 C   0  0  0  0  0  0  0  0  0  0  0  0
  -24.5507  -24.3493   21.4989 C   0  0  0  0  0  0  0  0  0  0  0  0
  -20.3007  -28.6093   23.6017 C   0  0  0  0  0  0  0  0  0  0  0  0
  -28.4936  -13.6002   24.5381 C   0  0  0  0  0  0  0  0  0  0  0  0
  -20.7156  -28.4156   22.1466 C   0  0  0  0  0  0  0  0  0  0  0  0
  -27.7461  -12.6433   23.6066 C   0  0  0  0  0  0  0  0  0  0  0  0
  -27.8061  -14.9617   24.6229 C   0  0  0  0  0  0  0  0  0  0  0  0
  -26.7949  -14.6488   22.3983 C   0  0  0  0  0  0  0  0  0  0  0  0
  -19.9698  -27.2351   21.5128 C   0  0  1  0  0  0  0  0  0  0  0  0
  -22.0862  -24.1085   21.9355 C   0  0  1  0  0  0  0  0  0  0  0  0
  -27.4855  -13.2856   22.2300 C   0  0  2  0  0  0  0  0  0  0  0  0
  -27.8128  -22.7744   26.9783 C   0  0  0  0  0  0  0  0  0  0  0  0
  -30.0752  -21.0905   16.7472 C   0  0  0  0  0  0  0  0  0  0  0  0
  -24.5171  -27.5652   23.8070 C   0  0  0  0  0  0  0  0  0  0  0  0
  -26.4705  -26.8731   25.2117 C   0  0  0  0  0  0  0  0  0  0  0  0
  -24.1494  -26.5915   26.0810 C   0  0  0  0  0  0  0  0  0  0  0  0
  -26.2772  -20.2626   24.5681 C   0  0  0  0  0  0  0  0  0  0  0  0
  -27.7323  -21.5093   15.9221 C   0  0  0  0  0  0  0  0  0  0  0  0
  -26.2677  -21.7405   16.2806 C   0  0  0  0  0  0  0  0  0  1  0  0
  -24.9796  -25.0633   24.2459 C   0  0  1  0  0  0  0  0  0  0  0  0
  -26.7546  -22.2296   26.0316 C   0  0  2  0  0  0  0  0  0  0  0  0
  -28.6128  -21.2537   17.1494 C   0  0  1  0  0  0  0  0  0  0  0  0
  -25.0244  -26.5110   24.8111 C   0  0  0  0  0  0  0  0  0  0  0  0
  -29.0962  -19.2129   21.7497 N   0  0  0  0  0  0  0  0  0  0  0  0
  -29.2296  -20.6609   19.8280 N   0  0  0  0  0  0  0  0  0  0  0  0
  -25.8065  -11.5181   21.8581 N   0  0  0  0  0  0  0  0  0  0  0  0
  -26.7031  -12.3603   21.3169 N   0  0  0  0  0  0  0  0  0  0  0  0
  -23.4372  -24.3146   22.4614 N   0  0  0  0  0  0  0  0  0  0  0  0
  -27.5957  -15.5109   23.2816 N   0  0  0  0  0  0  0  0  0  0  0  0
  -27.2431  -17.6766   18.9526 N   0  0  0  0  0  0  0  0  0  0  0  0
  -27.6477  -13.0438   19.2550 N   0  0  0  0  0  0  0  0  0  0  0  0
  -24.6909   -9.8536   18.0399 N   0  0  0  0  0  0  0  0  0  0  0  0
  -27.9071  -17.1721   21.6367 N   0  0  0  0  0  0  0  0  0  0  0  0
  -28.1777  -20.0516   17.8296 N   0  0  0  0  0  0  0  0  0  0  0  0
  -20.5528  -25.9811   21.9394 N   0  0  0  0  0  0  0  0  0  0  0  0
  -25.4288  -24.0411   25.1848 N   0  0  0  0  0  0  0  0  0  0  0  0
  -27.2309  -20.9229   25.4962 N   0  3  0  0  0  0  0  0  0  0  0  0
  -26.2628  -11.3298   17.2597 O   0  0  0  0  0  0  0  0  0  0  0  0
  -22.2661  -25.8640   20.3667 O   0  0  0  0  0  0  0  0  0  0  0  0
  -22.6798  -24.6390   24.6426 O   0  0  0  0  0  0  0  0  0  0  0  0
  -27.1346  -23.2059   23.8545 O   0  0  0  0  0  0  0  0  0  0  0  0
  -28.8020  -17.4235   23.7621 O   0  0  0  0  0  0  0  0  0  0  0  0
  -21.3883   -6.9498   21.4598 O   0  0  0  0  0  0  0  0  0  0  0  0
  -26.1771  -22.8899   17.1214 O   0  0  0  0  0  0  0  0  0  1  0  0
  -22.0922   -3.2662   25.5020 F   0  0  0  0  0  0  0  0  0  0  0  0
  -21.5818   -7.7573   24.0967 F   0  0  0  0  0  0  0  0  0  0  0  0
  1  2  1  0  0  0  0
  1  5  2  0  0  0  0
  2  6  2  0  0  0  0
  3  8  2  0  0  0  0
  3 16  1  0  0  0  0
  4  9  1  0  0  0  0
  4 16  2  0  0  0  0
  5 18  1  0  0  0  0
  6 20  1  0  0  0  0
  7 10  2  0  0  0  0
  7 19  1  0  0  0  0
  8 23  1  0  0  0  0
  9 23  2  0  0  0  0
 10 24  1  0  0  0  0
 11 12  2  0  0  0  0
 11 25  1  0  0  0  0
 12 26  1  0  0  0  0
 13 21  1  0  0  0  0
 13 24  2  0  0  0  0
 14 26  2  0  0  0  0
 14 27  1  0  0  0  0
 15 61  1  0  0  0  0
 15 62  2  0  0  0  0
 16 28  1  0  0  0  0
 17 28  1  0  0  0  0
 17 31  2  0  0  0  0
 17 32  1  0  0  0  0
 18 20  2  0  0  0  0
 18 37  1  0  0  0  0
 19 21  2  0  0  0  0
 19 38  1  0  0  0  0
 20 46  1  0  0  0  0
 21 39  1  0  0  0  0
 22 29  1  0  0  0  0
 22 30  2  0  0  0  0
 22 67  1  0  0  0  0
 23 80  1  0  0  0  0
 24 81  1  0  0  0  0
 25 27  2  0  0  0  0
 25 80  1  0  0  0  0
 26 82  1  0  0  0  0
 27 83  1  0  0  0  0
 28 63  2  0  0  0  0
 29 61  2  0  0  0  0
 29 70  1  0  0  0  0
 30 62  1  0  0  0  0
 30 71  1  0  0  0  0
 31 64  1  0  0  0  0
 31 68  1  0  0  0  0
 32 69  1  0  0  0  0
 32 75  2  0  0  0  0
 33 47  1  0  0  0  0
 33 72  1  0  0  0  0
 33 76  2  0  0  0  0
 34 57  1  0  0  0  0
 34 65  1  0  0  0  0
 34 77  2  0  0  0  0
 35 58  1  0  0  0  0
 35 73  1  0  0  0  0
 35 78  2  0  0  0  0
 36 66  1  0  0  0  0
 36 70  1  0  0  0  0
 36 79  2  0  0  0  0
 37 40  1  0  0  0  0
 38 47  1  0  0  0  0
 39 65  1  0  0  0  0
 40 42  1  0  0  0  0
 41 43  1  0  0  0  0
 41 44  1  0  0  0  0
 42 46  1  0  0  0  0
 43 48  1  0  0  0  0
 44 66  1  0  0  0  0
 45 48  1  0  0  0  0
 45 66  1  0  0  0  0
 46 72  1  0  0  0  0
 47 65  1  0  0  0  0
 48 64  1  0  0  0  0
 49 58  1  0  0  0  0
 50 59  1  0  0  0  0
 51 60  1  0  0  0  0
 52 60  1  0  0  0  0
 53 60  1  0  0  0  0
 54 74  1  0  0  0  0
 55 56  1  0  0  0  0
 55 59  1  0  0  0  0
 56 81  1  0  0  0  0
 57 60  1  0  0  0  0
 57 73  1  0  0  0  0
 58 74  1  0  0  0  0
 59 71  1  0  0  0  0
 63 64  1  0  0  0  0
M  CHG  1  74   1
M  ISO  4  36 100  56 101  70 100  81 101
M  END
> <Batch ID>
0199

> <Smiles>
CNC(C)C(=O)NC(C(=O)N1Cc2cc([101O:1][101CH2:1]CC(C)Nc3ncnc([100NH:0][100C:0](=O)N4CCCC(n5nc(-c6ccc(Oc7ccc(F)cc7F)cc6)c(C(N)=O)c5N)C4)c3N)ccc2CC1C(=O)NC1CCCc2ccccc21)C(C)(C)C

> <Shape>
0.203

> <Color>
0.090

> <Negative vol penalty>
0.000

$$$$

  -OEChem-04052305473D

 83 91  0     1  0  0  0  0  0999 V2000
  -24.3803  -21.3434   18.9585 C   0  0  0  0  0  0  0  0  0  0  0  0
  -25.7502  -21.5815   18.9130 C   0  0  0  0  0  0  0  0  0  0  0  0
  -23.0096   -9.9351   19.9267 C   0  0  0  0  0  0  0  0  0  0  0  0
  -23.8066   -9.8511   22.2060 C   0  0  0  0  0  0  0  0  0  0  0  0
  -23.4929  -22.4096   19.0987 C   0  0  0  0  0  0  0  0  0  0  0  0
  -26.2335  -22.8861   19.0065 C   0  0  0  0  0  0  0  0  0  0  0  0
  -30.1801  -23.2748   22.1559 C   0  0  0  0  0  0  0  0  0  0  0  0
  -22.2333   -8.7992   20.1563 C   0  0  0  0  0  0  0  0  0  0  0  0
  -23.0302   -8.7152   22.4355 C   0  0  0  0  0  0  0  0  0  0  0  0
  -31.4208  -22.8572   21.6764 C   0  0  0  0  0  0  0  0  0  0  0  0
  -19.7884   -8.0025   23.0704 C   0  0  0  0  0  0  0  0  0  0  0  0
  -19.0497   -7.9523   24.2525 C   0  0  0  0  0  0  0  0  0  0  0  0
  -32.0173  -25.1532   21.2380 C   0  0  0  0  0  0  0  0  0  0  0  0
  -32.0000  -17.2860   21.7631 C   0  0  0  0  0  0  0  0  0  0  0  0
  -20.2402   -5.9559   24.9116 C   0  0  0  0  0  0  0  0  0  0  0  0
  -31.0140  -18.8341   23.1891 C   0  0  0  0  0  0  0  0  0  0  0  0
  -23.7963  -10.4611   20.9516 C   0  0  0  0  0  0  0  0  0  0  0  0
  -24.2169  -12.9766   20.8982 C   0  0  0  0  0  0  0  0  0  0  0  0
  -23.9660  -23.7271   19.2037 C   0  0  0  0  0  0  0  0  0  0  0  0
  -29.8438  -24.6361   22.1699 C   0  0  0  0  0  0  0  0  0  0  0  0
  -25.3515  -23.9711   19.1469 C   0  0  0  0  0  0  0  0  0  0  0  0
  -30.7726  -25.5856   21.7205 C   0  0  0  0  0  0  0  0  0  0  0  0
  -32.1395  -18.5215   22.4590 C   0  0  0  0  0  0  0  0  0  0  0  0
  -22.2436   -8.1893   21.4107 C   0  0  0  0  0  0  0  0  0  0  0  0
  -32.3386  -23.7962   21.2146 C   0  0  0  0  0  0  0  0  0  0  0  0
  -20.7529   -7.0293   22.8088 C   0  0  0  0  0  0  0  0  0  0  0  0
  -19.2756   -6.9290   25.1731 C   0  0  0  0  0  0  0  0  0  0  0  0
  -20.9789   -6.0061   23.7294 C   0  0  0  0  0  0  0  0  0  0  0  0
  -24.5989  -11.6341   20.7149 C   0  0  0  0  0  0  0  0  0  0  0  0
  -25.3265  -13.7015   20.5378 C   0  0  0  0  0  0  0  0  0  0  0  0
  -30.7731  -16.7012   21.9881 C   0  0  0  0  0  0  0  0  0  0  0  0
  -22.9706  -13.5198   21.3535 C   0  0  0  0  0  0  0  0  0  0  0  0
  -27.5993  -26.4067   20.7804 C   0  0  0  0  0  0  0  0  0  0  0  0
  -28.8345  -28.7474   22.6559 C   0  0  0  0  0  0  0  0  0  0  0  0
  -31.5030  -29.9458   24.4136 C   0  0  0  0  0  0  0  0  0  0  0  0
  -30.8255  -14.5683   20.6485 C   0  0  0  0  0  0  0  0  0  0  0  0
  -22.9661  -24.8515   19.3065 C   0  0  0  0  0  0  0  0  0  0  0  0
  -28.5117  -25.0724   22.7151 C   0  0  0  0  0  0  0  0  0  0  0  0
  -30.4682  -27.0606   21.7334 C   0  0  0  0  0  0  0  0  0  0  0  0
  -23.5774  -26.1693   19.7755 C   0  0  0  0  0  0  0  0  0  0  0  0
  -29.5958  -12.2613   18.2313 C   0  0  0  0  0  0  0  0  0  0  0  0
  -24.8674  -26.4599   19.0151 C   0  0  0  0  0  0  0  0  0  0  0  0
  -28.1548  -12.0029   18.6771 C   0  0  0  0  0  0  0  0  0  0  0  0
  -30.5373  -12.4258   19.4231 C   0  0  0  0  0  0  0  0  0  0  0  0
  -28.6773  -13.1694   20.8573 C   0  0  0  0  0  0  0  0  0  0  0  0
  -25.9156  -25.3699   19.2701 C   0  0  1  0  0  0  0  0  0  0  0  0
  -28.0768  -26.4427   22.2046 C   0  0  1  0  0  0  0  0  0  0  0  0
  -27.6803  -13.0615   19.6919 C   0  0  2  0  0  0  0  0  0  0  0  0
  -32.2236  -31.9019   25.8107 C   0  0  0  0  0  0  0  0  0  0  0  0
  -36.1305  -19.8630   20.9386 C   0  0  0  0  0  0  0  0  0  0  0  0
  -33.5390  -23.3346   18.3459 C   0  0  0  0  0  0  0  0  0  0  0  0
  -29.1492  -30.4316   20.1312 C   0  0  0  0  0  0  0  0  0  0  0  0
  -30.7011  -31.9267   21.4058 C   0  0  0  0  0  0  0  0  0  0  0  0
  -28.3254  -31.6904   22.1290 C   0  0  0  0  0  0  0  0  0  0  0  0
  -31.9678  -28.2320   26.7812 C   0  0  0  0  0  0  0  0  0  0  0  0
  -33.3687  -19.3799   22.4027 C   0  0  0  0  0  0  0  0  0  0  0  0
  -34.7933  -21.6099   19.6912 C   0  0  0  0  0  0  0  0  0  0  0  0
  -29.9311  -29.7735   22.5022 C   0  0  1  0  0  0  0  0  0  0  0  0
  -31.6125  -30.5094   25.8189 C   0  0  2  0  0  0  0  0  0  0  0  0
  -34.8822  -20.7364   20.9508 C   0  0  1  0  0  0  0  0  0  0  0  0
  -33.5504  -22.5071   19.6254 C   0  0  1  0  0  0  0  0  0  1  0  0
  -29.5320  -30.9277   21.5398 C   0  0  0  0  0  0  0  0  0  0  0  0
  -25.8530  -11.5106   20.2724 N   0  0  0  0  0  0  0  0  0  0  0  0
  -26.2687  -12.7848   20.1744 N   0  0  0  0  0  0  0  0  0  0  0  0
  -29.1499  -27.4369   22.2701 N   0  0  0  0  0  0  0  0  0  0  0  0
  -30.0260  -13.4476   20.3393 N   0  0  0  0  0  0  0  0  0  0  0  0
  -25.5782  -15.0272   20.4994 N   0  0  0  0  0  0  0  0  0  0  0  0
  -21.9357  -12.6336   21.6819 N   0  0  0  0  0  0  0  0  0  0  0  0
  -30.2216  -15.4890   21.5042 N   0  0  0  0  0  0  0  0  0  0  0  0
  -26.5323  -25.5552   20.5661 N   0  0  0  0  0  0  0  0  0  0  0  0
  -30.2724  -30.2114   23.8513 N   0  0  0  0  0  0  0  0  0  0  0  0
  -32.4645  -29.6273   26.6658 N   0  3  0  0  0  0  0  0  0  0  0  0
  -33.6963  -19.8381   21.0277 N   0  3  0  0  0  0  0  0  0  0  0  0
  -22.7749  -14.7551   21.4502 O   0  0  0  0  0  0  0  0  0  0  0  0
  -28.1566  -27.1012   19.9385 O   0  0  0  0  0  0  0  0  0  0  0  0
  -27.7407  -29.0944   23.1086 O   0  0  0  0  0  0  0  0  0  0  0  0
  -32.4190  -29.3346   23.8678 O   0  0  0  0  0  0  0  0  0  0  0  0
  -31.9517  -14.7149   20.1665 O   0  0  0  0  0  0  0  0  0  0  0  0
  -21.4860   -7.0810   21.6351 O   0  0  0  0  0  0  0  0  0  0  0  0
  -33.5501  -23.3913   20.7455 O   0  0  0  0  0  0  0  0  0  1  0  0
  -18.5673   -6.8818   26.3089 F   0  0  0  0  0  0  0  0  0  0  0  0
  -21.9050   -5.0691   23.4842 F   0  0  0  0  0  0  0  0  0  0  0  0
  -29.7958  -17.6406   23.0343 S   0  0  0  0  0  0  0  0  0  0  0  0
  1  2  1  0  0  0  0
  1  5  2  0  0  0  0
  2  6  2  0  0  0  0
  3  8  2  0  0  0  0
  3 17  1  0  0  0  0
  4  9  1  0  0  0  0
  4 17  2  0  0  0  0
  5 19  1  0  0  0  0
  6 21  1  0  0  0  0
  7 10  2  0  0  0  0
  7 20  1  0  0  0  0
  8 24  1  0  0  0  0
  9 24  2  0  0  0  0
 10 25  1  0  0  0  0
 11 12  2  0  0  0  0
 11 26  1  0  0  0  0
 12 27  1  0  0  0  0
 13 22  1  0  0  0  0
 13 25  2  0  0  0  0
 14 23  1  0  0  0  0
 14 31  2  0  0  0  0
 15 27  2  0  0  0  0
 15 28  1  0  0  0  0
 16 23  2  0  0  0  0
 16 83  1  0  0  0  0
 17 29  1  0  0  0  0
 18 29  1  0  0  0  0
 18 30  2  0  0  0  0
 18 32  1  0  0  0  0
 19 21  2  0  0  0  0
 19 37  1  0  0  0  0
 20 22  2  0  0  0  0
 20 38  1  0  0  0  0
 21 46  1  0  0  0  0
 22 39  1  0  0  0  0
 23 56  1  0  0  0  0
 24 79  1  0  0  0  0
 25 80  1  0  0  0  0
 26 28  2  0  0  0  0
 26 79  1  0  0  0  0
 27 81  1  0  0  0  0
 28 82  1  0  0  0  0
 29 63  2  0  0  0  0
 30 64  1  0  0  0  0
 30 67  1  0  0  0  0
 31 69  1  0  0  0  0
 31 83  1  0  0  0  0
 32 68  1  0  0  0  0
 32 74  2  0  0  0  0
 33 47  1  0  0  0  0
 33 70  1  0  0  0  0
 33 75  2  0  0  0  0
 34 58  1  0  0  0  0
 34 65  1  0  0  0  0
 34 76  2  0  0  0  0
 35 59  1  0  0  0  0
 35 71  1  0  0  0  0
 35 77  2  0  0  0  0
 36 66  1  0  0  0  0
 36 69  1  0  0  0  0
 36 78  2  0  0  0  0
 37 40  1  0  0  0  0
 38 47  1  0  0  0  0
 39 65  1  0  0  0  0
 40 42  1  0  0  0  0
 41 43  1  0  0  0  0
 41 44  1  0  0  0  0
 42 46  1  0  0  0  0
 43 48  1  0  0  0  0
 44 66  1  0  0  0  0
 45 48  1  0  0  0  0
 45 66  1  0  0  0  0
 46 70  1  0  0  0  0
 47 65  1  0  0  0  0
 48 64  1  0  0  0  0
 49 59  1  0  0  0  0
 50 60  1  0  0  0  0
 51 61  1  0  0  0  0
 52 62  1  0  0  0  0
 53 62  1  0  0  0  0
 54 62  1  0  0  0  0
 55 72  1  0  0  0  0
 56 73  1  0  0  0  0
 57 60  1  0  0  0  0
 57 61  1  0  0  0  0
 58 62  1  0  0  0  0
 58 71  1  0  0  0  0
 59 72  1  0  0  0  0
 60 73  1  0  0  0  0
 61 80  1  0  0  0  0
 63 64  1  0  0  0  0
M  CHG  2  72   1  73   1
M  ISO  4  36 100  61 101  69 100  80 101
M  END
> <Batch ID>
0199

> <Smiles>
CNC(C)C(=O)NC(C(=O)N1Cc2cc([101O:1][101CH:1](C)CC(C)NCc3csc([100NH:0][100C:0](=O)N4CCCC(n5nc(-c6ccc(Oc7ccc(F)cc7F)cc6)c(C(N)=O)c5N)C4)c3)ccc2CC1C(=O)NC1CCCc2ccccc21)C(C)(C)C

> <Shape>
0.218

> <Color>
0.209

> <Negative vol penalty>
0.000

$$$$

  -OEChem-04052305473D

 82 90  0     1  0  0  0  0  0999 V2000
  -21.0787  -10.8454   26.4415 C   0  0  0  0  0  0  0  0  0  0  0  0
  -21.9075  -11.9250   26.1536 C   0  0  0  0  0  0  0  0  0  0  0  0
  -23.0753   -9.8656   19.9425 C   0  0  0  0  0  0  0  0  0  0  0  0
  -23.8352   -9.8758   22.2359 C   0  0  0  0  0  0  0  0  0  0  0  0
  -19.6953  -11.0170   26.4653 C   0  0  0  0  0  0  0  0  0  0  0  0
  -21.3533  -13.1767   25.8882 C   0  0  0  0  0  0  0  0  0  0  0  0
  -23.7718  -16.9213   28.2909 C   0  0  0  0  0  0  0  0  0  0  0  0
  -22.3321   -8.7124   20.1939 C   0  0  0  0  0  0  0  0  0  0  0  0
  -23.0918   -8.7226   22.4873 C   0  0  0  0  0  0  0  0  0  0  0  0
  -24.9819  -17.3498   27.7470 C   0  0  0  0  0  0  0  0  0  0  0  0
  -19.8641   -7.9240   23.0908 C   0  0  0  0  0  0  0  0  0  0  0  0
  -19.1071   -7.8852   24.2617 C   0  0  0  0  0  0  0  0  0  0  0  0
  -23.8549  -19.2264   26.7334 C   0  0  0  0  0  0  0  0  0  0  0  0
  -20.3495   -5.9493   25.0007 C   0  0  0  0  0  0  0  0  0  0  0  0
  -23.8270  -10.4473   20.9635 C   0  0  0  0  0  0  0  0  0  0  0  0
  -24.1676  -12.9725   20.8403 C   0  0  0  0  0  0  0  0  0  0  0  0
  -19.1242  -12.2736   26.2095 C   0  0  0  0  0  0  0  0  0  0  0  0
  -22.5903  -17.6373   28.0507 C   0  0  0  0  0  0  0  0  0  0  0  0
  -19.9608  -13.3650   25.9072 C   0  0  0  0  0  0  0  0  0  0  0  0
  -22.6315  -18.8063   27.2775 C   0  0  0  0  0  0  0  0  0  0  0  0
  -22.3403   -8.1409   21.4663 C   0  0  0  0  0  0  0  0  0  0  0  0
  -25.0231  -18.5009   26.9657 C   0  0  0  0  0  0  0  0  0  0  0  0
  -20.8637   -6.9754   22.8747 C   0  0  0  0  0  0  0  0  0  0  0  0
  -19.3498   -6.8978   25.2167 C   0  0  0  0  0  0  0  0  0  0  0  0
  -21.1064   -5.9881   23.8297 C   0  0  0  0  0  0  0  0  0  0  0  0
  -24.5955  -11.6382   20.7043 C   0  0  0  0  0  0  0  0  0  0  0  0
  -25.2594  -13.7220   20.4761 C   0  0  0  0  0  0  0  0  0  0  0  0
  -32.1965  -18.4986   21.9255 C   0  0  0  0  0  0  0  0  0  0  0  0
  -30.5694  -16.9531   21.8979 C   0  0  0  0  0  0  0  0  0  0  0  0
  -30.2926  -18.8533   23.0597 C   0  0  0  0  0  0  0  0  0  0  0  0
  -22.8968  -13.4882   21.2585 C   0  0  0  0  0  0  0  0  0  0  0  0
  -19.8215  -16.9855   26.6320 C   0  0  0  0  0  0  0  0  0  0  0  0
  -19.0027  -19.9174   27.7527 C   0  0  0  0  0  0  0  0  0  0  0  0
  -20.0133  -23.0002   28.8118 C   0  0  0  0  0  0  0  0  0  0  0  0
  -30.7250  -14.7705   20.6495 C   0  0  0  0  0  0  0  0  0  0  0  0
  -17.6213  -12.3996   26.2000 C   0  0  0  0  0  0  0  0  0  0  0  0
  -21.2977  -17.1767   28.6668 C   0  0  0  0  0  0  0  0  0  0  0  0
  -21.3947  -19.6220   27.0066 C   0  0  0  0  0  0  0  0  0  0  0  0
  -17.1306  -13.8431   26.2762 C   0  0  0  0  0  0  0  0  0  0  0  0
  -29.6119  -12.3532   18.2843 C   0  0  0  0  0  0  0  0  0  0  0  0
  -17.9034  -14.7220   25.2979 C   0  0  0  0  0  0  0  0  0  0  0  0
  -28.1723  -12.0614   18.7142 C   0  0  0  0  0  0  0  0  0  0  0  0
  -30.5268  -12.5839   19.4857 C   0  0  0  0  0  0  0  0  0  0  0  0
  -28.6195  -13.3092   20.8660 C   0  0  0  0  0  0  0  0  0  0  0  0
  -19.3985  -14.7439   25.6384 C   0  0  1  0  0  0  0  0  0  0  0  0
  -20.0665  -17.6979   27.9320 C   0  0  1  0  0  0  0  0  0  0  0  0
  -27.6468  -13.1340   19.6884 C   0  0  2  0  0  0  0  0  0  0  0  0
  -19.1127  -25.1959   29.6276 C   0  0  0  0  0  0  0  0  0  0  0  0
  -18.2039  -20.6470   24.8997 C   0  0  0  0  0  0  0  0  0  0  0  0
  -18.2284  -23.0554   25.5830 C   0  0  0  0  0  0  0  0  0  0  0  0
  -16.6353  -21.4700   26.6651 C   0  0  0  0  0  0  0  0  0  0  0  0
  -21.4044  -22.7373   31.4108 C   0  0  0  0  0  0  0  0  0  0  0  0
  -27.5870  -20.4188   25.1683 C   0  0  0  0  0  0  0  0  0  0  0  0
  -28.1957  -19.2957   24.3375 C   0  0  0  0  0  0  0  0  0  0  0  0
  -26.1721  -20.1087   25.6425 C   0  0  0  0  0  0  0  0  0  1  0  0
  -19.0968  -21.3284   27.2245 C   0  0  1  0  0  0  0  0  0  0  0  0
  -19.6298  -23.8230   30.0285 C   0  0  2  0  0  0  0  0  0  0  0  0
  -18.0643  -21.6090   26.0964 C   0  0  0  0  0  0  0  0  0  0  0  0
  -25.8604  -11.5425   20.2861 N   0  0  0  0  0  0  0  0  0  0  0  0
  -31.7965  -17.2980   21.4760 N   0  0  0  0  0  0  0  0  0  0  0  0
  -31.5007  -19.3296   22.7182 N   0  0  0  0  0  0  0  0  0  0  0  0
  -29.7612  -17.6772   22.6888 N   0  0  0  0  0  0  0  0  0  0  0  0
  -26.2367  -12.8261   20.1562 N   0  0  0  0  0  0  0  0  0  0  0  0
  -20.1540  -19.1272   27.6257 N   0  0  0  0  0  0  0  0  0  0  0  0
  -29.9673  -13.6156   20.3617 N   0  0  0  0  0  0  0  0  0  0  0  0
  -25.4691  -15.0535   20.4014 N   0  0  0  0  0  0  0  0  0  0  0  0
  -33.4781  -18.9312   21.5214 N   0  0  0  0  0  0  0  0  0  0  0  0
  -21.8853  -12.5789   21.5969 N   0  0  0  0  0  0  0  0  0  0  0  0
  -30.0772  -15.6963   21.4668 N   0  0  0  0  0  0  0  0  0  0  0  0
  -29.5152  -19.6571   23.8787 N   0  0  0  0  0  0  0  0  0  0  0  0
  -19.6481  -15.6208   26.7623 N   0  0  0  0  0  0  0  0  0  0  0  0
  -18.9704  -22.2070   28.3823 N   0  0  0  0  0  0  0  0  0  0  0  0
  -20.8084  -24.0072   30.9217 N   0  3  0  0  0  0  0  0  0  0  0  0
  -22.6600  -14.7188   21.3143 O   0  0  0  0  0  0  0  0  0  0  0  0
  -19.7906  -17.6267   25.5881 O   0  0  0  0  0  0  0  0  0  0  0  0
  -17.9489  -19.5327   28.2658 O   0  0  0  0  0  0  0  0  0  0  0  0
  -21.1255  -23.0583   28.2920 O   0  0  0  0  0  0  0  0  0  0  0  0
  -31.8540  -14.9392   20.1817 O   0  0  0  0  0  0  0  0  0  0  0  0
  -21.6149   -7.0158   21.7121 O   0  0  0  0  0  0  0  0  0  0  0  0
  -26.2028  -18.9210   26.4331 O   0  0  0  0  0  0  0  0  0  1  0  0
  -18.6239   -6.8616   26.3418 F   0  0  0  0  0  0  0  0  0  0  0  0
  -22.0662   -5.0748   23.6282 F   0  0  0  0  0  0  0  0  0  0  0  0
  1  2  1  0  0  0  0
  1  5  2  0  0  0  0
  2  6  2  0  0  0  0
  3  8  2  0  0  0  0
  3 15  1  0  0  0  0
  4  9  1  0  0  0  0
  4 15  2  0  0  0  0
  5 17  1  0  0  0  0
  6 19  1  0  0  0  0
  7 10  2  0  0  0  0
  7 18  1  0  0  0  0
  8 21  1  0  0  0  0
  9 21  2  0  0  0  0
 10 22  1  0  0  0  0
 11 12  2  0  0  0  0
 11 23  1  0  0  0  0
 12 24  1  0  0  0  0
 13 20  1  0  0  0  0
 13 22  2  0  0  0  0
 14 24  2  0  0  0  0
 14 25  1  0  0  0  0
 15 26  1  0  0  0  0
 16 26  1  0  0  0  0
 16 27  2  0  0  0  0
 16 31  1  0  0  0  0
 17 19  2  0  0  0  0
 17 36  1  0  0  0  0
 18 20  2  0  0  0  0
 18 37  1  0  0  0  0
 19 45  1  0  0  0  0
 20 38  1  0  0  0  0
 21 79  1  0  0  0  0
 22 80  1  0  0  0  0
 23 25  2  0  0  0  0
 23 79  1  0  0  0  0
 24 81  1  0  0  0  0
 25 82  1  0  0  0  0
 26 59  2  0  0  0  0
 27 63  1  0  0  0  0
 27 66  1  0  0  0  0
 28 60  1  0  0  0  0
 28 61  2  0  0  0  0
 28 67  1  0  0  0  0
 29 60  2  0  0  0  0
 29 62  1  0  0  0  0
 29 69  1  0  0  0  0
 30 61  1  0  0  0  0
 30 62  2  0  0  0  0
 30 70  1  0  0  0  0
 31 68  1  0  0  0  0
 31 74  2  0  0  0  0
 32 46  1  0  0  0  0
 32 71  1  0  0  0  0
 32 75  2  0  0  0  0
 33 56  1  0  0  0  0
 33 64  1  0  0  0  0
 33 76  2  0  0  0  0
 34 57  1  0  0  0  0
 34 72  1  0  0  0  0
 34 77  2  0  0  0  0
 35 65  1  0  0  0  0
 35 69  1  0  0  0  0
 35 78  2  0  0  0  0
 36 39  1  0  0  0  0
 37 46  1  0  0  0  0
 38 64  1  0  0  0  0
 39 41  1  0  0  0  0
 40 42  1  0  0  0  0
 40 43  1  0  0  0  0
 41 45  1  0  0  0  0
 42 47  1  0  0  0  0
 43 65  1  0  0  0  0
 44 47  1  0  0  0  0
 44 65  1  0  0  0  0
 45 71  1  0  0  0  0
 46 64  1  0  0  0  0
 47 63  1  0  0  0  0
 48 57  1  0  0  0  0
 49 58  1  0  0  0  0
 50 58  1  0  0  0  0
 51 58  1  0  0  0  0
 52 73  1  0  0  0  0
 53 54  1  0  0  0  0
 53 55  1  0  0  0  0
 54 70  1  0  0  0  0
 55 80  1  0  0  0  0
 56 58  1  0  0  0  0
 56 72  1  0  0  0  0
 57 73  1  0  0  0  0
 59 63  1  0  0  0  0
M  CHG  1  73   1
M  ISO  4  35 100  55 101  69 100  80 101
M  END
> <Batch ID>
0199

> <Smiles>
CNC(C)C(=O)NC(C(=O)N1Cc2cc([101O:1][101CH2:1]CCNc3nc(N)nc([100NH:0][100C:0](=O)N4CCCC(n5nc(-c6ccc(Oc7ccc(F)cc7F)cc6)c(C(N)=O)c5N)C4)n3)ccc2CC1C(=O)NC1CCCc2ccccc21)C(C)(C)C

> <Shape>
0.171

> <Color>
0.177

> <Negative vol penalty>
0.000

$$$$

  -OEChem-04052305473D

 85 93  0     1  0  0  0  0  0999 V2000
  -22.5299  -29.2105   23.1406 C   0  0  0  0  0  0  0  0  0  0  0  0
  -23.0557  -27.9270   23.2486 C   0  0  0  0  0  0  0  0  0  0  0  0
  -27.8906  -23.6272   20.8287 C   0  0  0  0  0  0  0  0  0  0  0  0
  -29.3956  -23.5328   18.9411 C   0  0  0  0  0  0  0  0  0  0  0  0
  -21.1742  -29.3864   22.8664 C   0  0  0  0  0  0  0  0  0  0  0  0
  -22.2258  -26.8187   23.0837 C   0  0  0  0  0  0  0  0  0  0  0  0
  -22.3186  -20.0919   20.6223 C   0  0  0  0  0  0  0  0  0  0  0  0
  -27.3002  -24.7753   20.3007 C   0  0  0  0  0  0  0  0  0  0  0  0
  -28.8052  -24.6810   18.4130 C   0  0  0  0  0  0  0  0  0  0  0  0
  -21.9900  -18.7958   21.0173 C   0  0  0  0  0  0  0  0  0  0  0  0
  -25.0499  -25.5381   17.8950 C   0  0  0  0  0  0  0  0  0  0  0  0
  -23.6570  -25.6101   17.8967 C   0  0  0  0  0  0  0  0  0  0  0  0
  -19.6798  -19.2207   20.4682 C   0  0  0  0  0  0  0  0  0  0  0  0
  -23.7613  -27.5959   19.2689 C   0  0  0  0  0  0  0  0  0  0  0  0
  -25.4130  -15.3432   21.3121 C   0  0  0  0  0  0  0  0  0  0  0  0
  -28.9383  -23.0059   20.1489 C   0  0  0  0  0  0  0  0  0  0  0  0
  -30.1992  -21.6932   21.9363 C   0  0  0  0  0  0  0  0  0  0  0  0
  -20.3292  -28.2797   22.6884 C   0  0  0  0  0  0  0  0  0  0  0  0
  -21.3269  -20.9671   20.1568 C   0  0  0  0  0  0  0  0  0  0  0  0
  -20.8573  -26.9799   22.8082 C   0  0  0  0  0  0  0  0  0  0  0  0
  -19.9988  -20.5265   20.0655 C   0  0  0  0  0  0  0  0  0  0  0  0
  -27.7575  -25.3022   19.0928 C   0  0  0  0  0  0  0  0  0  0  0  0
  -20.6700  -18.3610   20.9430 C   0  0  0  0  0  0  0  0  0  0  0  0
  -25.7986  -26.4949   18.5804 C   0  0  0  0  0  0  0  0  0  0  0  0
  -23.0126  -26.6390   18.5836 C   0  0  0  0  0  0  0  0  0  0  0  0
  -25.1543  -27.5238   19.2673 C   0  0  0  0  0  0  0  0  0  0  0  0
  -29.5489  -21.8202   20.6942 C   0  0  0  0  0  0  0  0  0  0  0  0
  -24.5081  -13.2499   21.4812 C   0  0  0  0  0  0  0  0  0  0  0  0
  -26.4543  -14.8330   20.5685 C   0  0  0  0  0  0  0  0  0  0  0  0
  -25.5490  -12.7397   20.7370 C   0  0  0  0  0  0  0  0  0  0  0  0
  -30.5993  -20.3801   21.9817 C   0  0  0  0  0  0  0  0  0  0  0  0
  -30.4215  -22.6744   22.9578 C   0  0  0  0  0  0  0  0  0  0  0  0
  -20.1664  -23.7625   21.1278 C   0  0  0  0  0  0  0  0  0  0  0  0
  -18.5089  -23.5999   18.3442 C   0  0  0  0  0  0  0  0  0  0  0  0
  -17.1950  -21.6587   15.8637 C   0  0  0  0  0  0  0  0  0  0  0  0
  -28.5857  -15.4057   19.3537 C   0  0  0  0  0  0  0  0  0  0  0  0
  -18.8611  -28.5197   22.4404 C   0  0  0  0  0  0  0  0  0  0  0  0
  -21.7020  -22.3533   19.7093 C   0  0  0  0  0  0  0  0  0  0  0  0
  -18.9001  -21.4205   19.5536 C   0  0  0  0  0  0  0  0  0  0  0  0
  -18.1247  -27.2929   21.9083 C   0  0  0  0  0  0  0  0  0  0  0  0
  -31.8736  -16.7528   19.1263 C   0  0  0  0  0  0  0  0  0  0  0  0
  -18.4946  -26.0549   22.7190 C   0  0  0  0  0  0  0  0  0  0  0  0
  -31.7110  -18.1917   19.6214 C   0  0  0  0  0  0  0  0  0  0  0  0
  -30.6631  -16.2912   18.3168 C   0  0  0  0  0  0  0  0  0  0  0  0
  -29.2046  -17.8990   19.4818 C   0  0  0  0  0  0  0  0  0  0  0  0
  -19.9941  -25.7526   22.6112 C   0  0  1  0  0  0  0  0  0  0  0  0
  -20.5285  -23.3278   19.7359 C   0  0  1  0  0  0  0  0  0  0  0  0
  -30.3707  -18.3864   20.3571 C   0  0  2  0  0  0  0  0  0  0  0  0
  -23.6881  -11.8264   23.4032 C   0  0  0  0  0  0  0  0  0  0  0  0
  -16.0612  -21.1039   13.6949 C   0  0  0  0  0  0  0  0  0  0  0  0
  -20.9866  -12.4440   19.9591 C   0  0  0  0  0  0  0  0  0  0  0  0
  -15.9695  -24.0481   19.9753 C   0  0  0  0  0  0  0  0  0  0  0  0
  -14.6466  -23.2506   18.0050 C   0  0  0  0  0  0  0  0  0  0  0  0
  -16.0548  -25.3006   17.8123 C   0  0  0  0  0  0  0  0  0  0  0  0
  -19.7521  -21.7287   14.3753 C   0  0  0  0  0  0  0  0  0  0  0  0
  -20.6613  -14.7513   20.9343 C   0  0  0  0  0  0  0  0  0  0  0  0
  -21.3477  -16.0925   21.1685 C   0  0  0  0  0  0  0  0  0  1  0  0
  -23.3979  -12.3690   22.0061 C   0  0  1  0  0  0  0  0  0  0  0  0
  -17.1722  -23.0357   17.9272 C   0  0  1  0  0  0  0  0  0  0  0  0
  -17.2550  -21.7794   14.3517 C   0  0  2  0  0  0  0  0  0  0  0  0
  -21.6347  -13.5895   20.7253 C   0  0  1  0  0  0  0  0  0  0  0  0
  -15.9809  -23.8923   18.4415 C   0  0  0  0  0  0  0  0  0  0  0  0
  -24.4212  -14.5608   21.7818 N   0  0  0  0  0  0  0  0  0  0  0  0
  -29.5347  -20.6789   20.0005 N   0  0  0  0  0  0  0  0  0  0  0  0
  -26.5410  -13.5221   20.2676 N   0  0  0  0  0  0  0  0  0  0  0  0
  -30.1810  -19.8222   20.8095 N   0  0  0  0  0  0  0  0  0  0  0  0
  -19.3161  -22.7690   19.1341 N   0  0  0  0  0  0  0  0  0  0  0  0
  -29.4301  -16.5021   19.0785 N   0  0  0  0  0  0  0  0  0  0  0  0
  -25.5830  -11.3559   20.4540 N   0  0  0  0  0  0  0  0  0  0  0  0
  -31.2647  -19.6598   22.9095 N   0  0  0  0  0  0  0  0  0  0  0  0
  -31.5946  -23.4395   22.9053 N   0  0  0  0  0  0  0  0  0  0  0  0
  -27.4595  -15.7217   20.1130 N   0  0  0  0  0  0  0  0  0  0  0  0
  -20.2926  -25.1215   21.3435 N   0  0  0  0  0  0  0  0  0  0  0  0
  -17.2237  -22.8938   16.4762 N   0  0  0  0  0  0  0  0  0  0  0  0
  -18.4991  -21.1456   13.8304 N   0  3  0  0  0  0  0  0  0  0  0  0
  -22.0846  -13.0631   22.0441 N   0  3  0  0  0  0  0  0  0  0  0  0
  -29.6119  -22.8558   23.8986 O   0  0  0  0  0  0  0  0  0  0  0  0
  -19.7983  -22.9270   21.9452 O   0  0  0  0  0  0  0  0  0  0  0  0
  -18.8282  -24.7332   17.9764 O   0  0  0  0  0  0  0  0  0  0  0  0
  -17.1257  -20.5772   16.4435 O   0  0  0  0  0  0  0  0  0  0  0  0
  -28.8565  -14.2653   18.9689 O   0  0  0  0  0  0  0  0  0  0  0  0
  -27.1815  -26.4224   18.5772 O   0  0  0  0  0  0  0  0  0  0  0  0
  -20.3464  -17.0967   21.3285 O   0  0  0  0  0  0  0  0  0  1  0  0
  -21.6750  -26.7089   18.5838 F   0  0  0  0  0  0  0  0  0  0  0  0
  -25.8682  -28.4466   19.9265 F   0  0  0  0  0  0  0  0  0  0  0  0
  1  2  1  0  0  0  0
  1  5  2  0  0  0  0
  2  6  2  0  0  0  0
  3  8  2  0  0  0  0
  3 16  1  0  0  0  0
  4  9  1  0  0  0  0
  4 16  2  0  0  0  0
  5 18  1  0  0  0  0
  6 20  1  0  0  0  0
  7 10  2  0  0  0  0
  7 19  1  0  0  0  0
  8 22  1  0  0  0  0
  9 22  2  0  0  0  0
 10 23  1  0  0  0  0
 11 12  2  0  0  0  0
 11 24  1  0  0  0  0
 12 25  1  0  0  0  0
 13 21  1  0  0  0  0
 13 23  2  0  0  0  0
 14 25  2  0  0  0  0
 14 26  1  0  0  0  0
 15 29  1  0  0  0  0
 15 63  2  0  0  0  0
 16 27  1  0  0  0  0
 17 27  1  0  0  0  0
 17 31  2  0  0  0  0
 17 32  1  0  0  0  0
 18 20  2  0  0  0  0
 18 37  1  0  0  0  0
 19 21  2  0  0  0  0
 19 38  1  0  0  0  0
 20 46  1  0  0  0  0
 21 39  1  0  0  0  0
 22 82  1  0  0  0  0
 23 83  1  0  0  0  0
 24 26  2  0  0  0  0
 24 82  1  0  0  0  0
 25 84  1  0  0  0  0
 26 85  1  0  0  0  0
 27 64  2  0  0  0  0
 28 30  2  0  0  0  0
 28 58  1  0  0  0  0
 28 63  1  0  0  0  0
 29 65  2  0  0  0  0
 29 72  1  0  0  0  0
 30 65  1  0  0  0  0
 30 69  1  0  0  0  0
 31 66  1  0  0  0  0
 31 70  1  0  0  0  0
 32 71  1  0  0  0  0
 32 77  2  0  0  0  0
 33 47  1  0  0  0  0
 33 73  1  0  0  0  0
 33 78  2  0  0  0  0
 34 59  1  0  0  0  0
 34 67  1  0  0  0  0
 34 79  2  0  0  0  0
 35 60  1  0  0  0  0
 35 74  1  0  0  0  0
 35 80  2  0  0  0  0
 36 68  1  0  0  0  0
 36 72  1  0  0  0  0
 36 81  2  0  0  0  0
 37 40  1  0  0  0  0
 38 47  1  0  0  0  0
 39 67  1  0  0  0  0
 40 42  1  0  0  0  0
 41 43  1  0  0  0  0
 41 44  1  0  0  0  0
 42 46  1  0  0  0  0
 43 48  1  0  0  0  0
 44 68  1  0  0  0  0
 45 48  1  0  0  0  0
 45 68  1  0  0  0  0
 46 73  1  0  0  0  0
 47 67  1  0  0  0  0
 48 66  1  0  0  0  0
 49 58  1  0  0  0  0
 50 60  1  0  0  0  0
 51 61  1  0  0  0  0
 52 62  1  0  0  0  0
 53 62  1  0  0  0  0
 54 62  1  0  0  0  0
 55 75  1  0  0  0  0
 56 57  1  0  0  0  0
 56 61  1  0  0  0  0
 57 83  1  0  0  0  0
 58 76  1  0  0  0  0
 59 62  1  0  0  0  0
 59 74  1  0  0  0  0
 60 75  1  0  0  0  0
 61 76  1  0  0  0  0
 64 66  1  0  0  0  0
M  CHG  2  75   1  76   1
M  ISO  4  36 100  57 101  72 100  83 101
M  END
> <Batch ID>
0199

> <Smiles>
CNC(C)C(=O)NC(C(=O)N1Cc2cc([101O:1][101CH2:1]CC(C)NC(C)c3ncc([100NH:0][100C:0](=O)N4CCCC(n5nc(-c6ccc(Oc7ccc(F)cc7F)cc6)c(C(N)=O)c5N)C4)nc3N)ccc2CC1C(=O)NC1CCCc2ccccc21)C(C)(C)C

> <Shape>
0.197

> <Color>
0.065

> <Negative vol penalty>
0.000

$$$$

  -OEChem-04052305473D

 80 88  0     1  0  0  0  0  0999 V2000
  -27.7238  -17.0018   16.2764 C   0  0  0  0  0  0  0  0  0  0  0  0
  -28.2710  -17.3945   17.4937 C   0  0  0  0  0  0  0  0  0  0  0  0
  -23.2072   -9.7965   19.9680 C   0  0  0  0  0  0  0  0  0  0  0  0
  -23.9364   -9.8898   22.2694 C   0  0  0  0  0  0  0  0  0  0  0  0
  -27.5660  -17.9337   15.2514 C   0  0  0  0  0  0  0  0  0  0  0  0
  -28.6618  -18.7191   17.6863 C   0  0  0  0  0  0  0  0  0  0  0  0
  -27.1703  -20.5528   22.1649 C   0  0  0  0  0  0  0  0  0  0  0  0
  -22.5419   -8.5984   20.2273 C   0  0  0  0  0  0  0  0  0  0  0  0
  -23.2710   -8.6916   22.5288 C   0  0  0  0  0  0  0  0  0  0  0  0
  -27.9117  -20.1789   23.2849 C   0  0  0  0  0  0  0  0  0  0  0  0
  -19.6380   -7.6206   21.6572 C   0  0  0  0  0  0  0  0  0  0  0  0
  -18.3436   -7.4768   21.1580 C   0  0  0  0  0  0  0  0  0  0  0  0
  -29.0669  -22.2956   23.2195 C   0  0  0  0  0  0  0  0  0  0  0  0
  -19.0527   -5.5580   19.8724 C   0  0  0  0  0  0  0  0  0  0  0  0
  -30.5729  -16.0356   24.2070 C   0  0  0  0  0  0  0  0  0  0  0  0
  -32.5765  -16.8477   23.7796 C   0  0  0  0  0  0  0  0  0  0  0  0
  -23.9046  -10.4422   20.9890 C   0  0  0  0  0  0  0  0  0  0  0  0
  -24.0724  -12.9830   20.8339 C   0  0  0  0  0  0  0  0  0  0  0  0
  -27.9460  -19.2726   15.4349 C   0  0  0  0  0  0  0  0  0  0  0  0
  -27.3797  -21.7987   21.5563 C   0  0  0  0  0  0  0  0  0  0  0  0
  -28.5101  -19.6695   16.6624 C   0  0  0  0  0  0  0  0  0  0  0  0
  -28.3251  -22.6840   22.0935 C   0  0  0  0  0  0  0  0  0  0  0  0
  -22.5737   -8.0459   21.5077 C   0  0  0  0  0  0  0  0  0  0  0  0
  -28.8622  -21.0491   23.8106 C   0  0  0  0  0  0  0  0  0  0  0  0
  -20.6399   -6.7332   21.2640 C   0  0  0  0  0  0  0  0  0  0  0  0
  -18.0509   -6.4455   20.2656 C   0  0  0  0  0  0  0  0  0  0  0  0
  -20.3471   -5.7019   20.3716 C   0  0  0  0  0  0  0  0  0  0  0  0
  -24.5926  -11.6797   20.7216 C   0  0  0  0  0  0  0  0  0  0  0  0
  -31.0598  -15.5686   23.0089 C   0  0  0  0  0  0  0  0  0  0  0  0
  -25.1145  -13.8010   20.4714 C   0  0  0  0  0  0  0  0  0  0  0  0
  -22.7642  -13.4156   21.2303 C   0  0  0  0  0  0  0  0  0  0  0  0
  -28.3470  -22.7578   18.6843 C   0  0  0  0  0  0  0  0  0  0  0  0
  -27.6090  -25.6950   19.8464 C   0  0  0  0  0  0  0  0  0  0  0  0
  -27.1683  -27.7075   22.5672 C   0  0  0  0  0  0  0  0  0  0  0  0
  -30.8605  -14.1898   20.9100 C   0  0  0  0  0  0  0  0  0  0  0  0
  -27.7998  -20.2333   14.2815 C   0  0  0  0  0  0  0  0  0  0  0  0
  -26.5530  -22.1980   20.3648 C   0  0  0  0  0  0  0  0  0  0  0  0
  -28.5737  -24.0411   21.4894 C   0  0  0  0  0  0  0  0  0  0  0  0
  -27.8927  -21.6999   14.6949 C   0  0  0  0  0  0  0  0  0  0  0  0
  -29.2840  -13.1913   17.8777 C   0  0  0  0  0  0  0  0  0  0  0  0
  -29.0794  -21.9172   15.6283 C   0  0  0  0  0  0  0  0  0  0  0  0
  -27.8622  -12.8268   18.3112 C   0  0  0  0  0  0  0  0  0  0  0  0
  -30.3176  -12.7912   18.9290 C   0  0  0  0  0  0  0  0  0  0  0  0
  -28.6286  -12.9260   20.7174 C   0  0  0  0  0  0  0  0  0  0  0  0
  -28.9231  -21.1027   16.9181 C   0  0  1  0  0  0  0  0  0  0  0  0
  -27.2114  -23.2820   19.5170 C   0  0  1  0  0  0  0  0  0  0  0  0
  -27.5462  -13.3682   19.7192 C   0  0  2  0  0  0  0  0  0  0  0  0
  -26.6052  -30.0697   23.1996 C   0  0  0  0  0  0  0  0  0  0  0  0
  -30.4280  -26.5711   19.0746 C   0  0  0  0  0  0  0  0  0  0  0  0
  -30.1359  -28.5711   20.5520 C   0  0  0  0  0  0  0  0  0  0  0  0
  -28.6417  -28.2502   18.5804 C   0  0  0  0  0  0  0  0  0  0  0  0
  -24.7402  -26.8595   24.0315 C   0  0  0  0  0  0  0  0  0  0  0  0
  -31.5196  -17.6262   25.9857 C   0  0  0  0  0  0  0  0  0  0  0  0
  -29.8474  -19.2940   25.0775 C   0  0  0  0  0  0  0  0  0  1  0  0
  -28.3580  -26.7636   20.6056 C   0  0  1  0  0  0  0  0  0  0  0  0
  -26.0583  -28.6756   22.9348 C   0  0  2  0  0  0  0  0  0  0  0  0
  -31.1754  -19.1101   25.8073 C   0  0  1  0  0  0  0  0  0  0  0  0
  -29.3878  -27.5127   19.7136 C   0  0  0  0  0  0  0  0  0  0  0  0
  -32.3075  -16.0776   22.7488 N   0  0  0  0  0  0  0  0  0  0  0  0
  -25.8661  -11.6657   20.3192 N   0  0  0  0  0  0  0  0  0  0  0  0
  -31.5558  -16.8534   24.6892 N   0  0  0  0  0  0  0  0  0  0  0  0
  -26.1549  -12.9703   20.1754 N   0  0  0  0  0  0  0  0  0  0  0  0
  -27.7447  -24.3830   20.3217 N   0  0  0  0  0  0  0  0  0  0  0  0
  -29.9550  -13.3431   20.2362 N   0  0  0  0  0  0  0  0  0  0  0  0
  -25.2332  -15.1426   20.3802 N   0  0  0  0  0  0  0  0  0  0  0  0
  -21.8135  -12.4434   21.5702 N   0  0  0  0  0  0  0  0  0  0  0  0
  -30.3934  -14.6801   22.1290 N   0  0  0  0  0  0  0  0  0  0  0  0
  -27.9864  -21.7478   17.8130 N   0  0  0  0  0  0  0  0  0  0  0  0
  -27.3444  -27.6269   21.2020 N   0  0  0  0  0  0  0  0  0  0  0  0
  -31.0517  -19.7496   27.1534 N   0  3  0  0  0  0  0  0  0  0  0  0
  -25.3482  -28.2089   24.1591 N   0  3  0  0  0  0  0  0  0  0  0  0
  -22.4427  -14.6275   21.2660 O   0  0  0  0  0  0  0  0  0  0  0  0
  -29.4672  -23.2355   18.8212 O   0  0  0  0  0  0  0  0  0  0  0  0
  -26.9230  -26.0138   18.8721 O   0  0  0  0  0  0  0  0  0  0  0  0
  -27.8168  -27.0877   23.4073 O   0  0  0  0  0  0  0  0  0  0  0  0
  -31.9577  -14.4818   20.4274 O   0  0  0  0  0  0  0  0  0  0  0  0
  -21.9243   -6.8769   21.7612 O   0  0  0  0  0  0  0  0  0  0  0  0
  -29.5876  -20.6863   24.9033 O   0  0  0  0  0  0  0  0  0  1  0  0
  -16.8074   -6.3065   19.7874 F   0  0  0  0  0  0  0  0  0  0  0  0
  -21.3051   -4.8456   19.9911 F   0  0  0  0  0  0  0  0  0  0  0  0
  1  2  1  0  0  0  0
  1  5  2  0  0  0  0
  2  6  2  0  0  0  0
  3  8  2  0  0  0  0
  3 17  1  0  0  0  0
  4  9  1  0  0  0  0
  4 17  2  0  0  0  0
  5 19  1  0  0  0  0
  6 21  1  0  0  0  0
  7 10  2  0  0  0  0
  7 20  1  0  0  0  0
  8 23  1  0  0  0  0
  9 23  2  0  0  0  0
 10 24  1  0  0  0  0
 11 12  2  0  0  0  0
 11 25  1  0  0  0  0
 12 26  1  0  0  0  0
 13 22  1  0  0  0  0
 13 24  2  0  0  0  0
 14 26  2  0  0  0  0
 14 27  1  0  0  0  0
 15 29  2  0  0  0  0
 15 61  1  0  0  0  0
 16 59  2  0  0  0  0
 16 61  1  0  0  0  0
 17 28  1  0  0  0  0
 18 28  1  0  0  0  0
 18 30  2  0  0  0  0
 18 31  1  0  0  0  0
 19 21  2  0  0  0  0
 19 36  1  0  0  0  0
 20 22  2  0  0  0  0
 20 37  1  0  0  0  0
 21 45  1  0  0  0  0
 22 38  1  0  0  0  0
 23 77  1  0  0  0  0
 24 78  1  0  0  0  0
 25 27  2  0  0  0  0
 25 77  1  0  0  0  0
 26 79  1  0  0  0  0
 27 80  1  0  0  0  0
 28 60  2  0  0  0  0
 29 59  1  0  0  0  0
 29 67  1  0  0  0  0
 30 62  1  0  0  0  0
 30 65  1  0  0  0  0
 31 66  1  0  0  0  0
 31 72  2  0  0  0  0
 32 46  1  0  0  0  0
 32 68  1  0  0  0  0
 32 73  2  0  0  0  0
 33 55  1  0  0  0  0
 33 63  1  0  0  0  0
 33 74  2  0  0  0  0
 34 56  1  0  0  0  0
 34 69  1  0  0  0  0
 34 75  2  0  0  0  0
 35 64  1  0  0  0  0
 35 67  1  0  0  0  0
 35 76  2  0  0  0  0
 36 39  1  0  0  0  0
 37 46  1  0  0  0  0
 38 63  1  0  0  0  0
 39 41  1  0  0  0  0
 40 42  1  0  0  0  0
 40 43  1  0  0  0  0
 41 45  1  0  0  0  0
 42 47  1  0  0  0  0
 43 64  1  0  0  0  0
 44 47  1  0  0  0  0
 44 64  1  0  0  0  0
 45 68  1  0  0  0  0
 46 63  1  0  0  0  0
 47 62  1  0  0  0  0
 48 56  1  0  0  0  0
 49 58  1  0  0  0  0
 50 58  1  0  0  0  0
 51 58  1  0  0  0  0
 52 71  1  0  0  0  0
 53 57  1  0  0  0  0
 53 61  1  0  0  0  0
 54 57  1  0  0  0  0
 54 78  1  0  0  0  0
 55 58  1  0  0  0  0
 55 69  1  0  0  0  0
 56 71  1  0  0  0  0
 57 70  1  0  0  0  0
 60 62  1  0  0  0  0
M  CHG  2  70   1  71   1
M  ISO  4  35 100  54 101  67 100  78 101
M  END
> <Batch ID>
0199

> <Smiles>
CNC(C)C(=O)NC(C(=O)N1Cc2cc([101O:1][101CH2:1]C(N)Cn3cnc([100NH:0][100C:0](=O)N4CCCC(n5nc(-c6ccc(Oc7ccc(F)cc7F)cc6)c(C(N)=O)c5N)C4)c3)ccc2CC1C(=O)NC1CCCc2ccccc21)C(C)(C)C

> <Shape>
0.229

> <Color>
0.194

> <Negative vol penalty>
0.000

$$$$

  -OEChem-04052305473D

 81 89  0     1  0  0  0  0  0999 V2000
  -18.9597  -33.7583   20.9178 C   0  0  0  0  0  0  0  0  0  0  0  0
  -20.2243  -33.3949   20.4660 C   0  0  0  0  0  0  0  0  0  0  0  0
  -26.5901  -12.1464   21.2234 C   0  0  0  0  0  0  0  0  0  0  0  0
  -25.5539  -13.4822   19.4974 C   0  0  0  0  0  0  0  0  0  0  0  0
  -18.4700  -33.2327   22.1128 C   0  0  0  0  0  0  0  0  0  0  0  0
  -21.0005  -32.5066   21.2096 C   0  0  0  0  0  0  0  0  0  0  0  0
  -24.8799  -28.2966   19.0343 C   0  0  0  0  0  0  0  0  0  0  0  0
  -25.3626  -11.5409   21.4918 C   0  0  0  0  0  0  0  0  0  0  0  0
  -24.3263  -12.8767   19.7658 C   0  0  0  0  0  0  0  0  0  0  0  0
  -26.2646  -28.2920   18.8719 C   0  0  0  0  0  0  0  0  0  0  0  0
  -23.4349   -9.1126   20.1427 C   0  0  0  0  0  0  0  0  0  0  0  0
  -23.4165   -7.7270   20.3017 C   0  0  0  0  0  0  0  0  0  0  0  0
  -26.5029  -27.1556   20.9863 C   0  0  0  0  0  0  0  0  0  0  0  0
  -29.5023  -22.5328   19.1332 C   0  0  0  0  0  0  0  0  0  0  0  0
  -22.5574   -7.9957   22.5438 C   0  0  0  0  0  0  0  0  0  0  0  0
  -28.1386  -22.7731   17.2664 C   0  0  0  0  0  0  0  0  0  0  0  0
  -26.6858  -13.1171   20.2262 C   0  0  0  0  0  0  0  0  0  0  0  0
  -28.9305  -13.3147   19.0304 C   0  0  0  0  0  0  0  0  0  0  0  0
  -19.2367  -32.3300   22.8665 C   0  0  0  0  0  0  0  0  0  0  0  0
  -24.2960  -27.7395   20.1811 C   0  0  0  0  0  0  0  0  0  0  0  0
  -20.5211  -31.9695   22.4164 C   0  0  0  0  0  0  0  0  0  0  0  0
  -25.1104  -27.1521   21.1598 C   0  0  0  0  0  0  0  0  0  0  0  0
  -29.0020  -23.4114   18.1293 C   0  0  0  0  0  0  0  0  0  0  0  0
  -24.2307  -11.9060   20.7630 C   0  0  0  0  0  0  0  0  0  0  0  0
  -27.0765  -27.7241   19.8493 C   0  0  0  0  0  0  0  0  0  0  0  0
  -23.0146   -9.9398   21.1842 C   0  0  0  0  0  0  0  0  0  0  0  0
  -22.9777   -7.1685   21.5022 C   0  0  0  0  0  0  0  0  0  0  0  0
  -22.5758   -9.3813   22.3847 C   0  0  0  0  0  0  0  0  0  0  0  0
  -27.9535  -13.7433   19.9488 C   0  0  0  0  0  0  0  0  0  0  0  0
  -29.9374  -14.2421   19.1424 C   0  0  0  0  0  0  0  0  0  0  0  0
  -29.0019  -21.2562   18.9994 C   0  0  0  0  0  0  0  0  0  0  0  0
  -28.9280  -12.1798   18.1542 C   0  0  0  0  0  0  0  0  0  0  0  0
  -22.5151  -28.8622   22.5626 C   0  0  0  0  0  0  0  0  0  0  0  0
  -22.3546  -25.7324   23.3999 C   0  0  0  0  0  0  0  0  0  0  0  0
  -30.1941  -25.5180   18.8258 C   0  0  0  0  0  0  0  0  0  0  0  0
  -23.7491  -22.6207   23.2600 C   0  0  0  0  0  0  0  0  0  0  0  0
  -30.0487  -19.9562   20.8864 C   0  0  0  0  0  0  0  0  0  0  0  0
  -18.6841  -31.8251   24.1758 C   0  0  0  0  0  0  0  0  0  0  0  0
  -22.7992  -27.7285   20.3288 C   0  0  0  0  0  0  0  0  0  0  0  0
  -24.5318  -26.5228   22.3998 C   0  0  0  0  0  0  0  0  0  0  0  0
  -19.4178  -30.5995   24.7144 C   0  0  0  0  0  0  0  0  0  0  0  0
  -31.9111  -17.2652   22.2888 C   0  0  0  0  0  0  0  0  0  0  0  0
  -20.9274  -30.8033   24.6347 C   0  0  0  0  0  0  0  0  0  0  0  0
  -31.2001  -16.0176   21.7594 C   0  0  0  0  0  0  0  0  0  0  0  0
  -30.9253  -18.3889   22.6039 C   0  0  0  0  0  0  0  0  0  0  0  0
  -29.3053  -17.4956   20.9770 C   0  0  0  0  0  0  0  0  0  0  0  0
  -21.3830  -30.9894   23.1824 C   0  0  1  0  0  0  0  0  0  0  0  0
  -22.3428  -27.5923   21.7781 C   0  0  1  0  0  0  0  0  0  0  0  0
  -30.2631  -16.3589   20.5842 C   0  0  2  0  0  0  0  0  0  0  0  0
  -23.4088  -20.2712   24.0732 C   0  0  0  0  0  0  0  0  0  0  0  0
  -23.3309  -26.5529   26.1717 C   0  0  0  0  0  0  0  0  0  0  0  0
  -23.8735  -24.1495   26.6157 C   0  0  0  0  0  0  0  0  0  0  0  0
  -21.5157  -24.8326   26.1721 C   0  0  0  0  0  0  0  0  0  0  0  0
  -23.5352  -21.5730   20.5004 C   0  0  0  0  0  0  0  0  0  0  0  0
  -30.2740  -26.9629   18.3462 C   0  0  0  0  0  0  0  0  0  0  0  0
  -28.9281  -27.6716   18.3577 C   0  0  0  0  0  0  0  0  0  1  0  0
  -23.1799  -24.8145   24.2689 C   0  0  1  0  0  0  0  0  0  0  0  0
  -23.1496  -21.2613   22.9484 C   0  0  2  0  0  0  0  0  0  0  0  0
  -22.9863  -25.1009   25.7848 C   0  0  0  0  0  0  0  0  0  0  0  0
  -28.3078  -14.8562   20.5967 N   0  0  0  0  0  0  0  0  0  0  0  0
  -29.5188  -15.1348   20.0847 N   0  0  0  0  0  0  0  0  0  0  0  0
  -23.0632  -26.5425   22.5014 N   0  0  0  0  0  0  0  0  0  0  0  0
  -30.0739  -18.6602   21.4436 N   0  0  0  0  0  0  0  0  0  0  0  0
  -31.1312  -14.3728   18.5259 N   0  0  0  0  0  0  0  0  0  0  0  0
  -27.8141  -11.3292   18.1657 N   0  0  0  0  0  0  0  0  0  0  0  0
  -29.3377  -24.7812   18.0120 N   0  0  0  0  0  0  0  0  0  0  0  0
  -29.2279  -20.0865   19.7666 N   0  0  0  0  0  0  0  0  0  0  0  0
  -21.4290  -29.7142   22.4997 N   0  0  0  0  0  0  0  0  0  0  0  0
  -22.8351  -23.4545   23.8689 N   0  0  0  0  0  0  0  0  0  0  0  0
  -23.7366  -20.7115   21.6938 N   0  3  0  0  0  0  0  0  0  0  0  0
  -29.8923  -11.9183   17.3957 O   0  0  0  0  0  0  0  0  0  0  0  0
  -23.5558  -29.0541   23.1806 O   0  0  0  0  0  0  0  0  0  0  0  0
  -21.1259  -25.7255   23.5090 O   0  0  0  0  0  0  0  0  0  0  0  0
  -30.8208  -25.1184   19.8014 O   0  0  0  0  0  0  0  0  0  0  0  0
  -24.9129  -22.9124   22.9935 O   0  0  0  0  0  0  0  0  0  0  0  0
  -30.7279  -20.8756   21.3506 O   0  0  0  0  0  0  0  0  0  0  0  0
  -23.0327  -11.3152   21.0245 O   0  0  0  0  0  0  0  0  0  0  0  0
  -28.4284  -27.7189   19.6935 O   0  0  0  0  0  0  0  0  0  1  0  0
  -22.9587   -5.8378   21.6542 F   0  0  0  0  0  0  0  0  0  0  0  0
  -22.1697  -10.1709   23.3885 F   0  0  0  0  0  0  0  0  0  0  0  0
  -27.9339  -21.1210   17.6677 S   0  0  0  0  0  0  0  0  0  0  0  0
  1  2  1  0  0  0  0
  1  5  2  0  0  0  0
  2  6  2  0  0  0  0
  3  8  2  0  0  0  0
  3 17  1  0  0  0  0
  4  9  1  0  0  0  0
  4 17  2  0  0  0  0
  5 19  1  0  0  0  0
  6 21  1  0  0  0  0
  7 10  2  0  0  0  0
  7 20  1  0  0  0  0
  8 24  1  0  0  0  0
  9 24  2  0  0  0  0
 10 25  1  0  0  0  0
 11 12  2  0  0  0  0
 11 26  1  0  0  0  0
 12 27  1  0  0  0  0
 13 22  1  0  0  0  0
 13 25  2  0  0  0  0
 14 23  1  0  0  0  0
 14 31  2  0  0  0  0
 15 27  2  0  0  0  0
 15 28  1  0  0  0  0
 16 23  2  0  0  0  0
 16 81  1  0  0  0  0
 17 29  1  0  0  0  0
 18 29  1  0  0  0  0
 18 30  2  0  0  0  0
 18 32  1  0  0  0  0
 19 21  2  0  0  0  0
 19 38  1  0  0  0  0
 20 22  2  0  0  0  0
 20 39  1  0  0  0  0
 21 47  1  0  0  0  0
 22 40  1  0  0  0  0
 23 66  1  0  0  0  0
 24 77  1  0  0  0  0
 25 78  1  0  0  0  0
 26 28  2  0  0  0  0
 26 77  1  0  0  0  0
 27 79  1  0  0  0  0
 28 80  1  0  0  0  0
 29 60  2  0  0  0  0
 30 61  1  0  0  0  0
 30 64  1  0  0  0  0
 31 67  1  0  0  0  0
 31 81  1  0  0  0  0
 32 65  1  0  0  0  0
 32 71  2  0  0  0  0
 33 48  1  0  0  0  0
 33 68  1  0  0  0  0
 33 72  2  0  0  0  0
 34 57  1  0  0  0  0
 34 62  1  0  0  0  0
 34 73  2  0  0  0  0
 35 55  1  0  0  0  0
 35 66  1  0  0  0  0
 35 74  2  0  0  0  0
 36 58  1  0  0  0  0
 36 69  1  0  0  0  0
 36 75  2  0  0  0  0
 37 63  1  0  0  0  0
 37 67  1  0  0  0  0
 37 76  2  0  0  0  0
 38 41  1  0  0  0  0
 39 48  1  0  0  0  0
 40 62  1  0  0  0  0
 41 43  1  0  0  0  0
 42 44  1  0  0  0  0
 42 45  1  0  0  0  0
 43 47  1  0  0  0  0
 44 49  1  0  0  0  0
 45 63  1  0  0  0  0
 46 49  1  0  0  0  0
 46 63  1  0  0  0  0
 47 68  1  0  0  0  0
 48 62  1  0  0  0  0
 49 61  1  0  0  0  0
 50 58  1  0  0  0  0
 51 59  1  0  0  0  0
 52 59  1  0  0  0  0
 53 59  1  0  0  0  0
 54 70  1  0  0  0  0
 55 56  1  0  0  0  0
 56 78  1  0  0  0  0
 57 59  1  0  0  0  0
 57 69  1  0  0  0  0
 58 70  1  0  0  0  0
 60 61  1  0  0  0  0
M  CHG  1  70   1
M  ISO  4  37 100  56 101  67 100  78 101
M  END
> <Batch ID>
0199

> <Smiles>
CNC(C)C(=O)NC(C(=O)N1Cc2cc([101O:1][101CH2:1]CC(=O)Nc3csc([100NH:0][100C:0](=O)N4CCCC(n5nc(-c6ccc(Oc7ccc(F)cc7F)cc6)c(C(N)=O)c5N)C4)c3)ccc2CC1C(=O)NC1CCCc2ccccc21)C(C)(C)C

> <Shape>
0.263

> <Color>
0.105

> <Negative vol penalty>
0.000

$$$$

  -OEChem-04052305473D

 82 90  0     1  0  0  0  0  0999 V2000
  -16.6655  -32.0348   22.9484 C   0  0  0  0  0  0  0  0  0  0  0  0
  -17.8854  -32.6534   23.2023 C   0  0  0  0  0  0  0  0  0  0  0  0
  -27.6157  -16.9225   19.6155 C   0  0  0  0  0  0  0  0  0  0  0  0
  -29.0327  -16.9699   21.5718 C   0  0  0  0  0  0  0  0  0  0  0  0
  -16.5948  -30.6451   22.8603 C   0  0  0  0  0  0  0  0  0  0  0  0
  -19.0353  -31.8825   23.3693 C   0  0  0  0  0  0  0  0  0  0  0  0
  -26.0957  -32.0561   22.1706 C   0  0  0  0  0  0  0  0  0  0  0  0
  -27.4961  -15.5380   19.7357 C   0  0  0  0  0  0  0  0  0  0  0  0
  -28.9131  -15.5854   21.6920 C   0  0  0  0  0  0  0  0  0  0  0  0
  -27.3063  -31.8736   22.8378 C   0  0  0  0  0  0  0  0  0  0  0  0
  -25.7395  -13.3432   21.6145 C   0  0  0  0  0  0  0  0  0  0  0  0
  -24.4681  -12.7876   21.4723 C   0  0  0  0  0  0  0  0  0  0  0  0
  -27.0784  -29.4854   22.5854 C   0  0  0  0  0  0  0  0  0  0  0  0
  -25.2498  -11.4785   19.5981 C   0  0  0  0  0  0  0  0  0  0  0  0
  -28.3840  -17.6384   20.5336 C   0  0  0  0  0  0  0  0  0  0  0  0
  -27.6779  -20.0473   20.9877 C   0  0  0  0  0  0  0  0  0  0  0  0
  -17.7461  -29.8574   23.0166 C   0  0  0  0  0  0  0  0  0  0  0  0
  -25.3609  -30.9522   21.7147 C   0  0  0  0  0  0  0  0  0  0  0  0
  -18.9798  -30.4809   23.2845 C   0  0  0  0  0  0  0  0  0  0  0  0
  -25.8601  -29.6567   21.9106 C   0  0  0  0  0  0  0  0  0  0  0  0
  -28.1448  -14.8694   20.7739 C   0  0  0  0  0  0  0  0  0  0  0  0
  -27.7964  -30.5881   23.0478 C   0  0  0  0  0  0  0  0  0  0  0  0
  -26.7662  -12.9665   20.7485 C   0  0  0  0  0  0  0  0  0  0  0  0
  -24.2232  -11.8552   20.4641 C   0  0  0  0  0  0  0  0  0  0  0  0
  -26.5213  -12.0342   19.7404 C   0  0  0  0  0  0  0  0  0  0  0  0
  -28.5084  -19.0686   20.4097 C   0  0  0  0  0  0  0  0  0  0  0  0
  -28.2138  -21.2416   20.5717 C   0  0  0  0  0  0  0  0  0  0  0  0
  -32.0432  -26.2685   21.4227 C   0  0  0  0  0  0  0  0  0  0  0  0
  -31.7581  -28.1030   22.8788 C   0  0  0  0  0  0  0  0  0  0  0  0
  -26.5252  -19.8910   21.8259 C   0  0  0  0  0  0  0  0  0  0  0  0
  -22.4785  -29.7650   22.3361 C   0  0  0  0  0  0  0  0  0  0  0  0
  -23.2213  -27.7352   19.9174 C   0  0  0  0  0  0  0  0  0  0  0  0
  -25.6402  -26.2048   18.0591 C   0  0  0  0  0  0  0  0  0  0  0  0
  -32.5896  -24.5602   19.6537 C   0  0  0  0  0  0  0  0  0  0  0  0
  -17.6119  -28.3562   22.9598 C   0  0  0  0  0  0  0  0  0  0  0  0
  -24.0699  -31.1671   20.9733 C   0  0  0  0  0  0  0  0  0  0  0  0
  -25.1195  -28.4393   21.4229 C   0  0  0  0  0  0  0  0  0  0  0  0
  -18.9432  -27.6321   22.7768 C   0  0  0  0  0  0  0  0  0  0  0  0
  -31.7576  -22.2285   17.0947 C   0  0  0  0  0  0  0  0  0  0  0  0
  -19.9928  -28.1958   23.7294 C   0  0  0  0  0  0  0  0  0  0  0  0
  -30.7698  -21.2790   17.7766 C   0  0  0  0  0  0  0  0  0  0  0  0
  -32.8604  -22.6814   18.0500 C   0  0  0  0  0  0  0  0  0  0  0  0
  -31.3999  -22.3059   19.9982 C   0  0  0  0  0  0  0  0  0  0  0  0
  -20.2537  -29.6803   23.4469 C   0  0  1  0  0  0  0  0  0  0  0  0
  -23.1523  -29.9488   21.0058 C   0  0  1  0  0  0  0  0  0  0  0  0
  -30.2342  -21.8739   19.0937 C   0  0  2  0  0  0  0  0  0  0  0  0
  -33.3653  -29.7486   25.9692 C   0  0  0  0  0  0  0  0  0  0  0  0
  -25.9408  -24.5708   16.1784 C   0  0  0  0  0  0  0  0  0  0  0  0
  -22.5708  -25.4357   21.8145 C   0  0  0  0  0  0  0  0  0  0  0  0
  -23.7720  -23.8957   20.2480 C   0  0  0  0  0  0  0  0  0  0  0  0
  -21.7431  -25.1241   19.4752 C   0  0  0  0  0  0  0  0  0  0  0  0
  -27.0030  -28.2191   16.3726 C   0  0  0  0  0  0  0  0  0  0  0  0
  -33.3050  -30.3399   24.5664 C   0  0  0  0  0  0  0  0  0  0  0  0
  -30.9363  -31.1583   24.8658 C   0  0  0  0  0  0  0  0  0  0  0  0
  -29.6620  -31.5789   24.1405 C   0  0  0  0  0  0  0  0  0  1  0  0
  -23.9032  -26.3918   19.8203 C   0  0  1  0  0  0  0  0  0  0  0  0
  -25.8027  -26.0366   16.5592 C   0  0  2  0  0  0  0  0  0  0  0  0
  -31.8846  -30.3376   23.9816 C   0  0  2  0  0  0  0  0  0  0  0  0
  -23.0105  -25.2345   20.3505 C   0  0  0  0  0  0  0  0  0  0  0  0
  -29.4966  -19.5954   19.6817 N   0  0  0  0  0  0  0  0  0  0  0  0
  -32.7380  -27.3151   21.0305 N   0  0  0  0  0  0  0  0  0  0  0  0
  -32.5715  -28.3908   21.8851 N   0  0  0  0  0  0  0  0  0  0  0  0
  -29.2905  -20.9181   19.7995 N   0  0  0  0  0  0  0  0  0  0  0  0
  -23.8588  -28.7010   20.7089 N   0  0  0  0  0  0  0  0  0  0  0  0
  -32.2783  -23.2376   19.2734 N   0  0  0  0  0  0  0  0  0  0  0  0
  -27.8643  -22.5263   20.7946 N   0  0  0  0  0  0  0  0  0  0  0  0
  -26.1107  -18.5937   22.1567 N   0  0  0  0  0  0  0  0  0  0  0  0
  -31.9519  -24.9910   20.8165 N   0  0  0  0  0  0  0  0  0  0  0  0
  -31.3989  -28.9752   23.8897 N   0  0  0  0  0  0  0  0  0  0  0  0
  -21.0993  -29.8322   22.2823 N   0  0  0  0  0  0  0  0  0  0  0  0
  -24.3122  -26.2413   18.4280 N   0  0  0  0  0  0  0  0  0  0  0  0
  -27.0153  -26.7616   16.0850 N   0  3  0  0  0  0  0  0  0  0  0  0
  -25.8722  -20.8723   22.2550 O   0  0  0  0  0  0  0  0  0  0  0  0
  -23.1594  -29.5748   23.3371 O   0  0  0  0  0  0  0  0  0  0  0  0
  -22.1657  -27.9230   19.3073 O   0  0  0  0  0  0  0  0  0  0  0  0
  -26.5959  -26.2911   18.8271 O   0  0  0  0  0  0  0  0  0  0  0  0
  -33.3436  -25.2683   18.9813 O   0  0  0  0  0  0  0  0  0  0  0  0
  -28.0281  -13.5184   20.8916 O   0  0  0  0  0  0  0  0  0  0  0  0
  -28.9774  -30.4071   23.6993 O   0  0  0  0  0  0  0  0  0  1  0  0
  -23.0026  -11.3206   20.3286 F   0  0  0  0  0  0  0  0  0  0  0  0
  -27.5039  -11.6675   18.9062 F   0  0  0  0  0  0  0  0  0  0  0  0
  -31.1319  -26.5065   22.8561 S   0  0  0  0  0  0  0  0  0  0  0  0
  1  2  1  0  0  0  0
  1  5  2  0  0  0  0
  2  6  2  0  0  0  0
  3  8  2  0  0  0  0
  3 15  1  0  0  0  0
  4  9  1  0  0  0  0
  4 15  2  0  0  0  0
  5 17  1  0  0  0  0
  6 19  1  0  0  0  0
  7 10  2  0  0  0  0
  7 18  1  0  0  0  0
  8 21  1  0  0  0  0
  9 21  2  0  0  0  0
 10 22  1  0  0  0  0
 11 12  2  0  0  0  0
 11 23  1  0  0  0  0
 12 24  1  0  0  0  0
 13 20  1  0  0  0  0
 13 22  2  0  0  0  0
 14 24  2  0  0  0  0
 14 25  1  0  0  0  0
 15 26  1  0  0  0  0
 16 26  1  0  0  0  0
 16 27  2  0  0  0  0
 16 30  1  0  0  0  0
 17 19  2  0  0  0  0
 17 35  1  0  0  0  0
 18 20  2  0  0  0  0
 18 36  1  0  0  0  0
 19 44  1  0  0  0  0
 20 37  1  0  0  0  0
 21 78  1  0  0  0  0
 22 79  1  0  0  0  0
 23 25  2  0  0  0  0
 23 78  1  0  0  0  0
 24 80  1  0  0  0  0
 25 81  1  0  0  0  0
 26 60  2  0  0  0  0
 27 63  1  0  0  0  0
 27 66  1  0  0  0  0
 28 61  2  0  0  0  0
 28 68  1  0  0  0  0
 28 82  1  0  0  0  0
 29 62  2  0  0  0  0
 29 69  1  0  0  0  0
 29 82  1  0  0  0  0
 30 67  1  0  0  0  0
 30 73  2  0  0  0  0
 31 45  1  0  0  0  0
 31 70  1  0  0  0  0
 31 74  2  0  0  0  0
 32 56  1  0  0  0  0
 32 64  1  0  0  0  0
 32 75  2  0  0  0  0
 33 57  1  0  0  0  0
 33 71  1  0  0  0  0
 33 76  2  0  0  0  0
 34 65  1  0  0  0  0
 34 68  1  0  0  0  0
 34 77  2  0  0  0  0
 35 38  1  0  0  0  0
 36 45  1  0  0  0  0
 37 64  1  0  0  0  0
 38 40  1  0  0  0  0
 39 41  1  0  0  0  0
 39 42  1  0  0  0  0
 40 44  1  0  0  0  0
 41 46  1  0  0  0  0
 42 65  1  0  0  0  0
 43 46  1  0  0  0  0
 43 65  1  0  0  0  0
 44 70  1  0  0  0  0
 45 64  1  0  0  0  0
 46 63  1  0  0  0  0
 47 53  1  0  0  0  0
 48 57  1  0  0  0  0
 49 59  1  0  0  0  0
 50 59  1  0  0  0  0
 51 59  1  0  0  0  0
 52 72  1  0  0  0  0
 53 58  1  0  0  0  0
 54 55  1  0  0  0  0
 54 58  1  0  0  0  0
 55 79  1  0  0  0  0
 56 59  1  0  0  0  0
 56 71  1  0  0  0  0
 57 72  1  0  0  0  0
 58 69  1  0  0  0  0
 60 63  1  0  0  0  0
 61 62  1  0  0  0  0
M  CHG  1  72   1
M  ISO  4  34 100  55 101  68 100  79 101
M  END
> <Batch ID>
0199

> <Smiles>
CCC(C[101CH2:1][101O:1]c1ccc2c(c1)CN(C(=O)C(NC(=O)C(C)NC)C(C)(C)C)C(C(=O)NC1CCCc3ccccc31)C2)Nc1nnc([100NH:0][100C:0](=O)N2CCCC(n3nc(-c4ccc(Oc5ccc(F)cc5F)cc4)c(C(N)=O)c3N)C2)s1

> <Shape>
0.249

> <Color>
0.070

> <Negative vol penalty>
0.000

$$$$

  -OEChem-04052305473D

 84 92  0     1  0  0  0  0  0999 V2000
  -17.1770  -32.1247   20.8721 C   0  0  0  0  0  0  0  0  0  0  0  0
  -18.4940  -32.4830   21.1414 C   0  0  0  0  0  0  0  0  0  0  0  0
  -24.5529  -13.5990   20.9791 C   0  0  0  0  0  0  0  0  0  0  0  0
  -26.8127  -12.7657   20.7894 C   0  0  0  0  0  0  0  0  0  0  0  0
  -16.6439  -30.9633   21.4295 C   0  0  0  0  0  0  0  0  0  0  0  0
  -19.2783  -31.6806   21.9693 C   0  0  0  0  0  0  0  0  0  0  0  0
  -25.4433  -28.8104   19.5932 C   0  0  0  0  0  0  0  0  0  0  0  0
  -24.0610  -12.3551   20.5835 C   0  0  0  0  0  0  0  0  0  0  0  0
  -26.3208  -11.5218   20.3939 C   0  0  0  0  0  0  0  0  0  0  0  0
  -26.7388  -28.3980   19.2804 C   0  0  0  0  0  0  0  0  0  0  0  0
  -23.5394   -9.3225   21.9849 C   0  0  0  0  0  0  0  0  0  0  0  0
  -22.4710   -8.7888   22.7056 C   0  0  0  0  0  0  0  0  0  0  0  0
  -26.9183  -27.2979   21.4264 C   0  0  0  0  0  0  0  0  0  0  0  0
  -21.1309   -8.7570   20.6956 C   0  0  0  0  0  0  0  0  0  0  0  0
  -32.3883  -20.5261   23.2011 C   0  0  0  0  0  0  0  0  0  0  0  0
  -25.9287  -13.8043   21.0820 C   0  0  0  0  0  0  0  0  0  0  0  0
  -26.7064  -15.5190   22.8032 C   0  0  0  0  0  0  0  0  0  0  0  0
  -17.4250  -30.1411   22.2569 C   0  0  0  0  0  0  0  0  0  0  0  0
  -24.8741  -28.4545   20.8190 C   0  0  0  0  0  0  0  0  0  0  0  0
  -18.7547  -30.5078   22.5395 C   0  0  0  0  0  0  0  0  0  0  0  0
  -25.6165  -27.6974   21.7402 C   0  0  0  0  0  0  0  0  0  0  0  0
  -24.9449  -11.3165   20.2910 C   0  0  0  0  0  0  0  0  0  0  0  0
  -27.4745  -27.6439   20.1948 C   0  0  0  0  0  0  0  0  0  0  0  0
  -23.4035   -9.5735   20.6195 C   0  0  0  0  0  0  0  0  0  0  0  0
  -21.2668   -8.5061   22.0610 C   0  0  0  0  0  0  0  0  0  0  0  0
  -22.1993   -9.2907   19.9749 C   0  0  0  0  0  0  0  0  0  0  0  0
  -26.4375  -15.0891   21.4899 C   0  0  0  0  0  0  0  0  0  0  0  0
  -31.9107  -21.0169   22.0059 C   0  0  0  0  0  0  0  0  0  0  0  0
  -33.7059  -22.3804   23.4361 C   0  0  0  0  0  0  0  0  0  0  0  0
  -33.2288  -22.8709   22.2405 C   0  0  0  0  0  0  0  0  0  0  0  0
  -27.1687  -16.8039   22.6561 C   0  0  0  0  0  0  0  0  0  0  0  0
  -26.5521  -14.8193   24.0451 C   0  0  0  0  0  0  0  0  0  0  0  0
  -21.8818  -28.6143   23.0767 C   0  0  0  0  0  0  0  0  0  0  0  0
  -23.0123  -25.7710   23.2955 C   0  0  0  0  0  0  0  0  0  0  0  0
  -24.3133  -22.6384   22.9323 C   0  0  0  0  0  0  0  0  0  0  0  0
  -30.3582  -20.5671   20.0736 C   0  0  0  0  0  0  0  0  0  0  0  0
  -16.7903  -28.9203   22.8746 C   0  0  0  0  0  0  0  0  0  0  0  0
  -23.5046  -28.9287   21.2235 C   0  0  0  0  0  0  0  0  0  0  0  0
  -24.9763  -27.3674   23.0608 C   0  0  0  0  0  0  0  0  0  0  0  0
  -17.8028  -27.9274   23.4396 C   0  0  0  0  0  0  0  0  0  0  0  0
  -27.1880  -19.8554   18.6175 C   0  0  0  0  0  0  0  0  0  0  0  0
  -18.8561  -28.6534   24.2705 C   0  0  0  0  0  0  0  0  0  0  0  0
  -26.7322  -18.5873   19.3430 C   0  0  0  0  0  0  0  0  0  0  0  0
  -28.6953  -19.8562   18.3694 C   0  0  0  0  0  0  0  0  0  0  0  0
  -29.0651  -18.3539   20.2866 C   0  0  0  0  0  0  0  0  0  0  0  0
  -19.6447  -29.6502   23.4127 C   0  0  1  0  0  0  0  0  0  0  0  0
  -22.7354  -27.8994   22.0709 C   0  0  1  0  0  0  0  0  0  0  0  0
  -27.5636  -18.3370   20.6165 C   0  0  2  0  0  0  0  0  0  0  0  0
  -24.0352  -20.2829   23.7517 C   0  0  0  0  0  0  0  0  0  0  0  0
  -24.3569  -26.5311   25.9258 C   0  0  0  0  0  0  0  0  0  0  0  0
  -24.9048  -24.1115   26.2631 C   0  0  0  0  0  0  0  0  0  0  0  0
  -22.5233  -24.8440   26.1405 C   0  0  0  0  0  0  0  0  0  0  0  0
  -23.7205  -21.6385   20.2106 C   0  0  0  0  0  0  0  0  0  0  0  0
  -31.6109  -25.2862   21.3267 C   0  0  0  0  0  0  0  0  0  0  0  0
  -32.9837  -24.8845   20.7875 C   0  0  0  0  0  0  0  0  0  0  0  0
  -29.4346  -26.4725   20.8606 C   0  0  0  0  0  0  0  0  0  1  0  0
  -23.9244  -24.8259   24.0360 C   0  0  1  0  0  0  0  0  0  0  0  0
  -23.6513  -21.2952   22.6837 C   0  0  2  0  0  0  0  0  0  0  0  0
  -30.8248  -26.1395   20.3281 C   0  0  2  0  0  0  0  0  0  0  0  0
  -23.9359  -25.0918   25.5679 C   0  0  0  0  0  0  0  0  0  0  0  0
  -33.2945  -21.1991   23.9377 N   0  0  0  0  0  0  0  0  0  0  0  0
  -26.7064  -16.0251   20.5758 N   0  0  0  0  0  0  0  0  0  0  0  0
  -32.3224  -22.1981   21.5041 N   0  0  0  0  0  0  0  0  0  0  0  0
  -27.1491  -17.0559   21.3158 N   0  0  0  0  0  0  0  0  0  0  0  0
  -23.5730  -26.9760   22.8549 N   0  0  0  0  0  0  0  0  0  0  0  0
  -29.4180  -19.6175   19.6206 N   0  0  0  0  0  0  0  0  0  0  0  0
  -34.6560  -23.1276   24.1691 N   0  0  0  0  0  0  0  0  0  0  0  0
  -27.5860  -17.7315   23.5436 N   0  0  0  0  0  0  0  0  0  0  0  0
  -26.0645  -13.5056   24.0158 N   0  0  0  0  0  0  0  0  0  0  0  0
  -30.9586  -20.2484   21.2912 N   0  0  0  0  0  0  0  0  0  0  0  0
  -33.6854  -24.0913   21.7692 N   0  0  0  0  0  0  0  0  0  0  0  0
  -20.6280  -28.9573   22.6080 N   0  0  0  0  0  0  0  0  0  0  0  0
  -23.5034  -23.4788   23.6665 N   0  0  0  0  0  0  0  0  0  0  0  0
  -24.0587  -20.7548   21.3559 N   0  3  0  0  0  0  0  0  0  0  0  0
  -26.8227  -15.3492   25.1494 O   0  0  0  0  0  0  0  0  0  0  0  0
  -22.3264  -28.8375   24.1966 O   0  0  0  0  0  0  0  0  0  0  0  0
  -21.8329  -25.4545   23.1163 O   0  0  0  0  0  0  0  0  0  0  0  0
  -25.4380  -22.9133   22.5199 O   0  0  0  0  0  0  0  0  0  0  0  0
  -30.5921  -21.6009   19.4424 O   0  0  0  0  0  0  0  0  0  0  0  0
  -30.6862  -25.4102   19.1089 O   0  0  0  0  0  0  0  0  0  0  0  0
  -24.4653  -10.1025   19.9052 O   0  0  0  0  0  0  0  0  0  0  0  0
  -28.7370  -27.2408   19.8812 O   0  0  0  0  0  0  0  0  0  1  0  0
  -20.2415   -7.9922   22.7529 F   0  0  0  0  0  0  0  0  0  0  0  0
  -22.0632   -9.5285   18.6631 F   0  0  0  0  0  0  0  0  0  0  0  0
  1  2  1  0  0  0  0
  1  5  2  0  0  0  0
  2  6  2  0  0  0  0
  3  8  2  0  0  0  0
  3 16  1  0  0  0  0
  4  9  1  0  0  0  0
  4 16  2  0  0  0  0
  5 18  1  0  0  0  0
  6 20  1  0  0  0  0
  7 10  2  0  0  0  0
  7 19  1  0  0  0  0
  8 22  1  0  0  0  0
  9 22  2  0  0  0  0
 10 23  1  0  0  0  0
 11 12  2  0  0  0  0
 11 24  1  0  0  0  0
 12 25  1  0  0  0  0
 13 21  1  0  0  0  0
 13 23  2  0  0  0  0
 14 25  2  0  0  0  0
 14 26  1  0  0  0  0
 15 28  1  0  0  0  0
 15 61  2  0  0  0  0
 16 27  1  0  0  0  0
 17 27  1  0  0  0  0
 17 31  2  0  0  0  0
 17 32  1  0  0  0  0
 18 20  2  0  0  0  0
 18 37  1  0  0  0  0
 19 21  2  0  0  0  0
 19 38  1  0  0  0  0
 20 46  1  0  0  0  0
 21 39  1  0  0  0  0
 22 81  1  0  0  0  0
 23 82  1  0  0  0  0
 24 26  2  0  0  0  0
 24 81  1  0  0  0  0
 25 83  1  0  0  0  0
 26 84  1  0  0  0  0
 27 62  2  0  0  0  0
 28 63  2  0  0  0  0
 28 70  1  0  0  0  0
 29 30  2  0  0  0  0
 29 61  1  0  0  0  0
 29 67  1  0  0  0  0
 30 63  1  0  0  0  0
 30 71  1  0  0  0  0
 31 64  1  0  0  0  0
 31 68  1  0  0  0  0
 32 69  1  0  0  0  0
 32 75  2  0  0  0  0
 33 47  1  0  0  0  0
 33 72  1  0  0  0  0
 33 76  2  0  0  0  0
 34 57  1  0  0  0  0
 34 65  1  0  0  0  0
 34 77  2  0  0  0  0
 35 58  1  0  0  0  0
 35 73  1  0  0  0  0
 35 78  2  0  0  0  0
 36 66  1  0  0  0  0
 36 70  1  0  0  0  0
 36 79  2  0  0  0  0
 37 40  1  0  0  0  0
 38 47  1  0  0  0  0
 39 65  1  0  0  0  0
 40 42  1  0  0  0  0
 41 43  1  0  0  0  0
 41 44  1  0  0  0  0
 42 46  1  0  0  0  0
 43 48  1  0  0  0  0
 44 66  1  0  0  0  0
 45 48  1  0  0  0  0
 45 66  1  0  0  0  0
 46 72  1  0  0  0  0
 47 65  1  0  0  0  0
 48 64  1  0  0  0  0
 49 58  1  0  0  0  0
 50 60  1  0  0  0  0
 51 60  1  0  0  0  0
 52 60  1  0  0  0  0
 53 74  1  0  0  0  0
 54 55  1  0  0  0  0
 54 59  1  0  0  0  0
 55 71  1  0  0  0  0
 56 59  1  0  0  0  0
 56 82  1  0  0  0  0
 57 60  1  0  0  0  0
 57 73  1  0  0  0  0
 58 74  1  0  0  0  0
 59 80  1  0  0  0  0
 62 64  1  0  0  0  0
M  CHG  1  74   1
M  ISO  4  36 100  56 101  70 100  82 101
M  END
> <Batch ID>
0199

> <Smiles>
CNC(C)C(=O)NC(C(=O)N1Cc2cc([101O:1][101CH2:1]C(O)CCNc3nc([100NH:0][100C:0](=O)N4CCCC(n5nc(-c6ccc(Oc7ccc(F)cc7F)cc6)c(C(N)=O)c5N)C4)cnc3N)ccc2CC1C(=O)NC1CCCc2ccccc21)C(C)(C)C

> <Shape>
0.206

> <Color>
0.095

> <Negative vol penalty>
0.000

$$$$

  -OEChem-04052305473D

 81 89  0     1  0  0  0  0  0999 V2000
  -28.7078  -32.6700   22.5319 C   0  0  0  0  0  0  0  0  0  0  0  0
  -28.6928  -31.3383   22.1295 C   0  0  0  0  0  0  0  0  0  0  0  0
  -23.0873   -9.9684   19.8746 C   0  0  0  0  0  0  0  0  0  0  0  0
  -24.0492   -9.6977   22.0743 C   0  0  0  0  0  0  0  0  0  0  0  0
  -27.6129  -33.2046   23.2097 C   0  0  0  0  0  0  0  0  0  0  0  0
  -27.5832  -30.5402   22.4057 C   0  0  0  0  0  0  0  0  0  0  0  0
  -26.1710  -27.7347   18.4334 C   0  0  0  0  0  0  0  0  0  0  0  0
  -22.4318   -8.7447   20.0106 C   0  0  0  0  0  0  0  0  0  0  0  0
  -23.3936   -8.4740   22.2104 C   0  0  0  0  0  0  0  0  0  0  0  0
  -26.9190  -26.5892   18.1647 C   0  0  0  0  0  0  0  0  0  0  0  0
  -20.2803   -7.3865   22.9484 C   0  0  0  0  0  0  0  0  0  0  0  0
  -19.6351   -7.1297   24.1581 C   0  0  0  0  0  0  0  0  0  0  0  0
  -25.2341  -25.2428   19.2450 C   0  0  0  0  0  0  0  0  0  0  0  0
  -21.0398   -5.1932   24.4961 C   0  0  0  0  0  0  0  0  0  0  0  0
  -31.0015  -19.0501   20.5351 C   0  0  0  0  0  0  0  0  0  0  0  0
  -23.8960  -10.4449   20.9064 C   0  0  0  0  0  0  0  0  0  0  0  0
  -24.0899  -12.9783   21.1344 C   0  0  0  0  0  0  0  0  0  0  0  0
  -26.4854  -32.4152   23.4859 C   0  0  0  0  0  0  0  0  0  0  0  0
  -24.9521  -27.6438   19.1206 C   0  0  0  0  0  0  0  0  0  0  0  0
  -26.4728  -31.0644   23.0891 C   0  0  0  0  0  0  0  0  0  0  0  0
  -24.4712  -26.3883   19.5189 C   0  0  0  0  0  0  0  0  0  0  0  0
  -22.5849   -7.9975   21.1785 C   0  0  0  0  0  0  0  0  0  0  0  0
  -26.4520  -25.3434   18.5730 C   0  0  0  0  0  0  0  0  0  0  0  0
  -21.3052   -6.5467   22.5125 C   0  0  0  0  0  0  0  0  0  0  0  0
  -20.0148   -6.0330   24.9320 C   0  0  0  0  0  0  0  0  0  0  0  0
  -21.6849   -5.4501   23.2864 C   0  0  0  0  0  0  0  0  0  0  0  0
  -24.5739  -11.7086   20.7663 C   0  0  0  0  0  0  0  0  0  0  0  0
  -30.2434  -18.3454   21.4466 C   0  0  0  0  0  0  0  0  0  0  0  0
  -25.1032  -13.8426   20.7986 C   0  0  0  0  0  0  0  0  0  0  0  0
  -29.1797  -20.2691   20.4613 C   0  0  0  0  0  0  0  0  0  0  0  0
  -22.8365  -13.3438   21.7269 C   0  0  0  0  0  0  0  0  0  0  0  0
  -23.8432  -28.7677   21.8794 C   0  0  0  0  0  0  0  0  0  0  0  0
  -21.0518  -27.4912   20.8301 C   0  0  0  0  0  0  0  0  0  0  0  0
  -28.3371  -22.3186   19.2683 C   0  0  0  0  0  0  0  0  0  0  0  0
  -19.4762  -25.2115   18.8383 C   0  0  0  0  0  0  0  0  0  0  0  0
  -30.5191  -15.1847   20.6894 C   0  0  0  0  0  0  0  0  0  0  0  0
  -25.3454  -33.0245   24.2628 C   0  0  0  0  0  0  0  0  0  0  0  0
  -24.1442  -28.8859   19.3792 C   0  0  0  0  0  0  0  0  0  0  0  0
  -23.1590  -26.2345   20.2419 C   0  0  0  0  0  0  0  0  0  0  0  0
  -24.0542  -32.2137   24.1863 C   0  0  0  0  0  0  0  0  0  0  0  0
  -29.3005  -13.0959   18.0763 C   0  0  0  0  0  0  0  0  0  0  0  0
  -24.3382  -30.7339   24.4233 C   0  0  0  0  0  0  0  0  0  0  0  0
  -27.9257  -12.6489   18.5763 C   0  0  0  0  0  0  0  0  0  0  0  0
  -30.3089  -13.2029   19.2180 C   0  0  0  0  0  0  0  0  0  0  0  0
  -28.5034  -13.6009   20.8476 C   0  0  0  0  0  0  0  0  0  0  0  0
  -25.2774  -30.1734   23.3484 C   0  0  1  0  0  0  0  0  0  0  0  0
  -23.1653  -28.7314   20.5390 C   0  0  1  0  0  0  0  0  0  0  0  0
  -27.4379  -13.5324   19.7402 C   0  0  2  0  0  0  0  0  0  0  0  0
  -17.1898  -24.3798   18.2236 C   0  0  0  0  0  0  0  0  0  0  0  0
  -20.8918  -25.9820   23.4771 C   0  0  0  0  0  0  0  0  0  0  0  0
  -19.1640  -24.4935   22.4440 C   0  0  0  0  0  0  0  0  0  0  0  0
  -18.7191  -26.9360   22.6872 C   0  0  0  0  0  0  0  0  0  0  0  0
  -19.8347  -25.9740   16.0013 C   0  0  0  0  0  0  0  0  0  0  0  0
  -30.5807  -17.1360   22.2217 C   0  0  0  0  0  0  0  0  0  0  0  0
  -27.0638  -23.1433   19.2374 C   0  0  0  0  0  0  0  0  0  1  0  0
  -20.3791  -26.1452   20.9519 C   0  0  1  0  0  0  0  0  0  0  0  0
  -18.3090  -25.3496   17.8777 C   0  0  2  0  0  0  0  0  0  0  0  0
  -19.8142  -25.8919   22.3782 C   0  0  0  0  0  0  0  0  0  0  0  0
  -30.3931  -20.1532   19.9688 N   0  0  0  0  0  0  0  0  0  0  0  0
  -25.7992  -11.7574   20.2370 N   0  0  0  0  0  0  0  0  0  0  0  0
  -26.0937  -13.0683   20.2700 N   0  0  0  0  0  0  0  0  0  0  0  0
  -22.4086  -27.4792   20.4770 N   0  0  0  0  0  0  0  0  0  0  0  0
  -29.7861  -14.0556   20.2884 N   0  0  0  0  0  0  0  0  0  0  0  0
  -25.2345  -15.1818   20.9067 N   0  0  0  0  0  0  0  0  0  0  0  0
  -21.9092  -12.3308   22.0069 N   0  0  0  0  0  0  0  0  0  0  0  0
  -28.2124  -21.2559   20.1566 N   0  0  0  0  0  0  0  0  0  0  0  0
  -24.5515  -29.9294   22.1204 N   0  0  0  0  0  0  0  0  0  0  0  0
  -19.3760  -26.0930   19.8939 N   0  0  0  0  0  0  0  0  0  0  0  0
  -29.9493  -15.9419   21.7056 N   0  0  0  0  0  0  0  0  0  0  0  0
  -18.7523  -25.0768   16.4812 N   0  3  0  0  0  0  0  0  0  0  0  0
  -22.5408  -14.5352   21.9849 O   0  0  0  0  0  0  0  0  0  0  0  0
  -23.7307  -27.8130   22.6395 O   0  0  0  0  0  0  0  0  0  0  0  0
  -20.3957  -28.5158   21.0336 O   0  0  0  0  0  0  0  0  0  0  0  0
  -29.3074  -22.6087   18.5761 O   0  0  0  0  0  0  0  0  0  0  0  0
  -20.3840  -24.4000   18.6712 O   0  0  0  0  0  0  0  0  0  0  0  0
  -31.5985  -15.4979   20.1760 O   0  0  0  0  0  0  0  0  0  0  0  0
  -21.9453   -6.8035   21.3117 O   0  0  0  0  0  0  0  0  0  0  0  0
  -27.1805  -24.2238   18.3126 O   0  0  0  0  0  0  0  0  0  1  0  0
  -19.3962   -5.7874   26.0943 F   0  0  0  0  0  0  0  0  0  0  0  0
  -22.6696   -4.6404   22.8734 F   0  0  0  0  0  0  0  0  0  0  0  0
  -28.7052  -19.0862   21.6105 S   0  0  0  0  0  0  0  0  0  0  0  0
  1  2  1  0  0  0  0
  1  5  2  0  0  0  0
  2  6  2  0  0  0  0
  3  8  2  0  0  0  0
  3 16  1  0  0  0  0
  4  9  1  0  0  0  0
  4 16  2  0  0  0  0
  5 18  1  0  0  0  0
  6 20  1  0  0  0  0
  7 10  2  0  0  0  0
  7 19  1  0  0  0  0
  8 22  1  0  0  0  0
  9 22  2  0  0  0  0
 10 23  1  0  0  0  0
 11 12  2  0  0  0  0
 11 24  1  0  0  0  0
 12 25  1  0  0  0  0
 13 21  1  0  0  0  0
 13 23  2  0  0  0  0
 14 25  2  0  0  0  0
 14 26  1  0  0  0  0
 15 28  2  0  0  0  0
 15 59  1  0  0  0  0
 16 27  1  0  0  0  0
 17 27  1  0  0  0  0
 17 29  2  0  0  0  0
 17 31  1  0  0  0  0
 18 20  2  0  0  0  0
 18 37  1  0  0  0  0
 19 21  2  0  0  0  0
 19 38  1  0  0  0  0
 20 46  1  0  0  0  0
 21 39  1  0  0  0  0
 22 77  1  0  0  0  0
 23 78  1  0  0  0  0
 24 26  2  0  0  0  0
 24 77  1  0  0  0  0
 25 79  1  0  0  0  0
 26 80  1  0  0  0  0
 27 60  2  0  0  0  0
 28 54  1  0  0  0  0
 28 81  1  0  0  0  0
 29 61  1  0  0  0  0
 29 64  1  0  0  0  0
 30 59  2  0  0  0  0
 30 66  1  0  0  0  0
 30 81  1  0  0  0  0
 31 65  1  0  0  0  0
 31 71  2  0  0  0  0
 32 47  1  0  0  0  0
 32 67  1  0  0  0  0
 32 72  2  0  0  0  0
 33 56  1  0  0  0  0
 33 62  1  0  0  0  0
 33 73  2  0  0  0  0
 34 55  1  0  0  0  0
 34 66  1  0  0  0  0
 34 74  2  0  0  0  0
 35 57  1  0  0  0  0
 35 68  1  0  0  0  0
 35 75  2  0  0  0  0
 36 63  1  0  0  0  0
 36 69  1  0  0  0  0
 36 76  2  0  0  0  0
 37 40  1  0  0  0  0
 38 47  1  0  0  0  0
 39 62  1  0  0  0  0
 40 42  1  0  0  0  0
 41 43  1  0  0  0  0
 41 44  1  0  0  0  0
 42 46  1  0  0  0  0
 43 48  1  0  0  0  0
 44 63  1  0  0  0  0
 45 48  1  0  0  0  0
 45 63  1  0  0  0  0
 46 67  1  0  0  0  0
 47 62  1  0  0  0  0
 48 61  1  0  0  0  0
 49 57  1  0  0  0  0
 50 58  1  0  0  0  0
 51 58  1  0  0  0  0
 52 58  1  0  0  0  0
 53 70  1  0  0  0  0
 54 69  1  0  0  0  0
 55 78  1  0  0  0  0
 56 58  1  0  0  0  0
 56 68  1  0  0  0  0
 57 70  1  0  0  0  0
 60 61  1  0  0  0  0
M  CHG  1  70   1
M  ISO  4  36 100  55 101  69 100  78 101
M  END
> <Batch ID>
0199

> <Smiles>
CNC(C)C(=O)NC(C(=O)N1Cc2cc([101O:1][101CH2:1]C(=O)Nc3ncc(C[100NH:0][100C:0](=O)N4CCCC(n5nc(-c6ccc(Oc7ccc(F)cc7F)cc6)c(C(N)=O)c5N)C4)s3)ccc2CC1C(=O)NC1CCCc2ccccc21)C(C)(C)C

> <Shape>
0.359

> <Color>
0.181

> <Negative vol penalty>
0.000

$$$$

  -OEChem-04052305473D

 81 89  0     1  0  0  0  0  0999 V2000
  -25.0066  -35.5766   22.6179 C   0  0  0  0  0  0  0  0  0  0  0  0
  -25.7320  -34.4002   22.4596 C   0  0  0  0  0  0  0  0  0  0  0  0
  -24.7142  -11.6357   21.3768 C   0  0  0  0  0  0  0  0  0  0  0  0
  -25.1688  -11.8266   19.0116 C   0  0  0  0  0  0  0  0  0  0  0  0
  -23.7238  -35.5353   23.1626 C   0  0  0  0  0  0  0  0  0  0  0  0
  -25.1755  -33.1817   22.8469 C   0  0  0  0  0  0  0  0  0  0  0  0
  -25.8950  -29.5361   19.4064 C   0  0  0  0  0  0  0  0  0  0  0  0
  -24.0603  -10.4240   21.1533 C   0  0  0  0  0  0  0  0  0  0  0  0
  -24.5149  -10.6149   18.7881 C   0  0  0  0  0  0  0  0  0  0  0  0
  -27.1544  -28.9394   19.3649 C   0  0  0  0  0  0  0  0  0  0  0  0
  -24.9119   -7.1991   20.5989 C   0  0  0  0  0  0  0  0  0  0  0  0
  -25.1991   -6.1393   21.4591 C   0  0  0  0  0  0  0  0  0  0  0  0
  -26.3028  -27.0684   20.6271 C   0  0  0  0  0  0  0  0  0  0  0  0
  -22.8752   -6.0400   22.1125 C   0  0  0  0  0  0  0  0  0  0  0  0
  -25.2684  -12.3370   20.3059 C   0  0  0  0  0  0  0  0  0  0  0  0
  -27.3103  -13.7792   20.8139 C   0  0  0  0  0  0  0  0  0  0  0  0
  -23.1475  -34.3146   23.5478 C   0  0  0  0  0  0  0  0  0  0  0  0
  -24.8310  -28.9074   20.0691 C   0  0  0  0  0  0  0  0  0  0  0  0
  -23.8843  -33.1242   23.3985 C   0  0  0  0  0  0  0  0  0  0  0  0
  -25.0303  -27.6580   20.6734 C   0  0  0  0  0  0  0  0  0  0  0  0
  -23.9607   -9.9137   19.8590 C   0  0  0  0  0  0  0  0  0  0  0  0
  -27.3592  -27.7067   19.9778 C   0  0  0  0  0  0  0  0  0  0  0  0
  -23.6065   -7.6795   20.4956 C   0  0  0  0  0  0  0  0  0  0  0  0
  -24.1807   -5.5597   22.2158 C   0  0  0  0  0  0  0  0  0  0  0  0
  -22.5881   -7.0999   21.2523 C   0  0  0  0  0  0  0  0  0  0  0  0
  -25.9435  -13.5890   20.5360 C   0  0  0  0  0  0  0  0  0  0  0  0
  -27.4472  -15.1391   20.9492 C   0  0  0  0  0  0  0  0  0  0  0  0
  -30.0311  -22.4961   18.1928 C   0  0  0  0  0  0  0  0  0  0  0  0
  -28.7614  -20.9066   18.5686 C   0  0  0  0  0  0  0  0  0  0  0  0
  -28.3623  -12.8130   20.9385 C   0  0  0  0  0  0  0  0  0  0  0  0
  -22.9904  -29.6395   22.5551 C   0  0  0  0  0  0  0  0  0  0  0  0
  -21.4111  -26.9436   21.6832 C   0  0  0  0  0  0  0  0  0  0  0  0
  -21.4910  -23.9251   20.0930 C   0  0  0  0  0  0  0  0  0  0  0  0
  -26.4016  -20.3338   19.2388 C   0  0  0  0  0  0  0  0  0  0  0  0
  -21.7762  -34.3254   24.1756 C   0  0  0  0  0  0  0  0  0  0  0  0
  -23.4719  -29.5517   20.0819 C   0  0  0  0  0  0  0  0  0  0  0  0
  -23.9158  -26.9322   21.3802 C   0  0  0  0  0  0  0  0  0  0  0  0
  -21.1130  -32.9510   24.2138 C   0  0  0  0  0  0  0  0  0  0  0  0
  -23.9512  -18.7825   21.3043 C   0  0  0  0  0  0  0  0  0  0  0  0
  -22.0950  -31.8982   24.7181 C   0  0  0  0  0  0  0  0  0  0  0  0
  -24.3636  -17.3087   21.3115 C   0  0  0  0  0  0  0  0  0  0  0  0
  -24.1955  -19.4331   19.9440 C   0  0  0  0  0  0  0  0  0  0  0  0
  -25.9700  -17.8050   19.4247 C   0  0  0  0  0  0  0  0  0  0  0  0
  -23.3052  -31.7801   23.7837 C   0  0  1  0  0  0  0  0  0  0  0  0
  -22.5898  -29.0630   21.2266 C   0  0  1  0  0  0  0  0  0  0  0  0
  -25.8031  -17.1237   20.7927 C   0  0  2  0  0  0  0  0  0  0  0  0
  -20.0581  -21.9295   19.5814 C   0  0  0  0  0  0  0  0  0  0  0  0
  -21.7547  -25.9644   24.5525 C   0  0  0  0  0  0  0  0  0  0  0  0
  -21.1842  -23.6589   23.7603 C   0  0  0  0  0  0  0  0  0  0  0  0
  -19.5106  -25.4971   23.5524 C   0  0  0  0  0  0  0  0  0  0  0  0
  -21.7253  -24.3595   17.1749 C   0  0  0  0  0  0  0  0  0  0  0  0
  -29.5173  -24.9351   18.3078 C   0  0  0  0  0  0  0  0  0  0  0  0
  -29.4042  -27.4013   18.8027 C   0  0  0  0  0  0  0  0  0  1  0  0
  -21.5269  -25.4782   22.0271 C   0  0  1  0  0  0  0  0  0  0  0  0
  -20.5417  -23.2868   19.0951 C   0  0  2  0  0  0  0  0  0  0  0  0
  -30.3222  -26.2108   18.5480 C   0  0  1  0  0  0  0  0  0  0  0  0
  -21.0158  -25.1640   23.4615 C   0  0  0  0  0  0  0  0  0  0  0  0
  -25.2607  -14.7363   20.4969 N   0  0  0  0  0  0  0  0  0  0  0  0
  -28.7463  -22.2156   18.5570 N   0  0  0  0  0  0  0  0  0  0  0  0
  -30.8198  -21.4379   17.9835 N   0  0  0  0  0  0  0  0  0  0  0  0
  -26.2024  -15.6605   20.7521 N   0  0  0  0  0  0  0  0  0  0  0  0
  -22.6068  -27.6059   21.3709 N   0  0  0  0  0  0  0  0  0  0  0  0
  -25.5808  -19.2208   19.5188 N   0  0  0  0  0  0  0  0  0  0  0  0
  -28.5097  -15.9279   21.2163 N   0  0  0  0  0  0  0  0  0  0  0  0
  -28.0481  -11.4576   20.7695 N   0  0  0  0  0  0  0  0  0  0  0  0
  -30.4095  -23.8224   18.0706 N   0  0  0  0  0  0  0  0  0  0  0  0
  -27.7083  -20.0097   18.8754 N   0  0  0  0  0  0  0  0  0  0  0  0
  -22.9589  -31.0202   22.6017 N   0  0  0  0  0  0  0  0  0  0  0  0
  -20.8266  -24.7547   20.9714 N   0  0  0  0  0  0  0  0  0  0  0  0
  -21.2196  -23.1010   17.7810 N   0  3  0  0  0  0  0  0  0  0  0  0
  -29.5427  -13.1405   21.2085 O   0  0  0  0  0  0  0  0  0  0  0  0
  -23.3036  -28.8874   23.4704 O   0  0  0  0  0  0  0  0  0  0  0  0
  -20.2999  -27.4791   21.6845 O   0  0  0  0  0  0  0  0  0  0  0  0
  -22.7005  -23.7064   20.0956 O   0  0  0  0  0  0  0  0  0  0  0  0
  -25.9843  -21.4902   19.3422 O   0  0  0  0  0  0  0  0  0  0  0  0
  -29.9612  -20.3610   18.2378 O   0  0  0  0  0  0  0  0  0  0  0  0
  -31.1397  -26.0363   19.7071 O   0  0  0  0  0  0  0  0  0  0  0  0
  -23.3229   -8.7312   19.6406 O   0  0  0  0  0  0  0  0  0  0  0  0
  -28.5876  -27.1224   19.9393 O   0  0  0  0  0  0  0  0  0  1  0  0
  -24.4563   -4.5409   23.0407 F   0  0  0  0  0  0  0  0  0  0  0  0
  -21.3318   -7.5563   21.1564 F   0  0  0  0  0  0  0  0  0  0  0  0
  1  2  1  0  0  0  0
  1  5  2  0  0  0  0
  2  6  2  0  0  0  0
  3  8  2  0  0  0  0
  3 15  1  0  0  0  0
  4  9  1  0  0  0  0
  4 15  2  0  0  0  0
  5 17  1  0  0  0  0
  6 19  1  0  0  0  0
  7 10  2  0  0  0  0
  7 18  1  0  0  0  0
  8 21  1  0  0  0  0
  9 21  2  0  0  0  0
 10 22  1  0  0  0  0
 11 12  2  0  0  0  0
 11 23  1  0  0  0  0
 12 24  1  0  0  0  0
 13 20  1  0  0  0  0
 13 22  2  0  0  0  0
 14 24  2  0  0  0  0
 14 25  1  0  0  0  0
 15 26  1  0  0  0  0
 16 26  1  0  0  0  0
 16 27  2  0  0  0  0
 16 30  1  0  0  0  0
 17 19  2  0  0  0  0
 17 35  1  0  0  0  0
 18 20  2  0  0  0  0
 18 36  1  0  0  0  0
 19 44  1  0  0  0  0
 20 37  1  0  0  0  0
 21 78  1  0  0  0  0
 22 79  1  0  0  0  0
 23 25  2  0  0  0  0
 23 78  1  0  0  0  0
 24 80  1  0  0  0  0
 25 81  1  0  0  0  0
 26 58  2  0  0  0  0
 27 61  1  0  0  0  0
 27 64  1  0  0  0  0
 28 59  1  0  0  0  0
 28 60  2  0  0  0  0
 28 66  1  0  0  0  0
 29 59  2  0  0  0  0
 29 67  1  0  0  0  0
 29 76  1  0  0  0  0
 30 65  1  0  0  0  0
 30 71  2  0  0  0  0
 31 45  1  0  0  0  0
 31 68  1  0  0  0  0
 31 72  2  0  0  0  0
 32 54  1  0  0  0  0
 32 62  1  0  0  0  0
 32 73  2  0  0  0  0
 33 55  1  0  0  0  0
 33 69  1  0  0  0  0
 33 74  2  0  0  0  0
 34 63  1  0  0  0  0
 34 67  1  0  0  0  0
 34 75  2  0  0  0  0
 35 38  1  0  0  0  0
 36 45  1  0  0  0  0
 37 62  1  0  0  0  0
 38 40  1  0  0  0  0
 39 41  1  0  0  0  0
 39 42  1  0  0  0  0
 40 44  1  0  0  0  0
 41 46  1  0  0  0  0
 42 63  1  0  0  0  0
 43 46  1  0  0  0  0
 43 63  1  0  0  0  0
 44 68  1  0  0  0  0
 45 62  1  0  0  0  0
 46 61  1  0  0  0  0
 47 55  1  0  0  0  0
 48 57  1  0  0  0  0
 49 57  1  0  0  0  0
 50 57  1  0  0  0  0
 51 70  1  0  0  0  0
 52 56  1  0  0  0  0
 52 66  1  0  0  0  0
 53 56  1  0  0  0  0
 53 79  1  0  0  0  0
 54 57  1  0  0  0  0
 54 69  1  0  0  0  0
 55 70  1  0  0  0  0
 56 77  1  0  0  0  0
 58 61  1  0  0  0  0
 60 76  1  0  0  0  0
M  CHG  1  70   1
M  ISO  4  34 100  53 101  67 100  79 101
M  END
> <Batch ID>
0199

> <Smiles>
CNC(C)C(=O)NC(C(=O)N1Cc2cc([101O:1][101CH2:1]C(O)CNc3noc([100NH:0][100C:0](=O)N4CCCC(n5nc(-c6ccc(Oc7ccc(F)cc7F)cc6)c(C(N)=O)c5N)C4)n3)ccc2CC1C(=O)NC1CCCc2ccccc21)C(C)(C)C

> <Shape>
0.258

> <Color>
0.085

> <Negative vol penalty>
0.000

$$$$

  -OEChem-04052305473D

 81 89  0     1  0  0  0  0  0999 V2000
  -17.5632  -27.9685   19.2685 C   0  0  0  0  0  0  0  0  0  0  0  0
  -18.9143  -28.0638   18.9509 C   0  0  0  0  0  0  0  0  0  0  0  0
  -26.7697  -12.5725   21.7735 C   0  0  0  0  0  0  0  0  0  0  0  0
  -26.0945  -14.0375   19.9749 C   0  0  0  0  0  0  0  0  0  0  0  0
  -17.1539  -28.0473   20.5990 C   0  0  0  0  0  0  0  0  0  0  0  0
  -19.8568  -28.2391   19.9635 C   0  0  0  0  0  0  0  0  0  0  0  0
  -23.8987  -25.2414   19.3958 C   0  0  0  0  0  0  0  0  0  0  0  0
  -25.4820  -12.0387   21.8221 C   0  0  0  0  0  0  0  0  0  0  0  0
  -24.8067  -13.5037   20.0235 C   0  0  0  0  0  0  0  0  0  0  0  0
  -24.8504  -25.6277   18.4530 C   0  0  0  0  0  0  0  0  0  0  0  0
  -22.4688  -10.0361   22.1767 C   0  0  0  0  0  0  0  0  0  0  0  0
  -22.3445   -8.6499   22.2687 C   0  0  0  0  0  0  0  0  0  0  0  0
  -26.2264  -26.5260   20.2191 C   0  0  0  0  0  0  0  0  0  0  0  0
  -23.5239   -8.4052   20.1744 C   0  0  0  0  0  0  0  0  0  0  0  0
  -30.5631  -22.8311   20.6215 C   0  0  0  0  0  0  0  0  0  0  0  0
  -27.0759  -13.5720   20.8499 C   0  0  0  0  0  0  0  0  0  0  0  0
  -29.4869  -13.6680   20.0218 C   0  0  0  0  0  0  0  0  0  0  0  0
  -18.0927  -28.2140   21.6293 C   0  0  0  0  0  0  0  0  0  0  0  0
  -24.0989  -25.5048   20.7585 C   0  0  0  0  0  0  0  0  0  0  0  0
  -19.4595  -28.3216   21.3089 C   0  0  0  0  0  0  0  0  0  0  0  0
  -25.2768  -26.1398   21.1774 C   0  0  0  0  0  0  0  0  0  0  0  0
  -24.5005  -12.5042   20.9471 C   0  0  0  0  0  0  0  0  0  0  0  0
  -26.0132  -26.2726   18.8643 C   0  0  0  0  0  0  0  0  0  0  0  0
  -23.1206  -10.6070   21.0836 C   0  0  0  0  0  0  0  0  0  0  0  0
  -22.8721   -7.8344   21.2675 C   0  0  0  0  0  0  0  0  0  0  0  0
  -23.6482   -9.7915   20.0824 C   0  0  0  0  0  0  0  0  0  0  0  0
  -28.4058  -14.1242   20.7996 C   0  0  0  0  0  0  0  0  0  0  0  0
  -30.5167  -14.5228   20.3304 C   0  0  0  0  0  0  0  0  0  0  0  0
  -30.0275  -21.5833   20.3799 C   0  0  0  0  0  0  0  0  0  0  0  0
  -29.6037  -23.2515   18.6946 C   0  0  0  0  0  0  0  0  0  0  0  0
  -29.5541  -12.5698   19.1026 C   0  0  0  0  0  0  0  0  0  0  0  0
  -22.5779  -27.2227   22.9583 C   0  0  0  0  0  0  0  0  0  0  0  0
  -24.7447  -25.8659   24.9550 C   0  0  0  0  0  0  0  0  0  0  0  0
  -27.7985  -24.3938   25.3475 C   0  0  0  0  0  0  0  0  0  0  0  0
  -30.6903  -20.1472   22.3407 C   0  0  0  0  0  0  0  0  0  0  0  0
  -17.5981  -28.3411   23.0484 C   0  0  0  0  0  0  0  0  0  0  0  0
  -23.0750  -25.0579   21.7655 C   0  0  0  0  0  0  0  0  0  0  0  0
  -25.5489  -26.4276   22.6305 C   0  0  0  0  0  0  0  0  0  0  0  0
  -18.6936  -28.1517   24.0945 C   0  0  0  0  0  0  0  0  0  0  0  0
  -32.1510  -17.2891   23.8816 C   0  0  0  0  0  0  0  0  0  0  0  0
  -19.9338  -28.9574   23.7207 C   0  0  0  0  0  0  0  0  0  0  0  0
  -31.4592  -16.1115   23.1910 C   0  0  0  0  0  0  0  0  0  0  0  0
  -31.1959  -18.4619   24.0955 C   0  0  0  0  0  0  0  0  0  0  0  0
  -29.7989  -17.7387   22.1995 C   0  0  0  0  0  0  0  0  0  0  0  0
  -20.5142  -28.4871   22.3814 C   0  0  1  0  0  0  0  0  0  0  0  0
  -23.1458  -25.8365   23.0756 C   0  0  1  0  0  0  0  0  0  0  0  0
  -30.7378  -16.5577   21.9041 C   0  0  2  0  0  0  0  0  0  0  0  0
  -29.3078  -23.4261   27.1034 C   0  0  0  0  0  0  0  0  0  0  0  0
  -30.9176  -25.4335   16.8074 C   0  0  0  0  0  0  0  0  0  0  0  0
  -25.4654  -28.6816   25.8837 C   0  0  0  0  0  0  0  0  0  0  0  0
  -27.5603  -27.7411   26.8813 C   0  0  0  0  0  0  0  0  0  0  0  0
  -25.3346  -26.9812   27.7129 C   0  0  0  0  0  0  0  0  0  0  0  0
  -27.7742  -21.7271   24.0641 C   0  0  0  0  0  0  0  0  0  0  0  0
  -28.4969  -25.8905   16.2815 C   0  0  0  0  0  0  0  0  0  0  0  0
  -27.0504  -25.8580   16.7648 C   0  0  0  0  0  0  0  0  0  1  0  0
  -26.1298  -26.2274   25.4344 C   0  0  1  0  0  0  0  0  0  0  0  0
  -28.2224  -23.1331   26.0793 C   0  0  2  0  0  0  0  0  0  0  0  0
  -29.4812  -25.3228   17.3089 C   0  0  1  0  0  0  0  0  0  0  0  0
  -26.1168  -27.4043   26.4504 C   0  0  0  0  0  0  0  0  0  0  0  0
  -30.3215  -23.7888   19.6560 N   0  0  0  0  0  0  0  0  0  0  0  0
  -28.7197  -15.1863   21.5462 N   0  0  0  0  0  0  0  0  0  0  0  0
  -30.0098  -15.4045   21.2391 N   0  0  0  0  0  0  0  0  0  0  0  0
  -24.5147  -25.9768   23.5763 N   0  0  0  0  0  0  0  0  0  0  0  0
  -30.5525  -18.8321   22.8330 N   0  0  0  0  0  0  0  0  0  0  0  0
  -31.7975  -14.5987   19.9104 N   0  0  0  0  0  0  0  0  0  0  0  0
  -28.4041  -11.7939   18.9033 N   0  0  0  0  0  0  0  0  0  0  0  0
  -30.0625  -20.3732   21.1161 N   0  0  0  0  0  0  0  0  0  0  0  0
  -29.1812  -23.9296   17.5653 N   0  0  0  0  0  0  0  0  0  0  0  0
  -21.2563  -27.2571   22.5563 N   0  0  0  0  0  0  0  0  0  0  0  0
  -26.7164  -24.9965   25.9533 N   0  0  0  0  0  0  0  0  0  0  0  0
  -28.7464  -22.1255   25.1144 N   0  3  0  0  0  0  0  0  0  0  0  0
  -30.6076  -12.2749   18.4888 O   0  0  0  0  0  0  0  0  0  0  0  0
  -23.2859  -28.1894   23.2151 O   0  0  0  0  0  0  0  0  0  0  0  0
  -23.9002  -25.4918   25.7726 O   0  0  0  0  0  0  0  0  0  0  0  0
  -28.3724  -24.8049   24.3415 O   0  0  0  0  0  0  0  0  0  0  0  0
  -31.3417  -21.0020   22.9465 O   0  0  0  0  0  0  0  0  0  0  0  0
  -23.2439  -11.9834   20.9941 O   0  0  0  0  0  0  0  0  0  0  0  0
  -26.9435  -26.6512   17.9461 O   0  0  0  0  0  0  0  0  0  1  0  0
  -22.7540   -6.5032   21.3567 F   0  0  0  0  0  0  0  0  0  0  0  0
  -24.2765  -10.3340   19.0304 F   0  0  0  0  0  0  0  0  0  0  0  0
  -29.1834  -21.5988   18.8871 S   0  0  0  0  0  0  0  0  0  0  0  0
  1  2  1  0  0  0  0
  1  5  2  0  0  0  0
  2  6  2  0  0  0  0
  3  8  2  0  0  0  0
  3 16  1  0  0  0  0
  4  9  1  0  0  0  0
  4 16  2  0  0  0  0
  5 18  1  0  0  0  0
  6 20  1  0  0  0  0
  7 10  2  0  0  0  0
  7 19  1  0  0  0  0
  8 22  1  0  0  0  0
  9 22  2  0  0  0  0
 10 23  1  0  0  0  0
 11 12  2  0  0  0  0
 11 24  1  0  0  0  0
 12 25  1  0  0  0  0
 13 21  1  0  0  0  0
 13 23  2  0  0  0  0
 14 25  2  0  0  0  0
 14 26  1  0  0  0  0
 15 29  2  0  0  0  0
 15 60  1  0  0  0  0
 16 27  1  0  0  0  0
 17 27  1  0  0  0  0
 17 28  2  0  0  0  0
 17 31  1  0  0  0  0
 18 20  2  0  0  0  0
 18 36  1  0  0  0  0
 19 21  2  0  0  0  0
 19 37  1  0  0  0  0
 20 45  1  0  0  0  0
 21 38  1  0  0  0  0
 22 77  1  0  0  0  0
 23 78  1  0  0  0  0
 24 26  2  0  0  0  0
 24 77  1  0  0  0  0
 25 79  1  0  0  0  0
 26 80  1  0  0  0  0
 27 61  2  0  0  0  0
 28 62  1  0  0  0  0
 28 65  1  0  0  0  0
 29 67  1  0  0  0  0
 29 81  1  0  0  0  0
 30 60  2  0  0  0  0
 30 68  1  0  0  0  0
 30 81  1  0  0  0  0
 31 66  1  0  0  0  0
 31 72  2  0  0  0  0
 32 46  1  0  0  0  0
 32 69  1  0  0  0  0
 32 73  2  0  0  0  0
 33 56  1  0  0  0  0
 33 63  1  0  0  0  0
 33 74  2  0  0  0  0
 34 57  1  0  0  0  0
 34 70  1  0  0  0  0
 34 75  2  0  0  0  0
 35 64  1  0  0  0  0
 35 67  1  0  0  0  0
 35 76  2  0  0  0  0
 36 39  1  0  0  0  0
 37 46  1  0  0  0  0
 38 63  1  0  0  0  0
 39 41  1  0  0  0  0
 40 42  1  0  0  0  0
 40 43  1  0  0  0  0
 41 45  1  0  0  0  0
 42 47  1  0  0  0  0
 43 64  1  0  0  0  0
 44 47  1  0  0  0  0
 44 64  1  0  0  0  0
 45 69  1  0  0  0  0
 46 63  1  0  0  0  0
 47 62  1  0  0  0  0
 48 57  1  0  0  0  0
 49 58  1  0  0  0  0
 50 59  1  0  0  0  0
 51 59  1  0  0  0  0
 52 59  1  0  0  0  0
 53 71  1  0  0  0  0
 54 55  1  0  0  0  0
 54 58  1  0  0  0  0
 55 78  1  0  0  0  0
 56 59  1  0  0  0  0
 56 70  1  0  0  0  0
 57 71  1  0  0  0  0
 58 68  1  0  0  0  0
 61 62  1  0  0  0  0
M  CHG  1  71   1
M  ISO  4  35 100  55 101  67 100  78 101
M  END
> <Batch ID>
0199

> <Smiles>
CNC(C)C(=O)NC(C(=O)N1Cc2cc([101O:1][101CH2:1]CC(C)Nc3ncc([100NH:0][100C:0](=O)N4CCCC(n5nc(-c6ccc(Oc7ccc(F)cc7F)cc6)c(C(N)=O)c5N)C4)s3)ccc2CC1C(=O)NC1CCCc2ccccc21)C(C)(C)C

> <Shape>
0.243

> <Color>
0.075

> <Negative vol penalty>
0.000

$$$$

  -OEChem-04052305473D

 82 90  0     1  0  0  0  0  0999 V2000
  -14.6891  -27.4581   21.9585 C   0  0  0  0  0  0  0  0  0  0  0  0
  -15.5582  -27.1930   20.9051 C   0  0  0  0  0  0  0  0  0  0  0  0
  -26.5102  -12.5255   21.6811 C   0  0  0  0  0  0  0  0  0  0  0  0
  -25.7154  -13.8856   19.8493 C   0  0  0  0  0  0  0  0  0  0  0  0
  -15.1510  -28.1294   23.0899 C   0  0  0  0  0  0  0  0  0  0  0  0
  -16.8897  -27.6001   20.9819 C   0  0  0  0  0  0  0  0  0  0  0  0
  -21.7679  -24.6861   18.6978 C   0  0  0  0  0  0  0  0  0  0  0  0
  -25.2489  -11.9409   21.7944 C   0  0  0  0  0  0  0  0  0  0  0  0
  -24.4541  -13.3010   19.9625 C   0  0  0  0  0  0  0  0  0  0  0  0
  -22.5014  -24.8618   17.5252 C   0  0  0  0  0  0  0  0  0  0  0  0
  -23.4589   -9.5520   20.2063 C   0  0  0  0  0  0  0  0  0  0  0  0
  -23.3975   -8.1664   20.3539 C   0  0  0  0  0  0  0  0  0  0  0  0
  -24.0981  -26.2077   18.7327 C   0  0  0  0  0  0  0  0  0  0  0  0
  -22.2760   -8.4421   22.4760 C   0  0  0  0  0  0  0  0  0  0  0  0
  -26.7435  -13.4979   20.7086 C   0  0  0  0  0  0  0  0  0  0  0  0
  -29.1204  -13.6601   19.7965 C   0  0  0  0  0  0  0  0  0  0  0  0
  -16.4912  -28.5363   23.1847 C   0  0  0  0  0  0  0  0  0  0  0  0
  -22.1889  -25.2799   19.8964 C   0  0  0  0  0  0  0  0  0  0  0  0
  -17.3697  -28.2786   22.1150 C   0  0  0  0  0  0  0  0  0  0  0  0
  -23.3696  -26.0359   19.9197 C   0  0  0  0  0  0  0  0  0  0  0  0
  -24.2208  -12.3286   20.9351 C   0  0  0  0  0  0  0  0  0  0  0  0
  -23.6651  -25.6250   17.5419 C   0  0  0  0  0  0  0  0  0  0  0  0
  -22.9289  -10.3828   21.1936 C   0  0  0  0  0  0  0  0  0  0  0  0
  -22.8061   -7.6114   21.4888 C   0  0  0  0  0  0  0  0  0  0  0  0
  -22.3374   -9.8278   22.3284 C   0  0  0  0  0  0  0  0  0  0  0  0
  -28.0461  -14.1026   20.5915 C   0  0  0  0  0  0  0  0  0  0  0  0
  -30.1218  -14.5691   20.0358 C   0  0  0  0  0  0  0  0  0  0  0  0
  -29.3562  -21.5911   19.8051 C   0  0  0  0  0  0  0  0  0  0  0  0
  -28.8403  -23.1144   18.0787 C   0  0  0  0  0  0  0  0  0  0  0  0
  -29.2054  -12.5285   18.9201 C   0  0  0  0  0  0  0  0  0  0  0  0
  -20.9590  -27.4315   21.8868 C   0  0  0  0  0  0  0  0  0  0  0  0
  -23.5490  -26.6734   23.6867 C   0  0  0  0  0  0  0  0  0  0  0  0
  -26.7291  -25.4416   23.8131 C   0  0  0  0  0  0  0  0  0  0  0  0
  -30.1175  -20.2740   21.8131 C   0  0  0  0  0  0  0  0  0  0  0  0
  -16.9329  -29.3008   24.4075 C   0  0  0  0  0  0  0  0  0  0  0  0
  -21.4010  -25.0587   21.1584 C   0  0  0  0  0  0  0  0  0  0  0  0
  -23.8754  -26.6777   21.1849 C   0  0  0  0  0  0  0  0  0  0  0  0
  -18.4494  -29.3671   24.5695 C   0  0  0  0  0  0  0  0  0  0  0  0
  -31.7484  -17.5453   23.4167 C   0  0  0  0  0  0  0  0  0  0  0  0
  -19.1118  -29.7383   23.2465 C   0  0  0  0  0  0  0  0  0  0  0  0
  -31.0861  -16.3125   22.7974 C   0  0  0  0  0  0  0  0  0  0  0  0
  -30.7510  -18.6852   23.6157 C   0  0  0  0  0  0  0  0  0  0  0  0
  -29.3265  -17.8266   21.7983 C   0  0  0  0  0  0  0  0  0  0  0  0
  -18.8271  -28.6823   22.1716 C   0  0  1  0  0  0  0  0  0  0  0  0
  -21.6453  -26.1349   22.2117 C   0  0  1  0  0  0  0  0  0  0  0  0
  -30.3054  -16.6746   21.5187 C   0  0  2  0  0  0  0  0  0  0  0  0
  -28.6007  -24.9806   25.4200 C   0  0  0  0  0  0  0  0  0  0  0  0
  -24.2027  -29.6524   23.7762 C   0  0  0  0  0  0  0  0  0  0  0  0
  -26.5099  -29.0521   24.5408 C   0  0  0  0  0  0  0  0  0  0  0  0
  -24.5365  -28.4457   25.9410 C   0  0  0  0  0  0  0  0  0  0  0  0
  -26.6829  -22.5432   23.2160 C   0  0  0  0  0  0  0  0  0  0  0  0
  -26.4757  -25.4494   15.2846 C   0  0  0  0  0  0  0  0  0  0  0  0
  -28.6607  -25.1411   16.6345 C   0  0  0  0  0  0  0  0  0  0  0  0
  -25.7916  -25.9772   16.5369 C   0  0  0  0  0  0  0  0  0  1  0  0
  -24.9651  -27.1858   23.7914 C   0  0  1  0  0  0  0  0  0  0  0  0
  -27.3750  -24.4117   24.7222 C   0  0  2  0  0  0  0  0  0  0  0  0
  -28.0034  -25.5631   15.3194 C   0  0  1  0  0  0  0  0  0  0  0  0
  -25.0432  -28.5736   24.4879 C   0  0  0  0  0  0  0  0  0  0  0  0
  -28.3378  -15.2067   21.2841 N   0  0  0  0  0  0  0  0  0  0  0  0
  -29.8859  -22.7755   20.0253 N   0  0  0  0  0  0  0  0  0  0  0  0
  -29.5825  -23.6693   19.0132 N   0  0  0  0  0  0  0  0  0  0  0  0
  -29.6067  -15.4656   20.9252 N   0  0  0  0  0  0  0  0  0  0  0  0
  -23.0667  -26.4375   22.3914 N   0  0  0  0  0  0  0  0  0  0  0  0
  -30.0522  -18.9758   22.3618 N   0  0  0  0  0  0  0  0  0  0  0  0
  -31.3840  -14.6808   19.5702 N   0  0  0  0  0  0  0  0  0  0  0  0
  -28.0840  -11.6978   18.7908 N   0  0  0  0  0  0  0  0  0  0  0  0
  -29.4417  -20.4229   20.6024 N   0  0  0  0  0  0  0  0  0  0  0  0
  -28.3795  -23.7575   16.9418 N   0  0  0  0  0  0  0  0  0  0  0  0
  -19.6672  -27.5206   22.3692 N   0  0  0  0  0  0  0  0  0  0  0  0
  -25.7299  -26.1381   24.4593 N   0  0  0  0  0  0  0  0  0  0  0  0
  -27.7940  -23.2169   23.9361 N   0  3  0  0  0  0  0  0  0  0  0  0
  -30.2504  -12.2527   18.2834 O   0  0  0  0  0  0  0  0  0  0  0  0
  -21.5577  -28.2883   21.2471 O   0  0  0  0  0  0  0  0  0  0  0  0
  -22.8972  -26.4825   24.7164 O   0  0  0  0  0  0  0  0  0  0  0  0
  -27.0788  -25.6137   22.6475 O   0  0  0  0  0  0  0  0  0  0  0  0
  -30.7505  -21.1795   22.3620 O   0  0  0  0  0  0  0  0  0  0  0  0
  -28.5530  -24.7658   14.2687 O   0  0  0  0  0  0  0  0  0  0  0  0
  -22.9899  -11.7582   21.0452 O   0  0  0  0  0  0  0  0  0  0  0  0
  -24.3825  -25.7986   16.3987 O   0  0  0  0  0  0  0  0  0  1  0  0
  -22.7458   -6.2807   21.6297 F   0  0  0  0  0  0  0  0  0  0  0  0
  -21.8255  -10.6208   23.2796 F   0  0  0  0  0  0  0  0  0  0  0  0
  -28.4512  -21.4669   18.3534 S   0  0  0  0  0  0  0  0  0  0  0  0
  1  2  1  0  0  0  0
  1  5  2  0  0  0  0
  2  6  2  0  0  0  0
  3  8  2  0  0  0  0
  3 15  1  0  0  0  0
  4  9  1  0  0  0  0
  4 15  2  0  0  0  0
  5 17  1  0  0  0  0
  6 19  1  0  0  0  0
  7 10  2  0  0  0  0
  7 18  1  0  0  0  0
  8 21  1  0  0  0  0
  9 21  2  0  0  0  0
 10 22  1  0  0  0  0
 11 12  2  0  0  0  0
 11 23  1  0  0  0  0
 12 24  1  0  0  0  0
 13 20  1  0  0  0  0
 13 22  2  0  0  0  0
 14 24  2  0  0  0  0
 14 25  1  0  0  0  0
 15 26  1  0  0  0  0
 16 26  1  0  0  0  0
 16 27  2  0  0  0  0
 16 30  1  0  0  0  0
 17 19  2  0  0  0  0
 17 35  1  0  0  0  0
 18 20  2  0  0  0  0
 18 36  1  0  0  0  0
 19 44  1  0  0  0  0
 20 37  1  0  0  0  0
 21 78  1  0  0  0  0
 22 79  1  0  0  0  0
 23 25  2  0  0  0  0
 23 78  1  0  0  0  0
 24 80  1  0  0  0  0
 25 81  1  0  0  0  0
 26 59  2  0  0  0  0
 27 62  1  0  0  0  0
 27 65  1  0  0  0  0
 28 60  2  0  0  0  0
 28 67  1  0  0  0  0
 28 82  1  0  0  0  0
 29 61  2  0  0  0  0
 29 68  1  0  0  0  0
 29 82  1  0  0  0  0
 30 66  1  0  0  0  0
 30 72  2  0  0  0  0
 31 45  1  0  0  0  0
 31 69  1  0  0  0  0
 31 73  2  0  0  0  0
 32 55  1  0  0  0  0
 32 63  1  0  0  0  0
 32 74  2  0  0  0  0
 33 56  1  0  0  0  0
 33 70  1  0  0  0  0
 33 75  2  0  0  0  0
 34 64  1  0  0  0  0
 34 67  1  0  0  0  0
 34 76  2  0  0  0  0
 35 38  1  0  0  0  0
 36 45  1  0  0  0  0
 37 63  1  0  0  0  0
 38 40  1  0  0  0  0
 39 41  1  0  0  0  0
 39 42  1  0  0  0  0
 40 44  1  0  0  0  0
 41 46  1  0  0  0  0
 42 64  1  0  0  0  0
 43 46  1  0  0  0  0
 43 64  1  0  0  0  0
 44 69  1  0  0  0  0
 45 63  1  0  0  0  0
 46 62  1  0  0  0  0
 47 56  1  0  0  0  0
 48 58  1  0  0  0  0
 49 58  1  0  0  0  0
 50 58  1  0  0  0  0
 51 71  1  0  0  0  0
 52 54  1  0  0  0  0
 52 57  1  0  0  0  0
 53 57  1  0  0  0  0
 53 68  1  0  0  0  0
 54 79  1  0  0  0  0
 55 58  1  0  0  0  0
 55 70  1  0  0  0  0
 56 71  1  0  0  0  0
 57 77  1  0  0  0  0
 59 62  1  0  0  0  0
 60 61  1  0  0  0  0
M  CHG  1  71   1
M  ISO  4  34 100  54 101  67 100  79 101
M  END
> <Batch ID>
0199

> <Smiles>
CNC(C)C(=O)NC(C(=O)N1Cc2cc([101O:1][101CH2:1]CC(O)CNc3nnc([100NH:0][100C:0](=O)N4CCCC(n5nc(-c6ccc(Oc7ccc(F)cc7F)cc6)c(C(N)=O)c5N)C4)s3)ccc2CC1C(=O)NC1CCCc2ccccc21)C(C)(C)C

> <Shape>
0.250

> <Color>
0.068

> <Negative vol penalty>
0.000

$$$$

  -OEChem-04052305473D

 83 91  0     1  0  0  0  0  0999 V2000
  -28.7025  -32.6098   27.5682 C   0  0  0  0  0  0  0  0  0  0  0  0
  -28.6628  -31.5278   26.6946 C   0  0  0  0  0  0  0  0  0  0  0  0
  -24.0858   -9.4062   19.8429 C   0  0  0  0  0  0  0  0  0  0  0  0
  -24.6554   -9.7016   22.1721 C   0  0  0  0  0  0  0  0  0  0  0  0
  -27.5923  -33.4439   27.6938 C   0  0  0  0  0  0  0  0  0  0  0  0
  -27.5124  -31.2786   25.9470 C   0  0  0  0  0  0  0  0  0  0  0  0
  -28.5372  -30.1992   21.1066 C   0  0  0  0  0  0  0  0  0  0  0  0
  -23.8252   -8.0562   20.0778 C   0  0  0  0  0  0  0  0  0  0  0  0
  -24.3947   -8.3516   22.4071 C   0  0  0  0  0  0  0  0  0  0  0  0
  -28.9912  -28.9117   20.8236 C   0  0  0  0  0  0  0  0  0  0  0  0
  -21.6865   -6.3809   22.8570 C   0  0  0  0  0  0  0  0  0  0  0  0
  -20.9375   -6.0543   23.9874 C   0  0  0  0  0  0  0  0  0  0  0  0
  -26.7726  -28.2934   20.1064 C   0  0  0  0  0  0  0  0  0  0  0  0
  -29.1770  -19.8141   21.8495 C   0  0  0  0  0  0  0  0  0  0  0  0
  -22.7805   -4.7375   24.8281 C   0  0  0  0  0  0  0  0  0  0  0  0
  -27.1990  -19.3634   22.8264 C   0  0  0  0  0  0  0  0  0  0  0  0
  -24.5010  -10.2289   20.8900 C   0  0  0  0  0  0  0  0  0  0  0  0
  -23.8601  -12.6932   20.7351 C   0  0  0  0  0  0  0  0  0  0  0  0
  -26.4312  -33.2104   26.9402 C   0  0  0  0  0  0  0  0  0  0  0  0
  -27.1927  -30.5409   20.9014 C   0  0  0  0  0  0  0  0  0  0  0  0
  -26.3852  -32.1095   26.0637 C   0  0  0  0  0  0  0  0  0  0  0  0
  -26.3046  -29.5866   20.3850 C   0  0  0  0  0  0  0  0  0  0  0  0
  -28.2071  -18.8056   22.0716 C   0  0  0  0  0  0  0  0  0  0  0  0
  -23.9796   -7.5289   21.3599 C   0  0  0  0  0  0  0  0  0  0  0  0
  -28.1083  -27.9578   20.3262 C   0  0  0  0  0  0  0  0  0  0  0  0
  -22.9825   -5.8858   22.7121 C   0  0  0  0  0  0  0  0  0  0  0  0
  -21.4845   -5.2326   24.9730 C   0  0  0  0  0  0  0  0  0  0  0  0
  -23.5295   -5.0641   23.6976 C   0  0  0  0  0  0  0  0  0  0  0  0
  -24.7709  -11.6234   20.6479 C   0  0  0  0  0  0  0  0  0  0  0  0
  -28.7320  -20.9576   22.4756 C   0  0  0  0  0  0  0  0  0  0  0  0
  -24.6024  -13.8032   20.4137 C   0  0  0  0  0  0  0  0  0  0  0  0
  -22.4675  -12.6844   21.0763 C   0  0  0  0  0  0  0  0  0  0  0  0
  -24.8139  -31.5104   22.7736 C   0  0  0  0  0  0  0  0  0  0  0  0
  -23.2489  -31.8457   19.9521 C   0  0  0  0  0  0  0  0  0  0  0  0
  -22.9519  -30.9322   16.6773 C   0  0  0  0  0  0  0  0  0  0  0  0
  -29.2374  -16.8574   20.8511 C   0  0  0  0  0  0  0  0  0  0  0  0
  -25.2394  -34.1117   27.1451 C   0  0  0  0  0  0  0  0  0  0  0  0
  -26.7246  -31.9416   21.1864 C   0  0  0  0  0  0  0  0  0  0  0  0
  -24.8559  -29.9088   20.1279 C   0  0  0  0  0  0  0  0  0  0  0  0
  -24.1930  -33.9986   26.0394 C   0  0  0  0  0  0  0  0  0  0  0  0
  -29.2629  -14.2021   18.4792 C   0  0  0  0  0  0  0  0  0  0  0  0
  -23.9052  -32.5340   25.7246 C   0  0  0  0  0  0  0  0  0  0  0  0
  -28.0216  -13.3825   18.8392 C   0  0  0  0  0  0  0  0  0  0  0  0
  -29.9525  -14.7625   19.7219 C   0  0  0  0  0  0  0  0  0  0  0  0
  -27.8389  -14.7030   20.9863 C   0  0  0  0  0  0  0  0  0  0  0  0
  -25.1644  -31.8210   25.2172 C   0  0  1  0  0  0  0  0  0  0  0  0
  -25.2204  -32.0321   21.4244 C   0  0  1  0  0  0  0  0  0  0  0  0
  -27.0736  -14.1718   19.7632 C   0  0  2  0  0  0  0  0  0  0  0  0
  -21.5543  -31.3483   14.6351 C   0  0  0  0  0  0  0  0  0  0  0  0
  -31.6850  -22.0371   22.8420 C   0  0  0  0  0  0  0  0  0  0  0  0
  -21.0290  -30.1088   21.1203 C   0  0  0  0  0  0  0  0  0  0  0  0
  -20.1604  -29.7773   18.7957 C   0  0  0  0  0  0  0  0  0  0  0  0
  -20.2286  -32.0661   19.7852 C   0  0  0  0  0  0  0  0  0  0  0  0
  -26.7118  -21.5912   23.8292 C   0  0  0  0  0  0  0  0  0  0  0  0
  -25.2726  -31.9627   15.1571 C   0  0  0  0  0  0  0  0  0  0  0  0
  -29.5329  -24.6873   20.9602 C   0  0  0  0  0  0  0  0  0  0  0  0
  -30.6649  -24.1019   21.8159 C   0  0  0  0  0  0  0  0  0  0  0  0
  -29.6311  -26.2036   20.8361 C   0  0  0  0  0  0  0  0  0  1  0  0
  -22.3891  -30.9499   19.0934 C   0  0  1  0  0  0  0  0  0  0  0  0
  -22.7965  -31.7561   15.4119 C   0  0  2  0  0  0  0  0  0  0  0  0
  -30.5597  -22.5778   21.9654 C   0  0  2  0  0  0  0  0  0  0  0  0
  -20.9786  -30.7186   19.7052 C   0  0  0  0  0  0  0  0  0  0  0  0
  -25.9981  -12.0182   20.2982 N   0  0  0  0  0  0  0  0  0  0  0  0
  -27.5289  -20.6718   23.0663 N   0  0  0  0  0  0  0  0  0  0  0  0
  -25.8635  -13.3484   20.1628 N   0  0  0  0  0  0  0  0  0  0  0  0
  -24.4449  -31.2902   20.4283 N   0  0  0  0  0  0  0  0  0  0  0  0
  -28.9942  -15.5013   20.5471 N   0  0  0  0  0  0  0  0  0  0  0  0
  -24.2928  -15.1141   20.3239 N   0  0  0  0  0  0  0  0  0  0  0  0
  -21.8616  -11.4575   21.3793 N   0  0  0  0  0  0  0  0  0  0  0  0
  -28.2412  -17.4646   21.6150 N   0  0  0  0  0  0  0  0  0  0  0  0
  -29.2926  -22.2189   22.5676 N   0  0  0  0  0  0  0  0  0  0  0  0
  -25.4154  -32.1620   23.8333 N   0  0  0  0  0  0  0  0  0  0  0  0
  -22.3727  -31.5517   17.7645 N   0  0  0  0  0  0  0  0  0  0  0  0
  -23.9831  -31.5770   14.5282 N   0  3  0  0  0  0  0  0  0  0  0  0
  -21.7770  -13.7315   21.0955 O   0  0  0  0  0  0  0  0  0  0  0  0
  -24.0126  -30.5862   22.8476 O   0  0  0  0  0  0  0  0  0  0  0  0
  -22.8766  -32.9983   20.1857 O   0  0  0  0  0  0  0  0  0  0  0  0
  -23.5262  -29.8458   16.6986 O   0  0  0  0  0  0  0  0  0  0  0  0
  -30.2411  -17.4449   20.4396 O   0  0  0  0  0  0  0  0  0  0  0  0
  -23.7251   -6.2117   21.5896 O   0  0  0  0  0  0  0  0  0  0  0  0
  -28.5487  -26.7002   20.0498 O   0  0  0  0  0  0  0  0  0  1  0  0
  -20.7656   -4.9202   26.0592 F   0  0  0  0  0  0  0  0  0  0  0  0
  -24.7744   -4.5864   23.5644 F   0  0  0  0  0  0  0  0  0  0  0  0
  1  2  1  0  0  0  0
  1  5  2  0  0  0  0
  2  6  2  0  0  0  0
  3  8  2  0  0  0  0
  3 17  1  0  0  0  0
  4  9  1  0  0  0  0
  4 17  2  0  0  0  0
  5 19  1  0  0  0  0
  6 21  1  0  0  0  0
  7 10  2  0  0  0  0
  7 20  1  0  0  0  0
  8 24  1  0  0  0  0
  9 24  2  0  0  0  0
 10 25  1  0  0  0  0
 11 12  2  0  0  0  0
 11 26  1  0  0  0  0
 12 27  1  0  0  0  0
 13 22  1  0  0  0  0
 13 25  2  0  0  0  0
 14 23  1  0  0  0  0
 14 30  2  0  0  0  0
 15 27  2  0  0  0  0
 15 28  1  0  0  0  0
 16 23  2  0  0  0  0
 16 64  1  0  0  0  0
 17 29  1  0  0  0  0
 18 29  1  0  0  0  0
 18 31  2  0  0  0  0
 18 32  1  0  0  0  0
 19 21  2  0  0  0  0
 19 37  1  0  0  0  0
 20 22  2  0  0  0  0
 20 38  1  0  0  0  0
 21 46  1  0  0  0  0
 22 39  1  0  0  0  0
 23 70  1  0  0  0  0
 24 80  1  0  0  0  0
 25 81  1  0  0  0  0
 26 28  2  0  0  0  0
 26 80  1  0  0  0  0
 27 82  1  0  0  0  0
 28 83  1  0  0  0  0
 29 63  2  0  0  0  0
 30 64  1  0  0  0  0
 30 71  1  0  0  0  0
 31 65  1  0  0  0  0
 31 68  1  0  0  0  0
 32 69  1  0  0  0  0
 32 75  2  0  0  0  0
 33 47  1  0  0  0  0
 33 72  1  0  0  0  0
 33 76  2  0  0  0  0
 34 59  1  0  0  0  0
 34 66  1  0  0  0  0
 34 77  2  0  0  0  0
 35 60  1  0  0  0  0
 35 73  1  0  0  0  0
 35 78  2  0  0  0  0
 36 67  1  0  0  0  0
 36 70  1  0  0  0  0
 36 79  2  0  0  0  0
 37 40  1  0  0  0  0
 38 47  1  0  0  0  0
 39 66  1  0  0  0  0
 40 42  1  0  0  0  0
 41 43  1  0  0  0  0
 41 44  1  0  0  0  0
 42 46  1  0  0  0  0
 43 48  1  0  0  0  0
 44 67  1  0  0  0  0
 45 48  1  0  0  0  0
 45 67  1  0  0  0  0
 46 72  1  0  0  0  0
 47 66  1  0  0  0  0
 48 65  1  0  0  0  0
 49 60  1  0  0  0  0
 50 61  1  0  0  0  0
 51 62  1  0  0  0  0
 52 62  1  0  0  0  0
 53 62  1  0  0  0  0
 54 64  1  0  0  0  0
 55 74  1  0  0  0  0
 56 57  1  0  0  0  0
 56 58  1  0  0  0  0
 57 61  1  0  0  0  0
 58 81  1  0  0  0  0
 59 62  1  0  0  0  0
 59 73  1  0  0  0  0
 60 74  1  0  0  0  0
 61 71  1  0  0  0  0
 63 65  1  0  0  0  0
M  CHG  1  74   1
M  ISO  4  36 100  58 101  70 100  81 101
M  END
> <Batch ID>
0199

> <Smiles>
CNC(C)C(=O)NC(C(=O)N1Cc2cc([101O:1][101CH2:1]CCC(C)Nc3cc([100NH:0][100C:0](=O)N4CCCC(n5nc(-c6ccc(Oc7ccc(F)cc7F)cc6)c(C(N)=O)c5N)C4)cn3C)ccc2CC1C(=O)NC1CCCc2ccccc21)C(C)(C)C

> <Shape>
0.290

> <Color>
0.114

> <Negative vol penalty>
0.000

$$$$

  -OEChem-04052305473D

 81 89  0     1  0  0  0  0  0999 V2000
  -26.1306  -34.2575   24.6522 C   0  0  0  0  0  0  0  0  0  0  0  0
  -26.2877  -32.8780   24.7392 C   0  0  0  0  0  0  0  0  0  0  0  0
  -23.1765   -9.7641   19.9066 C   0  0  0  0  0  0  0  0  0  0  0  0
  -23.9333   -9.7805   22.2010 C   0  0  0  0  0  0  0  0  0  0  0  0
  -25.3276  -34.8048   23.6524 C   0  0  0  0  0  0  0  0  0  0  0  0
  -25.6409  -32.0448   23.8272 C   0  0  0  0  0  0  0  0  0  0  0  0
  -28.6659  -28.3947   22.0463 C   0  0  0  0  0  0  0  0  0  0  0  0
  -22.4997   -8.5667   20.1384 C   0  0  0  0  0  0  0  0  0  0  0  0
  -23.2564   -8.5831   22.4327 C   0  0  0  0  0  0  0  0  0  0  0  0
  -28.8955  -27.2973   22.8749 C   0  0  0  0  0  0  0  0  0  0  0  0
  -20.0788   -7.5931   23.0186 C   0  0  0  0  0  0  0  0  0  0  0  0
  -19.3246   -7.4925   24.1876 C   0  0  0  0  0  0  0  0  0  0  0  0
  -27.2560  -26.0297   21.6404 C   0  0  0  0  0  0  0  0  0  0  0  0
  -20.6744   -5.6185   24.8972 C   0  0  0  0  0  0  0  0  0  0  0  0
  -29.5417  -18.0745   22.8071 C   0  0  0  0  0  0  0  0  0  0  0  0
  -31.4824  -18.9531   22.2430 C   0  0  0  0  0  0  0  0  0  0  0  0
  -23.8934  -10.3710   20.9379 C   0  0  0  0  0  0  0  0  0  0  0  0
  -24.0902  -12.9131   20.8557 C   0  0  0  0  0  0  0  0  0  0  0  0
  -24.6784  -33.9784   22.7217 C   0  0  0  0  0  0  0  0  0  0  0  0
  -27.7201  -28.3213   21.0135 C   0  0  0  0  0  0  0  0  0  0  0  0
  -24.8274  -32.5814   22.8148 C   0  0  0  0  0  0  0  0  0  0  0  0
  -27.0181  -27.1268   20.7984 C   0  0  0  0  0  0  0  0  0  0  0  0
  -22.5396   -7.9762   21.4014 C   0  0  0  0  0  0  0  0  0  0  0  0
  -28.1884  -26.1155   22.6739 C   0  0  0  0  0  0  0  0  0  0  0  0
  -21.1308   -6.7063   22.7887 C   0  0  0  0  0  0  0  0  0  0  0  0
  -19.6224   -6.5053   25.1269 C   0  0  0  0  0  0  0  0  0  0  0  0
  -21.4286   -5.7191   23.7281 C   0  0  0  0  0  0  0  0  0  0  0  0
  -24.5932  -11.6076   20.6989 C   0  0  0  0  0  0  0  0  0  0  0  0
  -30.2551  -17.2331   21.9863 C   0  0  0  0  0  0  0  0  0  0  0  0
  -25.1379  -13.7291   20.5052 C   0  0  0  0  0  0  0  0  0  0  0  0
  -22.7920  -13.3491   21.2804 C   0  0  0  0  0  0  0  0  0  0  0  0
  -25.0158  -29.8480   20.3357 C   0  0  0  0  0  0  0  0  0  0  0  0
  -25.1875  -28.1258   17.5922 C   0  0  0  0  0  0  0  0  0  0  0  0
  -26.3637  -25.3591   15.9771 C   0  0  0  0  0  0  0  0  0  0  0  0
  -30.5351  -15.0832   20.7035 C   0  0  0  0  0  0  0  0  0  0  0  0
  -23.7827  -34.6135   21.6876 C   0  0  0  0  0  0  0  0  0  0  0  0
  -27.5034  -29.5053   20.1115 C   0  0  0  0  0  0  0  0  0  0  0  0
  -26.0066  -26.9899   19.6908 C   0  0  0  0  0  0  0  0  0  0  0  0
  -23.4322  -33.6815   20.5305 C   0  0  0  0  0  0  0  0  0  0  0  0
  -29.5623  -12.6448   18.2983 C   0  0  0  0  0  0  0  0  0  0  0  0
  -23.0166  -32.3111   21.0559 C   0  0  0  0  0  0  0  0  0  0  0  0
  -28.1415  -12.2650   18.7213 C   0  0  0  0  0  0  0  0  0  0  0  0
  -30.4620  -12.9078   19.5045 C   0  0  0  0  0  0  0  0  0  0  0  0
  -28.5158  -13.5015   20.8934 C   0  0  0  0  0  0  0  0  0  0  0  0
  -24.1620  -31.6460   21.8287 C   0  0  1  0  0  0  0  0  0  0  0  0
  -26.1463  -29.4852   19.4149 C   0  0  1  0  0  0  0  0  0  0  0  0
  -27.5553  -13.2902   19.7117 C   0  0  2  0  0  0  0  0  0  0  0  0
  -26.3056  -24.2049   13.7495 C   0  0  0  0  0  0  0  0  0  0  0  0
  -22.3543  -27.1533   18.1728 C   0  0  0  0  0  0  0  0  0  0  0  0
  -22.7104  -25.3309   16.4934 C   0  0  0  0  0  0  0  0  0  0  0  0
  -22.7926  -27.7187   15.7764 C   0  0  0  0  0  0  0  0  0  0  0  0
  -29.2968  -25.5851   15.6532 C   0  0  0  0  0  0  0  0  0  0  0  0
  -29.1500  -22.7637   23.6098 C   0  0  0  0  0  0  0  0  0  0  0  0
  -30.0202  -20.4037   23.7766 C   0  0  0  0  0  0  0  0  0  0  0  0
  -28.2199  -23.7493   22.9104 C   0  0  0  0  0  0  0  0  0  1  0  0
  -24.6929  -26.7704   17.1481 C   0  0  1  0  0  0  0  0  0  0  0  0
  -27.0506  -25.1930   14.6335 C   0  0  2  0  0  0  0  0  0  0  0  0
  -29.0402  -21.3392   23.0549 C   0  0  1  0  0  0  0  0  0  0  0  0
  -23.1552  -26.7462   16.9199 C   0  0  0  0  0  0  0  0  0  0  0  0
  -31.4624  -17.7857   21.6390 N   0  0  0  0  0  0  0  0  0  0  0  0
  -25.8617  -11.5905   20.2812 N   0  0  0  0  0  0  0  0  0  0  0  0
  -30.3409  -19.1719   22.9629 N   0  0  0  0  0  0  0  0  0  0  0  0
  -26.1647  -12.8953   20.1724 N   0  0  0  0  0  0  0  0  0  0  0  0
  -25.8256  -28.1774   18.8396 N   0  0  0  0  0  0  0  0  0  0  0  0
  -29.8444  -13.8919   20.3961 N   0  0  0  0  0  0  0  0  0  0  0  0
  -25.2718  -15.0714   20.4522 N   0  0  0  0  0  0  0  0  0  0  0  0
  -21.8336  -12.3786   21.6026 N   0  0  0  0  0  0  0  0  0  0  0  0
  -29.8353  -15.9575   21.5344 N   0  0  0  0  0  0  0  0  0  0  0  0
  -25.1387  -31.0978   20.9123 N   0  0  0  0  0  0  0  0  0  0  0  0
  -25.4775  -26.4154   15.9704 N   0  0  0  0  0  0  0  0  0  0  0  0
  -28.4435  -24.6977   14.8217 N   0  3  0  0  0  0  0  0  0  0  0  0
  -22.4857  -14.5632   21.3555 O   0  0  0  0  0  0  0  0  0  0  0  0
  -24.0991  -29.0535   20.5091 O   0  0  0  0  0  0  0  0  0  0  0  0
  -25.0204  -29.1015   16.8562 O   0  0  0  0  0  0  0  0  0  0  0  0
  -26.5879  -24.6230   16.9354 O   0  0  0  0  0  0  0  0  0  0  0  0
  -31.6530  -15.3231   20.2401 O   0  0  0  0  0  0  0  0  0  0  0  0
  -27.7171  -20.8477   23.2640 O   0  0  0  0  0  0  0  0  0  0  0  0
  -21.8791   -6.8079   21.6280 O   0  0  0  0  0  0  0  0  0  0  0  0
  -28.4101  -25.0431   23.4817 O   0  0  0  0  0  0  0  0  0  1  0  0
  -18.8991   -6.4098   26.2502 F   0  0  0  0  0  0  0  0  0  0  0  0
  -22.4387   -4.8651   23.5134 F   0  0  0  0  0  0  0  0  0  0  0  0
  1  2  1  0  0  0  0
  1  5  2  0  0  0  0
  2  6  2  0  0  0  0
  3  8  2  0  0  0  0
  3 17  1  0  0  0  0
  4  9  1  0  0  0  0
  4 17  2  0  0  0  0
  5 19  1  0  0  0  0
  6 21  1  0  0  0  0
  7 10  2  0  0  0  0
  7 20  1  0  0  0  0
  8 23  1  0  0  0  0
  9 23  2  0  0  0  0
 10 24  1  0  0  0  0
 11 12  2  0  0  0  0
 11 25  1  0  0  0  0
 12 26  1  0  0  0  0
 13 22  1  0  0  0  0
 13 24  2  0  0  0  0
 14 26  2  0  0  0  0
 14 27  1  0  0  0  0
 15 29  2  0  0  0  0
 15 62  1  0  0  0  0
 16 60  2  0  0  0  0
 16 62  1  0  0  0  0
 17 28  1  0  0  0  0
 18 28  1  0  0  0  0
 18 30  2  0  0  0  0
 18 31  1  0  0  0  0
 19 21  2  0  0  0  0
 19 36  1  0  0  0  0
 20 22  2  0  0  0  0
 20 37  1  0  0  0  0
 21 45  1  0  0  0  0
 22 38  1  0  0  0  0
 23 78  1  0  0  0  0
 24 79  1  0  0  0  0
 25 27  2  0  0  0  0
 25 78  1  0  0  0  0
 26 80  1  0  0  0  0
 27 81  1  0  0  0  0
 28 61  2  0  0  0  0
 29 60  1  0  0  0  0
 29 68  1  0  0  0  0
 30 63  1  0  0  0  0
 30 66  1  0  0  0  0
 31 67  1  0  0  0  0
 31 72  2  0  0  0  0
 32 46  1  0  0  0  0
 32 69  1  0  0  0  0
 32 73  2  0  0  0  0
 33 56  1  0  0  0  0
 33 64  1  0  0  0  0
 33 74  2  0  0  0  0
 34 57  1  0  0  0  0
 34 70  1  0  0  0  0
 34 75  2  0  0  0  0
 35 65  1  0  0  0  0
 35 68  1  0  0  0  0
 35 76  2  0  0  0  0
 36 39  1  0  0  0  0
 37 46  1  0  0  0  0
 38 64  1  0  0  0  0
 39 41  1  0  0  0  0
 40 42  1  0  0  0  0
 40 43  1  0  0  0  0
 41 45  1  0  0  0  0
 42 47  1  0  0  0  0
 43 65  1  0  0  0  0
 44 47  1  0  0  0  0
 44 65  1  0  0  0  0
 45 69  1  0  0  0  0
 46 64  1  0  0  0  0
 47 63  1  0  0  0  0
 48 57  1  0  0  0  0
 49 59  1  0  0  0  0
 50 59  1  0  0  0  0
 51 59  1  0  0  0  0
 52 71  1  0  0  0  0
 53 55  1  0  0  0  0
 53 58  1  0  0  0  0
 54 58  1  0  0  0  0
 54 62  1  0  0  0  0
 55 79  1  0  0  0  0
 56 59  1  0  0  0  0
 56 70  1  0  0  0  0
 57 71  1  0  0  0  0
 58 77  1  0  0  0  0
 61 63  1  0  0  0  0
M  CHG  1  71   1
M  ISO  4  35 100  55 101  68 100  79 101
M  END
> <Batch ID>
0199

> <Smiles>
CNC(C)C(=O)NC(C(=O)N1Cc2cc([101O:1][101CH2:1]CC(O)Cn3cnc([100NH:0][100C:0](=O)N4CCCC(n5nc(-c6ccc(Oc7ccc(F)cc7F)cc6)c(C(N)=O)c5N)C4)c3)ccc2CC1C(=O)NC1CCCc2ccccc21)C(C)(C)C

> <Shape>
0.295

> <Color>
0.188

> <Negative vol penalty>
0.000

$$$$

  -OEChem-04052305473D

 81 89  0     1  0  0  0  0  0999 V2000
  -16.9674  -26.8364   28.4017 C   0  0  0  0  0  0  0  0  0  0  0  0
  -17.4188  -25.6920   27.7521 C   0  0  0  0  0  0  0  0  0  0  0  0
  -23.0731   -9.8693   19.9439 C   0  0  0  0  0  0  0  0  0  0  0  0
  -23.8347   -9.8791   22.2367 C   0  0  0  0  0  0  0  0  0  0  0  0
  -17.7435  -27.9946   28.3912 C   0  0  0  0  0  0  0  0  0  0  0  0
  -18.6462  -25.7056   27.0905 C   0  0  0  0  0  0  0  0  0  0  0  0
  -22.6151  -21.0673   26.5995 C   0  0  0  0  0  0  0  0  0  0  0  0
  -22.3297   -8.7163   20.1957 C   0  0  0  0  0  0  0  0  0  0  0  0
  -23.0913   -8.7260   22.4885 C   0  0  0  0  0  0  0  0  0  0  0  0
  -22.8580  -20.1443   25.5832 C   0  0  0  0  0  0  0  0  0  0  0  0
  -19.3828   -7.9206   21.6502 C   0  0  0  0  0  0  0  0  0  0  0  0
  -18.0755   -7.8735   21.1660 C   0  0  0  0  0  0  0  0  0  0  0  0
  -24.6546  -21.5293   24.7629 C   0  0  0  0  0  0  0  0  0  0  0  0
  -18.6347   -5.9291   19.8455 C   0  0  0  0  0  0  0  0  0  0  0  0
  -29.1302  -19.4913   24.1982 C   0  0  0  0  0  0  0  0  0  0  0  0
  -23.8257  -10.4507   20.9643 C   0  0  0  0  0  0  0  0  0  0  0  0
  -24.1668  -12.9758   20.8412 C   0  0  0  0  0  0  0  0  0  0  0  0
  -18.9855  -28.0195   27.7373 C   0  0  0  0  0  0  0  0  0  0  0  0
  -23.3843  -22.2356   26.6987 C   0  0  0  0  0  0  0  0  0  0  0  0
  -19.4391  -26.8656   27.0701 C   0  0  0  0  0  0  0  0  0  0  0  0
  -24.4211  -22.4644   25.7828 C   0  0  0  0  0  0  0  0  0  0  0  0
  -22.3388   -8.1446   21.4680 C   0  0  0  0  0  0  0  0  0  0  0  0
  -23.8760  -20.3766   24.6630 C   0  0  0  0  0  0  0  0  0  0  0  0
  -20.3160   -6.9720   21.2320 C   0  0  0  0  0  0  0  0  0  0  0  0
  -17.7014   -6.8777   20.2637 C   0  0  0  0  0  0  0  0  0  0  0  0
  -19.9420   -5.9762   20.3297 C   0  0  0  0  0  0  0  0  0  0  0  0
  -24.5943  -11.6414   20.7046 C   0  0  0  0  0  0  0  0  0  0  0  0
  -28.1825  -18.6214   23.7009 C   0  0  0  0  0  0  0  0  0  0  0  0
  -25.2585  -13.7251   20.4762 C   0  0  0  0  0  0  0  0  0  0  0  0
  -29.9533  -17.7744   22.7227 C   0  0  0  0  0  0  0  0  0  0  0  0
  -22.8965  -13.4918   21.2605 C   0  0  0  0  0  0  0  0  0  0  0  0
  -22.7658  -25.3492   26.5351 C   0  0  0  0  0  0  0  0  0  0  0  0
  -25.8872  -25.6170   27.3765 C   0  0  0  0  0  0  0  0  0  0  0  0
  -28.9963  -24.2123   27.4591 C   0  0  0  0  0  0  0  0  0  0  0  0
  -30.7421  -14.7457   20.6591 C   0  0  0  0  0  0  0  0  0  0  0  0
  -19.7674  -29.3089   27.7129 C   0  0  0  0  0  0  0  0  0  0  0  0
  -23.1271  -23.2084   27.8167 C   0  0  0  0  0  0  0  0  0  0  0  0
  -25.2888  -23.6932   25.8579 C   0  0  0  0  0  0  0  0  0  0  0  0
  -21.2278  -29.1281   27.3072 C   0  0  0  0  0  0  0  0  0  0  0  0
  -29.6033  -12.3582   18.2760 C   0  0  0  0  0  0  0  0  0  0  0  0
  -21.3331  -28.2334   26.0763 C   0  0  0  0  0  0  0  0  0  0  0  0
  -28.1662  -12.0646   18.7104 C   0  0  0  0  0  0  0  0  0  0  0  0
  -30.5213  -12.5806   19.4759 C   0  0  0  0  0  0  0  0  0  0  0  0
  -28.6204  -13.3128   20.8631 C   0  0  0  0  0  0  0  0  0  0  0  0
  -20.7764  -26.8335   26.3625 C   0  0  1  0  0  0  0  0  0  0  0  0
  -23.6366  -24.6143   27.5145 C   0  0  1  0  0  0  0  0  0  0  0  0
  -27.6454  -13.1366   19.6865 C   0  0  2  0  0  0  0  0  0  0  0  0
  -31.3543  -24.6877   28.1741 C   0  0  0  0  0  0  0  0  0  0  0  0
  -23.3897  -17.2136   23.5392 C   0  0  0  0  0  0  0  0  0  0  0  0
  -26.2587  -27.4206   24.9436 C   0  0  0  0  0  0  0  0  0  0  0  0
  -28.7303  -27.0856   25.1596 C   0  0  0  0  0  0  0  0  0  0  0  0
  -27.4568  -28.1849   27.0014 C   0  0  0  0  0  0  0  0  0  0  0  0
  -28.9988  -21.9466   29.3632 C   0  0  0  0  0  0  0  0  0  0  0  0
  -30.8084  -16.8977   21.8935 C   0  0  0  0  0  0  0  0  0  0  0  0
  -25.8373  -17.7950   23.4942 C   0  0  0  0  0  0  0  0  0  0  0  0
  -27.1938  -25.6987   26.6248 C   0  0  1  0  0  0  0  0  0  0  0  0
  -30.0161  -24.0880   28.5767 C   0  0  2  0  0  0  0  0  0  0  0  0
  -24.4665  -18.1520   24.0642 C   0  0  1  0  0  0  0  0  0  1  0  0
  -27.3925  -27.0751   25.9295 C   0  0  0  0  0  0  0  0  0  0  0  0
  -25.8588  -11.5454   20.2855 N   0  0  0  0  0  0  0  0  0  0  0  0
  -28.6526  -17.6365   22.8543 N   0  0  0  0  0  0  0  0  0  0  0  0
  -26.2353  -12.8290   20.1554 N   0  0  0  0  0  0  0  0  0  0  0  0
  -24.9940  -24.6176   26.9652 N   0  0  0  0  0  0  0  0  0  0  0  0
  -29.9711  -13.6100   20.3611 N   0  0  0  0  0  0  0  0  0  0  0  0
  -25.4685  -15.0565   20.4015 N   0  0  0  0  0  0  0  0  0  0  0  0
  -21.8851  -12.5827   21.5996 N   0  0  0  0  0  0  0  0  0  0  0  0
  -26.8355  -18.7031   24.0118 N   0  0  0  0  0  0  0  0  0  0  0  0
  -21.7321  -26.0549   27.1207 N   0  0  0  0  0  0  0  0  0  0  0  0
  -28.2386  -25.3576   27.5842 N   0  0  0  0  0  0  0  0  0  0  0  0
  -30.1434  -15.6753   21.5006 N   0  0  0  0  0  0  0  0  0  0  0  0
  -30.2293  -22.6551   28.9263 N   0  3  0  0  0  0  0  0  0  0  0  0
  -22.6600  -14.7224   21.3166 O   0  0  0  0  0  0  0  0  0  0  0  0
  -23.0143  -25.2822   25.3370 O   0  0  0  0  0  0  0  0  0  0  0  0
  -25.6701  -26.4062   28.2994 O   0  0  0  0  0  0  0  0  0  0  0  0
  -28.8857  -23.3790   26.5626 O   0  0  0  0  0  0  0  0  0  0  0  0
  -31.8777  -14.9209   20.2044 O   0  0  0  0  0  0  0  0  0  0  0  0
  -21.6133   -7.0196   21.7142 O   0  0  0  0  0  0  0  0  0  0  0  0
  -24.1147  -19.4776   23.6697 O   0  0  0  0  0  0  0  0  0  1  0  0
  -16.4456   -6.8317   19.8000 F   0  0  0  0  0  0  0  0  0  0  0  0
  -20.8338   -5.0614   19.9252 F   0  0  0  0  0  0  0  0  0  0  0  0
  -30.6763  -19.0671   23.5893 S   0  0  0  0  0  0  0  0  0  0  0  0
  1  2  1  0  0  0  0
  1  5  2  0  0  0  0
  2  6  2  0  0  0  0
  3  8  2  0  0  0  0
  3 16  1  0  0  0  0
  4  9  1  0  0  0  0
  4 16  2  0  0  0  0
  5 18  1  0  0  0  0
  6 20  1  0  0  0  0
  7 10  2  0  0  0  0
  7 19  1  0  0  0  0
  8 22  1  0  0  0  0
  9 22  2  0  0  0  0
 10 23  1  0  0  0  0
 11 12  2  0  0  0  0
 11 24  1  0  0  0  0
 12 25  1  0  0  0  0
 13 21  1  0  0  0  0
 13 23  2  0  0  0  0
 14 25  2  0  0  0  0
 14 26  1  0  0  0  0
 15 28  2  0  0  0  0
 15 81  1  0  0  0  0
 16 27  1  0  0  0  0
 17 27  1  0  0  0  0
 17 29  2  0  0  0  0
 17 31  1  0  0  0  0
 18 20  2  0  0  0  0
 18 36  1  0  0  0  0
 19 21  2  0  0  0  0
 19 37  1  0  0  0  0
 20 45  1  0  0  0  0
 21 38  1  0  0  0  0
 22 77  1  0  0  0  0
 23 78  1  0  0  0  0
 24 26  2  0  0  0  0
 24 77  1  0  0  0  0
 25 79  1  0  0  0  0
 26 80  1  0  0  0  0
 27 60  2  0  0  0  0
 28 61  1  0  0  0  0
 28 67  1  0  0  0  0
 29 62  1  0  0  0  0
 29 65  1  0  0  0  0
 30 54  1  0  0  0  0
 30 61  2  0  0  0  0
 30 81  1  0  0  0  0
 31 66  1  0  0  0  0
 31 72  2  0  0  0  0
 32 46  1  0  0  0  0
 32 68  1  0  0  0  0
 32 73  2  0  0  0  0
 33 56  1  0  0  0  0
 33 63  1  0  0  0  0
 33 74  2  0  0  0  0
 34 57  1  0  0  0  0
 34 69  1  0  0  0  0
 34 75  2  0  0  0  0
 35 64  1  0  0  0  0
 35 70  1  0  0  0  0
 35 76  2  0  0  0  0
 36 39  1  0  0  0  0
 37 46  1  0  0  0  0
 38 63  1  0  0  0  0
 39 41  1  0  0  0  0
 40 42  1  0  0  0  0
 40 43  1  0  0  0  0
 41 45  1  0  0  0  0
 42 47  1  0  0  0  0
 43 64  1  0  0  0  0
 44 47  1  0  0  0  0
 44 64  1  0  0  0  0
 45 68  1  0  0  0  0
 46 63  1  0  0  0  0
 47 62  1  0  0  0  0
 48 57  1  0  0  0  0
 49 58  1  0  0  0  0
 50 59  1  0  0  0  0
 51 59  1  0  0  0  0
 52 59  1  0  0  0  0
 53 71  1  0  0  0  0
 54 70  1  0  0  0  0
 55 58  1  0  0  0  0
 55 67  1  0  0  0  0
 56 59  1  0  0  0  0
 56 69  1  0  0  0  0
 57 71  1  0  0  0  0
 58 78  1  0  0  0  0
 60 62  1  0  0  0  0
M  CHG  1  71   1
M  ISO  4  35 100  58 101  70 100  78 101
M  END
> <Batch ID>
0199

> <Smiles>
CNC(C)C(=O)NC(C(=O)N1Cc2cc([101O:1][101CH:1](C)CNc3csc(C[100NH:0][100C:0](=O)N4CCCC(n5nc(-c6ccc(Oc7ccc(F)cc7F)cc6)c(C(N)=O)c5N)C4)n3)ccc2CC1C(=O)NC1CCCc2ccccc21)C(C)(C)C

> <Shape>
0.149

> <Color>
0.191

> <Negative vol penalty>
0.000

$$$$

  -OEChem-04052305473D

 82 90  0     1  0  0  0  0  0999 V2000
  -24.5344  -30.9680   28.8738 C   0  0  0  0  0  0  0  0  0  0  0  0
  -25.2511  -29.7762   28.9111 C   0  0  0  0  0  0  0  0  0  0  0  0
  -23.2678   -9.7541   19.9367 C   0  0  0  0  0  0  0  0  0  0  0  0
  -23.7160   -9.9214   22.3048 C   0  0  0  0  0  0  0  0  0  0  0  0
  -23.9516  -31.3926   27.6805 C   0  0  0  0  0  0  0  0  0  0  0  0
  -25.3844  -29.0077   27.7552 C   0  0  0  0  0  0  0  0  0  0  0  0
  -30.2315  -25.6463   26.1081 C   0  0  0  0  0  0  0  0  0  0  0  0
  -22.5385   -8.5858   20.1572 C   0  0  0  0  0  0  0  0  0  0  0  0
  -22.9865   -8.7531   22.5254 C   0  0  0  0  0  0  0  0  0  0  0  0
  -30.5091  -24.2844   26.2168 C   0  0  0  0  0  0  0  0  0  0  0  0
  -19.7371   -7.8523   22.7492 C   0  0  0  0  0  0  0  0  0  0  0  0
  -18.8334   -7.8451   23.8117 C   0  0  0  0  0  0  0  0  0  0  0  0
  -32.7262  -15.4554   23.7553 C   0  0  0  0  0  0  0  0  0  0  0  0
  -32.4444  -16.7657   24.2390 C   0  0  0  0  0  0  0  0  0  0  0  0
  -29.7395  -23.9531   23.9547 C   0  0  0  0  0  0  0  0  0  0  0  0
  -20.0335   -6.0068   24.8202 C   0  0  0  0  0  0  0  0  0  0  0  0
  -23.8567  -10.4219   21.0105 C   0  0  0  0  0  0  0  0  0  0  0  0
  -24.1223  -12.9488   20.7826 C   0  0  0  0  0  0  0  0  0  0  0  0
  -24.0861  -30.6338   26.5072 C   0  0  0  0  0  0  0  0  0  0  0  0
  -29.6948  -26.1710   24.9236 C   0  0  0  0  0  0  0  0  0  0  0  0
  -24.8018  -29.4219   26.5454 C   0  0  0  0  0  0  0  0  0  0  0  0
  -29.4584  -25.3225   23.8326 C   0  0  0  0  0  0  0  0  0  0  0  0
  -22.3978   -8.0853   21.4515 C   0  0  0  0  0  0  0  0  0  0  0  0
  -30.2604  -23.4371   25.1410 C   0  0  0  0  0  0  0  0  0  0  0  0
  -20.7890   -6.9366   22.7222 C   0  0  0  0  0  0  0  0  0  0  0  0
  -18.9816   -6.9224   24.8472 C   0  0  0  0  0  0  0  0  0  0  0  0
  -20.9372   -6.0139   23.7577 C   0  0  0  0  0  0  0  0  0  0  0  0
  -24.6107  -11.6285   20.7832 C   0  0  0  0  0  0  0  0  0  0  0  0
  -31.7316  -14.5592   24.0793 C   0  0  0  0  0  0  0  0  0  0  0  0
  -25.2259  -13.7230   20.5199 C   0  0  0  0  0  0  0  0  0  0  0  0
  -31.2448  -16.8209   24.9142 C   0  0  0  0  0  0  0  0  0  0  0  0
  -22.7901  -13.4321   21.0001 C   0  0  0  0  0  0  0  0  0  0  0  0
  -26.9934  -27.6572   24.1505 C   0  0  0  0  0  0  0  0  0  0  0  0
  -28.4506  -27.9769   21.2701 C   0  0  0  0  0  0  0  0  0  0  0  0
  -31.0208  -19.2230   25.6379 C   0  0  0  0  0  0  0  0  0  0  0  0
  -30.7885  -26.8324   19.0630 C   0  0  0  0  0  0  0  0  0  0  0  0
  -31.0939  -12.8759   21.3569 C   0  0  0  0  0  0  0  0  0  0  0  0
  -23.3984  -31.1098   25.2521 C   0  0  0  0  0  0  0  0  0  0  0  0
  -29.4259  -27.6468   24.8131 C   0  0  0  0  0  0  0  0  0  0  0  0
  -28.9019  -25.8394   22.5320 C   0  0  0  0  0  0  0  0  0  0  0  0
  -23.9032  -30.4257   23.9842 C   0  0  0  0  0  0  0  0  0  0  0  0
  -29.4506  -13.5832   18.2786 C   0  0  0  0  0  0  0  0  0  0  0  0
  -23.9946  -28.9172   24.1917 C   0  0  0  0  0  0  0  0  0  0  0  0
  -27.9798  -13.2816   18.5714 C   0  0  0  0  0  0  0  0  0  0  0  0
  -30.3806  -12.6100   18.9995 C   0  0  0  0  0  0  0  0  0  0  0  0
  -28.6908  -12.2050   20.7472 C   0  0  0  0  0  0  0  0  0  0  0  0
  -24.9896  -28.5731   25.3067 C   0  0  1  0  0  0  0  0  0  0  0  0
  -28.3996  -27.9882   23.7372 C   0  0  1  0  0  0  0  0  0  0  0  0
  -27.7160  -13.1949   20.0867 C   0  0  2  0  0  0  0  0  0  0  0  0
  -31.7218  -27.2752   16.7760 C   0  0  0  0  0  0  0  0  0  0  0  0
  -25.9726  -26.7126   20.0166 C   0  0  0  0  0  0  0  0  0  0  0  0
  -27.3125  -26.3132   17.9397 C   0  0  0  0  0  0  0  0  0  0  0  0
  -26.9185  -28.6432   18.7388 C   0  0  0  0  0  0  0  0  0  0  0  0
  -33.4945  -27.3547   20.1417 C   0  0  0  0  0  0  0  0  0  0  0  0
  -31.6532  -13.1165   23.7628 C   0  0  0  0  0  0  0  0  0  0  0  0
  -30.0084  -20.0648   26.4064 C   0  0  0  0  0  0  0  0  0  0  0  0
  -30.4231  -21.5221   26.5418 C   0  0  0  0  0  0  0  0  0  1  0  0
  -28.5170  -27.1512   20.0080 C   0  0  1  0  0  0  0  0  0  0  0  0
  -31.8588  -27.5546   18.2646 C   0  0  2  0  0  0  0  0  0  0  0  0
  -27.1888  -27.1947   19.2008 C   0  0  0  0  0  0  0  0  0  0  0  0
  -25.9225  -11.5639   20.5401 N   0  0  0  0  0  0  0  0  0  0  0  0
  -26.2677  -12.8533   20.3841 N   0  0  0  0  0  0  0  0  0  0  0  0
  -28.6496  -27.2887   22.4753 N   0  0  0  0  0  0  0  0  0  0  0  0
  -30.0794  -12.5761   20.4327 N   0  0  0  0  0  0  0  0  0  0  0  0
  -25.3971  -15.0562   20.3941 N   0  0  0  0  0  0  0  0  0  0  0  0
  -21.7750  -12.5005   21.2572 N   0  0  0  0  0  0  0  0  0  0  0  0
  -30.5877  -17.9029   25.5469 N   0  0  0  0  0  0  0  0  0  0  0  0
  -26.3490  -28.6790   24.8214 N   0  0  0  0  0  0  0  0  0  0  0  0
  -29.6812  -27.6278   19.2692 N   0  0  0  0  0  0  0  0  0  0  0  0
  -30.7223  -12.8269   22.6949 N   0  0  0  0  0  0  0  0  0  0  0  0
  -33.2147  -27.1175   18.7021 N   0  3  0  0  0  0  0  0  0  0  0  0
  -22.5051  -14.6527   20.9511 O   0  0  0  0  0  0  0  0  0  0  0  0
  -26.5272  -26.5569   23.8794 O   0  0  0  0  0  0  0  0  0  0  0  0
  -28.2373  -29.1892   21.1890 O   0  0  0  0  0  0  0  0  0  0  0  0
  -32.0569  -19.6992   25.1863 O   0  0  0  0  0  0  0  0  0  0  0  0
  -30.9199  -25.6769   19.4605 O   0  0  0  0  0  0  0  0  0  0  0  0
  -32.2440  -13.1710   21.0147 O   0  0  0  0  0  0  0  0  0  0  0  0
  -21.6859   -6.9454   21.6671 O   0  0  0  0  0  0  0  0  0  0  0  0
  -30.5298  -22.1072   25.2447 O   0  0  0  0  0  0  0  0  0  1  0  0
  -18.1145   -6.9167   25.8681 F   0  0  0  0  0  0  0  0  0  0  0  0
  -21.9465   -5.1325   23.7379 F   0  0  0  0  0  0  0  0  0  0  0  0
  -30.4643  -15.2976   24.9631 S   0  0  0  0  0  0  0  0  0  0  0  0
  1  2  1  0  0  0  0
  1  5  2  0  0  0  0
  2  6  2  0  0  0  0
  3  8  2  0  0  0  0
  3 17  1  0  0  0  0
  4  9  1  0  0  0  0
  4 17  2  0  0  0  0
  5 19  1  0  0  0  0
  6 21  1  0  0  0  0
  7 10  2  0  0  0  0
  7 20  1  0  0  0  0
  8 23  1  0  0  0  0
  9 23  2  0  0  0  0
 10 24  1  0  0  0  0
 11 12  2  0  0  0  0
 11 25  1  0  0  0  0
 12 26  1  0  0  0  0
 13 14  1  0  0  0  0
 13 29  2  0  0  0  0
 14 31  2  0  0  0  0
 15 22  1  0  0  0  0
 15 24  2  0  0  0  0
 16 26  2  0  0  0  0
 16 27  1  0  0  0  0
 17 28  1  0  0  0  0
 18 28  1  0  0  0  0
 18 30  2  0  0  0  0
 18 32  1  0  0  0  0
 19 21  2  0  0  0  0
 19 38  1  0  0  0  0
 20 22  2  0  0  0  0
 20 39  1  0  0  0  0
 21 47  1  0  0  0  0
 22 40  1  0  0  0  0
 23 78  1  0  0  0  0
 24 79  1  0  0  0  0
 25 27  2  0  0  0  0
 25 78  1  0  0  0  0
 26 80  1  0  0  0  0
 27 81  1  0  0  0  0
 28 61  2  0  0  0  0
 29 55  1  0  0  0  0
 29 82  1  0  0  0  0
 30 62  1  0  0  0  0
 30 65  1  0  0  0  0
 31 67  1  0  0  0  0
 31 82  1  0  0  0  0
 32 66  1  0  0  0  0
 32 72  2  0  0  0  0
 33 48  1  0  0  0  0
 33 68  1  0  0  0  0
 33 73  2  0  0  0  0
 34 58  1  0  0  0  0
 34 63  1  0  0  0  0
 34 74  2  0  0  0  0
 35 56  1  0  0  0  0
 35 67  1  0  0  0  0
 35 75  2  0  0  0  0
 36 59  1  0  0  0  0
 36 69  1  0  0  0  0
 36 76  2  0  0  0  0
 37 64  1  0  0  0  0
 37 70  1  0  0  0  0
 37 77  2  0  0  0  0
 38 41  1  0  0  0  0
 39 48  1  0  0  0  0
 40 63  1  0  0  0  0
 41 43  1  0  0  0  0
 42 44  1  0  0  0  0
 42 45  1  0  0  0  0
 43 47  1  0  0  0  0
 44 49  1  0  0  0  0
 45 64  1  0  0  0  0
 46 49  1  0  0  0  0
 46 64  1  0  0  0  0
 47 68  1  0  0  0  0
 48 63  1  0  0  0  0
 49 62  1  0  0  0  0
 50 59  1  0  0  0  0
 51 60  1  0  0  0  0
 52 60  1  0  0  0  0
 53 60  1  0  0  0  0
 54 71  1  0  0  0  0
 55 70  1  0  0  0  0
 56 57  1  0  0  0  0
 57 79  1  0  0  0  0
 58 60  1  0  0  0  0
 58 69  1  0  0  0  0
 59 71  1  0  0  0  0
 61 62  1  0  0  0  0
M  CHG  1  71   1
M  ISO  4  37 100  57 101  70 100  79 101
M  END
> <Batch ID>
0199

> <Smiles>
CNC(C)C(=O)NC(C(=O)N1Cc2cc([101O:1][101CH2:1]CC(=O)Nc3ccc(C[100NH:0][100C:0](=O)N4CCCC(n5nc(-c6ccc(Oc7ccc(F)cc7F)cc6)c(C(N)=O)c5N)C4)s3)ccc2CC1C(=O)NC1CCCc2ccccc21)C(C)(C)C

> <Shape>
0.218

> <Color>
0.195

> <Negative vol penalty>
0.000

$$$$

  -OEChem-04052305473D

 82 90  0     1  0  0  0  0  0999 V2000
  -34.1951  -33.3767   15.4676 C   0  0  0  0  0  0  0  0  0  0  0  0
  -34.0423  -32.6740   16.6585 C   0  0  0  0  0  0  0  0  0  0  0  0
  -23.0759   -9.8656   19.9417 C   0  0  0  0  0  0  0  0  0  0  0  0
  -23.8366   -9.8739   22.2348 C   0  0  0  0  0  0  0  0  0  0  0  0
  -33.5837  -32.9140   14.3031 C   0  0  0  0  0  0  0  0  0  0  0  0
  -33.2770  -31.5086   16.6858 C   0  0  0  0  0  0  0  0  0  0  0  0
  -34.2778  -26.5265   20.1038 C   0  0  0  0  0  0  0  0  0  0  0  0
  -22.3331   -8.7119   20.1922 C   0  0  0  0  0  0  0  0  0  0  0  0
  -23.0937   -8.7202   22.4854 C   0  0  0  0  0  0  0  0  0  0  0  0
  -33.7314  -26.0916   21.3105 C   0  0  0  0  0  0  0  0  0  0  0  0
  -19.8664   -7.9199   23.0892 C   0  0  0  0  0  0  0  0  0  0  0  0
  -19.1099   -7.8796   24.2604 C   0  0  0  0  0  0  0  0  0  0  0  0
  -32.1595  -24.7213   20.0979 C   0  0  0  0  0  0  0  0  0  0  0  0
  -20.3532   -5.9435   24.9970 C   0  0  0  0  0  0  0  0  0  0  0  0
  -29.7692  -17.7283   22.7134 C   0  0  0  0  0  0  0  0  0  0  0  0
  -32.1902  -18.5647   21.9607 C   0  0  0  0  0  0  0  0  0  0  0  0
  -23.8277  -10.4466   20.9629 C   0  0  0  0  0  0  0  0  0  0  0  0
  -24.1673  -12.9720   20.8420 C   0  0  0  0  0  0  0  0  0  0  0  0
  -32.8185  -31.7371   14.3141 C   0  0  0  0  0  0  0  0  0  0  0  0
  -33.7612  -26.0697   18.8828 C   0  0  0  0  0  0  0  0  0  0  0  0
  -32.6537  -31.0305   15.5207 C   0  0  0  0  0  0  0  0  0  0  0  0
  -32.7028  -25.1499   18.8771 C   0  0  0  0  0  0  0  0  0  0  0  0
  -22.3420   -8.1392   21.4641 C   0  0  0  0  0  0  0  0  0  0  0  0
  -32.6702  -25.1911   21.3076 C   0  0  0  0  0  0  0  0  0  0  0  0
  -20.8663   -6.9718   22.8719 C   0  0  0  0  0  0  0  0  0  0  0  0
  -19.3533   -6.8915   25.2143 C   0  0  0  0  0  0  0  0  0  0  0  0
  -21.1097   -5.9837   23.8258 C   0  0  0  0  0  0  0  0  0  0  0  0
  -24.5957  -11.6380   20.7045 C   0  0  0  0  0  0  0  0  0  0  0  0
  -30.5681  -16.9540   21.9011 C   0  0  0  0  0  0  0  0  0  0  0  0
  -31.3911  -19.3395   22.7723 C   0  0  0  0  0  0  0  0  0  0  0  0
  -25.2587  -13.7223   20.4781 C   0  0  0  0  0  0  0  0  0  0  0  0
  -22.8965  -13.4869   21.2612 C   0  0  0  0  0  0  0  0  0  0  0  0
  -32.3680  -27.4482   16.3803 C   0  0  0  0  0  0  0  0  0  0  0  0
  -32.5769  -24.4684   15.1157 C   0  0  0  0  0  0  0  0  0  0  0  0
  -32.8250  -21.1064   15.6471 C   0  0  0  0  0  0  0  0  0  0  0  0
  -30.7241  -14.7726   20.6507 C   0  0  0  0  0  0  0  0  0  0  0  0
  -32.1379  -31.3019   13.0405 C   0  0  0  0  0  0  0  0  0  0  0  0
  -34.3792  -26.5278   17.5903 C   0  0  0  0  0  0  0  0  0  0  0  0
  -32.1252  -24.6136   17.5937 C   0  0  0  0  0  0  0  0  0  0  0  0
  -31.6524  -29.8550   13.0732 C   0  0  0  0  0  0  0  0  0  0  0  0
  -29.6109  -12.3571   18.2835 C   0  0  0  0  0  0  0  0  0  0  0  0
  -30.9209  -29.5667   14.3803 C   0  0  0  0  0  0  0  0  0  0  0  0
  -28.1717  -12.0644   18.7137 C   0  0  0  0  0  0  0  0  0  0  0  0
  -30.5262  -12.5871   19.4848 C   0  0  0  0  0  0  0  0  0  0  0  0
  -28.6191  -13.3103   20.8664 C   0  0  0  0  0  0  0  0  0  0  0  0
  -31.8518  -29.7487   15.5852 C   0  0  1  0  0  0  0  0  0  0  0  0
  -33.4380  -26.3934   16.3973 C   0  0  1  0  0  0  0  0  0  0  0  0
  -27.6461  -13.1359   19.6890 C   0  0  2  0  0  0  0  0  0  0  0  0
  -32.9369  -18.9209   14.4189 C   0  0  0  0  0  0  0  0  0  0  0  0
  -31.2153  -20.9755   25.4818 C   0  0  0  0  0  0  0  0  0  0  0  0
  -29.5808  -24.6294   14.5612 C   0  0  0  0  0  0  0  0  0  0  0  0
  -29.5780  -22.1469   14.2370 C   0  0  0  0  0  0  0  0  0  0  0  0
  -30.9280  -23.5991   12.7233 C   0  0  0  0  0  0  0  0  0  0  0  0
  -35.4950  -20.4839   16.7619 C   0  0  0  0  0  0  0  0  0  0  0  0
  -31.6918  -22.8909   23.9168 C   0  0  0  0  0  0  0  0  0  0  0  0
  -31.5712  -23.4545   22.5045 C   0  0  0  0  0  0  0  0  0  1  0  0
  -31.6911  -23.2460   15.1076 C   0  0  1  0  0  0  0  0  0  0  0  0
  -33.7368  -20.0553   15.0403 C   0  0  2  0  0  0  0  0  0  0  0  0
  -31.1293  -21.4715   24.0418 C   0  0  1  0  0  0  0  0  0  0  0  0
  -30.4539  -23.4168   14.1816 C   0  0  0  0  0  0  0  0  0  0  0  0
  -31.7930  -17.3581   21.5105 N   0  0  0  0  0  0  0  0  0  0  0  0
  -30.1663  -18.9351   23.1633 N   0  0  0  0  0  0  0  0  0  0  0  0
  -25.8605  -11.5432   20.2859 N   0  0  0  0  0  0  0  0  0  0  0  0
  -26.2362  -12.8270   20.1570 N   0  0  0  0  0  0  0  0  0  0  0  0
  -32.7595  -25.0964   16.3559 N   0  0  0  0  0  0  0  0  0  0  0  0
  -29.9667  -13.6177   20.3620 N   0  0  0  0  0  0  0  0  0  0  0  0
  -25.4680  -15.0539   20.4046 N   0  0  0  0  0  0  0  0  0  0  0  0
  -21.8855  -12.5769   21.5991 N   0  0  0  0  0  0  0  0  0  0  0  0
  -30.0762  -15.6974   21.4690 N   0  0  0  0  0  0  0  0  0  0  0  0
  -31.8732  -20.5669   23.1903 N   0  0  0  0  0  0  0  0  0  0  0  0
  -32.7311  -28.6073   15.7215 N   0  0  0  0  0  0  0  0  0  0  0  0
  -32.5508  -22.1213   14.7549 N   0  0  0  0  0  0  0  0  0  0  0  0
  -34.6328  -19.4819   16.0840 N   0  3  0  0  0  0  0  0  0  0  0  0
  -22.6593  -14.7173   21.3182 O   0  0  0  0  0  0  0  0  0  0  0  0
  -31.2922  -27.2264   16.9235 O   0  0  0  0  0  0  0  0  0  0  0  0
  -33.0936  -24.8478   14.0619 O   0  0  0  0  0  0  0  0  0  0  0  0
  -32.3957  -21.0326   16.7964 O   0  0  0  0  0  0  0  0  0  0  0  0
  -31.8529  -14.9421   20.1826 O   0  0  0  0  0  0  0  0  0  0  0  0
  -21.6171   -7.0136   21.7090 O   0  0  0  0  0  0  0  0  0  0  0  0
  -32.1346  -24.7654   22.4840 O   0  0  0  0  0  0  0  0  0  1  0  0
  -18.6278   -6.8539   26.3396 F   0  0  0  0  0  0  0  0  0  0  0  0
  -22.0698   -5.0710   23.6231 F   0  0  0  0  0  0  0  0  0  0  0  0
  1  2  1  0  0  0  0
  1  5  2  0  0  0  0
  2  6  2  0  0  0  0
  3  8  2  0  0  0  0
  3 17  1  0  0  0  0
  4  9  1  0  0  0  0
  4 17  2  0  0  0  0
  5 19  1  0  0  0  0
  6 21  1  0  0  0  0
  7 10  2  0  0  0  0
  7 20  1  0  0  0  0
  8 23  1  0  0  0  0
  9 23  2  0  0  0  0
 10 24  1  0  0  0  0
 11 12  2  0  0  0  0
 11 25  1  0  0  0  0
 12 26  1  0  0  0  0
 13 22  1  0  0  0  0
 13 24  2  0  0  0  0
 14 26  2  0  0  0  0
 14 27  1  0  0  0  0
 15 29  2  0  0  0  0
 15 62  1  0  0  0  0
 16 30  1  0  0  0  0
 16 61  2  0  0  0  0
 17 28  1  0  0  0  0
 18 28  1  0  0  0  0
 18 31  2  0  0  0  0
 18 32  1  0  0  0  0
 19 21  2  0  0  0  0
 19 37  1  0  0  0  0
 20 22  2  0  0  0  0
 20 38  1  0  0  0  0
 21 46  1  0  0  0  0
 22 39  1  0  0  0  0
 23 79  1  0  0  0  0
 24 80  1  0  0  0  0
 25 27  2  0  0  0  0
 25 79  1  0  0  0  0
 26 81  1  0  0  0  0
 27 82  1  0  0  0  0
 28 63  2  0  0  0  0
 29 61  1  0  0  0  0
 29 69  1  0  0  0  0
 30 62  2  0  0  0  0
 30 70  1  0  0  0  0
 31 64  1  0  0  0  0
 31 67  1  0  0  0  0
 32 68  1  0  0  0  0
 32 74  2  0  0  0  0
 33 47  1  0  0  0  0
 33 71  1  0  0  0  0
 33 75  2  0  0  0  0
 34 57  1  0  0  0  0
 34 65  1  0  0  0  0
 34 76  2  0  0  0  0
 35 58  1  0  0  0  0
 35 72  1  0  0  0  0
 35 77  2  0  0  0  0
 36 66  1  0  0  0  0
 36 69  1  0  0  0  0
 36 78  2  0  0  0  0
 37 40  1  0  0  0  0
 38 47  1  0  0  0  0
 39 65  1  0  0  0  0
 40 42  1  0  0  0  0
 41 43  1  0  0  0  0
 41 44  1  0  0  0  0
 42 46  1  0  0  0  0
 43 48  1  0  0  0  0
 44 66  1  0  0  0  0
 45 48  1  0  0  0  0
 45 66  1  0  0  0  0
 46 71  1  0  0  0  0
 47 65  1  0  0  0  0
 48 64  1  0  0  0  0
 49 58  1  0  0  0  0
 50 59  1  0  0  0  0
 51 60  1  0  0  0  0
 52 60  1  0  0  0  0
 53 60  1  0  0  0  0
 54 73  1  0  0  0  0
 55 56  1  0  0  0  0
 55 59  1  0  0  0  0
 56 80  1  0  0  0  0
 57 60  1  0  0  0  0
 57 72  1  0  0  0  0
 58 73  1  0  0  0  0
 59 70  1  0  0  0  0
 63 64  1  0  0  0  0
M  CHG  1  73   1
M  ISO  4  36 100  56 101  69 100  80 101
M  END
> <Batch ID>
0199

> <Smiles>
CNC(C)C(=O)NC(C(=O)N1Cc2cc([101O:1][101CH2:1]CC(C)Nc3cnc([100NH:0][100C:0](=O)N4CCCC(n5nc(-c6ccc(Oc7ccc(F)cc7F)cc6)c(C(N)=O)c5N)C4)cn3)ccc2CC1C(=O)NC1CCCc2ccccc21)C(C)(C)C

> <Shape>
0.180

> <Color>
0.188

> <Negative vol penalty>
0.000

$$$$

  -OEChem-04052305473D

 83 91  0     1  0  0  0  0  0999 V2000
  -20.4807  -34.6542   22.7421 C   0  0  0  0  0  0  0  0  0  0  0  0
  -21.7109  -34.1479   22.3350 C   0  0  0  0  0  0  0  0  0  0  0  0
  -24.4372  -12.3056   21.2189 C   0  0  0  0  0  0  0  0  0  0  0  0
  -23.9413  -12.9294   18.9381 C   0  0  0  0  0  0  0  0  0  0  0  0
  -19.6130  -33.8581   23.4886 C   0  0  0  0  0  0  0  0  0  0  0  0
  -22.0745  -32.8453   22.6751 C   0  0  0  0  0  0  0  0  0  0  0  0
  -25.3858  -28.9485   19.3053 C   0  0  0  0  0  0  0  0  0  0  0  0
  -23.4332  -11.3384   21.1727 C   0  0  0  0  0  0  0  0  0  0  0  0
  -22.9374  -11.9622   18.8918 C   0  0  0  0  0  0  0  0  0  0  0  0
  -26.7346  -28.5967   19.3327 C   0  0  0  0  0  0  0  0  0  0  0  0
  -23.0353   -8.2185   19.9313 C   0  0  0  0  0  0  0  0  0  0  0  0
  -23.3279   -6.9555   20.4457 C   0  0  0  0  0  0  0  0  0  0  0  0
  -26.2006  -26.6795   20.6959 C   0  0  0  0  0  0  0  0  0  0  0  0
  -21.5366   -7.1937   22.0493 C   0  0  0  0  0  0  0  0  0  0  0  0
  -31.2131  -20.9334   16.5170 C   0  0  0  0  0  0  0  0  0  0  0  0
  -24.6912  -13.1012   20.1016 C   0  0  0  0  0  0  0  0  0  0  0  0
  -27.0839  -13.9361   19.8089 C   0  0  0  0  0  0  0  0  0  0  0  0
  -19.9621  -32.5420   23.8298 C   0  0  0  0  0  0  0  0  0  0  0  0
  -24.4341  -28.1732   19.9831 C   0  0  0  0  0  0  0  0  0  0  0  0
  -21.2112  -32.0314   23.4280 C   0  0  0  0  0  0  0  0  0  0  0  0
  -24.8400  -27.0221   20.6734 C   0  0  0  0  0  0  0  0  0  0  0  0
  -31.4687  -22.2645   16.7762 C   0  0  0  0  0  0  0  0  0  0  0  0
  -22.6833  -11.1666   20.0091 C   0  0  0  0  0  0  0  0  0  0  0  0
  -27.1426  -27.4637   20.0305 C   0  0  0  0  0  0  0  0  0  0  0  0
  -21.9935   -8.9693   20.4759 C   0  0  0  0  0  0  0  0  0  0  0  0
  -22.5785   -6.4430   21.5047 C   0  0  0  0  0  0  0  0  0  0  0  0
  -21.2441   -8.4568   21.5349 C   0  0  0  0  0  0  0  0  0  0  0  0
  -25.7278  -14.1009   20.1490 C   0  0  0  0  0  0  0  0  0  0  0  0
  -30.6349  -22.8641   17.6978 C   0  0  0  0  0  0  0  0  0  0  0  0
  -27.6444  -15.1714   20.0240 C   0  0  0  0  0  0  0  0  0  0  0  0
  -29.4789  -20.9283   17.9865 C   0  0  0  0  0  0  0  0  0  0  0  0
  -27.7751  -12.7706   19.3403 C   0  0  0  0  0  0  0  0  0  0  0  0
  -22.4031  -28.6973   22.3715 C   0  0  0  0  0  0  0  0  0  0  0  0
  -21.3827  -25.7055   21.6436 C   0  0  0  0  0  0  0  0  0  0  0  0
  -22.0767  -22.6643   20.2592 C   0  0  0  0  0  0  0  0  0  0  0  0
  -27.5281  -20.7194   19.5667 C   0  0  0  0  0  0  0  0  0  0  0  0
  -19.0113  -31.7355   24.6785 C   0  0  0  0  0  0  0  0  0  0  0  0
  -22.9795  -28.5511   19.9215 C   0  0  0  0  0  0  0  0  0  0  0  0
  -23.8552  -26.1448   21.4006 C   0  0  0  0  0  0  0  0  0  0  0  0
  -19.3135  -30.2392   24.6777 C   0  0  0  0  0  0  0  0  0  0  0  0
  -25.7780  -19.2817   22.3140 C   0  0  0  0  0  0  0  0  0  0  0  0
  -20.8043  -29.9956   24.8895 C   0  0  0  0  0  0  0  0  0  0  0  0
  -25.7205  -17.7921   21.9677 C   0  0  0  0  0  0  0  0  0  0  0  0
  -25.6319  -20.1589   21.0718 C   0  0  0  0  0  0  0  0  0  0  0  0
  -26.5066  -18.3599   19.6338 C   0  0  0  0  0  0  0  0  0  0  0  0
  -21.6310  -30.6150   23.7562 C   0  0  1  0  0  0  0  0  0  0  0  0
  -22.1634  -27.9763   21.0752 C   0  0  1  0  0  0  0  0  0  0  0  0
  -26.7145  -17.4358   20.8448 C   0  0  2  0  0  0  0  0  0  0  0  0
  -21.0574  -20.4084   19.8477 C   0  0  0  0  0  0  0  0  0  0  0  0
  -21.8004  -24.9840   24.5788 C   0  0  0  0  0  0  0  0  0  0  0  0
  -21.6954  -22.5687   23.9279 C   0  0  0  0  0  0  0  0  0  0  0  0
  -19.7185  -24.0449   23.5597 C   0  0  0  0  0  0  0  0  0  0  0  0
  -22.3292  -22.9569   17.3250 C   0  0  0  0  0  0  0  0  0  0  0  0
  -29.8346  -25.0489   18.5987 C   0  0  0  0  0  0  0  0  0  0  0  0
  -29.2489  -27.4759   18.9263 C   0  0  0  0  0  0  0  0  0  1  0  0
  -21.7558  -24.3113   22.0865 C   0  0  1  0  0  0  0  0  0  0  0  0
  -21.2979  -21.8002   19.2839 C   0  0  2  0  0  0  0  0  0  0  0  0
  -30.3801  -26.4650   18.7725 C   0  0  1  0  0  0  0  0  0  0  0  0
  -21.2616  -23.9946   23.5262 C   0  0  0  0  0  0  0  0  0  0  0  0
  -30.2228  -20.2317   17.1062 N   0  0  0  0  0  0  0  0  0  0  0  0
  -25.4440  -15.3429   20.5499 N   0  0  0  0  0  0  0  0  0  0  0  0
  -29.6262  -22.2235   18.3243 N   0  0  0  0  0  0  0  0  0  0  0  0
  -26.6295  -15.9698   20.4631 N   0  0  0  0  0  0  0  0  0  0  0  0
  -22.4451  -26.5597   21.3161 N   0  0  0  0  0  0  0  0  0  0  0  0
  -26.6082  -19.7665   20.0531 N   0  0  0  0  0  0  0  0  0  0  0  0
  -32.5144  -22.9381   16.1313 N   0  0  0  0  0  0  0  0  0  0  0  0
  -28.9014  -15.6417   19.8786 N   0  0  0  0  0  0  0  0  0  0  0  0
  -27.0479  -11.5840   19.1746 N   0  0  0  0  0  0  0  0  0  0  0  0
  -30.8403  -24.1993   18.0013 N   0  0  0  0  0  0  0  0  0  0  0  0
  -28.4288  -20.2230   18.6250 N   0  0  0  0  0  0  0  0  0  0  0  0
  -21.5717  -29.7823   22.5740 N   0  0  0  0  0  0  0  0  0  0  0  0
  -21.2395  -23.4067   21.0650 N   0  0  0  0  0  0  0  0  0  0  0  0
  -22.0445  -21.6651   18.0012 N   0  3  0  0  0  0  0  0  0  0  0  0
  -29.0047  -12.7769   19.0920 O   0  0  0  0  0  0  0  0  0  0  0  0
  -23.2767  -28.2979   23.1324 O   0  0  0  0  0  0  0  0  0  0  0  0
  -20.1921  -26.0225   21.5835 O   0  0  0  0  0  0  0  0  0  0  0  0
  -23.3049  -22.6766   20.3044 O   0  0  0  0  0  0  0  0  0  0  0  0
  -27.5351  -21.8829   19.9769 O   0  0  0  0  0  0  0  0  0  0  0  0
  -31.1743  -26.5174   19.9594 O   0  0  0  0  0  0  0  0  0  0  0  0
  -21.7038  -10.2228   19.9636 O   0  0  0  0  0  0  0  0  0  0  0  0
  -28.4586  -27.1185   20.0595 O   0  0  0  0  0  0  0  0  0  1  0  0
  -22.8585   -5.2294   21.9976 F   0  0  0  0  0  0  0  0  0  0  0  0
  -20.2412   -9.1729   22.0615 F   0  0  0  0  0  0  0  0  0  0  0  0
  1  2  1  0  0  0  0
  1  5  2  0  0  0  0
  2  6  2  0  0  0  0
  3  8  2  0  0  0  0
  3 16  1  0  0  0  0
  4  9  1  0  0  0  0
  4 16  2  0  0  0  0
  5 18  1  0  0  0  0
  6 20  1  0  0  0  0
  7 10  2  0  0  0  0
  7 19  1  0  0  0  0
  8 23  1  0  0  0  0
  9 23  2  0  0  0  0
 10 24  1  0  0  0  0
 11 12  2  0  0  0  0
 11 25  1  0  0  0  0
 12 26  1  0  0  0  0
 13 21  1  0  0  0  0
 13 24  2  0  0  0  0
 14 26  2  0  0  0  0
 14 27  1  0  0  0  0
 15 22  1  0  0  0  0
 15 60  2  0  0  0  0
 16 28  1  0  0  0  0
 17 28  1  0  0  0  0
 17 30  2  0  0  0  0
 17 32  1  0  0  0  0
 18 20  2  0  0  0  0
 18 37  1  0  0  0  0
 19 21  2  0  0  0  0
 19 38  1  0  0  0  0
 20 46  1  0  0  0  0
 21 39  1  0  0  0  0
 22 29  2  0  0  0  0
 22 66  1  0  0  0  0
 23 80  1  0  0  0  0
 24 81  1  0  0  0  0
 25 27  2  0  0  0  0
 25 80  1  0  0  0  0
 26 82  1  0  0  0  0
 27 83  1  0  0  0  0
 28 61  2  0  0  0  0
 29 62  1  0  0  0  0
 29 69  1  0  0  0  0
 30 63  1  0  0  0  0
 30 67  1  0  0  0  0
 31 60  1  0  0  0  0
 31 62  2  0  0  0  0
 31 70  1  0  0  0  0
 32 68  1  0  0  0  0
 32 74  2  0  0  0  0
 33 47  1  0  0  0  0
 33 71  1  0  0  0  0
 33 75  2  0  0  0  0
 34 56  1  0  0  0  0
 34 64  1  0  0  0  0
 34 76  2  0  0  0  0
 35 57  1  0  0  0  0
 35 72  1  0  0  0  0
 35 77  2  0  0  0  0
 36 65  1  0  0  0  0
 36 70  1  0  0  0  0
 36 78  2  0  0  0  0
 37 40  1  0  0  0  0
 38 47  1  0  0  0  0
 39 64  1  0  0  0  0
 40 42  1  0  0  0  0
 41 43  1  0  0  0  0
 41 44  1  0  0  0  0
 42 46  1  0  0  0  0
 43 48  1  0  0  0  0
 44 65  1  0  0  0  0
 45 48  1  0  0  0  0
 45 65  1  0  0  0  0
 46 71  1  0  0  0  0
 47 64  1  0  0  0  0
 48 63  1  0  0  0  0
 49 57  1  0  0  0  0
 50 59  1  0  0  0  0
 51 59  1  0  0  0  0
 52 59  1  0  0  0  0
 53 73  1  0  0  0  0
 54 58  1  0  0  0  0
 54 69  1  0  0  0  0
 55 58  1  0  0  0  0
 55 81  1  0  0  0  0
 56 59  1  0  0  0  0
 56 72  1  0  0  0  0
 57 73  1  0  0  0  0
 58 79  1  0  0  0  0
 61 63  1  0  0  0  0
M  CHG  1  73   1
M  ISO  4  36 100  55 101  70 100  81 101
M  END
> <Batch ID>
0199

> <Smiles>
CNC(C)C(=O)NC(C(=O)N1Cc2cc([101O:1][101CH2:1]C(O)CNc3nc([100NH:0][100C:0](=O)N4CCCC(n5nc(-c6ccc(Oc7ccc(F)cc7F)cc6)c(C(N)=O)c5N)C4)ncc3N)ccc2CC1C(=O)NC1CCCc2ccccc21)C(C)(C)C

> <Shape>
0.242

> <Color>
0.082

> <Negative vol penalty>
0.000

$$$$

  -OEChem-04052305473D

 84 92  0     1  0  0  0  0  0999 V2000
  -17.3899  -26.3193   22.9625 C   0  0  0  0  0  0  0  0  0  0  0  0
  -18.6437  -25.8600   22.5721 C   0  0  0  0  0  0  0  0  0  0  0  0
  -24.3618  -11.8571   23.9321 C   0  0  0  0  0  0  0  0  0  0  0  0
  -23.2508  -13.8708   23.1921 C   0  0  0  0  0  0  0  0  0  0  0  0
  -17.0770  -27.6729   22.8453 C   0  0  0  0  0  0  0  0  0  0  0  0
  -19.5851  -26.7540   22.0633 C   0  0  0  0  0  0  0  0  0  0  0  0
  -25.6580  -26.5342   22.8235 C   0  0  0  0  0  0  0  0  0  0  0  0
  -23.7293  -11.9632   25.1707 C   0  0  0  0  0  0  0  0  0  0  0  0
  -22.6182  -13.9769   24.4307 C   0  0  0  0  0  0  0  0  0  0  0  0
  -26.6882  -26.0596   22.0128 C   0  0  0  0  0  0  0  0  0  0  0  0
  -19.9827  -12.5680   26.0086 C   0  0  0  0  0  0  0  0  0  0  0  0
  -18.6202  -12.8665   26.0152 C   0  0  0  0  0  0  0  0  0  0  0  0
  -27.0558  -28.2942   21.1818 C   0  0  0  0  0  0  0  0  0  0  0  0
  -26.9974  -19.3043   18.4012 C   0  0  0  0  0  0  0  0  0  0  0  0
  -19.0669  -14.8773   27.2778 C   0  0  0  0  0  0  0  0  0  0  0  0
  -29.3678  -19.4221   18.5558 C   0  0  0  0  0  0  0  0  0  0  0  0
  -24.1226  -12.8109   22.9427 C   0  0  0  0  0  0  0  0  0  0  0  0
  -24.3054  -12.0237   20.5231 C   0  0  0  0  0  0  0  0  0  0  0  0
  -18.0184  -28.5855   22.3438 C   0  0  0  0  0  0  0  0  0  0  0  0
  -25.3111  -27.8929   22.8112 C   0  0  0  0  0  0  0  0  0  0  0  0
  -19.2841  -28.1209   21.9380 C   0  0  0  0  0  0  0  0  0  0  0  0
  -26.0225  -28.7840   21.9951 C   0  0  0  0  0  0  0  0  0  0  0  0
  -28.2168  -18.6508   18.5400 C   0  0  0  0  0  0  0  0  0  0  0  0
  -26.9666  -20.6894   18.2842 C   0  0  0  0  0  0  0  0  0  0  0  0
  -22.8574  -13.0231   25.4200 C   0  0  0  0  0  0  0  0  0  0  0  0
  -27.3853  -26.9391   21.1897 C   0  0  0  0  0  0  0  0  0  0  0  0
  -20.8873  -13.4242   26.6366 C   0  0  0  0  0  0  0  0  0  0  0  0
  -18.1623  -14.0211   26.6498 C   0  0  0  0  0  0  0  0  0  0  0  0
  -20.4294  -14.5788   27.2712 C   0  0  0  0  0  0  0  0  0  0  0  0
  -24.7762  -12.7021   21.6633 C   0  0  0  0  0  0  0  0  0  0  0  0
  -28.1735  -21.3695   18.3116 C   0  0  0  0  0  0  0  0  0  0  0  0
  -25.2842  -12.2179   19.5794 C   0  0  0  0  0  0  0  0  0  0  0  0
  -23.0918  -11.2841   20.3341 C   0  0  0  0  0  0  0  0  0  0  0  0
  -22.6964  -29.5337   22.0532 C   0  0  0  0  0  0  0  0  0  0  0  0
  -24.4121  -32.0409   23.1900 C   0  0  0  0  0  0  0  0  0  0  0  0
  -27.4744  -33.3873   23.8658 C   0  0  0  0  0  0  0  0  0  0  0  0
  -29.4247  -16.4561   18.8050 C   0  0  0  0  0  0  0  0  0  0  0  0
  -17.6179  -30.0316   22.1915 C   0  0  0  0  0  0  0  0  0  0  0  0
  -24.2151  -28.3937   23.7114 C   0  0  0  0  0  0  0  0  0  0  0  0
  -25.7025  -30.2554   21.9603 C   0  0  0  0  0  0  0  0  0  0  0  0
  -18.8023  -30.9740   21.9927 C   0  0  0  0  0  0  0  0  0  0  0  0
  -29.9975  -12.9610   19.1709 C   0  0  0  0  0  0  0  0  0  0  0  0
  -19.7639  -30.4105   20.9513 C   0  0  0  0  0  0  0  0  0  0  0  0
  -28.6786  -12.4353   19.7421 C   0  0  0  0  0  0  0  0  0  0  0  0
  -30.3465  -14.3405   19.7268 C   0  0  0  0  0  0  0  0  0  0  0  0
  -27.9705  -14.8248   20.1614 C   0  0  0  0  0  0  0  0  0  0  0  0
  -20.3407  -29.0638   21.4044 C   0  0  1  0  0  0  0  0  0  0  0  0
  -23.6059  -29.7091   23.2363 C   0  0  1  0  0  0  0  0  0  0  0  0
  -27.5442  -13.4663   19.5815 C   0  0  2  0  0  0  0  0  0  0  0  0
  -28.5584  -35.4681   24.7560 C   0  0  0  0  0  0  0  0  0  0  0  0
  -30.0170  -23.4737   16.8453 C   0  0  0  0  0  0  0  0  0  0  0  0
  -23.8564  -33.4588   20.5460 C   0  0  0  0  0  0  0  0  0  0  0  0
  -25.6991  -35.0613   21.0981 C   0  0  0  0  0  0  0  0  0  0  0  0
  -23.6890  -34.9200   22.5686 C   0  0  0  0  0  0  0  0  0  0  0  0
  -28.7180  -31.9173   26.1133 C   0  0  0  0  0  0  0  0  0  0  0  0
  -28.2872  -25.1329   19.9325 C   0  0  0  0  0  0  0  0  0  1  0  0
  -25.3755  -33.0366   22.5905 C   0  0  1  0  0  0  0  0  0  0  0  0
  -28.0166  -34.0889   25.0980 C   0  0  2  0  0  0  0  0  0  0  0  0
  -29.3452  -23.5702   18.2129 C   0  0  1  0  0  0  0  0  0  0  0  0
  -29.0006  -25.0214   18.5861 C   0  0  1  0  0  0  0  0  0  0  0  0
  -24.6600  -34.0912   21.6998 C   0  0  0  0  0  0  0  0  0  0  0  0
  -29.3776  -20.7694   18.4448 N   0  0  0  0  0  0  0  0  0  0  0  0
  -25.9620  -13.2838   21.4642 N   0  0  0  0  0  0  0  0  0  0  0  0
  -26.2446  -12.9713   20.1880 N   0  0  0  0  0  0  0  0  0  0  0  0
  -24.6184  -30.6954   22.8539 N   0  0  0  0  0  0  0  0  0  0  0  0
  -29.2271  -15.2652   19.5356 N   0  0  0  0  0  0  0  0  0  0  0  0
  -25.7333  -21.3531   18.1439 N   0  0  0  0  0  0  0  0  0  0  0  0
  -25.4086  -11.8160   18.2967 N   0  0  0  0  0  0  0  0  0  0  0  0
  -22.1964  -11.1837   21.4076 N   0  0  0  0  0  0  0  0  0  0  0  0
  -28.2809  -17.2405   18.6607 N   0  0  0  0  0  0  0  0  0  0  0  0
  -28.1521  -22.7472   18.1981 N   0  0  0  0  0  0  0  0  0  0  0  0
  -21.3828  -29.2657   22.3882 N   0  0  0  0  0  0  0  0  0  0  0  0
  -26.1221  -33.6056   23.7073 N   0  0  0  0  0  0  0  0  0  0  0  0
  -29.1169  -33.2894   25.7071 N   0  3  0  0  0  0  0  0  0  0  0  0
  -22.8173  -10.7149   19.2504 O   0  0  0  0  0  0  0  0  0  0  0  0
  -23.1523  -29.6355   20.9203 O   0  0  0  0  0  0  0  0  0  0  0  0
  -23.5141  -32.4414   23.9349 O   0  0  0  0  0  0  0  0  0  0  0  0
  -28.1806  -32.7162   23.1165 O   0  0  0  0  0  0  0  0  0  0  0  0
  -30.5210  -16.7445   18.3184 O   0  0  0  0  0  0  0  0  0  0  0  0
  -28.1747  -25.5960   17.5718 O   0  0  0  0  0  0  0  0  0  0  0  0
  -22.2398  -13.1269   26.6285 O   0  0  0  0  0  0  0  0  0  0  0  0
  -28.3909  -26.4783   20.3970 O   0  0  0  0  0  0  0  0  0  1  0  0
  -16.8540  -14.3084   26.6548 F   0  0  0  0  0  0  0  0  0  0  0  0
  -21.2938  -15.4058   27.8752 F   0  0  0  0  0  0  0  0  0  0  0  0
  1  2  1  0  0  0  0
  1  5  2  0  0  0  0
  2  6  2  0  0  0  0
  3  8  2  0  0  0  0
  3 17  1  0  0  0  0
  4  9  1  0  0  0  0
  4 17  2  0  0  0  0
  5 19  1  0  0  0  0
  6 21  1  0  0  0  0
  7 10  2  0  0  0  0
  7 20  1  0  0  0  0
  8 25  1  0  0  0  0
  9 25  2  0  0  0  0
 10 26  1  0  0  0  0
 11 12  2  0  0  0  0
 11 27  1  0  0  0  0
 12 28  1  0  0  0  0
 13 22  1  0  0  0  0
 13 26  2  0  0  0  0
 14 23  2  0  0  0  0
 14 24  1  0  0  0  0
 15 28  2  0  0  0  0
 15 29  1  0  0  0  0
 16 23  1  0  0  0  0
 16 62  2  0  0  0  0
 17 30  1  0  0  0  0
 18 30  1  0  0  0  0
 18 32  2  0  0  0  0
 18 33  1  0  0  0  0
 19 21  2  0  0  0  0
 19 38  1  0  0  0  0
 20 22  2  0  0  0  0
 20 39  1  0  0  0  0
 21 47  1  0  0  0  0
 22 40  1  0  0  0  0
 23 70  1  0  0  0  0
 24 31  2  0  0  0  0
 24 67  1  0  0  0  0
 25 81  1  0  0  0  0
 26 82  1  0  0  0  0
 27 29  2  0  0  0  0
 27 81  1  0  0  0  0
 28 83  1  0  0  0  0
 29 84  1  0  0  0  0
 30 63  2  0  0  0  0
 31 62  1  0  0  0  0
 31 71  1  0  0  0  0
 32 64  1  0  0  0  0
 32 68  1  0  0  0  0
 33 69  1  0  0  0  0
 33 75  2  0  0  0  0
 34 48  1  0  0  0  0
 34 72  1  0  0  0  0
 34 76  2  0  0  0  0
 35 57  1  0  0  0  0
 35 65  1  0  0  0  0
 35 77  2  0  0  0  0
 36 58  1  0  0  0  0
 36 73  1  0  0  0  0
 36 78  2  0  0  0  0
 37 66  1  0  0  0  0
 37 70  1  0  0  0  0
 37 79  2  0  0  0  0
 38 41  1  0  0  0  0
 39 48  1  0  0  0  0
 40 65  1  0  0  0  0
 41 43  1  0  0  0  0
 42 44  1  0  0  0  0
 42 45  1  0  0  0  0
 43 47  1  0  0  0  0
 44 49  1  0  0  0  0
 45 66  1  0  0  0  0
 46 49  1  0  0  0  0
 46 66  1  0  0  0  0
 47 72  1  0  0  0  0
 48 65  1  0  0  0  0
 49 64  1  0  0  0  0
 50 58  1  0  0  0  0
 51 59  1  0  0  0  0
 52 61  1  0  0  0  0
 53 61  1  0  0  0  0
 54 61  1  0  0  0  0
 55 74  1  0  0  0  0
 56 60  1  0  0  0  0
 56 82  1  0  0  0  0
 57 61  1  0  0  0  0
 57 73  1  0  0  0  0
 58 74  1  0  0  0  0
 59 60  1  0  0  0  0
 59 71  1  0  0  0  0
 60 80  1  0  0  0  0
 63 64  1  0  0  0  0
M  CHG  1  74   1
M  ISO  4  37 100  56 101  70 100  82 101
M  END
> <Batch ID>
0199

> <Smiles>
CNC(C)C(=O)NC(C(=O)N1Cc2cc([101O:1][101CH2:1]C(O)C(C)Nc3ncc([100NH:0][100C:0](=O)N4CCCC(n5nc(-c6ccc(Oc7ccc(F)cc7F)cc6)c(C(N)=O)c5N)C4)cc3N)ccc2CC1C(=O)NC1CCCc2ccccc21)C(C)(C)C

> <Shape>
0.266

> <Color>
0.092

> <Negative vol penalty>
0.000

$$$$

  -OEChem-04052305473D

 83 91  0     1  0  0  0  0  0999 V2000
  -32.1199  -15.5228   18.8532 C   0  0  0  0  0  0  0  0  0  0  0  0
  -31.0672  -16.4130   18.6671 C   0  0  0  0  0  0  0  0  0  0  0  0
  -28.7542  -27.8554   20.9881 C   0  0  0  0  0  0  0  0  0  0  0  0
  -27.3068  -26.8894   19.3120 C   0  0  0  0  0  0  0  0  0  0  0  0
  -31.8633  -14.2219   19.2841 C   0  0  0  0  0  0  0  0  0  0  0  0
  -29.7570  -16.0025   18.9107 C   0  0  0  0  0  0  0  0  0  0  0  0
  -25.1907  -19.4066   21.1617 C   0  0  0  0  0  0  0  0  0  0  0  0
  -29.7347  -26.9105   20.6860 C   0  0  0  0  0  0  0  0  0  0  0  0
  -28.2874  -25.9445   19.0099 C   0  0  0  0  0  0  0  0  0  0  0  0
  -24.1346  -20.0812   20.5509 C   0  0  0  0  0  0  0  0  0  0  0  0
  -29.4474  -23.0516   20.3201 C   0  0  0  0  0  0  0  0  0  0  0  0
  -29.0452  -21.7239   20.1755 C   0  0  0  0  0  0  0  0  0  0  0  0
  -22.6928  -18.1938   20.9730 C   0  0  0  0  0  0  0  0  0  0  0  0
  -19.4419  -24.6892   21.5231 C   0  0  0  0  0  0  0  0  0  0  0  0
  -29.8657  -21.7229   17.9031 C   0  0  0  0  0  0  0  0  0  0  0  0
  -17.8383  -23.6289   22.8295 C   0  0  0  0  0  0  0  0  0  0  0  0
  -27.5402  -27.8448   20.3011 C   0  0  0  0  0  0  0  0  0  0  0  0
  -26.3587  -30.0890   20.0267 C   0  0  0  0  0  0  0  0  0  0  0  0
  -30.5502  -13.7981   19.5424 C   0  0  0  0  0  0  0  0  0  0  0  0
  -25.0084  -18.1140   21.6739 C   0  0  0  0  0  0  0  0  0  0  0  0
  -29.4825  -14.6943   19.3442 C   0  0  0  0  0  0  0  0  0  0  0  0
  -23.7475  -17.5060   21.5922 C   0  0  0  0  0  0  0  0  0  0  0  0
  -18.9098  -23.4498   21.9825 C   0  0  0  0  0  0  0  0  0  0  0  0
  -29.5014  -25.9551   19.6969 C   0  0  0  0  0  0  0  0  0  0  0  0
  -22.8861  -19.4737   20.4539 C   0  0  0  0  0  0  0  0  0  0  0  0
  -30.0586  -23.7151   19.2562 C   0  0  0  0  0  0  0  0  0  0  0  0
  -29.2544  -21.0595   18.9670 C   0  0  0  0  0  0  0  0  0  0  0  0
  -30.2678  -23.0507   18.0477 C   0  0  0  0  0  0  0  0  0  0  0  0
  -26.5267  -28.8203   20.6132 C   0  0  0  0  0  0  0  0  0  0  0  0
  -18.7565  -25.7684   22.0364 C   0  0  0  0  0  0  0  0  0  0  0  0
  -25.2643  -30.6199   20.6646 C   0  0  0  0  0  0  0  0  0  0  0  0
  -27.1235  -30.7302   18.9973 C   0  0  0  0  0  0  0  0  0  0  0  0
  -26.2518  -15.2566   21.0470 C   0  0  0  0  0  0  0  0  0  0  0  0
  -24.5108  -14.3632   23.6340 C   0  0  0  0  0  0  0  0  0  0  0  0
  -21.8469  -14.9632   25.6812 C   0  0  0  0  0  0  0  0  0  0  0  0
  -20.4776  -21.8849   20.7870 C   0  0  0  0  0  0  0  0  0  0  0  0
  -20.5815  -28.1525   23.4636 C   0  0  0  0  0  0  0  0  0  0  0  0
  -30.3181  -12.3679   19.9613 C   0  0  0  0  0  0  0  0  0  0  0  0
  -26.1508  -17.4103   22.3537 C   0  0  0  0  0  0  0  0  0  0  0  0
  -23.4945  -16.1278   22.1444 C   0  0  0  0  0  0  0  0  0  0  0  0
  -28.9338  -12.1248   20.5571 C   0  0  0  0  0  0  0  0  0  0  0  0
  -22.9182  -30.4645   24.8314 C   0  0  0  0  0  0  0  0  0  0  0  0
  -27.8585  -12.7739   19.6917 C   0  0  0  0  0  0  0  0  0  0  0  0
  -24.0928  -30.4198   23.8525 C   0  0  0  0  0  0  0  0  0  0  0  0
  -22.2773  -29.0896   25.0071 C   0  0  0  0  0  0  0  0  0  0  0  0
  -23.0441  -28.3867   22.7729 C   0  0  0  0  0  0  0  0  0  0  0  0
  -28.0498  -14.2938   19.6218 C   0  0  1  0  0  0  0  0  0  0  0  0
  -25.9867  -15.8938   22.3817 C   0  0  1  0  0  0  0  0  0  0  0  0
  -23.6877  -29.7608   22.5203 C   0  0  2  0  0  0  0  0  0  0  0  0
  -19.1384  -20.1648   18.6340 C   0  0  0  0  0  0  0  0  0  0  0  0
  -20.6568  -14.0384   27.6876 C   0  0  0  0  0  0  0  0  0  0  0  0
  -23.2750  -12.1832   21.8932 C   0  0  0  0  0  0  0  0  0  0  0  0
  -21.4694  -11.9334   23.6096 C   0  0  0  0  0  0  0  0  0  0  0  0
  -23.8420  -11.4637   24.2203 C   0  0  0  0  0  0  0  0  0  0  0  0
  -22.3538  -17.4164   27.2571 C   0  0  0  0  0  0  0  0  0  0  0  0
  -18.9982  -27.2086   21.8019 C   0  0  0  0  0  0  0  0  0  0  0  0
  -19.4919  -19.6639   20.0300 C   0  0  0  0  0  0  0  0  0  0  0  0
  -23.1065  -13.8547   23.8538 C   0  0  1  0  0  0  0  0  0  0  0  0
  -21.7272  -14.9994   27.1940 C   0  0  2  0  0  0  0  0  0  0  0  0
  -20.6955  -20.3778   20.6535 C   0  0  1  0  0  0  0  0  0  1  0  0
  -22.9281  -12.3840   23.3820 C   0  0  0  0  0  0  0  0  0  0  0  0
  -25.6123  -28.5609   21.5516 N   0  0  0  0  0  0  0  0  0  0  0  0
  -24.8593  -29.6739   21.5597 N   0  0  0  0  0  0  0  0  0  0  0  0
  -24.6447  -15.4780   22.7943 N   0  0  0  0  0  0  0  0  0  0  0  0
  -21.9151  -28.5205   23.7068 N   0  0  0  0  0  0  0  0  0  0  0  0
  -24.6186  -31.7991   20.5416 N   0  0  0  0  0  0  0  0  0  0  0  0
  -28.2161  -30.0435   18.4507 N   0  0  0  0  0  0  0  0  0  0  0  0
  -19.4055  -22.1737   21.6243 N   0  0  0  0  0  0  0  0  0  0  0  0
  -27.5754  -14.9193   20.8376 N   0  0  0  0  0  0  0  0  0  0  0  0
  -22.8111  -14.0690   25.2663 N   0  0  0  0  0  0  0  0  0  0  0  0
  -20.3227  -27.6272   22.2035 N   0  0  0  0  0  0  0  0  0  0  0  0
  -21.3738  -16.3725   27.6530 N   0  3  0  0  0  0  0  0  0  0  0  0
  -26.8561  -31.8848   18.5863 O   0  0  0  0  0  0  0  0  0  0  0  0
  -25.3240  -15.0825   20.2657 O   0  0  0  0  0  0  0  0  0  0  0  0
  -25.4534  -13.7968   24.1927 O   0  0  0  0  0  0  0  0  0  0  0  0
  -21.1518  -15.6559   24.9412 O   0  0  0  0  0  0  0  0  0  0  0  0
  -21.2096  -22.6858   20.2124 O   0  0  0  0  0  0  0  0  0  0  0  0
  -19.6867  -28.2875   24.3050 O   0  0  0  0  0  0  0  0  0  0  0  0
  -30.4580  -25.0330   19.4016 O   0  0  0  0  0  0  0  0  0  0  0  0
  -21.8537  -20.1298   19.8576 O   0  0  0  0  0  0  0  0  0  1  0  0
  -28.8695  -19.7840   18.8288 F   0  0  0  0  0  0  0  0  0  0  0  0
  -30.8556  -23.6824   17.0225 F   0  0  0  0  0  0  0  0  0  0  0  0
  -17.4777  -25.2858   23.0678 S   0  0  0  0  0  0  0  0  0  0  0  0
  1  2  1  0  0  0  0
  1  5  2  0  0  0  0
  2  6  2  0  0  0  0
  3  8  2  0  0  0  0
  3 17  1  0  0  0  0
  4  9  1  0  0  0  0
  4 17  2  0  0  0  0
  5 19  1  0  0  0  0
  6 21  1  0  0  0  0
  7 10  2  0  0  0  0
  7 20  1  0  0  0  0
  8 24  1  0  0  0  0
  9 24  2  0  0  0  0
 10 25  1  0  0  0  0
 11 12  2  0  0  0  0
 11 26  1  0  0  0  0
 12 27  1  0  0  0  0
 13 22  1  0  0  0  0
 13 25  2  0  0  0  0
 14 23  1  0  0  0  0
 14 30  2  0  0  0  0
 15 27  2  0  0  0  0
 15 28  1  0  0  0  0
 16 23  2  0  0  0  0
 16 83  1  0  0  0  0
 17 29  1  0  0  0  0
 18 29  1  0  0  0  0
 18 31  2  0  0  0  0
 18 32  1  0  0  0  0
 19 21  2  0  0  0  0
 19 38  1  0  0  0  0
 20 22  2  0  0  0  0
 20 39  1  0  0  0  0
 21 47  1  0  0  0  0
 22 40  1  0  0  0  0
 23 68  1  0  0  0  0
 24 79  1  0  0  0  0
 25 80  1  0  0  0  0
 26 28  2  0  0  0  0
 26 79  1  0  0  0  0
 27 81  1  0  0  0  0
 28 82  1  0  0  0  0
 29 62  2  0  0  0  0
 30 56  1  0  0  0  0
 30 83  1  0  0  0  0
 31 63  1  0  0  0  0
 31 66  1  0  0  0  0
 32 67  1  0  0  0  0
 32 73  2  0  0  0  0
 33 48  1  0  0  0  0
 33 69  1  0  0  0  0
 33 74  2  0  0  0  0
 34 58  1  0  0  0  0
 34 64  1  0  0  0  0
 34 75  2  0  0  0  0
 35 59  1  0  0  0  0
 35 70  1  0  0  0  0
 35 76  2  0  0  0  0
 36 60  1  0  0  0  0
 36 68  1  0  0  0  0
 36 77  2  0  0  0  0
 37 65  1  0  0  0  0
 37 71  1  0  0  0  0
 37 78  2  0  0  0  0
 38 41  1  0  0  0  0
 39 48  1  0  0  0  0
 40 64  1  0  0  0  0
 41 43  1  0  0  0  0
 42 44  1  0  0  0  0
 42 45  1  0  0  0  0
 43 47  1  0  0  0  0
 44 49  1  0  0  0  0
 45 65  1  0  0  0  0
 46 49  1  0  0  0  0
 46 65  1  0  0  0  0
 47 69  1  0  0  0  0
 48 64  1  0  0  0  0
 49 63  1  0  0  0  0
 50 57  1  0  0  0  0
 51 59  1  0  0  0  0
 52 61  1  0  0  0  0
 53 61  1  0  0  0  0
 54 61  1  0  0  0  0
 55 72  1  0  0  0  0
 56 71  1  0  0  0  0
 57 60  1  0  0  0  0
 58 61  1  0  0  0  0
 58 70  1  0  0  0  0
 59 72  1  0  0  0  0
 60 80  1  0  0  0  0
 62 63  1  0  0  0  0
M  CHG  1  72   1
M  ISO  4  37 100  60 101  71 100  80 101
M  END
> <Batch ID>
0199

> <Smiles>
CC[101CH:1](C(=O)Nc1csc(C[100NH:0][100C:0](=O)N2CCCC(n3nc(-c4ccc(Oc5ccc(F)cc5F)cc4)c(C(N)=O)c3N)C2)c1)[101O:1]c1ccc2c(c1)CN(C(=O)C(NC(=O)C(C)NC)C(C)(C)C)C(C(=O)NC1CCCc3ccccc31)C2

> <Shape>
0.232

> <Color>
0.053

> <Negative vol penalty>
0.000

$$$$

  -OEChem-04052305473D

 82 90  0     1  0  0  0  0  0999 V2000
  -38.1544  -33.1252   25.5776 C   0  0  0  0  0  0  0  0  0  0  0  0
  -37.9146  -31.8003   25.9277 C   0  0  0  0  0  0  0  0  0  0  0  0
  -23.1217   -9.8314   20.0219 C   0  0  0  0  0  0  0  0  0  0  0  0
  -23.9084   -9.9483   22.3033 C   0  0  0  0  0  0  0  0  0  0  0  0
  -37.1758  -33.8551   24.9042 C   0  0  0  0  0  0  0  0  0  0  0  0
  -36.6955  -31.2049   25.6056 C   0  0  0  0  0  0  0  0  0  0  0  0
  -35.7536  -25.3609   24.0351 C   0  0  0  0  0  0  0  0  0  0  0  0
  -22.4130   -8.6691   20.3259 C   0  0  0  0  0  0  0  0  0  0  0  0
  -23.1997   -8.7860   22.6072 C   0  0  0  0  0  0  0  0  0  0  0  0
  -35.3169  -24.2534   24.7606 C   0  0  0  0  0  0  0  0  0  0  0  0
  -20.0023   -7.9249   23.2820 C   0  0  0  0  0  0  0  0  0  0  0  0
  -19.2607   -7.9100   24.4633 C   0  0  0  0  0  0  0  0  0  0  0  0
  -33.0670  -24.6361   23.9794 C   0  0  0  0  0  0  0  0  0  0  0  0
  -20.5639   -6.0372   25.2578 C   0  0  0  0  0  0  0  0  0  0  0  0
  -23.8694  -10.4710   21.0106 C   0  0  0  0  0  0  0  0  0  0  0  0
  -24.1398  -12.9979   20.7888 C   0  0  0  0  0  0  0  0  0  0  0  0
  -35.9478  -33.2655   24.5651 C   0  0  0  0  0  0  0  0  0  0  0  0
  -34.8467  -26.1222   23.2837 C   0  0  0  0  0  0  0  0  0  0  0  0
  -35.6990  -31.9281   24.9282 C   0  0  0  0  0  0  0  0  0  0  0  0
  -33.4951  -25.7514   23.2431 C   0  0  0  0  0  0  0  0  0  0  0  0
  -22.4520   -8.1464   21.6185 C   0  0  0  0  0  0  0  0  0  0  0  0
  -33.9730  -23.8925   24.7352 C   0  0  0  0  0  0  0  0  0  0  0  0
  -21.0246   -6.9958   23.0885 C   0  0  0  0  0  0  0  0  0  0  0  0
  -19.5416   -6.9662   25.4512 C   0  0  0  0  0  0  0  0  0  0  0  0
  -21.3054   -6.0520   24.0764 C   0  0  0  0  0  0  0  0  0  0  0  0
  -24.6022  -11.6714   20.6971 C   0  0  0  0  0  0  0  0  0  0  0  0
  -31.7966  -18.2137   23.3904 C   0  0  0  0  0  0  0  0  0  0  0  0
  -25.2064  -13.7621   20.3827 C   0  0  0  0  0  0  0  0  0  0  0  0
  -31.4424  -16.8963   23.2413 C   0  0  0  0  0  0  0  0  0  0  0  0
  -22.8607  -13.4950   21.2039 C   0  0  0  0  0  0  0  0  0  0  0  0
  -33.8532  -29.1407   23.3545 C   0  0  0  0  0  0  0  0  0  0  0  0
  -32.3000  -28.2844   20.6385 C   0  0  0  0  0  0  0  0  0  0  0  0
  -30.9490  -25.7940   18.7360 C   0  0  0  0  0  0  0  0  0  0  0  0
  -30.7576  -14.8228   20.6350 C   0  0  0  0  0  0  0  0  0  0  0  0
  -34.9026  -34.1088   23.8788 C   0  0  0  0  0  0  0  0  0  0  0  0
  -35.3382  -27.2982   22.4851 C   0  0  0  0  0  0  0  0  0  0  0  0
  -32.4848  -26.5235   22.4358 C   0  0  0  0  0  0  0  0  0  0  0  0
  -33.7814  -33.2909   23.2429 C   0  0  0  0  0  0  0  0  0  0  0  0
  -29.5449  -12.4729   18.1664 C   0  0  0  0  0  0  0  0  0  0  0  0
  -33.2811  -32.2257   24.2134 C   0  0  0  0  0  0  0  0  0  0  0  0
  -28.1373  -12.1240   18.6405 C   0  0  0  0  0  0  0  0  0  0  0  0
  -30.4764  -12.7212   19.3462 C   0  0  0  0  0  0  0  0  0  0  0  0
  -28.5735  -13.4728   20.7514 C   0  0  0  0  0  0  0  0  0  0  0  0
  -34.3987  -31.2396   24.5743 C   0  0  1  0  0  0  0  0  0  0  0  0
  -34.2379  -28.3057   22.1661 C   0  0  1  0  0  0  0  0  0  0  0  0
  -27.6001  -13.2089   19.5863 C   0  0  2  0  0  0  0  0  0  0  0  0
  -29.7150  -25.4068   16.5856 C   0  0  0  0  0  0  0  0  0  0  0  0
  -29.7369  -29.3267   21.9246 C   0  0  0  0  0  0  0  0  0  0  0  0
  -28.4391  -28.0766   20.1864 C   0  0  0  0  0  0  0  0  0  0  0  0
  -29.9979  -29.9008   19.5045 C   0  0  0  0  0  0  0  0  0  0  0  0
  -33.1196  -24.0929   17.6618 C   0  0  0  0  0  0  0  0  0  0  0  0
  -32.8671  -20.1704   24.5088 C   0  0  0  0  0  0  0  0  0  0  0  0
  -34.4759  -21.7482   25.6325 C   0  0  0  0  0  0  0  0  0  1  0  0
  -30.9437  -27.7027   20.3207 C   0  0  1  0  0  0  0  0  0  0  0  0
  -31.0775  -25.4732   17.2578 C   0  0  2  0  0  0  0  0  0  0  0  0
  -33.7104  -20.4351   25.7545 C   0  0  1  0  0  0  0  0  0  0  0  0
  -29.7978  -28.7381   20.5009 C   0  0  0  0  0  0  0  0  0  0  0  0
  -25.8641  -11.5938   20.2665 N   0  0  0  0  0  0  0  0  0  0  0  0
  -31.3055  -18.9428   22.3431 N   0  0  0  0  0  0  0  0  0  0  0  0
  -30.6497  -18.1125   21.5396 N   0  0  0  0  0  0  0  0  0  0  0  0
  -26.2038  -12.8811   20.0838 N   0  0  0  0  0  0  0  0  0  0  0  0
  -30.7328  -16.8860   22.0801 N   0  0  0  0  0  0  0  0  0  0  0  0
  -33.0133  -27.6691   21.6771 N   0  0  0  0  0  0  0  0  0  0  0  0
  -29.9392  -13.7321   20.2618 N   0  0  0  0  0  0  0  0  0  0  0  0
  -25.3791  -15.0949   20.2556 N   0  0  0  0  0  0  0  0  0  0  0  0
  -31.6682  -15.7883   23.9771 N   0  0  0  0  0  0  0  0  0  0  0  0
  -21.8784  -12.5725   21.5892 N   0  0  0  0  0  0  0  0  0  0  0  0
  -32.5344  -18.7660   24.4237 N   0  0  0  0  0  0  0  0  0  0  0  0
  -34.6032  -30.2922   23.4996 N   0  0  0  0  0  0  0  0  0  0  0  0
  -31.0423  -27.1489   18.9746 N   0  0  0  0  0  0  0  0  0  0  0  0
  -30.1628  -15.7105   21.5313 N   0  0  0  0  0  0  0  0  0  0  0  0
  -31.7588  -24.1612   17.0698 N   0  3  0  0  0  0  0  0  0  0  0  0
  -22.5912  -14.7200   21.2168 O   0  0  0  0  0  0  0  0  0  0  0  0
  -32.9423  -28.7687   24.0849 O   0  0  0  0  0  0  0  0  0  0  0  0
  -32.7145  -29.2447   19.9845 O   0  0  0  0  0  0  0  0  0  0  0  0
  -30.7789  -24.9295   19.5929 O   0  0  0  0  0  0  0  0  0  0  0  0
  -31.9097  -14.9460   20.2112 O   0  0  0  0  0  0  0  0  0  0  0  0
  -32.8479  -20.5384   26.8893 O   0  0  0  0  0  0  0  0  0  0  0  0
  -21.7604   -7.0123   21.9155 O   0  0  0  0  0  0  0  0  0  0  0  0
  -33.5441  -22.8123   25.4430 O   0  0  0  0  0  0  0  0  0  1  0  0
  -18.8304   -6.9530   26.5862 F   0  0  0  0  0  0  0  0  0  0  0  0
  -22.2872   -5.1577   23.8968 F   0  0  0  0  0  0  0  0  0  0  0  0
  1  2  1  0  0  0  0
  1  5  2  0  0  0  0
  2  6  2  0  0  0  0
  3  8  2  0  0  0  0
  3 15  1  0  0  0  0
  4  9  1  0  0  0  0
  4 15  2  0  0  0  0
  5 17  1  0  0  0  0
  6 19  1  0  0  0  0
  7 10  2  0  0  0  0
  7 18  1  0  0  0  0
  8 21  1  0  0  0  0
  9 21  2  0  0  0  0
 10 22  1  0  0  0  0
 11 12  2  0  0  0  0
 11 23  1  0  0  0  0
 12 24  1  0  0  0  0
 13 20  1  0  0  0  0
 13 22  2  0  0  0  0
 14 24  2  0  0  0  0
 14 25  1  0  0  0  0
 15 26  1  0  0  0  0
 16 26  1  0  0  0  0
 16 28  2  0  0  0  0
 16 30  1  0  0  0  0
 17 19  2  0  0  0  0
 17 35  1  0  0  0  0
 18 20  2  0  0  0  0
 18 36  1  0  0  0  0
 19 44  1  0  0  0  0
 20 37  1  0  0  0  0
 21 79  1  0  0  0  0
 22 80  1  0  0  0  0
 23 25  2  0  0  0  0
 23 79  1  0  0  0  0
 24 81  1  0  0  0  0
 25 82  1  0  0  0  0
 26 58  2  0  0  0  0
 27 29  2  0  0  0  0
 27 59  1  0  0  0  0
 27 68  1  0  0  0  0
 28 61  1  0  0  0  0
 28 65  1  0  0  0  0
 29 62  1  0  0  0  0
 29 66  1  0  0  0  0
 30 67  1  0  0  0  0
 30 73  2  0  0  0  0
 31 45  1  0  0  0  0
 31 69  1  0  0  0  0
 31 74  2  0  0  0  0
 32 54  1  0  0  0  0
 32 63  1  0  0  0  0
 32 75  2  0  0  0  0
 33 55  1  0  0  0  0
 33 70  1  0  0  0  0
 33 76  2  0  0  0  0
 34 64  1  0  0  0  0
 34 71  1  0  0  0  0
 34 77  2  0  0  0  0
 35 38  1  0  0  0  0
 36 45  1  0  0  0  0
 37 63  1  0  0  0  0
 38 40  1  0  0  0  0
 39 41  1  0  0  0  0
 39 42  1  0  0  0  0
 40 44  1  0  0  0  0
 41 46  1  0  0  0  0
 42 64  1  0  0  0  0
 43 46  1  0  0  0  0
 43 64  1  0  0  0  0
 44 69  1  0  0  0  0
 45 63  1  0  0  0  0
 46 61  1  0  0  0  0
 47 55  1  0  0  0  0
 48 57  1  0  0  0  0
 49 57  1  0  0  0  0
 50 57  1  0  0  0  0
 51 72  1  0  0  0  0
 52 56  1  0  0  0  0
 52 68  1  0  0  0  0
 53 56  1  0  0  0  0
 53 80  1  0  0  0  0
 54 57  1  0  0  0  0
 54 70  1  0  0  0  0
 55 72  1  0  0  0  0
 56 78  1  0  0  0  0
 58 61  1  0  0  0  0
 59 60  2  0  0  0  0
 60 62  1  0  0  0  0
 62 71  1  0  0  0  0
M  CHG  1  72   1
M  ISO  4  34 100  53 101  71 100  80 101
M  END
> <Batch ID>
0199

> <Smiles>
CNC(C)C(=O)NC(C(=O)N1Cc2cc([101O:1][101CH2:1]C(O)CNc3nnn([100NH:0][100C:0](=O)N4CCCC(n5nc(-c6ccc(Oc7ccc(F)cc7F)cc6)c(C(N)=O)c5N)C4)c3N)ccc2CC1C(=O)NC1CCCc2ccccc21)C(C)(C)C

> <Shape>
0.223

> <Color>
0.189

> <Negative vol penalty>
0.000

$$$$

  -OEChem-04052305473D

 85 93  0     1  0  0  0  0  0999 V2000
  -27.9048  -24.0915   17.8061 C   0  0  0  0  0  0  0  0  0  0  0  0
  -26.6778  -24.4927   18.3246 C   0  0  0  0  0  0  0  0  0  0  0  0
  -28.7817  -15.0290   22.2814 C   0  0  0  0  0  0  0  0  0  0  0  0
  -26.5344  -15.5151   21.5396 C   0  0  0  0  0  0  0  0  0  0  0  0
  -29.0872  -24.4921   18.4271 C   0  0  0  0  0  0  0  0  0  0  0  0
  -26.6323  -25.2937   19.4651 C   0  0  0  0  0  0  0  0  0  0  0  0
  -23.3308  -29.1088   19.0293 C   0  0  0  0  0  0  0  0  0  0  0  0
  -28.4007  -13.7204   22.5783 C   0  0  0  0  0  0  0  0  0  0  0  0
  -26.1533  -14.2065   21.8364 C   0  0  0  0  0  0  0  0  0  0  0  0
  -21.9806  -28.8048   19.1979 C   0  0  0  0  0  0  0  0  0  0  0  0
  -24.6778  -10.8913   22.0608 C   0  0  0  0  0  0  0  0  0  0  0  0
  -23.9015  -10.2123   21.1218 C   0  0  0  0  0  0  0  0  0  0  0  0
  -22.0812  -29.6392   21.4591 C   0  0  0  0  0  0  0  0  0  0  0  0
  -25.6590  -10.4684   19.4838 C   0  0  0  0  0  0  0  0  0  0  0  0
  -23.2395  -23.0415   22.5517 C   0  0  0  0  0  0  0  0  0  0  0  0
  -27.8485  -15.9264   21.7621 C   0  0  0  0  0  0  0  0  0  0  0  0
  -28.7486  -17.7602   20.2342 C   0  0  0  0  0  0  0  0  0  0  0  0
  -29.0565  -25.3064   19.5701 C   0  0  0  0  0  0  0  0  0  0  0  0
  -24.0703  -29.6712   20.0797 C   0  0  0  0  0  0  0  0  0  0  0  0
  -27.8154  -25.7044   20.1027 C   0  0  0  0  0  0  0  0  0  0  0  0
  -23.4400  -29.9518   21.3004 C   0  0  0  0  0  0  0  0  0  0  0  0
  -27.0865  -13.3092   22.3557 C   0  0  0  0  0  0  0  0  0  0  0  0
  -21.3564  -29.0673   20.4138 C   0  0  0  0  0  0  0  0  0  0  0  0
  -25.9446  -11.3590   21.7114 C   0  0  0  0  0  0  0  0  0  0  0  0
  -24.3921  -10.0008   19.8333 C   0  0  0  0  0  0  0  0  0  0  0  0
  -26.4352  -11.1475   20.4229 C   0  0  0  0  0  0  0  0  0  0  0  0
  -28.2414  -17.2784   21.4558 C   0  0  0  0  0  0  0  0  0  0  0  0
  -24.2688  -23.5352   23.3225 C   0  0  0  0  0  0  0  0  0  0  0  0
  -22.0504  -24.9618   22.9096 C   0  0  0  0  0  0  0  0  0  0  0  0
  -23.0794  -25.4552   23.6811 C   0  0  0  0  0  0  0  0  0  0  0  0
  -28.9641  -19.0984   20.4558 C   0  0  0  0  0  0  0  0  0  0  0  0
  -29.0023  -17.0606   19.0087 C   0  0  0  0  0  0  0  0  0  0  0  0
  -26.6023  -28.7675   21.7756 C   0  0  0  0  0  0  0  0  0  0  0  0
  -26.3418  -31.7494   23.0258 C   0  0  0  0  0  0  0  0  0  0  0  0
  -19.7576  -25.4013   21.9662 C   0  0  0  0  0  0  0  0  0  0  0  0
  -24.3612  -34.4459   23.6989 C   0  0  0  0  0  0  0  0  0  0  0  0
  -26.5626  -23.0476   24.2429 C   0  0  0  0  0  0  0  0  0  0  0  0
  -30.3595  -25.6749   20.2341 C   0  0  0  0  0  0  0  0  0  0  0  0
  -25.5192  -30.0179   19.8732 C   0  0  0  0  0  0  0  0  0  0  0  0
  -24.1844  -30.5735   22.4528 C   0  0  0  0  0  0  0  0  0  0  0  0
  -30.2343  -26.8330   21.2207 C   0  0  0  0  0  0  0  0  0  0  0  0
  -30.0074  -22.1939   23.9578 C   0  0  0  0  0  0  0  0  0  0  0  0
  -29.0281  -26.6297   22.1322 C   0  0  0  0  0  0  0  0  0  0  0  0
  -29.9920  -20.8835   23.1674 C   0  0  0  0  0  0  0  0  0  0  0  0
  -28.8281  -22.2872   24.9243 C   0  0  0  0  0  0  0  0  0  0  0  0
  -27.4935  -20.7594   23.5265 C   0  0  0  0  0  0  0  0  0  0  0  0
  -27.7256  -26.5938   21.3237 C   0  0  1  0  0  0  0  0  0  0  0  0
  -26.3027  -30.1135   21.1787 C   0  0  1  0  0  0  0  0  0  0  0  0
  -28.6262  -20.6482   22.4929 C   0  0  2  0  0  0  0  0  0  0  0  0
  -24.4215  -36.7176   24.7633 C   0  0  0  0  0  0  0  0  0  0  0  0
  -26.3134  -30.4533   25.7879 C   0  0  0  0  0  0  0  0  0  0  0  0
  -25.4329  -32.6068   26.7127 C   0  0  0  0  0  0  0  0  0  0  0  0
  -27.6792  -32.5424   25.6298 C   0  0  0  0  0  0  0  0  0  0  0  0
  -23.6274  -35.7817   21.1619 C   0  0  0  0  0  0  0  0  0  0  0  0
  -18.3629  -27.0338   20.6002 C   0  0  0  0  0  0  0  0  0  0  0  0
  -19.5205  -27.6708   19.8346 C   0  0  0  0  0  0  0  0  0  1  0  0
  -25.6057  -32.3579   24.1949 C   0  0  1  0  0  0  0  0  0  0  0  0
  -18.7201  -26.5175   21.9970 C   0  0  1  0  0  0  0  0  0  0  0  0
  -24.5707  -35.9318   23.4698 C   0  0  2  0  0  0  0  0  0  0  0  0
  -26.2440  -31.9766   25.5604 C   0  0  0  0  0  0  0  0  0  0  0  0
  -22.1118  -23.7460   22.3313 N   0  0  0  0  0  0  0  0  0  0  0  0
  -28.1407  -18.2329   22.3847 N   0  0  0  0  0  0  0  0  0  0  0  0
  -24.2072  -24.7509   23.9011 N   0  0  0  0  0  0  0  0  0  0  0  0
  -28.5878  -19.3279   21.7465 N   0  0  0  0  0  0  0  0  0  0  0  0
  -25.6008  -30.8885   22.2037 N   0  0  0  0  0  0  0  0  0  0  0  0
  -27.5679  -22.0579   24.2143 N   0  0  0  0  0  0  0  0  0  0  0  0
  -22.9644  -26.7381   24.2635 N   0  0  0  0  0  0  0  0  0  0  0  0
  -29.4369  -20.0896   19.6706 N   0  0  0  0  0  0  0  0  0  0  0  0
  -28.7245  -15.6880   18.9530 N   0  0  0  0  0  0  0  0  0  0  0  0
  -20.8859  -25.7397   22.7067 N   0  0  0  0  0  0  0  0  0  0  0  0
  -25.4220  -22.7323   23.5052 N   0  0  0  0  0  0  0  0  0  0  0  0
  -27.3277  -27.9332   20.9467 N   0  0  0  0  0  0  0  0  0  0  0  0
  -25.5516  -33.7935   23.9407 N   0  0  0  0  0  0  0  0  0  0  0  0
  -17.4861  -26.0644   22.6998 N   0  3  0  0  0  0  0  0  0  0  0  0
  -23.5766  -36.4498   22.4878 N   0  3  0  0  0  0  0  0  0  0  0  0
  -29.4771  -17.6323   17.9981 O   0  0  0  0  0  0  0  0  0  0  0  0
  -26.2059  -28.5058   22.9053 O   0  0  0  0  0  0  0  0  0  0  0  0
  -27.5284  -32.0331   22.8443 O   0  0  0  0  0  0  0  0  0  0  0  0
  -19.5605  -24.3595   21.3475 O   0  0  0  0  0  0  0  0  0  0  0  0
  -23.2519  -33.9174   23.6701 O   0  0  0  0  0  0  0  0  0  0  0  0
  -26.7141  -24.1091   24.8530 O   0  0  0  0  0  0  0  0  0  0  0  0
  -26.7144  -12.0323   22.6451 O   0  0  0  0  0  0  0  0  0  0  0  0
  -20.0388  -28.7709   20.5812 O   0  0  0  0  0  0  0  0  0  1  0  0
  -23.6472   -9.3473   18.9320 F   0  0  0  0  0  0  0  0  0  0  0  0
  -27.6520  -11.5934   20.0817 F   0  0  0  0  0  0  0  0  0  0  0  0
  1  2  1  0  0  0  0
  1  5  2  0  0  0  0
  2  6  2  0  0  0  0
  3  8  2  0  0  0  0
  3 16  1  0  0  0  0
  4  9  1  0  0  0  0
  4 16  2  0  0  0  0
  5 18  1  0  0  0  0
  6 20  1  0  0  0  0
  7 10  2  0  0  0  0
  7 19  1  0  0  0  0
  8 22  1  0  0  0  0
  9 22  2  0  0  0  0
 10 23  1  0  0  0  0
 11 12  2  0  0  0  0
 11 24  1  0  0  0  0
 12 25  1  0  0  0  0
 13 21  1  0  0  0  0
 13 23  2  0  0  0  0
 14 25  2  0  0  0  0
 14 26  1  0  0  0  0
 15 28  1  0  0  0  0
 15 61  2  0  0  0  0
 16 27  1  0  0  0  0
 17 27  1  0  0  0  0
 17 31  2  0  0  0  0
 17 32  1  0  0  0  0
 18 20  2  0  0  0  0
 18 38  1  0  0  0  0
 19 21  2  0  0  0  0
 19 39  1  0  0  0  0
 20 47  1  0  0  0  0
 21 40  1  0  0  0  0
 22 82  1  0  0  0  0
 23 83  1  0  0  0  0
 24 26  2  0  0  0  0
 24 82  1  0  0  0  0
 25 84  1  0  0  0  0
 26 85  1  0  0  0  0
 27 62  2  0  0  0  0
 28 63  2  0  0  0  0
 28 71  1  0  0  0  0
 29 30  2  0  0  0  0
 29 61  1  0  0  0  0
 29 70  1  0  0  0  0
 30 63  1  0  0  0  0
 30 67  1  0  0  0  0
 31 64  1  0  0  0  0
 31 68  1  0  0  0  0
 32 69  1  0  0  0  0
 32 76  2  0  0  0  0
 33 48  1  0  0  0  0
 33 72  1  0  0  0  0
 33 77  2  0  0  0  0
 34 57  1  0  0  0  0
 34 65  1  0  0  0  0
 34 78  2  0  0  0  0
 35 58  1  0  0  0  0
 35 70  1  0  0  0  0
 35 79  2  0  0  0  0
 36 59  1  0  0  0  0
 36 73  1  0  0  0  0
 36 80  2  0  0  0  0
 37 66  1  0  0  0  0
 37 71  1  0  0  0  0
 37 81  2  0  0  0  0
 38 41  1  0  0  0  0
 39 48  1  0  0  0  0
 40 65  1  0  0  0  0
 41 43  1  0  0  0  0
 42 44  1  0  0  0  0
 42 45  1  0  0  0  0
 43 47  1  0  0  0  0
 44 49  1  0  0  0  0
 45 66  1  0  0  0  0
 46 49  1  0  0  0  0
 46 66  1  0  0  0  0
 47 72  1  0  0  0  0
 48 65  1  0  0  0  0
 49 64  1  0  0  0  0
 50 59  1  0  0  0  0
 51 60  1  0  0  0  0
 52 60  1  0  0  0  0
 53 60  1  0  0  0  0
 54 75  1  0  0  0  0
 55 56  1  0  0  0  0
 55 58  1  0  0  0  0
 56 83  1  0  0  0  0
 57 60  1  0  0  0  0
 57 73  1  0  0  0  0
 58 74  1  0  0  0  0
 59 75  1  0  0  0  0
 62 64  1  0  0  0  0
M  CHG  2  74   1  75   1
M  ISO  4  37 100  56 101  71 100  83 101
M  END
> <Batch ID>
0199

> <Smiles>
CNC(C)C(=O)NC(C(=O)N1Cc2cc([101O:1][101CH2:1]CC(N)C(=O)Nc3ncc([100NH:0][100C:0](=O)N4CCCC(n5nc(-c6ccc(Oc7ccc(F)cc7F)cc6)c(C(N)=O)c5N)C4)nc3N)ccc2CC1C(=O)NC1CCCc2ccccc21)C(C)(C)C

> <Shape>
0.292

> <Color>
0.057

> <Negative vol penalty>
0.000

$$$$

  -OEChem-04052305473D

 85 93  0     1  0  0  0  0  0999 V2000
  -17.5725  -25.7973   23.0197 C   0  0  0  0  0  0  0  0  0  0  0  0
  -18.7478  -25.9989   22.3031 C   0  0  0  0  0  0  0  0  0  0  0  0
  -27.7164  -10.0914   21.9075 C   0  0  0  0  0  0  0  0  0  0  0  0
  -26.0056  -11.3973   20.8098 C   0  0  0  0  0  0  0  0  0  0  0  0
  -16.9147  -26.8826   23.5972 C   0  0  0  0  0  0  0  0  0  0  0  0
  -19.2654  -27.2861   22.1626 C   0  0  0  0  0  0  0  0  0  0  0  0
  -24.2661  -27.4646   22.9408 C   0  0  0  0  0  0  0  0  0  0  0  0
  -26.7348   -9.4106   22.6275 C   0  0  0  0  0  0  0  0  0  0  0  0
  -25.0239  -10.7164   21.5298 C   0  0  0  0  0  0  0  0  0  0  0  0
  -25.0881  -27.0286   21.9025 C   0  0  0  0  0  0  0  0  0  0  0  0
  -22.0462   -9.0727   22.8142 C   0  0  0  0  0  0  0  0  0  0  0  0
  -20.9206   -8.6305   22.1192 C   0  0  0  0  0  0  0  0  0  0  0  0
  -25.4796  -29.3201   21.2583 C   0  0  0  0  0  0  0  0  0  0  0  0
  -22.3304   -7.2813   20.6946 C   0  0  0  0  0  0  0  0  0  0  0  0
  -27.3885  -19.2573   18.6099 C   0  0  0  0  0  0  0  0  0  0  0  0
  -27.3518  -11.0848   20.9987 C   0  0  0  0  0  0  0  0  0  0  0  0
  -28.8996  -11.4355   19.0014 C   0  0  0  0  0  0  0  0  0  0  0  0
  -17.4297  -28.1825   23.4719 C   0  0  0  0  0  0  0  0  0  0  0  0
  -24.0357  -28.8336   23.1393 C   0  0  0  0  0  0  0  0  0  0  0  0
  -18.6131  -28.3899   22.7379 C   0  0  0  0  0  0  0  0  0  0  0  0
  -24.6564  -29.7710   22.3014 C   0  0  0  0  0  0  0  0  0  0  0  0
  -25.3885   -9.7230   22.4387 C   0  0  0  0  0  0  0  0  0  0  0  0
  -25.6926  -27.9563   21.0593 C   0  0  0  0  0  0  0  0  0  0  0  0
  -23.3139   -8.6193   22.4494 C   0  0  0  0  0  0  0  0  0  0  0  0
  -21.0627   -7.7348   21.0594 C   0  0  0  0  0  0  0  0  0  0  0  0
  -23.4560   -7.7236   21.3896 C   0  0  0  0  0  0  0  0  0  0  0  0
  -28.3654  -11.7889   20.2550 C   0  0  0  0  0  0  0  0  0  0  0  0
  -27.4614  -21.4867   18.1061 C   0  0  0  0  0  0  0  0  0  0  0  0
  -28.6066  -19.3608   19.2447 C   0  0  0  0  0  0  0  0  0  0  0  0
  -28.6792  -21.5905   18.7415 C   0  0  0  0  0  0  0  0  0  0  0  0
  -29.8212  -12.4175   18.7317 C   0  0  0  0  0  0  0  0  0  0  0  0
  -28.5904  -10.3193   18.1563 C   0  0  0  0  0  0  0  0  0  0  0  0
  -26.7880  -22.6443   17.4589 C   0  0  0  0  0  0  0  0  0  0  0  0
  -21.4701  -30.7090   23.0734 C   0  0  0  0  0  0  0  0  0  0  0  0
  -23.5649  -32.9534   24.1206 C   0  0  0  0  0  0  0  0  0  0  0  0
  -26.7992  -34.0209   24.3373 C   0  0  0  0  0  0  0  0  0  0  0  0
  -30.3771  -18.0942   20.5126 C   0  0  0  0  0  0  0  0  0  0  0  0
  -16.6580  -29.3301   24.0737 C   0  0  0  0  0  0  0  0  0  0  0  0
  -23.1678  -29.2887   24.2803 C   0  0  0  0  0  0  0  0  0  0  0  0
  -24.4574  -31.2527   22.4846 C   0  0  0  0  0  0  0  0  0  0  0  0
  -17.4734  -30.6149   24.1957 C   0  0  0  0  0  0  0  0  0  0  0  0
  -32.7699  -15.4897   20.9228 C   0  0  0  0  0  0  0  0  0  0  0  0
  -18.2270  -30.8940   22.8991 C   0  0  0  0  0  0  0  0  0  0  0  0
  -31.9619  -14.2132   20.6781 C   0  0  0  0  0  0  0  0  0  0  0  0
  -31.9494  -16.5480   21.6580 C   0  0  0  0  0  0  0  0  0  0  0  0
  -29.8480  -15.5932   20.7968 C   0  0  0  0  0  0  0  0  0  0  0  0
  -19.2193  -29.7680   22.5844 C   0  0  1  0  0  0  0  0  0  0  0  0
  -22.5920  -30.6861   24.0726 C   0  0  1  0  0  0  0  0  0  0  0  0
  -30.6118  -14.5219   20.0016 C   0  0  2  0  0  0  0  0  0  0  0  0
  -28.1949  -35.9106   25.2195 C   0  0  0  0  0  0  0  0  0  0  0  0
  -22.6530  -34.7084   21.7971 C   0  0  0  0  0  0  0  0  0  0  0  0
  -24.6909  -36.1185   22.1535 C   0  0  0  0  0  0  0  0  0  0  0  0
  -22.9792  -35.9247   23.9578 C   0  0  0  0  0  0  0  0  0  0  0  0
  -28.3080  -32.2198   26.1369 C   0  0  0  0  0  0  0  0  0  0  0  0
  -26.3015  -24.9533   17.2808 C   0  0  0  0  0  0  0  0  0  0  0  0
  -26.1978  -26.2620   19.4686 C   0  0  0  0  0  0  0  0  0  1  0  0
  -24.4808  -33.9533   23.4570 C   0  0  1  0  0  0  0  0  0  0  0  0
  -27.6134  -34.5358   25.5105 C   0  0  2  0  0  0  0  0  0  0  0  0
  -26.6147  -26.2614   18.0009 C   0  0  1  0  0  0  0  0  0  0  0  0
  -23.7034  -35.1483   22.8364 C   0  0  0  0  0  0  0  0  0  0  0  0
  -26.7941  -20.3183   18.0291 N   0  0  0  0  0  0  0  0  0  0  0  0
  -28.9030  -12.9080   20.7476 N   0  0  0  0  0  0  0  0  0  0  0  0
  -29.2738  -20.5294   19.3220 N   0  0  0  0  0  0  0  0  0  0  0  0
  -26.9794  -23.8259   17.9272 N   0  0  0  0  0  0  0  0  0  0  0  0
  -29.7846  -13.2663   19.7987 N   0  0  0  0  0  0  0  0  0  0  0  0
  -23.5950  -31.6477   23.6105 N   0  0  0  0  0  0  0  0  0  0  0  0
  -30.6866  -16.7915   20.9574 N   0  0  0  0  0  0  0  0  0  0  0  0
  -29.3298  -22.8442   18.7893 N   0  0  0  0  0  0  0  0  0  0  0  0
  -30.6512  -12.6292   17.6883 N   0  0  0  0  0  0  0  0  0  0  0  0
  -27.6184   -9.4053   18.5856 N   0  0  0  0  0  0  0  0  0  0  0  0
  -25.9771  -22.3452   16.3828 N   0  0  0  0  0  0  0  0  0  0  0  0
  -29.1651  -18.1979   19.8306 N   0  0  0  0  0  0  0  0  0  0  0  0
  -20.4043  -29.8945   23.4054 N   0  0  0  0  0  0  0  0  0  0  0  0
  -25.4633  -34.3382   24.4644 N   0  0  0  0  0  0  0  0  0  0  0  0
  -28.0843  -26.5134   17.9247 N   0  3  0  0  0  0  0  0  0  0  0  0
  -28.7373  -33.6039   25.8097 N   0  3  0  0  0  0  0  0  0  0  0  0
  -29.1710  -10.1288   17.0608 O   0  0  0  0  0  0  0  0  0  0  0  0
  -21.5637  -31.4145   22.0759 O   0  0  0  0  0  0  0  0  0  0  0  0
  -22.8544  -33.3157   25.0616 O   0  0  0  0  0  0  0  0  0  0  0  0
  -27.2987  -33.4025   23.4001 O   0  0  0  0  0  0  0  0  0  0  0  0
  -31.1443  -19.0425   20.6974 O   0  0  0  0  0  0  0  0  0  0  0  0
  -24.4304   -9.0587   23.1409 O   0  0  0  0  0  0  0  0  0  0  0  0
  -26.4948  -27.5334   20.0446 O   0  0  0  0  0  0  0  0  0  1  0  0
  -19.9816   -7.3090   20.3931 F   0  0  0  0  0  0  0  0  0  0  0  0
  -24.6712   -7.2836   21.0353 F   0  0  0  0  0  0  0  0  0  0  0  0
  1  2  1  0  0  0  0
  1  5  2  0  0  0  0
  2  6  2  0  0  0  0
  3  8  2  0  0  0  0
  3 16  1  0  0  0  0
  4  9  1  0  0  0  0
  4 16  2  0  0  0  0
  5 18  1  0  0  0  0
  6 20  1  0  0  0  0
  7 10  2  0  0  0  0
  7 19  1  0  0  0  0
  8 22  1  0  0  0  0
  9 22  2  0  0  0  0
 10 23  1  0  0  0  0
 11 12  2  0  0  0  0
 11 24  1  0  0  0  0
 12 25  1  0  0  0  0
 13 21  1  0  0  0  0
 13 23  2  0  0  0  0
 14 25  2  0  0  0  0
 14 26  1  0  0  0  0
 15 29  1  0  0  0  0
 15 61  2  0  0  0  0
 16 27  1  0  0  0  0
 17 27  1  0  0  0  0
 17 31  2  0  0  0  0
 17 32  1  0  0  0  0
 18 20  2  0  0  0  0
 18 38  1  0  0  0  0
 19 21  2  0  0  0  0
 19 39  1  0  0  0  0
 20 47  1  0  0  0  0
 21 40  1  0  0  0  0
 22 82  1  0  0  0  0
 23 83  1  0  0  0  0
 24 26  2  0  0  0  0
 24 82  1  0  0  0  0
 25 84  1  0  0  0  0
 26 85  1  0  0  0  0
 27 62  2  0  0  0  0
 28 30  2  0  0  0  0
 28 33  1  0  0  0  0
 28 61  1  0  0  0  0
 29 63  2  0  0  0  0
 29 72  1  0  0  0  0
 30 63  1  0  0  0  0
 30 68  1  0  0  0  0
 31 65  1  0  0  0  0
 31 69  1  0  0  0  0
 32 70  1  0  0  0  0
 32 77  2  0  0  0  0
 33 64  2  0  0  0  0
 33 71  1  0  0  0  0
 34 48  1  0  0  0  0
 34 73  1  0  0  0  0
 34 78  2  0  0  0  0
 35 57  1  0  0  0  0
 35 66  1  0  0  0  0
 35 79  2  0  0  0  0
 36 58  1  0  0  0  0
 36 74  1  0  0  0  0
 36 80  2  0  0  0  0
 37 67  1  0  0  0  0
 37 72  1  0  0  0  0
 37 81  2  0  0  0  0
 38 41  1  0  0  0  0
 39 48  1  0  0  0  0
 40 66  1  0  0  0  0
 41 43  1  0  0  0  0
 42 44  1  0  0  0  0
 42 45  1  0  0  0  0
 43 47  1  0  0  0  0
 44 49  1  0  0  0  0
 45 67  1  0  0  0  0
 46 49  1  0  0  0  0
 46 67  1  0  0  0  0
 47 73  1  0  0  0  0
 48 66  1  0  0  0  0
 49 65  1  0  0  0  0
 50 58  1  0  0  0  0
 51 60  1  0  0  0  0
 52 60  1  0  0  0  0
 53 60  1  0  0  0  0
 54 76  1  0  0  0  0
 55 59  1  0  0  0  0
 55 64  1  0  0  0  0
 56 59  1  0  0  0  0
 56 83  1  0  0  0  0
 57 60  1  0  0  0  0
 57 74  1  0  0  0  0
 58 76  1  0  0  0  0
 59 75  1  0  0  0  0
 62 65  1  0  0  0  0
M  CHG  2  75   1  76   1
M  ISO  4  37 100  56 101  72 100  83 101
M  END
> <Batch ID>
0199

> <Smiles>
CNC(C)C(=O)NC(C(=O)N1Cc2cc([101O:1][101CH2:1]C(N)CNC(=N)c3ncc([100NH:0][100C:0](=O)N4CCCC(n5nc(-c6ccc(Oc7ccc(F)cc7F)cc6)c(C(N)=O)c5N)C4)nc3N)ccc2CC1C(=O)NC1CCCc2ccccc21)C(C)(C)C

> <Shape>
0.327

> <Color>
0.079

> <Negative vol penalty>
0.000

$$$$

  -OEChem-04052305473D

 83 91  0     1  0  0  0  0  0999 V2000
  -19.3873  -24.0374   22.1616 C   0  0  0  0  0  0  0  0  0  0  0  0
  -20.5999  -24.3615   21.5615 C   0  0  0  0  0  0  0  0  0  0  0  0
  -23.8585  -14.4867   20.8152 C   0  0  0  0  0  0  0  0  0  0  0  0
  -26.1965  -14.6415   21.4040 C   0  0  0  0  0  0  0  0  0  0  0  0
  -18.5304  -25.0501   22.5905 C   0  0  0  0  0  0  0  0  0  0  0  0
  -20.9558  -25.6986   21.3890 C   0  0  0  0  0  0  0  0  0  0  0  0
  -25.7672  -26.6104   22.6789 C   0  0  0  0  0  0  0  0  0  0  0  0
  -24.0235  -13.1346   20.5154 C   0  0  0  0  0  0  0  0  0  0  0  0
  -26.3615  -13.2892   21.1042 C   0  0  0  0  0  0  0  0  0  0  0  0
  -26.7527  -26.2378   21.7659 C   0  0  0  0  0  0  0  0  0  0  0  0
  -24.2528  -10.2174   22.2097 C   0  0  0  0  0  0  0  0  0  0  0  0
  -23.2912   -9.3260   22.6852 C   0  0  0  0  0  0  0  0  0  0  0  0
  -26.9095  -28.5238   21.0116 C   0  0  0  0  0  0  0  0  0  0  0  0
  -29.9806  -23.3867   18.7924 C   0  0  0  0  0  0  0  0  0  0  0  0
  -22.7852   -8.6622   20.4179 C   0  0  0  0  0  0  0  0  0  0  0  0
  -24.9451  -15.2403   21.2595 C   0  0  0  0  0  0  0  0  0  0  0  0
  -24.4254  -17.1962   22.8126 C   0  0  0  0  0  0  0  0  0  0  0  0
  -18.8803  -26.4003   22.4320 C   0  0  0  0  0  0  0  0  0  0  0  0
  -25.3370  -27.9427   22.7577 C   0  0  0  0  0  0  0  0  0  0  0  0
  -20.1021  -26.7304   21.8150 C   0  0  0  0  0  0  0  0  0  0  0  0
  -25.9202  -28.9111   21.9282 C   0  0  0  0  0  0  0  0  0  0  0  0
  -31.3328  -23.4788   19.2002 C   0  0  0  0  0  0  0  0  0  0  0  0
  -25.2750  -12.5358   20.6599 C   0  0  0  0  0  0  0  0  0  0  0  0
  -27.3220  -27.1940   20.9300 C   0  0  0  0  0  0  0  0  0  0  0  0
  -24.4806  -10.3313   20.8382 C   0  0  0  0  0  0  0  0  0  0  0  0
  -22.5574   -8.5484   21.7894 C   0  0  0  0  0  0  0  0  0  0  0  0
  -23.7469   -9.5537   19.9424 C   0  0  0  0  0  0  0  0  0  0  0  0
  -24.7754  -16.6373   21.5688 C   0  0  0  0  0  0  0  0  0  0  0  0
  -31.5812  -22.3566   19.9558 C   0  0  0  0  0  0  0  0  0  0  0  0
  -24.3942  -18.5501   22.5840 C   0  0  0  0  0  0  0  0  0  0  0  0
  -29.4992  -22.2147   19.3277 C   0  0  0  0  0  0  0  0  0  0  0  0
  -24.1529  -16.5492   24.0627 C   0  0  0  0  0  0  0  0  0  0  0  0
  -22.5709  -29.4379   22.2921 C   0  0  0  0  0  0  0  0  0  0  0  0
  -24.2177  -32.0039   23.3995 C   0  0  0  0  0  0  0  0  0  0  0  0
  -27.2366  -33.5197   23.8844 C   0  0  0  0  0  0  0  0  0  0  0  0
  -27.0946  -22.0788   18.5888 C   0  0  0  0  0  0  0  0  0  0  0  0
  -17.9003  -27.4603   22.8686 C   0  0  0  0  0  0  0  0  0  0  0  0
  -24.2919  -28.3333   23.7665 C   0  0  0  0  0  0  0  0  0  0  0  0
  -25.5079  -30.3585   21.9876 C   0  0  0  0  0  0  0  0  0  0  0  0
  -18.5197  -28.8504   22.9882 C   0  0  0  0  0  0  0  0  0  0  0  0
  -23.5881  -21.7434   19.1074 C   0  0  0  0  0  0  0  0  0  0  0  0
  -19.3731  -29.1618   21.7628 C   0  0  0  0  0  0  0  0  0  0  0  0
  -23.4632  -20.4500   19.9158 C   0  0  0  0  0  0  0  0  0  0  0  0
  -24.7023  -21.6560   18.0660 C   0  0  0  0  0  0  0  0  0  0  0  0
  -25.8876  -19.9572   19.3995 C   0  0  0  0  0  0  0  0  0  0  0  0
  -20.5346  -28.1691   21.6328 C   0  0  1  0  0  0  0  0  0  0  0  0
  -23.5643  -29.6243   23.4039 C   0  0  1  0  0  0  0  0  0  0  0  0
  -24.8211  -20.0205   20.5051 C   0  0  2  0  0  0  0  0  0  0  0  0
  -32.7721  -21.8559   20.6584 C   0  0  0  0  0  0  0  0  0  0  0  0
  -28.2608  -35.6291   24.7782 C   0  0  0  0  0  0  0  0  0  0  0  0
  -23.3539  -33.4889   20.8779 C   0  0  0  0  0  0  0  0  0  0  0  0
  -25.1336  -35.1850   21.3510 C   0  0  0  0  0  0  0  0  0  0  0  0
  -23.2675  -34.8523   22.9727 C   0  0  0  0  0  0  0  0  0  0  0  0
  -28.7543  -32.0439   25.9527 C   0  0  0  0  0  0  0  0  0  0  0  0
  -32.3018  -24.5861   18.8706 C   0  0  0  0  0  0  0  0  0  0  0  0
  -32.4882  -25.6082   20.0018 C   0  0  0  0  0  0  0  0  0  0  0  0
  -30.5837  -27.1428   19.3481 C   0  0  0  0  0  0  0  0  0  0  0  0
  -29.2605  -27.8174   19.7014 C   0  0  0  0  0  0  0  0  0  1  0  0
  -25.0634  -33.0843   22.7699 C   0  0  1  0  0  0  0  0  0  0  0  0
  -27.8364  -34.2044   25.0992 C   0  0  2  0  0  0  0  0  0  0  0  0
  -31.2067  -26.3110   20.4822 C   0  0  2  0  0  0  0  0  0  0  0  0
  -24.2112  -34.1251   21.9902 C   0  0  0  0  0  0  0  0  0  0  0  0
  -24.9536  -17.5607   20.6204 N   0  0  0  0  0  0  0  0  0  0  0  0
  -24.7146  -18.7136   21.2684 N   0  0  0  0  0  0  0  0  0  0  0  0
  -24.4779  -30.6897   22.9860 N   0  0  0  0  0  0  0  0  0  0  0  0
  -25.9592  -21.2482   18.6974 N   0  0  0  0  0  0  0  0  0  0  0  0
  -24.1242  -19.6050   23.3820 N   0  0  0  0  0  0  0  0  0  0  0  0
  -24.2297  -15.1511   24.1222 N   0  0  0  0  0  0  0  0  0  0  0  0
  -28.2226  -21.6038   19.2570 N   0  0  0  0  0  0  0  0  0  0  0  0
  -21.5910  -28.5024   22.5642 N   0  0  0  0  0  0  0  0  0  0  0  0
  -25.8649  -33.6550   23.8471 N   0  0  0  0  0  0  0  0  0  0  0  0
  -31.5351  -27.2088   21.6257 N   0  3  0  0  0  0  0  0  0  0  0  0
  -29.0317  -33.4547   25.5790 N   0  3  0  0  0  0  0  0  0  0  0  0
  -23.8343  -17.1910   25.0924 O   0  0  0  0  0  0  0  0  0  0  0  0
  -22.6840  -30.0954   21.2642 O   0  0  0  0  0  0  0  0  0  0  0  0
  -23.3627  -32.3138   24.2329 O   0  0  0  0  0  0  0  0  0  0  0  0
  -27.9173  -32.9274   23.0498 O   0  0  0  0  0  0  0  0  0  0  0  0
  -27.0605  -23.1473   17.9729 O   0  0  0  0  0  0  0  0  0  0  0  0
  -30.4686  -21.5807   20.0382 O   0  0  0  0  0  0  0  0  0  0  0  0
  -25.4363  -11.2163   20.3677 O   0  0  0  0  0  0  0  0  0  0  0  0
  -28.2837  -26.8329   20.0374 O   0  0  0  0  0  0  0  0  0  1  0  0
  -21.6351   -7.6912   22.2463 F   0  0  0  0  0  0  0  0  0  0  0  0
  -23.9621   -9.6579   18.6238 F   0  0  0  0  0  0  0  0  0  0  0  0
  1  2  1  0  0  0  0
  1  5  2  0  0  0  0
  2  6  2  0  0  0  0
  3  8  2  0  0  0  0
  3 16  1  0  0  0  0
  4  9  1  0  0  0  0
  4 16  2  0  0  0  0
  5 18  1  0  0  0  0
  6 20  1  0  0  0  0
  7 10  2  0  0  0  0
  7 19  1  0  0  0  0
  8 23  1  0  0  0  0
  9 23  2  0  0  0  0
 10 24  1  0  0  0  0
 11 12  2  0  0  0  0
 11 25  1  0  0  0  0
 12 26  1  0  0  0  0
 13 21  1  0  0  0  0
 13 24  2  0  0  0  0
 14 22  1  0  0  0  0
 14 31  2  0  0  0  0
 15 26  2  0  0  0  0
 15 27  1  0  0  0  0
 16 28  1  0  0  0  0
 17 28  1  0  0  0  0
 17 30  2  0  0  0  0
 17 32  1  0  0  0  0
 18 20  2  0  0  0  0
 18 37  1  0  0  0  0
 19 21  2  0  0  0  0
 19 38  1  0  0  0  0
 20 46  1  0  0  0  0
 21 39  1  0  0  0  0
 22 29  2  0  0  0  0
 22 55  1  0  0  0  0
 23 80  1  0  0  0  0
 24 81  1  0  0  0  0
 25 27  2  0  0  0  0
 25 80  1  0  0  0  0
 26 82  1  0  0  0  0
 27 83  1  0  0  0  0
 28 63  2  0  0  0  0
 29 49  1  0  0  0  0
 29 79  1  0  0  0  0
 30 64  1  0  0  0  0
 30 67  1  0  0  0  0
 31 69  1  0  0  0  0
 31 79  1  0  0  0  0
 32 68  1  0  0  0  0
 32 74  2  0  0  0  0
 33 47  1  0  0  0  0
 33 70  1  0  0  0  0
 33 75  2  0  0  0  0
 34 59  1  0  0  0  0
 34 65  1  0  0  0  0
 34 76  2  0  0  0  0
 35 60  1  0  0  0  0
 35 71  1  0  0  0  0
 35 77  2  0  0  0  0
 36 66  1  0  0  0  0
 36 69  1  0  0  0  0
 36 78  2  0  0  0  0
 37 40  1  0  0  0  0
 38 47  1  0  0  0  0
 39 65  1  0  0  0  0
 40 42  1  0  0  0  0
 41 43  1  0  0  0  0
 41 44  1  0  0  0  0
 42 46  1  0  0  0  0
 43 48  1  0  0  0  0
 44 66  1  0  0  0  0
 45 48  1  0  0  0  0
 45 66  1  0  0  0  0
 46 70  1  0  0  0  0
 47 65  1  0  0  0  0
 48 64  1  0  0  0  0
 50 60  1  0  0  0  0
 51 62  1  0  0  0  0
 52 62  1  0  0  0  0
 53 62  1  0  0  0  0
 54 73  1  0  0  0  0
 55 56  1  0  0  0  0
 56 61  1  0  0  0  0
 57 58  1  0  0  0  0
 57 61  1  0  0  0  0
 58 81  1  0  0  0  0
 59 62  1  0  0  0  0
 59 71  1  0  0  0  0
 60 73  1  0  0  0  0
 61 72  1  0  0  0  0
 63 64  1  0  0  0  0
M  CHG  2  72   1  73   1
M  ISO  4  36 100  58 101  69 100  81 101
M  END
> <Batch ID>
0199

> <Smiles>
CNC(C)C(=O)NC(C(=O)N1Cc2cc([101O:1][101CH2:1]CC(N)CCc3cc([100NH:0][100C:0](=O)N4CCCC(n5nc(-c6ccc(Oc7ccc(F)cc7F)cc6)c(C(N)=O)c5N)C4)oc3C)ccc2CC1C(=O)NC1CCCc2ccccc21)C(C)(C)C

> <Shape>
0.270

> <Color>
0.109

> <Negative vol penalty>
0.000

$$$$

  -OEChem-04052305473D

 83 91  0     1  0  0  0  0  0999 V2000
  -21.3018  -23.5033   20.6174 C   0  0  0  0  0  0  0  0  0  0  0  0
  -22.4521  -22.7215   20.6483 C   0  0  0  0  0  0  0  0  0  0  0  0
  -20.1707  -28.2536   23.5547 C   0  0  0  0  0  0  0  0  0  0  0  0
  -19.9970  -26.9867   21.5048 C   0  0  0  0  0  0  0  0  0  0  0  0
  -20.1653  -23.0971   21.3155 C   0  0  0  0  0  0  0  0  0  0  0  0
  -22.4669  -21.5335   21.3781 C   0  0  0  0  0  0  0  0  0  0  0  0
  -24.5936  -17.7116   18.8255 C   0  0  0  0  0  0  0  0  0  0  0  0
  -18.8104  -28.5539   23.4844 C   0  0  0  0  0  0  0  0  0  0  0  0
  -18.6366  -27.2870   21.4345 C   0  0  0  0  0  0  0  0  0  0  0  0
  -25.9862  -17.6834   18.7649 C   0  0  0  0  0  0  0  0  0  0  0  0
  -15.4581  -29.9531   23.6523 C   0  0  0  0  0  0  0  0  0  0  0  0
  -15.0693  -31.2693   23.9012 C   0  0  0  0  0  0  0  0  0  0  0  0
  -26.0235  -16.0379   20.5285 C   0  0  0  0  0  0  0  0  0  0  0  0
  -16.4270  -32.0207   22.0493 C   0  0  0  0  0  0  0  0  0  0  0  0
  -20.7640  -27.4700   22.5649 C   0  0  0  0  0  0  0  0  0  0  0  0
  -22.7642  -26.0525   23.2704 C   0  0  0  0  0  0  0  0  0  0  0  0
  -20.1631  -21.8986   22.0464 C   0  0  0  0  0  0  0  0  0  0  0  0
  -23.9048  -16.9100   19.7471 C   0  0  0  0  0  0  0  0  0  0  0  0
  -21.3298  -21.1115   22.0877 C   0  0  0  0  0  0  0  0  0  0  0  0
  -24.6220  -16.0560   20.5971 C   0  0  0  0  0  0  0  0  0  0  0  0
  -18.0433  -28.0706   22.4243 C   0  0  0  0  0  0  0  0  0  0  0  0
  -26.7015  -16.8486   19.6184 C   0  0  0  0  0  0  0  0  0  0  0  0
  -16.3314  -29.6707   22.6019 C   0  0  0  0  0  0  0  0  0  0  0  0
  -15.5537  -32.3031   23.0998 C   0  0  0  0  0  0  0  0  0  0  0  0
  -16.8158  -30.7044   21.8004 C   0  0  0  0  0  0  0  0  0  0  0  0
  -22.1693  -27.1599   22.6367 C   0  0  0  0  0  0  0  0  0  0  0  0
  -31.3624  -24.2120   19.2505 C   0  0  0  0  0  0  0  0  0  0  0  0
  -24.1107  -26.2157   23.0544 C   0  0  0  0  0  0  0  0  0  0  0  0
  -30.6644  -23.0717   19.5889 C   0  0  0  0  0  0  0  0  0  0  0  0
  -29.4230  -25.1331   19.6980 C   0  0  0  0  0  0  0  0  0  0  0  0
  -22.1541  -24.9728   23.9899 C   0  0  0  0  0  0  0  0  0  0  0  0
  -21.9709  -17.4745   22.2058 C   0  0  0  0  0  0  0  0  0  0  0  0
  -21.6580  -14.2458   22.1989 C   0  0  0  0  0  0  0  0  0  0  0  0
  -22.9730  -11.2093   21.3639 C   0  0  0  0  0  0  0  0  0  0  0  0
  -28.3955  -27.4332   19.7136 C   0  0  0  0  0  0  0  0  0  0  0  0
  -18.9259  -21.5246   22.8236 C   0  0  0  0  0  0  0  0  0  0  0  0
  -22.4012  -16.9323   19.7816 C   0  0  0  0  0  0  0  0  0  0  0  0
  -23.9291  -15.1607   21.5904 C   0  0  0  0  0  0  0  0  0  0  0  0
  -18.9035  -20.0641   23.2672 C   0  0  0  0  0  0  0  0  0  0  0  0
  -26.7001  -30.1678   21.2384 C   0  0  0  0  0  0  0  0  0  0  0  0
  -20.2461  -19.6701   23.8749 C   0  0  0  0  0  0  0  0  0  0  0  0
  -25.4192  -29.5379   21.7902 C   0  0  0  0  0  0  0  0  0  0  0  0
  -27.1062  -29.5491   19.9019 C   0  0  0  0  0  0  0  0  0  0  0  0
  -25.9326  -27.4547   20.4547 C   0  0  0  0  0  0  0  0  0  0  0  0
  -21.3770  -19.8038   22.8479 C   0  0  1  0  0  0  0  0  0  0  0  0
  -21.8269  -16.4546   21.1118 C   0  0  1  0  0  0  0  0  0  0  0  0
  -25.5196  -28.0004   21.8314 C   0  0  2  0  0  0  0  0  0  0  0  0
  -32.7793  -24.2780   18.8341 C   0  0  0  0  0  0  0  0  0  0  0  0
  -22.5043   -8.7490   21.5214 C   0  0  0  0  0  0  0  0  0  0  0  0
  -22.4320  -14.2897   25.1500 C   0  0  0  0  0  0  0  0  0  0  0  0
  -22.8710  -11.8294   24.9997 C   0  0  0  0  0  0  0  0  0  0  0  0
  -20.5759  -12.7128   24.5817 C   0  0  0  0  0  0  0  0  0  0  0  0
  -22.9515  -10.9070   18.4199 C   0  0  0  0  0  0  0  0  0  0  0  0
  -30.0949  -18.0626   19.8106 C   0  0  0  0  0  0  0  0  0  0  0  0
  -30.3029  -20.6350   19.9861 C   0  0  0  0  0  0  0  0  0  0  0  0
  -28.7200  -18.0198   19.1604 C   0  0  0  0  0  0  0  0  0  1  0  0
  -22.3857  -13.0997   22.8592 C   0  0  1  0  0  0  0  0  0  0  0  0
  -22.3631  -10.0031   20.6728 C   0  0  2  0  0  0  0  0  0  0  0  0
  -30.8993  -19.3227   19.4746 C   0  0  1  0  0  0  0  0  0  0  0  0
  -22.0796  -13.0011   24.3804 C   0  0  0  0  0  0  0  0  0  0  0  0
  -23.0645  -27.9671   22.0614 N   0  0  0  0  0  0  0  0  0  0  0  0
  -30.6520  -25.3950   19.3120 N   0  0  0  0  0  0  0  0  0  0  0  0
  -24.2357  -27.3664   22.3329 N   0  0  0  0  0  0  0  0  0  0  0  0
  -22.4582  -15.2231   21.5903 N   0  0  0  0  0  0  0  0  0  0  0  0
  -27.1852  -28.0913   20.0181 N   0  0  0  0  0  0  0  0  0  0  0  0
  -25.1882  -25.4859   23.4133 N   0  0  0  0  0  0  0  0  0  0  0  0
  -20.7584  -24.9591   24.1175 N   0  0  0  0  0  0  0  0  0  0  0  0
  -31.1230  -21.7650   19.6138 N   0  0  0  0  0  0  0  0  0  0  0  0
  -28.3608  -26.0506   19.8921 N   0  0  0  0  0  0  0  0  0  0  0  0
  -21.3620  -18.6841   21.9311 N   0  0  0  0  0  0  0  0  0  0  0  0
  -22.0367  -11.9034   22.1006 N   0  0  0  0  0  0  0  0  0  0  0  0
  -23.0332   -9.7626   19.3636 N   0  3  0  0  0  0  0  0  0  0  0  0
  -22.8279  -24.0562   24.5185 O   0  0  0  0  0  0  0  0  0  0  0  0
  -22.5875  -17.1848   23.2245 O   0  0  0  0  0  0  0  0  0  0  0  0
  -20.4248  -14.2692   22.2161 O   0  0  0  0  0  0  0  0  0  0  0  0
  -24.1620  -11.5040   21.2635 O   0  0  0  0  0  0  0  0  0  0  0  0
  -29.3977  -28.0536   19.3493 O   0  0  0  0  0  0  0  0  0  0  0  0
  -32.2165  -19.1905   20.0124 O   0  0  0  0  0  0  0  0  0  0  0  0
  -16.7159  -28.3633   22.3555 O   0  0  0  0  0  0  0  0  0  0  0  0
  -28.0608  -16.8195   19.5618 O   0  0  0  0  0  0  0  0  0  1  0  0
  -15.1790  -33.5669   23.3380 F   0  0  0  0  0  0  0  0  0  0  0  0
  -17.6541  -30.4391   20.7891 F   0  0  0  0  0  0  0  0  0  0  0  0
  -29.0528  -23.4857   20.0046 S   0  0  0  0  0  0  0  0  0  0  0  0
  1  2  1  0  0  0  0
  1  5  2  0  0  0  0
  2  6  2  0  0  0  0
  3  8  2  0  0  0  0
  3 15  1  0  0  0  0
  4  9  1  0  0  0  0
  4 15  2  0  0  0  0
  5 17  1  0  0  0  0
  6 19  1  0  0  0  0
  7 10  2  0  0  0  0
  7 18  1  0  0  0  0
  8 21  1  0  0  0  0
  9 21  2  0  0  0  0
 10 22  1  0  0  0  0
 11 12  2  0  0  0  0
 11 23  1  0  0  0  0
 12 24  1  0  0  0  0
 13 20  1  0  0  0  0
 13 22  2  0  0  0  0
 14 24  2  0  0  0  0
 14 25  1  0  0  0  0
 15 26  1  0  0  0  0
 16 26  1  0  0  0  0
 16 28  2  0  0  0  0
 16 31  1  0  0  0  0
 17 19  2  0  0  0  0
 17 36  1  0  0  0  0
 18 20  2  0  0  0  0
 18 37  1  0  0  0  0
 19 45  1  0  0  0  0
 20 38  1  0  0  0  0
 21 79  1  0  0  0  0
 22 80  1  0  0  0  0
 23 25  2  0  0  0  0
 23 79  1  0  0  0  0
 24 81  1  0  0  0  0
 25 82  1  0  0  0  0
 26 61  2  0  0  0  0
 27 29  2  0  0  0  0
 27 48  1  0  0  0  0
 27 62  1  0  0  0  0
 28 63  1  0  0  0  0
 28 66  1  0  0  0  0
 29 68  1  0  0  0  0
 29 83  1  0  0  0  0
 30 62  2  0  0  0  0
 30 69  1  0  0  0  0
 30 83  1  0  0  0  0
 31 67  1  0  0  0  0
 31 73  2  0  0  0  0
 32 46  1  0  0  0  0
 32 70  1  0  0  0  0
 32 74  2  0  0  0  0
 33 57  1  0  0  0  0
 33 64  1  0  0  0  0
 33 75  2  0  0  0  0
 34 58  1  0  0  0  0
 34 71  1  0  0  0  0
 34 76  2  0  0  0  0
 35 65  1  0  0  0  0
 35 69  1  0  0  0  0
 35 77  2  0  0  0  0
 36 39  1  0  0  0  0
 37 46  1  0  0  0  0
 38 64  1  0  0  0  0
 39 41  1  0  0  0  0
 40 42  1  0  0  0  0
 40 43  1  0  0  0  0
 41 45  1  0  0  0  0
 42 47  1  0  0  0  0
 43 65  1  0  0  0  0
 44 47  1  0  0  0  0
 44 65  1  0  0  0  0
 45 70  1  0  0  0  0
 46 64  1  0  0  0  0
 47 63  1  0  0  0  0
 49 58  1  0  0  0  0
 50 60  1  0  0  0  0
 51 60  1  0  0  0  0
 52 60  1  0  0  0  0
 53 72  1  0  0  0  0
 54 56  1  0  0  0  0
 54 59  1  0  0  0  0
 55 59  1  0  0  0  0
 55 68  1  0  0  0  0
 56 80  1  0  0  0  0
 57 60  1  0  0  0  0
 57 71  1  0  0  0  0
 58 72  1  0  0  0  0
 59 78  1  0  0  0  0
 61 63  1  0  0  0  0
M  CHG  1  72   1
M  ISO  4  35 100  56 101  69 100  80 101
M  END
> <Batch ID>
0199

> <Smiles>
CNC(C)C(=O)NC(C(=O)N1Cc2cc([101O:1][101CH2:1]CC(O)CNc3sc([100NH:0][100C:0](=O)N4CCCC(n5nc(-c6ccc(Oc7ccc(F)cc7F)cc6)c(C(N)=O)c5N)C4)nc3C)ccc2CC1C(=O)NC1CCCc2ccccc21)C(C)(C)C

> <Shape>
0.208

> <Color>
0.054

> <Negative vol penalty>
0.000

$$$$

  -OEChem-04052305473D

 81 89  0     1  0  0  0  0  0999 V2000
  -18.2799  -26.8196   23.4271 C   0  0  0  0  0  0  0  0  0  0  0  0
  -19.5890  -26.3561   23.3446 C   0  0  0  0  0  0  0  0  0  0  0  0
  -24.5889   -9.7568   21.4537 C   0  0  0  0  0  0  0  0  0  0  0  0
  -24.9744  -10.8523   23.5722 C   0  0  0  0  0  0  0  0  0  0  0  0
  -17.8173  -27.7647   22.5124 C   0  0  0  0  0  0  0  0  0  0  0  0
  -20.4360  -26.8366   22.3466 C   0  0  0  0  0  0  0  0  0  0  0  0
  -26.4692  -27.7932   22.7839 C   0  0  0  0  0  0  0  0  0  0  0  0
  -24.3580   -8.5525   22.1184 C   0  0  0  0  0  0  0  0  0  0  0  0
  -24.7435   -9.6480   24.2370 C   0  0  0  0  0  0  0  0  0  0  0  0
  -27.5703  -27.0329   22.3924 C   0  0  0  0  0  0  0  0  0  0  0  0
  -23.3125   -5.2704   23.2802 C   0  0  0  0  0  0  0  0  0  0  0  0
  -22.2169   -4.5069   22.8773 C   0  0  0  0  0  0  0  0  0  0  0  0
  -27.7031  -28.2931   20.3397 C   0  0  0  0  0  0  0  0  0  0  0  0
  -20.7384   -6.3348   23.4340 C   0  0  0  0  0  0  0  0  0  0  0  0
  -27.0985  -20.2621   21.0321 C   0  0  0  0  0  0  0  0  0  0  0  0
  -24.8971  -10.9067   22.1806 C   0  0  0  0  0  0  0  0  0  0  0  0
  -24.1853  -13.1336   21.1597 C   0  0  0  0  0  0  0  0  0  0  0  0
  -18.6620  -28.2643   21.5086 C   0  0  0  0  0  0  0  0  0  0  0  0
  -25.9692  -28.8037   21.9500 C   0  0  0  0  0  0  0  0  0  0  0  0
  -19.9839  -27.7883   21.4168 C   0  0  0  0  0  0  0  0  0  0  0  0
  -26.5971  -29.0666   20.7241 C   0  0  0  0  0  0  0  0  0  0  0  0
  -24.4353   -8.4980   23.5100 C   0  0  0  0  0  0  0  0  0  0  0  0
  -28.1856  -27.2808   21.1689 C   0  0  0  0  0  0  0  0  0  0  0  0
  -23.1210   -6.5661   23.7601 C   0  0  0  0  0  0  0  0  0  0  0  0
  -20.9298   -5.0391   22.9541 C   0  0  0  0  0  0  0  0  0  0  0  0
  -21.8340   -7.0983   23.8369 C   0  0  0  0  0  0  0  0  0  0  0  0
  -25.1363  -12.1510   21.4945 C   0  0  0  0  0  0  0  0  0  0  0  0
  -28.1968  -19.5752   20.5588 C   0  0  0  0  0  0  0  0  0  0  0  0
  -24.9109  -14.1108   20.5233 C   0  0  0  0  0  0  0  0  0  0  0  0
  -28.8471  -21.6124   20.0723 C   0  0  0  0  0  0  0  0  0  0  0  0
  -22.7725  -13.1605   21.4023 C   0  0  0  0  0  0  0  0  0  0  0  0
  -29.6993  -22.7201   19.5631 C   0  0  0  0  0  0  0  0  0  0  0  0
  -23.2067  -29.3258   20.4668 C   0  0  0  0  0  0  0  0  0  0  0  0
  -24.5896  -32.1641   19.7224 C   0  0  0  0  0  0  0  0  0  0  0  0
  -27.4561  -33.9600   19.2699 C   0  0  0  0  0  0  0  0  0  0  0  0
  -29.3935  -17.3940   20.1630 C   0  0  0  0  0  0  0  0  0  0  0  0
  -18.1028  -29.2500   20.5134 C   0  0  0  0  0  0  0  0  0  0  0  0
  -24.7972  -29.6328   22.3987 C   0  0  0  0  0  0  0  0  0  0  0  0
  -26.1116  -30.1535   19.8014 C   0  0  0  0  0  0  0  0  0  0  0  0
  -19.1765  -29.9867   19.7168 C   0  0  0  0  0  0  0  0  0  0  0  0
  -29.6852  -14.1006   18.8418 C   0  0  0  0  0  0  0  0  0  0  0  0
  -20.2264  -29.0068   19.2027 C   0  0  0  0  0  0  0  0  0  0  0  0
  -28.4495  -13.3806   19.3866 C   0  0  0  0  0  0  0  0  0  0  0  0
  -30.2614  -15.0857   19.8573 C   0  0  0  0  0  0  0  0  0  0  0  0
  -28.0635  -15.3348   20.9419 C   0  0  0  0  0  0  0  0  0  0  0  0
  -20.9405  -28.3039   20.3636 C   0  0  1  0  0  0  0  0  0  0  0  0
  -24.0552  -30.2942   21.2414 C   0  0  1  0  0  0  0  0  0  0  0  0
  -27.4094  -14.3795   19.9304 C   0  0  2  0  0  0  0  0  0  0  0  0
  -28.2677  -36.2458   18.6269 C   0  0  0  0  0  0  0  0  0  0  0  0
  -23.9522  -31.5655   16.7992 C   0  0  0  0  0  0  0  0  0  0  0  0
  -25.5819  -33.3519   16.1504 C   0  0  0  0  0  0  0  0  0  0  0  0
  -23.5593  -33.9373   17.4880 C   0  0  0  0  0  0  0  0  0  0  0  0
  -28.7940  -34.3464   21.8814 C   0  0  0  0  0  0  0  0  0  0  0  0
  -30.1328  -25.0093   19.1492 C   0  0  0  0  0  0  0  0  0  0  0  0
  -29.4440  -26.3414   19.3829 C   0  0  0  0  0  0  0  0  0  1  0  0
  -25.4494  -32.6698   18.5893 C   0  0  1  0  0  0  0  0  0  0  0  0
  -27.8780  -35.3279   19.7751 C   0  0  2  0  0  0  0  0  0  0  0  0
  -24.6439  -32.8593   17.2730 C   0  0  0  0  0  0  0  0  0  0  0  0
  -26.3716  -12.4744   21.1030 N   0  0  0  0  0  0  0  0  0  0  0  0
  -29.2003  -20.3478   20.0077 N   0  0  0  0  0  0  0  0  0  0  0  0
  -29.2827  -23.9320   19.6631 N   0  0  0  0  0  0  0  0  0  0  0  0
  -26.2019  -13.6712   20.5156 N   0  0  0  0  0  0  0  0  0  0  0  0
  -24.9586  -30.9326   20.2820 N   0  0  0  0  0  0  0  0  0  0  0  0
  -29.2201  -16.0031   20.3250 N   0  0  0  0  0  0  0  0  0  0  0  0
  -24.5641  -15.2947   19.9750 N   0  0  0  0  0  0  0  0  0  0  0  0
  -22.1883  -12.0750   22.0691 N   0  0  0  0  0  0  0  0  0  0  0  0
  -30.8999  -22.3444   18.9953 N   0  0  0  0  0  0  0  0  0  0  0  0
  -28.3234  -18.1650   20.6157 N   0  0  0  0  0  0  0  0  0  0  0  0
  -21.9234  -29.1835   20.9591 N   0  0  0  0  0  0  0  0  0  0  0  0
  -26.0929  -33.8852   19.0763 N   0  0  0  0  0  0  0  0  0  0  0  0
  -29.0446  -35.2035   20.6941 N   0  3  0  0  0  0  0  0  0  0  0  0
  -22.0469  -14.1113   21.0240 O   0  0  0  0  0  0  0  0  0  0  0  0
  -23.6808  -28.7514   19.4937 O   0  0  0  0  0  0  0  0  0  0  0  0
  -23.6302  -32.8403   20.1019 O   0  0  0  0  0  0  0  0  0  0  0  0
  -28.2562  -33.0501   19.0639 O   0  0  0  0  0  0  0  0  0  0  0  0
  -30.4042  -17.8648   19.6350 O   0  0  0  0  0  0  0  0  0  0  0  0
  -24.2098   -7.3231   24.1590 O   0  0  0  0  0  0  0  0  0  0  0  0
  -29.2601  -26.5397   20.7840 O   0  0  0  0  0  0  0  0  0  1  0  0
  -19.8780   -4.3064   22.5657 F   0  0  0  0  0  0  0  0  0  0  0  0
  -21.6439   -8.3429   24.2960 F   0  0  0  0  0  0  0  0  0  0  0  0
  -27.3213  -21.9444   20.7841 S   0  0  0  0  0  0  0  0  0  0  0  0
  1  2  1  0  0  0  0
  1  5  2  0  0  0  0
  2  6  2  0  0  0  0
  3  8  2  0  0  0  0
  3 16  1  0  0  0  0
  4  9  1  0  0  0  0
  4 16  2  0  0  0  0
  5 18  1  0  0  0  0
  6 20  1  0  0  0  0
  7 10  2  0  0  0  0
  7 19  1  0  0  0  0
  8 22  1  0  0  0  0
  9 22  2  0  0  0  0
 10 23  1  0  0  0  0
 11 12  2  0  0  0  0
 11 24  1  0  0  0  0
 12 25  1  0  0  0  0
 13 21  1  0  0  0  0
 13 23  2  0  0  0  0
 14 25  2  0  0  0  0
 14 26  1  0  0  0  0
 15 28  2  0  0  0  0
 15 81  1  0  0  0  0
 16 27  1  0  0  0  0
 17 27  1  0  0  0  0
 17 29  2  0  0  0  0
 17 31  1  0  0  0  0
 18 20  2  0  0  0  0
 18 37  1  0  0  0  0
 19 21  2  0  0  0  0
 19 38  1  0  0  0  0
 20 46  1  0  0  0  0
 21 39  1  0  0  0  0
 22 77  1  0  0  0  0
 23 78  1  0  0  0  0
 24 26  2  0  0  0  0
 24 77  1  0  0  0  0
 25 79  1  0  0  0  0
 26 80  1  0  0  0  0
 27 59  2  0  0  0  0
 28 60  1  0  0  0  0
 28 68  1  0  0  0  0
 29 62  1  0  0  0  0
 29 65  1  0  0  0  0
 30 32  1  0  0  0  0
 30 60  2  0  0  0  0
 30 81  1  0  0  0  0
 31 66  1  0  0  0  0
 31 72  2  0  0  0  0
 32 61  2  0  0  0  0
 32 67  1  0  0  0  0
 33 47  1  0  0  0  0
 33 69  1  0  0  0  0
 33 73  2  0  0  0  0
 34 56  1  0  0  0  0
 34 63  1  0  0  0  0
 34 74  2  0  0  0  0
 35 57  1  0  0  0  0
 35 70  1  0  0  0  0
 35 75  2  0  0  0  0
 36 64  1  0  0  0  0
 36 68  1  0  0  0  0
 36 76  2  0  0  0  0
 37 40  1  0  0  0  0
 38 47  1  0  0  0  0
 39 63  1  0  0  0  0
 40 42  1  0  0  0  0
 41 43  1  0  0  0  0
 41 44  1  0  0  0  0
 42 46  1  0  0  0  0
 43 48  1  0  0  0  0
 44 64  1  0  0  0  0
 45 48  1  0  0  0  0
 45 64  1  0  0  0  0
 46 69  1  0  0  0  0
 47 63  1  0  0  0  0
 48 62  1  0  0  0  0
 49 57  1  0  0  0  0
 50 58  1  0  0  0  0
 51 58  1  0  0  0  0
 52 58  1  0  0  0  0
 53 71  1  0  0  0  0
 54 55  1  0  0  0  0
 54 61  1  0  0  0  0
 55 78  1  0  0  0  0
 56 58  1  0  0  0  0
 56 70  1  0  0  0  0
 57 71  1  0  0  0  0
 59 62  1  0  0  0  0
M  CHG  1  71   1
M  ISO  4  36 100  55 101  68 100  78 101
M  END
> <Batch ID>
0199

> <Smiles>
CNC(C)C(=O)NC(C(=O)N1Cc2cc([101O:1][101CH2:1]CNC(=N)c3nc([100NH:0][100C:0](=O)N4CCCC(n5nc(-c6ccc(Oc7ccc(F)cc7F)cc6)c(C(N)=O)c5N)C4)cs3)ccc2CC1C(=O)NC1CCCc2ccccc21)C(C)(C)C

> <Shape>
0.309

> <Color>
0.147

> <Negative vol penalty>
0.000

$$$$

  -OEChem-04052305473D

 86 94  0     1  0  0  0  0  0999 V2000
  -29.3337  -35.8723   25.8967 C   0  0  0  0  0  0  0  0  0  0  0  0
  -29.7567  -35.1022   24.8181 C   0  0  0  0  0  0  0  0  0  0  0  0
  -22.2433  -10.2253   20.5642 C   0  0  0  0  0  0  0  0  0  0  0  0
  -24.2153   -9.4674   21.7364 C   0  0  0  0  0  0  0  0  0  0  0  0
  -28.3738  -35.3718   26.7753 C   0  0  0  0  0  0  0  0  0  0  0  0
  -29.2208  -33.8304   24.6182 C   0  0  0  0  0  0  0  0  0  0  0  0
  -27.4608  -29.2743   19.3779 C   0  0  0  0  0  0  0  0  0  0  0  0
  -21.7270   -8.9299   20.5951 C   0  0  0  0  0  0  0  0  0  0  0  0
  -23.6989   -8.1720   21.7675 C   0  0  0  0  0  0  0  0  0  0  0  0
  -27.6728  -27.9545   18.9819 C   0  0  0  0  0  0  0  0  0  0  0  0
  -22.7388   -4.7373   22.4739 C   0  0  0  0  0  0  0  0  0  0  0  0
  -22.8247   -4.0327   23.6746 C   0  0  0  0  0  0  0  0  0  0  0  0
  -25.9627  -27.2249   20.5189 C   0  0  0  0  0  0  0  0  0  0  0  0
  -21.5054   -5.7357   24.7684 C   0  0  0  0  0  0  0  0  0  0  0  0
  -29.0843  -20.8075   19.9964 C   0  0  0  0  0  0  0  0  0  0  0  0
  -23.4875  -10.4940   21.1348 C   0  0  0  0  0  0  0  0  0  0  0  0
  -23.8389  -12.8435   22.0643 C   0  0  0  0  0  0  0  0  0  0  0  0
  -27.8189  -34.0971   26.5806 C   0  0  0  0  0  0  0  0  0  0  0  0
  -26.5042  -29.5787   20.3570 C   0  0  0  0  0  0  0  0  0  0  0  0
  -28.2536  -33.3118   25.4959 C   0  0  0  0  0  0  0  0  0  0  0  0
  -25.7387  -28.5497   20.9238 C   0  0  0  0  0  0  0  0  0  0  0  0
  -22.4548   -7.9032   21.1968 C   0  0  0  0  0  0  0  0  0  0  0  0
  -26.9257  -26.9292   19.5545 C   0  0  0  0  0  0  0  0  0  0  0  0
  -22.0362   -5.9411   22.4205 C   0  0  0  0  0  0  0  0  0  0  0  0
  -22.2080   -4.5318   24.8219 C   0  0  0  0  0  0  0  0  0  0  0  0
  -21.4195   -6.4403   23.5677 C   0  0  0  0  0  0  0  0  0  0  0  0
  -24.0216  -11.8318   21.1026 C   0  0  0  0  0  0  0  0  0  0  0  0
  -29.3392  -18.7708   21.0046 C   0  0  0  0  0  0  0  0  0  0  0  0
  -28.1223  -21.1455   20.9226 C   0  0  0  0  0  0  0  0  0  0  0  0
  -28.3777  -19.1090   21.9312 C   0  0  0  0  0  0  0  0  0  0  0  0
  -24.5437  -13.9153   21.5734 C   0  0  0  0  0  0  0  0  0  0  0  0
  -23.0984  -12.8168   23.2918 C   0  0  0  0  0  0  0  0  0  0  0  0
  -26.5953  -30.8905   23.2509 C   0  0  0  0  0  0  0  0  0  0  0  0
  -23.3657  -30.7046   23.0104 C   0  0  0  0  0  0  0  0  0  0  0  0
  -27.0881  -18.3491   23.9520 C   0  0  0  0  0  0  0  0  0  0  0  0
  -27.7630  -23.4116   19.8882 C   0  0  0  0  0  0  0  0  0  0  0  0
  -20.6475  -29.2012   21.5969 C   0  0  0  0  0  0  0  0  0  0  0  0
  -29.1162  -16.0557   19.1950 C   0  0  0  0  0  0  0  0  0  0  0  0
  -26.8187  -33.5798   27.5839 C   0  0  0  0  0  0  0  0  0  0  0  0
  -26.2689  -31.0104   20.7539 C   0  0  0  0  0  0  0  0  0  0  0  0
  -24.6853  -28.8258   21.9642 C   0  0  0  0  0  0  0  0  0  0  0  0
  -26.0268  -32.3728   27.0878 C   0  0  0  0  0  0  0  0  0  0  0  0
  -26.6460  -14.6733   17.0355 C   0  0  0  0  0  0  0  0  0  0  0  0
  -26.9595  -31.3474   26.4510 C   0  0  0  0  0  0  0  0  0  0  0  0
  -25.7322  -13.8896   17.9793 C   0  0  0  0  0  0  0  0  0  0  0  0
  -28.1080  -14.5924   17.4691 C   0  0  0  0  0  0  0  0  0  0  0  0
  -27.4481  -14.2027   19.8114 C   0  0  0  0  0  0  0  0  0  0  0  0
  -27.6779  -31.9375   25.2314 C   0  0  1  0  0  0  0  0  0  0  0  0
  -25.6279  -31.1509   22.1311 C   0  0  1  0  0  0  0  0  0  0  0  0
  -25.9568  -14.3007   19.4469 C   0  0  2  0  0  0  0  0  0  0  0  0
  -27.0075  -17.1228   24.8262 C   0  0  0  0  0  0  0  0  0  0  0  0
  -18.1385  -29.2384   21.6262 C   0  0  0  0  0  0  0  0  0  0  0  0
  -23.3773  -29.2254   25.6790 C   0  0  0  0  0  0  0  0  0  0  0  0
  -21.0394  -28.4730   25.1928 C   0  0  0  0  0  0  0  0  0  0  0  0
  -21.5420  -30.9053   25.4253 C   0  0  0  0  0  0  0  0  0  0  0  0
  -20.5092  -29.9204   18.7295 C   0  0  0  0  0  0  0  0  0  0  0  0
  -30.0298  -17.4491   21.0343 C   0  0  0  0  0  0  0  0  0  0  0  0
  -26.8894  -24.6256   20.1443 C   0  0  0  0  0  0  0  0  0  1  0  0
  -22.3252  -29.6694   23.3635 C   0  0  1  0  0  0  0  0  0  0  0  0
  -19.3953  -29.7769   20.9605 C   0  0  2  0  0  0  0  0  0  0  0  0
  -22.0921  -29.5625   24.8970 C   0  0  0  0  0  0  0  0  0  0  0  0
  -29.7100  -19.6140   20.0207 N   0  0  0  0  0  0  0  0  0  0  0  0
  -24.7827  -12.2257   20.0781 N   0  0  0  0  0  0  0  0  0  0  0  0
  -27.7518  -20.3024   21.9066 N   0  0  0  0  0  0  0  0  0  0  0  0
  -25.0844  -13.4968   20.3932 N   0  0  0  0  0  0  0  0  0  0  0  0
  -24.4968  -30.2410   22.3237 N   0  0  0  0  0  0  0  0  0  0  0  0
  -28.2526  -14.9967   18.8697 N   0  0  0  0  0  0  0  0  0  0  0  0
  -24.7475  -15.1654   22.0403 N   0  0  0  0  0  0  0  0  0  0  0  0
  -22.4332  -11.6349   23.6451 N   0  0  0  0  0  0  0  0  0  0  0  0
  -27.5110  -22.4183   20.8284 N   0  0  0  0  0  0  0  0  0  0  0  0
  -28.0309  -18.1929   22.9308 N   0  0  0  0  0  0  0  0  0  0  0  0
  -26.7897  -31.9715   24.0893 N   0  0  0  0  0  0  0  0  0  0  0  0
  -21.1307  -30.0144   22.6001 N   0  0  0  0  0  0  0  0  0  0  0  0
  -29.1899  -16.3789   20.5444 N   0  0  0  0  0  0  0  0  0  0  0  0
  -19.3448  -29.4313   19.5117 N   0  3  0  0  0  0  0  0  0  0  0  0
  -23.0152  -13.8167   24.0446 O   0  0  0  0  0  0  0  0  0  0  0  0
  -27.1249  -29.7897   23.3480 O   0  0  0  0  0  0  0  0  0  0  0  0
  -23.1784  -31.8824   23.3257 O   0  0  0  0  0  0  0  0  0  0  0  0
  -26.3777  -19.3247   24.1716 O   0  0  0  0  0  0  0  0  0  0  0  0
  -28.5625  -23.3799   18.9585 O   0  0  0  0  0  0  0  0  0  0  0  0
  -21.1449  -28.1347   21.2423 O   0  0  0  0  0  0  0  0  0  0  0  0
  -29.7687  -16.6714   18.3452 O   0  0  0  0  0  0  0  0  0  0  0  0
  -21.9512   -6.6391   21.2274 O   0  0  0  0  0  0  0  0  0  0  0  0
  -27.1311  -25.6401   19.1702 O   0  0  0  0  0  0  0  0  0  1  0  0
  -22.2894   -3.8543   25.9745 F   0  0  0  0  0  0  0  0  0  0  0  0
  -20.7422   -7.5957   23.5222 F   0  0  0  0  0  0  0  0  0  0  0  0
  1  2  1  0  0  0  0
  1  5  2  0  0  0  0
  2  6  2  0  0  0  0
  3  8  2  0  0  0  0
  3 16  1  0  0  0  0
  4  9  1  0  0  0  0
  4 16  2  0  0  0  0
  5 18  1  0  0  0  0
  6 20  1  0  0  0  0
  7 10  2  0  0  0  0
  7 19  1  0  0  0  0
  8 22  1  0  0  0  0
  9 22  2  0  0  0  0
 10 23  1  0  0  0  0
 11 12  2  0  0  0  0
 11 24  1  0  0  0  0
 12 25  1  0  0  0  0
 13 21  1  0  0  0  0
 13 23  2  0  0  0  0
 14 25  2  0  0  0  0
 14 26  1  0  0  0  0
 15 29  1  0  0  0  0
 15 62  2  0  0  0  0
 16 27  1  0  0  0  0
 17 27  1  0  0  0  0
 17 31  2  0  0  0  0
 17 32  1  0  0  0  0
 18 20  2  0  0  0  0
 18 39  1  0  0  0  0
 19 21  2  0  0  0  0
 19 40  1  0  0  0  0
 20 48  1  0  0  0  0
 21 41  1  0  0  0  0
 22 83  1  0  0  0  0
 23 84  1  0  0  0  0
 24 26  2  0  0  0  0
 24 83  1  0  0  0  0
 25 85  1  0  0  0  0
 26 86  1  0  0  0  0
 27 63  2  0  0  0  0
 28 30  2  0  0  0  0
 28 57  1  0  0  0  0
 28 62  1  0  0  0  0
 29 64  2  0  0  0  0
 29 70  1  0  0  0  0
 30 64  1  0  0  0  0
 30 71  1  0  0  0  0
 31 65  1  0  0  0  0
 31 68  1  0  0  0  0
 32 69  1  0  0  0  0
 32 76  2  0  0  0  0
 33 49  1  0  0  0  0
 33 72  1  0  0  0  0
 33 77  2  0  0  0  0
 34 59  1  0  0  0  0
 34 66  1  0  0  0  0
 34 78  2  0  0  0  0
 35 51  1  0  0  0  0
 35 71  1  0  0  0  0
 35 79  2  0  0  0  0
 36 58  1  0  0  0  0
 36 70  1  0  0  0  0
 36 80  2  0  0  0  0
 37 60  1  0  0  0  0
 37 73  1  0  0  0  0
 37 81  2  0  0  0  0
 38 67  1  0  0  0  0
 38 74  1  0  0  0  0
 38 82  2  0  0  0  0
 39 42  1  0  0  0  0
 40 49  1  0  0  0  0
 41 66  1  0  0  0  0
 42 44  1  0  0  0  0
 43 45  1  0  0  0  0
 43 46  1  0  0  0  0
 44 48  1  0  0  0  0
 45 50  1  0  0  0  0
 46 67  1  0  0  0  0
 47 50  1  0  0  0  0
 47 67  1  0  0  0  0
 48 72  1  0  0  0  0
 49 66  1  0  0  0  0
 50 65  1  0  0  0  0
 52 60  1  0  0  0  0
 53 61  1  0  0  0  0
 54 61  1  0  0  0  0
 55 61  1  0  0  0  0
 56 75  1  0  0  0  0
 57 74  1  0  0  0  0
 58 84  1  0  0  0  0
 59 61  1  0  0  0  0
 59 73  1  0  0  0  0
 60 75  1  0  0  0  0
 63 65  1  0  0  0  0
M  CHG  1  75   1
M  ISO  4  38 100  58 101  74 100  84 101
M  END
> <Batch ID>
0199

> <Smiles>
CNC(C)C(=O)NC(C(=O)N1Cc2cc([101O:1][101CH2:1]C(=O)Nc3cnc(C[100NH:0][100C:0](=O)N4CCCC(n5nc(-c6ccc(Oc7ccc(F)cc7F)cc6)c(C(N)=O)c5N)C4)c(NC(C)=O)n3)ccc2CC1C(=O)NC1CCCc2ccccc21)C(C)(C)C

> <Shape>
0.325

> <Color>
0.127

> <Negative vol penalty>
0.000

$$$$

  -OEChem-04052305473D

 83 91  0     1  0  0  0  0  0999 V2000
  -16.5696  -29.2488   23.5173 C   0  0  0  0  0  0  0  0  0  0  0  0
  -17.4260  -29.3526   22.4260 C   0  0  0  0  0  0  0  0  0  0  0  0
  -26.4126  -13.5122   19.2202 C   0  0  0  0  0  0  0  0  0  0  0  0
  -26.2803  -13.0776   21.5931 C   0  0  0  0  0  0  0  0  0  0  0  0
  -17.0922  -29.0703   24.7976 C   0  0  0  0  0  0  0  0  0  0  0  0
  -18.8057  -29.2792   22.6143 C   0  0  0  0  0  0  0  0  0  0  0  0
  -24.7703  -27.0007   19.3664 C   0  0  0  0  0  0  0  0  0  0  0  0
  -25.1472  -12.9517   19.0470 C   0  0  0  0  0  0  0  0  0  0  0  0
  -25.0149  -12.5170   21.4199 C   0  0  0  0  0  0  0  0  0  0  0  0
  -26.0363  -27.4537   18.9980 C   0  0  0  0  0  0  0  0  0  0  0  0
  -23.7139   -9.5838   20.3548 C   0  0  0  0  0  0  0  0  0  0  0  0
  -23.4429   -8.3812   21.0074 C   0  0  0  0  0  0  0  0  0  0  0  0
  -26.8227  -27.0645   21.2451 C   0  0  0  0  0  0  0  0  0  0  0  0
  -21.6312   -9.4394   22.2052 C   0  0  0  0  0  0  0  0  0  0  0  0
  -30.4569  -23.8208   20.4478 C   0  0  0  0  0  0  0  0  0  0  0  0
  -26.9792  -13.5751   20.4933 C   0  0  0  0  0  0  0  0  0  0  0  0
  -29.4939  -13.7230   20.0906 C   0  0  0  0  0  0  0  0  0  0  0  0
  -18.4786  -28.9849   25.0005 C   0  0  0  0  0  0  0  0  0  0  0  0
  -24.5177  -26.5858   20.6818 C   0  0  0  0  0  0  0  0  0  0  0  0
  -19.3474  -29.1007   23.8986 C   0  0  0  0  0  0  0  0  0  0  0  0
  -25.5533  -26.6043   21.6269 C   0  0  0  0  0  0  0  0  0  0  0  0
  -30.0116  -23.9219   19.1455 C   0  0  0  0  0  0  0  0  0  0  0  0
  -24.4483  -12.4541   20.1468 C   0  0  0  0  0  0  0  0  0  0  0  0
  -27.0620  -27.4884   19.9381 C   0  0  0  0  0  0  0  0  0  0  0  0
  -22.9435  -10.7143   20.6275 C   0  0  0  0  0  0  0  0  0  0  0  0
  -22.4016   -8.3090   21.9326 C   0  0  0  0  0  0  0  0  0  0  0  0
  -21.9022  -10.6421   21.5527 C   0  0  0  0  0  0  0  0  0  0  0  0
  -28.2867  -14.1535   20.6728 C   0  0  0  0  0  0  0  0  0  0  0  0
  -29.4684  -22.7722   18.6094 C   0  0  0  0  0  0  0  0  0  0  0  0
  -30.4382  -14.5960   20.5730 C   0  0  0  0  0  0  0  0  0  0  0  0
  -29.8326  -21.6373   20.5450 C   0  0  0  0  0  0  0  0  0  0  0  0
  -29.7397  -12.6317   19.1938 C   0  0  0  0  0  0  0  0  0  0  0  0
  -22.5880  -27.5634   23.0108 C   0  0  0  0  0  0  0  0  0  0  0  0
  -23.7019  -24.9145   24.5158 C   0  0  0  0  0  0  0  0  0  0  0  0
  -26.1807  -22.5908   24.8357 C   0  0  0  0  0  0  0  0  0  0  0  0
  -30.1513  -20.2109   22.5968 C   0  0  0  0  0  0  0  0  0  0  0  0
  -18.9985  -28.8390   26.4088 C   0  0  0  0  0  0  0  0  0  0  0  0
  -23.1536  -26.0746   21.0565 C   0  0  0  0  0  0  0  0  0  0  0  0
  -25.3391  -26.1505   23.0470 C   0  0  0  0  0  0  0  0  0  0  0  0
  -20.4577  -28.3959   26.4765 C   0  0  0  0  0  0  0  0  0  0  0  0
  -31.3841  -17.3728   24.3583 C   0  0  0  0  0  0  0  0  0  0  0  0
  -21.3085  -29.2105   25.5073 C   0  0  0  0  0  0  0  0  0  0  0  0
  -30.8446  -16.1861   23.5566 C   0  0  0  0  0  0  0  0  0  0  0  0
  -30.3829  -18.5256   24.4082 C   0  0  0  0  0  0  0  0  0  0  0  0
  -29.3461  -17.7862   22.2993 C   0  0  0  0  0  0  0  0  0  0  0  0
  -20.8488  -29.0010   24.0594 C   0  0  1  0  0  0  0  0  0  0  0  0
  -22.8736  -26.1609   22.5536 C   0  0  1  0  0  0  0  0  0  0  0  0
  -30.3455  -16.6255   22.1662 C   0  0  2  0  0  0  0  0  0  0  0  0
  -28.9533  -22.7597   17.2074 C   0  0  0  0  0  0  0  0  0  0  0  0
  -26.8259  -20.5706   26.1773 C   0  0  0  0  0  0  0  0  0  0  0  0
  -32.2009  -26.2076   18.9689 C   0  0  0  0  0  0  0  0  0  0  0  0
  -24.4496  -26.7150   26.8629 C   0  0  0  0  0  0  0  0  0  0  0  0
  -25.9057  -24.8696   27.7245 C   0  0  0  0  0  0  0  0  0  0  0  0
  -23.4452  -24.5185   27.5117 C   0  0  0  0  0  0  0  0  0  0  0  0
  -26.2232  -20.8645   22.4321 C   0  0  0  0  0  0  0  0  0  0  0  0
  -30.2089  -27.5340   18.1828 C   0  0  0  0  0  0  0  0  0  0  0  0
  -28.6961  -27.7249   18.2265 C   0  0  0  0  0  0  0  0  0  1  0  0
  -24.8689  -24.6123   25.4245 C   0  0  1  0  0  0  0  0  0  0  0  0
  -26.1364  -21.0757   24.9194 C   0  0  2  0  0  0  0  0  0  0  0  0
  -30.6799  -26.3209   18.9912 C   0  0  1  0  0  0  0  0  0  0  0  0
  -24.6712  -25.1893   26.8547 C   0  0  0  0  0  0  0  0  0  0  0  0
  -30.3826  -22.6899   21.1797 N   0  0  0  0  0  0  0  0  0  0  0  0
  -28.4466  -15.2171   21.4647 N   0  0  0  0  0  0  0  0  0  0  0  0
  -29.3630  -21.6080   19.2831 N   0  0  0  0  0  0  0  0  0  0  0  0
  -29.7654  -15.4623   21.3836 N   0  0  0  0  0  0  0  0  0  0  0  0
  -23.9863  -25.6651   23.3662 N   0  0  0  0  0  0  0  0  0  0  0  0
  -29.9579  -18.8905   23.0551 N   0  0  0  0  0  0  0  0  0  0  0  0
  -31.7701  -14.6993   20.3788 N   0  0  0  0  0  0  0  0  0  0  0  0
  -29.6566  -12.8683   17.8149 N   0  0  0  0  0  0  0  0  0  0  0  0
  -30.1122  -25.1079   18.4405 N   0  0  0  0  0  0  0  0  0  0  0  0
  -29.7381  -20.4317   21.2834 N   0  0  0  0  0  0  0  0  0  0  0  0
  -21.3292  -27.7324   23.5552 N   0  0  0  0  0  0  0  0  0  0  0  0
  -25.0538  -23.1657   25.3841 N   0  0  0  0  0  0  0  0  0  0  0  0
  -26.8138  -20.4715   23.7374 N   0  3  0  0  0  0  0  0  0  0  0  0
  -30.0086  -11.4770   19.6034 O   0  0  0  0  0  0  0  0  0  0  0  0
  -23.4467  -28.4279   22.8808 O   0  0  0  0  0  0  0  0  0  0  0  0
  -22.5806  -24.4937   24.8112 O   0  0  0  0  0  0  0  0  0  0  0  0
  -27.1226  -23.2031   24.3372 O   0  0  0  0  0  0  0  0  0  0  0  0
  -30.6719  -21.0747   23.3073 O   0  0  0  0  0  0  0  0  0  0  0  0
  -23.2133  -11.9073   19.9782 O   0  0  0  0  0  0  0  0  0  0  0  0
  -28.2985  -27.9308   19.5814 O   0  0  0  0  0  0  0  0  0  1  0  0
  -22.1405   -7.1536   22.5580 F   0  0  0  0  0  0  0  0  0  0  0  0
  -21.1579  -11.7244   21.8179 F   0  0  0  0  0  0  0  0  0  0  0  0
  1  2  1  0  0  0  0
  1  5  2  0  0  0  0
  2  6  2  0  0  0  0
  3  8  2  0  0  0  0
  3 16  1  0  0  0  0
  4  9  1  0  0  0  0
  4 16  2  0  0  0  0
  5 18  1  0  0  0  0
  6 20  1  0  0  0  0
  7 10  2  0  0  0  0
  7 19  1  0  0  0  0
  8 23  1  0  0  0  0
  9 23  2  0  0  0  0
 10 24  1  0  0  0  0
 11 12  2  0  0  0  0
 11 25  1  0  0  0  0
 12 26  1  0  0  0  0
 13 21  1  0  0  0  0
 13 24  2  0  0  0  0
 14 26  2  0  0  0  0
 14 27  1  0  0  0  0
 15 22  1  0  0  0  0
 15 62  2  0  0  0  0
 16 28  1  0  0  0  0
 17 28  1  0  0  0  0
 17 30  2  0  0  0  0
 17 32  1  0  0  0  0
 18 20  2  0  0  0  0
 18 37  1  0  0  0  0
 19 21  2  0  0  0  0
 19 38  1  0  0  0  0
 20 46  1  0  0  0  0
 21 39  1  0  0  0  0
 22 29  2  0  0  0  0
 22 70  1  0  0  0  0
 23 80  1  0  0  0  0
 24 81  1  0  0  0  0
 25 27  2  0  0  0  0
 25 80  1  0  0  0  0
 26 82  1  0  0  0  0
 27 83  1  0  0  0  0
 28 63  2  0  0  0  0
 29 49  1  0  0  0  0
 29 64  1  0  0  0  0
 30 65  1  0  0  0  0
 30 68  1  0  0  0  0
 31 62  1  0  0  0  0
 31 64  2  0  0  0  0
 31 71  1  0  0  0  0
 32 69  1  0  0  0  0
 32 75  2  0  0  0  0
 33 47  1  0  0  0  0
 33 72  1  0  0  0  0
 33 76  2  0  0  0  0
 34 58  1  0  0  0  0
 34 66  1  0  0  0  0
 34 77  2  0  0  0  0
 35 59  1  0  0  0  0
 35 73  1  0  0  0  0
 35 78  2  0  0  0  0
 36 67  1  0  0  0  0
 36 71  1  0  0  0  0
 36 79  2  0  0  0  0
 37 40  1  0  0  0  0
 38 47  1  0  0  0  0
 39 66  1  0  0  0  0
 40 42  1  0  0  0  0
 41 43  1  0  0  0  0
 41 44  1  0  0  0  0
 42 46  1  0  0  0  0
 43 48  1  0  0  0  0
 44 67  1  0  0  0  0
 45 48  1  0  0  0  0
 45 67  1  0  0  0  0
 46 72  1  0  0  0  0
 47 66  1  0  0  0  0
 48 65  1  0  0  0  0
 50 59  1  0  0  0  0
 51 60  1  0  0  0  0
 52 61  1  0  0  0  0
 53 61  1  0  0  0  0
 54 61  1  0  0  0  0
 55 74  1  0  0  0  0
 56 57  1  0  0  0  0
 56 60  1  0  0  0  0
 57 81  1  0  0  0  0
 58 61  1  0  0  0  0
 58 73  1  0  0  0  0
 59 74  1  0  0  0  0
 60 70  1  0  0  0  0
 63 65  1  0  0  0  0
M  CHG  1  74   1
M  ISO  4  36 100  57 101  71 100  81 101
M  END
> <Batch ID>
0199

> <Smiles>
CNC(C)C(=O)NC(C(=O)N1Cc2cc([101O:1][101CH2:1]CC(C)Nc3cnc([100NH:0][100C:0](=O)N4CCCC(n5nc(-c6ccc(Oc7ccc(F)cc7F)cc6)c(C(N)=O)c5N)C4)nc3C)ccc2CC1C(=O)NC1CCCc2ccccc21)C(C)(C)C

> <Shape>
0.267

> <Color>
0.087

> <Negative vol penalty>
0.000

$$$$

  -OEChem-04052305473D

 83 91  0     1  0  0  0  0  0999 V2000
  -20.3659  -32.3423   18.6241 C   0  0  0  0  0  0  0  0  0  0  0  0
  -20.6563  -30.9839   18.5484 C   0  0  0  0  0  0  0  0  0  0  0  0
  -23.1985   -9.5388   21.1690 C   0  0  0  0  0  0  0  0  0  0  0  0
  -23.4140  -10.8708   23.1731 C   0  0  0  0  0  0  0  0  0  0  0  0
  -21.2696  -33.2145   19.2296 C   0  0  0  0  0  0  0  0  0  0  0  0
  -21.8511  -30.4969   19.0774 C   0  0  0  0  0  0  0  0  0  0  0  0
  -24.5849  -24.7068   22.2893 C   0  0  0  0  0  0  0  0  0  0  0  0
  -22.4778   -8.5814   21.8827 C   0  0  0  0  0  0  0  0  0  0  0  0
  -22.6932   -9.9133   23.8869 C   0  0  0  0  0  0  0  0  0  0  0  0
  -25.6474  -23.8116   22.1733 C   0  0  0  0  0  0  0  0  0  0  0  0
  -23.1391   -6.0553   24.0288 C   0  0  0  0  0  0  0  0  0  0  0  0
  -23.4713   -4.7150   23.8315 C   0  0  0  0  0  0  0  0  0  0  0  0
  -27.0969  -25.3998   23.2669 C   0  0  0  0  0  0  0  0  0  0  0  0
  -21.2246   -4.2715   23.0618 C   0  0  0  0  0  0  0  0  0  0  0  0
  -28.6738  -18.6768   20.2523 C   0  0  0  0  0  0  0  0  0  0  0  0
  -23.6667  -10.6835   21.8142 C   0  0  0  0  0  0  0  0  0  0  0  0
  -23.8961  -12.7886   20.3916 C   0  0  0  0  0  0  0  0  0  0  0  0
  -22.4716  -32.7366   19.7748 C   0  0  0  0  0  0  0  0  0  0  0  0
  -24.7733  -25.9616   22.8861 C   0  0  0  0  0  0  0  0  0  0  0  0
  -22.7723  -31.3637   19.6896 C   0  0  0  0  0  0  0  0  0  0  0  0
  -26.0346  -26.3081   23.3915 C   0  0  0  0  0  0  0  0  0  0  0  0
  -22.2251   -8.7686   23.2417 C   0  0  0  0  0  0  0  0  0  0  0  0
  -26.9044  -24.1592   22.6595 C   0  0  0  0  0  0  0  0  0  0  0  0
  -21.8496   -6.5036   23.7427 C   0  0  0  0  0  0  0  0  0  0  0  0
  -22.5141   -3.8231   23.3479 C   0  0  0  0  0  0  0  0  0  0  0  0
  -20.8924   -5.6117   23.2591 C   0  0  0  0  0  0  0  0  0  0  0  0
  -24.4118  -11.6726   21.0776 C   0  0  0  0  0  0  0  0  0  0  0  0
  -30.1558  -20.3240   19.6869 C   0  0  0  0  0  0  0  0  0  0  0  0
  -29.6749  -17.7373   20.1394 C   0  0  0  0  0  0  0  0  0  0  0  0
  -31.1571  -19.3847   19.5747 C   0  0  0  0  0  0  0  0  0  0  0  0
  -25.0022  -13.4075   19.8624 C   0  0  0  0  0  0  0  0  0  0  0  0
  -22.5387  -13.2266   20.2459 C   0  0  0  0  0  0  0  0  0  0  0  0
  -24.5142  -28.9739   21.9048 C   0  0  0  0  0  0  0  0  0  0  0  0
  -25.0852  -29.6313   25.0296 C   0  0  0  0  0  0  0  0  0  0  0  0
  -26.4108  -28.6206   28.0076 C   0  0  0  0  0  0  0  0  0  0  0  0
  -30.2230  -15.2858   20.3291 C   0  0  0  0  0  0  0  0  0  0  0  0
  -23.4388  -33.7245   20.3775 C   0  0  0  0  0  0  0  0  0  0  0  0
  -23.6106  -26.9053   23.0276 C   0  0  0  0  0  0  0  0  0  0  0  0
  -26.2843  -27.6349   24.0590 C   0  0  0  0  0  0  0  0  0  0  0  0
  -24.5117  -33.0737   21.2468 C   0  0  0  0  0  0  0  0  0  0  0  0
  -29.8042  -11.8437   19.5207 C   0  0  0  0  0  0  0  0  0  0  0  0
  -25.1124  -31.8643   20.5374 C   0  0  0  0  0  0  0  0  0  0  0  0
  -28.3215  -11.5841   19.7973 C   0  0  0  0  0  0  0  0  0  0  0  0
  -30.4081  -12.8161   20.5324 C   0  0  0  0  0  0  0  0  0  0  0  0
  -28.2016  -13.8254   20.9588 C   0  0  0  0  0  0  0  0  0  0  0  0
  -24.0466  -30.7938   20.2738 C   0  0  1  0  0  0  0  0  0  0  0  0
  -24.0386  -28.3604   23.1914 C   0  0  1  0  0  0  0  0  0  0  0  0
  -27.5333  -12.9022   19.9269 C   0  0  2  0  0  0  0  0  0  0  0  0
  -30.1607  -22.1911   17.9820 C   0  0  0  0  0  0  0  0  0  0  0  0
  -26.7582  -29.3889   30.3711 C   0  0  0  0  0  0  0  0  0  0  0  0
  -27.3573  -31.4451   24.1034 C   0  0  0  0  0  0  0  0  0  0  0  0
  -28.2401  -31.4186   26.4461 C   0  0  0  0  0  0  0  0  0  0  0  0
  -25.9821  -32.3693   25.9767 C   0  0  0  0  0  0  0  0  0  0  0  0
  -24.7972  -26.3895   29.0927 C   0  0  0  0  0  0  0  0  0  0  0  0
  -30.1437  -22.8890   21.6628 C   0  0  0  0  0  0  0  0  0  0  0  0
  -29.2504  -23.8472   22.4256 C   0  0  0  0  0  0  0  0  0  1  0  0
  -30.4094  -21.7923   19.4344 C   0  0  1  0  0  0  0  0  0  0  0  0
  -26.3210  -29.8664   25.8641 C   0  0  1  0  0  0  0  0  0  0  0  0
  -25.8469  -28.6326   29.4170 C   0  0  2  0  0  0  0  0  0  0  0  0
  -26.9712  -31.2505   25.5833 C   0  0  0  0  0  0  0  0  0  0  0  0
  -28.8962  -19.9870   20.0279 N   0  0  0  0  0  0  0  0  0  0  0  0
  -25.7419  -11.5851   20.9934 N   0  0  0  0  0  0  0  0  0  0  0  0
  -30.9346  -18.0744   19.7987 N   0  0  0  0  0  0  0  0  0  0  0  0
  -26.0714  -12.6538   20.2483 N   0  0  0  0  0  0  0  0  0  0  0  0
  -25.1173  -28.5259   24.1677 N   0  0  0  0  0  0  0  0  0  0  0  0
  -29.6113  -14.0431   20.5982 N   0  0  0  0  0  0  0  0  0  0  0  0
  -32.4583  -19.8012   19.2147 N   0  0  0  0  0  0  0  0  0  0  0  0
  -25.1547  -14.5174   19.1093 N   0  0  0  0  0  0  0  0  0  0  0  0
  -21.5248  -12.4740   20.8541 N   0  0  0  0  0  0  0  0  0  0  0  0
  -29.3592  -16.3788   20.3898 N   0  0  0  0  0  0  0  0  0  0  0  0
  -23.7623  -30.0546   21.4851 N   0  0  0  0  0  0  0  0  0  0  0  0
  -25.9205  -29.6650   27.2524 N   0  0  0  0  0  0  0  0  0  0  0  0
  -25.6882  -27.2400   29.9233 N   0  3  0  0  0  0  0  0  0  0  0  0
  -29.5855  -22.6751   20.3038 N   0  3  0  0  0  0  0  0  0  0  0  0
  -22.2324  -14.2457   19.5818 O   0  0  0  0  0  0  0  0  0  0  0  0
  -25.4919  -28.5026   21.3359 O   0  0  0  0  0  0  0  0  0  0  0  0
  -24.1240  -30.3959   25.1437 O   0  0  0  0  0  0  0  0  0  0  0  0
  -27.2093  -27.7720   27.6168 O   0  0  0  0  0  0  0  0  0  0  0  0
  -31.4188  -15.3709   20.0376 O   0  0  0  0  0  0  0  0  0  0  0  0
  -21.5216   -7.8347   23.9384 O   0  0  0  0  0  0  0  0  0  0  0  0
  -27.9433  -23.2875   22.5471 O   0  0  0  0  0  0  0  0  0  1  0  0
  -22.8337   -2.5364   23.1570 F   0  0  0  0  0  0  0  0  0  0  0  0
  -19.6522   -6.0368   22.9814 F   0  0  0  0  0  0  0  0  0  0  0  0
  1  2  1  0  0  0  0
  1  5  2  0  0  0  0
  2  6  2  0  0  0  0
  3  8  2  0  0  0  0
  3 16  1  0  0  0  0
  4  9  1  0  0  0  0
  4 16  2  0  0  0  0
  5 18  1  0  0  0  0
  6 20  1  0  0  0  0
  7 10  2  0  0  0  0
  7 19  1  0  0  0  0
  8 22  1  0  0  0  0
  9 22  2  0  0  0  0
 10 23  1  0  0  0  0
 11 12  2  0  0  0  0
 11 24  1  0  0  0  0
 12 25  1  0  0  0  0
 13 21  1  0  0  0  0
 13 23  2  0  0  0  0
 14 25  2  0  0  0  0
 14 26  1  0  0  0  0
 15 29  1  0  0  0  0
 15 61  2  0  0  0  0
 16 27  1  0  0  0  0
 17 27  1  0  0  0  0
 17 31  2  0  0  0  0
 17 32  1  0  0  0  0
 18 20  2  0  0  0  0
 18 37  1  0  0  0  0
 19 21  2  0  0  0  0
 19 38  1  0  0  0  0
 20 46  1  0  0  0  0
 21 39  1  0  0  0  0
 22 80  1  0  0  0  0
 23 81  1  0  0  0  0
 24 26  2  0  0  0  0
 24 80  1  0  0  0  0
 25 82  1  0  0  0  0
 26 83  1  0  0  0  0
 27 62  2  0  0  0  0
 28 30  2  0  0  0  0
 28 57  1  0  0  0  0
 28 61  1  0  0  0  0
 29 63  2  0  0  0  0
 29 70  1  0  0  0  0
 30 63  1  0  0  0  0
 30 67  1  0  0  0  0
 31 64  1  0  0  0  0
 31 68  1  0  0  0  0
 32 69  1  0  0  0  0
 32 75  2  0  0  0  0
 33 47  1  0  0  0  0
 33 71  1  0  0  0  0
 33 76  2  0  0  0  0
 34 58  1  0  0  0  0
 34 65  1  0  0  0  0
 34 77  2  0  0  0  0
 35 59  1  0  0  0  0
 35 72  1  0  0  0  0
 35 78  2  0  0  0  0
 36 66  1  0  0  0  0
 36 70  1  0  0  0  0
 36 79  2  0  0  0  0
 37 40  1  0  0  0  0
 38 47  1  0  0  0  0
 39 65  1  0  0  0  0
 40 42  1  0  0  0  0
 41 43  1  0  0  0  0
 41 44  1  0  0  0  0
 42 46  1  0  0  0  0
 43 48  1  0  0  0  0
 44 66  1  0  0  0  0
 45 48  1  0  0  0  0
 45 66  1  0  0  0  0
 46 71  1  0  0  0  0
 47 65  1  0  0  0  0
 48 64  1  0  0  0  0
 49 57  1  0  0  0  0
 50 59  1  0  0  0  0
 51 60  1  0  0  0  0
 52 60  1  0  0  0  0
 53 60  1  0  0  0  0
 54 73  1  0  0  0  0
 55 56  1  0  0  0  0
 55 74  1  0  0  0  0
 56 81  1  0  0  0  0
 57 74  1  0  0  0  0
 58 60  1  0  0  0  0
 58 72  1  0  0  0  0
 59 73  1  0  0  0  0
 62 64  1  0  0  0  0
M  CHG  2  73   1  74   1
M  ISO  4  36 100  56 101  70 100  81 101
M  END
> <Batch ID>
0199

> <Smiles>
CNC(C)C(=O)NC(C(=O)N1Cc2cc([101O:1][101CH2:1]CNC(C)c3ncc([100NH:0][100C:0](=O)N4CCCC(n5nc(-c6ccc(Oc7ccc(F)cc7F)cc6)c(C(N)=O)c5N)C4)nc3N)ccc2CC1C(=O)NC1CCCc2ccccc21)C(C)(C)C

> <Shape>
0.265

> <Color>
0.120

> <Negative vol penalty>
0.000

$$$$

  -OEChem-04052305473D

 83 91  0     1  0  0  0  0  0999 V2000
  -25.9208  -27.5634   11.4160 C   0  0  0  0  0  0  0  0  0  0  0  0
  -26.5730  -26.8548   12.4199 C   0  0  0  0  0  0  0  0  0  0  0  0
  -24.0481   -9.6954   21.6854 C   0  0  0  0  0  0  0  0  0  0  0  0
  -24.5179  -10.9209   23.7137 C   0  0  0  0  0  0  0  0  0  0  0  0
  -25.3424  -28.7998   11.7000 C   0  0  0  0  0  0  0  0  0  0  0  0
  -26.6483  -27.3828   13.7083 C   0  0  0  0  0  0  0  0  0  0  0  0
  -26.5239  -24.2648   18.9779 C   0  0  0  0  0  0  0  0  0  0  0  0
  -23.6093   -8.6096   22.4430 C   0  0  0  0  0  0  0  0  0  0  0  0
  -24.0791   -9.8351   24.4714 C   0  0  0  0  0  0  0  0  0  0  0  0
  -27.5338  -23.8361   19.8381 C   0  0  0  0  0  0  0  0  0  0  0  0
  -20.8296   -7.7268   24.1539 C   0  0  0  0  0  0  0  0  0  0  0  0
  -19.6434   -7.1034   23.7669 C   0  0  0  0  0  0  0  0  0  0  0  0
  -27.1970  -25.7976   21.2013 C   0  0  0  0  0  0  0  0  0  0  0  0
  -20.8372   -5.0264   23.4533 C   0  0  0  0  0  0  0  0  0  0  0  0
  -31.5762  -19.3499   21.6716 C   0  0  0  0  0  0  0  0  0  0  0  0
  -24.5024  -10.8511   22.3207 C   0  0  0  0  0  0  0  0  0  0  0  0
  -24.1817  -13.0498   21.0676 C   0  0  0  0  0  0  0  0  0  0  0  0
  -25.4022  -29.3388   12.9948 C   0  0  0  0  0  0  0  0  0  0  0  0
  -25.8493  -25.4706   19.2173 C   0  0  0  0  0  0  0  0  0  0  0  0
  -26.0713  -28.6283   14.0096 C   0  0  0  0  0  0  0  0  0  0  0  0
  -26.1772  -26.2381   20.3440 C   0  0  0  0  0  0  0  0  0  0  0  0
  -23.6248   -8.6794   23.8360 C   0  0  0  0  0  0  0  0  0  0  0  0
  -27.8725  -24.6040   20.9485 C   0  0  0  0  0  0  0  0  0  0  0  0
  -22.0197   -7.0000   24.1905 C   0  0  0  0  0  0  0  0  0  0  0  0
  -19.6471   -5.7532   23.4166 C   0  0  0  0  0  0  0  0  0  0  0  0
  -22.0234   -5.6499   23.8403 C   0  0  0  0  0  0  0  0  0  0  0  0
  -24.9564  -11.9728   21.5386 C   0  0  0  0  0  0  0  0  0  0  0  0
  -25.0728  -13.8407   20.3843 C   0  0  0  0  0  0  0  0  0  0  0  0
  -30.4098  -19.5567   22.3780 C   0  0  0  0  0  0  0  0  0  0  0  0
  -31.3237  -17.3307   22.4897 C   0  0  0  0  0  0  0  0  0  0  0  0
  -22.7818  -13.3119   21.2329 C   0  0  0  0  0  0  0  0  0  0  0  0
  -25.5261  -28.2115   17.6403 C   0  0  0  0  0  0  0  0  0  0  0  0
  -23.4386  -28.8894   20.0288 C   0  0  0  0  0  0  0  0  0  0  0  0
  -22.4126  -28.3088   23.2315 C   0  0  0  0  0  0  0  0  0  0  0  0
  -29.7809  -21.9658   22.0086 C   0  0  0  0  0  0  0  0  0  0  0  0
  -31.0026  -14.5747   20.7710 C   0  0  0  0  0  0  0  0  0  0  0  0
  -24.8032  -30.7006   13.2426 C   0  0  0  0  0  0  0  0  0  0  0  0
  -24.7440  -25.9058   18.2945 C   0  0  0  0  0  0  0  0  0  0  0  0
  -25.4693  -27.5302   20.6568 C   0  0  0  0  0  0  0  0  0  0  0  0
  -24.6021  -31.0175   14.7223 C   0  0  0  0  0  0  0  0  0  0  0  0
  -29.1497  -13.5970   17.8922 C   0  0  0  0  0  0  0  0  0  0  0  0
  -25.8514  -30.6571   15.5200 C   0  0  0  0  0  0  0  0  0  0  0  0
  -27.7950  -13.1671   18.4578 C   0  0  0  0  0  0  0  0  0  0  0  0
  -30.2974  -13.2148   18.8243 C   0  0  0  0  0  0  0  0  0  0  0  0
  -28.7967  -13.2592   20.7787 C   0  0  0  0  0  0  0  0  0  0  0  0
  -26.1525  -29.1564   15.4254 C   0  0  1  0  0  0  0  0  0  0  0  0
  -24.4750  -27.4064   18.3506 C   0  0  1  0  0  0  0  0  0  0  0  0
  -27.6036  -13.6728   19.9003 C   0  0  2  0  0  0  0  0  0  0  0  0
  -29.9255  -23.7040   24.5277 C   0  0  0  0  0  0  0  0  0  0  0  0
  -20.7023  -29.0413   24.9154 C   0  0  0  0  0  0  0  0  0  0  0  0
  -25.0124  -31.4595   20.5057 C   0  0  0  0  0  0  0  0  0  0  0  0
  -23.8830  -31.6557   22.7315 C   0  0  0  0  0  0  0  0  0  0  0  0
  -22.5284  -31.7176   20.6377 C   0  0  0  0  0  0  0  0  0  0  0  0
  -21.2582  -25.5898   23.4141 C   0  0  0  0  0  0  0  0  0  0  0  0
  -31.5653  -15.9026   22.7908 C   0  0  0  0  0  0  0  0  0  0  0  0
  -28.6311  -23.1405   23.9516 C   0  0  0  0  0  0  0  0  0  0  0  0
  -23.5448  -29.5290   21.3921 C   0  0  1  0  0  0  0  0  0  0  0  0
  -21.0367  -28.0450   23.8162 C   0  0  2  0  0  0  0  0  0  0  0  0
  -28.6732  -22.9290   22.4349 C   0  0  1  0  0  0  0  0  0  1  0  0
  -23.7570  -31.0671   21.3101 C   0  0  0  0  0  0  0  0  0  0  0  0
  -32.1019  -18.0742   21.7349 N   0  0  0  0  0  0  0  0  0  0  0  0
  -26.2407  -12.0677   21.1844 N   0  0  0  0  0  0  0  0  0  0  0  0
  -26.2799  -13.2137   20.4834 N   0  0  0  0  0  0  0  0  0  0  0  0
  -24.4002  -27.9164   19.7212 N   0  0  0  0  0  0  0  0  0  0  0  0
  -30.0551  -13.7257   20.1756 N   0  0  0  0  0  0  0  0  0  0  0  0
  -24.9337  -15.0044   19.7143 N   0  0  0  0  0  0  0  0  0  0  0  0
  -22.0124  -12.3961   21.9635 N   0  0  0  0  0  0  0  0  0  0  0  0
  -29.5927  -20.6991   22.5506 N   0  0  0  0  0  0  0  0  0  0  0  0
  -25.2715  -28.4083   16.2964 N   0  0  0  0  0  0  0  0  0  0  0  0
  -22.3485  -29.1291   22.1250 N   0  0  0  0  0  0  0  0  0  0  0  0
  -30.6924  -15.0188   22.0506 N   0  0  0  0  0  0  0  0  0  0  0  0
  -20.9730  -26.6717   24.3914 N   0  3  0  0  0  0  0  0  0  0  0  0
  -22.2264  -14.3195   20.7333 O   0  0  0  0  0  0  0  0  0  0  0  0
  -26.4956  -28.6249   18.2655 O   0  0  0  0  0  0  0  0  0  0  0  0
  -22.5314  -29.2349   19.2677 O   0  0  0  0  0  0  0  0  0  0  0  0
  -23.4416  -27.8376   23.7107 O   0  0  0  0  0  0  0  0  0  0  0  0
  -30.6851  -22.3286   21.2614 O   0  0  0  0  0  0  0  0  0  0  0  0
  -32.0451  -14.9161   20.2022 O   0  0  0  0  0  0  0  0  0  0  0  0
  -23.1965   -7.6202   24.5757 O   0  0  0  0  0  0  0  0  0  0  0  0
  -28.8583  -24.1881   21.7894 O   0  0  0  0  0  0  0  0  0  1  0  0
  -18.5076   -5.1543   23.0465 F   0  0  0  0  0  0  0  0  0  0  0  0
  -23.1634   -4.9462   23.8747 F   0  0  0  0  0  0  0  0  0  0  0  0
  -29.9422  -18.1011   23.1552 S   0  0  0  0  0  0  0  0  0  0  0  0
  1  2  1  0  0  0  0
  1  5  2  0  0  0  0
  2  6  2  0  0  0  0
  3  8  2  0  0  0  0
  3 16  1  0  0  0  0
  4  9  1  0  0  0  0
  4 16  2  0  0  0  0
  5 18  1  0  0  0  0
  6 20  1  0  0  0  0
  7 10  2  0  0  0  0
  7 19  1  0  0  0  0
  8 22  1  0  0  0  0
  9 22  2  0  0  0  0
 10 23  1  0  0  0  0
 11 12  2  0  0  0  0
 11 24  1  0  0  0  0
 12 25  1  0  0  0  0
 13 21  1  0  0  0  0
 13 23  2  0  0  0  0
 14 25  2  0  0  0  0
 14 26  1  0  0  0  0
 15 29  2  0  0  0  0
 15 61  1  0  0  0  0
 16 27  1  0  0  0  0
 17 27  1  0  0  0  0
 17 28  2  0  0  0  0
 17 31  1  0  0  0  0
 18 20  2  0  0  0  0
 18 37  1  0  0  0  0
 19 21  2  0  0  0  0
 19 38  1  0  0  0  0
 20 46  1  0  0  0  0
 21 39  1  0  0  0  0
 22 79  1  0  0  0  0
 23 80  1  0  0  0  0
 24 26  2  0  0  0  0
 24 79  1  0  0  0  0
 25 81  1  0  0  0  0
 26 82  1  0  0  0  0
 27 62  2  0  0  0  0
 28 63  1  0  0  0  0
 28 66  1  0  0  0  0
 29 68  1  0  0  0  0
 29 83  1  0  0  0  0
 30 55  1  0  0  0  0
 30 61  2  0  0  0  0
 30 83  1  0  0  0  0
 31 67  1  0  0  0  0
 31 73  2  0  0  0  0
 32 47  1  0  0  0  0
 32 69  1  0  0  0  0
 32 74  2  0  0  0  0
 33 57  1  0  0  0  0
 33 64  1  0  0  0  0
 33 75  2  0  0  0  0
 34 58  1  0  0  0  0
 34 70  1  0  0  0  0
 34 76  2  0  0  0  0
 35 59  1  0  0  0  0
 35 68  1  0  0  0  0
 35 77  2  0  0  0  0
 36 65  1  0  0  0  0
 36 71  1  0  0  0  0
 36 78  2  0  0  0  0
 37 40  1  0  0  0  0
 38 47  1  0  0  0  0
 39 64  1  0  0  0  0
 40 42  1  0  0  0  0
 41 43  1  0  0  0  0
 41 44  1  0  0  0  0
 42 46  1  0  0  0  0
 43 48  1  0  0  0  0
 44 65  1  0  0  0  0
 45 48  1  0  0  0  0
 45 65  1  0  0  0  0
 46 69  1  0  0  0  0
 47 64  1  0  0  0  0
 48 63  1  0  0  0  0
 49 56  1  0  0  0  0
 50 58  1  0  0  0  0
 51 60  1  0  0  0  0
 52 60  1  0  0  0  0
 53 60  1  0  0  0  0
 54 72  1  0  0  0  0
 55 71  1  0  0  0  0
 56 59  1  0  0  0  0
 57 60  1  0  0  0  0
 57 70  1  0  0  0  0
 58 72  1  0  0  0  0
 59 80  1  0  0  0  0
 62 63  1  0  0  0  0
M  CHG  1  72   1
M  ISO  4  36 100  59 101  71 100  80 101
M  END
> <Batch ID>
0199

> <Smiles>
CC[101CH:1](C(=O)Nc1cnc(C[100NH:0][100C:0](=O)N2CCCC(n3nc(-c4ccc(Oc5ccc(F)cc5F)cc4)c(C(N)=O)c3N)C2)s1)[101O:1]c1ccc2c(c1)CN(C(=O)C(NC(=O)C(C)NC)C(C)(C)C)C(C(=O)NC1CCCc3ccccc31)C2

> <Shape>
0.260

> <Color>
0.125

> <Negative vol penalty>
0.000

$$$$

  -OEChem-04052305473D

 82 90  0     1  0  0  0  0  0999 V2000
  -29.9220  -24.9889   17.6783 C   0  0  0  0  0  0  0  0  0  0  0  0
  -28.5385  -25.1293   17.7189 C   0  0  0  0  0  0  0  0  0  0  0  0
  -24.0992  -13.8328   20.5486 C   0  0  0  0  0  0  0  0  0  0  0  0
  -26.4329  -13.7594   21.1692 C   0  0  0  0  0  0  0  0  0  0  0  0
  -30.6962  -25.4099   18.7587 C   0  0  0  0  0  0  0  0  0  0  0  0
  -27.9283  -25.6899   18.8404 C   0  0  0  0  0  0  0  0  0  0  0  0
  -22.9274  -29.2239   18.9303 C   0  0  0  0  0  0  0  0  0  0  0  0
  -24.1247  -12.4624   20.2901 C   0  0  0  0  0  0  0  0  0  0  0  0
  -26.4585  -12.3889   20.9108 C   0  0  0  0  0  0  0  0  0  0  0  0
  -21.5869  -28.9458   19.1941 C   0  0  0  0  0  0  0  0  0  0  0  0
  -23.4815   -8.9165   19.8126 C   0  0  0  0  0  0  0  0  0  0  0  0
  -22.4238   -8.1457   20.2950 C   0  0  0  0  0  0  0  0  0  0  0  0
  -21.8989  -29.6429   21.4823 C   0  0  0  0  0  0  0  0  0  0  0  0
  -22.9638   -8.8174   22.5521 C   0  0  0  0  0  0  0  0  0  0  0  0
  -25.2533  -14.4814   20.9881 C   0  0  0  0  0  0  0  0  0  0  0  0
  -24.9227  -16.5267   22.4764 C   0  0  0  0  0  0  0  0  0  0  0  0
  -30.0959  -25.9848   19.8900 C   0  0  0  0  0  0  0  0  0  0  0  0
  -23.7678  -29.7041   19.9450 C   0  0  0  0  0  0  0  0  0  0  0  0
  -28.6950  -26.1178   19.9375 C   0  0  0  0  0  0  0  0  0  0  0  0
  -23.2490  -29.9288   21.2281 C   0  0  0  0  0  0  0  0  0  0  0  0
  -25.3044  -11.7404   20.4712 C   0  0  0  0  0  0  0  0  0  0  0  0
  -21.0732  -29.1525   20.4710 C   0  0  0  0  0  0  0  0  0  0  0  0
  -24.2804   -9.6377   20.6999 C   0  0  0  0  0  0  0  0  0  0  0  0
  -22.1649   -8.0962   21.6647 C   0  0  0  0  0  0  0  0  0  0  0  0
  -24.0216   -9.5881   22.0696 C   0  0  0  0  0  0  0  0  0  0  0  0
  -25.2276  -15.8971   21.2547 C   0  0  0  0  0  0  0  0  0  0  0  0
  -25.0370  -17.8690   22.2088 C   0  0  0  0  0  0  0  0  0  0  0  0
  -20.4534  -24.8351   20.8850 C   0  0  0  0  0  0  0  0  0  0  0  0
  -22.1648  -23.4544   20.0294 C   0  0  0  0  0  0  0  0  0  0  0  0
  -24.5680  -15.9497   23.7401 C   0  0  0  0  0  0  0  0  0  0  0  0
  -26.4016  -28.6366   21.3687 C   0  0  0  0  0  0  0  0  0  0  0  0
  -26.3370  -31.5456   22.8025 C   0  0  0  0  0  0  0  0  0  0  0  0
  -24.5026  -34.2486   23.7904 C   0  0  0  0  0  0  0  0  0  0  0  0
  -23.7462  -22.1047   18.6610 C   0  0  0  0  0  0  0  0  0  0  0  0
  -30.9703  -26.3816   21.0531 C   0  0  0  0  0  0  0  0  0  0  0  0
  -25.2048  -30.0245   19.6374 C   0  0  0  0  0  0  0  0  0  0  0  0
  -24.1045  -30.4621   22.3471 C   0  0  0  0  0  0  0  0  0  0  0  0
  -30.2769  -27.3090   22.0478 C   0  0  0  0  0  0  0  0  0  0  0  0
  -26.9296  -20.2966   18.2065 C   0  0  0  0  0  0  0  0  0  0  0  0
  -28.8815  -26.7894   22.3788 C   0  0  0  0  0  0  0  0  0  0  0  0
  -26.7106  -19.0148   19.0084 C   0  0  0  0  0  0  0  0  0  0  0  0
  -25.6210  -20.8442   17.6446 C   0  0  0  0  0  0  0  0  0  0  0  0
  -24.3479  -19.7765   19.4803 C   0  0  0  0  0  0  0  0  0  0  0  0
  -27.9983  -26.7438   21.1260 C   0  0  1  0  0  0  0  0  0  0  0  0
  -26.0957  -30.0227   20.8759 C   0  0  1  0  0  0  0  0  0  0  0  0
  -25.6423  -19.2236   20.0957 C   0  0  1  0  0  0  0  0  0  0  0  0
  -24.7203  -36.4515   24.9725 C   0  0  0  0  0  0  0  0  0  0  0  0
  -26.4960  -30.0907   25.4798 C   0  0  0  0  0  0  0  0  0  0  0  0
  -25.7614  -32.2083   26.5952 C   0  0  0  0  0  0  0  0  0  0  0  0
  -27.9079  -32.1491   25.3257 C   0  0  0  0  0  0  0  0  0  0  0  0
  -24.1677  -22.3973   21.0913 C   0  0  0  0  0  0  0  0  0  0  0  0
  -23.6042  -35.7499   21.4034 C   0  0  0  0  0  0  0  0  0  0  0  0
  -18.4759  -26.3353   21.1387 C   0  0  0  0  0  0  0  0  0  0  0  0
  -19.4387  -28.4723   22.0589 C   0  0  0  0  0  0  0  0  0  1  0  0
  -25.7187  -32.1034   24.0617 C   0  0  1  0  0  0  0  0  0  0  0  0
  -24.7384  -35.7395   23.6288 C   0  0  2  0  0  0  0  0  0  0  0  0
  -18.2160  -27.5624   22.0103 C   0  0  1  0  0  0  0  0  0  0  0  0
  -26.4551  -31.6260   25.3452 C   0  0  0  0  0  0  0  0  0  0  0  0
  -25.5139  -16.7679   20.2833 N   0  0  0  0  0  0  0  0  0  0  0  0
  -20.3847  -24.7280   19.5751 N   0  0  0  0  0  0  0  0  0  0  0  0
  -21.3879  -23.9174   19.0734 N   0  0  0  0  0  0  0  0  0  0  0  0
  -25.3893  -17.9584   20.8943 N   0  0  0  0  0  0  0  0  0  0  0  0
  -25.5047  -30.7542   21.9983 N   0  0  0  0  0  0  0  0  0  0  0  0
  -24.6083  -20.9902   18.6909 N   0  0  0  0  0  0  0  0  0  0  0  0
  -24.8694  -18.9698   22.9721 N   0  0  0  0  0  0  0  0  0  0  0  0
  -24.4966  -14.5536   23.8407 N   0  0  0  0  0  0  0  0  0  0  0  0
  -19.5851  -25.5750   21.6696 N   0  0  0  0  0  0  0  0  0  0  0  0
  -27.5232  -28.0699   20.7940 N   0  0  0  0  0  0  0  0  0  0  0  0
  -25.6882  -33.5523   23.8944 N   0  0  0  0  0  0  0  0  0  0  0  0
  -23.3111  -22.5839   19.9156 N   0  0  0  0  0  0  0  0  0  0  0  0
  -23.6833  -36.3400   22.7645 N   0  3  0  0  0  0  0  0  0  0  0  0
  -24.3057  -16.6519   24.7459 O   0  0  0  0  0  0  0  0  0  0  0  0
  -25.6747  -28.1201   22.2093 O   0  0  0  0  0  0  0  0  0  0  0  0
  -27.5129  -31.8086   22.5384 O   0  0  0  0  0  0  0  0  0  0  0  0
  -23.3790  -33.7518   23.8251 O   0  0  0  0  0  0  0  0  0  0  0  0
  -23.4163  -22.6461   17.5990 O   0  0  0  0  0  0  0  0  0  0  0  0
  -17.1370  -28.3135   21.4500 O   0  0  0  0  0  0  0  0  0  0  0  0
  -25.3297  -10.4031   20.2193 O   0  0  0  0  0  0  0  0  0  0  0  0
  -19.7653  -28.8813   20.7314 O   0  0  0  0  0  0  0  0  0  1  0  0
  -21.1482   -7.3571   22.1277 F   0  0  0  0  0  0  0  0  0  0  0  0
  -24.7849  -10.2797   22.9268 F   0  0  0  0  0  0  0  0  0  0  0  0
  -21.7402  -23.9640   21.6110 S   0  0  0  0  0  0  0  0  0  0  0  0
  1  2  1  0  0  0  0
  1  5  2  0  0  0  0
  2  6  2  0  0  0  0
  3  8  2  0  0  0  0
  3 15  1  0  0  0  0
  4  9  1  0  0  0  0
  4 15  2  0  0  0  0
  5 17  1  0  0  0  0
  6 19  1  0  0  0  0
  7 10  2  0  0  0  0
  7 18  1  0  0  0  0
  8 21  1  0  0  0  0
  9 21  2  0  0  0  0
 10 22  1  0  0  0  0
 11 12  2  0  0  0  0
 11 23  1  0  0  0  0
 12 24  1  0  0  0  0
 13 20  1  0  0  0  0
 13 22  2  0  0  0  0
 14 24  2  0  0  0  0
 14 25  1  0  0  0  0
 15 26  1  0  0  0  0
 16 26  1  0  0  0  0
 16 27  2  0  0  0  0
 16 30  1  0  0  0  0
 17 19  2  0  0  0  0
 17 35  1  0  0  0  0
 18 20  2  0  0  0  0
 18 36  1  0  0  0  0
 19 44  1  0  0  0  0
 20 37  1  0  0  0  0
 21 78  1  0  0  0  0
 22 79  1  0  0  0  0
 23 25  2  0  0  0  0
 23 78  1  0  0  0  0
 24 80  1  0  0  0  0
 25 81  1  0  0  0  0
 26 59  2  0  0  0  0
 27 62  1  0  0  0  0
 27 65  1  0  0  0  0
 28 60  2  0  0  0  0
 28 67  1  0  0  0  0
 28 82  1  0  0  0  0
 29 61  2  0  0  0  0
 29 70  1  0  0  0  0
 29 82  1  0  0  0  0
 30 66  1  0  0  0  0
 30 72  2  0  0  0  0
 31 45  1  0  0  0  0
 31 68  1  0  0  0  0
 31 73  2  0  0  0  0
 32 55  1  0  0  0  0
 32 63  1  0  0  0  0
 32 74  2  0  0  0  0
 33 56  1  0  0  0  0
 33 69  1  0  0  0  0
 33 75  2  0  0  0  0
 34 64  1  0  0  0  0
 34 70  1  0  0  0  0
 34 76  2  0  0  0  0
 35 38  1  0  0  0  0
 36 45  1  0  0  0  0
 37 63  1  0  0  0  0
 38 40  1  0  0  0  0
 39 41  1  0  0  0  0
 39 42  1  0  0  0  0
 40 44  1  0  0  0  0
 41 46  1  0  0  0  0
 42 64  1  0  0  0  0
 43 46  1  0  0  0  0
 43 64  1  0  0  0  0
 44 68  1  0  0  0  0
 45 63  1  0  0  0  0
 46 62  1  0  0  0  0
 47 56  1  0  0  0  0
 48 58  1  0  0  0  0
 49 58  1  0  0  0  0
 50 58  1  0  0  0  0
 51 70  1  0  0  0  0
 52 71  1  0  0  0  0
 53 57  1  0  0  0  0
 53 67  1  0  0  0  0
 54 57  1  0  0  0  0
 54 79  1  0  0  0  0
 55 58  1  0  0  0  0
 55 69  1  0  0  0  0
 56 71  1  0  0  0  0
 57 77  1  0  0  0  0
 59 62  1  0  0  0  0
 60 61  1  0  0  0  0
M  CHG  1  71   1
M  ISO  4  34 100  54 101  70 100  79 101
M  END
> <Batch ID>
0199

> <Smiles>
CNC(C)C(=O)NC(C(=O)N1Cc2cc([101O:1][101CH2:1]C(O)CNc3nnc([100N:0](C)[100C:0](=O)N4CCCC(n5nc(-c6ccc(Oc7ccc(F)cc7F)cc6)c(C(N)=O)c5N)C4)s3)ccc2CC1C(=O)NC1CCCc2ccccc21)C(C)(C)C

> <Shape>
0.304

> <Color>
0.087

> <Negative vol penalty>
0.000

$$$$

  -OEChem-04052305473D

 81 89  0     1  0  0  0  0  0999 V2000
  -16.7638  -29.4959   20.3945 C   0  0  0  0  0  0  0  0  0  0  0  0
  -17.9120  -29.0823   19.7267 C   0  0  0  0  0  0  0  0  0  0  0  0
  -26.7279  -12.5521   21.7992 C   0  0  0  0  0  0  0  0  0  0  0  0
  -26.0234  -14.1175   20.0991 C   0  0  0  0  0  0  0  0  0  0  0  0
  -16.8715  -30.2108   21.5866 C   0  0  0  0  0  0  0  0  0  0  0  0
  -19.1686  -29.3844   20.2501 C   0  0  0  0  0  0  0  0  0  0  0  0
  -24.2098  -25.9195   19.9548 C   0  0  0  0  0  0  0  0  0  0  0  0
  -25.4376  -12.0246   21.8481 C   0  0  0  0  0  0  0  0  0  0  0  0
  -24.7331  -13.5899   20.1480 C   0  0  0  0  0  0  0  0  0  0  0  0
  -25.3179  -25.9459   19.1092 C   0  0  0  0  0  0  0  0  0  0  0  0
  -23.5485   -9.8903   20.0291 C   0  0  0  0  0  0  0  0  0  0  0  0
  -23.4160   -8.5018   20.0446 C   0  0  0  0  0  0  0  0  0  0  0  0
  -26.5265  -27.2449   20.7436 C   0  0  0  0  0  0  0  0  0  0  0  0
  -22.2853   -8.6334   22.1756 C   0  0  0  0  0  0  0  0  0  0  0  0
  -29.3367  -21.6888   19.6315 C   0  0  0  0  0  0  0  0  0  0  0  0
  -30.6555  -23.7925   20.6124 C   0  0  0  0  0  0  0  0  0  0  0  0
  -27.0208  -13.5987   20.9247 C   0  0  0  0  0  0  0  0  0  0  0  0
  -29.4131  -13.7245   20.0480 C   0  0  0  0  0  0  0  0  0  0  0  0
  -18.1300  -30.5135   22.1299 C   0  0  0  0  0  0  0  0  0  0  0  0
  -24.2480  -26.5659   21.1987 C   0  0  0  0  0  0  0  0  0  0  0  0
  -19.2933  -30.1053   21.4499 C   0  0  0  0  0  0  0  0  0  0  0  0
  -25.4184  -27.2230   21.6042 C   0  0  0  0  0  0  0  0  0  0  0  0
  -24.4402  -12.5434   21.0225 C   0  0  0  0  0  0  0  0  0  0  0  0
  -26.4755  -26.6111   19.5023 C   0  0  0  0  0  0  0  0  0  0  0  0
  -23.0494  -10.6503   21.0870 C   0  0  0  0  0  0  0  0  0  0  0  0
  -22.7844   -7.8734   21.1178 C   0  0  0  0  0  0  0  0  0  0  0  0
  -22.4179  -10.0219   22.1602 C   0  0  0  0  0  0  0  0  0  0  0  0
  -28.3533  -14.1444   20.8741 C   0  0  0  0  0  0  0  0  0  0  0  0
  -30.0464  -21.5971   20.8086 C   0  0  0  0  0  0  0  0  0  0  0  0
  -29.9465  -23.8841   19.4350 C   0  0  0  0  0  0  0  0  0  0  0  0
  -30.4561  -14.5547   20.3790 C   0  0  0  0  0  0  0  0  0  0  0  0
  -29.4514  -12.6778   19.0690 C   0  0  0  0  0  0  0  0  0  0  0  0
  -22.6323  -28.9544   22.5359 C   0  0  0  0  0  0  0  0  0  0  0  0
  -24.3460  -28.1263   25.1627 C   0  0  0  0  0  0  0  0  0  0  0  0
  -27.1412  -26.6532   26.4525 C   0  0  0  0  0  0  0  0  0  0  0  0
  -30.7174  -20.0597   22.6880 C   0  0  0  0  0  0  0  0  0  0  0  0
  -18.1966  -31.3297   23.3965 C   0  0  0  0  0  0  0  0  0  0  0  0
  -23.0534  -26.5054   22.1106 C   0  0  0  0  0  0  0  0  0  0  0  0
  -25.5176  -27.9152   22.9382 C   0  0  0  0  0  0  0  0  0  0  0  0
  -19.5613  -31.2846   24.0790 C   0  0  0  0  0  0  0  0  0  0  0  0
  -32.1907  -17.1125   24.0373 C   0  0  0  0  0  0  0  0  0  0  0  0
  -20.6754  -31.4997   23.0596 C   0  0  0  0  0  0  0  0  0  0  0  0
  -31.4746  -15.9788   23.2996 C   0  0  0  0  0  0  0  0  0  0  0  0
  -31.2495  -18.2780   24.3365 C   0  0  0  0  0  0  0  0  0  0  0  0
  -29.8049  -17.6682   22.4364 C   0  0  0  0  0  0  0  0  0  0  0  0
  -20.6740  -30.3923   21.9988 C   0  0  1  0  0  0  0  0  0  0  0  0
  -23.0267  -27.6346   23.1361 C   0  0  1  0  0  0  0  0  0  0  0  0
  -30.7279  -16.4991   22.0557 C   0  0  2  0  0  0  0  0  0  0  0  0
  -28.2822  -26.1642   28.6334 C   0  0  0  0  0  0  0  0  0  0  0  0
  -29.8292  -26.5287   16.8245 C   0  0  0  0  0  0  0  0  0  0  0  0
  -25.2301  -31.0406   25.3507 C   0  0  0  0  0  0  0  0  0  0  0  0
  -27.0549  -30.3142   26.9033 C   0  0  0  0  0  0  0  0  0  0  0  0
  -24.6675  -29.9776   27.5434 C   0  0  0  0  0  0  0  0  0  0  0  0
  -27.0076  -23.7314   26.0003 C   0  0  0  0  0  0  0  0  0  0  0  0
  -27.7409  -25.5234   17.8077 C   0  0  0  0  0  0  0  0  0  1  0  0
  -25.6827  -28.5283   25.7375 C   0  0  1  0  0  0  0  0  0  0  0  0
  -27.3228  -25.6457   27.5734 C   0  0  2  0  0  0  0  0  0  0  0  0
  -29.2270  -25.3167   17.5230 C   0  0  2  0  0  0  0  0  0  0  0  0
  -25.6566  -29.9539   26.3577 C   0  0  0  0  0  0  0  0  0  0  0  0
  -30.7182  -22.6474   21.3204 N   0  0  0  0  0  0  0  0  0  0  0  0
  -29.2743  -22.8339   18.9234 N   0  0  0  0  0  0  0  0  0  0  0  0
  -28.6920  -15.1621   21.6700 N   0  0  0  0  0  0  0  0  0  0  0  0
  -29.9764  -15.3886   21.3458 N   0  0  0  0  0  0  0  0  0  0  0  0
  -24.3208  -27.8333   23.7918 N   0  0  0  0  0  0  0  0  0  0  0  0
  -30.5808  -18.7206   23.1110 N   0  0  0  0  0  0  0  0  0  0  0  0
  -31.7276  -14.6453   19.9346 N   0  0  0  0  0  0  0  0  0  0  0  0
  -28.2913  -11.9212   18.8542 N   0  0  0  0  0  0  0  0  0  0  0  0
  -30.0640  -20.3562   21.4923 N   0  0  0  0  0  0  0  0  0  0  0  0
  -29.9335  -25.0957   18.7689 N   0  0  0  0  0  0  0  0  0  0  0  0
  -21.2698  -29.1844   22.5285 N   0  0  0  0  0  0  0  0  0  0  0  0
  -26.0570  -27.4754   26.6755 N   0  0  0  0  0  0  0  0  0  0  0  0
  -27.8633  -24.3650   27.0363 N   0  3  0  0  0  0  0  0  0  0  0  0
  -30.4885  -12.4102   18.4161 O   0  0  0  0  0  0  0  0  0  0  0  0
  -23.5000  -29.7089   22.1123 O   0  0  0  0  0  0  0  0  0  0  0  0
  -23.3619  -28.0673   25.9041 O   0  0  0  0  0  0  0  0  0  0  0  0
  -27.8887  -26.7078   25.4784 O   0  0  0  0  0  0  0  0  0  0  0  0
  -31.3887  -20.8760   23.3244 O   0  0  0  0  0  0  0  0  0  0  0  0
  -23.1811  -12.0287   21.0698 O   0  0  0  0  0  0  0  0  0  0  0  0
  -27.5584  -26.6391   18.6786 O   0  0  0  0  0  0  0  0  0  1  0  0
  -22.6559   -6.5401   21.1317 F   0  0  0  0  0  0  0  0  0  0  0  0
  -21.9354  -10.7468   23.1788 F   0  0  0  0  0  0  0  0  0  0  0  0
  1  2  1  0  0  0  0
  1  5  2  0  0  0  0
  2  6  2  0  0  0  0
  3  8  2  0  0  0  0
  3 17  1  0  0  0  0
  4  9  1  0  0  0  0
  4 17  2  0  0  0  0
  5 19  1  0  0  0  0
  6 21  1  0  0  0  0
  7 10  2  0  0  0  0
  7 20  1  0  0  0  0
  8 23  1  0  0  0  0
  9 23  2  0  0  0  0
 10 24  1  0  0  0  0
 11 12  2  0  0  0  0
 11 25  1  0  0  0  0
 12 26  1  0  0  0  0
 13 22  1  0  0  0  0
 13 24  2  0  0  0  0
 14 26  2  0  0  0  0
 14 27  1  0  0  0  0
 15 29  2  0  0  0  0
 15 61  1  0  0  0  0
 16 30  1  0  0  0  0
 16 60  2  0  0  0  0
 17 28  1  0  0  0  0
 18 28  1  0  0  0  0
 18 31  2  0  0  0  0
 18 32  1  0  0  0  0
 19 21  2  0  0  0  0
 19 37  1  0  0  0  0
 20 22  2  0  0  0  0
 20 38  1  0  0  0  0
 21 46  1  0  0  0  0
 22 39  1  0  0  0  0
 23 78  1  0  0  0  0
 24 79  1  0  0  0  0
 25 27  2  0  0  0  0
 25 78  1  0  0  0  0
 26 80  1  0  0  0  0
 27 81  1  0  0  0  0
 28 62  2  0  0  0  0
 29 60  1  0  0  0  0
 29 68  1  0  0  0  0
 30 61  2  0  0  0  0
 30 69  1  0  0  0  0
 31 63  1  0  0  0  0
 31 66  1  0  0  0  0
 32 67  1  0  0  0  0
 32 73  2  0  0  0  0
 33 47  1  0  0  0  0
 33 70  1  0  0  0  0
 33 74  2  0  0  0  0
 34 56  1  0  0  0  0
 34 64  1  0  0  0  0
 34 75  2  0  0  0  0
 35 57  1  0  0  0  0
 35 71  1  0  0  0  0
 35 76  2  0  0  0  0
 36 65  1  0  0  0  0
 36 68  1  0  0  0  0
 36 77  2  0  0  0  0
 37 40  1  0  0  0  0
 38 47  1  0  0  0  0
 39 64  1  0  0  0  0
 40 42  1  0  0  0  0
 41 43  1  0  0  0  0
 41 44  1  0  0  0  0
 42 46  1  0  0  0  0
 43 48  1  0  0  0  0
 44 65  1  0  0  0  0
 45 48  1  0  0  0  0
 45 65  1  0  0  0  0
 46 70  1  0  0  0  0
 47 64  1  0  0  0  0
 48 63  1  0  0  0  0
 49 57  1  0  0  0  0
 50 58  1  0  0  0  0
 51 59  1  0  0  0  0
 52 59  1  0  0  0  0
 53 59  1  0  0  0  0
 54 72  1  0  0  0  0
 55 58  1  0  0  0  0
 55 79  1  0  0  0  0
 56 59  1  0  0  0  0
 56 71  1  0  0  0  0
 57 72  1  0  0  0  0
 58 69  1  0  0  0  0
 62 63  1  0  0  0  0
M  CHG  1  72   1
M  ISO  4  36 100  55 101  68 100  79 101
M  END
> <Batch ID>
0199

> <Smiles>
CNC(C)C(=O)NC(C(=O)N1Cc2cc([101O:1][101CH2:1]C(C)Nc3cnc([100NH:0][100C:0](=O)N4CCCC(n5nc(-c6ccc(Oc7ccc(F)cc7F)cc6)c(C(N)=O)c5N)C4)cn3)ccc2CC1C(=O)NC1CCCc2ccccc21)C(C)(C)C

> <Shape>
0.264

> <Color>
0.088

> <Negative vol penalty>
0.000

$$$$

  -OEChem-04052305473D

 79 87  0     1  0  0  0  0  0999 V2000
  -21.8669  -11.7277   19.9278 C   0  0  0  0  0  0  0  0  0  0  0  0
  -21.6153  -12.9966   20.4397 C   0  0  0  0  0  0  0  0  0  0  0  0
  -26.2304  -28.7454   21.7023 C   0  0  0  0  0  0  0  0  0  0  0  0
  -25.0479  -27.0465   20.4563 C   0  0  0  0  0  0  0  0  0  0  0  0
  -23.1753  -11.2505   19.8624 C   0  0  0  0  0  0  0  0  0  0  0  0
  -22.6719  -13.7886   20.8876 C   0  0  0  0  0  0  0  0  0  0  0  0
  -22.3180  -18.5822   19.2936 C   0  0  0  0  0  0  0  0  0  0  0  0
  -27.4349  -28.3149   21.1460 C   0  0  0  0  0  0  0  0  0  0  0  0
  -26.2524  -26.6161   19.9000 C   0  0  0  0  0  0  0  0  0  0  0  0
  -21.4210  -19.4119   19.9650 C   0  0  0  0  0  0  0  0  0  0  0  0
  -29.0947  -28.6675   18.2213 C   0  0  0  0  0  0  0  0  0  0  0  0
  -29.9751  -29.6408   17.7490 C   0  0  0  0  0  0  0  0  0  0  0  0
  -23.2477  -20.3556   21.2268 C   0  0  0  0  0  0  0  0  0  0  0  0
  -31.6582  -28.8724   19.3027 C   0  0  0  0  0  0  0  0  0  0  0  0
  -25.0369  -28.1111   21.3575 C   0  0  0  0  0  0  0  0  0  0  0  0
  -22.9217  -29.5358   21.4207 C   0  0  0  0  0  0  0  0  0  0  0  0
  -24.2495  -12.0409   20.3008 C   0  0  0  0  0  0  0  0  0  0  0  0
  -23.6875  -18.6253   19.5920 C   0  0  0  0  0  0  0  0  0  0  0  0
  -23.9958  -13.3210   20.8293 C   0  0  0  0  0  0  0  0  0  0  0  0
  -24.1603  -19.5272   20.5560 C   0  0  0  0  0  0  0  0  0  0  0  0
  -27.4460  -27.2503   20.2448 C   0  0  0  0  0  0  0  0  0  0  0  0
  -21.8854  -20.2967   20.9338 C   0  0  0  0  0  0  0  0  0  0  0  0
  -29.4960  -27.7966   19.2344 C   0  0  0  0  0  0  0  0  0  0  0  0
  -31.2568  -29.7433   18.2897 C   0  0  0  0  0  0  0  0  0  0  0  0
  -30.7778  -27.8990   19.7750 C   0  0  0  0  0  0  0  0  0  0  0  0
  -23.7924  -28.5549   21.9322 C   0  0  0  0  0  0  0  0  0  0  0  0
  -18.2197  -23.2932   23.6918 C   0  0  0  0  0  0  0  0  0  0  0  0
  -21.8913  -29.5868   22.3274 C   0  0  0  0  0  0  0  0  0  0  0  0
  -17.1909  -23.5619   22.8135 C   0  0  0  0  0  0  0  0  0  0  0  0
  -18.8424  -21.9856   22.0449 C   0  0  0  0  0  0  0  0  0  0  0  0
  -23.0342  -30.3297   20.2322 C   0  0  0  0  0  0  0  0  0  0  0  0
  -25.8015  -16.5433   20.7323 C   0  0  0  0  0  0  0  0  0  0  0  0
  -27.9087  -18.9249   20.0920 C   0  0  0  0  0  0  0  0  0  0  0  0
  -28.4578  -22.2618   19.6331 C   0  0  0  0  0  0  0  0  0  0  0  0
  -19.6987  -25.6156   26.2356 C   0  0  0  0  0  0  0  0  0  0  0  0
  -25.6420  -11.4636   20.2541 C   0  0  0  0  0  0  0  0  0  0  0  0
  -24.6456  -17.7428   18.8399 C   0  0  0  0  0  0  0  0  0  0  0  0
  -25.6235  -19.6266   20.8989 C   0  0  0  0  0  0  0  0  0  0  0  0
  -26.7414  -12.5123   20.4022 C   0  0  0  0  0  0  0  0  0  0  0  0
  -20.9431  -28.8714   26.9621 C   0  0  0  0  0  0  0  0  0  0  0  0
  -26.4246  -13.4586   21.5558 C   0  0  0  0  0  0  0  0  0  0  0  0
  -21.7359  -29.2480   25.7092 C   0  0  0  0  0  0  0  0  0  0  0  0
  -21.0756  -27.3855   27.2883 C   0  0  0  0  0  0  0  0  0  0  0  0
  -21.5297  -26.8517   24.9256 C   0  0  0  0  0  0  0  0  0  0  0  0
  -25.1178  -14.2198   21.3020 C   0  0  1  0  0  0  0  0  0  0  0  0
  -25.9535  -17.5060   19.5887 C   0  0  1  0  0  0  0  0  0  0  0  0
  -21.3817  -28.3294   24.5244 C   0  0  2  0  0  0  0  0  0  0  0  0
  -30.2904  -23.9101   19.1619 C   0  0  0  0  0  0  0  0  0  0  0  0
  -28.8571  -18.6931   22.9828 C   0  0  0  0  0  0  0  0  0  0  0  0
  -29.9609  -20.9256   22.7264 C   0  0  0  0  0  0  0  0  0  0  0  0
  -30.6865  -19.0072   21.3067 C   0  0  0  0  0  0  0  0  0  0  0  0
  -27.1883  -23.1259   17.1031 C   0  0  0  0  0  0  0  0  0  0  0  0
  -18.3933  -23.8767   25.0392 C   0  0  0  0  0  0  0  0  0  0  0  0
  -19.6336  -20.9986   21.2380 C   0  0  0  0  0  0  0  0  0  1  0  0
  -28.4535  -20.1053   20.8594 C   0  0  1  0  0  0  0  0  0  0  0  0
  -29.2158  -23.0194   18.5579 C   0  0  2  0  0  0  0  0  0  0  0  0
  -29.4616  -19.6798   21.9640 C   0  0  0  0  0  0  0  0  0  0  0  0
  -23.3534  -28.0213   23.0753 N   0  0  0  0  0  0  0  0  0  0  0  0
  -19.1674  -22.3893   23.2530 N   0  0  0  0  0  0  0  0  0  0  0  0
  -22.1957  -28.6693   23.2896 N   0  0  0  0  0  0  0  0  0  0  0  0
  -26.5199  -18.7385   20.1405 N   0  0  0  0  0  0  0  0  0  0  0  0
  -20.7238  -26.5694   26.1238 N   0  0  0  0  0  0  0  0  0  0  0  0
  -20.7637  -30.3265   22.3876 N   0  0  0  0  0  0  0  0  0  0  0  0
  -16.1401  -24.3992   22.9886 N   0  0  0  0  0  0  0  0  0  0  0  0
  -24.1570  -30.1503   19.4126 N   0  0  0  0  0  0  0  0  0  0  0  0
  -25.3351  -15.2969   20.3602 N   0  0  0  0  0  0  0  0  0  0  0  0
  -29.0067  -21.0184   19.8651 N   0  0  0  0  0  0  0  0  0  0  0  0
  -19.4245  -24.8894   25.0831 N   0  0  0  0  0  0  0  0  0  0  0  0
  -28.2829  -23.8753   17.7719 N   0  3  0  0  0  0  0  0  0  0  0  0
  -22.1731  -31.1849   19.9151 O   0  0  0  0  0  0  0  0  0  0  0  0
  -26.0876  -16.9041   21.8679 O   0  0  0  0  0  0  0  0  0  0  0  0
  -28.6859  -18.1994   19.4666 O   0  0  0  0  0  0  0  0  0  0  0  0
  -27.4789  -22.7280   20.2119 O   0  0  0  0  0  0  0  0  0  0  0  0
  -19.0706  -25.4290   27.2832 O   0  0  0  0  0  0  0  0  0  0  0  0
  -28.6211  -26.8302   19.7016 O   0  0  0  0  0  0  0  0  0  0  0  0
  -21.0119  -21.1072   21.5911 O   0  0  0  0  0  0  0  0  0  1  0  0
  -32.1027  -30.6771   17.8350 F   0  0  0  0  0  0  0  0  0  0  0  0
  -31.1694  -27.0645   20.7476 F   0  0  0  0  0  0  0  0  0  0  0  0
  -17.4098  -22.6528   21.3758 S   0  0  0  0  0  0  0  0  0  0  0  0
  1  2  1  0  0  0  0
  1  5  2  0  0  0  0
  2  6  2  0  0  0  0
  3  8  2  0  0  0  0
  3 15  1  0  0  0  0
  4  9  1  0  0  0  0
  4 15  2  0  0  0  0
  5 17  1  0  0  0  0
  6 19  1  0  0  0  0
  7 10  2  0  0  0  0
  7 18  1  0  0  0  0
  8 21  1  0  0  0  0
  9 21  2  0  0  0  0
 10 22  1  0  0  0  0
 11 12  2  0  0  0  0
 11 23  1  0  0  0  0
 12 24  1  0  0  0  0
 13 20  1  0  0  0  0
 13 22  2  0  0  0  0
 14 24  2  0  0  0  0
 14 25  1  0  0  0  0
 15 26  1  0  0  0  0
 16 26  1  0  0  0  0
 16 28  2  0  0  0  0
 16 31  1  0  0  0  0
 17 19  2  0  0  0  0
 17 36  1  0  0  0  0
 18 20  2  0  0  0  0
 18 37  1  0  0  0  0
 19 45  1  0  0  0  0
 20 38  1  0  0  0  0
 21 75  1  0  0  0  0
 22 76  1  0  0  0  0
 23 25  2  0  0  0  0
 23 75  1  0  0  0  0
 24 77  1  0  0  0  0
 25 78  1  0  0  0  0
 26 58  2  0  0  0  0
 27 29  2  0  0  0  0
 27 53  1  0  0  0  0
 27 59  1  0  0  0  0
 28 60  1  0  0  0  0
 28 63  1  0  0  0  0
 29 64  1  0  0  0  0
 29 79  1  0  0  0  0
 30 54  1  0  0  0  0
 30 59  2  0  0  0  0
 30 79  1  0  0  0  0
 31 65  1  0  0  0  0
 31 70  2  0  0  0  0
 32 46  1  0  0  0  0
 32 66  1  0  0  0  0
 32 71  2  0  0  0  0
 33 55  1  0  0  0  0
 33 61  1  0  0  0  0
 33 72  2  0  0  0  0
 34 56  1  0  0  0  0
 34 67  1  0  0  0  0
 34 73  2  0  0  0  0
 35 62  1  0  0  0  0
 35 68  1  0  0  0  0
 35 74  2  0  0  0  0
 36 39  1  0  0  0  0
 37 46  1  0  0  0  0
 38 61  1  0  0  0  0
 39 41  1  0  0  0  0
 40 42  1  0  0  0  0
 40 43  1  0  0  0  0
 41 45  1  0  0  0  0
 42 47  1  0  0  0  0
 43 62  1  0  0  0  0
 44 47  1  0  0  0  0
 44 62  1  0  0  0  0
 45 66  1  0  0  0  0
 46 61  1  0  0  0  0
 47 60  1  0  0  0  0
 48 56  1  0  0  0  0
 49 57  1  0  0  0  0
 50 57  1  0  0  0  0
 51 57  1  0  0  0  0
 52 69  1  0  0  0  0
 53 68  1  0  0  0  0
 54 76  1  0  0  0  0
 55 57  1  0  0  0  0
 55 67  1  0  0  0  0
 56 69  1  0  0  0  0
 58 60  1  0  0  0  0
M  CHG  1  69   1
M  ISO  4  35 100  54 101  68 100  76 101
M  END
> <Batch ID>
0199

> <Smiles>
CNC(C)C(=O)NC(C(=O)N1Cc2cc([101O:1][101CH2:1]c3nc(C[100NH:0][100C:0](=O)N4CCCC(n5nc(-c6ccc(Oc7ccc(F)cc7F)cc6)c(C(N)=O)c5N)C4)c(N)s3)ccc2CC1C(=O)NC1CCCc2ccccc21)C(C)(C)C

> <Shape>
0.207

> <Color>
0.076

> <Negative vol penalty>
0.000

$$$$

  -OEChem-04052305473D

 83 91  0     1  0  0  0  0  0999 V2000
  -17.9028  -31.9000   19.7757 C   0  0  0  0  0  0  0  0  0  0  0  0
  -19.2149  -31.6920   19.3628 C   0  0  0  0  0  0  0  0  0  0  0  0
  -26.7897  -12.2646   21.7611 C   0  0  0  0  0  0  0  0  0  0  0  0
  -26.0585  -13.8977   20.1377 C   0  0  0  0  0  0  0  0  0  0  0  0
  -17.5597  -31.7297   21.1163 C   0  0  0  0  0  0  0  0  0  0  0  0
  -20.1850  -31.3144   20.2906 C   0  0  0  0  0  0  0  0  0  0  0  0
  -24.9444  -27.5823   19.3287 C   0  0  0  0  0  0  0  0  0  0  0  0
  -25.4957  -11.7480   21.8243 C   0  0  0  0  0  0  0  0  0  0  0  0
  -24.7644  -13.3809   20.2008 C   0  0  0  0  0  0  0  0  0  0  0  0
  -26.2892  -27.8285   19.0553 C   0  0  0  0  0  0  0  0  0  0  0  0
  -22.4645   -9.7668   22.1437 C   0  0  0  0  0  0  0  0  0  0  0  0
  -22.3179   -8.3800   22.1159 C   0  0  0  0  0  0  0  0  0  0  0  0
  -26.8042  -27.5839   21.3993 C   0  0  0  0  0  0  0  0  0  0  0  0
  -29.4271  -21.4272   19.8541 C   0  0  0  0  0  0  0  0  0  0  0  0
  -23.3917   -8.3098   19.9527 C   0  0  0  0  0  0  0  0  0  0  0  0
  -30.8265  -23.5096   20.9271 C   0  0  0  0  0  0  0  0  0  0  0  0
  -27.0711  -13.3396   20.9179 C   0  0  0  0  0  0  0  0  0  0  0  0
  -29.4415  -13.4746   19.9847 C   0  0  0  0  0  0  0  0  0  0  0  0
  -18.5241  -31.3405   22.0593 C   0  0  0  0  0  0  0  0  0  0  0  0
  -24.5171  -27.3455   20.6431 C   0  0  0  0  0  0  0  0  0  0  0  0
  -19.8548  -31.1400   21.6454 C   0  0  0  0  0  0  0  0  0  0  0  0
  -25.4539  -27.3325   21.6864 C   0  0  0  0  0  0  0  0  0  0  0  0
  -29.3976  -22.6659   19.2232 C   0  0  0  0  0  0  0  0  0  0  0  0
  -30.1079  -23.7321   19.7634 C   0  0  0  0  0  0  0  0  0  0  0  0
  -24.4830  -12.3061   21.0442 C   0  0  0  0  0  0  0  0  0  0  0  0
  -27.2189  -27.8322   20.0910 C   0  0  0  0  0  0  0  0  0  0  0  0
  -23.0747  -10.4252   21.0760 C   0  0  0  0  0  0  0  0  0  0  0  0
  -22.7815   -7.6514   21.0204 C   0  0  0  0  0  0  0  0  0  0  0  0
  -23.5383   -9.6966   19.9805 C   0  0  0  0  0  0  0  0  0  0  0  0
  -28.4076  -13.8741   20.8526 C   0  0  0  0  0  0  0  0  0  0  0  0
  -30.1762  -21.3078   21.0135 C   0  0  0  0  0  0  0  0  0  0  0  0
  -30.5012  -14.2822   20.3184 C   0  0  0  0  0  0  0  0  0  0  0  0
  -29.4438  -12.4639   18.9677 C   0  0  0  0  0  0  0  0  0  0  0  0
  -22.5337  -28.8035   22.6541 C   0  0  0  0  0  0  0  0  0  0  0  0
  -23.1297  -26.2099   24.5088 C   0  0  0  0  0  0  0  0  0  0  0  0
  -30.7668  -26.1576   19.5999 C   0  0  0  0  0  0  0  0  0  0  0  0
  -25.2258  -23.6368   25.3040 C   0  0  0  0  0  0  0  0  0  0  0  0
  -30.8789  -19.6964   22.8180 C   0  0  0  0  0  0  0  0  0  0  0  0
  -18.1157  -31.2148   23.5057 C   0  0  0  0  0  0  0  0  0  0  0  0
  -23.0670  -27.0551   20.9179 C   0  0  0  0  0  0  0  0  0  0  0  0
  -25.0495  -27.0636   23.1121 C   0  0  0  0  0  0  0  0  0  0  0  0
  -19.1238  -30.4493   24.3589 C   0  0  0  0  0  0  0  0  0  0  0  0
  -32.3553  -16.6881   24.0209 C   0  0  0  0  0  0  0  0  0  0  0  0
  -20.5407  -30.9417   24.0817 C   0  0  0  0  0  0  0  0  0  0  0  0
  -31.6088  -15.5889   23.2614 C   0  0  0  0  0  0  0  0  0  0  0  0
  -31.4343  -17.8507   24.3864 C   0  0  0  0  0  0  0  0  0  0  0  0
  -29.9353  -17.3245   22.5036 C   0  0  0  0  0  0  0  0  0  0  0  0
  -20.9302  -30.7058   22.6175 C   0  0  1  0  0  0  0  0  0  0  0  0
  -22.6648  -27.3354   22.3625 C   0  0  1  0  0  0  0  0  0  0  0  0
  -30.8361  -16.1614   22.0569 C   0  0  2  0  0  0  0  0  0  0  0  0
  -28.5977  -22.8236   17.9717 C   0  0  0  0  0  0  0  0  0  0  0  0
  -25.4609  -21.7054   26.8890 C   0  0  0  0  0  0  0  0  0  0  0  0
  -23.8982  -28.1403   26.7433 C   0  0  0  0  0  0  0  0  0  0  0  0
  -25.0014  -26.2268   27.9222 C   0  0  0  0  0  0  0  0  0  0  0  0
  -22.5461  -26.1714   27.4848 C   0  0  0  0  0  0  0  0  0  0  0  0
  -25.2519  -21.6729   23.0901 C   0  0  0  0  0  0  0  0  0  0  0  0
  -30.4967  -27.3238   18.6559 C   0  0  0  0  0  0  0  0  0  0  0  0
  -29.0206  -27.6748   18.5468 C   0  0  0  0  0  0  0  0  0  1  0  0
  -24.1554  -25.8601   25.5598 C   0  0  1  0  0  0  0  0  0  0  0  0
  -24.9663  -22.1573   25.5237 C   0  0  2  0  0  0  0  0  0  0  0  0
  -23.9079  -26.6067   26.9010 C   0  0  0  0  0  0  0  0  0  0  0  0
  -30.8791  -22.3206   21.5683 N   0  0  0  0  0  0  0  0  0  0  0  0
  -28.7771  -14.8588   21.6759 N   0  0  0  0  0  0  0  0  0  0  0  0
  -30.0551  -15.0848   21.3269 N   0  0  0  0  0  0  0  0  0  0  0  0
  -23.6192  -26.7914   23.3307 N   0  0  0  0  0  0  0  0  0  0  0  0
  -30.7391  -18.3441   23.1956 N   0  0  0  0  0  0  0  0  0  0  0  0
  -31.7618  -14.3768   19.8448 N   0  0  0  0  0  0  0  0  0  0  0  0
  -28.2708  -11.7268   18.7557 N   0  0  0  0  0  0  0  0  0  0  0  0
  -30.1063  -25.0130   19.1616 N   0  0  0  0  0  0  0  0  0  0  0  0
  -30.1983  -20.0426   21.6511 N   0  0  0  0  0  0  0  0  0  0  0  0
  -21.2752  -29.3166   22.4038 N   0  0  0  0  0  0  0  0  0  0  0  0
  -24.1428  -24.4058   25.6744 N   0  0  0  0  0  0  0  0  0  0  0  0
  -25.6602  -21.3493   24.4813 N   0  3  0  0  0  0  0  0  0  0  0  0
  -30.4611  -12.2105   18.2789 O   0  0  0  0  0  0  0  0  0  0  0  0
  -23.5020  -29.4245   23.0763 O   0  0  0  0  0  0  0  0  0  0  0  0
  -21.9388  -25.9693   24.7223 O   0  0  0  0  0  0  0  0  0  0  0  0
  -31.4765  -26.2729   20.5936 O   0  0  0  0  0  0  0  0  0  0  0  0
  -26.2847  -24.0675   24.8528 O   0  0  0  0  0  0  0  0  0  0  0  0
  -31.5747  -20.4825   23.4660 O   0  0  0  0  0  0  0  0  0  0  0  0
  -23.2202  -11.8020   21.1054 O   0  0  0  0  0  0  0  0  0  0  0  0
  -28.5320  -28.0729   19.8270 O   0  0  0  0  0  0  0  0  0  1  0  0
  -22.6420   -6.3195   20.9946 F   0  0  0  0  0  0  0  0  0  0  0  0
  -24.1264  -10.3234   18.9524 F   0  0  0  0  0  0  0  0  0  0  0  0
  1  2  1  0  0  0  0
  1  5  2  0  0  0  0
  2  6  2  0  0  0  0
  3  8  2  0  0  0  0
  3 17  1  0  0  0  0
  4  9  1  0  0  0  0
  4 17  2  0  0  0  0
  5 19  1  0  0  0  0
  6 21  1  0  0  0  0
  7 10  2  0  0  0  0
  7 20  1  0  0  0  0
  8 25  1  0  0  0  0
  9 25  2  0  0  0  0
 10 26  1  0  0  0  0
 11 12  2  0  0  0  0
 11 27  1  0  0  0  0
 12 28  1  0  0  0  0
 13 22  1  0  0  0  0
 13 26  2  0  0  0  0
 14 23  1  0  0  0  0
 14 31  2  0  0  0  0
 15 28  2  0  0  0  0
 15 29  1  0  0  0  0
 16 24  1  0  0  0  0
 16 62  2  0  0  0  0
 17 30  1  0  0  0  0
 18 30  1  0  0  0  0
 18 32  2  0  0  0  0
 18 33  1  0  0  0  0
 19 21  2  0  0  0  0
 19 39  1  0  0  0  0
 20 22  2  0  0  0  0
 20 40  1  0  0  0  0
 21 48  1  0  0  0  0
 22 41  1  0  0  0  0
 23 24  2  0  0  0  0
 23 51  1  0  0  0  0
 24 69  1  0  0  0  0
 25 80  1  0  0  0  0
 26 81  1  0  0  0  0
 27 29  2  0  0  0  0
 27 80  1  0  0  0  0
 28 82  1  0  0  0  0
 29 83  1  0  0  0  0
 30 63  2  0  0  0  0
 31 62  1  0  0  0  0
 31 70  1  0  0  0  0
 32 64  1  0  0  0  0
 32 67  1  0  0  0  0
 33 68  1  0  0  0  0
 33 74  2  0  0  0  0
 34 49  1  0  0  0  0
 34 71  1  0  0  0  0
 34 75  2  0  0  0  0
 35 59  1  0  0  0  0
 35 65  1  0  0  0  0
 35 76  2  0  0  0  0
 36 57  1  0  0  0  0
 36 69  1  0  0  0  0
 36 77  2  0  0  0  0
 37 60  1  0  0  0  0
 37 72  1  0  0  0  0
 37 78  2  0  0  0  0
 38 66  1  0  0  0  0
 38 70  1  0  0  0  0
 38 79  2  0  0  0  0
 39 42  1  0  0  0  0
 40 49  1  0  0  0  0
 41 65  1  0  0  0  0
 42 44  1  0  0  0  0
 43 45  1  0  0  0  0
 43 46  1  0  0  0  0
 44 48  1  0  0  0  0
 45 50  1  0  0  0  0
 46 66  1  0  0  0  0
 47 50  1  0  0  0  0
 47 66  1  0  0  0  0
 48 71  1  0  0  0  0
 49 65  1  0  0  0  0
 50 64  1  0  0  0  0
 52 60  1  0  0  0  0
 53 61  1  0  0  0  0
 54 61  1  0  0  0  0
 55 61  1  0  0  0  0
 56 73  1  0  0  0  0
 57 58  1  0  0  0  0
 58 81  1  0  0  0  0
 59 61  1  0  0  0  0
 59 72  1  0  0  0  0
 60 73  1  0  0  0  0
 63 64  1  0  0  0  0
M  CHG  1  73   1
M  ISO  4  38 100  58 101  70 100  81 101
M  END
> <Batch ID>
0199

> <Smiles>
CNC(C)C(=O)NC(C(=O)N1Cc2cc([101O:1][101CH2:1]CC(=O)Nc3cnc([100NH:0][100C:0](=O)N4CCCC(n5nc(-c6ccc(Oc7ccc(F)cc7F)cc6)c(C(N)=O)c5N)C4)cc3C)ccc2CC1C(=O)NC1CCCc2ccccc21)C(C)(C)C

> <Shape>
0.262

> <Color>
0.094

> <Negative vol penalty>
0.000

$$$$

  -OEChem-04052305473D

 84 92  0     1  0  0  0  0  0999 V2000
  -24.3215  -11.5192   20.2752 C   0  0  0  0  0  0  0  0  0  0  0  0
  -23.8174  -12.7884   20.5408 C   0  0  0  0  0  0  0  0  0  0  0  0
  -29.2958  -27.5330   21.0688 C   0  0  0  0  0  0  0  0  0  0  0  0
  -29.7691  -29.5625   22.2913 C   0  0  0  0  0  0  0  0  0  0  0  0
  -25.6833  -11.2645   20.4316 C   0  0  0  0  0  0  0  0  0  0  0  0
  -24.6749  -13.8034   20.9639 C   0  0  0  0  0  0  0  0  0  0  0  0
  -23.8260  -18.1862   18.5732 C   0  0  0  0  0  0  0  0  0  0  0  0
  -30.3678  -26.9026   21.7005 C   0  0  0  0  0  0  0  0  0  0  0  0
  -30.8410  -28.9320   22.9230 C   0  0  0  0  0  0  0  0  0  0  0  0
  -22.7339  -18.9418   18.9975 C   0  0  0  0  0  0  0  0  0  0  0  0
  -33.2021  -24.8680   22.7256 C   0  0  0  0  0  0  0  0  0  0  0  0
  -34.0617  -24.1022   21.9380 C   0  0  0  0  0  0  0  0  0  0  0  0
  -24.2145  -20.3523   20.2771 C   0  0  0  0  0  0  0  0  0  0  0  0
  -18.3477  -26.6826   22.4511 C   0  0  0  0  0  0  0  0  0  0  0  0
  -20.6966  -27.0389   22.0525 C   0  0  0  0  0  0  0  0  0  0  0  0
  -34.5960  -26.0562   20.6213 C   0  0  0  0  0  0  0  0  0  0  0  0
  -28.9965  -28.8630   21.3642 C   0  0  0  0  0  0  0  0  0  0  0  0
  -27.7189  -29.7203   19.3294 C   0  0  0  0  0  0  0  0  0  0  0  0
  -26.5594  -12.2794   20.8476 C   0  0  0  0  0  0  0  0  0  0  0  0
  -25.1216  -18.5018   19.0071 C   0  0  0  0  0  0  0  0  0  0  0  0
  -26.0495  -13.5616   21.1273 C   0  0  0  0  0  0  0  0  0  0  0  0
  -25.3217  -19.6007   19.8548 C   0  0  0  0  0  0  0  0  0  0  0  0
  -19.5938  -26.1904   22.0752 C   0  0  0  0  0  0  0  0  0  0  0  0
  -31.1404  -27.6020   22.6276 C   0  0  0  0  0  0  0  0  0  0  0  0
  -22.9277  -20.0233   19.8518 C   0  0  0  0  0  0  0  0  0  0  0  0
  -33.0394  -26.2279   22.4610 C   0  0  0  0  0  0  0  0  0  0  0  0
  -34.7586  -24.6963   20.8859 C   0  0  0  0  0  0  0  0  0  0  0  0
  -33.7364  -26.8220   21.4089 C   0  0  0  0  0  0  0  0  0  0  0  0
  -27.8897  -29.5151   20.7116 C   0  0  0  0  0  0  0  0  0  0  0  0
  -18.2348  -28.0215   22.7976 C   0  0  0  0  0  0  0  0  0  0  0  0
  -26.5177  -30.3783   19.2258 C   0  0  0  0  0  0  0  0  0  0  0  0
  -20.5242  -28.3688   22.4090 C   0  0  0  0  0  0  0  0  0  0  0  0
  -16.9786  -28.6216   23.2014 C   0  0  0  0  0  0  0  0  0  0  0  0
  -28.5698  -29.3491   18.2368 C   0  0  0  0  0  0  0  0  0  0  0  0
  -27.3511  -16.9929   20.6971 C   0  0  0  0  0  0  0  0  0  0  0  0
  -29.1460  -19.5763   19.9055 C   0  0  0  0  0  0  0  0  0  0  0  0
  -29.2477  -22.8554   18.9654 C   0  0  0  0  0  0  0  0  0  0  0  0
  -21.6674  -30.5936   22.7090 C   0  0  0  0  0  0  0  0  0  0  0  0
  -28.0161  -11.9439   21.0479 C   0  0  0  0  0  0  0  0  0  0  0  0
  -26.2922  -17.6932   18.5190 C   0  0  0  0  0  0  0  0  0  0  0  0
  -26.6948  -19.9934   20.3332 C   0  0  0  0  0  0  0  0  0  0  0  0
  -28.9171  -13.1727   21.1395 C   0  0  0  0  0  0  0  0  0  0  0  0
  -23.6556  -33.3524   21.6542 C   0  0  0  0  0  0  0  0  0  0  0  0
  -28.3117  -14.2097   22.0802 C   0  0  0  0  0  0  0  0  0  0  0  0
  -24.9491  -32.6997   21.1613 C   0  0  0  0  0  0  0  0  0  0  0  0
  -23.0835  -32.6290   22.8720 C   0  0  0  0  0  0  0  0  0  0  0  0
  -24.1899  -30.5295   22.2106 C   0  0  0  0  0  0  0  0  0  0  0  0
  -26.9517  -14.6953   21.5643 C   0  0  1  0  0  0  0  0  0  0  0  0
  -27.5090  -17.7910   19.4339 C   0  0  1  0  0  0  0  0  0  0  0  0
  -24.7690  -31.1842   20.9458 C   0  0  2  0  0  0  0  0  0  0  0  0
  -30.8603  -24.7023   18.4306 C   0  0  0  0  0  0  0  0  0  0  0  0
  -29.7242  -19.9297   22.8806 C   0  0  0  0  0  0  0  0  0  0  0  0
  -30.5070  -22.2548   22.3811 C   0  0  0  0  0  0  0  0  0  0  0  0
  -31.6933  -20.3000   21.3840 C   0  0  0  0  0  0  0  0  0  0  0  0
  -28.2126  -23.1171   16.2052 C   0  0  0  0  0  0  0  0  0  0  0  0
  -20.9915  -24.2657   21.3220 C   0  0  0  0  0  0  0  0  0  0  0  0
  -22.1004  -22.1405   20.5508 C   0  0  0  0  0  0  0  0  0  1  0  0
  -29.4015  -20.9303   20.5225 C   0  0  1  0  0  0  0  0  0  0  0  0
  -30.0209  -23.5654   17.8688 C   0  0  2  0  0  0  0  0  0  0  0  0
  -20.7891  -22.7914   20.9775 C   0  0  1  0  0  0  0  0  0  0  0  0
  -30.3053  -20.8454   21.7848 C   0  0  0  0  0  0  0  0  0  0  0  0
  -26.8781  -30.0034   21.4343 N   0  0  0  0  0  0  0  0  0  0  0  0
  -16.8512  -29.8756   23.5303 N   0  0  0  0  0  0  0  0  0  0  0  0
  -26.0601  -30.5220   20.5026 N   0  0  0  0  0  0  0  0  0  0  0  0
  -19.3130  -28.8165   22.7670 N   0  3  0  0  0  0  0  0  0  0  0  0
  -27.8067  -19.1680   19.8332 N   0  0  0  0  0  0  0  0  0  0  0  0
  -22.9366  -31.1988   22.5928 N   0  0  0  0  0  0  0  0  0  0  0  0
  -25.8190  -30.8423   18.1681 N   0  0  0  0  0  0  0  0  0  0  0  0
  -29.5510  -30.2571   17.8158 N   0  0  0  0  0  0  0  0  0  0  0  0
  -19.7358  -24.8585   21.7242 N   0  0  0  0  0  0  0  0  0  0  0  0
  -21.6438  -29.2370   22.3870 N   0  0  0  0  0  0  0  0  0  0  0  0
  -27.1296  -15.6452   20.4871 N   0  0  0  0  0  0  0  0  0  0  0  0
  -29.9400  -21.7691   19.4573 N   0  0  0  0  0  0  0  0  0  0  0  0
  -29.0841  -24.1289   16.8560 N   0  3  0  0  0  0  0  0  0  0  0  0
  -28.4524  -28.2518   17.6404 O   0  0  0  0  0  0  0  0  0  0  0  0
  -27.4262  -17.5577   21.7820 O   0  0  0  0  0  0  0  0  0  0  0  0
  -30.0991  -18.9088   19.4962 O   0  0  0  0  0  0  0  0  0  0  0  0
  -28.1419  -23.2295   19.3500 O   0  0  0  0  0  0  0  0  0  0  0  0
  -20.6692  -31.2378   23.0416 O   0  0  0  0  0  0  0  0  0  0  0  0
  -20.3181  -22.1012   22.1369 O   0  0  0  0  0  0  0  0  0  0  0  0
  -32.1863  -26.9870   23.2443 O   0  0  0  0  0  0  0  0  0  0  0  0
  -21.8633  -20.7621   20.2680 O   0  0  0  0  0  0  0  0  0  1  0  0
  -35.5852  -23.9611   20.1306 F   0  0  0  0  0  0  0  0  0  0  0  0
  -33.5851  -28.1282   21.1506 F   0  0  0  0  0  0  0  0  0  0  0  0
  1  2  1  0  0  0  0
  1  5  2  0  0  0  0
  2  6  2  0  0  0  0
  3  8  2  0  0  0  0
  3 17  1  0  0  0  0
  4  9  1  0  0  0  0
  4 17  2  0  0  0  0
  5 19  1  0  0  0  0
  6 21  1  0  0  0  0
  7 10  2  0  0  0  0
  7 20  1  0  0  0  0
  8 24  1  0  0  0  0
  9 24  2  0  0  0  0
 10 25  1  0  0  0  0
 11 12  2  0  0  0  0
 11 26  1  0  0  0  0
 12 27  1  0  0  0  0
 13 22  1  0  0  0  0
 13 25  2  0  0  0  0
 14 23  1  0  0  0  0
 14 30  2  0  0  0  0
 15 23  2  0  0  0  0
 15 32  1  0  0  0  0
 16 27  2  0  0  0  0
 16 28  1  0  0  0  0
 17 29  1  0  0  0  0
 18 29  1  0  0  0  0
 18 31  2  0  0  0  0
 18 34  1  0  0  0  0
 19 21  2  0  0  0  0
 19 39  1  0  0  0  0
 20 22  2  0  0  0  0
 20 40  1  0  0  0  0
 21 48  1  0  0  0  0
 22 41  1  0  0  0  0
 23 70  1  0  0  0  0
 24 81  1  0  0  0  0
 25 82  1  0  0  0  0
 26 28  2  0  0  0  0
 26 81  1  0  0  0  0
 27 83  1  0  0  0  0
 28 84  1  0  0  0  0
 29 62  2  0  0  0  0
 30 33  1  0  0  0  0
 30 65  1  0  0  0  0
 31 64  1  0  0  0  0
 31 68  1  0  0  0  0
 32 65  2  0  0  0  0
 32 71  1  0  0  0  0
 33 63  2  0  0  0  0
 34 69  1  0  0  0  0
 34 75  2  0  0  0  0
 35 49  1  0  0  0  0
 35 72  1  0  0  0  0
 35 76  2  0  0  0  0
 36 58  1  0  0  0  0
 36 66  1  0  0  0  0
 36 77  2  0  0  0  0
 37 59  1  0  0  0  0
 37 73  1  0  0  0  0
 37 78  2  0  0  0  0
 38 67  1  0  0  0  0
 38 71  1  0  0  0  0
 38 79  2  0  0  0  0
 39 42  1  0  0  0  0
 40 49  1  0  0  0  0
 41 66  1  0  0  0  0
 42 44  1  0  0  0  0
 43 45  1  0  0  0  0
 43 46  1  0  0  0  0
 44 48  1  0  0  0  0
 45 50  1  0  0  0  0
 46 67  1  0  0  0  0
 47 50  1  0  0  0  0
 47 67  1  0  0  0  0
 48 72  1  0  0  0  0
 49 66  1  0  0  0  0
 50 64  1  0  0  0  0
 51 59  1  0  0  0  0
 52 61  1  0  0  0  0
 53 61  1  0  0  0  0
 54 61  1  0  0  0  0
 55 74  1  0  0  0  0
 56 60  1  0  0  0  0
 56 70  1  0  0  0  0
 57 60  1  0  0  0  0
 57 82  1  0  0  0  0
 58 61  1  0  0  0  0
 58 73  1  0  0  0  0
 59 74  1  0  0  0  0
 60 80  1  0  0  0  0
 62 64  1  0  0  0  0
M  CHG  2  65   1  74   1
M  ISO  4  38 100  57 101  71 100  82 101
M  END
> <Batch ID>
0199

> <Smiles>
CNC(C)C(=O)NC(C(=O)N1Cc2cc([101O:1][101CH2:1]C(O)CNc3cc(C=N)nc([100NH:0][100C:0](=O)N4CCCC(n5nc(-c6ccc(Oc7ccc(F)cc7F)cc6)c(C(N)=O)c5N)C4)c3)ccc2CC1C(=O)NC1CCCc2ccccc21)C(C)(C)C

> <Shape>
0.248

> <Color>
0.063

> <Negative vol penalty>
0.000

$$$$

  -OEChem-04052305473D

 88 96  0     1  0  0  0  0  0999 V2000
  -20.2607  -35.9974   17.1942 C   0  0  0  0  0  0  0  0  0  0  0  0
  -20.7326  -34.7395   16.8331 C   0  0  0  0  0  0  0  0  0  0  0  0
  -26.9476  -10.0873   17.6114 C   0  0  0  0  0  0  0  0  0  0  0  0
  -28.1778   -9.8926   19.6816 C   0  0  0  0  0  0  0  0  0  0  0  0
  -20.9560  -36.7585   18.1328 C   0  0  0  0  0  0  0  0  0  0  0  0
  -21.9008  -34.2424   17.4098 C   0  0  0  0  0  0  0  0  0  0  0  0
  -24.9197  -28.0875   19.4883 C   0  0  0  0  0  0  0  0  0  0  0  0
  -27.2286   -8.7527   17.3189 C   0  0  0  0  0  0  0  0  0  0  0  0
  -28.4589   -8.5580   19.3891 C   0  0  0  0  0  0  0  0  0  0  0  0
  -26.0955  -27.3561   19.3267 C   0  0  0  0  0  0  0  0  0  0  0  0
  -30.6086   -6.8367   17.4279 C   0  0  0  0  0  0  0  0  0  0  0  0
  -31.9151   -6.3907   17.6274 C   0  0  0  0  0  0  0  0  0  0  0  0
  -27.5462  -18.8734   23.6376 C   0  0  0  0  0  0  0  0  0  0  0  0
  -27.1703  -28.7265   20.9958 C   0  0  0  0  0  0  0  0  0  0  0  0
  -31.1145   -4.7560   19.2160 C   0  0  0  0  0  0  0  0  0  0  0  0
  -27.2650  -19.8816   24.5370 C   0  0  0  0  0  0  0  0  0  0  0  0
  -27.4223  -10.6573   18.7927 C   0  0  0  0  0  0  0  0  0  0  0  0
  -26.0229  -12.5363   19.8020 C   0  0  0  0  0  0  0  0  0  0  0  0
  -22.1281  -36.2665   18.7284 C   0  0  0  0  0  0  0  0  0  0  0  0
  -24.8635  -29.1527   20.3986 C   0  0  0  0  0  0  0  0  0  0  0  0
  -22.6133  -34.9982   18.3563 C   0  0  0  0  0  0  0  0  0  0  0  0
  -25.9918  -29.4683   21.1690 C   0  0  0  0  0  0  0  0  0  0  0  0
  -27.9842   -7.9881   18.2077 C   0  0  0  0  0  0  0  0  0  0  0  0
  -27.2220  -27.6774   20.0783 C   0  0  0  0  0  0  0  0  0  0  0  0
  -29.5550   -6.2424   18.1225 C   0  0  0  0  0  0  0  0  0  0  0  0
  -32.1680   -5.3504   18.5214 C   0  0  0  0  0  0  0  0  0  0  0  0
  -29.8080   -5.2020   19.0165 C   0  0  0  0  0  0  0  0  0  0  0  0
  -27.1328  -12.0360   19.0952 C   0  0  0  0  0  0  0  0  0  0  0  0
  -28.3621  -19.2257   22.5819 C   0  0  0  0  0  0  0  0  0  0  0  0
  -26.2114  -13.8967   19.8189 C   0  0  0  0  0  0  0  0  0  0  0  0
  -28.5230  -21.3582   23.3522 C   0  0  0  0  0  0  0  0  0  0  0  0
  -24.9202  -11.8341   20.3908 C   0  0  0  0  0  0  0  0  0  0  0  0
  -24.3457  -32.2800   20.1626 C   0  0  0  0  0  0  0  0  0  0  0  0
  -24.4120  -32.1409   23.4027 C   0  0  0  0  0  0  0  0  0  0  0  0
  -25.4560  -30.5080   26.2118 C   0  0  0  0  0  0  0  0  0  0  0  0
  -29.4793  -18.3532   20.4994 C   0  0  0  0  0  0  0  0  0  0  0  0
  -22.8713  -37.1454   19.7030 C   0  0  0  0  0  0  0  0  0  0  0  0
  -23.5795  -29.9148   20.5805 C   0  0  0  0  0  0  0  0  0  0  0  0
  -25.9773  -30.5896   22.1743 C   0  0  0  0  0  0  0  0  0  0  0  0
  -23.8964  -36.3902   20.5450 C   0  0  0  0  0  0  0  0  0  0  0  0
  -29.5051  -16.7973   17.2970 C   0  0  0  0  0  0  0  0  0  0  0  0
  -24.7370  -35.4708   19.6647 C   0  0  0  0  0  0  0  0  0  0  0  0
  -28.7989  -15.4610   17.5374 C   0  0  0  0  0  0  0  0  0  0  0  0
  -30.3735  -17.2020   18.4868 C   0  0  0  0  0  0  0  0  0  0  0  0
  -28.9781  -15.8756   20.0240 C   0  0  0  0  0  0  0  0  0  0  0  0
  -23.8633  -34.4142   18.9780 C   0  0  1  0  0  0  0  0  0  0  0  0
  -23.7895  -31.3084   21.1647 C   0  0  1  0  0  0  0  0  0  0  0  0
  -28.0407  -15.4578   18.8793 C   0  0  2  0  0  0  0  0  0  0  0  0
  -25.6622  -29.9779   28.6559 C   0  0  0  0  0  0  0  0  0  0  0  0
  -28.5774  -26.1831   26.3925 C   0  0  0  0  0  0  0  0  0  0  0  0
  -26.7735  -26.5804   24.7045 C   0  0  0  0  0  0  0  0  0  0  0  0
  -26.5306  -34.3355   23.3288 C   0  0  0  0  0  0  0  0  0  0  0  0
  -27.0947  -33.7743   25.7027 C   0  0  0  0  0  0  0  0  0  0  0  0
  -24.8134  -34.6033   25.1272 C   0  0  0  0  0  0  0  0  0  0  0  0
  -23.0687  -28.7597   26.1527 C   0  0  0  0  0  0  0  0  0  0  0  0
  -29.0698  -22.7464   23.1938 C   0  0  0  0  0  0  0  0  0  0  0  0
  -29.0255  -25.6088   23.9876 C   0  0  0  0  0  0  0  0  0  0  0  0
  -29.7115  -25.1642   21.5944 C   0  0  0  0  0  0  0  0  0  0  0  0
  -28.2374  -25.5950   19.5412 C   0  0  0  0  0  0  0  0  0  1  0  0
  -25.4867  -32.2605   24.4562 C   0  0  1  0  0  0  0  0  0  0  0  0
  -24.7157  -30.0965   27.4715 C   0  0  2  0  0  0  0  0  0  0  0  0
  -27.9476  -25.6800   25.0897 C   0  0  0  0  0  0  0  0  0  0  0  0
  -28.5560  -25.1191   22.6063 C   0  0  1  0  0  0  0  0  0  0  0  0
  -29.3682  -24.7702   20.1506 C   0  0  1  0  0  0  0  0  0  0  0  0
  -25.9825  -33.7235   24.6335 C   0  0  0  0  0  0  0  0  0  0  0  0
  -27.7383  -21.1400   24.4245 N   0  0  0  0  0  0  0  0  0  0  0  0
  -27.9647  -13.0001   18.6920 N   0  0  0  0  0  0  0  0  0  0  0  0
  -28.8700  -20.4634   22.4075 N   0  0  0  0  0  0  0  0  0  0  0  0
  -27.3771  -14.1198   19.1470 N   0  0  0  0  0  0  0  0  0  0  0  0
  -24.7002  -31.3093   22.3113 N   0  0  0  0  0  0  0  0  0  0  0  0
  -29.5873  -17.1805   19.7223 N   0  0  0  0  0  0  0  0  0  0  0  0
  -25.4920  -14.9118   20.3426 N   0  0  0  0  0  0  0  0  0  0  0  0
  -24.8823  -10.4374   20.2811 N   0  0  0  0  0  0  0  0  0  0  0  0
  -28.6798  -18.2213   21.6342 N   0  0  0  0  0  0  0  0  0  0  0  0
  -23.5212  -33.3592   19.9077 N   0  0  0  0  0  0  0  0  0  0  0  0
  -24.9374  -31.6647   25.6693 N   0  0  0  0  0  0  0  0  0  0  0  0
  -24.0453  -28.7806   27.2720 N   0  3  0  0  0  0  0  0  0  0  0  0
  -28.0536  -23.7219   22.7203 N   0  3  0  0  0  0  0  0  0  0  0  0
  -23.9874  -12.4290   20.9820 O   0  0  0  0  0  0  0  0  0  0  0  0
  -25.4425  -32.0671   19.6591 O   0  0  0  0  0  0  0  0  0  0  0  0
  -23.3530  -32.7568   23.5466 O   0  0  0  0  0  0  0  0  0  0  0  0
  -26.4024  -29.8693   25.7567 O   0  0  0  0  0  0  0  0  0  0  0  0
  -30.0317  -19.4051   20.1670 O   0  0  0  0  0  0  0  0  0  0  0  0
  -30.5437  -24.9574   19.3535 O   0  0  0  0  0  0  0  0  0  0  0  0
  -28.2584   -6.6857   17.9227 O   0  0  0  0  0  0  0  0  0  0  0  0
  -28.3780  -26.9612   19.9211 O   0  0  0  0  0  0  0  0  0  1  0  0
  -33.4225   -4.9212   18.7118 F   0  0  0  0  0  0  0  0  0  0  0  0
  -28.7998   -4.6263   19.6858 F   0  0  0  0  0  0  0  0  0  0  0  0
  1  2  1  0  0  0  0
  1  5  2  0  0  0  0
  2  6  2  0  0  0  0
  3  8  2  0  0  0  0
  3 17  1  0  0  0  0
  4  9  1  0  0  0  0
  4 17  2  0  0  0  0
  5 19  1  0  0  0  0
  6 21  1  0  0  0  0
  7 10  2  0  0  0  0
  7 20  1  0  0  0  0
  8 23  1  0  0  0  0
  9 23  2  0  0  0  0
 10 24  1  0  0  0  0
 11 12  2  0  0  0  0
 11 25  1  0  0  0  0
 12 26  1  0  0  0  0
 13 16  1  0  0  0  0
 13 29  2  0  0  0  0
 14 22  1  0  0  0  0
 14 24  2  0  0  0  0
 15 26  2  0  0  0  0
 15 27  1  0  0  0  0
 16 66  2  0  0  0  0
 17 28  1  0  0  0  0
 18 28  1  0  0  0  0
 18 30  2  0  0  0  0
 18 32  1  0  0  0  0
 19 21  2  0  0  0  0
 19 37  1  0  0  0  0
 20 22  2  0  0  0  0
 20 38  1  0  0  0  0
 21 46  1  0  0  0  0
 22 39  1  0  0  0  0
 23 85  1  0  0  0  0
 24 86  1  0  0  0  0
 25 27  2  0  0  0  0
 25 85  1  0  0  0  0
 26 87  1  0  0  0  0
 27 88  1  0  0  0  0
 28 67  2  0  0  0  0
 29 68  1  0  0  0  0
 29 74  1  0  0  0  0
 30 69  1  0  0  0  0
 30 72  1  0  0  0  0
 31 56  1  0  0  0  0
 31 66  1  0  0  0  0
 31 68  2  0  0  0  0
 32 73  1  0  0  0  0
 32 79  2  0  0  0  0
 33 47  1  0  0  0  0
 33 75  1  0  0  0  0
 33 80  2  0  0  0  0
 34 60  1  0  0  0  0
 34 70  1  0  0  0  0
 34 81  2  0  0  0  0
 35 61  1  0  0  0  0
 35 76  1  0  0  0  0
 35 82  2  0  0  0  0
 36 71  1  0  0  0  0
 36 74  1  0  0  0  0
 36 83  2  0  0  0  0
 37 40  1  0  0  0  0
 38 47  1  0  0  0  0
 39 70  1  0  0  0  0
 40 42  1  0  0  0  0
 41 43  1  0  0  0  0
 41 44  1  0  0  0  0
 42 46  1  0  0  0  0
 43 48  1  0  0  0  0
 44 71  1  0  0  0  0
 45 48  1  0  0  0  0
 45 71  1  0  0  0  0
 46 75  1  0  0  0  0
 47 70  1  0  0  0  0
 48 69  1  0  0  0  0
 49 61  1  0  0  0  0
 50 62  1  0  0  0  0
 51 62  1  0  0  0  0
 52 65  1  0  0  0  0
 53 65  1  0  0  0  0
 54 65  1  0  0  0  0
 55 77  1  0  0  0  0
 56 78  1  0  0  0  0
 57 62  1  0  0  0  0
 57 63  1  0  0  0  0
 58 63  1  0  0  0  0
 58 64  1  0  0  0  0
 59 64  1  0  0  0  0
 59 86  1  0  0  0  0
 60 65  1  0  0  0  0
 60 76  1  0  0  0  0
 61 77  1  0  0  0  0
 63 78  1  0  0  0  0
 64 84  1  0  0  0  0
 67 69  1  0  0  0  0
M  CHG  2  77   1  78   1
M  ISO  4  36 100  59 101  74 100  86 101
M  END
> <Batch ID>
0199

> <Smiles>
CNC(C)C(=O)NC(C(=O)N1Cc2cc([101O:1][101CH2:1]C(O)CC(CC(C)C)NCc3nccc([100NH:0][100C:0](=O)N4CCCC(n5nc(-c6ccc(Oc7ccc(F)cc7F)cc6)c(C(N)=O)c5N)C4)n3)ccc2CC1C(=O)NC1CCCc2ccccc21)C(C)(C)C

> <Shape>
0.224

> <Color>
0.116

> <Negative vol penalty>
0.000

$$$$

  -OEChem-04052305473D

 82 90  0     1  0  0  0  0  0999 V2000
  -25.3852  -11.2307   19.7588 C   0  0  0  0  0  0  0  0  0  0  0  0
  -25.0460  -12.4471   20.3425 C   0  0  0  0  0  0  0  0  0  0  0  0
  -25.2260  -27.7760   19.3230 C   0  0  0  0  0  0  0  0  0  0  0  0
  -25.7240  -25.7978   20.6175 C   0  0  0  0  0  0  0  0  0  0  0  0
  -26.7009  -10.9906   19.3651 C   0  0  0  0  0  0  0  0  0  0  0  0
  -26.0227  -13.4238   20.5337 C   0  0  0  0  0  0  0  0  0  0  0  0
  -24.4466  -18.0400   19.1727 C   0  0  0  0  0  0  0  0  0  0  0  0
  -26.5825  -28.0997   19.2957 C   0  0  0  0  0  0  0  0  0  0  0  0
  -27.0805  -26.1214   20.5901 C   0  0  0  0  0  0  0  0  0  0  0  0
  -23.6090  -18.7141   20.0602 C   0  0  0  0  0  0  0  0  0  0  0  0
  -29.1686  -28.2425   22.1938 C   0  0  0  0  0  0  0  0  0  0  0  0
  -29.8839  -28.1380   23.3867 C   0  0  0  0  0  0  0  0  0  0  0  0
  -25.4921  -19.9955   20.8547 C   0  0  0  0  0  0  0  0  0  0  0  0
  -31.3509  -26.5130   22.3645 C   0  0  0  0  0  0  0  0  0  0  0  0
  -21.2348  -21.1137   27.5226 C   0  0  0  0  0  0  0  0  0  0  0  0
  -24.7967  -26.6251   19.9840 C   0  0  0  0  0  0  0  0  0  0  0  0
  -22.6899  -25.5041   19.0829 C   0  0  0  0  0  0  0  0  0  0  0  0
  -27.6923  -11.9685   19.5427 C   0  0  0  0  0  0  0  0  0  0  0  0
  -25.8176  -18.3313   19.1272 C   0  0  0  0  0  0  0  0  0  0  0  0
  -27.3532  -13.1960   20.1431 C   0  0  0  0  0  0  0  0  0  0  0  0
  -26.3445  -19.3254   19.9640 C   0  0  0  0  0  0  0  0  0  0  0  0
  -20.3695  -22.1875   27.5733 C   0  0  0  0  0  0  0  0  0  0  0  0
  -27.5098  -27.2723   19.9292 C   0  0  0  0  0  0  0  0  0  0  0  0
  -24.1322  -19.6900   20.9034 C   0  0  0  0  0  0  0  0  0  0  0  0
  -29.5443  -27.4822   21.0863 C   0  0  0  0  0  0  0  0  0  0  0  0
  -30.9751  -27.2733   23.4720 C   0  0  0  0  0  0  0  0  0  0  0  0
  -30.6355  -26.6175   21.1717 C   0  0  0  0  0  0  0  0  0  0  0  0
  -23.3955  -26.2906   20.0130 C   0  0  0  0  0  0  0  0  0  0  0  0
  -20.3419  -22.9856   26.4479 C   0  0  0  0  0  0  0  0  0  0  0  0
  -21.4003  -25.4876   19.5555 C   0  0  0  0  0  0  0  0  0  0  0  0
  -21.8993  -21.6837   25.4249 C   0  0  0  0  0  0  0  0  0  0  0  0
  -23.1581  -24.8470   17.8977 C   0  0  0  0  0  0  0  0  0  0  0  0
  -28.4804  -16.6832   19.6720 C   0  0  0  0  0  0  0  0  0  0  0  0
  -29.9109  -19.3834   18.5833 C   0  0  0  0  0  0  0  0  0  0  0  0
  -29.7313  -22.7527   18.0716 C   0  0  0  0  0  0  0  0  0  0  0  0
  -19.0489  -26.2083   25.0146 C   0  0  0  0  0  0  0  0  0  0  0  0
  -29.1105  -11.6451   19.1444 C   0  0  0  0  0  0  0  0  0  0  0  0
  -26.7030  -17.6139   18.1454 C   0  0  0  0  0  0  0  0  0  0  0  0
  -27.8057  -19.6898   19.9397 C   0  0  0  0  0  0  0  0  0  0  0  0
  -30.0092  -12.8747   19.0398 C   0  0  0  0  0  0  0  0  0  0  0  0
  -18.3102  -28.1109   22.0972 C   0  0  0  0  0  0  0  0  0  0  0  0
  -29.8220  -13.7776   20.2549 C   0  0  0  0  0  0  0  0  0  0  0  0
  -19.4660  -27.7891   21.1483 C   0  0  0  0  0  0  0  0  0  0  0  0
  -18.7766  -28.1870   23.5493 C   0  0  0  0  0  0  0  0  0  0  0  0
  -20.6682  -26.6794   23.0776 C   0  0  0  0  0  0  0  0  0  0  0  0
  -28.3794  -14.2898   20.3446 C   0  0  1  0  0  0  0  0  0  0  0  0
  -28.1750  -17.6299   18.5459 C   0  0  1  0  0  0  0  0  0  0  0  0
  -20.2369  -26.5370   21.6079 C   0  0  2  0  0  0  0  0  0  0  0  0
  -30.4240  -25.0254   17.2638 C   0  0  0  0  0  0  0  0  0  0  0  0
  -31.5636  -19.3922   21.1482 C   0  0  0  0  0  0  0  0  0  0  0  0
  -32.1579  -21.7777   20.6745 C   0  0  0  0  0  0  0  0  0  0  0  0
  -32.8416  -19.9839   19.0816 C   0  0  0  0  0  0  0  0  0  0  0  0
  -28.4314  -22.3428   15.4447 C   0  0  0  0  0  0  0  0  0  0  0  0
  -19.4441  -24.1778   26.3857 C   0  0  0  0  0  0  0  0  0  0  0  0
  -22.6848  -22.2372   23.1222 C   0  0  0  0  0  0  0  0  0  0  0  0
  -23.6742  -21.6890   22.1076 C   0  0  0  0  0  0  0  0  0  1  0  0
  -30.4091  -20.6595   19.2176 C   0  0  1  0  0  0  0  0  0  0  0  0
  -30.0567  -23.6062   16.8591 C   0  0  2  0  0  0  0  0  0  0  0  0
  -31.7158  -20.4453   20.0325 C   0  0  0  0  0  0  0  0  0  0  0  0
  -22.0173  -20.8310   26.4605 N   0  0  0  0  0  0  0  0  0  0  0  0
  -22.6187  -26.7413   21.0017 N   0  0  0  0  0  0  0  0  0  0  0  0
  -21.0963  -22.7623   25.3518 N   0  0  0  0  0  0  0  0  0  0  0  0
  -21.4115  -26.2365   20.6953 N   0  0  0  0  0  0  0  0  0  0  0  0
  -28.6318  -18.9559   18.9669 N   0  0  0  0  0  0  0  0  0  0  0  0
  -19.4990  -26.9685   23.9226 N   0  0  0  0  0  0  0  0  0  0  0  0
  -19.5791  -22.4336   28.7022 N   0  0  0  0  0  0  0  0  0  0  0  0
  -20.2693  -24.9059   19.1030 N   0  0  0  0  0  0  0  0  0  0  0  0
  -24.5127  -24.9667   17.5583 N   0  0  0  0  0  0  0  0  0  0  0  0
  -22.6882  -21.4238   24.3165 N   0  0  0  0  0  0  0  0  0  0  0  0
  -28.1653  -15.3655   19.4004 N   0  0  0  0  0  0  0  0  0  0  0  0
  -30.5315  -21.6317   18.1368 N   0  0  0  0  0  0  0  0  0  0  0  0
  -19.7867  -25.0653   25.2968 N   0  0  0  0  0  0  0  0  0  0  0  0
  -28.8855  -23.6678   15.9397 N   0  3  0  0  0  0  0  0  0  0  0  0
  -22.3945  -24.1872   17.1527 O   0  0  0  0  0  0  0  0  0  0  0  0
  -28.9673  -17.1160   20.7099 O   0  0  0  0  0  0  0  0  0  0  0  0
  -30.6271  -18.7916   17.7719 O   0  0  0  0  0  0  0  0  0  0  0  0
  -28.8574  -23.0526   18.8821 O   0  0  0  0  0  0  0  0  0  0  0  0
  -18.0593  -26.5220   25.6850 O   0  0  0  0  0  0  0  0  0  0  0  0
  -28.8336  -27.5877   19.9025 O   0  0  0  0  0  0  0  0  0  0  0  0
  -23.3169  -20.3491   21.7711 O   0  0  0  0  0  0  0  0  0  1  0  0
  -31.6629  -27.1742   24.6171 F   0  0  0  0  0  0  0  0  0  0  0  0
  -31.0019  -25.8855   20.1107 F   0  0  0  0  0  0  0  0  0  0  0  0
  1  2  1  0  0  0  0
  1  5  2  0  0  0  0
  2  6  2  0  0  0  0
  3  8  2  0  0  0  0
  3 16  1  0  0  0  0
  4  9  1  0  0  0  0
  4 16  2  0  0  0  0
  5 18  1  0  0  0  0
  6 20  1  0  0  0  0
  7 10  2  0  0  0  0
  7 19  1  0  0  0  0
  8 23  1  0  0  0  0
  9 23  2  0  0  0  0
 10 24  1  0  0  0  0
 11 12  2  0  0  0  0
 11 25  1  0  0  0  0
 12 26  1  0  0  0  0
 13 21  1  0  0  0  0
 13 24  2  0  0  0  0
 14 26  2  0  0  0  0
 14 27  1  0  0  0  0
 15 22  1  0  0  0  0
 15 60  2  0  0  0  0
 16 28  1  0  0  0  0
 17 28  1  0  0  0  0
 17 30  2  0  0  0  0
 17 32  1  0  0  0  0
 18 20  2  0  0  0  0
 18 37  1  0  0  0  0
 19 21  2  0  0  0  0
 19 38  1  0  0  0  0
 20 46  1  0  0  0  0
 21 39  1  0  0  0  0
 22 29  2  0  0  0  0
 22 66  1  0  0  0  0
 23 79  1  0  0  0  0
 24 80  1  0  0  0  0
 25 27  2  0  0  0  0
 25 79  1  0  0  0  0
 26 81  1  0  0  0  0
 27 82  1  0  0  0  0
 28 61  2  0  0  0  0
 29 54  1  0  0  0  0
 29 62  1  0  0  0  0
 30 63  1  0  0  0  0
 30 67  1  0  0  0  0
 31 60  1  0  0  0  0
 31 62  2  0  0  0  0
 31 69  1  0  0  0  0
 32 68  1  0  0  0  0
 32 74  2  0  0  0  0
 33 47  1  0  0  0  0
 33 70  1  0  0  0  0
 33 75  2  0  0  0  0
 34 57  1  0  0  0  0
 34 64  1  0  0  0  0
 34 76  2  0  0  0  0
 35 58  1  0  0  0  0
 35 71  1  0  0  0  0
 35 77  2  0  0  0  0
 36 65  1  0  0  0  0
 36 72  1  0  0  0  0
 36 78  2  0  0  0  0
 37 40  1  0  0  0  0
 38 47  1  0  0  0  0
 39 64  1  0  0  0  0
 40 42  1  0  0  0  0
 41 43  1  0  0  0  0
 41 44  1  0  0  0  0
 42 46  1  0  0  0  0
 43 48  1  0  0  0  0
 44 65  1  0  0  0  0
 45 48  1  0  0  0  0
 45 65  1  0  0  0  0
 46 70  1  0  0  0  0
 47 64  1  0  0  0  0
 48 63  1  0  0  0  0
 49 58  1  0  0  0  0
 50 59  1  0  0  0  0
 51 59  1  0  0  0  0
 52 59  1  0  0  0  0
 53 73  1  0  0  0  0
 54 72  1  0  0  0  0
 55 56  1  0  0  0  0
 55 69  1  0  0  0  0
 56 80  1  0  0  0  0
 57 59  1  0  0  0  0
 57 71  1  0  0  0  0
 58 73  1  0  0  0  0
 61 63  1  0  0  0  0
M  CHG  1  73   1
M  ISO  4  36 100  56 101  72 100  80 101
M  END
> <Batch ID>
0199

> <Smiles>
CNC(C)C(=O)NC(C(=O)N1Cc2cc([101O:1][101CH2:1]CNc3ncc(N)c(C[100NH:0][100C:0](=O)N4CCCC(n5nc(-c6ccc(Oc7ccc(F)cc7F)cc6)c(C(N)=O)c5N)C4)n3)ccc2CC1C(=O)NC1CCCc2ccccc21)C(C)(C)C

> <Shape>
0.206

> <Color>
0.064

> <Negative vol penalty>
0.000

$$$$
