0
                    3D
 Structure written by MMmdl.
142150  0  0  1  0            999 V2000
  -30.3613  -15.5496   20.3275 C   0  0  0  0  0  0
  -30.4362  -12.9788   19.5686 C   0  0  0  0  0  0
  -29.5603  -12.6267   18.3327 C   0  0  0  0  0  0
  -28.1189  -12.2988   18.7558 C   0  0  0  0  0  0
  -27.5938  -13.3041   19.8080 C   0  0  2  0  0  0
  -28.5934  -13.6026   20.9443 C   0  0  0  0  0  0
  -25.2313  -13.8293   20.5754 C   0  0  0  0  0  0
  -24.1699  -13.0444   20.9254 C   0  0  0  0  0  0
  -24.6390  -11.6951   20.8731 C   0  0  0  0  0  0
  -23.9098  -10.4299   21.0385 C   0  0  0  0  0  0
  -24.3641   -9.4218   21.9171 C   0  0  0  0  0  0
  -23.6310   -8.2253   22.0748 C   0  0  0  0  0  0
  -22.4291   -8.0283   21.3542 C   0  0  0  0  0  0
  -21.9930   -9.0254   20.4641 C   0  0  0  0  0  0
  -22.7262  -10.2132   20.3044 C   0  0  0  0  0  0
  -21.6861   -6.0740   22.5279 C   0  0  0  0  0  0
  -21.4017   -6.5640   23.8211 C   0  0  0  0  0  0
  -21.3662   -5.6792   24.9171 C   0  0  0  0  0  0
  -21.6046   -4.3055   24.7223 C   0  0  0  0  0  0
  -21.8818   -3.8149   23.4343 C   0  0  0  0  0  0
  -21.9194   -4.6968   22.3399 C   0  0  0  0  0  0
  -22.7720  -13.5178   21.1917 C   0  0  0  0  0  0
  -22.1661   -4.2152   21.0978 F   0  0  0  0  0  0
  -21.5632   -3.4538   25.7734 F   0  0  0  0  0  0
  -29.8156  -14.1425   20.3281 N   0  0  0  0  0  0
  -26.2729  -12.9607   20.3133 N   0  0  0  0  0  0
  -25.9325  -11.6685   20.5636 N   0  0  0  0  0  0
  -22.0396  -12.8152   22.0477 N   0  0  0  0  0  0
  -25.3964  -15.2036   20.4262 N   0  0  0  0  0  0
  -31.5832  -15.5548   20.1018 O   0  0  0  0  0  0
  -21.6651   -6.8883   21.4240 O   0  0  0  0  0  0
  -22.3389  -14.5478   20.6764 O   0  0  0  0  0  0
  -24.6800  -31.8056   23.1576 C   0  0  0  0  0  0
  -25.9401  -32.4498   23.8105 C   0  0  1  0  0  0
  -27.2231  -26.7443   20.2042 C   0  0  0  0  0  0
  -25.6002  -33.8319   24.2000 N   0  0  0  0  0  0
  -23.5046  -30.4109   21.5102 C   0  0  2  0  0  0
  -24.9626  -28.7652   20.1183 C   0  0  0  0  0  0
  -22.7755  -29.4345   22.4723 C   0  0  0  0  0  0
  -18.0337  -28.1421   22.8462 C   0  0  0  0  0  0
  -24.1499  -36.7163   23.2671 C   0  0  0  0  0  0
  -26.0843  -30.5496   21.4195 C   0  0  0  0  0  0
  -26.1499  -29.1188   20.7711 C   0  0  0  0  0  0
  -27.2652  -28.1325   20.7927 C   0  0  0  0  0  0
  -26.0072  -26.6022   19.4877 C   0  0  0  0  0  0
  -24.9270  -27.5295   19.4552 C   0  0  0  0  0  0
  -23.7577  -29.7155   20.1428 C   0  0  0  0  0  0
  -25.4160  -36.2914   24.0288 C   0  0  1  0  0  0
  -20.5971  -28.3777   23.1147 C   0  0  2  0  0  0
  -20.6804  -26.9441   22.5401 C   0  0  0  0  0  0
  -19.5775  -26.6373   21.5217 C   0  0  0  0  0  0
  -18.1960  -26.7949   22.1624 C   0  0  0  0  0  0
  -19.1603  -28.8924   23.2786 C   0  0  0  0  0  0
  -18.9508  -30.1509   23.8833 C   0  0  0  0  0  0
  -17.6499  -30.6605   24.0552 C   0  0  0  0  0  0
  -25.9113  -34.9295   23.4971 C   0  0  0  0  0  0
  -16.5389  -29.9088   23.6351 C   0  0  0  0  0  0
  -16.7318  -28.6507   23.0372 C   0  0  0  0  0  0
  -26.4595  -31.6514   25.0703 C   0  0  0  0  0  0
  -25.3665  -31.3806   26.1319 C   0  0  0  0  0  0
  -27.0536  -30.2864   24.6571 C   0  0  0  0  0  0
  -27.6049  -32.4365   25.7522 C   0  0  0  0  0  0
  -27.5515  -37.1823   24.8524 C   0  0  0  0  0  0
  -21.4405  -29.3036   22.3478 N   0  0  0  0  0  0
  -26.4322  -37.3624   23.9316 N   0  0  0  0  0  0
  -24.7793  -30.9537   22.0817 N   0  0  0  0  0  0
  -23.4216  -28.7929   23.3040 O   0  0  0  0  0  0
  -28.1587  -25.5135   20.2574 O   0  0  0  0  0  0
  -26.5725  -34.8855   22.4570 O   0  0  0  0  0  0
  -23.5825  -32.1113   23.6550 O   0  0  0  0  0  0
  -29.7989  -21.3508   20.1417 C   0  0  0  0  0  0
  -27.6723  -20.8654   20.5434 C   0  0  0  0  0  0
  -30.1323  -19.8413   20.1690 C   0  0  0  0  0  0
  -27.9958  -19.3891   20.5763 C   0  0  0  0  0  0
  -28.5001  -22.0776   20.3268 C   0  0  0  0  0  0
  -29.2585  -18.6438   20.3957 C   0  0  0  0  0  0
  -27.7586  -23.7496   20.3121 C   0  0  0  0  0  0
  -26.5342  -23.6171   20.3758 O   0  0  0  0  0  0
  -29.3512  -17.0399   20.4697 O   0  0  0  0  0  0
  -31.4446  -13.2272   19.2343 H   0  0  0  0  0  0
  -30.5505  -12.1113   20.2209 H   0  0  0  0  0  0
  -29.9922  -11.7869   17.7866 H   0  0  0  0  0  0
  -29.5539  -13.4721   17.6430 H   0  0  0  0  0  0
  -28.1197  -11.2944   19.1806 H   0  0  0  0  0  0
  -27.4594  -12.2658   17.8877 H   0  0  0  0  0  0
  -27.4732  -14.2361   19.2542 H   0  0  0  0  0  0
  -28.7984  -12.7131   21.5418 H   0  0  0  0  0  0
  -28.1803  -14.3493   21.6241 H   0  0  0  0  0  0
  -25.2779   -9.5702   22.4754 H   0  0  0  0  0  0
  -24.0018   -7.4649   22.7474 H   0  0  0  0  0  0
  -21.0858   -8.8769   19.8950 H   0  0  0  0  0  0
  -22.3706  -10.9669   19.6156 H   0  0  0  0  0  0
  -21.2006   -7.6148   23.9713 H   0  0  0  0  0  0
  -21.1487   -6.0523   25.9073 H   0  0  0  0  0  0
  -22.0596   -2.7611   23.2841 H   0  0  0  0  0  0
  -22.4038  -11.9825   22.4867 H   0  0  0  0  0  0
  -21.1003  -13.1146   22.2687 H   0  0  0  0  0  0
  -24.6363  -15.8609   20.5614 H   0  0  0  0  0  0
  -26.2566  -15.6461   20.1275 H   0  0  0  0  0  0
  -26.7481  -32.4983   23.0816 H   0  0  0  0  0  0
  -25.0120  -33.9377   25.0132 H   0  0  0  0  0  0
  -22.8284  -31.2480   21.3252 H   0  0  0  0  0  0
  -23.3671  -35.9613   23.3580 H   0  0  0  0  0  0
  -24.3476  -36.8542   22.2027 H   0  0  0  0  0  0
  -23.7430  -37.6503   23.6558 H   0  0  0  0  0  0
  -26.2842  -31.2753   20.6299 H   0  0  0  0  0  0
  -26.9371  -30.6168   22.0824 H   0  0  0  0  0  0
  -28.1555  -28.4045   21.3413 H   0  0  0  0  0  0
  -25.8463  -25.6721   18.9625 H   0  0  0  0  0  0
  -24.0328  -27.2515   18.9144 H   0  0  0  0  0  0
  -23.9328  -30.4790   19.3841 H   0  0  0  0  0  0
  -22.8632  -29.1817   19.8168 H   0  0  0  0  0  0
  -25.1403  -36.1730   25.0794 H   0  0  0  0  0  0
  -21.0058  -28.3393   24.1270 H   0  0  0  0  0  0
  -20.5668  -26.2403   23.3659 H   0  0  0  0  0  0
  -21.6667  -26.7387   22.1216 H   0  0  0  0  0  0
  -19.6931  -25.6265   21.1293 H   0  0  0  0  0  0
  -19.6714  -27.3147   20.6720 H   0  0  0  0  0  0
  -17.4227  -26.6695   21.4029 H   0  0  0  0  0  0
  -18.0349  -26.0107   22.9035 H   0  0  0  0  0  0
  -19.7980  -30.7344   24.2173 H   0  0  0  0  0  0
  -17.5047  -31.6280   24.5161 H   0  0  0  0  0  0
  -15.5386  -30.2970   23.7711 H   0  0  0  0  0  0
  -15.8716  -28.0804   22.7128 H   0  0  0  0  0  0
  -24.5917  -30.7078   25.7620 H   0  0  0  0  0  0
  -24.8776  -32.3014   26.4507 H   0  0  0  0  0  0
  -25.7857  -30.9147   27.0244 H   0  0  0  0  0  0
  -26.3262  -29.6490   24.1537 H   0  0  0  0  0  0
  -27.3965  -29.7289   25.5293 H   0  0  0  0  0  0
  -27.9234  -30.4017   24.0100 H   0  0  0  0  0  0
  -27.2590  -33.3714   26.1941 H   0  0  0  0  0  0
  -28.3945  -32.6854   25.0418 H   0  0  0  0  0  0
  -28.0635  -31.8609   26.5571 H   0  0  0  0  0  0
  -28.2766  -37.9858   24.7169 H   0  0  0  0  0  0
  -28.0762  -36.2393   24.6916 H   0  0  0  0  0  0
  -27.2151  -37.2142   25.8903 H   0  0  0  0  0  0
  -20.9702  -29.8713   21.6566 H   0  0  0  0  0  0
  -26.0176  -38.2739   24.1060 H   0  0  0  0  0  0
  -30.6432  -21.9961   19.9422 H   0  0  0  0  0  0
  -26.6247  -21.0755   20.7077 H   0  0  0  0  0  0
  -31.1728  -19.6074   19.9917 H   0  0  0  0  0  0
  -27.1398  -18.7563   20.7649 H   0  0  0  0  0  0
  1 25  1  0  0  0
  1 30  2  0  0  0
  1 79  1  0  0  0
  2  3  1  0  0  0
  2 25  1  0  0  0
  2 80  1  0  0  0
  2 81  1  0  0  0
  3  4  1  0  0  0
  3 82  1  0  0  0
  3 83  1  0  0  0
  4  5  1  0  0  0
  4 84  1  0  0  0
  4 85  1  0  0  0
  5  6  1  0  0  0
  5 26  1  0  0  0
  5 86  1  0  0  0
  6 25  1  0  0  0
  6 87  1  0  0  0
  6 88  1  0  0  0
  7  8  2  0  0  0
  7 26  1  0  0  0
  7 29  1  0  0  0
  8  9  1  0  0  0
  8 22  1  0  0  0
  9 10  1  0  0  0
  9 27  2  0  0  0
 10 11  2  0  0  0
 10 15  1  0  0  0
 11 12  1  0  0  0
 11 89  1  0  0  0
 12 13  2  0  0  0
 12 90  1  0  0  0
 13 14  1  0  0  0
 13 31  1  0  0  0
 14 15  2  0  0  0
 14 91  1  0  0  0
 15 92  1  0  0  0
 16 17  2  0  0  0
 16 21  1  0  0  0
 16 31  1  0  0  0
 17 18  1  0  0  0
 17 93  1  0  0  0
 18 19  2  0  0  0
 18 94  1  0  0  0
 19 20  1  0  0  0
 19 24  1  0  0  0
 20 21  2  0  0  0
 20 95  1  0  0  0
 21 23  1  0  0  0
 22 28  1  0  0  0
 22 32  2  0  0  0
 26 27  1  0  0  0
 28 96  1  0  0  0
 28 97  1  0  0  0
 29 98  1  0  0  0
 29 99  1  0  0  0
 33 34  1  0  0  0
 33 66  1  0  0  0
 33 70  2  0  0  0
 34 36  1  0  0  0
 34 59  1  0  0  0
 34100  1  0  0  0
 35 44  2  0  0  0
 35 45  1  0  0  0
 35 68  1  0  0  0
 36 56  1  0  0  0
 36101  1  0  0  0
 37 39  1  0  0  0
 37 47  1  0  0  0
 37 66  1  0  0  0
 37102  1  0  0  0
 38 43  2  0  0  0
 38 46  1  0  0  0
 38 47  1  0  0  0
 39 64  1  0  0  0
 39 67  2  0  0  0
 40 52  1  0  0  0
 40 53  2  0  0  0
 40 58  1  0  0  0
 41103  1  0  0  0
 41104  1  0  0  0
 41105  1  0  0  0
 41 48  1  0  0  0
 42 43  1  0  0  0
 42 66  1  0  0  0
 42106  1  0  0  0
 42107  1  0  0  0
 43 44  1  0  0  0
 44108  1  0  0  0
 45 46  2  0  0  0
 45109  1  0  0  0
 46110  1  0  0  0
 47111  1  0  0  0
 47112  1  0  0  0
 48 56  1  0  0  0
 48 65  1  0  0  0
 48113  1  0  0  0
 49 50  1  0  0  0
 49 53  1  0  0  0
 49 64  1  0  0  0
 49114  1  0  0  0
 50 51  1  0  0  0
 50115  1  0  0  0
 50116  1  0  0  0
 51 52  1  0  0  0
 51117  1  0  0  0
 51118  1  0  0  0
 52119  1  0  0  0
 52120  1  0  0  0
 53 54  1  0  0  0
 54 55  2  0  0  0
 54121  1  0  0  0
 55 57  1  0  0  0
 55122  1  0  0  0
 56 69  2  0  0  0
 57 58  2  0  0  0
 57123  1  0  0  0
 58124  1  0  0  0
 59 60  1  0  0  0
 59 61  1  0  0  0
 59 62  1  0  0  0
 60125  1  0  0  0
 60126  1  0  0  0
 60127  1  0  0  0
 61128  1  0  0  0
 61129  1  0  0  0
 61130  1  0  0  0
 62131  1  0  0  0
 62132  1  0  0  0
 62133  1  0  0  0
 63 65  1  0  0  0
 63134  1  0  0  0
 63135  1  0  0  0
 63136  1  0  0  0
 64137  1  0  0  0
 65138  1  0  0  0
 68 77  1  0  0  0
 71 73  2  0  0  0
 71 75  1  0  0  0
 71139  1  0  0  0
 72 74  1  0  0  0
 72 75  2  0  0  0
 72140  1  0  0  0
 73 76  1  0  0  0
 73141  1  0  0  0
 74 76  2  0  0  0
 74142  1  0  0  0
 75 77  1  0  0  0
 76 79  1  0  0  0
 77 78  2  0  0  0
M  ISO  4   1 100  68 101  77 101  79 100
M  END
> <chiral flag>
0

> <version>
0

> <s_m_source_file>
/data/baiqing/PycharmProjects/Reinvent-master-3.2/result/LINK_invent/BTK/process_docking_weight1_custom_product_contain_oxygen_bond_distance_aromatic_linkinvent_7_9_3/rearranged_h_0000.sdf

> <i_m_source_file_index>
1

> <r_mmod_Potential_Energy-OPLS-2005>
2351.21508789062

> <r_mmod_Stretch_Energy-OPLS-2005>
1006.74468994141

> <r_mmod_Bend_Energy-OPLS-2005>
715.968872070312

> <r_mmod_Torsional_Energy-OPLS-2005>
163.790512084961

> <r_mmod_Improper_Torsional_Energy-OPLS-2005>
2.51732039451599

> <r_mmod_Van_der_Waal_Energy-OPLS-2005>
133.276153564453

> <r_mmod_Electrostatic_Energy-OPLS-2005>
-261.713928222656

> <r_mmod_Solvation_Energy-OPLS-2005>
-200.971557617188

> <b_mmod_Minimization_Converged-OPLS-2005>
0

> <r_mmod_RMS_Derivative-OPLS-2005>
0.721110701560974

$$$$
1
                    3D
 Structure written by MMmdl.
171178  0  0  1  0            999 V2000
  -30.7919  -14.3074   20.7349 C   0  0  0  0  0  0
  -30.4201  -12.2716   19.3891 C   0  0  0  0  0  0
  -29.4899  -12.5142   18.1869 C   0  0  0  0  0  0
  -28.0110  -12.3770   18.6030 C   0  0  0  0  0  0
  -27.6688  -13.1965   19.8748 C   0  0  2  0  0  0
  -28.7006  -12.9187   20.9874 C   0  0  0  0  0  0
  -25.2608  -13.8178   20.5622 C   0  0  0  0  0  0
  -24.1853  -13.0463   20.9207 C   0  0  0  0  0  0
  -24.6419  -11.6932   20.8790 C   0  0  0  0  0  0
  -23.9091  -10.4303   21.0474 C   0  0  0  0  0  0
  -24.3634   -9.4199   21.9233 C   0  0  0  0  0  0
  -23.6292   -8.2239   22.0775 C   0  0  0  0  0  0
  -22.4269   -8.0316   21.3563 C   0  0  0  0  0  0
  -21.9947   -9.0305   20.4658 C   0  0  0  0  0  0
  -22.7302  -10.2166   20.3086 C   0  0  0  0  0  0
  -21.6831   -6.0762   22.5304 C   0  0  0  0  0  0
  -21.4007   -6.5646   23.8245 C   0  0  0  0  0  0
  -21.3652   -5.6797   24.9209 C   0  0  0  0  0  0
  -21.6051   -4.3064   24.7258 C   0  0  0  0  0  0
  -21.8815   -3.8167   23.4367 C   0  0  0  0  0  0
  -21.9178   -4.6989   22.3427 C   0  0  0  0  0  0
  -22.7877  -13.5259   21.1865 C   0  0  0  0  0  0
  -22.1631   -4.2167   21.0995 F   0  0  0  0  0  0
  -21.5648   -3.4545   25.7763 F   0  0  0  0  0  0
  -30.0522  -13.2040   20.4627 N   0  0  0  0  0  0
  -26.3042  -12.9310   20.3303 N   0  0  0  0  0  0
  -25.9320  -11.6496   20.5758 N   0  0  0  0  0  0
  -22.0453  -12.8257   22.0390 N   0  0  0  0  0  0
  -25.4374  -15.1887   20.3962 N   0  0  0  0  0  0
  -31.7630  -14.6690   20.0660 O   0  0  0  0  0  0
  -21.6618   -6.8930   21.4270 O   0  0  0  0  0  0
  -22.3572  -14.5573   20.6721 O   0  0  0  0  0  0
  -24.6123  -31.8711   23.2112 C   0  0  0  0  0  0
  -25.9021  -32.4841   23.8410 C   0  0  1  0  0  0
  -27.2376  -27.4615   20.1063 C   0  0  0  0  0  0
  -25.5879  -33.8637   24.2357 N   0  0  0  0  0  0
  -23.3991  -30.4933   21.5525 C   0  0  2  0  0  0
  -24.8497  -28.9582   20.1228 C   0  0  0  0  0  0
  -22.7383  -29.4678   22.5004 C   0  0  0  0  0  0
  -18.0266  -28.1373   22.8501 C   0  0  0  0  0  0
  -24.1475  -36.7306   23.2637 C   0  0  0  0  0  0
  -25.9248  -30.8464   21.3590 C   0  0  0  0  0  0
  -26.0079  -29.4802   20.7145 C   0  0  0  0  0  0
  -27.2105  -28.7405   20.7035 C   0  0  0  0  0  0
  -26.0669  -26.9479   19.5110 C   0  0  0  0  0  0
  -24.8706  -27.6874   19.5219 C   0  0  0  0  0  0
  -23.6085  -29.8208   20.1690 C   0  0  0  0  0  0
  -25.4094  -36.3124   24.0350 C   0  0  1  0  0  0
  -20.5856  -28.3669   23.1318 C   0  0  2  0  0  0
  -20.6758  -26.9408   22.5420 C   0  0  0  0  0  0
  -19.5733  -26.6389   21.5212 C   0  0  0  0  0  0
  -18.1909  -26.7927   22.1625 C   0  0  0  0  0  0
  -19.1513  -28.8833   23.2910 C   0  0  0  0  0  0
  -18.9448  -30.1442   23.8922 C   0  0  0  0  0  0
  -17.6452  -30.6589   24.0562 C   0  0  0  0  0  0
  -25.9026  -34.9487   23.5151 C   0  0  0  0  0  0
  -16.5339  -29.9094   23.6332 C   0  0  0  0  0  0
  -16.7254  -28.6500   23.0364 C   0  0  0  0  0  0
  -26.4469  -31.6601   25.0713 C   0  0  0  0  0  0
  -25.3734  -31.3665   26.1450 C   0  0  0  0  0  0
  -27.0320  -30.3057   24.6058 C   0  0  0  0  0  0
  -27.6065  -32.4300   25.7462 C   0  0  0  0  0  0
  -27.5589  -37.1787   24.8462 C   0  0  0  0  0  0
  -21.4119  -29.3034   22.3727 N   0  0  0  0  0  0
  -26.4282  -37.3810   23.9437 N   0  0  0  0  0  0
  -24.6642  -31.0830   22.1002 N   0  0  0  0  0  0
  -23.4159  -28.8221   23.3043 O   0  0  0  0  0  0
  -28.3868  -26.7175   20.0355 O   0  0  0  0  0  0
  -26.5592  -34.8939   22.4712 O   0  0  0  0  0  0
  -23.5319  -32.1458   23.7509 O   0  0  0  0  0  0
  -30.5761  -22.6785   17.8442 C   0  0  0  0  0  0
  -28.5831  -25.7747   20.9788 C   0  0  0  0  0  0
  -29.2723  -23.1019   18.5283 C   0  0  0  0  0  0
  -28.5921  -24.3551   20.4053 C   0  0  0  0  0  0
  -32.0392  -20.7108   17.4446 C   0  0  0  0  0  0
  -31.0623  -16.1032   22.4646 C   0  0  0  0  0  0
  -32.3766  -19.8307   18.6561 C   0  0  0  0  0  0
  -30.0278  -17.2325   22.5452 C   0  0  0  0  0  0
  -32.4967  -19.8561   21.0178 C   0  0  0  0  0  0
  -29.6836  -19.4939   23.0750 C   0  0  0  0  0  0
  -32.4517  -20.7884   22.2383 C   0  0  0  0  0  0
  -30.3773  -20.8035   23.4709 C   0  0  0  0  0  0
  -30.7528  -21.3649   17.6699 N   0  0  0  0  0  0
  -30.4468  -14.9203   21.8715 N   0  0  0  0  0  0
  -31.4269  -23.5177   17.5342 O   0  0  0  0  0  0
  -28.6380  -25.9864   22.1943 O   0  0  0  0  0  0
  -29.5162  -24.2546   19.3312 O   0  0  0  0  0  0
  -32.3681  -20.6287   19.8332 O   0  0  0  0  0  0
  -30.5957  -18.4001   23.1196 O   0  0  0  0  0  0
  -31.1526  -21.3536   22.4075 O   0  0  0  0  0  0
  -31.4672  -12.3703   19.0937 H   0  0  0  0  0  0
  -30.3166  -11.2461   19.7475 H   0  0  0  0  0  0
  -29.7176  -11.8062   17.3883 H   0  0  0  0  0  0
  -29.6736  -13.5111   17.7808 H   0  0  0  0  0  0
  -27.8132  -11.3189   18.7825 H   0  0  0  0  0  0
  -27.3690  -12.6698   17.7721 H   0  0  0  0  0  0
  -27.7333  -14.2537   19.6124 H   0  0  0  0  0  0
  -28.6513  -11.8696   21.2843 H   0  0  0  0  0  0
  -28.4389  -13.4788   21.8855 H   0  0  0  0  0  0
  -25.2798   -9.5640   22.4797 H   0  0  0  0  0  0
  -23.9991   -7.4629   22.7489 H   0  0  0  0  0  0
  -21.0888   -8.8906   19.8931 H   0  0  0  0  0  0
  -22.3870  -10.9732   19.6168 H   0  0  0  0  0  0
  -21.1988   -7.6165   23.9780 H   0  0  0  0  0  0
  -21.1450   -6.0515   25.9115 H   0  0  0  0  0  0
  -22.0583   -2.7631   23.2891 H   0  0  0  0  0  0
  -22.3938  -11.9874   22.4796 H   0  0  0  0  0  0
  -21.1077  -13.1359   22.2509 H   0  0  0  0  0  0
  -24.6978  -15.8679   20.5442 H   0  0  0  0  0  0
  -26.2897  -15.6073   20.0446 H   0  0  0  0  0  0
  -26.7096  -32.5587   23.1194 H   0  0  0  0  0  0
  -25.0045  -33.9813   25.0507 H   0  0  0  0  0  0
  -22.6884  -31.3098   21.4097 H   0  0  0  0  0  0
  -23.3757  -35.9616   23.3295 H   0  0  0  0  0  0
  -24.3581  -36.8920   22.2053 H   0  0  0  0  0  0
  -23.7205  -37.6498   23.6648 H   0  0  0  0  0  0
  -26.0262  -31.6071   20.5835 H   0  0  0  0  0  0
  -26.8172  -30.9104   21.9700 H   0  0  0  0  0  0
  -28.1081  -29.1415   21.1520 H   0  0  0  0  0  0
  -26.0844  -25.9728   19.0452 H   0  0  0  0  0  0
  -23.9786  -27.2753   19.0710 H   0  0  0  0  0  0
  -23.7094  -30.5934   19.4049 H   0  0  0  0  0  0
  -22.7354  -29.2326   19.8775 H   0  0  0  0  0  0
  -25.1261  -36.1993   25.0842 H   0  0  0  0  0  0
  -20.9948  -28.3235   24.1435 H   0  0  0  0  0  0
  -20.5668  -26.2272   23.3604 H   0  0  0  0  0  0
  -21.6630  -26.7455   22.1203 H   0  0  0  0  0  0
  -19.6903  -25.6303   21.1231 H   0  0  0  0  0  0
  -19.6672  -27.3204   20.6741 H   0  0  0  0  0  0
  -17.4185  -26.6685   21.4021 H   0  0  0  0  0  0
  -18.0306  -26.0058   22.9007 H   0  0  0  0  0  0
  -19.7921  -30.7247   24.2307 H   0  0  0  0  0  0
  -17.5008  -31.6279   24.5149 H   0  0  0  0  0  0
  -15.5346  -30.3005   23.7641 H   0  0  0  0  0  0
  -15.8650  -28.0821   22.7091 H   0  0  0  0  0  0
  -24.5913  -30.7024   25.7756 H   0  0  0  0  0  0
  -24.8908  -32.2796   26.4933 H   0  0  0  0  0  0
  -25.8076  -30.8792   27.0188 H   0  0  0  0  0  0
  -26.2869  -29.6782   24.1148 H   0  0  0  0  0  0
  -27.4172  -29.7316   25.4502 H   0  0  0  0  0  0
  -27.8658  -30.4414   23.9162 H   0  0  0  0  0  0
  -27.2728  -33.3609   26.2057 H   0  0  0  0  0  0
  -28.3853  -32.6837   25.0256 H   0  0  0  0  0  0
  -28.0751  -31.8395   26.5347 H   0  0  0  0  0  0
  -28.2566  -38.0127   24.7601 H   0  0  0  0  0  0
  -28.1133  -36.2671   24.6174 H   0  0  0  0  0  0
  -27.2324  -37.1296   25.8864 H   0  0  0  0  0  0
  -20.9274  -29.8750   21.6946 H   0  0  0  0  0  0
  -26.0178  -38.2880   24.1477 H   0  0  0  0  0  0
  -28.9027  -22.2705   19.1336 H   0  0  0  0  0  0
  -28.5132  -23.3214   17.7761 H   0  0  0  0  0  0
  -27.5836  -24.1184   20.0655 H   0  0  0  0  0  0
  -28.8507  -23.6358   21.1837 H   0  0  0  0  0  0
  -31.9892  -20.1033   16.5406 H   0  0  0  0  0  0
  -32.8400  -21.4352   17.2870 H   0  0  0  0  0  0
  -31.4182  -15.8487   23.4630 H   0  0  0  0  0  0
  -31.9334  -16.4358   21.8955 H   0  0  0  0  0  0
  -33.3535  -19.3626   18.5253 H   0  0  0  0  0  0
  -31.6417  -19.0290   18.7397 H   0  0  0  0  0  0
  -29.1645  -16.9182   23.1341 H   0  0  0  0  0  0
  -29.6733  -17.4626   21.5391 H   0  0  0  0  0  0
  -31.7058  -19.1094   21.0698 H   0  0  0  0  0  0
  -33.4493  -19.3236   21.0000 H   0  0  0  0  0  0
  -29.2367  -19.6054   22.0866 H   0  0  0  0  0  0
  -28.8653  -19.2893   23.7653 H   0  0  0  0  0  0
  -33.1567  -21.6067   22.0959 H   0  0  0  0  0  0
  -32.7885  -20.2593   23.1311 H   0  0  0  0  0  0
  -30.9543  -20.6940   24.3896 H   0  0  0  0  0  0
  -29.6030  -21.5396   23.6934 H   0  0  0  0  0  0
  -29.9777  -20.7618   17.9138 H   0  0  0  0  0  0
  -29.6548  -14.5275   22.3566 H   0  0  0  0  0  0
  1 25  1  0  0  0
  1 30  2  0  0  0
  1 84  1  0  0  0
  2  3  1  0  0  0
  2 25  1  0  0  0
  2 91  1  0  0  0
  2 92  1  0  0  0
  3  4  1  0  0  0
  3 93  1  0  0  0
  3 94  1  0  0  0
  4  5  1  0  0  0
  4 95  1  0  0  0
  4 96  1  0  0  0
  5  6  1  0  0  0
  5 26  1  0  0  0
  5 97  1  0  0  0
  6 25  1  0  0  0
  6 98  1  0  0  0
  6 99  1  0  0  0
  7  8  2  0  0  0
  7 26  1  0  0  0
  7 29  1  0  0  0
  8  9  1  0  0  0
  8 22  1  0  0  0
  9 10  1  0  0  0
  9 27  2  0  0  0
 10 11  2  0  0  0
 10 15  1  0  0  0
 11 12  1  0  0  0
 11100  1  0  0  0
 12 13  2  0  0  0
 12101  1  0  0  0
 13 14  1  0  0  0
 13 31  1  0  0  0
 14 15  2  0  0  0
 14102  1  0  0  0
 15103  1  0  0  0
 16 17  2  0  0  0
 16 21  1  0  0  0
 16 31  1  0  0  0
 17 18  1  0  0  0
 17104  1  0  0  0
 18 19  2  0  0  0
 18105  1  0  0  0
 19 20  1  0  0  0
 19 24  1  0  0  0
 20 21  2  0  0  0
 20106  1  0  0  0
 21 23  1  0  0  0
 22 28  1  0  0  0
 22 32  2  0  0  0
 26 27  1  0  0  0
 28107  1  0  0  0
 28108  1  0  0  0
 29109  1  0  0  0
 29110  1  0  0  0
 33 34  1  0  0  0
 33 66  1  0  0  0
 33 70  2  0  0  0
 34 36  1  0  0  0
 34 59  1  0  0  0
 34111  1  0  0  0
 35 44  2  0  0  0
 35 45  1  0  0  0
 35 68  1  0  0  0
 36 56  1  0  0  0
 36112  1  0  0  0
 37 39  1  0  0  0
 37 47  1  0  0  0
 37 66  1  0  0  0
 37113  1  0  0  0
 38 43  2  0  0  0
 38 46  1  0  0  0
 38 47  1  0  0  0
 39 64  1  0  0  0
 39 67  2  0  0  0
 40 52  1  0  0  0
 40 53  2  0  0  0
 40 58  1  0  0  0
 41114  1  0  0  0
 41115  1  0  0  0
 41116  1  0  0  0
 41 48  1  0  0  0
 42 43  1  0  0  0
 42 66  1  0  0  0
 42117  1  0  0  0
 42118  1  0  0  0
 43 44  1  0  0  0
 44119  1  0  0  0
 45 46  2  0  0  0
 45120  1  0  0  0
 46121  1  0  0  0
 47122  1  0  0  0
 47123  1  0  0  0
 48 56  1  0  0  0
 48 65  1  0  0  0
 48124  1  0  0  0
 49 50  1  0  0  0
 49 53  1  0  0  0
 49 64  1  0  0  0
 49125  1  0  0  0
 50 51  1  0  0  0
 50126  1  0  0  0
 50127  1  0  0  0
 51 52  1  0  0  0
 51128  1  0  0  0
 51129  1  0  0  0
 52130  1  0  0  0
 52131  1  0  0  0
 53 54  1  0  0  0
 54 55  2  0  0  0
 54132  1  0  0  0
 55 57  1  0  0  0
 55133  1  0  0  0
 56 69  2  0  0  0
 57 58  2  0  0  0
 57134  1  0  0  0
 58135  1  0  0  0
 59 60  1  0  0  0
 59 61  1  0  0  0
 59 62  1  0  0  0
 60136  1  0  0  0
 60137  1  0  0  0
 60138  1  0  0  0
 61139  1  0  0  0
 61140  1  0  0  0
 61141  1  0  0  0
 62142  1  0  0  0
 62143  1  0  0  0
 62144  1  0  0  0
 63 65  1  0  0  0
 63145  1  0  0  0
 63146  1  0  0  0
 63147  1  0  0  0
 64148  1  0  0  0
 65149  1  0  0  0
 68 72  1  0  0  0
 71 73  1  0  0  0
 71 83  1  0  0  0
 71 85  2  0  0  0
 72 74  1  0  0  0
 72 86  2  0  0  0
 73 87  1  0  0  0
 73150  1  0  0  0
 73151  1  0  0  0
 74 87  1  0  0  0
 74152  1  0  0  0
 74153  1  0  0  0
 75 77  1  0  0  0
 75 83  1  0  0  0
 75154  1  0  0  0
 75155  1  0  0  0
 76 78  1  0  0  0
 76 84  1  0  0  0
 76156  1  0  0  0
 76157  1  0  0  0
 77 88  1  0  0  0
 77158  1  0  0  0
 77159  1  0  0  0
 78 89  1  0  0  0
 78160  1  0  0  0
 78161  1  0  0  0
 79 81  1  0  0  0
 79 88  1  0  0  0
 79162  1  0  0  0
 79163  1  0  0  0
 80 82  1  0  0  0
 80 89  1  0  0  0
 80164  1  0  0  0
 80165  1  0  0  0
 81 90  1  0  0  0
 81166  1  0  0  0
 81167  1  0  0  0
 82 90  1  0  0  0
 82168  1  0  0  0
 82169  1  0  0  0
 83170  1  0  0  0
 84171  1  0  0  0
M  ISO  4   1 100  68 101  72 101  84 100
M  END
> <chiral flag>
0

> <version>
0

> <s_m_source_file>
/data/baiqing/PycharmProjects/Reinvent-master-3.2/result/LINK_invent/BTK/process_docking_weight1_custom_product_contain_oxygen_bond_distance_aromatic_linkinvent_7_9_3/rearranged_h_0000.sdf

> <i_m_source_file_index>
2

> <r_mmod_Potential_Energy-OPLS-2005>
-152.204513549805

> <r_mmod_Stretch_Energy-OPLS-2005>
31.6849269866943

> <r_mmod_Bend_Energy-OPLS-2005>
90.5998611450195

> <r_mmod_Torsional_Energy-OPLS-2005>
248.418701171875

> <r_mmod_Improper_Torsional_Energy-OPLS-2005>
4.02930068969727

> <r_mmod_Van_der_Waal_Energy-OPLS-2005>
128.988754272461

> <r_mmod_Electrostatic_Energy-OPLS-2005>
-371.770080566406

> <r_mmod_Solvation_Energy-OPLS-2005>
-291.298797607422

> <b_mmod_Minimization_Converged-OPLS-2005>
0

> <r_mmod_RMS_Derivative-OPLS-2005>
3.74765944480896

$$$$
2
                    3D
 Structure written by MMmdl.
151158  0  0  1  0            999 V2000
  -30.6553  -14.5615   20.5164 C   0  0  0  0  0  0
  -30.4343  -12.3448   19.4472 C   0  0  0  0  0  0
  -29.5058  -12.5000   18.2222 C   0  0  0  0  0  0
  -28.0269  -12.3522   18.6318 C   0  0  0  0  0  0
  -27.6599  -13.2100   19.8722 C   0  0  2  0  0  0
  -28.7030  -13.0341   21.0011 C   0  0  0  0  0  0
  -25.2584  -13.8162   20.5687 C   0  0  0  0  0  0
  -24.1839  -13.0436   20.9184 C   0  0  0  0  0  0
  -24.6399  -11.6904   20.8735 C   0  0  0  0  0  0
  -23.9065  -10.4291   21.0404 C   0  0  0  0  0  0
  -24.3613   -9.4209   21.9185 C   0  0  0  0  0  0
  -23.6290   -8.2244   22.0754 C   0  0  0  0  0  0
  -22.4274   -8.0280   21.3544 C   0  0  0  0  0  0
  -21.9908   -9.0255   20.4647 C   0  0  0  0  0  0
  -22.7234  -10.2136   20.3058 C   0  0  0  0  0  0
  -21.6852   -6.0737   22.5281 C   0  0  0  0  0  0
  -21.4013   -6.5642   23.8214 C   0  0  0  0  0  0
  -21.3659   -5.6793   24.9176 C   0  0  0  0  0  0
  -21.6042   -4.3056   24.7226 C   0  0  0  0  0  0
  -21.8819   -3.8149   23.4347 C   0  0  0  0  0  0
  -21.9193   -4.6966   22.3403 C   0  0  0  0  0  0
  -22.7864  -13.5235   21.1847 C   0  0  0  0  0  0
  -22.1662   -4.2151   21.0980 F   0  0  0  0  0  0
  -21.5628   -3.4539   25.7739 F   0  0  0  0  0  0
  -30.0293  -13.3503   20.4461 N   0  0  0  0  0  0
  -26.3021  -12.9338   20.3357 N   0  0  0  0  0  0
  -25.9330  -11.6495   20.5769 N   0  0  0  0  0  0
  -22.0500  -12.8230   22.0403 N   0  0  0  0  0  0
  -25.4306  -15.1882   20.4098 N   0  0  0  0  0  0
  -31.7943  -14.7459   20.0817 O   0  0  0  0  0  0
  -21.6637   -6.8878   21.4242 O   0  0  0  0  0  0
  -22.3554  -14.5544   20.6697 O   0  0  0  0  0  0
  -24.6214  -31.8639   23.2075 C   0  0  0  0  0  0
  -25.9085  -32.4801   23.8384 C   0  0  1  0  0  0
  -27.2255  -27.3712   20.1033 C   0  0  0  0  0  0
  -25.5919  -33.8602   24.2308 N   0  0  0  0  0  0
  -23.4114  -30.4896   21.5492 C   0  0  2  0  0  0
  -24.8565  -28.9542   20.1093 C   0  0  0  0  0  0
  -22.7445  -29.4644   22.4958 C   0  0  0  0  0  0
  -18.0278  -28.1380   22.8491 C   0  0  0  0  0  0
  -24.1487  -36.7311   23.2637 C   0  0  0  0  0  0
  -25.9475  -30.8102   21.3710 C   0  0  0  0  0  0
  -26.0215  -29.4415   20.7145 C   0  0  0  0  0  0
  -27.2071  -28.6586   20.7081 C   0  0  0  0  0  0
  -26.0402  -26.9304   19.4662 C   0  0  0  0  0  0
  -24.8648  -27.7015   19.4786 C   0  0  0  0  0  0
  -23.6224  -29.8285   20.1616 C   0  0  0  0  0  0
  -25.4106  -36.3097   24.0333 C   0  0  1  0  0  0
  -20.5876  -28.3678   23.1297 C   0  0  2  0  0  0
  -20.6771  -26.9407   22.5414 C   0  0  0  0  0  0
  -19.5748  -26.6385   21.5213 C   0  0  0  0  0  0
  -18.1926  -26.7925   22.1623 C   0  0  0  0  0  0
  -19.1531  -28.8844   23.2893 C   0  0  0  0  0  0
  -18.9454  -30.1447   23.8907 C   0  0  0  0  0  0
  -17.6457  -30.6586   24.0563 C   0  0  0  0  0  0
  -25.9042  -34.9465   23.5117 C   0  0  0  0  0  0
  -16.5347  -29.9089   23.6325 C   0  0  0  0  0  0
  -16.7266  -28.6504   23.0347 C   0  0  0  0  0  0
  -26.4492  -31.6591   25.0732 C   0  0  0  0  0  0
  -25.3750  -31.3715   26.1476 C   0  0  0  0  0  0
  -27.0327  -30.3021   24.6144 C   0  0  0  0  0  0
  -27.6054  -32.4318   25.7506 C   0  0  0  0  0  0
  -27.5575  -37.1810   24.8463 C   0  0  0  0  0  0
  -21.4166  -29.3041   22.3700 N   0  0  0  0  0  0
  -26.4286  -37.3783   23.9409 N   0  0  0  0  0  0
  -24.6785  -31.0701   22.1001 N   0  0  0  0  0  0
  -23.4196  -28.8175   23.3006 O   0  0  0  0  0  0
  -28.3648  -26.5671   20.1596 O   0  0  0  0  0  0
  -26.5600  -34.8920   22.4678 O   0  0  0  0  0  0
  -23.5393  -32.1416   23.7435 O   0  0  0  0  0  0
  -29.9427  -17.0084   20.3659 C   0  0  0  0  0  0
  -30.2398  -18.1042   21.4380 C   0  0  0  0  0  0
  -28.2075  -25.1343   19.9110 C   0  0  0  0  0  0
  -29.2662  -24.1793   20.5573 C   0  0  0  0  0  0
  -29.9175  -20.3642   20.4052 C   0  0  0  0  0  0
  -29.8174  -21.8260   20.9840 C   0  0  0  0  0  0
  -29.8654  -15.6054   20.8638 N   0  0  0  0  0  0
  -29.4912  -19.3441   21.3363 O   0  0  0  0  0  0
  -29.0968  -22.7873   20.1739 O   0  0  0  0  0  0
  -31.4781  -12.4560   19.1472 H   0  0  0  0  0  0
  -30.3514  -11.3425   19.8699 H   0  0  0  0  0  0
  -29.7587  -11.7587   17.4631 H   0  0  0  0  0  0
  -29.6633  -13.4758   17.7598 H   0  0  0  0  0  0
  -27.8494  -11.2980   18.8472 H   0  0  0  0  0  0
  -27.3765  -12.6041   17.7933 H   0  0  0  0  0  0
  -27.6900  -14.2503   19.5482 H   0  0  0  0  0  0
  -28.6939  -12.0094   21.3754 H   0  0  0  0  0  0
  -28.4608  -13.6637   21.8586 H   0  0  0  0  0  0
  -25.2760   -9.5685   22.4755 H   0  0  0  0  0  0
  -24.0002   -7.4637   22.7472 H   0  0  0  0  0  0
  -21.0840   -8.8774   19.8954 H   0  0  0  0  0  0
  -22.3696  -10.9673   19.6164 H   0  0  0  0  0  0
  -21.2005   -7.6149   23.9717 H   0  0  0  0  0  0
  -21.1480   -6.0523   25.9077 H   0  0  0  0  0  0
  -22.0598   -2.7611   23.2847 H   0  0  0  0  0  0
  -22.4113  -11.9886   22.4785 H   0  0  0  0  0  0
  -21.1121  -13.1263   22.2609 H   0  0  0  0  0  0
  -24.6640  -15.8434   20.5187 H   0  0  0  0  0  0
  -26.2817  -15.6270   20.0812 H   0  0  0  0  0  0
  -26.7157  -32.5488   23.1142 H   0  0  0  0  0  0
  -25.0089  -33.9756   25.0468 H   0  0  0  0  0  0
  -22.7027  -31.3087   21.4110 H   0  0  0  0  0  0
  -23.3738  -35.9655   23.3305 H   0  0  0  0  0  0
  -24.3581  -36.8924   22.2051 H   0  0  0  0  0  0
  -23.7254  -37.6523   23.6652 H   0  0  0  0  0  0
  -26.0704  -31.5737   20.6015 H   0  0  0  0  0  0
  -26.8328  -30.8610   21.9934 H   0  0  0  0  0  0
  -28.1002  -29.0266   21.1935 H   0  0  0  0  0  0
  -25.9945  -25.9816   18.9532 H   0  0  0  0  0  0
  -23.9737  -27.3260   18.9946 H   0  0  0  0  0  0
  -23.7382  -30.6078   19.4073 H   0  0  0  0  0  0
  -22.7435  -29.2556   19.8597 H   0  0  0  0  0  0
  -25.1283  -36.1955   25.0825 H   0  0  0  0  0  0
  -20.9968  -28.3250   24.1416 H   0  0  0  0  0  0
  -20.5675  -26.2286   23.3609 H   0  0  0  0  0  0
  -21.6641  -26.7445   22.1203 H   0  0  0  0  0  0
  -19.6911  -25.6300   21.1234 H   0  0  0  0  0  0
  -19.6685  -27.3205   20.6752 H   0  0  0  0  0  0
  -17.4196  -26.6671   21.4025 H   0  0  0  0  0  0
  -18.0322  -26.0066   22.9016 H   0  0  0  0  0  0
  -19.7933  -30.7257   24.2281 H   0  0  0  0  0  0
  -17.5015  -31.6265   24.5168 H   0  0  0  0  0  0
  -15.5351  -30.2995   23.7644 H   0  0  0  0  0  0
  -15.8663  -28.0830   22.7056 H   0  0  0  0  0  0
  -24.5923  -30.7058   25.7824 H   0  0  0  0  0  0
  -24.8950  -32.2878   26.4917 H   0  0  0  0  0  0
  -25.8105  -30.8896   27.0238 H   0  0  0  0  0  0
  -26.2885  -29.6782   24.1174 H   0  0  0  0  0  0
  -27.4053  -29.7258   25.4624 H   0  0  0  0  0  0
  -27.8744  -30.4323   23.9335 H   0  0  0  0  0  0
  -27.2656  -33.3602   26.2106 H   0  0  0  0  0  0
  -28.3859  -32.6902   25.0339 H   0  0  0  0  0  0
  -28.0726  -31.8432   26.5410 H   0  0  0  0  0  0
  -28.2595  -38.0105   24.7496 H   0  0  0  0  0  0
  -28.1067  -36.2633   24.6297 H   0  0  0  0  0  0
  -27.2294  -37.1473   25.8868 H   0  0  0  0  0  0
  -20.9327  -29.8783   21.6941 H   0  0  0  0  0  0
  -26.0170  -38.2861   24.1406 H   0  0  0  0  0  0
  -30.6541  -17.0949   19.5428 H   0  0  0  0  0  0
  -28.9678  -17.2228   19.9266 H   0  0  0  0  0  0
  -31.3103  -18.3080   21.4926 H   0  0  0  0  0  0
  -29.9771  -17.6939   22.4136 H   0  0  0  0  0  0
  -27.2444  -24.7911   20.2910 H   0  0  0  0  0  0
  -28.1973  -24.9789   18.8314 H   0  0  0  0  0  0
  -29.1932  -24.2677   21.6418 H   0  0  0  0  0  0
  -30.2711  -24.5014   20.2815 H   0  0  0  0  0  0
  -30.9434  -20.1789   20.0829 H   0  0  0  0  0  0
  -29.3018  -20.2769   19.5094 H   0  0  0  0  0  0
  -30.8295  -22.1951   21.1586 H   0  0  0  0  0  0
  -29.3415  -21.7928   21.9649 H   0  0  0  0  0  0
  -28.9732  -15.3399   21.2544 H   0  0  0  0  0  0
  1 25  1  0  0  0
  1 30  2  0  0  0
  1 77  1  0  0  0
  2  3  1  0  0  0
  2 25  1  0  0  0
  2 80  1  0  0  0
  2 81  1  0  0  0
  3  4  1  0  0  0
  3 82  1  0  0  0
  3 83  1  0  0  0
  4  5  1  0  0  0
  4 84  1  0  0  0
  4 85  1  0  0  0
  5  6  1  0  0  0
  5 26  1  0  0  0
  5 86  1  0  0  0
  6 25  1  0  0  0
  6 87  1  0  0  0
  6 88  1  0  0  0
  7  8  2  0  0  0
  7 26  1  0  0  0
  7 29  1  0  0  0
  8  9  1  0  0  0
  8 22  1  0  0  0
  9 10  1  0  0  0
  9 27  2  0  0  0
 10 11  2  0  0  0
 10 15  1  0  0  0
 11 12  1  0  0  0
 11 89  1  0  0  0
 12 13  2  0  0  0
 12 90  1  0  0  0
 13 14  1  0  0  0
 13 31  1  0  0  0
 14 15  2  0  0  0
 14 91  1  0  0  0
 15 92  1  0  0  0
 16 17  2  0  0  0
 16 21  1  0  0  0
 16 31  1  0  0  0
 17 18  1  0  0  0
 17 93  1  0  0  0
 18 19  2  0  0  0
 18 94  1  0  0  0
 19 20  1  0  0  0
 19 24  1  0  0  0
 20 21  2  0  0  0
 20 95  1  0  0  0
 21 23  1  0  0  0
 22 28  1  0  0  0
 22 32  2  0  0  0
 26 27  1  0  0  0
 28 96  1  0  0  0
 28 97  1  0  0  0
 29 98  1  0  0  0
 29 99  1  0  0  0
 33 34  1  0  0  0
 33 66  1  0  0  0
 33 70  2  0  0  0
 34 36  1  0  0  0
 34 59  1  0  0  0
 34100  1  0  0  0
 35 44  2  0  0  0
 35 45  1  0  0  0
 35 68  1  0  0  0
 36 56  1  0  0  0
 36101  1  0  0  0
 37 39  1  0  0  0
 37 47  1  0  0  0
 37 66  1  0  0  0
 37102  1  0  0  0
 38 43  2  0  0  0
 38 46  1  0  0  0
 38 47  1  0  0  0
 39 64  1  0  0  0
 39 67  2  0  0  0
 40 52  1  0  0  0
 40 53  2  0  0  0
 40 58  1  0  0  0
 41103  1  0  0  0
 41104  1  0  0  0
 41105  1  0  0  0
 41 48  1  0  0  0
 42 43  1  0  0  0
 42 66  1  0  0  0
 42106  1  0  0  0
 42107  1  0  0  0
 43 44  1  0  0  0
 44108  1  0  0  0
 45 46  2  0  0  0
 45109  1  0  0  0
 46110  1  0  0  0
 47111  1  0  0  0
 47112  1  0  0  0
 48 56  1  0  0  0
 48 65  1  0  0  0
 48113  1  0  0  0
 49 50  1  0  0  0
 49 53  1  0  0  0
 49 64  1  0  0  0
 49114  1  0  0  0
 50 51  1  0  0  0
 50115  1  0  0  0
 50116  1  0  0  0
 51 52  1  0  0  0
 51117  1  0  0  0
 51118  1  0  0  0
 52119  1  0  0  0
 52120  1  0  0  0
 53 54  1  0  0  0
 54 55  2  0  0  0
 54121  1  0  0  0
 55 57  1  0  0  0
 55122  1  0  0  0
 56 69  2  0  0  0
 57 58  2  0  0  0
 57123  1  0  0  0
 58124  1  0  0  0
 59 60  1  0  0  0
 59 61  1  0  0  0
 59 62  1  0  0  0
 60125  1  0  0  0
 60126  1  0  0  0
 60127  1  0  0  0
 61128  1  0  0  0
 61129  1  0  0  0
 61130  1  0  0  0
 62131  1  0  0  0
 62132  1  0  0  0
 62133  1  0  0  0
 63 65  1  0  0  0
 63134  1  0  0  0
 63135  1  0  0  0
 63136  1  0  0  0
 64137  1  0  0  0
 65138  1  0  0  0
 68 73  1  0  0  0
 71 72  1  0  0  0
 71 77  1  0  0  0
 71139  1  0  0  0
 71140  1  0  0  0
 72 78  1  0  0  0
 72141  1  0  0  0
 72142  1  0  0  0
 73 74  1  0  0  0
 73143  1  0  0  0
 73144  1  0  0  0
 74 79  1  0  0  0
 74145  1  0  0  0
 74146  1  0  0  0
 75 76  1  0  0  0
 75 78  1  0  0  0
 75147  1  0  0  0
 75148  1  0  0  0
 76 79  1  0  0  0
 76149  1  0  0  0
 76150  1  0  0  0
 77151  1  0  0  0
M  ISO  4   1 100  68 101  73 101  77 100
M  END
> <chiral flag>
0

> <version>
0

> <s_m_source_file>
/data/baiqing/PycharmProjects/Reinvent-master-3.2/result/LINK_invent/BTK/process_docking_weight1_custom_product_contain_oxygen_bond_distance_aromatic_linkinvent_7_9_3/rearranged_h_0000.sdf

> <i_m_source_file_index>
3

> <r_mmod_Potential_Energy-OPLS-2005>
-33.6661491394043

> <r_mmod_Stretch_Energy-OPLS-2005>
54.1415176391602

> <r_mmod_Bend_Energy-OPLS-2005>
117.664672851562

> <r_mmod_Torsional_Energy-OPLS-2005>
224.785095214844

> <r_mmod_Improper_Torsional_Energy-OPLS-2005>
6.75608205795288

> <r_mmod_Van_der_Waal_Energy-OPLS-2005>
133.051956176758

> <r_mmod_Electrostatic_Energy-OPLS-2005>
-384.544891357422

> <r_mmod_Solvation_Energy-OPLS-2005>
-214.149185180664

> <b_mmod_Minimization_Converged-OPLS-2005>
0

> <r_mmod_RMS_Derivative-OPLS-2005>
0.78693014383316

$$$$
3
                    3D
 Structure written by MMmdl.
154162  0  0  1  0            999 V2000
  -30.6755  -14.4856   20.5768 C   0  0  0  0  0  0
  -30.4342  -12.3171   19.4176 C   0  0  0  0  0  0
  -29.4979  -12.5126   18.2056 C   0  0  0  0  0  0
  -28.0186  -12.3671   18.6170 C   0  0  0  0  0  0
  -27.6648  -13.1978   19.8787 C   0  0  2  0  0  0
  -28.7076  -12.9625   20.9954 C   0  0  0  0  0  0
  -25.2602  -13.8130   20.5673 C   0  0  0  0  0  0
  -24.1842  -13.0423   20.9167 C   0  0  0  0  0  0
  -24.6385  -11.6887   20.8730 C   0  0  0  0  0  0
  -23.9043  -10.4283   21.0398 C   0  0  0  0  0  0
  -24.3599   -9.4204   21.9179 C   0  0  0  0  0  0
  -23.6282   -8.2238   22.0750 C   0  0  0  0  0  0
  -22.4265   -8.0274   21.3540 C   0  0  0  0  0  0
  -21.9891   -9.0244   20.4642 C   0  0  0  0  0  0
  -22.7215  -10.2127   20.3049 C   0  0  0  0  0  0
  -21.6847   -6.0734   22.5281 C   0  0  0  0  0  0
  -21.4010   -6.5638   23.8215 C   0  0  0  0  0  0
  -21.3657   -5.6790   24.9177 C   0  0  0  0  0  0
  -21.6046   -4.3054   24.7227 C   0  0  0  0  0  0
  -21.8819   -3.8146   23.4348 C   0  0  0  0  0  0
  -21.9189   -4.6963   22.3404 C   0  0  0  0  0  0
  -22.7867  -13.5235   21.1838 C   0  0  0  0  0  0
  -22.1658   -4.2149   21.0981 F   0  0  0  0  0  0
  -21.5629   -3.4536   25.7739 F   0  0  0  0  0  0
  -30.0402  -13.2864   20.4518 N   0  0  0  0  0  0
  -26.3039  -12.9284   20.3378 N   0  0  0  0  0  0
  -25.9314  -11.6454   20.5768 N   0  0  0  0  0  0
  -22.0499  -12.8240   22.0398 N   0  0  0  0  0  0
  -25.4309  -15.1846   20.4077 N   0  0  0  0  0  0
  -31.7868  -14.7150   20.0889 O   0  0  0  0  0  0
  -21.6629   -6.8873   21.4241 O   0  0  0  0  0  0
  -22.3561  -14.5548   20.6692 O   0  0  0  0  0  0
  -24.6151  -31.8672   23.2098 C   0  0  0  0  0  0
  -25.9041  -32.4819   23.8398 C   0  0  1  0  0  0
  -27.2388  -27.4345   20.0997 C   0  0  0  0  0  0
  -25.5895  -33.8618   24.2330 N   0  0  0  0  0  0
  -23.4050  -30.4890   21.5488 C   0  0  2  0  0  0
  -24.8559  -28.9546   20.1136 C   0  0  0  0  0  0
  -22.7418  -29.4648   22.4978 C   0  0  0  0  0  0
  -18.0273  -28.1376   22.8491 C   0  0  0  0  0  0
  -24.1485  -36.7316   23.2637 C   0  0  0  0  0  0
  -25.9338  -30.8323   21.3646 C   0  0  0  0  0  0
  -26.0148  -29.4661   20.7128 C   0  0  0  0  0  0
  -27.2123  -28.7122   20.7056 C   0  0  0  0  0  0
  -26.0685  -26.9379   19.4924 C   0  0  0  0  0  0
  -24.8772  -27.6891   19.5001 C   0  0  0  0  0  0
  -23.6163  -29.8202   20.1638 C   0  0  0  0  0  0
  -25.4103  -36.3112   24.0340 C   0  0  1  0  0  0
  -20.5865  -28.3664   23.1313 C   0  0  2  0  0  0
  -20.6760  -26.9399   22.5417 C   0  0  0  0  0  0
  -19.5740  -26.6384   21.5212 C   0  0  0  0  0  0
  -18.1920  -26.7923   22.1622 C   0  0  0  0  0  0
  -19.1523  -28.8836   23.2899 C   0  0  0  0  0  0
  -18.9451  -30.1442   23.8910 C   0  0  0  0  0  0
  -17.6454  -30.6584   24.0563 C   0  0  0  0  0  0
  -25.9033  -34.9476   23.5134 C   0  0  0  0  0  0
  -16.5344  -29.9087   23.6323 C   0  0  0  0  0  0
  -16.7261  -28.6501   23.0347 C   0  0  0  0  0  0
  -26.4474  -31.6595   25.0723 C   0  0  0  0  0  0
  -25.3747  -31.3694   26.1476 C   0  0  0  0  0  0
  -27.0307  -30.3037   24.6097 C   0  0  0  0  0  0
  -27.6053  -32.4313   25.7484 C   0  0  0  0  0  0
  -27.5587  -37.1801   24.8456 C   0  0  0  0  0  0
  -21.4145  -29.3031   22.3720 N   0  0  0  0  0  0
  -26.4285  -37.3801   23.9423 N   0  0  0  0  0  0
  -24.6693  -31.0768   22.0998 N   0  0  0  0  0  0
  -23.4184  -28.8193   23.3028 O   0  0  0  0  0  0
  -28.3688  -26.6472   20.1027 O   0  0  0  0  0  0
  -26.5596  -34.8928   22.4695 O   0  0  0  0  0  0
  -23.5340  -32.1421   23.7489 O   0  0  0  0  0  0
  -28.8313  -17.2028   19.9449 C   0  0  0  0  0  0
  -30.6632  -17.8086   21.4193 C   0  0  0  0  0  0
  -28.6050  -18.5670   19.6701 C   0  0  0  0  0  0
  -30.4286  -19.1810   21.1450 C   0  0  0  0  0  0
  -29.8580  -16.8071   20.8280 C   0  0  0  0  0  0
  -29.3791  -19.5781   20.2763 C   0  0  0  0  0  0
  -28.8315  -23.2801   20.3855 C   0  0  0  0  0  0
  -29.3915  -24.5523   21.0758 C   0  0  0  0  0  0
  -29.6401  -21.9813   20.6659 C   0  0  0  0  0  0
  -28.4049  -25.7441   21.2175 C   0  0  0  0  0  0
  -29.9575  -15.4355   21.2065 N   0  0  0  0  0  0
  -29.0320  -20.8859   19.9737 O   0  0  0  0  0  0
  -31.4757  -12.4372   19.1133 H   0  0  0  0  0  0
  -30.3545  -11.3010   19.8065 H   0  0  0  0  0  0
  -29.7398  -11.7918   17.4231 H   0  0  0  0  0  0
  -29.6606  -13.5003   17.7710 H   0  0  0  0  0  0
  -27.8282  -11.3100   18.8058 H   0  0  0  0  0  0
  -27.3681  -12.6487   17.7880 H   0  0  0  0  0  0
  -27.7112  -14.2455   19.5883 H   0  0  0  0  0  0
  -28.6895  -11.9185   21.3125 H   0  0  0  0  0  0
  -28.4599  -13.5349   21.8901 H   0  0  0  0  0  0
  -25.2743   -9.5684   22.4755 H   0  0  0  0  0  0
  -23.9992   -7.4627   22.7466 H   0  0  0  0  0  0
  -21.0821   -8.8758   19.8950 H   0  0  0  0  0  0
  -22.3669  -10.9663   19.6158 H   0  0  0  0  0  0
  -21.2003   -7.6145   23.9723 H   0  0  0  0  0  0
  -21.1479   -6.0517   25.9082 H   0  0  0  0  0  0
  -22.0603   -2.7608   23.2846 H   0  0  0  0  0  0
  -22.4096  -11.9892   22.4784 H   0  0  0  0  0  0
  -21.1127  -13.1289   22.2612 H   0  0  0  0  0  0
  -24.6616  -15.8368   20.5163 H   0  0  0  0  0  0
  -26.2840  -15.6286   20.0960 H   0  0  0  0  0  0
  -26.7115  -32.5537   23.1169 H   0  0  0  0  0  0
  -25.0047  -33.9783   25.0475 H   0  0  0  0  0  0
  -22.6937  -31.3056   21.4079 H   0  0  0  0  0  0
  -23.3751  -35.9643   23.3285 H   0  0  0  0  0  0
  -24.3588  -36.8946   22.2055 H   0  0  0  0  0  0
  -23.7226  -37.6513   23.6658 H   0  0  0  0  0  0
  -26.0464  -31.5983   20.5961 H   0  0  0  0  0  0
  -26.8208  -30.8871   21.9834 H   0  0  0  0  0  0
  -28.1067  -29.0996   21.1735 H   0  0  0  0  0  0
  -26.0792  -25.9628   19.0255 H   0  0  0  0  0  0
  -23.9870  -27.2886   19.0350 H   0  0  0  0  0  0
  -23.7247  -30.5947   19.4035 H   0  0  0  0  0  0
  -22.7412  -29.2391   19.8674 H   0  0  0  0  0  0
  -25.1275  -36.1974   25.0832 H   0  0  0  0  0  0
  -20.9956  -28.3229   24.1433 H   0  0  0  0  0  0
  -20.5657  -26.2274   23.3606 H   0  0  0  0  0  0
  -21.6632  -26.7437   22.1211 H   0  0  0  0  0  0
  -19.6901  -25.6298   21.1232 H   0  0  0  0  0  0
  -19.6681  -27.3200   20.6748 H   0  0  0  0  0  0
  -17.4190  -26.6672   21.4024 H   0  0  0  0  0  0
  -18.0320  -26.0061   22.9015 H   0  0  0  0  0  0
  -19.7929  -30.7252   24.2285 H   0  0  0  0  0  0
  -17.5012  -31.6266   24.5161 H   0  0  0  0  0  0
  -15.5346  -30.2994   23.7641 H   0  0  0  0  0  0
  -15.8659  -28.0827   22.7054 H   0  0  0  0  0  0
  -24.5910  -30.7058   25.7810 H   0  0  0  0  0  0
  -24.8955  -32.2848   26.4957 H   0  0  0  0  0  0
  -25.8108  -30.8834   27.0214 H   0  0  0  0  0  0
  -26.2851  -29.6793   24.1161 H   0  0  0  0  0  0
  -27.4090  -29.7277   25.4554 H   0  0  0  0  0  0
  -27.8680  -30.4358   23.9241 H   0  0  0  0  0  0
  -27.2673  -33.3596   26.2100 H   0  0  0  0  0  0
  -28.3841  -32.6899   25.0298 H   0  0  0  0  0  0
  -28.0745  -31.8413   26.5367 H   0  0  0  0  0  0
  -28.2574  -38.0131   24.7559 H   0  0  0  0  0  0
  -28.1116  -36.2668   24.6205 H   0  0  0  0  0  0
  -27.2318  -37.1356   25.8860 H   0  0  0  0  0  0
  -20.9305  -29.8761   21.6948 H   0  0  0  0  0  0
  -26.0173  -38.2872   24.1458 H   0  0  0  0  0  0
  -28.1911  -16.4684   19.4806 H   0  0  0  0  0  0
  -31.4452  -17.5332   22.1133 H   0  0  0  0  0  0
  -27.8028  -18.8432   19.0003 H   0  0  0  0  0  0
  -31.0561  -19.9164   21.6268 H   0  0  0  0  0  0
  -28.7664  -23.4536   19.3107 H   0  0  0  0  0  0
  -27.8085  -23.1144   20.7249 H   0  0  0  0  0  0
  -30.3134  -24.8783   20.5932 H   0  0  0  0  0  0
  -29.6789  -24.2650   22.0882 H   0  0  0  0  0  0
  -29.6517  -21.7891   21.7399 H   0  0  0  0  0  0
  -30.6738  -22.0941   20.3368 H   0  0  0  0  0  0
  -28.7055  -26.3349   22.0844 H   0  0  0  0  0  0
  -27.4089  -25.3630   21.4531 H   0  0  0  0  0  0
  -29.1125  -15.0532   21.6036 H   0  0  0  0  0  0
  1 25  1  0  0  0
  1 30  2  0  0  0
  1 81  1  0  0  0
  2  3  1  0  0  0
  2 25  1  0  0  0
  2 83  1  0  0  0
  2 84  1  0  0  0
  3  4  1  0  0  0
  3 85  1  0  0  0
  3 86  1  0  0  0
  4  5  1  0  0  0
  4 87  1  0  0  0
  4 88  1  0  0  0
  5  6  1  0  0  0
  5 26  1  0  0  0
  5 89  1  0  0  0
  6 25  1  0  0  0
  6 90  1  0  0  0
  6 91  1  0  0  0
  7  8  2  0  0  0
  7 26  1  0  0  0
  7 29  1  0  0  0
  8  9  1  0  0  0
  8 22  1  0  0  0
  9 10  1  0  0  0
  9 27  2  0  0  0
 10 11  2  0  0  0
 10 15  1  0  0  0
 11 12  1  0  0  0
 11 92  1  0  0  0
 12 13  2  0  0  0
 12 93  1  0  0  0
 13 14  1  0  0  0
 13 31  1  0  0  0
 14 15  2  0  0  0
 14 94  1  0  0  0
 15 95  1  0  0  0
 16 17  2  0  0  0
 16 21  1  0  0  0
 16 31  1  0  0  0
 17 18  1  0  0  0
 17 96  1  0  0  0
 18 19  2  0  0  0
 18 97  1  0  0  0
 19 20  1  0  0  0
 19 24  1  0  0  0
 20 21  2  0  0  0
 20 98  1  0  0  0
 21 23  1  0  0  0
 22 28  1  0  0  0
 22 32  2  0  0  0
 26 27  1  0  0  0
 28 99  1  0  0  0
 28100  1  0  0  0
 29101  1  0  0  0
 29102  1  0  0  0
 33 34  1  0  0  0
 33 66  1  0  0  0
 33 70  2  0  0  0
 34 36  1  0  0  0
 34 59  1  0  0  0
 34103  1  0  0  0
 35 44  2  0  0  0
 35 45  1  0  0  0
 35 68  1  0  0  0
 36 56  1  0  0  0
 36104  1  0  0  0
 37 39  1  0  0  0
 37 47  1  0  0  0
 37 66  1  0  0  0
 37105  1  0  0  0
 38 43  2  0  0  0
 38 46  1  0  0  0
 38 47  1  0  0  0
 39 64  1  0  0  0
 39 67  2  0  0  0
 40 52  1  0  0  0
 40 53  2  0  0  0
 40 58  1  0  0  0
 41106  1  0  0  0
 41107  1  0  0  0
 41108  1  0  0  0
 41 48  1  0  0  0
 42 43  1  0  0  0
 42 66  1  0  0  0
 42109  1  0  0  0
 42110  1  0  0  0
 43 44  1  0  0  0
 44111  1  0  0  0
 45 46  2  0  0  0
 45112  1  0  0  0
 46113  1  0  0  0
 47114  1  0  0  0
 47115  1  0  0  0
 48 56  1  0  0  0
 48 65  1  0  0  0
 48116  1  0  0  0
 49 50  1  0  0  0
 49 53  1  0  0  0
 49 64  1  0  0  0
 49117  1  0  0  0
 50 51  1  0  0  0
 50118  1  0  0  0
 50119  1  0  0  0
 51 52  1  0  0  0
 51120  1  0  0  0
 51121  1  0  0  0
 52122  1  0  0  0
 52123  1  0  0  0
 53 54  1  0  0  0
 54 55  2  0  0  0
 54124  1  0  0  0
 55 57  1  0  0  0
 55125  1  0  0  0
 56 69  2  0  0  0
 57 58  2  0  0  0
 57126  1  0  0  0
 58127  1  0  0  0
 59 60  1  0  0  0
 59 61  1  0  0  0
 59 62  1  0  0  0
 60128  1  0  0  0
 60129  1  0  0  0
 60130  1  0  0  0
 61131  1  0  0  0
 61132  1  0  0  0
 61133  1  0  0  0
 62134  1  0  0  0
 62135  1  0  0  0
 62136  1  0  0  0
 63 65  1  0  0  0
 63137  1  0  0  0
 63138  1  0  0  0
 63139  1  0  0  0
 64140  1  0  0  0
 65141  1  0  0  0
 68 80  1  0  0  0
 71 73  2  0  0  0
 71 75  1  0  0  0
 71142  1  0  0  0
 72 74  1  0  0  0
 72 75  2  0  0  0
 72143  1  0  0  0
 73 76  1  0  0  0
 73144  1  0  0  0
 74 76  2  0  0  0
 74145  1  0  0  0
 75 81  1  0  0  0
 76 82  1  0  0  0
 77 78  1  0  0  0
 77 79  1  0  0  0
 77146  1  0  0  0
 77147  1  0  0  0
 78 80  1  0  0  0
 78148  1  0  0  0
 78149  1  0  0  0
 79 82  1  0  0  0
 79150  1  0  0  0
 79151  1  0  0  0
 80152  1  0  0  0
 80153  1  0  0  0
 81154  1  0  0  0
M  ISO  4   1 100  68 101  80 101  81 100
M  END
> <chiral flag>
0

> <version>
0

> <s_m_source_file>
/data/baiqing/PycharmProjects/Reinvent-master-3.2/result/LINK_invent/BTK/process_docking_weight1_custom_product_contain_oxygen_bond_distance_aromatic_linkinvent_7_9_3/rearranged_h_0000.sdf

> <i_m_source_file_index>
4

> <r_mmod_Potential_Energy-OPLS-2005>
-26.1432418823242

> <r_mmod_Stretch_Energy-OPLS-2005>
38.0520858764648

> <r_mmod_Bend_Energy-OPLS-2005>
103.493583679199

> <r_mmod_Torsional_Energy-OPLS-2005>
269.066009521484

> <r_mmod_Improper_Torsional_Energy-OPLS-2005>
5.56116437911987

> <r_mmod_Van_der_Waal_Energy-OPLS-2005>
142.235061645508

> <r_mmod_Electrostatic_Energy-OPLS-2005>
-386.073486328125

> <r_mmod_Solvation_Energy-OPLS-2005>
-212.002868652344

> <b_mmod_Minimization_Converged-OPLS-2005>
0

> <r_mmod_RMS_Derivative-OPLS-2005>
0.609314560890198

$$$$
4
                    3D
 Structure written by MMmdl.
190197  0  0  1  0            999 V2000
  -30.7481  -14.3823   20.6577 C   0  0  0  0  0  0
  -30.4180  -12.2883   19.3959 C   0  0  0  0  0  0
  -29.4834  -12.5178   18.1921 C   0  0  0  0  0  0
  -28.0068  -12.3789   18.6096 C   0  0  0  0  0  0
  -27.6656  -13.2014   19.8803 C   0  0  2  0  0  0
  -28.7045  -12.9400   20.9927 C   0  0  0  0  0  0
  -25.2607  -13.8162   20.5678 C   0  0  0  0  0  0
  -24.1848  -13.0443   20.9168 C   0  0  0  0  0  0
  -24.6385  -11.6905   20.8723 C   0  0  0  0  0  0
  -23.9050  -10.4295   21.0405 C   0  0  0  0  0  0
  -24.3609   -9.4216   21.9184 C   0  0  0  0  0  0
  -23.6289   -8.2249   22.0755 C   0  0  0  0  0  0
  -22.4274   -8.0282   21.3543 C   0  0  0  0  0  0
  -21.9907   -9.0256   20.4647 C   0  0  0  0  0  0
  -22.7227  -10.2135   20.3059 C   0  0  0  0  0  0
  -21.6847   -6.0737   22.5277 C   0  0  0  0  0  0
  -21.4014   -6.5639   23.8209 C   0  0  0  0  0  0
  -21.3661   -5.6793   24.9176 C   0  0  0  0  0  0
  -21.6043   -4.3054   24.7231 C   0  0  0  0  0  0
  -21.8820   -3.8148   23.4345 C   0  0  0  0  0  0
  -21.9193   -4.6965   22.3404 C   0  0  0  0  0  0
  -22.7873  -13.5249   21.1836 C   0  0  0  0  0  0
  -22.1659   -4.2151   21.0981 F   0  0  0  0  0  0
  -21.5633   -3.4541   25.7739 F   0  0  0  0  0  0
  -30.0441  -13.2394   20.4527 N   0  0  0  0  0  0
  -26.3037  -12.9316   20.3391 N   0  0  0  0  0  0
  -25.9308  -11.6473   20.5763 N   0  0  0  0  0  0
  -22.0506  -12.8243   22.0388 N   0  0  0  0  0  0
  -25.4361  -15.1879   20.4088 N   0  0  0  0  0  0
  -31.8019  -14.6460   20.0712 O   0  0  0  0  0  0
  -21.6637   -6.8882   21.4236 O   0  0  0  0  0  0
  -22.3564  -14.5558   20.6691 O   0  0  0  0  0  0
  -24.6082  -31.8722   23.2133 C   0  0  0  0  0  0
  -25.8993  -32.4854   23.8416 C   0  0  1  0  0  0
  -27.2587  -27.4860   20.0925 C   0  0  0  0  0  0
  -25.5879  -33.8648   24.2354 N   0  0  0  0  0  0
  -23.3931  -30.4927   21.5537 C   0  0  2  0  0  0
  -24.8421  -28.9594   20.1248 C   0  0  0  0  0  0
  -22.7376  -29.4659   22.5038 C   0  0  0  0  0  0
  -18.0276  -28.1348   22.8488 C   0  0  0  0  0  0
  -24.1486  -36.7336   23.2640 C   0  0  0  0  0  0
  -25.9135  -30.8579   21.3526 C   0  0  0  0  0  0
  -25.9953  -29.4916   20.7100 C   0  0  0  0  0  0
  -27.2007  -28.7642   20.6996 C   0  0  0  0  0  0
  -26.0810  -26.9548   19.5264 C   0  0  0  0  0  0
  -24.8738  -27.6824   19.5390 C   0  0  0  0  0  0
  -23.6013  -29.8212   20.1685 C   0  0  0  0  0  0
  -25.4097  -36.3116   24.0348 C   0  0  1  0  0  0
  -20.5853  -28.3615   23.1345 C   0  0  2  0  0  0
  -20.6761  -26.9363   22.5414 C   0  0  0  0  0  0
  -19.5756  -26.6370   21.5184 C   0  0  0  0  0  0
  -18.1924  -26.7916   22.1584 C   0  0  0  0  0  0
  -19.1518  -28.8802   23.2923 C   0  0  0  0  0  0
  -18.9438  -30.1419   23.8925 C   0  0  0  0  0  0
  -17.6439  -30.6559   24.0543 C   0  0  0  0  0  0
  -25.9025  -34.9484   23.5139 C   0  0  0  0  0  0
  -16.5342  -29.9048   23.6308 C   0  0  0  0  0  0
  -16.7265  -28.6466   23.0340 C   0  0  0  0  0  0
  -26.4480  -31.6617   25.0709 C   0  0  0  0  0  0
  -25.3792  -31.3680   26.1479 C   0  0  0  0  0  0
  -27.0268  -30.3077   24.5992 C   0  0  0  0  0  0
  -27.6072  -32.4333   25.7455 C   0  0  0  0  0  0
  -27.5586  -37.1810   24.8463 C   0  0  0  0  0  0
  -21.4115  -29.2990   22.3765 N   0  0  0  0  0  0
  -26.4283  -37.3797   23.9433 N   0  0  0  0  0  0
  -24.6562  -31.0879   22.0995 N   0  0  0  0  0  0
  -23.4172  -28.8230   23.3083 O   0  0  0  0  0  0
  -28.3938  -26.7060   20.0124 O   0  0  0  0  0  0
  -26.5567  -34.8931   22.4686 O   0  0  0  0  0  0
  -23.5293  -32.1451   23.7566 O   0  0  0  0  0  0
  -28.9653  -17.9474   20.7691 C   0  0  0  0  0  0
  -30.4651  -17.6482   20.9424 C   0  0  0  0  0  0
  -28.7147  -19.1383   19.8274 C   0  0  0  0  0  0
  -25.7211  -21.9952   17.4012 C   0  0  0  0  0  0
  -24.2989  -22.3069   16.9044 C   0  0  0  0  0  0
  -25.3218  -26.8906   16.0804 C   0  0  0  0  0  0
  -30.7710  -16.5191   21.9472 C   0  0  0  0  0  0
  -27.2251  -19.4487   19.6306 C   0  0  0  0  0  0
  -25.7533  -20.8352   18.4044 C   0  0  0  0  0  0
  -24.2696  -23.3682   15.7961 C   0  0  0  0  0  0
  -24.8488  -25.6264   15.3559 C   0  0  0  0  0  0
  -25.6506  -28.0682   15.1578 C   0  0  0  0  0  0
  -29.6444  -27.2106   20.4826 C   0  0  0  0  0  0
  -30.3860  -28.0044   19.3926 C   0  0  0  0  0  0
  -26.7436  -30.1814   15.2459 C   0  0  0  0  0  0
  -27.5109  -31.0746   16.2294 C   0  0  0  0  0  0
  -30.4434  -30.0796   18.2397 C   0  0  0  0  0  0
  -29.4327  -31.0592   17.6324 C   0  0  0  0  0  0
  -30.2108  -15.2313   21.5435 N   0  0  0  0  0  0
  -27.1039  -20.5428   18.7318 O   0  0  0  0  0  0
  -24.7135  -24.6036   16.3332 O   0  0  0  0  0  0
  -26.2164  -29.0821   15.9733 O   0  0  0  0  0  0
  -29.7575  -29.2579   19.1742 O   0  0  0  0  0  0
  -28.6204  -30.3352   16.7196 O   0  0  0  0  0  0
  -31.4603  -12.3918   19.0883 H   0  0  0  0  0  0
  -30.3198  -11.2665   19.7661 H   0  0  0  0  0  0
  -29.7122  -11.8063   17.3969 H   0  0  0  0  0  0
  -29.6555  -13.5117   17.7752 H   0  0  0  0  0  0
  -27.8110  -11.3208   18.7897 H   0  0  0  0  0  0
  -27.3537  -12.6727   17.7872 H   0  0  0  0  0  0
  -27.7253  -14.2561   19.6090 H   0  0  0  0  0  0
  -28.6703  -11.8937   21.3001 H   0  0  0  0  0  0
  -28.4551  -13.5066   21.8897 H   0  0  0  0  0  0
  -25.2754   -9.5690   22.4756 H   0  0  0  0  0  0
  -23.9999   -7.4642   22.7476 H   0  0  0  0  0  0
  -21.0843   -8.8772   19.8954 H   0  0  0  0  0  0
  -22.3687  -10.9677   19.6169 H   0  0  0  0  0  0
  -21.2000   -7.6145   23.9714 H   0  0  0  0  0  0
  -21.1484   -6.0525   25.9078 H   0  0  0  0  0  0
  -22.0596   -2.7609   23.2848 H   0  0  0  0  0  0
  -22.4109  -11.9898   22.4770 H   0  0  0  0  0  0
  -21.1129  -13.1291   22.2599 H   0  0  0  0  0  0
  -24.6747  -15.8487   20.5212 H   0  0  0  0  0  0
  -26.2980  -15.6205   20.1004 H   0  0  0  0  0  0
  -26.7069  -32.5615   23.1190 H   0  0  0  0  0  0
  -25.0020  -33.9837   25.0489 H   0  0  0  0  0  0
  -22.6768  -31.3058   21.4169 H   0  0  0  0  0  0
  -23.3737  -35.9678   23.3277 H   0  0  0  0  0  0
  -24.3597  -36.8981   22.2063 H   0  0  0  0  0  0
  -23.7251  -37.6537   23.6676 H   0  0  0  0  0  0
  -26.0069  -31.6225   20.5803 H   0  0  0  0  0  0
  -26.8077  -30.9257   21.9583 H   0  0  0  0  0  0
  -28.0708  -29.2208   21.1445 H   0  0  0  0  0  0
  -26.0987  -25.9764   19.0650 H   0  0  0  0  0  0
  -23.9841  -27.2576   19.0969 H   0  0  0  0  0  0
  -23.7102  -30.5952   19.4075 H   0  0  0  0  0  0
  -22.7277  -29.2381   19.8721 H   0  0  0  0  0  0
  -25.1265  -36.1975   25.0843 H   0  0  0  0  0  0
  -20.9941  -28.3144   24.1466 H   0  0  0  0  0  0
  -20.5623  -26.2206   23.3579 H   0  0  0  0  0  0
  -21.6650  -26.7389   22.1246 H   0  0  0  0  0  0
  -19.6912  -25.6276   21.1221 H   0  0  0  0  0  0
  -19.6725  -27.3171   20.6707 H   0  0  0  0  0  0
  -17.4204  -26.6675   21.3974 H   0  0  0  0  0  0
  -18.0314  -26.0052   22.8967 H   0  0  0  0  0  0
  -19.7912  -30.7222   24.2324 H   0  0  0  0  0  0
  -17.4983  -31.6252   24.5111 H   0  0  0  0  0  0
  -15.5338  -30.2931   23.7621 H   0  0  0  0  0  0
  -15.8680  -28.0774   22.7027 H   0  0  0  0  0  0
  -24.5966  -30.7026   25.7817 H   0  0  0  0  0  0
  -24.8977  -32.2817   26.4977 H   0  0  0  0  0  0
  -25.8188  -30.8822   27.0198 H   0  0  0  0  0  0
  -26.2717  -29.6841   24.1184 H   0  0  0  0  0  0
  -27.4214  -29.7314   25.4370 H   0  0  0  0  0  0
  -27.8495  -30.4424   23.8964 H   0  0  0  0  0  0
  -27.2696  -33.3613   26.2086 H   0  0  0  0  0  0
  -28.3839  -32.6944   25.0253 H   0  0  0  0  0  0
  -28.0794  -31.8438   26.5325 H   0  0  0  0  0  0
  -28.2571  -38.0128   24.7497 H   0  0  0  0  0  0
  -28.1107  -36.2658   24.6264 H   0  0  0  0  0  0
  -27.2334  -37.1436   25.8872 H   0  0  0  0  0  0
  -20.9256  -29.8701   21.6994 H   0  0  0  0  0  0
  -26.0164  -38.2869   24.1443 H   0  0  0  0  0  0
  -28.5222  -18.1585   21.7437 H   0  0  0  0  0  0
  -28.4554  -17.0643   20.3824 H   0  0  0  0  0  0
  -30.9703  -18.5535   21.2819 H   0  0  0  0  0  0
  -30.9078  -17.4089   19.9742 H   0  0  0  0  0  0
  -29.1653  -18.9307   18.8559 H   0  0  0  0  0  0
  -29.2172  -20.0251   20.2166 H   0  0  0  0  0  0
  -26.1549  -22.8860   17.8584 H   0  0  0  0  0  0
  -26.3550  -21.7482   16.5484 H   0  0  0  0  0  0
  -23.6748  -22.6279   17.7388 H   0  0  0  0  0  0
  -23.8456  -21.3915   16.5206 H   0  0  0  0  0  0
  -26.2137  -26.6470   16.6584 H   0  0  0  0  0  0
  -24.5597  -27.2001   16.7944 H   0  0  0  0  0  0
  -30.3692  -16.7782   22.9273 H   0  0  0  0  0  0
  -31.8506  -16.4245   22.0810 H   0  0  0  0  0  0
  -26.7567  -19.6948   20.5851 H   0  0  0  0  0  0
  -26.7145  -18.5719   19.2288 H   0  0  0  0  0  0
  -25.2823  -19.9539   17.9658 H   0  0  0  0  0  0
  -25.1925  -21.0955   19.3038 H   0  0  0  0  0  0
  -23.2544  -23.4796   15.4111 H   0  0  0  0  0  0
  -24.9007  -23.0566   14.9619 H   0  0  0  0  0  0
  -25.5782  -25.3282   14.6015 H   0  0  0  0  0  0
  -23.8986  -25.8066   14.8504 H   0  0  0  0  0  0
  -24.7546  -28.4373   14.6556 H   0  0  0  0  0  0
  -26.3607  -27.7531   14.3911 H   0  0  0  0  0  0
  -29.5686  -27.7604   21.4204 H   0  0  0  0  0  0
  -30.2470  -26.3357   20.7252 H   0  0  0  0  0  0
  -30.4154  -27.4296   18.4647 H   0  0  0  0  0  0
  -31.4182  -28.1686   19.7050 H   0  0  0  0  0  0
  -27.4134  -29.8427   14.4539 H   0  0  0  0  0  0
  -25.9308  -30.7356   14.7753 H   0  0  0  0  0  0
  -26.8602  -31.3841   17.0492 H   0  0  0  0  0  0
  -27.8586  -31.9771   15.7242 H   0  0  0  0  0  0
  -31.2365  -30.6170   18.7594 H   0  0  0  0  0  0
  -30.9136  -29.4969   17.4457 H   0  0  0  0  0  0
  -29.9549  -31.8542   17.0974 H   0  0  0  0  0  0
  -28.8358  -31.5263   18.4182 H   0  0  0  0  0  0
  -29.3532  -14.9369   21.9870 H   0  0  0  0  0  0
  1 25  1  0  0  0
  1 30  2  0  0  0
  1 89  1  0  0  0
  2  3  1  0  0  0
  2 25  1  0  0  0
  2 95  1  0  0  0
  2 96  1  0  0  0
  3  4  1  0  0  0
  3 97  1  0  0  0
  3 98  1  0  0  0
  4  5  1  0  0  0
  4 99  1  0  0  0
  4100  1  0  0  0
  5  6  1  0  0  0
  5 26  1  0  0  0
  5101  1  0  0  0
  6 25  1  0  0  0
  6102  1  0  0  0
  6103  1  0  0  0
  7  8  2  0  0  0
  7 26  1  0  0  0
  7 29  1  0  0  0
  8  9  1  0  0  0
  8 22  1  0  0  0
  9 10  1  0  0  0
  9 27  2  0  0  0
 10 11  2  0  0  0
 10 15  1  0  0  0
 11 12  1  0  0  0
 11104  1  0  0  0
 12 13  2  0  0  0
 12105  1  0  0  0
 13 14  1  0  0  0
 13 31  1  0  0  0
 14 15  2  0  0  0
 14106  1  0  0  0
 15107  1  0  0  0
 16 17  2  0  0  0
 16 21  1  0  0  0
 16 31  1  0  0  0
 17 18  1  0  0  0
 17108  1  0  0  0
 18 19  2  0  0  0
 18109  1  0  0  0
 19 20  1  0  0  0
 19 24  1  0  0  0
 20 21  2  0  0  0
 20110  1  0  0  0
 21 23  1  0  0  0
 22 28  1  0  0  0
 22 32  2  0  0  0
 26 27  1  0  0  0
 28111  1  0  0  0
 28112  1  0  0  0
 29113  1  0  0  0
 29114  1  0  0  0
 33 34  1  0  0  0
 33 66  1  0  0  0
 33 70  2  0  0  0
 34 36  1  0  0  0
 34 59  1  0  0  0
 34115  1  0  0  0
 35 44  2  0  0  0
 35 45  1  0  0  0
 35 68  1  0  0  0
 36 56  1  0  0  0
 36116  1  0  0  0
 37 39  1  0  0  0
 37 47  1  0  0  0
 37 66  1  0  0  0
 37117  1  0  0  0
 38 43  2  0  0  0
 38 46  1  0  0  0
 38 47  1  0  0  0
 39 64  1  0  0  0
 39 67  2  0  0  0
 40 52  1  0  0  0
 40 53  2  0  0  0
 40 58  1  0  0  0
 41118  1  0  0  0
 41119  1  0  0  0
 41120  1  0  0  0
 41 48  1  0  0  0
 42 43  1  0  0  0
 42 66  1  0  0  0
 42121  1  0  0  0
 42122  1  0  0  0
 43 44  1  0  0  0
 44123  1  0  0  0
 45 46  2  0  0  0
 45124  1  0  0  0
 46125  1  0  0  0
 47126  1  0  0  0
 47127  1  0  0  0
 48 56  1  0  0  0
 48 65  1  0  0  0
 48128  1  0  0  0
 49 50  1  0  0  0
 49 53  1  0  0  0
 49 64  1  0  0  0
 49129  1  0  0  0
 50 51  1  0  0  0
 50130  1  0  0  0
 50131  1  0  0  0
 51 52  1  0  0  0
 51132  1  0  0  0
 51133  1  0  0  0
 52134  1  0  0  0
 52135  1  0  0  0
 53 54  1  0  0  0
 54 55  2  0  0  0
 54136  1  0  0  0
 55 57  1  0  0  0
 55137  1  0  0  0
 56 69  2  0  0  0
 57 58  2  0  0  0
 57138  1  0  0  0
 58139  1  0  0  0
 59 60  1  0  0  0
 59 61  1  0  0  0
 59 62  1  0  0  0
 60140  1  0  0  0
 60141  1  0  0  0
 60142  1  0  0  0
 61143  1  0  0  0
 61144  1  0  0  0
 61145  1  0  0  0
 62146  1  0  0  0
 62147  1  0  0  0
 62148  1  0  0  0
 63 65  1  0  0  0
 63149  1  0  0  0
 63150  1  0  0  0
 63151  1  0  0  0
 64152  1  0  0  0
 65153  1  0  0  0
 68 83  1  0  0  0
 71 72  1  0  0  0
 71 73  1  0  0  0
 71154  1  0  0  0
 71155  1  0  0  0
 72 77  1  0  0  0
 72156  1  0  0  0
 72157  1  0  0  0
 73 78  1  0  0  0
 73158  1  0  0  0
 73159  1  0  0  0
 74 75  1  0  0  0
 74 79  1  0  0  0
 74160  1  0  0  0
 74161  1  0  0  0
 75 80  1  0  0  0
 75162  1  0  0  0
 75163  1  0  0  0
 76 81  1  0  0  0
 76 82  1  0  0  0
 76164  1  0  0  0
 76165  1  0  0  0
 77 89  1  0  0  0
 77166  1  0  0  0
 77167  1  0  0  0
 78 90  1  0  0  0
 78168  1  0  0  0
 78169  1  0  0  0
 79 90  1  0  0  0
 79170  1  0  0  0
 79171  1  0  0  0
 80 91  1  0  0  0
 80172  1  0  0  0
 80173  1  0  0  0
 81 91  1  0  0  0
 81174  1  0  0  0
 81175  1  0  0  0
 82 92  1  0  0  0
 82176  1  0  0  0
 82177  1  0  0  0
 83 84  1  0  0  0
 83178  1  0  0  0
 83179  1  0  0  0
 84 93  1  0  0  0
 84180  1  0  0  0
 84181  1  0  0  0
 85 86  1  0  0  0
 85 92  1  0  0  0
 85182  1  0  0  0
 85183  1  0  0  0
 86 94  1  0  0  0
 86184  1  0  0  0
 86185  1  0  0  0
 87 88  1  0  0  0
 87 93  1  0  0  0
 87186  1  0  0  0
 87187  1  0  0  0
 88 94  1  0  0  0
 88188  1  0  0  0
 88189  1  0  0  0
 89190  1  0  0  0
M  ISO  4   1 100  68 101  83 101  89 100
M  END
> <chiral flag>
0

> <version>
0

> <s_m_source_file>
/data/baiqing/PycharmProjects/Reinvent-master-3.2/result/LINK_invent/BTK/process_docking_weight1_custom_product_contain_oxygen_bond_distance_aromatic_linkinvent_7_9_3/rearranged_h_0000.sdf

> <i_m_source_file_index>
5

> <r_mmod_Potential_Energy-OPLS-2005>
-143.327102661133

> <r_mmod_Stretch_Energy-OPLS-2005>
31.66770362854

> <r_mmod_Bend_Energy-OPLS-2005>
105.058906555176

> <r_mmod_Torsional_Energy-OPLS-2005>
183.417404174805

> <r_mmod_Improper_Torsional_Energy-OPLS-2005>
1.70915555953979

> <r_mmod_Van_der_Waal_Energy-OPLS-2005>
116.597045898438

> <r_mmod_Electrostatic_Energy-OPLS-2005>
-337.092102050781

> <r_mmod_Solvation_Energy-OPLS-2005>
-250.553131103516

> <b_mmod_Minimization_Converged-OPLS-2005>
0

> <r_mmod_RMS_Derivative-OPLS-2005>
1.70403516292572

$$$$
5
                    3D
 Structure written by MMmdl.
167176  0  0  1  0            999 V2000
  -30.0869  -16.3102   20.5051 C   0  0  0  0  0  0
  -30.3618  -13.6112   19.6312 C   0  0  0  0  0  0
  -29.5860  -12.8962   18.4513 C   0  0  0  0  0  0
  -28.2225  -12.3682   18.9021 C   0  0  0  0  0  0
  -27.5878  -13.3968   19.8513 C   0  0  2  0  0  0
  -28.5353  -13.9772   20.9604 C   0  0  0  0  0  0
  -25.2194  -13.8408   20.5884 C   0  0  0  0  0  0
  -24.1658  -13.0442   20.9301 C   0  0  0  0  0  0
  -24.6484  -11.6989   20.8753 C   0  0  0  0  0  0
  -23.9193  -10.4295   21.0353 C   0  0  0  0  0  0
  -24.3689   -9.4213   21.9164 C   0  0  0  0  0  0
  -23.6331   -8.2264   22.0750 C   0  0  0  0  0  0
  -22.4313   -8.0305   21.3537 C   0  0  0  0  0  0
  -21.9975   -9.0279   20.4629 C   0  0  0  0  0  0
  -22.7338  -10.2139   20.3019 C   0  0  0  0  0  0
  -21.6870   -6.0750   22.5267 C   0  0  0  0  0  0
  -21.4044   -6.5651   23.8205 C   0  0  0  0  0  0
  -21.3667   -5.6803   24.9170 C   0  0  0  0  0  0
  -21.6030   -4.3060   24.7215 C   0  0  0  0  0  0
  -21.8821   -3.8151   23.4339 C   0  0  0  0  0  0
  -21.9204   -4.6974   22.3398 C   0  0  0  0  0  0
  -22.7651  -13.5096   21.1926 C   0  0  0  0  0  0
  -22.1656   -4.2162   21.0972 F   0  0  0  0  0  0
  -21.5622   -3.4538   25.7722 F   0  0  0  0  0  0
  -29.6176  -14.8335   20.3327 N   0  0  0  0  0  0
  -26.2782  -12.9923   20.3469 N   0  0  0  0  0  0
  -25.9483  -11.6887   20.5711 N   0  0  0  0  0  0
  -22.0356  -12.8054   22.0490 N   0  0  0  0  0  0
  -25.3705  -15.2163   20.4293 N   0  0  0  0  0  0
  -31.3240  -16.1212   20.3353 O   0  0  0  0  0  0
  -21.6667   -6.8903   21.4230 O   0  0  0  0  0  0
  -22.3300  -14.5391   20.6779 O   0  0  0  0  0  0
  -24.7245  -31.7638   23.2337 C   0  0  0  0  0  0
  -25.9744  -32.4274   23.8695 C   0  0  1  0  0  0
  -26.9320  -25.6724   19.5257 C   0  0  0  0  0  0
  -25.6224  -33.8227   24.2177 N   0  0  0  0  0  0
  -23.6255  -30.3684   21.5735 C   0  0  2  0  0  0
  -25.2376  -28.7698   20.1729 C   0  0  0  0  0  0
  -22.8115  -29.3914   22.4713 C   0  0  0  0  0  0
  -18.0397  -28.1471   22.8392 C   0  0  0  0  0  0
  -24.1544  -36.7039   23.2607 C   0  0  0  0  0  0
  -26.1822  -30.1045   21.9211 C   0  0  0  0  0  0
  -26.1635  -28.5446   21.5091 C   0  0  0  0  0  0
  -27.1638  -26.9471   21.7799 C   0  0  0  0  0  0
  -25.9374  -26.5118   18.4902 C   0  0  0  0  0  0
  -25.2035  -27.8907   18.8531 C   0  0  0  0  0  0
  -24.0347  -29.7613   20.2065 C   0  0  0  0  0  0
  -25.4202  -36.2814   24.0253 C   0  0  1  0  0  0
  -20.6063  -28.3863   23.0927 C   0  0  2  0  0  0
  -20.6842  -26.9465   22.5328 C   0  0  0  0  0  0
  -19.5811  -26.6357   21.5172 C   0  0  0  0  0  0
  -18.2002  -26.7983   22.1578 C   0  0  0  0  0  0
  -19.1681  -28.9018   23.2619 C   0  0  0  0  0  0
  -18.9565  -30.1573   23.8721 C   0  0  0  0  0  0
  -17.6545  -30.6625   24.0532 C   0  0  0  0  0  0
  -25.9204  -34.9157   23.5004 C   0  0  0  0  0  0
  -16.5430  -29.9084   23.6378 C   0  0  0  0  0  0
  -16.7365  -28.6515   23.0375 C   0  0  0  0  0  0
  -26.4746  -31.6695   25.1647 C   0  0  0  0  0  0
  -25.3524  -31.4386   26.2011 C   0  0  0  0  0  0
  -27.0870  -30.2766   24.9030 C   0  0  0  0  0  0
  -27.6100  -32.4884   25.8203 C   0  0  0  0  0  0
  -27.5593  -37.1697   24.8468 C   0  0  0  0  0  0
  -21.4726  -29.2996   22.3245 N   0  0  0  0  0  0
  -26.4314  -37.3597   23.9386 N   0  0  0  0  0  0
  -24.8679  -30.8079   22.2660 N   0  0  0  0  0  0
  -23.4067  -28.7302   23.3238 O   0  0  0  0  0  0
  -27.8781  -25.0961   18.7203 O   0  0  0  0  0  0
  -26.5766  -34.8668   22.4581 O   0  0  0  0  0  0
  -23.6087  -32.1380   23.6377 O   0  0  0  0  0  0
  -25.3476  -26.4220   20.7767 C   0  0  0  0  0  0
  -27.5509  -27.6869   19.8195 C   0  0  0  0  0  0
  -25.8018  -24.8934   21.4625 C   0  0  0  0  0  0
  -28.9574  -26.4966   20.3280 C   0  0  0  0  0  0
  -27.2937  -24.0855   21.4066 C   0  0  0  0  0  0
  -28.7063  -24.7735   20.9544 C   0  0  0  0  0  0
  -28.7726  -21.8944   21.0308 C   0  0  0  0  0  0
  -29.5317  -19.8861   20.8195 C   0  0  0  0  0  0
  -30.8487  -23.2588   20.4940 C   0  0  0  0  0  0
  -31.2505  -24.1276   19.2875 C   0  0  0  0  0  0
  -27.3683  -24.2296   17.6909 C   0  0  0  0  0  0
  -28.2854  -23.0309   17.4359 C   0  0  0  0  0  0
  -31.8486  -23.2469   17.1064 C   0  0  0  0  0  0
  -30.5274  -22.5103   16.8237 C   0  0  0  0  0  0
  -27.5136  -22.5254   21.4334 N   0  0  0  0  0  0
  -29.4345  -23.3009   20.8415 N   0  0  0  0  0  0
  -29.3899  -17.8770   20.6925 N   0  0  0  0  0  0
  -32.1523  -23.3612   18.4956 O   0  0  0  0  0  0
  -29.4745  -23.4667   16.7961 O   0  0  0  0  0  0
  -31.3013  -13.9678   19.2108 H   0  0  0  0  0  0
  -30.6739  -12.8706   20.3725 H   0  0  0  0  0  0
  -30.1860  -12.0860   18.0343 H   0  0  0  0  0  0
  -29.4376  -13.6167   17.6460 H   0  0  0  0  0  0
  -28.3706  -11.4300   19.4400 H   0  0  0  0  0  0
  -27.5742  -12.1500   18.0523 H   0  0  0  0  0  0
  -27.3843  -14.2399   19.1904 H   0  0  0  0  0  0
  -28.9241  -13.1938   21.6141 H   0  0  0  0  0  0
  -27.9626  -14.6262   21.6234 H   0  0  0  0  0  0
  -25.2805   -9.5707   22.4782 H   0  0  0  0  0  0
  -24.0020   -7.4669   22.7496 H   0  0  0  0  0  0
  -21.0904   -8.8808   19.8939 H   0  0  0  0  0  0
  -22.3772  -10.9686   19.6144 H   0  0  0  0  0  0
  -21.2051   -7.6161   23.9722 H   0  0  0  0  0  0
  -21.1480   -6.0524   25.9078 H   0  0  0  0  0  0
  -22.0593   -2.7612   23.2831 H   0  0  0  0  0  0
  -22.3994  -11.9712   22.4863 H   0  0  0  0  0  0
  -21.0971  -13.1049   22.2709 H   0  0  0  0  0  0
  -24.6008  -15.8683   20.5374 H   0  0  0  0  0  0
  -26.2201  -15.6548   20.0981 H   0  0  0  0  0  0
  -26.7832  -32.4461   23.1368 H   0  0  0  0  0  0
  -25.0408  -33.9407   25.0343 H   0  0  0  0  0  0
  -22.9857  -31.2283   21.3621 H   0  0  0  0  0  0
  -23.3871  -35.9294   23.3186 H   0  0  0  0  0  0
  -24.3620  -36.8777   22.2033 H   0  0  0  0  0  0
  -23.7211  -37.6170   23.6713 H   0  0  0  0  0  0
  -26.5154  -30.6389   21.0269 H   0  0  0  0  0  0
  -27.0348  -30.3094   22.5372 H   0  0  0  0  0  0
  -27.9173  -26.8322   22.5483 H   0  0  0  0  0  0
  -25.7948  -26.1873   17.4753 H   0  0  0  0  0  0
  -24.5404  -28.2500   18.0774 H   0  0  0  0  0  0
  -24.2875  -30.5776   19.5283 H   0  0  0  0  0  0
  -23.1672  -29.2714   19.7602 H   0  0  0  0  0  0
  -25.1382  -36.1627   25.0737 H   0  0  0  0  0  0
  -21.0052  -28.3480   24.1088 H   0  0  0  0  0  0
  -20.5693  -26.2496   23.3641 H   0  0  0  0  0  0
  -21.6688  -26.7341   22.1148 H   0  0  0  0  0  0
  -19.6947  -25.6224   21.1306 H   0  0  0  0  0  0
  -19.6760  -27.3075   20.6627 H   0  0  0  0  0  0
  -17.4264  -26.6717   21.3984 H   0  0  0  0  0  0
  -18.0383  -26.0175   22.9023 H   0  0  0  0  0  0
  -19.8037  -30.7432   24.2018 H   0  0  0  0  0  0
  -17.5088  -31.6281   24.5177 H   0  0  0  0  0  0
  -15.5421  -30.2925   23.7823 H   0  0  0  0  0  0
  -15.8761  -28.0779   22.7188 H   0  0  0  0  0  0
  -24.5937  -30.7431   25.8414 H   0  0  0  0  0  0
  -24.8445  -32.3658   26.4654 H   0  0  0  0  0  0
  -25.7430  -31.0196   27.1293 H   0  0  0  0  0  0
  -26.3797  -29.5722   24.4662 H   0  0  0  0  0  0
  -27.3807  -29.8185   25.8490 H   0  0  0  0  0  0
  -28.0115  -30.3223   24.3274 H   0  0  0  0  0  0
  -27.2650  -33.4504   26.2015 H   0  0  0  0  0  0
  -28.4146  -32.6927   25.1124 H   0  0  0  0  0  0
  -28.0530  -31.9652   26.6690 H   0  0  0  0  0  0
  -28.2539  -38.0066   24.7593 H   0  0  0  0  0  0
  -28.1177  -36.2585   24.6253 H   0  0  0  0  0  0
  -27.2274  -37.1252   25.8858 H   0  0  0  0  0  0
  -21.0239  -29.8806   21.6305 H   0  0  0  0  0  0
  -26.0136  -38.2644   24.1402 H   0  0  0  0  0  0
  -24.2994  -26.7085   20.8154 H   0  0  0  0  0  0
  -27.6665  -28.6511   19.3350 H   0  0  0  0  0  0
  -24.9811  -24.2884   21.8175 H   0  0  0  0  0  0
  -29.9564  -26.7643   20.0183 H   0  0  0  0  0  0
  -30.3273  -19.9156   21.5629 H   0  0  0  0  0  0
  -30.0685  -20.0195   19.8813 H   0  0  0  0  0  0
  -31.4265  -23.5431   21.3711 H   0  0  0  0  0  0
  -31.1198  -22.2226   20.2919 H   0  0  0  0  0  0
  -31.7595  -25.0292   19.6296 H   0  0  0  0  0  0
  -30.3894  -24.4748   18.7259 H   0  0  0  0  0  0
  -26.3889  -23.8372   17.9743 H   0  0  0  0  0  0
  -27.2401  -24.7780   16.7574 H   0  0  0  0  0  0
  -27.7856  -22.3110   16.7872 H   0  0  0  0  0  0
  -28.4911  -22.5279   18.3784 H   0  0  0  0  0  0
  -31.8736  -24.2178   16.6129 H   0  0  0  0  0  0
  -32.6600  -22.6639   16.6726 H   0  0  0  0  0  0
  -30.3773  -21.7111   17.5524 H   0  0  0  0  0  0
  -30.5706  -22.0304   15.8465 H   0  0  0  0  0  0
  -28.4002  -17.6861   20.7672 H   0  0  0  0  0  0
  1 25  1  0  0  0
  1 30  2  0  0  0
  1 87  1  0  0  0
  2  3  1  0  0  0
  2 25  1  0  0  0
  2 90  1  0  0  0
  2 91  1  0  0  0
  3  4  1  0  0  0
  3 92  1  0  0  0
  3 93  1  0  0  0
  4  5  1  0  0  0
  4 94  1  0  0  0
  4 95  1  0  0  0
  5  6  1  0  0  0
  5 26  1  0  0  0
  5 96  1  0  0  0
  6 25  1  0  0  0
  6 97  1  0  0  0
  6 98  1  0  0  0
  7  8  2  0  0  0
  7 26  1  0  0  0
  7 29  1  0  0  0
  8  9  1  0  0  0
  8 22  1  0  0  0
  9 10  1  0  0  0
  9 27  2  0  0  0
 10 11  2  0  0  0
 10 15  1  0  0  0
 11 12  1  0  0  0
 11 99  1  0  0  0
 12 13  2  0  0  0
 12100  1  0  0  0
 13 14  1  0  0  0
 13 31  1  0  0  0
 14 15  2  0  0  0
 14101  1  0  0  0
 15102  1  0  0  0
 16 17  2  0  0  0
 16 21  1  0  0  0
 16 31  1  0  0  0
 17 18  1  0  0  0
 17103  1  0  0  0
 18 19  2  0  0  0
 18104  1  0  0  0
 19 20  1  0  0  0
 19 24  1  0  0  0
 20 21  2  0  0  0
 20105  1  0  0  0
 21 23  1  0  0  0
 22 28  1  0  0  0
 22 32  2  0  0  0
 26 27  1  0  0  0
 28106  1  0  0  0
 28107  1  0  0  0
 29108  1  0  0  0
 29109  1  0  0  0
 33 34  1  0  0  0
 33 66  1  0  0  0
 33 70  2  0  0  0
 34 36  1  0  0  0
 34 59  1  0  0  0
 34110  1  0  0  0
 35 44  2  0  0  0
 35 45  1  0  0  0
 35 68  1  0  0  0
 36 56  1  0  0  0
 36111  1  0  0  0
 37 39  1  0  0  0
 37 47  1  0  0  0
 37 66  1  0  0  0
 37112  1  0  0  0
 38 43  2  0  0  0
 38 46  1  0  0  0
 38 47  1  0  0  0
 39 64  1  0  0  0
 39 67  2  0  0  0
 40 52  1  0  0  0
 40 53  2  0  0  0
 40 58  1  0  0  0
 41113  1  0  0  0
 41114  1  0  0  0
 41115  1  0  0  0
 41 48  1  0  0  0
 42 43  1  0  0  0
 42 66  1  0  0  0
 42116  1  0  0  0
 42117  1  0  0  0
 43 44  1  0  0  0
 44118  1  0  0  0
 45 46  2  0  0  0
 45119  1  0  0  0
 46120  1  0  0  0
 47121  1  0  0  0
 47122  1  0  0  0
 48 56  1  0  0  0
 48 65  1  0  0  0
 48123  1  0  0  0
 49 50  1  0  0  0
 49 53  1  0  0  0
 49 64  1  0  0  0
 49124  1  0  0  0
 50 51  1  0  0  0
 50125  1  0  0  0
 50126  1  0  0  0
 51 52  1  0  0  0
 51127  1  0  0  0
 51128  1  0  0  0
 52129  1  0  0  0
 52130  1  0  0  0
 53 54  1  0  0  0
 54 55  2  0  0  0
 54131  1  0  0  0
 55 57  1  0  0  0
 55132  1  0  0  0
 56 69  2  0  0  0
 57 58  2  0  0  0
 57133  1  0  0  0
 58134  1  0  0  0
 59 60  1  0  0  0
 59 61  1  0  0  0
 59 62  1  0  0  0
 60135  1  0  0  0
 60136  1  0  0  0
 60137  1  0  0  0
 61138  1  0  0  0
 61139  1  0  0  0
 61140  1  0  0  0
 62141  1  0  0  0
 62142  1  0  0  0
 62143  1  0  0  0
 63 65  1  0  0  0
 63144  1  0  0  0
 63145  1  0  0  0
 63146  1  0  0  0
 64147  1  0  0  0
 65148  1  0  0  0
 68 81  1  0  0  0
 71 72  2  0  0  0
 71 73  1  0  0  0
 71149  1  0  0  0
 72 74  1  0  0  0
 72150  1  0  0  0
 73 75  2  0  0  0
 73151  1  0  0  0
 74 76  2  0  0  0
 74152  1  0  0  0
 75 76  1  0  0  0
 75 85  1  0  0  0
 76 86  1  0  0  0
 77 78  1  0  0  0
 77 85  2  0  0  0
 77 86  1  0  0  0
 78 87  1  0  0  0
 78153  1  0  0  0
 78154  1  0  0  0
 79 80  1  0  0  0
 79 86  1  0  0  0
 79155  1  0  0  0
 79156  1  0  0  0
 80 88  1  0  0  0
 80157  1  0  0  0
 80158  1  0  0  0
 81 82  1  0  0  0
 81159  1  0  0  0
 81160  1  0  0  0
 82 89  1  0  0  0
 82161  1  0  0  0
 82162  1  0  0  0
 83 84  1  0  0  0
 83 88  1  0  0  0
 83163  1  0  0  0
 83164  1  0  0  0
 84 89  1  0  0  0
 84165  1  0  0  0
 84166  1  0  0  0
 87167  1  0  0  0
M  ISO  4   1 100  68 101  81 101  87 100
M  END
> <chiral flag>
0

> <version>
0

> <s_m_source_file>
/data/baiqing/PycharmProjects/Reinvent-master-3.2/result/LINK_invent/BTK/process_docking_weight1_custom_product_contain_oxygen_bond_distance_aromatic_linkinvent_7_9_3/rearranged_h_0000.sdf

> <i_m_source_file_index>
6

> <r_mmod_Potential_Energy-OPLS-2005>
18094.072265625

> <r_mmod_Stretch_Energy-OPLS-2005>
10351.6259765625

> <r_mmod_Bend_Energy-OPLS-2005>
1115.29272460938

> <r_mmod_Torsional_Energy-OPLS-2005>
391.579803466797

> <r_mmod_Improper_Torsional_Energy-OPLS-2005>
36.5348892211914

> <r_mmod_Van_der_Waal_Energy-OPLS-2005>
3737.87036132812

> <r_mmod_Electrostatic_Energy-OPLS-2005>
-392.646453857422

> <r_mmod_Solvation_Energy-OPLS-2005>
-257.239562988281

> <b_mmod_Minimization_Converged-OPLS-2005>
0

> <r_mmod_RMS_Derivative-OPLS-2005>
6.27659511566162

$$$$
6
                    3D
 Structure written by MMmdl.
163171  0  0  1  0            999 V2000
  -30.7899  -14.3235   20.7175 C   0  0  0  0  0  0
  -30.4158  -12.2817   19.3837 C   0  0  0  0  0  0
  -29.4833  -12.5234   18.1842 C   0  0  0  0  0  0
  -28.0067  -12.3889   18.5988 C   0  0  0  0  0  0
  -27.6681  -13.2027   19.8767 C   0  0  2  0  0  0
  -28.7053  -12.9328   20.9887 C   0  0  0  0  0  0
  -25.2632  -13.8154   20.5679 C   0  0  0  0  0  0
  -24.1862  -13.0454   20.9199 C   0  0  0  0  0  0
  -24.6392  -11.6915   20.8744 C   0  0  0  0  0  0
  -23.9051  -10.4306   21.0382 C   0  0  0  0  0  0
  -24.3607   -9.4224   21.9152 C   0  0  0  0  0  0
  -23.6298   -8.2255   22.0726 C   0  0  0  0  0  0
  -22.4269   -8.0281   21.3533 C   0  0  0  0  0  0
  -21.9912   -9.0247   20.4625 C   0  0  0  0  0  0
  -22.7230  -10.2131   20.3033 C   0  0  0  0  0  0
  -21.6856   -6.0725   22.5281 C   0  0  0  0  0  0
  -21.4006   -6.5630   23.8228 C   0  0  0  0  0  0
  -21.3672   -5.6772   24.9183 C   0  0  0  0  0  0
  -21.6065   -4.3041   24.7231 C   0  0  0  0  0  0
  -21.8826   -3.8130   23.4337 C   0  0  0  0  0  0
  -21.9197   -4.6951   22.3394 C   0  0  0  0  0  0
  -22.7890  -13.5255   21.1824 C   0  0  0  0  0  0
  -22.1662   -4.2133   21.0965 F   0  0  0  0  0  0
  -21.5642   -3.4529   25.7752 F   0  0  0  0  0  0
  -30.0503  -13.2149   20.4580 N   0  0  0  0  0  0
  -26.3063  -12.9317   20.3373 N   0  0  0  0  0  0
  -25.9317  -11.6474   20.5758 N   0  0  0  0  0  0
  -22.0471  -12.8305   22.0378 N   0  0  0  0  0  0
  -25.4394  -15.1863   20.4071 N   0  0  0  0  0  0
  -31.7747  -14.6573   20.0516 O   0  0  0  0  0  0
  -21.6639   -6.8874   21.4244 O   0  0  0  0  0  0
  -22.3598  -14.5535   20.6602 O   0  0  0  0  0  0
  -24.6106  -31.8699   23.2160 C   0  0  0  0  0  0
  -25.9023  -32.4831   23.8401 C   0  0  1  0  0  0
  -27.2253  -27.4564   20.1080 C   0  0  0  0  0  0
  -25.5890  -33.8622   24.2319 N   0  0  0  0  0  0
  -23.3972  -30.4942   21.5558 C   0  0  2  0  0  0
  -24.8475  -28.9719   20.1112 C   0  0  0  0  0  0
  -22.7399  -29.4650   22.5014 C   0  0  0  0  0  0
  -18.0267  -28.1393   22.8497 C   0  0  0  0  0  0
  -24.1482  -36.7326   23.2635 C   0  0  0  0  0  0
  -25.9257  -30.8400   21.3751 C   0  0  0  0  0  0
  -26.0023  -29.4772   20.7254 C   0  0  0  0  0  0
  -27.1949  -28.7203   20.7366 C   0  0  0  0  0  0
  -26.0735  -26.9860   19.4451 C   0  0  0  0  0  0
  -24.8760  -27.7231   19.4686 C   0  0  0  0  0  0
  -23.6057  -29.8321   20.1674 C   0  0  0  0  0  0
  -25.4109  -36.3101   24.0322 C   0  0  1  0  0  0
  -20.5857  -28.3649   23.1344 C   0  0  2  0  0  0
  -20.6763  -26.9389   22.5446 C   0  0  0  0  0  0
  -19.5739  -26.6385   21.5248 C   0  0  0  0  0  0
  -18.1911  -26.7936   22.1644 C   0  0  0  0  0  0
  -19.1512  -28.8843   23.2913 C   0  0  0  0  0  0
  -18.9445  -30.1466   23.8902 C   0  0  0  0  0  0
  -17.6442  -30.6592   24.0575 C   0  0  0  0  0  0
  -25.9037  -34.9470   23.5113 C   0  0  0  0  0  0
  -16.5334  -29.9095   23.6345 C   0  0  0  0  0  0
  -16.7253  -28.6528   23.0327 C   0  0  0  0  0  0
  -26.4468  -31.6595   25.0714 C   0  0  0  0  0  0
  -25.3747  -31.3746   26.1468 C   0  0  0  0  0  0
  -27.0257  -30.2990   24.6095 C   0  0  0  0  0  0
  -27.6049  -32.4310   25.7449 C   0  0  0  0  0  0
  -27.5581  -37.1817   24.8453 C   0  0  0  0  0  0
  -21.4130  -29.2998   22.3745 N   0  0  0  0  0  0
  -26.4287  -37.3786   23.9398 N   0  0  0  0  0  0
  -24.6615  -31.0816   22.1071 N   0  0  0  0  0  0
  -23.4181  -28.8198   23.3042 O   0  0  0  0  0  0
  -28.3577  -26.6825   20.0844 O   0  0  0  0  0  0
  -26.5601  -34.8925   22.4683 O   0  0  0  0  0  0
  -23.5309  -32.1455   23.7564 O   0  0  0  0  0  0
  -30.6023  -25.4093   22.7296 C   0  0  0  0  0  0
  -28.4351  -24.3607   23.0288 C   0  0  0  0  0  0
  -29.7820  -24.4931   23.4215 C   0  0  0  0  0  0
  -28.7492  -25.9941   21.2201 C   0  0  0  0  0  0
  -30.0944  -26.1378   21.6347 C   0  0  0  0  0  0
  -27.9173  -25.0865   21.9406 C   0  0  0  0  0  0
  -30.3190  -23.7046   24.5800 C   0  0  0  0  0  0
  -30.0968  -19.2869   24.4470 C   0  0  0  0  0  0
  -30.9752  -18.1968   23.8171 C   0  0  0  0  0  0
  -30.9578  -20.3156   25.2007 C   0  0  0  0  0  0
  -30.1942  -17.0790   23.1135 C   0  0  0  0  0  0
  -30.1839  -21.5156   25.7738 C   0  0  0  0  0  0
  -31.1508  -16.1077   22.4049 C   0  0  0  0  0  0
  -29.8162  -22.4691   24.7300 N   0  0  0  0  0  0
  -30.4293  -14.9847   21.8227 N   0  0  0  0  0  0
  -31.1983  -24.1730   25.3050 O   0  0  0  0  0  0
  -31.1561  -27.2011   20.7809 Cl  0  0  0  0  0  0
  -26.2685  -24.7571   21.5380 Cl  0  0  0  0  0  0
  -31.4573  -12.3947   19.0792 H   0  0  0  0  0  0
  -30.3230  -11.2525   19.7346 H   0  0  0  0  0  0
  -29.7145  -11.8234   17.3799 H   0  0  0  0  0  0
  -29.6610  -13.5188   17.7788 H   0  0  0  0  0  0
  -27.7973  -11.3314   18.7602 H   0  0  0  0  0  0
  -27.3652  -12.7046   17.7758 H   0  0  0  0  0  0
  -27.7337  -14.2590   19.6165 H   0  0  0  0  0  0
  -28.6674  -11.8868   21.2924 H   0  0  0  0  0  0
  -28.4516  -13.5009   21.8835 H   0  0  0  0  0  0
  -25.2726   -9.5724   22.4748 H   0  0  0  0  0  0
  -24.0018   -7.4646   22.7447 H   0  0  0  0  0  0
  -21.0837   -8.8740   19.8937 H   0  0  0  0  0  0
  -22.3647  -10.9656   19.6158 H   0  0  0  0  0  0
  -21.1979   -7.6135   23.9735 H   0  0  0  0  0  0
  -21.1499   -6.0486   25.9099 H   0  0  0  0  0  0
  -22.0594   -2.7588   23.2836 H   0  0  0  0  0  0
  -22.4036  -12.0004   22.4882 H   0  0  0  0  0  0
  -21.1050  -13.1336   22.2431 H   0  0  0  0  0  0
  -24.6811  -15.8468   20.5294 H   0  0  0  0  0  0
  -26.3067  -15.6237   20.1181 H   0  0  0  0  0  0
  -26.7079  -32.5542   23.1152 H   0  0  0  0  0  0
  -24.9993  -33.9793   25.0428 H   0  0  0  0  0  0
  -22.6836  -31.3096   21.4218 H   0  0  0  0  0  0
  -23.3726  -35.9686   23.3312 H   0  0  0  0  0  0
  -24.3579  -36.8947   22.2052 H   0  0  0  0  0  0
  -23.7280  -37.6548   23.6654 H   0  0  0  0  0  0
  -26.0434  -31.6074   20.6079 H   0  0  0  0  0  0
  -26.8131  -30.8874   21.9968 H   0  0  0  0  0  0
  -28.0826  -29.0971   21.2237 H   0  0  0  0  0  0
  -26.0992  -26.0305   18.9378 H   0  0  0  0  0  0
  -23.9943  -27.3335   18.9785 H   0  0  0  0  0  0
  -23.7048  -30.6115   19.4101 H   0  0  0  0  0  0
  -22.7326  -29.2462   19.8704 H   0  0  0  0  0  0
  -25.1299  -36.1962   25.0817 H   0  0  0  0  0  0
  -20.9940  -28.3213   24.1467 H   0  0  0  0  0  0
  -20.5708  -26.2243   23.3617 H   0  0  0  0  0  0
  -21.6628  -26.7465   22.1207 H   0  0  0  0  0  0
  -19.6895  -25.6303   21.1249 H   0  0  0  0  0  0
  -19.6697  -27.3229   20.6801 H   0  0  0  0  0  0
  -17.4196  -26.6696   21.4026 H   0  0  0  0  0  0
  -18.0294  -26.0093   22.9046 H   0  0  0  0  0  0
  -19.7916  -30.7298   24.2241 H   0  0  0  0  0  0
  -17.4992  -31.6265   24.5184 H   0  0  0  0  0  0
  -15.5329  -30.2986   23.7681 H   0  0  0  0  0  0
  -15.8656  -28.0874   22.6982 H   0  0  0  0  0  0
  -24.5921  -30.7087   25.7831 H   0  0  0  0  0  0
  -24.8953  -32.2924   26.4859 H   0  0  0  0  0  0
  -25.8112  -30.8966   27.0255 H   0  0  0  0  0  0
  -26.2810  -29.6826   24.1057 H   0  0  0  0  0  0
  -27.3881  -29.7167   25.4572 H   0  0  0  0  0  0
  -27.8722  -30.4250   23.9334 H   0  0  0  0  0  0
  -27.2646  -33.3580   26.2087 H   0  0  0  0  0  0
  -28.3808  -32.6942   25.0247 H   0  0  0  0  0  0
  -28.0766  -31.8411   26.5322 H   0  0  0  0  0  0
  -28.2586  -38.0117   24.7484 H   0  0  0  0  0  0
  -28.1079  -36.2647   24.6276 H   0  0  0  0  0  0
  -27.2300  -37.1474   25.8854 H   0  0  0  0  0  0
  -20.9282  -29.8696   21.6957 H   0  0  0  0  0  0
  -26.0163  -38.2858   24.1413 H   0  0  0  0  0  0
  -31.6357  -25.5415   23.0188 H   0  0  0  0  0  0
  -27.7801  -23.6826   23.5583 H   0  0  0  0  0  0
  -29.3769  -18.8361   25.1336 H   0  0  0  0  0  0
  -29.5134  -19.7747   23.6652 H   0  0  0  0  0  0
  -31.6525  -18.6694   23.1037 H   0  0  0  0  0  0
  -31.6003  -17.7491   24.5914 H   0  0  0  0  0  0
  -31.7511  -20.6828   24.5463 H   0  0  0  0  0  0
  -31.4616  -19.8011   26.0210 H   0  0  0  0  0  0
  -29.5040  -17.5120   22.3861 H   0  0  0  0  0  0
  -29.5802  -16.5409   23.8383 H   0  0  0  0  0  0
  -30.7928  -22.0018   26.5378 H   0  0  0  0  0  0
  -29.2827  -21.1780   26.2879 H   0  0  0  0  0  0
  -31.8866  -15.7130   23.1085 H   0  0  0  0  0  0
  -31.7103  -16.6441   21.6354 H   0  0  0  0  0  0
  -29.1217  -22.1784   24.0583 H   0  0  0  0  0  0
  -29.6504  -14.6107   22.3424 H   0  0  0  0  0  0
  1 25  1  0  0  0
  1 30  2  0  0  0
  1 85  1  0  0  0
  2  3  1  0  0  0
  2 25  1  0  0  0
  2 89  1  0  0  0
  2 90  1  0  0  0
  3  4  1  0  0  0
  3 91  1  0  0  0
  3 92  1  0  0  0
  4  5  1  0  0  0
  4 93  1  0  0  0
  4 94  1  0  0  0
  5  6  1  0  0  0
  5 26  1  0  0  0
  5 95  1  0  0  0
  6 25  1  0  0  0
  6 96  1  0  0  0
  6 97  1  0  0  0
  7  8  2  0  0  0
  7 26  1  0  0  0
  7 29  1  0  0  0
  8  9  1  0  0  0
  8 22  1  0  0  0
  9 10  1  0  0  0
  9 27  2  0  0  0
 10 11  2  0  0  0
 10 15  1  0  0  0
 11 12  1  0  0  0
 11 98  1  0  0  0
 12 13  2  0  0  0
 12 99  1  0  0  0
 13 14  1  0  0  0
 13 31  1  0  0  0
 14 15  2  0  0  0
 14100  1  0  0  0
 15101  1  0  0  0
 16 17  2  0  0  0
 16 21  1  0  0  0
 16 31  1  0  0  0
 17 18  1  0  0  0
 17102  1  0  0  0
 18 19  2  0  0  0
 18103  1  0  0  0
 19 20  1  0  0  0
 19 24  1  0  0  0
 20 21  2  0  0  0
 20104  1  0  0  0
 21 23  1  0  0  0
 22 28  1  0  0  0
 22 32  2  0  0  0
 26 27  1  0  0  0
 28105  1  0  0  0
 28106  1  0  0  0
 29107  1  0  0  0
 29108  1  0  0  0
 33 34  1  0  0  0
 33 66  1  0  0  0
 33 70  2  0  0  0
 34 36  1  0  0  0
 34 59  1  0  0  0
 34109  1  0  0  0
 35 44  2  0  0  0
 35 45  1  0  0  0
 35 68  1  0  0  0
 36 56  1  0  0  0
 36110  1  0  0  0
 37 39  1  0  0  0
 37 47  1  0  0  0
 37 66  1  0  0  0
 37111  1  0  0  0
 38 43  2  0  0  0
 38 46  1  0  0  0
 38 47  1  0  0  0
 39 64  1  0  0  0
 39 67  2  0  0  0
 40 52  1  0  0  0
 40 53  2  0  0  0
 40 58  1  0  0  0
 41112  1  0  0  0
 41113  1  0  0  0
 41114  1  0  0  0
 41 48  1  0  0  0
 42 43  1  0  0  0
 42 66  1  0  0  0
 42115  1  0  0  0
 42116  1  0  0  0
 43 44  1  0  0  0
 44117  1  0  0  0
 45 46  2  0  0  0
 45118  1  0  0  0
 46119  1  0  0  0
 47120  1  0  0  0
 47121  1  0  0  0
 48 56  1  0  0  0
 48 65  1  0  0  0
 48122  1  0  0  0
 49 50  1  0  0  0
 49 53  1  0  0  0
 49 64  1  0  0  0
 49123  1  0  0  0
 50 51  1  0  0  0
 50124  1  0  0  0
 50125  1  0  0  0
 51 52  1  0  0  0
 51126  1  0  0  0
 51127  1  0  0  0
 52128  1  0  0  0
 52129  1  0  0  0
 53 54  1  0  0  0
 54 55  2  0  0  0
 54130  1  0  0  0
 55 57  1  0  0  0
 55131  1  0  0  0
 56 69  2  0  0  0
 57 58  2  0  0  0
 57132  1  0  0  0
 58133  1  0  0  0
 59 60  1  0  0  0
 59 61  1  0  0  0
 59 62  1  0  0  0
 60134  1  0  0  0
 60135  1  0  0  0
 60136  1  0  0  0
 61137  1  0  0  0
 61138  1  0  0  0
 61139  1  0  0  0
 62140  1  0  0  0
 62141  1  0  0  0
 62142  1  0  0  0
 63 65  1  0  0  0
 63143  1  0  0  0
 63144  1  0  0  0
 63145  1  0  0  0
 64146  1  0  0  0
 65147  1  0  0  0
 68 74  1  0  0  0
 71 73  2  0  0  0
 71 75  1  0  0  0
 71148  1  0  0  0
 72 73  1  0  0  0
 72 76  2  0  0  0
 72149  1  0  0  0
 73 77  1  0  0  0
 74 75  2  0  0  0
 74 76  1  0  0  0
 75 87  1  0  0  0
 76 88  1  0  0  0
 77 84  1  0  0  0
 77 86  2  0  0  0
 78 79  1  0  0  0
 78 80  1  0  0  0
 78150  1  0  0  0
 78151  1  0  0  0
 79 81  1  0  0  0
 79152  1  0  0  0
 79153  1  0  0  0
 80 82  1  0  0  0
 80154  1  0  0  0
 80155  1  0  0  0
 81 83  1  0  0  0
 81156  1  0  0  0
 81157  1  0  0  0
 82 84  1  0  0  0
 82158  1  0  0  0
 82159  1  0  0  0
 83 85  1  0  0  0
 83160  1  0  0  0
 83161  1  0  0  0
 84162  1  0  0  0
 85163  1  0  0  0
M  ISO  4   1 100  68 101  74 101  85 100
M  END
> <chiral flag>
0

> <version>
0

> <s_m_source_file>
/data/baiqing/PycharmProjects/Reinvent-master-3.2/result/LINK_invent/BTK/process_docking_weight1_custom_product_contain_oxygen_bond_distance_aromatic_linkinvent_7_9_3/rearranged_h_0000.sdf

> <i_m_source_file_index>
7

> <r_mmod_Potential_Energy-OPLS-2005>
-163.4296875

> <r_mmod_Stretch_Energy-OPLS-2005>
32.0847396850586

> <r_mmod_Bend_Energy-OPLS-2005>
91.3327560424805

> <r_mmod_Torsional_Energy-OPLS-2005>
214.969131469727

> <r_mmod_Improper_Torsional_Energy-OPLS-2005>
2.74955439567566

> <r_mmod_Van_der_Waal_Energy-OPLS-2005>
154.175399780273

> <r_mmod_Electrostatic_Energy-OPLS-2005>
-441.397888183594

> <r_mmod_Solvation_Energy-OPLS-2005>
-225.99089050293

> <b_mmod_Minimization_Converged-OPLS-2005>
0

> <r_mmod_RMS_Derivative-OPLS-2005>
3.91362428665161

$$$$
7
                    3D
 Structure written by MMmdl.
144152  0  0  1  0            999 V2000
  -30.2527  -15.7856   20.3198 C   0  0  0  0  0  0
  -30.4129  -13.1956   19.5441 C   0  0  0  0  0  0
  -29.5557  -12.6952   18.3416 C   0  0  0  0  0  0
  -28.1429  -12.3029   18.7935 C   0  0  0  0  0  0
  -27.5911  -13.3230   19.8121 C   0  0  2  0  0  0
  -28.5962  -13.7228   20.9225 C   0  0  0  0  0  0
  -25.2298  -13.8303   20.5814 C   0  0  0  0  0  0
  -24.1703  -13.0433   20.9298 C   0  0  0  0  0  0
  -24.6427  -11.6953   20.8766 C   0  0  0  0  0  0
  -23.9132  -10.4295   21.0396 C   0  0  0  0  0  0
  -24.3665   -9.4205   21.9177 C   0  0  0  0  0  0
  -23.6321   -8.2248   22.0752 C   0  0  0  0  0  0
  -22.4300   -8.0290   21.3544 C   0  0  0  0  0  0
  -21.9950   -9.0267   20.4641 C   0  0  0  0  0  0
  -22.7298  -10.2135   20.3047 C   0  0  0  0  0  0
  -21.6861   -6.0744   22.5279 C   0  0  0  0  0  0
  -21.4020   -6.5645   23.8212 C   0  0  0  0  0  0
  -21.3662   -5.6796   24.9173 C   0  0  0  0  0  0
  -21.6043   -4.3058   24.7222 C   0  0  0  0  0  0
  -21.8819   -3.8153   23.4343 C   0  0  0  0  0  0
  -21.9195   -4.6971   22.3400 C   0  0  0  0  0  0
  -22.7713  -13.5153   21.1924 C   0  0  0  0  0  0
  -22.1662   -4.2156   21.0978 F   0  0  0  0  0  0
  -21.5628   -3.4540   25.7734 F   0  0  0  0  0  0
  -29.7463  -14.3930   20.2576 N   0  0  0  0  0  0
  -26.2765  -12.9664   20.3261 N   0  0  0  0  0  0
  -25.9380  -11.6718   20.5700 N   0  0  0  0  0  0
  -22.0382  -12.8128   22.0477 N   0  0  0  0  0  0
  -25.3869  -15.2046   20.4250 N   0  0  0  0  0  0
  -31.4904  -15.6923   20.1741 O   0  0  0  0  0  0
  -21.6652   -6.8893   21.4243 O   0  0  0  0  0  0
  -22.3383  -14.5448   20.6756 O   0  0  0  0  0  0
  -24.6937  -31.7875   23.1430 C   0  0  0  0  0  0
  -25.9469  -32.4403   23.8012 C   0  0  1  0  0  0
  -27.2288  -26.5847   20.2333 C   0  0  0  0  0  0
  -25.6006  -33.8236   24.1886 N   0  0  0  0  0  0
  -23.5253  -30.3838   21.4993 C   0  0  2  0  0  0
  -24.9848  -28.6999   20.1247 C   0  0  0  0  0  0
  -22.7811  -29.4246   22.4685 C   0  0  0  0  0  0
  -18.0345  -28.1429   22.8447 C   0  0  0  0  0  0
  -24.1498  -36.7127   23.2655 C   0  0  0  0  0  0
  -26.1101  -30.4789   21.4290 C   0  0  0  0  0  0
  -26.1729  -29.0293   20.7871 C   0  0  0  0  0  0
  -27.2721  -28.0017   20.8104 C   0  0  0  0  0  0
  -26.0126  -26.5021   19.4993 C   0  0  0  0  0  0
  -24.9500  -27.4625   19.4574 C   0  0  0  0  0  0
  -23.7872  -29.6700   20.1399 C   0  0  0  0  0  0
  -25.4153  -36.2859   24.0272 C   0  0  1  0  0  0
  -20.5983  -28.3794   23.1121 C   0  0  2  0  0  0
  -20.6808  -26.9443   22.5404 C   0  0  0  0  0  0
  -19.5785  -26.6368   21.5216 C   0  0  0  0  0  0
  -18.1967  -26.7953   22.1616 C   0  0  0  0  0  0
  -19.1613  -28.8938   23.2761 C   0  0  0  0  0  0
  -18.9517  -30.1518   23.8810 C   0  0  0  0  0  0
  -17.6506  -30.6607   24.0548 C   0  0  0  0  0  0
  -25.9140  -34.9252   23.4925 C   0  0  0  0  0  0
  -16.5395  -29.9087   23.6353 C   0  0  0  0  0  0
  -16.7323  -28.6512   23.0366 C   0  0  0  0  0  0
  -26.4613  -31.6485   25.0681 C   0  0  0  0  0  0
  -25.3644  -31.3836   26.1269 C   0  0  0  0  0  0
  -27.0565  -30.2808   24.6673 C   0  0  0  0  0  0
  -27.6042  -32.4373   25.7504 C   0  0  0  0  0  0
  -27.5560  -37.1725   24.8468 C   0  0  0  0  0  0
  -21.4449  -29.3019   22.3430 N   0  0  0  0  0  0
  -26.4271  -37.3630   23.9401 N   0  0  0  0  0  0
  -24.8008  -30.9200   22.0755 N   0  0  0  0  0  0
  -23.4201  -28.7862   23.3081 O   0  0  0  0  0  0
  -28.1916  -25.3215   20.2556 O   0  0  0  0  0  0
  -26.5793  -34.8849   22.4552 O   0  0  0  0  0  0
  -23.5933  -32.1009   23.6307 O   0  0  0  0  0  0
  -26.4561  -21.7447   20.6829 C   0  0  0  0  0  0
  -27.3400  -20.6155   20.5832 C   0  0  0  0  0  0
  -26.7780  -23.1412   20.5651 C   0  0  0  0  0  0
  -28.9950  -22.3129   20.2297 C   0  0  0  0  0  0
  -28.7344  -20.6932   20.3466 C   0  0  0  0  0  0
  -28.0707  -23.6695   20.3192 C   0  0  0  0  0  0
  -29.6842  -19.0215   20.2779 C   0  0  0  0  0  0
  -29.5054  -17.1968   20.3618 N   0  0  0  0  0  0
  -31.3932  -13.4800   19.1606 H   0  0  0  0  0  0
  -30.6132  -12.3812   20.2421 H   0  0  0  0  0  0
  -30.0429  -11.8536   17.8471 H   0  0  0  0  0  0
  -29.4885  -13.4916   17.5989 H   0  0  0  0  0  0
  -28.2013  -11.3192   19.2612 H   0  0  0  0  0  0
  -27.4750  -12.2013   17.9371 H   0  0  0  0  0  0
  -27.4325  -14.2228   19.2159 H   0  0  0  0  0  0
  -28.8920  -12.8680   21.5326 H   0  0  0  0  0  0
  -28.1320  -14.4366   21.6047 H   0  0  0  0  0  0
  -25.2802   -9.5679   22.4763 H   0  0  0  0  0  0
  -24.0018   -7.4643   22.7481 H   0  0  0  0  0  0
  -21.0878   -8.8799   19.8950 H   0  0  0  0  0  0
  -22.3757  -10.9678   19.6161 H   0  0  0  0  0  0
  -21.2014   -7.6153   23.9717 H   0  0  0  0  0  0
  -21.1483   -6.0525   25.9075 H   0  0  0  0  0  0
  -22.0595   -2.7615   23.2840 H   0  0  0  0  0  0
  -22.4033  -11.9812   22.4881 H   0  0  0  0  0  0
  -21.0983  -13.1114   22.2662 H   0  0  0  0  0  0
  -24.6129  -15.8508   20.5348 H   0  0  0  0  0  0
  -26.2258  -15.6471   20.0742 H   0  0  0  0  0  0
  -26.7558  -32.4845   23.0725 H   0  0  0  0  0  0
  -25.0049  -33.9257   24.9970 H   0  0  0  0  0  0
  -22.8571  -31.2239   21.2993 H   0  0  0  0  0  0
  -23.3777  -35.9439   23.3267 H   0  0  0  0  0  0
  -24.3556  -36.8846   22.2078 H   0  0  0  0  0  0
  -23.7246  -37.6284   23.6774 H   0  0  0  0  0  0
  -26.3247  -31.1924   20.6324 H   0  0  0  0  0  0
  -26.9572  -30.5543   22.0977 H   0  0  0  0  0  0
  -28.1651  -28.2655   21.3591 H   0  0  0  0  0  0
  -25.8391  -25.5791   18.9642 H   0  0  0  0  0  0
  -24.0607  -27.2021   18.8996 H   0  0  0  0  0  0
  -23.9731  -30.4249   19.3752 H   0  0  0  0  0  0
  -22.8900  -29.1425   19.8116 H   0  0  0  0  0  0
  -25.1371  -36.1606   25.0762 H   0  0  0  0  0  0
  -21.0059  -28.3426   24.1251 H   0  0  0  0  0  0
  -20.5662  -26.2421   23.3674 H   0  0  0  0  0  0
  -21.6670  -26.7371   22.1228 H   0  0  0  0  0  0
  -19.6942  -25.6256   21.1302 H   0  0  0  0  0  0
  -19.6733  -27.3132   20.6708 H   0  0  0  0  0  0
  -17.4238  -26.6690   21.4019 H   0  0  0  0  0  0
  -18.0355  -26.0117   22.9033 H   0  0  0  0  0  0
  -19.7994  -30.7356   24.2142 H   0  0  0  0  0  0
  -17.5058  -31.6278   24.5170 H   0  0  0  0  0  0
  -15.5392  -30.2964   23.7728 H   0  0  0  0  0  0
  -15.8723  -28.0804   22.7129 H   0  0  0  0  0  0
  -24.5865  -30.7154   25.7556 H   0  0  0  0  0  0
  -24.8796  -32.3068   26.4452 H   0  0  0  0  0  0
  -25.7787  -30.9150   27.0206 H   0  0  0  0  0  0
  -26.3306  -29.6384   24.1679 H   0  0  0  0  0  0
  -27.3954  -29.7305   25.5461 H   0  0  0  0  0  0
  -27.9304  -30.3902   24.0248 H   0  0  0  0  0  0
  -27.2570  -33.3759   26.1836 H   0  0  0  0  0  0
  -28.3975  -32.6799   25.0420 H   0  0  0  0  0  0
  -28.0577  -31.8668   26.5619 H   0  0  0  0  0  0
  -28.2551  -38.0042   24.7496 H   0  0  0  0  0  0
  -28.1081  -36.2562   24.6327 H   0  0  0  0  0  0
  -27.2268  -37.1395   25.8869 H   0  0  0  0  0  0
  -20.9779  -29.8656   21.6462 H   0  0  0  0  0  0
  -26.0090  -38.2677   24.1399 H   0  0  0  0  0  0
  -25.4173  -21.5156   20.8775 H   0  0  0  0  0  0
  -26.9082  -19.6312   20.7051 H   0  0  0  0  0  0
  -25.9665  -23.8445   20.6853 H   0  0  0  0  0  0
  -30.0360  -22.5452   20.0533 H   0  0  0  0  0  0
  -30.4530  -19.1893   21.0326 H   0  0  0  0  0  0
  -30.2297  -19.1328   19.3405 H   0  0  0  0  0  0
  -28.5205  -16.9901   20.4480 H   0  0  0  0  0  0
  1 25  1  0  0  0
  1 30  2  0  0  0
  1 78  1  0  0  0
  2  3  1  0  0  0
  2 25  1  0  0  0
  2 79  1  0  0  0
  2 80  1  0  0  0
  3  4  1  0  0  0
  3 81  1  0  0  0
  3 82  1  0  0  0
  4  5  1  0  0  0
  4 83  1  0  0  0
  4 84  1  0  0  0
  5  6  1  0  0  0
  5 26  1  0  0  0
  5 85  1  0  0  0
  6 25  1  0  0  0
  6 86  1  0  0  0
  6 87  1  0  0  0
  7  8  2  0  0  0
  7 26  1  0  0  0
  7 29  1  0  0  0
  8  9  1  0  0  0
  8 22  1  0  0  0
  9 10  1  0  0  0
  9 27  2  0  0  0
 10 11  2  0  0  0
 10 15  1  0  0  0
 11 12  1  0  0  0
 11 88  1  0  0  0
 12 13  2  0  0  0
 12 89  1  0  0  0
 13 14  1  0  0  0
 13 31  1  0  0  0
 14 15  2  0  0  0
 14 90  1  0  0  0
 15 91  1  0  0  0
 16 17  2  0  0  0
 16 21  1  0  0  0
 16 31  1  0  0  0
 17 18  1  0  0  0
 17 92  1  0  0  0
 18 19  2  0  0  0
 18 93  1  0  0  0
 19 20  1  0  0  0
 19 24  1  0  0  0
 20 21  2  0  0  0
 20 94  1  0  0  0
 21 23  1  0  0  0
 22 28  1  0  0  0
 22 32  2  0  0  0
 26 27  1  0  0  0
 28 95  1  0  0  0
 28 96  1  0  0  0
 29 97  1  0  0  0
 29 98  1  0  0  0
 33 34  1  0  0  0
 33 66  1  0  0  0
 33 70  2  0  0  0
 34 36  1  0  0  0
 34 59  1  0  0  0
 34 99  1  0  0  0
 35 44  2  0  0  0
 35 45  1  0  0  0
 35 68  1  0  0  0
 36 56  1  0  0  0
 36100  1  0  0  0
 37 39  1  0  0  0
 37 47  1  0  0  0
 37 66  1  0  0  0
 37101  1  0  0  0
 38 43  2  0  0  0
 38 46  1  0  0  0
 38 47  1  0  0  0
 39 64  1  0  0  0
 39 67  2  0  0  0
 40 52  1  0  0  0
 40 53  2  0  0  0
 40 58  1  0  0  0
 41102  1  0  0  0
 41103  1  0  0  0
 41104  1  0  0  0
 41 48  1  0  0  0
 42 43  1  0  0  0
 42 66  1  0  0  0
 42105  1  0  0  0
 42106  1  0  0  0
 43 44  1  0  0  0
 44107  1  0  0  0
 45 46  2  0  0  0
 45108  1  0  0  0
 46109  1  0  0  0
 47110  1  0  0  0
 47111  1  0  0  0
 48 56  1  0  0  0
 48 65  1  0  0  0
 48112  1  0  0  0
 49 50  1  0  0  0
 49 53  1  0  0  0
 49 64  1  0  0  0
 49113  1  0  0  0
 50 51  1  0  0  0
 50114  1  0  0  0
 50115  1  0  0  0
 51 52  1  0  0  0
 51116  1  0  0  0
 51117  1  0  0  0
 52118  1  0  0  0
 52119  1  0  0  0
 53 54  1  0  0  0
 54 55  2  0  0  0
 54120  1  0  0  0
 55 57  1  0  0  0
 55121  1  0  0  0
 56 69  2  0  0  0
 57 58  2  0  0  0
 57122  1  0  0  0
 58123  1  0  0  0
 59 60  1  0  0  0
 59 61  1  0  0  0
 59 62  1  0  0  0
 60124  1  0  0  0
 60125  1  0  0  0
 60126  1  0  0  0
 61127  1  0  0  0
 61128  1  0  0  0
 61129  1  0  0  0
 62130  1  0  0  0
 62131  1  0  0  0
 62132  1  0  0  0
 63 65  1  0  0  0
 63133  1  0  0  0
 63134  1  0  0  0
 63135  1  0  0  0
 64136  1  0  0  0
 65137  1  0  0  0
 68 76  1  0  0  0
 71 72  2  0  0  0
 71 73  1  0  0  0
 71138  1  0  0  0
 72 75  1  0  0  0
 72139  1  0  0  0
 73 76  2  0  0  0
 73140  1  0  0  0
 74 75  2  0  0  0
 74 76  1  0  0  0
 74141  1  0  0  0
 75 77  1  0  0  0
 77 78  1  0  0  0
 77142  1  0  0  0
 77143  1  0  0  0
 78144  1  0  0  0
M  ISO  4   1 100  68 101  76 101  78 100
M  END
> <chiral flag>
0

> <version>
0

> <s_m_source_file>
/data/baiqing/PycharmProjects/Reinvent-master-3.2/result/LINK_invent/BTK/process_docking_weight1_custom_product_contain_oxygen_bond_distance_aromatic_linkinvent_7_9_3/rearranged_h_0000.sdf

> <i_m_source_file_index>
8

> <r_mmod_Potential_Energy-OPLS-2005>
2769.08959960938

> <r_mmod_Stretch_Energy-OPLS-2005>
1243.04919433594

> <r_mmod_Bend_Energy-OPLS-2005>
646.241638183594

> <r_mmod_Torsional_Energy-OPLS-2005>
201.411758422852

> <r_mmod_Improper_Torsional_Energy-OPLS-2005>
3.7339494228363

> <r_mmod_Van_der_Waal_Energy-OPLS-2005>
127.41130065918

> <r_mmod_Electrostatic_Energy-OPLS-2005>
-376.12548828125

> <r_mmod_Solvation_Energy-OPLS-2005>
-220.923278808594

> <b_mmod_Minimization_Converged-OPLS-2005>
0

> <r_mmod_RMS_Derivative-OPLS-2005>
0.552049160003662

$$$$
8
                    3D
 Structure written by MMmdl.
151159  0  0  1  0            999 V2000
  -30.6744  -14.6399   20.4690 C   0  0  0  0  0  0
  -30.4163  -12.3859   19.4690 C   0  0  0  0  0  0
  -29.5021  -12.4816   18.2300 C   0  0  0  0  0  0
  -28.0250  -12.3324   18.6410 C   0  0  0  0  0  0
  -27.6430  -13.2284   19.8511 C   0  0  2  0  0  0
  -28.6870  -13.1434   20.9864 C   0  0  0  0  0  0
  -25.2510  -13.8209   20.5702 C   0  0  0  0  0  0
  -24.1793  -13.0455   20.9221 C   0  0  0  0  0  0
  -24.6377  -11.6933   20.8753 C   0  0  0  0  0  0
  -23.9058  -10.4305   21.0409 C   0  0  0  0  0  0
  -24.3614   -9.4222   21.9186 C   0  0  0  0  0  0
  -23.6294   -8.2250   22.0747 C   0  0  0  0  0  0
  -22.4274   -8.0288   21.3540 C   0  0  0  0  0  0
  -21.9909   -9.0264   20.4645 C   0  0  0  0  0  0
  -22.7232  -10.2146   20.3058 C   0  0  0  0  0  0
  -21.6851   -6.0743   22.5280 C   0  0  0  0  0  0
  -21.4018   -6.5645   23.8218 C   0  0  0  0  0  0
  -21.3658   -5.6793   24.9178 C   0  0  0  0  0  0
  -21.6039   -4.3056   24.7225 C   0  0  0  0  0  0
  -21.8818   -3.8152   23.4346 C   0  0  0  0  0  0
  -21.9193   -4.6970   22.3404 C   0  0  0  0  0  0
  -22.7812  -13.5237   21.1884 C   0  0  0  0  0  0
  -22.1659   -4.2160   21.0980 F   0  0  0  0  0  0
  -21.5626   -3.4537   25.7736 F   0  0  0  0  0  0
  -29.9978  -13.4506   20.4051 N   0  0  0  0  0  0
  -26.2935  -12.9411   20.3286 N   0  0  0  0  0  0
  -25.9305  -11.6556   20.5757 N   0  0  0  0  0  0
  -22.0453  -12.8226   22.0441 N   0  0  0  0  0  0
  -25.4195  -15.1933   20.4116 N   0  0  0  0  0  0
  -31.8630  -14.6982   20.1460 O   0  0  0  0  0  0
  -21.6637   -6.8886   21.4240 O   0  0  0  0  0  0
  -22.3495  -14.5541   20.6732 O   0  0  0  0  0  0
  -24.6250  -31.8605   23.2020 C   0  0  0  0  0  0
  -25.9102  -32.4787   23.8348 C   0  0  1  0  0  0
  -27.2236  -27.3269   20.1256 C   0  0  0  0  0  0
  -25.5919  -33.8582   24.2287 N   0  0  0  0  0  0
  -23.4193  -30.4825   21.5441 C   0  0  2  0  0  0
  -24.8671  -28.9358   20.1125 C   0  0  0  0  0  0
  -22.7472  -29.4622   22.4936 C   0  0  0  0  0  0
  -18.0286  -28.1394   22.8491 C   0  0  0  0  0  0
  -24.1481  -36.7293   23.2640 C   0  0  0  0  0  0
  -25.9581  -30.7954   21.3689 C   0  0  0  0  0  0
  -26.0349  -29.4210   20.7161 C   0  0  0  0  0  0
  -27.2205  -28.6286   20.7106 C   0  0  0  0  0  0
  -26.0395  -26.8925   19.4940 C   0  0  0  0  0  0
  -24.8701  -27.6762   19.4918 C   0  0  0  0  0  0
  -23.6343  -29.8149   20.1600 C   0  0  0  0  0  0
  -25.4107  -36.3092   24.0337 C   0  0  1  0  0  0
  -20.5886  -28.3695   23.1287 C   0  0  2  0  0  0
  -20.6776  -26.9419   22.5415 C   0  0  0  0  0  0
  -19.5752  -26.6393   21.5217 C   0  0  0  0  0  0
  -18.1932  -26.7938   22.1628 C   0  0  0  0  0  0
  -19.1539  -28.8861   23.2886 C   0  0  0  0  0  0
  -18.9461  -30.1464   23.8903 C   0  0  0  0  0  0
  -17.6463  -30.6597   24.0568 C   0  0  0  0  0  0
  -25.9043  -34.9458   23.5115 C   0  0  0  0  0  0
  -16.5353  -29.9099   23.6329 C   0  0  0  0  0  0
  -16.7274  -28.6515   23.0351 C   0  0  0  0  0  0
  -26.4494  -31.6589   25.0707 C   0  0  0  0  0  0
  -25.3737  -31.3724   26.1442 C   0  0  0  0  0  0
  -27.0333  -30.3019   24.6139 C   0  0  0  0  0  0
  -27.6058  -32.4312   25.7483 C   0  0  0  0  0  0
  -27.5576  -37.1806   24.8474 C   0  0  0  0  0  0
  -21.4185  -29.3047   22.3681 N   0  0  0  0  0  0
  -26.4288  -37.3783   23.9413 N   0  0  0  0  0  0
  -24.6865  -31.0622   22.0963 N   0  0  0  0  0  0
  -23.4192  -28.8160   23.3018 O   0  0  0  0  0  0
  -28.3273  -26.4669   20.1494 O   0  0  0  0  0  0
  -26.5613  -34.8926   22.4680 O   0  0  0  0  0  0
  -23.5412  -32.1393   23.7355 O   0  0  0  0  0  0
  -30.2531  -19.5837   19.5517 C   0  0  0  0  0  0
  -28.9576  -18.9195   21.4634 C   0  0  0  0  0  0
  -29.7890  -20.9289   19.6702 C   0  0  0  0  0  0
  -28.4924  -20.2662   21.5799 C   0  0  0  0  0  0
  -29.8692  -18.5439   20.4472 C   0  0  0  0  0  0
  -28.9031  -21.3133   20.7071 C   0  0  0  0  0  0
  -30.5970  -17.1497   20.3608 C   0  0  0  0  0  0
  -28.7904  -23.8070   20.1704 C   0  0  0  0  0  0
  -28.1065  -25.1286   20.7483 C   0  0  0  0  0  0
  -29.9752  -15.8087   20.6519 N   0  0  0  0  0  0
  -28.4178  -22.6165   20.9435 O   0  0  0  0  0  0
  -31.4631  -12.4723   19.1729 H   0  0  0  0  0  0
  -30.3237  -11.4080   19.9445 H   0  0  0  0  0  0
  -29.7676  -11.7109   17.5050 H   0  0  0  0  0  0
  -29.6533  -13.4389   17.7294 H   0  0  0  0  0  0
  -27.8592  -11.2836   18.8911 H   0  0  0  0  0  0
  -27.3741  -12.5462   17.7929 H   0  0  0  0  0  0
  -27.6469  -14.2531   19.4790 H   0  0  0  0  0  0
  -28.6952  -12.1478   21.4330 H   0  0  0  0  0  0
  -28.4413  -13.8387   21.7905 H   0  0  0  0  0  0
  -25.2758   -9.5702   22.4762 H   0  0  0  0  0  0
  -24.0013   -7.4634   22.7451 H   0  0  0  0  0  0
  -21.0847   -8.8781   19.8940 H   0  0  0  0  0  0
  -22.3691  -10.9688   19.6168 H   0  0  0  0  0  0
  -21.2012   -7.6153   23.9732 H   0  0  0  0  0  0
  -21.1475   -6.0517   25.9083 H   0  0  0  0  0  0
  -22.0595   -2.7616   23.2841 H   0  0  0  0  0  0
  -22.4067  -11.9903   22.4859 H   0  0  0  0  0  0
  -21.1059  -13.1239   22.2617 H   0  0  0  0  0  0
  -24.6509  -15.8457   20.5245 H   0  0  0  0  0  0
  -26.2650  -15.6354   20.0742 H   0  0  0  0  0  0
  -26.7167  -32.5474   23.1095 H   0  0  0  0  0  0
  -25.0082  -33.9724   25.0444 H   0  0  0  0  0  0
  -22.7126  -31.3024   21.3998 H   0  0  0  0  0  0
  -23.3742  -35.9627   23.3315 H   0  0  0  0  0  0
  -24.3570  -36.8893   22.2050 H   0  0  0  0  0  0
  -23.7229  -37.6501   23.6641 H   0  0  0  0  0  0
  -26.0798  -31.5546   20.5949 H   0  0  0  0  0  0
  -26.8420  -30.8530   21.9920 H   0  0  0  0  0  0
  -28.1184  -28.9947   21.1880 H   0  0  0  0  0  0
  -26.0123  -25.9257   19.0111 H   0  0  0  0  0  0
  -23.9758  -27.2988   19.0146 H   0  0  0  0  0  0
  -23.7544  -30.5901   19.4023 H   0  0  0  0  0  0
  -22.7551  -29.2436   19.8579 H   0  0  0  0  0  0
  -25.1280  -36.1954   25.0829 H   0  0  0  0  0  0
  -20.9980  -28.3277   24.1407 H   0  0  0  0  0  0
  -20.5682  -26.2309   23.3616 H   0  0  0  0  0  0
  -21.6645  -26.7460   22.1204 H   0  0  0  0  0  0
  -19.6912  -25.6302   21.1249 H   0  0  0  0  0  0
  -19.6686  -27.3203   20.6744 H   0  0  0  0  0  0
  -17.4200  -26.6684   21.4032 H   0  0  0  0  0  0
  -18.0332  -26.0084   22.9027 H   0  0  0  0  0  0
  -19.7937  -30.7281   24.2270 H   0  0  0  0  0  0
  -17.5019  -31.6276   24.5176 H   0  0  0  0  0  0
  -15.5355  -30.3006   23.7654 H   0  0  0  0  0  0
  -15.8670  -28.0842   22.7059 H   0  0  0  0  0  0
  -24.5915  -30.7065   25.7775 H   0  0  0  0  0  0
  -24.8924  -32.2891   26.4860 H   0  0  0  0  0  0
  -25.8075  -30.8912   27.0217 H   0  0  0  0  0  0
  -26.2900  -29.6774   24.1170 H   0  0  0  0  0  0
  -27.4050  -29.7265   25.4626 H   0  0  0  0  0  0
  -27.8754  -30.4308   23.9337 H   0  0  0  0  0  0
  -27.2675  -33.3605   26.2073 H   0  0  0  0  0  0
  -28.3872  -32.6881   25.0320 H   0  0  0  0  0  0
  -28.0722  -31.8428   26.5393 H   0  0  0  0  0  0
  -28.2615  -38.0083   24.7502 H   0  0  0  0  0  0
  -28.1049  -36.2617   24.6321 H   0  0  0  0  0  0
  -27.2297  -37.1489   25.8879 H   0  0  0  0  0  0
  -20.9362  -29.8772   21.6893 H   0  0  0  0  0  0
  -26.0177  -38.2860   24.1408 H   0  0  0  0  0  0
  -30.9592  -19.3597   18.7640 H   0  0  0  0  0  0
  -28.6430  -18.1886   22.1952 H   0  0  0  0  0  0
  -30.1424  -21.6650   18.9623 H   0  0  0  0  0  0
  -27.8175  -20.5077   22.3889 H   0  0  0  0  0  0
  -31.4700  -17.2366   21.0102 H   0  0  0  0  0  0
  -31.0071  -17.0843   19.3509 H   0  0  0  0  0  0
  -29.8755  -23.9180   20.1773 H   0  0  0  0  0  0
  -28.4907  -23.6629   19.1322 H   0  0  0  0  0  0
  -28.4322  -25.2246   21.7846 H   0  0  0  0  0  0
  -27.0405  -24.9172   20.8294 H   0  0  0  0  0  0
  -28.9880  -15.7630   20.8520 H   0  0  0  0  0  0
  1 25  1  0  0  0
  1 30  2  0  0  0
  1 80  1  0  0  0
  2  3  1  0  0  0
  2 25  1  0  0  0
  2 82  1  0  0  0
  2 83  1  0  0  0
  3  4  1  0  0  0
  3 84  1  0  0  0
  3 85  1  0  0  0
  4  5  1  0  0  0
  4 86  1  0  0  0
  4 87  1  0  0  0
  5  6  1  0  0  0
  5 26  1  0  0  0
  5 88  1  0  0  0
  6 25  1  0  0  0
  6 89  1  0  0  0
  6 90  1  0  0  0
  7  8  2  0  0  0
  7 26  1  0  0  0
  7 29  1  0  0  0
  8  9  1  0  0  0
  8 22  1  0  0  0
  9 10  1  0  0  0
  9 27  2  0  0  0
 10 11  2  0  0  0
 10 15  1  0  0  0
 11 12  1  0  0  0
 11 91  1  0  0  0
 12 13  2  0  0  0
 12 92  1  0  0  0
 13 14  1  0  0  0
 13 31  1  0  0  0
 14 15  2  0  0  0
 14 93  1  0  0  0
 15 94  1  0  0  0
 16 17  2  0  0  0
 16 21  1  0  0  0
 16 31  1  0  0  0
 17 18  1  0  0  0
 17 95  1  0  0  0
 18 19  2  0  0  0
 18 96  1  0  0  0
 19 20  1  0  0  0
 19 24  1  0  0  0
 20 21  2  0  0  0
 20 97  1  0  0  0
 21 23  1  0  0  0
 22 28  1  0  0  0
 22 32  2  0  0  0
 26 27  1  0  0  0
 28 98  1  0  0  0
 28 99  1  0  0  0
 29100  1  0  0  0
 29101  1  0  0  0
 33 34  1  0  0  0
 33 66  1  0  0  0
 33 70  2  0  0  0
 34 36  1  0  0  0
 34 59  1  0  0  0
 34102  1  0  0  0
 35 44  2  0  0  0
 35 45  1  0  0  0
 35 68  1  0  0  0
 36 56  1  0  0  0
 36103  1  0  0  0
 37 39  1  0  0  0
 37 47  1  0  0  0
 37 66  1  0  0  0
 37104  1  0  0  0
 38 43  2  0  0  0
 38 46  1  0  0  0
 38 47  1  0  0  0
 39 64  1  0  0  0
 39 67  2  0  0  0
 40 52  1  0  0  0
 40 53  2  0  0  0
 40 58  1  0  0  0
 41105  1  0  0  0
 41106  1  0  0  0
 41107  1  0  0  0
 41 48  1  0  0  0
 42 43  1  0  0  0
 42 66  1  0  0  0
 42108  1  0  0  0
 42109  1  0  0  0
 43 44  1  0  0  0
 44110  1  0  0  0
 45 46  2  0  0  0
 45111  1  0  0  0
 46112  1  0  0  0
 47113  1  0  0  0
 47114  1  0  0  0
 48 56  1  0  0  0
 48 65  1  0  0  0
 48115  1  0  0  0
 49 50  1  0  0  0
 49 53  1  0  0  0
 49 64  1  0  0  0
 49116  1  0  0  0
 50 51  1  0  0  0
 50117  1  0  0  0
 50118  1  0  0  0
 51 52  1  0  0  0
 51119  1  0  0  0
 51120  1  0  0  0
 52121  1  0  0  0
 52122  1  0  0  0
 53 54  1  0  0  0
 54 55  2  0  0  0
 54123  1  0  0  0
 55 57  1  0  0  0
 55124  1  0  0  0
 56 69  2  0  0  0
 57 58  2  0  0  0
 57125  1  0  0  0
 58126  1  0  0  0
 59 60  1  0  0  0
 59 61  1  0  0  0
 59 62  1  0  0  0
 60127  1  0  0  0
 60128  1  0  0  0
 60129  1  0  0  0
 61130  1  0  0  0
 61131  1  0  0  0
 61132  1  0  0  0
 62133  1  0  0  0
 62134  1  0  0  0
 62135  1  0  0  0
 63 65  1  0  0  0
 63136  1  0  0  0
 63137  1  0  0  0
 63138  1  0  0  0
 64139  1  0  0  0
 65140  1  0  0  0
 68 79  1  0  0  0
 71 73  2  0  0  0
 71 75  1  0  0  0
 71141  1  0  0  0
 72 74  1  0  0  0
 72 75  2  0  0  0
 72142  1  0  0  0
 73 76  1  0  0  0
 73143  1  0  0  0
 74 76  2  0  0  0
 74144  1  0  0  0
 75 77  1  0  0  0
 76 81  1  0  0  0
 77 80  1  0  0  0
 77145  1  0  0  0
 77146  1  0  0  0
 78 79  1  0  0  0
 78 81  1  0  0  0
 78147  1  0  0  0
 78148  1  0  0  0
 79149  1  0  0  0
 79150  1  0  0  0
 80151  1  0  0  0
M  ISO  4   1 100  68 101  79 101  80 100
M  END
> <chiral flag>
0

> <version>
0

> <s_m_source_file>
/data/baiqing/PycharmProjects/Reinvent-master-3.2/result/LINK_invent/BTK/process_docking_weight1_custom_product_contain_oxygen_bond_distance_aromatic_linkinvent_7_9_3/rearranged_h_0000.sdf

> <i_m_source_file_index>
9

> <r_mmod_Potential_Energy-OPLS-2005>
36.7274284362793

> <r_mmod_Stretch_Energy-OPLS-2005>
76.701904296875

> <r_mmod_Bend_Energy-OPLS-2005>
155.474868774414

> <r_mmod_Torsional_Energy-OPLS-2005>
221.02214050293

> <r_mmod_Improper_Torsional_Energy-OPLS-2005>
6.35961389541626

> <r_mmod_Van_der_Waal_Energy-OPLS-2005>
143.365112304688

> <r_mmod_Electrostatic_Energy-OPLS-2005>
-407.782104492188

> <r_mmod_Solvation_Energy-OPLS-2005>
-210.192901611328

> <b_mmod_Minimization_Converged-OPLS-2005>
0

> <r_mmod_RMS_Derivative-OPLS-2005>
0.90838497877121

$$$$
9
                    3D
 Structure written by MMmdl.
139146  0  0  1  0            999 V2000
  -30.2479  -15.9260   20.2863 C   0  0  0  0  0  0
  -30.4035  -13.2554   19.5946 C   0  0  0  0  0  0
  -29.5740  -12.7286   18.3802 C   0  0  0  0  0  0
  -28.1622  -12.3166   18.8157 C   0  0  0  0  0  0
  -27.5781  -13.3464   19.8063 C   0  0  2  0  0  0
  -28.5442  -13.8100   20.9265 C   0  0  0  0  0  0
  -25.2226  -13.8347   20.5800 C   0  0  0  0  0  0
  -24.1661  -13.0443   20.9281 C   0  0  0  0  0  0
  -24.6417  -11.6971   20.8733 C   0  0  0  0  0  0
  -23.9138  -10.4302   21.0373 C   0  0  0  0  0  0
  -24.3670   -9.4218   21.9162 C   0  0  0  0  0  0
  -23.6330   -8.2259   22.0744 C   0  0  0  0  0  0
  -22.4305   -8.0295   21.3543 C   0  0  0  0  0  0
  -21.9953   -9.0265   20.4635 C   0  0  0  0  0  0
  -22.7299  -10.2134   20.3035 C   0  0  0  0  0  0
  -21.6865   -6.0748   22.5282 C   0  0  0  0  0  0
  -21.4023   -6.5647   23.8216 C   0  0  0  0  0  0
  -21.3662   -5.6796   24.9175 C   0  0  0  0  0  0
  -21.6044   -4.3059   24.7221 C   0  0  0  0  0  0
  -21.8819   -3.8154   23.4342 C   0  0  0  0  0  0
  -21.9196   -4.6974   22.3401 C   0  0  0  0  0  0
  -22.7674  -13.5144   21.1929 C   0  0  0  0  0  0
  -22.1663   -4.2162   21.0977 F   0  0  0  0  0  0
  -21.5626   -3.4539   25.7732 F   0  0  0  0  0  0
  -29.7175  -14.4595   20.2908 N   0  0  0  0  0  0
  -26.2689  -12.9743   20.3188 N   0  0  0  0  0  0
  -25.9366  -11.6774   20.5627 N   0  0  0  0  0  0
  -22.0360  -12.8112   22.0489 N   0  0  0  0  0  0
  -25.3809  -15.2098   20.4301 N   0  0  0  0  0  0
  -31.4728  -15.8364   20.0568 O   0  0  0  0  0  0
  -21.6657   -6.8897   21.4249 O   0  0  0  0  0  0
  -22.3337  -14.5438   20.6765 O   0  0  0  0  0  0
  -24.7018  -31.7765   23.1340 C   0  0  0  0  0  0
  -25.9504  -32.4350   23.7967 C   0  0  1  0  0  0
  -27.2389  -26.5011   20.2350 C   0  0  0  0  0  0
  -25.6003  -33.8189   24.1837 N   0  0  0  0  0  0
  -23.5384  -30.3670   21.4916 C   0  0  2  0  0  0
  -25.0004  -28.6658   20.1190 C   0  0  0  0  0  0
  -22.7853  -29.4184   22.4650 C   0  0  0  0  0  0
  -18.0353  -28.1427   22.8442 C   0  0  0  0  0  0
  -24.1498  -36.7103   23.2658 C   0  0  0  0  0  0
  -26.1255  -30.4404   21.4315 C   0  0  0  0  0  0
  -26.1886  -28.9831   20.7853 C   0  0  0  0  0  0
  -27.2781  -27.9327   20.8102 C   0  0  0  0  0  0
  -26.0216  -26.4480   19.4938 C   0  0  0  0  0  0
  -24.9685  -27.4275   19.4484 C   0  0  0  0  0  0
  -23.8039  -29.6434   20.1354 C   0  0  0  0  0  0
  -25.4157  -36.2829   24.0266 C   0  0  1  0  0  0
  -20.5996  -28.3797   23.1103 C   0  0  2  0  0  0
  -20.6806  -26.9436   22.5407 C   0  0  0  0  0  0
  -19.5787  -26.6358   21.5218 C   0  0  0  0  0  0
  -18.1971  -26.7951   22.1615 C   0  0  0  0  0  0
  -19.1624  -28.8943   23.2746 C   0  0  0  0  0  0
  -18.9523  -30.1520   23.8801 C   0  0  0  0  0  0
  -17.6512  -30.6604   24.0542 C   0  0  0  0  0  0
  -25.9147  -34.9223   23.4906 C   0  0  0  0  0  0
  -16.5401  -29.9080   23.6352 C   0  0  0  0  0  0
  -16.7333  -28.6502   23.0372 C   0  0  0  0  0  0
  -26.4623  -31.6474   25.0676 C   0  0  0  0  0  0
  -25.3634  -31.3852   26.1251 C   0  0  0  0  0  0
  -27.0589  -30.2790   24.6730 C   0  0  0  0  0  0
  -27.6037  -32.4383   25.7503 C   0  0  0  0  0  0
  -27.5561  -37.1707   24.8465 C   0  0  0  0  0  0
  -21.4482  -29.3004   22.3401 N   0  0  0  0  0  0
  -26.4268  -37.3609   23.9403 N   0  0  0  0  0  0
  -24.8141  -30.9006   22.0704 N   0  0  0  0  0  0
  -23.4202  -28.7828   23.3093 O   0  0  0  0  0  0
  -28.1724  -25.1939   20.3745 O   0  0  0  0  0  0
  -26.5817  -34.8839   22.4544 O   0  0  0  0  0  0
  -23.5995  -32.0939   23.6162 O   0  0  0  0  0  0
  -28.7210  -21.4348   20.5915 C   0  0  0  0  0  0
  -28.2555  -23.3656   19.9931 C   0  0  0  0  0  0
  -29.3115  -19.5123   20.0784 C   0  0  0  0  0  0
  -29.3007  -17.6846   20.4588 O   0  0  0  0  0  0
  -31.3926  -13.5376   19.2335 H   0  0  0  0  0  0
  -30.5876  -12.4500   20.3079 H   0  0  0  0  0  0
  -30.0832  -11.8900   17.9035 H   0  0  0  0  0  0
  -29.5065  -13.5168   17.6289 H   0  0  0  0  0  0
  -28.2315  -11.3434   19.3032 H   0  0  0  0  0  0
  -27.5097  -12.1872   17.9512 H   0  0  0  0  0  0
  -27.4060  -14.2273   19.1854 H   0  0  0  0  0  0
  -28.8290  -12.9831   21.5787 H   0  0  0  0  0  0
  -28.0529  -14.5455   21.5652 H   0  0  0  0  0  0
  -25.2804   -9.5695   22.4749 H   0  0  0  0  0  0
  -24.0030   -7.4655   22.7471 H   0  0  0  0  0  0
  -21.0883   -8.8793   19.8941 H   0  0  0  0  0  0
  -22.3754  -10.9673   19.6148 H   0  0  0  0  0  0
  -21.2019   -7.6155   23.9725 H   0  0  0  0  0  0
  -21.1483   -6.0522   25.9080 H   0  0  0  0  0  0
  -22.0594   -2.7618   23.2835 H   0  0  0  0  0  0
  -22.4018  -11.9806   22.4904 H   0  0  0  0  0  0
  -21.0959  -13.1090   22.2675 H   0  0  0  0  0  0
  -24.6162  -15.8627   20.5616 H   0  0  0  0  0  0
  -26.2399  -15.6582   20.1367 H   0  0  0  0  0  0
  -26.7610  -32.4773   23.0693 H   0  0  0  0  0  0
  -25.0023  -33.9198   24.9905 H   0  0  0  0  0  0
  -22.8750  -31.2087   21.2828 H   0  0  0  0  0  0
  -23.3782  -35.9407   23.3255 H   0  0  0  0  0  0
  -24.3557  -36.8843   22.2085 H   0  0  0  0  0  0
  -23.7238  -37.6249   23.6794 H   0  0  0  0  0  0
  -26.3512  -31.1499   20.6347 H   0  0  0  0  0  0
  -26.9686  -30.5163   22.1051 H   0  0  0  0  0  0
  -28.1609  -28.1842   21.3810 H   0  0  0  0  0  0
  -25.8256  -25.5225   18.9709 H   0  0  0  0  0  0
  -24.0784  -27.1735   18.8895 H   0  0  0  0  0  0
  -23.9928  -30.3938   19.3670 H   0  0  0  0  0  0
  -22.9055  -29.1168   19.8088 H   0  0  0  0  0  0
  -25.1376  -36.1566   25.0755 H   0  0  0  0  0  0
  -21.0073  -28.3439   24.1231 H   0  0  0  0  0  0
  -20.5647  -26.2429   23.3688 H   0  0  0  0  0  0
  -21.6666  -26.7342   22.1241 H   0  0  0  0  0  0
  -19.6940  -25.6242   21.1310 H   0  0  0  0  0  0
  -19.6739  -27.3114   20.6705 H   0  0  0  0  0  0
  -17.4242  -26.6691   21.4019 H   0  0  0  0  0  0
  -18.0355  -26.0117   22.9033 H   0  0  0  0  0  0
  -19.8000  -30.7356   24.2132 H   0  0  0  0  0  0
  -17.5061  -31.6273   24.5160 H   0  0  0  0  0  0
  -15.5397  -30.2950   23.7727 H   0  0  0  0  0  0
  -15.8735  -28.0783   22.7148 H   0  0  0  0  0  0
  -24.5854  -30.7173   25.7536 H   0  0  0  0  0  0
  -24.8787  -32.3090   26.4415 H   0  0  0  0  0  0
  -25.7754  -30.9178   27.0202 H   0  0  0  0  0  0
  -26.3348  -29.6344   24.1742 H   0  0  0  0  0  0
  -27.3950  -29.7319   25.5548 H   0  0  0  0  0  0
  -27.9353  -30.3870   24.0339 H   0  0  0  0  0  0
  -27.2558  -33.3779   26.1810 H   0  0  0  0  0  0
  -28.3982  -32.6797   25.0430 H   0  0  0  0  0  0
  -28.0560  -31.8700   26.5641 H   0  0  0  0  0  0
  -28.2532  -38.0043   24.7510 H   0  0  0  0  0  0
  -28.1103  -36.2561   24.6298 H   0  0  0  0  0  0
  -27.2272  -37.1341   25.8865 H   0  0  0  0  0  0
  -20.9840  -29.8625   21.6405 H   0  0  0  0  0  0
  -26.0079  -38.2648   24.1415 H   0  0  0  0  0  0
  -27.8290  -21.2079   21.1750 H   0  0  0  0  0  0
  -29.4615  -21.6487   21.3622 H   0  0  0  0  0  0
  -27.2717  -23.2221   19.5460 H   0  0  0  0  0  0
  -28.9110  -23.4398   19.1256 H   0  0  0  0  0  0
  -30.3776  -19.6575   19.9026 H   0  0  0  0  0  0
  -28.9053  -19.4547   19.0685 H   0  0  0  0  0  0
  1 25  1  0  0  0
  1 30  2  0  0  0
  1 74  1  0  0  0
  2  3  1  0  0  0
  2 25  1  0  0  0
  2 75  1  0  0  0
  2 76  1  0  0  0
  3  4  1  0  0  0
  3 77  1  0  0  0
  3 78  1  0  0  0
  4  5  1  0  0  0
  4 79  1  0  0  0
  4 80  1  0  0  0
  5  6  1  0  0  0
  5 26  1  0  0  0
  5 81  1  0  0  0
  6 25  1  0  0  0
  6 82  1  0  0  0
  6 83  1  0  0  0
  7  8  2  0  0  0
  7 26  1  0  0  0
  7 29  1  0  0  0
  8  9  1  0  0  0
  8 22  1  0  0  0
  9 10  1  0  0  0
  9 27  2  0  0  0
 10 11  2  0  0  0
 10 15  1  0  0  0
 11 12  1  0  0  0
 11 84  1  0  0  0
 12 13  2  0  0  0
 12 85  1  0  0  0
 13 14  1  0  0  0
 13 31  1  0  0  0
 14 15  2  0  0  0
 14 86  1  0  0  0
 15 87  1  0  0  0
 16 17  2  0  0  0
 16 21  1  0  0  0
 16 31  1  0  0  0
 17 18  1  0  0  0
 17 88  1  0  0  0
 18 19  2  0  0  0
 18 89  1  0  0  0
 19 20  1  0  0  0
 19 24  1  0  0  0
 20 21  2  0  0  0
 20 90  1  0  0  0
 21 23  1  0  0  0
 22 28  1  0  0  0
 22 32  2  0  0  0
 26 27  1  0  0  0
 28 91  1  0  0  0
 28 92  1  0  0  0
 29 93  1  0  0  0
 29 94  1  0  0  0
 33 34  1  0  0  0
 33 66  1  0  0  0
 33 70  2  0  0  0
 34 36  1  0  0  0
 34 59  1  0  0  0
 34 95  1  0  0  0
 35 44  2  0  0  0
 35 45  1  0  0  0
 35 68  1  0  0  0
 36 56  1  0  0  0
 36 96  1  0  0  0
 37 39  1  0  0  0
 37 47  1  0  0  0
 37 66  1  0  0  0
 37 97  1  0  0  0
 38 43  2  0  0  0
 38 46  1  0  0  0
 38 47  1  0  0  0
 39 64  1  0  0  0
 39 67  2  0  0  0
 40 52  1  0  0  0
 40 53  2  0  0  0
 40 58  1  0  0  0
 41 98  1  0  0  0
 41 99  1  0  0  0
 41100  1  0  0  0
 41 48  1  0  0  0
 42 43  1  0  0  0
 42 66  1  0  0  0
 42101  1  0  0  0
 42102  1  0  0  0
 43 44  1  0  0  0
 44103  1  0  0  0
 45 46  2  0  0  0
 45104  1  0  0  0
 46105  1  0  0  0
 47106  1  0  0  0
 47107  1  0  0  0
 48 56  1  0  0  0
 48 65  1  0  0  0
 48108  1  0  0  0
 49 50  1  0  0  0
 49 53  1  0  0  0
 49 64  1  0  0  0
 49109  1  0  0  0
 50 51  1  0  0  0
 50110  1  0  0  0
 50111  1  0  0  0
 51 52  1  0  0  0
 51112  1  0  0  0
 51113  1  0  0  0
 52114  1  0  0  0
 52115  1  0  0  0
 53 54  1  0  0  0
 54 55  2  0  0  0
 54116  1  0  0  0
 55 57  1  0  0  0
 55117  1  0  0  0
 56 69  2  0  0  0
 57 58  2  0  0  0
 57118  1  0  0  0
 58119  1  0  0  0
 59 60  1  0  0  0
 59 61  1  0  0  0
 59 62  1  0  0  0
 60120  1  0  0  0
 60121  1  0  0  0
 60122  1  0  0  0
 61123  1  0  0  0
 61124  1  0  0  0
 61125  1  0  0  0
 62126  1  0  0  0
 62127  1  0  0  0
 62128  1  0  0  0
 63 65  1  0  0  0
 63129  1  0  0  0
 63130  1  0  0  0
 63131  1  0  0  0
 64132  1  0  0  0
 65133  1  0  0  0
 68 72  1  0  0  0
 71 72  1  0  0  0
 71 73  1  0  0  0
 71134  1  0  0  0
 71135  1  0  0  0
 72136  1  0  0  0
 72137  1  0  0  0
 73 74  1  0  0  0
 73138  1  0  0  0
 73139  1  0  0  0
M  ISO  4   1 100  68 101  72 101  74 100
M  END
> <chiral flag>
0

> <version>
0

> <s_m_source_file>
/data/baiqing/PycharmProjects/Reinvent-master-3.2/result/LINK_invent/BTK/process_docking_weight1_custom_product_contain_oxygen_bond_distance_aromatic_linkinvent_7_9_3/rearranged_h_0000.sdf

> <i_m_source_file_index>
10

> <r_mmod_Potential_Energy-OPLS-2005>
3973.005859375

> <r_mmod_Stretch_Energy-OPLS-2005>
1955.04736328125

> <r_mmod_Bend_Energy-OPLS-2005>
863.980651855469

> <r_mmod_Torsional_Energy-OPLS-2005>
187.416458129883

> <r_mmod_Improper_Torsional_Energy-OPLS-2005>
2.13372302055359

> <r_mmod_Van_der_Waal_Energy-OPLS-2005>
112.765045166016

> <r_mmod_Electrostatic_Energy-OPLS-2005>
-315.698333740234

> <r_mmod_Solvation_Energy-OPLS-2005>
-200.812515258789

> <b_mmod_Minimization_Converged-OPLS-2005>
0

> <r_mmod_RMS_Derivative-OPLS-2005>
0.62112945318222

$$$$
10
                    3D
 Structure written by MMmdl.
182190  0  0  1  0            999 V2000
  -30.7299  -14.4017   20.6349 C   0  0  0  0  0  0
  -30.4227  -12.2874   19.4016 C   0  0  0  0  0  0
  -29.4907  -12.5178   18.1957 C   0  0  0  0  0  0
  -28.0110  -12.3827   18.6078 C   0  0  0  0  0  0
  -27.6671  -13.2013   19.8808 C   0  0  2  0  0  0
  -28.7059  -12.9374   20.9932 C   0  0  0  0  0  0
  -25.2607  -13.8155   20.5670 C   0  0  0  0  0  0
  -24.1854  -13.0438   20.9165 C   0  0  0  0  0  0
  -24.6396  -11.6901   20.8724 C   0  0  0  0  0  0
  -23.9065  -10.4291   21.0398 C   0  0  0  0  0  0
  -24.3619   -9.4210   21.9179 C   0  0  0  0  0  0
  -23.6293   -8.2245   22.0754 C   0  0  0  0  0  0
  -22.4274   -8.0286   21.3546 C   0  0  0  0  0  0
  -21.9915   -9.0257   20.4643 C   0  0  0  0  0  0
  -22.7240  -10.2135   20.3046 C   0  0  0  0  0  0
  -21.6853   -6.0740   22.5280 C   0  0  0  0  0  0
  -21.4016   -6.5639   23.8216 C   0  0  0  0  0  0
  -21.3660   -5.6788   24.9176 C   0  0  0  0  0  0
  -21.6047   -4.3053   24.7225 C   0  0  0  0  0  0
  -21.8821   -3.8150   23.4342 C   0  0  0  0  0  0
  -21.9195   -4.6966   22.3401 C   0  0  0  0  0  0
  -22.7875  -13.5238   21.1833 C   0  0  0  0  0  0
  -22.1659   -4.2151   21.0976 F   0  0  0  0  0  0
  -21.5630   -3.4538   25.7738 F   0  0  0  0  0  0
  -30.0445  -13.2428   20.4528 N   0  0  0  0  0  0
  -26.3048  -12.9316   20.3383 N   0  0  0  0  0  0
  -25.9324  -11.6477   20.5757 N   0  0  0  0  0  0
  -22.0510  -12.8230   22.0384 N   0  0  0  0  0  0
  -25.4338  -15.1875   20.4075 N   0  0  0  0  0  0
  -31.8124  -14.6343   20.0876 O   0  0  0  0  0  0
  -21.6635   -6.8885   21.4243 O   0  0  0  0  0  0
  -22.3561  -14.5548   20.6686 O   0  0  0  0  0  0
  -24.6112  -31.8714   23.2109 C   0  0  0  0  0  0
  -25.9021  -32.4839   23.8406 C   0  0  1  0  0  0
  -27.2454  -27.4739   20.0669 C   0  0  0  0  0  0
  -25.5886  -33.8638   24.2338 N   0  0  0  0  0  0
  -23.3978  -30.4934   21.5517 C   0  0  2  0  0  0
  -24.8452  -28.9624   20.1147 C   0  0  0  0  0  0
  -22.7392  -29.4677   22.5011 C   0  0  0  0  0  0
  -18.0268  -28.1371   22.8496 C   0  0  0  0  0  0
  -24.1492  -36.7324   23.2639 C   0  0  0  0  0  0
  -25.9244  -30.8420   21.3626 C   0  0  0  0  0  0
  -26.0018  -29.4782   20.7118 C   0  0  0  0  0  0
  -27.1998  -28.7341   20.6991 C   0  0  0  0  0  0
  -26.0659  -26.9529   19.4885 C   0  0  0  0  0  0
  -24.8692  -27.6942   19.5080 C   0  0  0  0  0  0
  -23.6044  -29.8235   20.1667 C   0  0  0  0  0  0
  -25.4111  -36.3122   24.0342 C   0  0  1  0  0  0
  -20.5858  -28.3660   23.1320 C   0  0  2  0  0  0
  -20.6766  -26.9402   22.5408 C   0  0  0  0  0  0
  -19.5740  -26.6386   21.5207 C   0  0  0  0  0  0
  -18.1919  -26.7923   22.1620 C   0  0  0  0  0  0
  -19.1518  -28.8833   23.2906 C   0  0  0  0  0  0
  -18.9449  -30.1444   23.8906 C   0  0  0  0  0  0
  -17.6453  -30.6586   24.0564 C   0  0  0  0  0  0
  -25.9035  -34.9488   23.5136 C   0  0  0  0  0  0
  -16.5343  -29.9081   23.6333 C   0  0  0  0  0  0
  -16.7260  -28.6499   23.0355 C   0  0  0  0  0  0
  -26.4458  -31.6605   25.0723 C   0  0  0  0  0  0
  -25.3725  -31.3694   26.1464 C   0  0  0  0  0  0
  -27.0315  -30.3062   24.6081 C   0  0  0  0  0  0
  -27.6033  -32.4330   25.7491 C   0  0  0  0  0  0
  -27.5585  -37.1821   24.8466 C   0  0  0  0  0  0
  -21.4128  -29.3032   22.3736 N   0  0  0  0  0  0
  -26.4298  -37.3802   23.9407 N   0  0  0  0  0  0
  -24.6623  -31.0831   22.1001 N   0  0  0  0  0  0
  -23.4177  -28.8231   23.3052 O   0  0  0  0  0  0
  -28.4293  -26.7753   20.0764 O   0  0  0  0  0  0
  -26.5600  -34.8931   22.4700 O   0  0  0  0  0  0
  -23.5314  -32.1465   23.7513 O   0  0  0  0  0  0
  -29.3112  -17.5896   21.6037 C   0  0  0  0  0  0
  -31.7093  -17.1818   21.6686 C   0  0  0  0  0  0
  -29.5400  -18.9722   21.7463 C   0  0  0  0  0  0
  -31.9346  -18.5642   21.8182 C   0  0  0  0  0  0
  -30.3918  -16.6855   21.5454 C   0  0  0  0  0  0
  -30.8598  -19.4754   21.8549 C   0  0  0  0  0  0
  -32.4284  -27.9498   21.0161 C   0  0  0  0  0  0
  -31.6105  -27.3774   22.1812 C   0  0  0  0  0  0
  -30.7073  -23.1458   22.3187 C   0  0  0  0  0  0
  -29.6367  -24.2437   22.4312 C   0  0  0  0  0  0
  -33.1750  -30.0592   19.9054 C   0  0  0  0  0  0
  -30.1116  -21.7568   22.0495 C   0  0  0  0  0  0
  -30.2067  -25.6065   22.8451 C   0  0  0  0  0  0
  -32.1252  -30.6758   18.9697 C   0  0  0  0  0  0
  -28.8350  -26.1187   18.8756 C   0  0  0  0  0  0
  -29.7506  -27.0411   18.0599 C   0  0  0  0  0  0
  -30.3556  -30.1011   17.5057 C   0  0  0  0  0  0
  -29.7723  -28.9651   16.6478 C   0  0  0  0  0  0
  -30.0993  -15.3037   21.4041 N   0  0  0  0  0  0
  -32.5294  -29.2835   20.9614 N   0  0  0  0  0  0
  -32.9540  -27.2037   20.1854 O   0  0  0  0  0  0
  -31.1743  -20.8106   21.9969 O   0  0  0  0  0  0
  -31.0431  -26.1210   21.8192 O   0  0  0  0  0  0
  -31.4795  -29.6407   18.2420 O   0  0  0  0  0  0
  -28.9884  -28.0560   17.4156 O   0  0  0  0  0  0
  -31.4664  -12.3909   19.0982 H   0  0  0  0  0  0
  -30.3233  -11.2665   19.7733 H   0  0  0  0  0  0
  -29.7217  -11.8091   17.3995 H   0  0  0  0  0  0
  -29.6665  -13.5113   17.7800 H   0  0  0  0  0  0
  -27.8074  -11.3253   18.7801 H   0  0  0  0  0  0
  -27.3646  -12.6859   17.7831 H   0  0  0  0  0  0
  -27.7246  -14.2557   19.6101 H   0  0  0  0  0  0
  -28.6729  -11.8893   21.2940 H   0  0  0  0  0  0
  -28.4594  -13.4969   21.8957 H   0  0  0  0  0  0
  -25.2765   -9.5684   22.4749 H   0  0  0  0  0  0
  -24.0006   -7.4635   22.7470 H   0  0  0  0  0  0
  -21.0856   -8.8773   19.8938 H   0  0  0  0  0  0
  -22.3709  -10.9672   19.6150 H   0  0  0  0  0  0
  -21.2002   -7.6144   23.9722 H   0  0  0  0  0  0
  -21.1480   -6.0515   25.9080 H   0  0  0  0  0  0
  -22.0599   -2.7610   23.2843 H   0  0  0  0  0  0
  -22.4114  -11.9884   22.4767 H   0  0  0  0  0  0
  -21.1123  -13.1253   22.2577 H   0  0  0  0  0  0
  -24.6668  -15.8439   20.5057 H   0  0  0  0  0  0
  -26.2883  -15.6240   20.0853 H   0  0  0  0  0  0
  -26.7095  -32.5562   23.1179 H   0  0  0  0  0  0
  -25.0042  -33.9819   25.0484 H   0  0  0  0  0  0
  -22.6846  -31.3086   21.4129 H   0  0  0  0  0  0
  -23.3750  -35.9661   23.3310 H   0  0  0  0  0  0
  -24.3585  -36.8927   22.2050 H   0  0  0  0  0  0
  -23.7251  -37.6537   23.6647 H   0  0  0  0  0  0
  -26.0343  -31.6065   20.5925 H   0  0  0  0  0  0
  -26.8136  -30.8969   21.9787 H   0  0  0  0  0  0
  -28.0955  -29.1304   21.1571 H   0  0  0  0  0  0
  -26.0500  -25.9726   19.0356 H   0  0  0  0  0  0
  -23.9766  -27.2833   19.0576 H   0  0  0  0  0  0
  -23.7056  -30.5972   19.4046 H   0  0  0  0  0  0
  -22.7305  -29.2375   19.8757 H   0  0  0  0  0  0
  -25.1287  -36.1994   25.0837 H   0  0  0  0  0  0
  -20.9955  -28.3219   24.1437 H   0  0  0  0  0  0
  -20.5685  -26.2263   23.3589 H   0  0  0  0  0  0
  -21.6636  -26.7458   22.1189 H   0  0  0  0  0  0
  -19.6907  -25.6300   21.1226 H   0  0  0  0  0  0
  -19.6676  -27.3206   20.6744 H   0  0  0  0  0  0
  -17.4193  -26.6679   21.4020 H   0  0  0  0  0  0
  -18.0319  -26.0057   22.9006 H   0  0  0  0  0  0
  -19.7925  -30.7265   24.2274 H   0  0  0  0  0  0
  -17.5006  -31.6272   24.5149 H   0  0  0  0  0  0
  -15.5346  -30.2985   23.7655 H   0  0  0  0  0  0
  -15.8659  -28.0822   22.7062 H   0  0  0  0  0  0
  -24.5883  -30.7071   25.7775 H   0  0  0  0  0  0
  -24.8930  -32.2846   26.4950 H   0  0  0  0  0  0
  -25.8065  -30.8818   27.0200 H   0  0  0  0  0  0
  -26.2876  -29.6820   24.1115 H   0  0  0  0  0  0
  -27.4089  -29.7291   25.4532 H   0  0  0  0  0  0
  -27.8696  -30.4410   23.9239 H   0  0  0  0  0  0
  -27.2647  -33.3611   26.2110 H   0  0  0  0  0  0
  -28.3817  -32.6924   25.0302 H   0  0  0  0  0  0
  -28.0733  -31.8433   26.5372 H   0  0  0  0  0  0
  -28.2601  -38.0121   24.7516 H   0  0  0  0  0  0
  -28.1086  -36.2651   24.6291 H   0  0  0  0  0  0
  -27.2306  -37.1468   25.8872 H   0  0  0  0  0  0
  -20.9287  -29.8739   21.6944 H   0  0  0  0  0  0
  -26.0192  -38.2888   24.1385 H   0  0  0  0  0  0
  -28.2935  -17.2337   21.5223 H   0  0  0  0  0  0
  -32.5586  -16.5138   21.6517 H   0  0  0  0  0  0
  -28.6795  -19.6243   21.7670 H   0  0  0  0  0  0
  -32.9492  -18.9265   21.9035 H   0  0  0  0  0  0
  -30.8230  -28.0844   22.4495 H   0  0  0  0  0  0
  -32.2617  -27.2602   23.0486 H   0  0  0  0  0  0
  -31.2842  -23.1102   23.2431 H   0  0  0  0  0  0
  -31.4127  -23.4016   21.5278 H   0  0  0  0  0  0
  -28.8964  -23.9418   23.1732 H   0  0  0  0  0  0
  -29.0974  -24.3411   21.4888 H   0  0  0  0  0  0
  -33.7522  -30.8571   20.3746 H   0  0  0  0  0  0
  -33.8885  -29.4585   19.3391 H   0  0  0  0  0  0
  -29.5599  -21.7591   21.1076 H   0  0  0  0  0  0
  -29.4149  -21.5002   22.8494 H   0  0  0  0  0  0
  -30.7656  -25.5086   23.7774 H   0  0  0  0  0  0
  -29.3858  -26.3013   23.0315 H   0  0  0  0  0  0
  -32.6028  -31.3673   18.2739 H   0  0  0  0  0  0
  -31.4035  -31.2533   19.5507 H   0  0  0  0  0  0
  -29.4116  -25.2444   19.1775 H   0  0  0  0  0  0
  -28.0234  -25.7363   18.2590 H   0  0  0  0  0  0
  -30.2648  -26.4506   17.2998 H   0  0  0  0  0  0
  -30.5127  -27.4586   18.7149 H   0  0  0  0  0  0
  -29.5913  -30.5045   18.1719 H   0  0  0  0  0  0
  -30.6733  -30.9117   16.8477 H   0  0  0  0  0  0
  -30.5484  -28.4569   16.0720 H   0  0  0  0  0  0
  -29.0977  -29.4112   15.9165 H   0  0  0  0  0  0
  -29.1938  -15.0025   21.7301 H   0  0  0  0  0  0
  -32.0770  -29.8105   21.6963 H   0  0  0  0  0  0
  1 25  1  0  0  0
  1 30  2  0  0  0
  1 89  1  0  0  0
  2  3  1  0  0  0
  2 25  1  0  0  0
  2 96  1  0  0  0
  2 97  1  0  0  0
  3  4  1  0  0  0
  3 98  1  0  0  0
  3 99  1  0  0  0
  4  5  1  0  0  0
  4100  1  0  0  0
  4101  1  0  0  0
  5  6  1  0  0  0
  5 26  1  0  0  0
  5102  1  0  0  0
  6 25  1  0  0  0
  6103  1  0  0  0
  6104  1  0  0  0
  7  8  2  0  0  0
  7 26  1  0  0  0
  7 29  1  0  0  0
  8  9  1  0  0  0
  8 22  1  0  0  0
  9 10  1  0  0  0
  9 27  2  0  0  0
 10 11  2  0  0  0
 10 15  1  0  0  0
 11 12  1  0  0  0
 11105  1  0  0  0
 12 13  2  0  0  0
 12106  1  0  0  0
 13 14  1  0  0  0
 13 31  1  0  0  0
 14 15  2  0  0  0
 14107  1  0  0  0
 15108  1  0  0  0
 16 17  2  0  0  0
 16 21  1  0  0  0
 16 31  1  0  0  0
 17 18  1  0  0  0
 17109  1  0  0  0
 18 19  2  0  0  0
 18110  1  0  0  0
 19 20  1  0  0  0
 19 24  1  0  0  0
 20 21  2  0  0  0
 20111  1  0  0  0
 21 23  1  0  0  0
 22 28  1  0  0  0
 22 32  2  0  0  0
 26 27  1  0  0  0
 28112  1  0  0  0
 28113  1  0  0  0
 29114  1  0  0  0
 29115  1  0  0  0
 33 34  1  0  0  0
 33 66  1  0  0  0
 33 70  2  0  0  0
 34 36  1  0  0  0
 34 59  1  0  0  0
 34116  1  0  0  0
 35 44  2  0  0  0
 35 45  1  0  0  0
 35 68  1  0  0  0
 36 56  1  0  0  0
 36117  1  0  0  0
 37 39  1  0  0  0
 37 47  1  0  0  0
 37 66  1  0  0  0
 37118  1  0  0  0
 38 43  2  0  0  0
 38 46  1  0  0  0
 38 47  1  0  0  0
 39 64  1  0  0  0
 39 67  2  0  0  0
 40 52  1  0  0  0
 40 53  2  0  0  0
 40 58  1  0  0  0
 41119  1  0  0  0
 41120  1  0  0  0
 41121  1  0  0  0
 41 48  1  0  0  0
 42 43  1  0  0  0
 42 66  1  0  0  0
 42122  1  0  0  0
 42123  1  0  0  0
 43 44  1  0  0  0
 44124  1  0  0  0
 45 46  2  0  0  0
 45125  1  0  0  0
 46126  1  0  0  0
 47127  1  0  0  0
 47128  1  0  0  0
 48 56  1  0  0  0
 48 65  1  0  0  0
 48129  1  0  0  0
 49 50  1  0  0  0
 49 53  1  0  0  0
 49 64  1  0  0  0
 49130  1  0  0  0
 50 51  1  0  0  0
 50131  1  0  0  0
 50132  1  0  0  0
 51 52  1  0  0  0
 51133  1  0  0  0
 51134  1  0  0  0
 52135  1  0  0  0
 52136  1  0  0  0
 53 54  1  0  0  0
 54 55  2  0  0  0
 54137  1  0  0  0
 55 57  1  0  0  0
 55138  1  0  0  0
 56 69  2  0  0  0
 57 58  2  0  0  0
 57139  1  0  0  0
 58140  1  0  0  0
 59 60  1  0  0  0
 59 61  1  0  0  0
 59 62  1  0  0  0
 60141  1  0  0  0
 60142  1  0  0  0
 60143  1  0  0  0
 61144  1  0  0  0
 61145  1  0  0  0
 61146  1  0  0  0
 62147  1  0  0  0
 62148  1  0  0  0
 62149  1  0  0  0
 63 65  1  0  0  0
 63150  1  0  0  0
 63151  1  0  0  0
 63152  1  0  0  0
 64153  1  0  0  0
 65154  1  0  0  0
 68 85  1  0  0  0
 71 73  2  0  0  0
 71 75  1  0  0  0
 71155  1  0  0  0
 72 74  1  0  0  0
 72 75  2  0  0  0
 72156  1  0  0  0
 73 76  1  0  0  0
 73157  1  0  0  0
 74 76  2  0  0  0
 74158  1  0  0  0
 75 89  1  0  0  0
 76 92  1  0  0  0
 77 78  1  0  0  0
 77 90  1  0  0  0
 77 91  2  0  0  0
 78 93  1  0  0  0
 78159  1  0  0  0
 78160  1  0  0  0
 79 80  1  0  0  0
 79 82  1  0  0  0
 79161  1  0  0  0
 79162  1  0  0  0
 80 83  1  0  0  0
 80163  1  0  0  0
 80164  1  0  0  0
 81 84  1  0  0  0
 81 90  1  0  0  0
 81165  1  0  0  0
 81166  1  0  0  0
 82 92  1  0  0  0
 82167  1  0  0  0
 82168  1  0  0  0
 83 93  1  0  0  0
 83169  1  0  0  0
 83170  1  0  0  0
 84 94  1  0  0  0
 84171  1  0  0  0
 84172  1  0  0  0
 85 86  1  0  0  0
 85173  1  0  0  0
 85174  1  0  0  0
 86 95  1  0  0  0
 86175  1  0  0  0
 86176  1  0  0  0
 87 88  1  0  0  0
 87 94  1  0  0  0
 87177  1  0  0  0
 87178  1  0  0  0
 88 95  1  0  0  0
 88179  1  0  0  0
 88180  1  0  0  0
 89181  1  0  0  0
 90182  1  0  0  0
M  ISO  4   1 100  68 101  85 101  89 100
M  END
> <chiral flag>
0

> <version>
0

> <s_m_source_file>
/data/baiqing/PycharmProjects/Reinvent-master-3.2/result/LINK_invent/BTK/process_docking_weight1_custom_product_contain_oxygen_bond_distance_aromatic_linkinvent_7_9_3/rearranged_h_0000.sdf

> <i_m_source_file_index>
11

> <r_mmod_Potential_Energy-OPLS-2005>
-167.995666503906

> <r_mmod_Stretch_Energy-OPLS-2005>
34.0706253051758

> <r_mmod_Bend_Energy-OPLS-2005>
107.619766235352

> <r_mmod_Torsional_Energy-OPLS-2005>
219.042526245117

> <r_mmod_Improper_Torsional_Energy-OPLS-2005>
2.90128993988037

> <r_mmod_Van_der_Waal_Energy-OPLS-2005>
142.287994384766

> <r_mmod_Electrostatic_Energy-OPLS-2005>
-400.130828857422

> <r_mmod_Solvation_Energy-OPLS-2005>
-281.625213623047

> <b_mmod_Minimization_Converged-OPLS-2005>
0

> <r_mmod_RMS_Derivative-OPLS-2005>
1.06651902198792

$$$$
11
                    3D
 Structure written by MMmdl.
158165  0  0  1  0            999 V2000
  -30.7658  -14.3889   20.6360 C   0  0  0  0  0  0
  -30.4074  -12.2785   19.4144 C   0  0  0  0  0  0
  -29.4903  -12.5247   18.1997 C   0  0  0  0  0  0
  -28.0096  -12.3990   18.6040 C   0  0  0  0  0  0
  -27.6673  -13.2142   19.8803 C   0  0  2  0  0  0
  -28.7046  -12.9686   21.0009 C   0  0  0  0  0  0
  -25.2610  -13.8184   20.5647 C   0  0  0  0  0  0
  -24.1858  -13.0456   20.9146 C   0  0  0  0  0  0
  -24.6424  -11.6929   20.8746 C   0  0  0  0  0  0
  -23.9089  -10.4310   21.0422 C   0  0  0  0  0  0
  -24.3632   -9.4216   21.9193 C   0  0  0  0  0  0
  -23.6297   -8.2260   22.0762 C   0  0  0  0  0  0
  -22.4270   -8.0312   21.3575 C   0  0  0  0  0  0
  -21.9914   -9.0289   20.4670 C   0  0  0  0  0  0
  -22.7263  -10.2147   20.3065 C   0  0  0  0  0  0
  -21.6865   -6.0758   22.5298 C   0  0  0  0  0  0
  -21.4021   -6.5664   23.8236 C   0  0  0  0  0  0
  -21.3647   -5.6804   24.9185 C   0  0  0  0  0  0
  -21.6029   -4.3063   24.7226 C   0  0  0  0  0  0
  -21.8820   -3.8171   23.4356 C   0  0  0  0  0  0
  -21.9192   -4.6994   22.3407 C   0  0  0  0  0  0
  -22.7896  -13.5264   21.1841 C   0  0  0  0  0  0
  -22.1674   -4.2188   21.0981 F   0  0  0  0  0  0
  -21.5602   -3.4532   25.7736 F   0  0  0  0  0  0
  -30.0476  -13.2474   20.4604 N   0  0  0  0  0  0
  -26.3053  -12.9366   20.3350 N   0  0  0  0  0  0
  -25.9345  -11.6514   20.5746 N   0  0  0  0  0  0
  -22.0528  -12.8243   22.0385 N   0  0  0  0  0  0
  -25.4334  -15.1903   20.4105 N   0  0  0  0  0  0
  -31.8181  -14.6281   20.0402 O   0  0  0  0  0  0
  -21.6647   -6.8898   21.4256 O   0  0  0  0  0  0
  -22.3575  -14.5598   20.6747 O   0  0  0  0  0  0
  -24.6101  -31.8715   23.2139 C   0  0  0  0  0  0
  -25.9010  -32.4844   23.8419 C   0  0  1  0  0  0
  -27.2304  -27.4522   20.0946 C   0  0  0  0  0  0
  -25.5879  -33.8642   24.2359 N   0  0  0  0  0  0
  -23.3960  -30.4948   21.5544 C   0  0  2  0  0  0
  -24.8404  -28.9644   20.1208 C   0  0  0  0  0  0
  -22.7356  -29.4691   22.5019 C   0  0  0  0  0  0
  -18.0253  -28.1394   22.8486 C   0  0  0  0  0  0
  -24.1489  -36.7329   23.2643 C   0  0  0  0  0  0
  -25.9212  -30.8438   21.3623 C   0  0  0  0  0  0
  -25.9996  -29.4780   20.7130 C   0  0  0  0  0  0
  -27.1971  -28.7292   20.6948 C   0  0  0  0  0  0
  -26.0461  -26.9464   19.5050 C   0  0  0  0  0  0
  -24.8574  -27.6953   19.5186 C   0  0  0  0  0  0
  -23.6038  -29.8301   20.1683 C   0  0  0  0  0  0
  -25.4106  -36.3135   24.0358 C   0  0  1  0  0  0
  -20.5828  -28.3668   23.1298 C   0  0  2  0  0  0
  -20.6728  -26.9382   22.5424 C   0  0  0  0  0  0
  -19.5700  -26.6354   21.5215 C   0  0  0  0  0  0
  -18.1898  -26.7920   22.1655 C   0  0  0  0  0  0
  -19.1504  -28.8837   23.2895 C   0  0  0  0  0  0
  -18.9473  -30.1463   23.8858 C   0  0  0  0  0  0
  -17.6481  -30.6617   24.0554 C   0  0  0  0  0  0
  -25.9029  -34.9498   23.5147 C   0  0  0  0  0  0
  -16.5367  -29.9126   23.6339 C   0  0  0  0  0  0
  -16.7258  -28.6546   23.0341 C   0  0  0  0  0  0
  -26.4436  -31.6599   25.0716 C   0  0  0  0  0  0
  -25.3739  -31.3674   26.1494 C   0  0  0  0  0  0
  -27.0236  -30.3066   24.5996 C   0  0  0  0  0  0
  -27.6022  -32.4286   25.7473 C   0  0  0  0  0  0
  -27.5581  -37.1820   24.8466 C   0  0  0  0  0  0
  -21.4087  -29.3057   22.3715 N   0  0  0  0  0  0
  -26.4307  -37.3794   23.9404 N   0  0  0  0  0  0
  -24.6609  -31.0829   22.1033 N   0  0  0  0  0  0
  -23.4132  -28.8227   23.3053 O   0  0  0  0  0  0
  -28.4214  -26.7587   20.0955 O   0  0  0  0  0  0
  -26.5578  -34.8930   22.4697 O   0  0  0  0  0  0
  -23.5302  -32.1467   23.7550 O   0  0  0  0  0  0
  -30.8032  -16.6265   21.6666 C   0  0  0  0  0  0
  -30.0066  -17.4124   22.7233 C   0  0  0  0  0  0
  -28.3843  -25.3277   20.1107 C   0  0  0  0  0  0
  -27.9345  -24.7756   21.4773 C   0  0  0  0  0  0
  -28.1748  -18.1294   21.3338 C   0  0  0  0  0  0
  -27.1010  -19.1651   21.7100 C   0  0  0  0  0  0
  -27.4055  -22.7646   22.6157 C   0  0  0  0  0  0
  -26.7461  -21.3890   22.4286 C   0  0  0  0  0  0
  -30.2482  -15.2873   21.4780 N   0  0  0  0  0  0
  -28.6015  -17.4062   22.4848 O   0  0  0  0  0  0
  -27.5942  -23.3981   21.3515 O   0  0  0  0  0  0
  -27.7040  -20.4209   22.0108 O   0  0  0  0  0  0
  -31.4545  -12.3509   19.1182 H   0  0  0  0  0  0
  -30.2767  -11.2628   19.7914 H   0  0  0  0  0  0
  -29.7224  -11.8254   17.3950 H   0  0  0  0  0  0
  -29.6777  -13.5220   17.7984 H   0  0  0  0  0  0
  -27.7996  -11.3426   18.7700 H   0  0  0  0  0  0
  -27.3646  -12.7129   17.7823 H   0  0  0  0  0  0
  -27.7166  -14.2687   19.6085 H   0  0  0  0  0  0
  -28.6574  -11.9347   21.3434 H   0  0  0  0  0  0
  -28.4595  -13.5680   21.8779 H   0  0  0  0  0  0
  -25.2789   -9.5683   22.4748 H   0  0  0  0  0  0
  -24.0037   -7.4633   22.7446 H   0  0  0  0  0  0
  -21.0869   -8.8814   19.8962 H   0  0  0  0  0  0
  -22.3768  -10.9680   19.6159 H   0  0  0  0  0  0
  -21.2035   -7.6184   23.9755 H   0  0  0  0  0  0
  -21.1443   -6.0531   25.9085 H   0  0  0  0  0  0
  -22.0608   -2.7644   23.2837 H   0  0  0  0  0  0
  -22.4168  -11.9919   22.4781 H   0  0  0  0  0  0
  -21.1157  -13.1310   22.2571 H   0  0  0  0  0  0
  -24.6752  -15.8507   20.5350 H   0  0  0  0  0  0
  -26.2984  -15.6303   20.1253 H   0  0  0  0  0  0
  -26.7092  -32.5561   23.1204 H   0  0  0  0  0  0
  -25.0030  -33.9781   25.0512 H   0  0  0  0  0  0
  -22.6840  -31.3118   21.4153 H   0  0  0  0  0  0
  -23.3746  -35.9659   23.3322 H   0  0  0  0  0  0
  -24.3596  -36.8909   22.2051 H   0  0  0  0  0  0
  -23.7252  -37.6548   23.6635 H   0  0  0  0  0  0
  -26.0240  -31.6055   20.5894 H   0  0  0  0  0  0
  -26.8156  -30.9024   21.9711 H   0  0  0  0  0  0
  -28.0959  -29.1251   21.1473 H   0  0  0  0  0  0
  -26.0144  -25.9838   19.0197 H   0  0  0  0  0  0
  -23.9650  -27.2922   19.0616 H   0  0  0  0  0  0
  -23.7141  -30.6060   19.4081 H   0  0  0  0  0  0
  -22.7275  -29.2498   19.8720 H   0  0  0  0  0  0
  -25.1284  -36.2002   25.0854 H   0  0  0  0  0  0
  -20.9891  -28.3229   24.1424 H   0  0  0  0  0  0
  -20.5602  -26.2251   23.3610 H   0  0  0  0  0  0
  -21.6611  -26.7407   22.1227 H   0  0  0  0  0  0
  -19.6846  -25.6250   21.1270 H   0  0  0  0  0  0
  -19.6652  -27.3143   20.6733 H   0  0  0  0  0  0
  -17.4137  -26.6615   21.4110 H   0  0  0  0  0  0
  -18.0347  -26.0112   22.9107 H   0  0  0  0  0  0
  -19.7981  -30.7257   24.2181 H   0  0  0  0  0  0
  -17.5108  -31.6305   24.5150 H   0  0  0  0  0  0
  -15.5386  -30.3040   23.7694 H   0  0  0  0  0  0
  -15.8663  -28.0877   22.7024 H   0  0  0  0  0  0
  -24.5943  -30.6961   25.7877 H   0  0  0  0  0  0
  -24.8897  -32.2806   26.4953 H   0  0  0  0  0  0
  -25.8157  -30.8882   27.0242 H   0  0  0  0  0  0
  -26.2729  -29.6882   24.1065 H   0  0  0  0  0  0
  -27.4075  -29.7227   25.4369 H   0  0  0  0  0  0
  -27.8537  -30.4433   23.9068 H   0  0  0  0  0  0
  -27.2658  -33.3587   26.2067 H   0  0  0  0  0  0
  -28.3831  -32.6835   25.0301 H   0  0  0  0  0  0
  -28.0682  -31.8392   26.5376 H   0  0  0  0  0  0
  -28.2621  -38.0097   24.7492 H   0  0  0  0  0  0
  -28.1059  -36.2630   24.6327 H   0  0  0  0  0  0
  -27.2290  -37.1508   25.8865 H   0  0  0  0  0  0
  -20.9228  -29.8741   21.6898 H   0  0  0  0  0  0
  -26.0211  -38.2877   24.1379 H   0  0  0  0  0  0
  -31.8503  -16.5537   21.9721 H   0  0  0  0  0  0
  -30.8015  -17.1641   20.7154 H   0  0  0  0  0  0
  -30.3767  -18.4353   22.8054 H   0  0  0  0  0  0
  -30.1733  -16.9517   23.6981 H   0  0  0  0  0  0
  -27.7738  -24.9237   19.3056 H   0  0  0  0  0  0
  -29.3912  -24.9687   19.9042 H   0  0  0  0  0  0
  -27.0649  -25.3227   21.8493 H   0  0  0  0  0  0
  -28.7350  -24.9156   22.2048 H   0  0  0  0  0  0
  -28.9949  -18.6094   20.7986 H   0  0  0  0  0  0
  -27.7358  -17.3974   20.6547 H   0  0  0  0  0  0
  -26.4948  -18.8077   22.5443 H   0  0  0  0  0  0
  -26.4299  -19.2956   20.8600 H   0  0  0  0  0  0
  -26.7483  -23.3755   23.2379 H   0  0  0  0  0  0
  -28.3573  -22.6684   23.1402 H   0  0  0  0  0  0
  -25.9108  -21.4697   21.7303 H   0  0  0  0  0  0
  -26.3306  -21.0636   23.3829 H   0  0  0  0  0  0
  -29.3893  -15.0652   21.9615 H   0  0  0  0  0  0
  1 25  1  0  0  0
  1 30  2  0  0  0
  1 79  1  0  0  0
  2  3  1  0  0  0
  2 25  1  0  0  0
  2 83  1  0  0  0
  2 84  1  0  0  0
  3  4  1  0  0  0
  3 85  1  0  0  0
  3 86  1  0  0  0
  4  5  1  0  0  0
  4 87  1  0  0  0
  4 88  1  0  0  0
  5  6  1  0  0  0
  5 26  1  0  0  0
  5 89  1  0  0  0
  6 25  1  0  0  0
  6 90  1  0  0  0
  6 91  1  0  0  0
  7  8  2  0  0  0
  7 26  1  0  0  0
  7 29  1  0  0  0
  8  9  1  0  0  0
  8 22  1  0  0  0
  9 10  1  0  0  0
  9 27  2  0  0  0
 10 11  2  0  0  0
 10 15  1  0  0  0
 11 12  1  0  0  0
 11 92  1  0  0  0
 12 13  2  0  0  0
 12 93  1  0  0  0
 13 14  1  0  0  0
 13 31  1  0  0  0
 14 15  2  0  0  0
 14 94  1  0  0  0
 15 95  1  0  0  0
 16 17  2  0  0  0
 16 21  1  0  0  0
 16 31  1  0  0  0
 17 18  1  0  0  0
 17 96  1  0  0  0
 18 19  2  0  0  0
 18 97  1  0  0  0
 19 20  1  0  0  0
 19 24  1  0  0  0
 20 21  2  0  0  0
 20 98  1  0  0  0
 21 23  1  0  0  0
 22 28  1  0  0  0
 22 32  2  0  0  0
 26 27  1  0  0  0
 28 99  1  0  0  0
 28100  1  0  0  0
 29101  1  0  0  0
 29102  1  0  0  0
 33 34  1  0  0  0
 33 66  1  0  0  0
 33 70  2  0  0  0
 34 36  1  0  0  0
 34 59  1  0  0  0
 34103  1  0  0  0
 35 44  2  0  0  0
 35 45  1  0  0  0
 35 68  1  0  0  0
 36 56  1  0  0  0
 36104  1  0  0  0
 37 39  1  0  0  0
 37 47  1  0  0  0
 37 66  1  0  0  0
 37105  1  0  0  0
 38 43  2  0  0  0
 38 46  1  0  0  0
 38 47  1  0  0  0
 39 64  1  0  0  0
 39 67  2  0  0  0
 40 52  1  0  0  0
 40 53  2  0  0  0
 40 58  1  0  0  0
 41106  1  0  0  0
 41107  1  0  0  0
 41108  1  0  0  0
 41 48  1  0  0  0
 42 43  1  0  0  0
 42 66  1  0  0  0
 42109  1  0  0  0
 42110  1  0  0  0
 43 44  1  0  0  0
 44111  1  0  0  0
 45 46  2  0  0  0
 45112  1  0  0  0
 46113  1  0  0  0
 47114  1  0  0  0
 47115  1  0  0  0
 48 56  1  0  0  0
 48 65  1  0  0  0
 48116  1  0  0  0
 49 50  1  0  0  0
 49 53  1  0  0  0
 49 64  1  0  0  0
 49117  1  0  0  0
 50 51  1  0  0  0
 50118  1  0  0  0
 50119  1  0  0  0
 51 52  1  0  0  0
 51120  1  0  0  0
 51121  1  0  0  0
 52122  1  0  0  0
 52123  1  0  0  0
 53 54  1  0  0  0
 54 55  2  0  0  0
 54124  1  0  0  0
 55 57  1  0  0  0
 55125  1  0  0  0
 56 69  2  0  0  0
 57 58  2  0  0  0
 57126  1  0  0  0
 58127  1  0  0  0
 59 60  1  0  0  0
 59 61  1  0  0  0
 59 62  1  0  0  0
 60128  1  0  0  0
 60129  1  0  0  0
 60130  1  0  0  0
 61131  1  0  0  0
 61132  1  0  0  0
 61133  1  0  0  0
 62134  1  0  0  0
 62135  1  0  0  0
 62136  1  0  0  0
 63 65  1  0  0  0
 63137  1  0  0  0
 63138  1  0  0  0
 63139  1  0  0  0
 64140  1  0  0  0
 65141  1  0  0  0
 68 73  1  0  0  0
 71 72  1  0  0  0
 71 79  1  0  0  0
 71142  1  0  0  0
 71143  1  0  0  0
 72 80  1  0  0  0
 72144  1  0  0  0
 72145  1  0  0  0
 73 74  1  0  0  0
 73146  1  0  0  0
 73147  1  0  0  0
 74 81  1  0  0  0
 74148  1  0  0  0
 74149  1  0  0  0
 75 76  1  0  0  0
 75 80  1  0  0  0
 75150  1  0  0  0
 75151  1  0  0  0
 76 82  1  0  0  0
 76152  1  0  0  0
 76153  1  0  0  0
 77 78  1  0  0  0
 77 81  1  0  0  0
 77154  1  0  0  0
 77155  1  0  0  0
 78 82  1  0  0  0
 78156  1  0  0  0
 78157  1  0  0  0
 79158  1  0  0  0
M  ISO  4   1 100  68 101  73 101  79 100
M  END
> <chiral flag>
0

> <version>
0

> <s_m_source_file>
/data/baiqing/PycharmProjects/Reinvent-master-3.2/result/LINK_invent/BTK/process_docking_weight1_custom_product_contain_oxygen_bond_distance_aromatic_linkinvent_7_9_3/rearranged_h_0000.sdf

> <i_m_source_file_index>
12

> <r_mmod_Potential_Energy-OPLS-2005>
-132.649719238281

> <r_mmod_Stretch_Energy-OPLS-2005>
31.9378795623779

> <r_mmod_Bend_Energy-OPLS-2005>
94.8774032592773

> <r_mmod_Torsional_Energy-OPLS-2005>
201.347106933594

> <r_mmod_Improper_Torsional_Energy-OPLS-2005>
1.87841999530792

> <r_mmod_Van_der_Waal_Energy-OPLS-2005>
137.073379516602

> <r_mmod_Electrostatic_Energy-OPLS-2005>
-394.197540283203

> <r_mmod_Solvation_Energy-OPLS-2005>
-213.581817626953

> <b_mmod_Minimization_Converged-OPLS-2005>
0

> <r_mmod_RMS_Derivative-OPLS-2005>
4.17057800292969

$$$$
12
                    3D
 Structure written by MMmdl.
157164  0  0  1  0            999 V2000
  -30.7652  -14.3843   20.6590 C   0  0  0  0  0  0
  -30.4021  -12.2742   19.3898 C   0  0  0  0  0  0
  -29.4747  -12.5250   18.1885 C   0  0  0  0  0  0
  -28.0019  -12.3679   18.6067 C   0  0  0  0  0  0
  -27.6557  -13.1985   19.8719 C   0  0  2  0  0  0
  -28.6857  -12.9585   20.9956 C   0  0  0  0  0  0
  -25.2586  -13.8168   20.5653 C   0  0  0  0  0  0
  -24.1818  -13.0456   20.9131 C   0  0  0  0  0  0
  -24.6346  -11.6919   20.8697 C   0  0  0  0  0  0
  -23.9024  -10.4305   21.0375 C   0  0  0  0  0  0
  -24.3590   -9.4236   21.9165 C   0  0  0  0  0  0
  -23.6279   -8.2265   22.0735 C   0  0  0  0  0  0
  -22.4257   -8.0276   21.3542 C   0  0  0  0  0  0
  -21.9861   -9.0256   20.4659 C   0  0  0  0  0  0
  -22.7194  -10.2131   20.3044 C   0  0  0  0  0  0
  -21.6855   -6.0729   22.5292 C   0  0  0  0  0  0
  -21.3998   -6.5633   23.8221 C   0  0  0  0  0  0
  -21.3646   -5.6787   24.9182 C   0  0  0  0  0  0
  -21.6030   -4.3051   24.7237 C   0  0  0  0  0  0
  -21.8809   -3.8141   23.4361 C   0  0  0  0  0  0
  -21.9180   -4.6960   22.3419 C   0  0  0  0  0  0
  -22.7849  -13.5281   21.1826 C   0  0  0  0  0  0
  -22.1675   -4.2144   21.1007 F   0  0  0  0  0  0
  -21.5618   -3.4528   25.7748 F   0  0  0  0  0  0
  -30.0248  -13.2152   20.4468 N   0  0  0  0  0  0
  -26.2975  -12.9303   20.3307 N   0  0  0  0  0  0
  -25.9260  -11.6479   20.5715 N   0  0  0  0  0  0
  -22.0479  -12.8219   22.0348 N   0  0  0  0  0  0
  -25.4391  -15.1872   20.4133 N   0  0  0  0  0  0
  -31.8192  -14.6741   20.0859 O   0  0  0  0  0  0
  -21.6632   -6.8867   21.4253 O   0  0  0  0  0  0
  -22.3554  -14.5608   20.6718 O   0  0  0  0  0  0
  -24.6139  -31.8699   23.2132 C   0  0  0  0  0  0
  -25.9048  -32.4818   23.8418 C   0  0  1  0  0  0
  -27.2266  -27.4607   20.0864 C   0  0  0  0  0  0
  -25.5945  -33.8618   24.2387 N   0  0  0  0  0  0
  -23.4009  -30.4974   21.5504 C   0  0  2  0  0  0
  -24.8445  -28.9702   20.1116 C   0  0  0  0  0  0
  -22.7420  -29.4679   22.4958 C   0  0  0  0  0  0
  -18.0278  -28.1384   22.8492 C   0  0  0  0  0  0
  -24.1488  -36.7289   23.2638 C   0  0  0  0  0  0
  -25.9290  -30.8440   21.3643 C   0  0  0  0  0  0
  -26.0054  -29.4843   20.7043 C   0  0  0  0  0  0
  -27.2029  -28.7381   20.6838 C   0  0  0  0  0  0
  -26.0510  -26.9550   19.4898 C   0  0  0  0  0  0
  -24.8615  -27.7047   19.5004 C   0  0  0  0  0  0
  -23.6086  -29.8372   20.1619 C   0  0  0  0  0  0
  -25.4100  -36.3108   24.0360 C   0  0  1  0  0  0
  -20.5876  -28.3667   23.1298 C   0  0  2  0  0  0
  -20.6775  -26.9400   22.5406 C   0  0  0  0  0  0
  -19.5749  -26.6393   21.5202 C   0  0  0  0  0  0
  -18.1925  -26.7928   22.1612 C   0  0  0  0  0  0
  -19.1535  -28.8834   23.2897 C   0  0  0  0  0  0
  -18.9461  -30.1444   23.8909 C   0  0  0  0  0  0
  -17.6466  -30.6579   24.0574 C   0  0  0  0  0  0
  -25.9028  -34.9469   23.5153 C   0  0  0  0  0  0
  -16.5355  -29.9088   23.6327 C   0  0  0  0  0  0
  -16.7271  -28.6509   23.0332 C   0  0  0  0  0  0
  -26.4508  -31.6561   25.0710 C   0  0  0  0  0  0
  -25.3826  -31.3619   26.1493 C   0  0  0  0  0  0
  -27.0334  -30.3022   24.6024 C   0  0  0  0  0  0
  -27.6113  -32.4247   25.7470 C   0  0  0  0  0  0
  -27.5577  -37.1802   24.8477 C   0  0  0  0  0  0
  -21.4145  -29.3037   22.3697 N   0  0  0  0  0  0
  -26.4291  -37.3788   23.9426 N   0  0  0  0  0  0
  -24.6652  -31.0845   22.1008 N   0  0  0  0  0  0
  -23.4200  -28.8214   23.2981 O   0  0  0  0  0  0
  -28.3814  -26.7174   20.1067 O   0  0  0  0  0  0
  -26.5558  -34.8906   22.4687 O   0  0  0  0  0  0
  -23.5341  -32.1416   23.7558 O   0  0  0  0  0  0
  -28.2436  -25.4326   20.7228 C   0  0  0  0  0  0
  -30.7851  -16.4129   21.9089 C   0  0  0  0  0  0
  -28.2715  -24.2792   19.7066 C   0  0  0  0  0  0
  -29.8504  -17.2504   22.7882 C   0  0  0  0  0  0
  -27.5535  -22.0331   19.3989 C   0  0  0  0  0  0
  -27.8930  -18.5840   22.7431 C   0  0  0  0  0  0
  -26.7735  -20.8903   20.0715 C   0  0  0  0  0  0
  -26.9042  -19.2499   21.7793 C   0  0  0  0  0  0
  -30.1691  -15.1809   21.5608 O   0  0  0  0  0  0
  -27.6328  -23.1442   20.2842 O   0  0  0  0  0  0
  -28.8093  -17.7975   21.9899 O   0  0  0  0  0  0
  -27.5785  -20.2886   21.0758 O   0  0  0  0  0  0
  -31.4496  -12.3748   19.0976 H   0  0  0  0  0  0
  -30.2843  -11.2526   19.7551 H   0  0  0  0  0  0
  -29.7130  -11.8419   17.3722 H   0  0  0  0  0  0
  -29.6361  -13.5329   17.8055 H   0  0  0  0  0  0
  -27.8158  -11.3093   18.7940 H   0  0  0  0  0  0
  -27.3447  -12.6451   17.7810 H   0  0  0  0  0  0
  -27.7104  -14.2496   19.5872 H   0  0  0  0  0  0
  -28.6314  -11.9252   21.3421 H   0  0  0  0  0  0
  -28.4390  -13.5696   21.8661 H   0  0  0  0  0  0
  -25.2741   -9.5729   22.4740 H   0  0  0  0  0  0
  -23.9998   -7.4660   22.7450 H   0  0  0  0  0  0
  -21.0758   -8.8775   19.9003 H   0  0  0  0  0  0
  -22.3624  -10.9659   19.6156 H   0  0  0  0  0  0
  -21.1994   -7.6140   23.9713 H   0  0  0  0  0  0
  -21.1474   -6.0525   25.9084 H   0  0  0  0  0  0
  -22.0587   -2.7599   23.2884 H   0  0  0  0  0  0
  -22.4108  -11.9842   22.4657 H   0  0  0  0  0  0
  -21.1081  -13.1177   22.2577 H   0  0  0  0  0  0
  -24.6849  -15.8537   20.5283 H   0  0  0  0  0  0
  -26.3074  -15.6180   20.1202 H   0  0  0  0  0  0
  -26.7119  -32.5564   23.1182 H   0  0  0  0  0  0
  -25.0226  -33.9786   25.0621 H   0  0  0  0  0  0
  -22.6883  -31.3139   21.4161 H   0  0  0  0  0  0
  -23.3755  -35.9618   23.3315 H   0  0  0  0  0  0
  -24.3583  -36.8863   22.2048 H   0  0  0  0  0  0
  -23.7218  -37.6495   23.6616 H   0  0  0  0  0  0
  -26.0496  -31.6171   20.6046 H   0  0  0  0  0  0
  -26.8142  -30.8856   21.9880 H   0  0  0  0  0  0
  -28.1004  -29.1297   21.1414 H   0  0  0  0  0  0
  -26.0459  -25.9861   19.0150 H   0  0  0  0  0  0
  -23.9700  -27.3058   19.0379 H   0  0  0  0  0  0
  -23.7290  -30.6184   19.4099 H   0  0  0  0  0  0
  -22.7311  -29.2653   19.8561 H   0  0  0  0  0  0
  -25.1265  -36.1978   25.0858 H   0  0  0  0  0  0
  -20.9986  -28.3241   24.1409 H   0  0  0  0  0  0
  -20.5671  -26.2272   23.3595 H   0  0  0  0  0  0
  -21.6640  -26.7436   22.1197 H   0  0  0  0  0  0
  -19.6899  -25.6309   21.1206 H   0  0  0  0  0  0
  -19.6683  -27.3225   20.6752 H   0  0  0  0  0  0
  -17.4198  -26.6691   21.4014 H   0  0  0  0  0  0
  -18.0324  -26.0058   22.9004 H   0  0  0  0  0  0
  -19.7937  -30.7267   24.2270 H   0  0  0  0  0  0
  -17.5013  -31.6252   24.5188 H   0  0  0  0  0  0
  -15.5348  -30.2995   23.7631 H   0  0  0  0  0  0
  -15.8681  -28.0845   22.7011 H   0  0  0  0  0  0
  -24.6025  -30.6924   25.7852 H   0  0  0  0  0  0
  -24.9001  -32.2750   26.4995 H   0  0  0  0  0  0
  -25.8255  -30.8782   27.0212 H   0  0  0  0  0  0
  -26.2842  -29.6763   24.1170 H   0  0  0  0  0  0
  -27.4237  -29.7261   25.4425 H   0  0  0  0  0  0
  -27.8624  -30.4367   23.9077 H   0  0  0  0  0  0
  -27.2775  -33.3541   26.2096 H   0  0  0  0  0  0
  -28.3917  -32.6785   25.0286 H   0  0  0  0  0  0
  -28.0787  -31.8318   26.5348 H   0  0  0  0  0  0
  -28.2613  -38.0086   24.7513 H   0  0  0  0  0  0
  -28.1058  -36.2613   24.6320 H   0  0  0  0  0  0
  -27.2305  -37.1478   25.8887 H   0  0  0  0  0  0
  -20.9294  -29.8757   21.6940 H   0  0  0  0  0  0
  -26.0180  -38.2868   24.1430 H   0  0  0  0  0  0
  -29.0439  -25.2968   21.4491 H   0  0  0  0  0  0
  -27.3204  -25.3789   21.3059 H   0  0  0  0  0  0
  -31.7063  -16.1946   22.4484 H   0  0  0  0  0  0
  -31.0576  -16.9785   21.0169 H   0  0  0  0  0  0
  -29.3001  -24.0524   19.4230 H   0  0  0  0  0  0
  -27.7440  -24.5624   18.7952 H   0  0  0  0  0  0
  -30.4244  -18.0666   23.2298 H   0  0  0  0  0  0
  -29.4511  -16.6519   23.6083 H   0  0  0  0  0  0
  -27.0316  -22.3351   18.4900 H   0  0  0  0  0  0
  -28.5478  -21.6974   19.0991 H   0  0  0  0  0  0
  -27.3564  -17.9403   23.4441 H   0  0  0  0  0  0
  -28.4087  -19.3462   23.3307 H   0  0  0  0  0  0
  -26.5198  -20.1346   19.3254 H   0  0  0  0  0  0
  -25.8358  -21.2626   20.4892 H   0  0  0  0  0  0
  -26.0699  -19.6709   22.3430 H   0  0  0  0  0  0
  -26.4904  -18.5064   21.0970 H   0  0  0  0  0  0
  1 25  1  0  0  0
  1 30  2  0  0  0
  1 79  1  0  0  0
  2  3  1  0  0  0
  2 25  1  0  0  0
  2 83  1  0  0  0
  2 84  1  0  0  0
  3  4  1  0  0  0
  3 85  1  0  0  0
  3 86  1  0  0  0
  4  5  1  0  0  0
  4 87  1  0  0  0
  4 88  1  0  0  0
  5  6  1  0  0  0
  5 26  1  0  0  0
  5 89  1  0  0  0
  6 25  1  0  0  0
  6 90  1  0  0  0
  6 91  1  0  0  0
  7  8  2  0  0  0
  7 26  1  0  0  0
  7 29  1  0  0  0
  8  9  1  0  0  0
  8 22  1  0  0  0
  9 10  1  0  0  0
  9 27  2  0  0  0
 10 11  2  0  0  0
 10 15  1  0  0  0
 11 12  1  0  0  0
 11 92  1  0  0  0
 12 13  2  0  0  0
 12 93  1  0  0  0
 13 14  1  0  0  0
 13 31  1  0  0  0
 14 15  2  0  0  0
 14 94  1  0  0  0
 15 95  1  0  0  0
 16 17  2  0  0  0
 16 21  1  0  0  0
 16 31  1  0  0  0
 17 18  1  0  0  0
 17 96  1  0  0  0
 18 19  2  0  0  0
 18 97  1  0  0  0
 19 20  1  0  0  0
 19 24  1  0  0  0
 20 21  2  0  0  0
 20 98  1  0  0  0
 21 23  1  0  0  0
 22 28  1  0  0  0
 22 32  2  0  0  0
 26 27  1  0  0  0
 28 99  1  0  0  0
 28100  1  0  0  0
 29101  1  0  0  0
 29102  1  0  0  0
 33 34  1  0  0  0
 33 66  1  0  0  0
 33 70  2  0  0  0
 34 36  1  0  0  0
 34 59  1  0  0  0
 34103  1  0  0  0
 35 44  2  0  0  0
 35 45  1  0  0  0
 35 68  1  0  0  0
 36 56  1  0  0  0
 36104  1  0  0  0
 37 39  1  0  0  0
 37 47  1  0  0  0
 37 66  1  0  0  0
 37105  1  0  0  0
 38 43  2  0  0  0
 38 46  1  0  0  0
 38 47  1  0  0  0
 39 64  1  0  0  0
 39 67  2  0  0  0
 40 52  1  0  0  0
 40 53  2  0  0  0
 40 58  1  0  0  0
 41106  1  0  0  0
 41107  1  0  0  0
 41108  1  0  0  0
 41 48  1  0  0  0
 42 43  1  0  0  0
 42 66  1  0  0  0
 42109  1  0  0  0
 42110  1  0  0  0
 43 44  1  0  0  0
 44111  1  0  0  0
 45 46  2  0  0  0
 45112  1  0  0  0
 46113  1  0  0  0
 47114  1  0  0  0
 47115  1  0  0  0
 48 56  1  0  0  0
 48 65  1  0  0  0
 48116  1  0  0  0
 49 50  1  0  0  0
 49 53  1  0  0  0
 49 64  1  0  0  0
 49117  1  0  0  0
 50 51  1  0  0  0
 50118  1  0  0  0
 50119  1  0  0  0
 51 52  1  0  0  0
 51120  1  0  0  0
 51121  1  0  0  0
 52122  1  0  0  0
 52123  1  0  0  0
 53 54  1  0  0  0
 54 55  2  0  0  0
 54124  1  0  0  0
 55 57  1  0  0  0
 55125  1  0  0  0
 56 69  2  0  0  0
 57 58  2  0  0  0
 57126  1  0  0  0
 58127  1  0  0  0
 59 60  1  0  0  0
 59 61  1  0  0  0
 59 62  1  0  0  0
 60128  1  0  0  0
 60129  1  0  0  0
 60130  1  0  0  0
 61131  1  0  0  0
 61132  1  0  0  0
 61133  1  0  0  0
 62134  1  0  0  0
 62135  1  0  0  0
 62136  1  0  0  0
 63 65  1  0  0  0
 63137  1  0  0  0
 63138  1  0  0  0
 63139  1  0  0  0
 64140  1  0  0  0
 65141  1  0  0  0
 68 71  1  0  0  0
 71 73  1  0  0  0
 71142  1  0  0  0
 71143  1  0  0  0
 72 74  1  0  0  0
 72 79  1  0  0  0
 72144  1  0  0  0
 72145  1  0  0  0
 73 80  1  0  0  0
 73146  1  0  0  0
 73147  1  0  0  0
 74 81  1  0  0  0
 74148  1  0  0  0
 74149  1  0  0  0
 75 77  1  0  0  0
 75 80  1  0  0  0
 75150  1  0  0  0
 75151  1  0  0  0
 76 78  1  0  0  0
 76 81  1  0  0  0
 76152  1  0  0  0
 76153  1  0  0  0
 77 82  1  0  0  0
 77154  1  0  0  0
 77155  1  0  0  0
 78 82  1  0  0  0
 78156  1  0  0  0
 78157  1  0  0  0
M  ISO  4   1 100  68 101  71 101  79 100
M  END
> <chiral flag>
0

> <version>
0

> <s_m_source_file>
/data/baiqing/PycharmProjects/Reinvent-master-3.2/result/LINK_invent/BTK/process_docking_weight1_custom_product_contain_oxygen_bond_distance_aromatic_linkinvent_7_9_3/rearranged_h_0000.sdf

> <i_m_source_file_index>
13

> <r_mmod_Potential_Energy-OPLS-2005>
-100.674758911133

> <r_mmod_Stretch_Energy-OPLS-2005>
29.6129684448242

> <r_mmod_Bend_Energy-OPLS-2005>
82.3891220092773

> <r_mmod_Torsional_Energy-OPLS-2005>
162.403533935547

> <r_mmod_Improper_Torsional_Energy-OPLS-2005>
1.61335015296936

> <r_mmod_Van_der_Waal_Energy-OPLS-2005>
134.66584777832

> <r_mmod_Electrostatic_Energy-OPLS-2005>
-312.382263183594

> <r_mmod_Solvation_Energy-OPLS-2005>
-206.86164855957

> <b_mmod_Minimization_Converged-OPLS-2005>
0

> <r_mmod_RMS_Derivative-OPLS-2005>
2.72409343719482

$$$$
13
                    3D
 Structure written by MMmdl.
158165  0  0  1  0            999 V2000
  -30.6979  -14.4374   20.6070 C   0  0  0  0  0  0
  -30.4229  -12.2932   19.4312 C   0  0  0  0  0  0
  -29.5006  -12.5176   18.2142 C   0  0  0  0  0  0
  -28.0201  -12.3686   18.6148 C   0  0  0  0  0  0
  -27.6621  -13.1971   19.8765 C   0  0  2  0  0  0
  -28.6942  -12.9357   20.9946 C   0  0  0  0  0  0
  -25.2620  -13.8149   20.5675 C   0  0  0  0  0  0
  -24.1840  -13.0438   20.9175 C   0  0  0  0  0  0
  -24.6373  -11.6906   20.8715 C   0  0  0  0  0  0
  -23.9050  -10.4292   21.0401 C   0  0  0  0  0  0
  -24.3601   -9.4207   21.9190 C   0  0  0  0  0  0
  -23.6291   -8.2243   22.0749 C   0  0  0  0  0  0
  -22.4268   -8.0291   21.3561 C   0  0  0  0  0  0
  -21.9905   -9.0248   20.4660 C   0  0  0  0  0  0
  -22.7217  -10.2136   20.3072 C   0  0  0  0  0  0
  -21.6844   -6.0755   22.5288 C   0  0  0  0  0  0
  -21.3995   -6.5652   23.8217 C   0  0  0  0  0  0
  -21.3655   -5.6809   24.9178 C   0  0  0  0  0  0
  -21.6030   -4.3070   24.7228 C   0  0  0  0  0  0
  -21.8828   -3.8173   23.4352 C   0  0  0  0  0  0
  -21.9173   -4.6988   22.3405 C   0  0  0  0  0  0
  -22.7869  -13.5256   21.1840 C   0  0  0  0  0  0
  -22.1666   -4.2176   21.0988 F   0  0  0  0  0  0
  -21.5620   -3.4549   25.7744 F   0  0  0  0  0  0
  -30.0248  -13.2647   20.4631 N   0  0  0  0  0  0
  -26.3004  -12.9287   20.3314 N   0  0  0  0  0  0
  -25.9285  -11.6454   20.5702 N   0  0  0  0  0  0
  -22.0500  -12.8239   22.0391 N   0  0  0  0  0  0
  -25.4449  -15.1863   20.4166 N   0  0  0  0  0  0
  -31.8247  -14.6235   20.1413 O   0  0  0  0  0  0
  -21.6638   -6.8887   21.4256 O   0  0  0  0  0  0
  -22.3569  -14.5563   20.6702 O   0  0  0  0  0  0
  -24.6105  -31.8729   23.2150 C   0  0  0  0  0  0
  -25.9002  -32.4873   23.8427 C   0  0  1  0  0  0
  -27.2193  -27.4482   20.1143 C   0  0  0  0  0  0
  -25.5868  -33.8676   24.2368 N   0  0  0  0  0  0
  -23.3985  -30.4971   21.5536 C   0  0  2  0  0  0
  -24.8478  -28.9723   20.1099 C   0  0  0  0  0  0
  -22.7384  -29.4685   22.5006 C   0  0  0  0  0  0
  -18.0239  -28.1395   22.8478 C   0  0  0  0  0  0
  -24.1484  -36.7324   23.2650 C   0  0  0  0  0  0
  -25.9283  -30.8425   21.3675 C   0  0  0  0  0  0
  -26.0047  -29.4773   20.7187 C   0  0  0  0  0  0
  -27.1950  -28.7180   20.7297 C   0  0  0  0  0  0
  -26.0615  -26.9717   19.4654 C   0  0  0  0  0  0
  -24.8691  -27.7157   19.4822 C   0  0  0  0  0  0
  -23.6062  -29.8347   20.1652 C   0  0  0  0  0  0
  -25.4101  -36.3163   24.0374 C   0  0  1  0  0  0
  -20.5838  -28.3654   23.1296 C   0  0  2  0  0  0
  -20.6732  -26.9392   22.5399 C   0  0  0  0  0  0
  -19.5699  -26.6367   21.5229 C   0  0  0  0  0  0
  -18.1877  -26.7945   22.1618 C   0  0  0  0  0  0
  -19.1498  -28.8830   23.2889 C   0  0  0  0  0  0
  -18.9430  -30.1425   23.8898 C   0  0  0  0  0  0
  -17.6448  -30.6589   24.0543 C   0  0  0  0  0  0
  -25.9021  -34.9521   23.5177 C   0  0  0  0  0  0
  -16.5329  -29.9098   23.6335 C   0  0  0  0  0  0
  -16.7223  -28.6515   23.0362 C   0  0  0  0  0  0
  -26.4431  -31.6642   25.0736 C   0  0  0  0  0  0
  -25.3712  -31.3706   26.1486 C   0  0  0  0  0  0
  -27.0272  -30.3118   24.6080 C   0  0  0  0  0  0
  -27.6048  -32.4313   25.7468 C   0  0  0  0  0  0
  -27.5593  -37.1828   24.8474 C   0  0  0  0  0  0
  -21.4112  -29.3040   22.3724 N   0  0  0  0  0  0
  -26.4301  -37.3817   23.9430 N   0  0  0  0  0  0
  -24.6634  -31.0844   22.1040 N   0  0  0  0  0  0
  -23.4165  -28.8236   23.3042 O   0  0  0  0  0  0
  -28.3430  -26.6622   20.1444 O   0  0  0  0  0  0
  -26.5572  -34.8938   22.4733 O   0  0  0  0  0  0
  -23.5296  -32.1455   23.7555 O   0  0  0  0  0  0
  -27.9655  -18.3621   24.0315 C   0  0  0  0  0  0
  -26.9441  -19.5123   24.1055 C   0  0  0  0  0  0
  -29.7122  -17.2624   22.6244 C   0  0  0  0  0  0
  -29.2562  -15.8733   22.1216 C   0  0  0  0  0  0
  -28.3895  -25.7605   21.2631 C   0  0  0  0  0  0
  -26.4133  -21.6875   23.3211 C   0  0  0  0  0  0
  -27.2725  -24.6850   21.2467 C   0  0  0  0  0  0
  -26.4573  -22.6393   22.1063 C   0  0  0  0  0  0
  -28.6013  -18.1818   22.8684 N   0  0  0  0  0  0
  -29.9662  -15.5247   20.8885 N   0  0  0  0  0  0
  -28.1797  -17.6542   25.0184 O   0  0  0  0  0  0
  -27.2663  -20.5512   23.1674 O   0  0  0  0  0  0
  -27.4557  -23.6584   22.2264 O   0  0  0  0  0  0
  -31.4706  -12.3975   19.1399 H   0  0  0  0  0  0
  -30.3263  -11.2741   19.8131 H   0  0  0  0  0  0
  -29.7472  -11.8085   17.4211 H   0  0  0  0  0  0
  -29.6670  -13.5165   17.8042 H   0  0  0  0  0  0
  -27.8379  -11.3107   18.8052 H   0  0  0  0  0  0
  -27.3684  -12.6422   17.7849 H   0  0  0  0  0  0
  -27.7160  -14.2496   19.5963 H   0  0  0  0  0  0
  -28.6725  -11.8857   21.2865 H   0  0  0  0  0  0
  -28.4371  -13.4706   21.9008 H   0  0  0  0  0  0
  -25.2736   -9.5674   22.4779 H   0  0  0  0  0  0
  -23.9995   -7.4629   22.7471 H   0  0  0  0  0  0
  -21.0821   -8.8775   19.8973 H   0  0  0  0  0  0
  -22.3667  -10.9690   19.6199 H   0  0  0  0  0  0
  -21.2013   -7.6162   23.9731 H   0  0  0  0  0  0
  -21.1456   -6.0537   25.9073 H   0  0  0  0  0  0
  -22.0610   -2.7645   23.2840 H   0  0  0  0  0  0
  -22.4094  -11.9854   22.4708 H   0  0  0  0  0  0
  -21.1166  -13.1350   22.2702 H   0  0  0  0  0  0
  -24.6950  -15.8572   20.5338 H   0  0  0  0  0  0
  -26.3139  -15.6085   20.1114 H   0  0  0  0  0  0
  -26.7081  -32.5552   23.1189 H   0  0  0  0  0  0
  -25.0013  -33.9827   25.0512 H   0  0  0  0  0  0
  -22.6843  -31.3125   21.4207 H   0  0  0  0  0  0
  -23.3757  -35.9646   23.3324 H   0  0  0  0  0  0
  -24.3585  -36.8890   22.2064 H   0  0  0  0  0  0
  -23.7198  -37.6529   23.6617 H   0  0  0  0  0  0
  -26.0348  -31.6063   20.5964 H   0  0  0  0  0  0
  -26.8187  -30.8985   21.9819 H   0  0  0  0  0  0
  -28.0829  -29.0948   21.2180 H   0  0  0  0  0  0
  -26.0753  -26.0120   18.9695 H   0  0  0  0  0  0
  -23.9837  -27.3178   19.0079 H   0  0  0  0  0  0
  -23.7082  -30.6164   19.4104 H   0  0  0  0  0  0
  -22.7313  -29.2544   19.8668 H   0  0  0  0  0  0
  -25.1274  -36.2071   25.0870 H   0  0  0  0  0  0
  -20.9891  -28.3179   24.1421 H   0  0  0  0  0  0
  -21.6595  -26.7398   22.1180 H   0  0  0  0  0  0
  -20.5664  -26.2270   23.3578 H   0  0  0  0  0  0
  -19.6855  -25.6277   21.1268 H   0  0  0  0  0  0
  -19.6670  -27.3135   20.6732 H   0  0  0  0  0  0
  -17.4129  -26.6661   21.4036 H   0  0  0  0  0  0
  -18.0219  -26.0105   22.9015 H   0  0  0  0  0  0
  -19.7898  -30.7229   24.2310 H   0  0  0  0  0  0
  -17.5018  -31.6296   24.5092 H   0  0  0  0  0  0
  -15.5345  -30.3023   23.7698 H   0  0  0  0  0  0
  -15.8608  -28.0859   22.7099 H   0  0  0  0  0  0
  -24.5881  -30.7063   25.7797 H   0  0  0  0  0  0
  -24.8877  -32.2831   26.4993 H   0  0  0  0  0  0
  -25.8055  -30.8824   27.0218 H   0  0  0  0  0  0
  -26.2836  -29.6888   24.1093 H   0  0  0  0  0  0
  -27.4038  -29.7349   25.4531 H   0  0  0  0  0  0
  -27.8657  -30.4470   23.9241 H   0  0  0  0  0  0
  -27.2737  -33.3601   26.2117 H   0  0  0  0  0  0
  -28.3810  -32.6875   25.0247 H   0  0  0  0  0  0
  -28.0771  -31.8374   26.5302 H   0  0  0  0  0  0
  -28.2649  -38.0090   24.7526 H   0  0  0  0  0  0
  -28.1049  -36.2637   24.6308 H   0  0  0  0  0  0
  -27.2315  -37.1502   25.8872 H   0  0  0  0  0  0
  -20.9261  -29.8716   21.6925 H   0  0  0  0  0  0
  -26.0230  -38.2923   24.1364 H   0  0  0  0  0  0
  -25.9513  -19.1092   23.8939 H   0  0  0  0  0  0
  -26.9213  -19.9102   25.1214 H   0  0  0  0  0  0
  -30.3607  -17.7445   21.8930 H   0  0  0  0  0  0
  -30.3206  -17.1584   23.5236 H   0  0  0  0  0  0
  -29.4349  -15.1359   22.9071 H   0  0  0  0  0  0
  -28.1839  -15.8658   21.9084 H   0  0  0  0  0  0
  -28.3706  -26.3205   22.2002 H   0  0  0  0  0  0
  -29.3547  -25.2564   21.2326 H   0  0  0  0  0  0
  -26.6382  -22.2224   24.2463 H   0  0  0  0  0  0
  -25.3856  -21.3278   23.4161 H   0  0  0  0  0  0
  -27.2359  -24.2300   20.2552 H   0  0  0  0  0  0
  -26.3077  -25.1641   21.4259 H   0  0  0  0  0  0
  -25.4785  -23.1236   22.0351 H   0  0  0  0  0  0
  -26.5942  -22.0757   21.1819 H   0  0  0  0  0  0
  -28.3568  -18.8352   22.1327 H   0  0  0  0  0  0
  -30.3889  -16.3408   20.4722 H   0  0  0  0  0  0
  1 25  1  0  0  0
  1 30  2  0  0  0
  1 80  1  0  0  0
  2  3  1  0  0  0
  2 25  1  0  0  0
  2 84  1  0  0  0
  2 85  1  0  0  0
  3  4  1  0  0  0
  3 86  1  0  0  0
  3 87  1  0  0  0
  4  5  1  0  0  0
  4 88  1  0  0  0
  4 89  1  0  0  0
  5  6  1  0  0  0
  5 26  1  0  0  0
  5 90  1  0  0  0
  6 25  1  0  0  0
  6 91  1  0  0  0
  6 92  1  0  0  0
  7  8  2  0  0  0
  7 26  1  0  0  0
  7 29  1  0  0  0
  8  9  1  0  0  0
  8 22  1  0  0  0
  9 10  1  0  0  0
  9 27  2  0  0  0
 10 11  2  0  0  0
 10 15  1  0  0  0
 11 12  1  0  0  0
 11 93  1  0  0  0
 12 13  2  0  0  0
 12 94  1  0  0  0
 13 14  1  0  0  0
 13 31  1  0  0  0
 14 15  2  0  0  0
 14 95  1  0  0  0
 15 96  1  0  0  0
 16 17  2  0  0  0
 16 21  1  0  0  0
 16 31  1  0  0  0
 17 18  1  0  0  0
 17 97  1  0  0  0
 18 19  2  0  0  0
 18 98  1  0  0  0
 19 20  1  0  0  0
 19 24  1  0  0  0
 20 21  2  0  0  0
 20 99  1  0  0  0
 21 23  1  0  0  0
 22 28  1  0  0  0
 22 32  2  0  0  0
 26 27  1  0  0  0
 28100  1  0  0  0
 28101  1  0  0  0
 29102  1  0  0  0
 29103  1  0  0  0
 33 34  1  0  0  0
 33 66  1  0  0  0
 33 70  2  0  0  0
 34 36  1  0  0  0
 34 59  1  0  0  0
 34104  1  0  0  0
 35 44  2  0  0  0
 35 45  1  0  0  0
 35 68  1  0  0  0
 36 56  1  0  0  0
 36105  1  0  0  0
 37 39  1  0  0  0
 37 47  1  0  0  0
 37 66  1  0  0  0
 37106  1  0  0  0
 38 43  2  0  0  0
 38 46  1  0  0  0
 38 47  1  0  0  0
 39 64  1  0  0  0
 39 67  2  0  0  0
 40 52  1  0  0  0
 40 53  2  0  0  0
 40 58  1  0  0  0
 41107  1  0  0  0
 41108  1  0  0  0
 41109  1  0  0  0
 41 48  1  0  0  0
 42 43  1  0  0  0
 42 66  1  0  0  0
 42110  1  0  0  0
 42111  1  0  0  0
 43 44  1  0  0  0
 44112  1  0  0  0
 45 46  2  0  0  0
 45113  1  0  0  0
 46114  1  0  0  0
 47115  1  0  0  0
 47116  1  0  0  0
 48 56  1  0  0  0
 48 65  1  0  0  0
 48117  1  0  0  0
 49 50  1  0  0  0
 49 53  1  0  0  0
 49 64  1  0  0  0
 49118  1  0  0  0
 50 51  1  0  0  0
 50119  1  0  0  0
 50120  1  0  0  0
 51 52  1  0  0  0
 51121  1  0  0  0
 51122  1  0  0  0
 52123  1  0  0  0
 52124  1  0  0  0
 53 54  1  0  0  0
 54 55  2  0  0  0
 54125  1  0  0  0
 55 57  1  0  0  0
 55126  1  0  0  0
 56 69  2  0  0  0
 57 58  2  0  0  0
 57127  1  0  0  0
 58128  1  0  0  0
 59 60  1  0  0  0
 59 61  1  0  0  0
 59 62  1  0  0  0
 60129  1  0  0  0
 60130  1  0  0  0
 60131  1  0  0  0
 61132  1  0  0  0
 61133  1  0  0  0
 61134  1  0  0  0
 62135  1  0  0  0
 62136  1  0  0  0
 62137  1  0  0  0
 63 65  1  0  0  0
 63138  1  0  0  0
 63139  1  0  0  0
 63140  1  0  0  0
 64141  1  0  0  0
 65142  1  0  0  0
 68 75  1  0  0  0
 71 72  1  0  0  0
 71 79  1  0  0  0
 71 81  2  0  0  0
 72 82  1  0  0  0
 72143  1  0  0  0
 72144  1  0  0  0
 73 74  1  0  0  0
 73 79  1  0  0  0
 73145  1  0  0  0
 73146  1  0  0  0
 74 80  1  0  0  0
 74147  1  0  0  0
 74148  1  0  0  0
 75 77  1  0  0  0
 75149  1  0  0  0
 75150  1  0  0  0
 76 78  1  0  0  0
 76 82  1  0  0  0
 76151  1  0  0  0
 76152  1  0  0  0
 77 83  1  0  0  0
 77153  1  0  0  0
 77154  1  0  0  0
 78 83  1  0  0  0
 78155  1  0  0  0
 78156  1  0  0  0
 79157  1  0  0  0
 80158  1  0  0  0
M  ISO  4   1 100  68 101  75 101  80 100
M  END
> <chiral flag>
0

> <version>
0

> <s_m_source_file>
/data/baiqing/PycharmProjects/Reinvent-master-3.2/result/LINK_invent/BTK/process_docking_weight1_custom_product_contain_oxygen_bond_distance_aromatic_linkinvent_7_9_3/rearranged_h_0000.sdf

> <i_m_source_file_index>
14

> <r_mmod_Potential_Energy-OPLS-2005>
-90.135498046875

> <r_mmod_Stretch_Energy-OPLS-2005>
33.9911117553711

> <r_mmod_Bend_Energy-OPLS-2005>
105.996589660645

> <r_mmod_Torsional_Energy-OPLS-2005>
272.787048339844

> <r_mmod_Improper_Torsional_Energy-OPLS-2005>
15.0818614959717

> <r_mmod_Van_der_Waal_Energy-OPLS-2005>
136.995178222656

> <r_mmod_Electrostatic_Energy-OPLS-2005>
-431.060333251953

> <r_mmod_Solvation_Energy-OPLS-2005>
-236.834030151367

> <b_mmod_Minimization_Converged-OPLS-2005>
0

> <r_mmod_RMS_Derivative-OPLS-2005>
4.14539527893066

$$$$
14
                    3D
 Structure written by MMmdl.
179187  0  0  1  0            999 V2000
  -30.7113  -14.3801   20.6752 C   0  0  0  0  0  0
  -30.4314  -12.2936   19.3859 C   0  0  0  0  0  0
  -29.4874  -12.5400   18.1917 C   0  0  0  0  0  0
  -28.0110  -12.3870   18.6088 C   0  0  0  0  0  0
  -27.6716  -13.1941   19.8886 C   0  0  2  0  0  0
  -28.7073  -12.8926   20.9930 C   0  0  0  0  0  0
  -25.2632  -13.8149   20.5689 C   0  0  0  0  0  0
  -24.1856  -13.0430   20.9147 C   0  0  0  0  0  0
  -24.6391  -11.6897   20.8710 C   0  0  0  0  0  0
  -23.9049  -10.4291   21.0408 C   0  0  0  0  0  0
  -24.3609   -9.4206   21.9179 C   0  0  0  0  0  0
  -23.6290   -8.2237   22.0748 C   0  0  0  0  0  0
  -22.4269   -8.0281   21.3544 C   0  0  0  0  0  0
  -21.9900   -9.0257   20.4646 C   0  0  0  0  0  0
  -22.7224  -10.2137   20.3054 C   0  0  0  0  0  0
  -21.6848   -6.0734   22.5282 C   0  0  0  0  0  0
  -21.4007   -6.5640   23.8213 C   0  0  0  0  0  0
  -21.3663   -5.6795   24.9180 C   0  0  0  0  0  0
  -21.6042   -4.3056   24.7232 C   0  0  0  0  0  0
  -21.8818   -3.8145   23.4353 C   0  0  0  0  0  0
  -21.9186   -4.6959   22.3405 C   0  0  0  0  0  0
  -22.7880  -13.5236   21.1830 C   0  0  0  0  0  0
  -22.1652   -4.2143   21.0983 F   0  0  0  0  0  0
  -21.5635   -3.4538   25.7746 F   0  0  0  0  0  0
  -30.0545  -13.2085   20.4730 N   0  0  0  0  0  0
  -26.3068  -12.9286   20.3419 N   0  0  0  0  0  0
  -25.9316  -11.6452   20.5759 N   0  0  0  0  0  0
  -22.0529  -12.8237   22.0406 N   0  0  0  0  0  0
  -25.4400  -15.1863   20.4149 N   0  0  0  0  0  0
  -31.7214  -14.7188   20.0477 O   0  0  0  0  0  0
  -21.6633   -6.8880   21.4248 O   0  0  0  0  0  0
  -22.3563  -14.5542   20.6689 O   0  0  0  0  0  0
  -24.6122  -31.8696   23.2126 C   0  0  0  0  0  0
  -25.9038  -32.4834   23.8407 C   0  0  1  0  0  0
  -27.2395  -27.4764   20.0857 C   0  0  0  0  0  0
  -25.5908  -33.8633   24.2352 N   0  0  0  0  0  0
  -23.3975  -30.4916   21.5539 C   0  0  2  0  0  0
  -24.8443  -28.9541   20.1234 C   0  0  0  0  0  0
  -22.7395  -29.4669   22.5049 C   0  0  0  0  0  0
  -18.0271  -28.1365   22.8494 C   0  0  0  0  0  0
  -24.1481  -36.7323   23.2640 C   0  0  0  0  0  0
  -25.9220  -30.8459   21.3594 C   0  0  0  0  0  0
  -26.0020  -29.4807   20.7129 C   0  0  0  0  0  0
  -27.2058  -28.7471   20.6924 C   0  0  0  0  0  0
  -26.0710  -26.9444   19.5045 C   0  0  0  0  0  0
  -24.8702  -27.6810   19.5231 C   0  0  0  0  0  0
  -23.6038  -29.8174   20.1706 C   0  0  0  0  0  0
  -25.4101  -36.3121   24.0340 C   0  0  1  0  0  0
  -20.5848  -28.3652   23.1335 C   0  0  2  0  0  0
  -20.6755  -26.9392   22.5422 C   0  0  0  0  0  0
  -19.5736  -26.6374   21.5219 C   0  0  0  0  0  0
  -18.1912  -26.7916   22.1616 C   0  0  0  0  0  0
  -19.1513  -28.8830   23.2914 C   0  0  0  0  0  0
  -18.9447  -30.1441   23.8916 C   0  0  0  0  0  0
  -17.6450  -30.6582   24.0565 C   0  0  0  0  0  0
  -25.9028  -34.9485   23.5146 C   0  0  0  0  0  0
  -16.5343  -29.9083   23.6314 C   0  0  0  0  0  0
  -16.7261  -28.6492   23.0346 C   0  0  0  0  0  0
  -26.4476  -31.6611   25.0728 C   0  0  0  0  0  0
  -25.3764  -31.3707   26.1491 C   0  0  0  0  0  0
  -27.0302  -30.3061   24.6086 C   0  0  0  0  0  0
  -27.6049  -32.4339   25.7486 C   0  0  0  0  0  0
  -27.5584  -37.1807   24.8461 C   0  0  0  0  0  0
  -21.4132  -29.3017   22.3765 N   0  0  0  0  0  0
  -26.4292  -37.3805   23.9412 N   0  0  0  0  0  0
  -24.6619  -31.0822   22.1011 N   0  0  0  0  0  0
  -23.4183  -28.8226   23.3088 O   0  0  0  0  0  0
  -28.4113  -26.7759   20.0078 O   0  0  0  0  0  0
  -26.5587  -34.8930   22.4704 O   0  0  0  0  0  0
  -23.5322  -32.1428   23.7549 O   0  0  0  0  0  0
  -29.4794  -18.6437   20.5762 C   0  0  0  0  0  0
  -28.6927  -18.2925   22.8528 C   0  0  0  0  0  0
  -29.9839  -17.3267   20.5431 C   0  0  0  0  0  0
  -29.1831  -16.9739   22.8188 C   0  0  0  0  0  0
  -28.8222  -19.1281   21.7266 C   0  0  0  0  0  0
  -29.8251  -16.4761   21.6647 C   0  0  0  0  0  0
  -28.2681  -20.5406   21.7605 C   0  0  0  0  0  0
  -28.6147  -25.8566   21.0718 C   0  0  0  0  0  0
  -26.9103  -22.1229   20.6546 C   0  0  0  0  0  0
  -29.8203  -24.9814   20.7045 C   0  0  0  0  0  0
  -26.1750  -22.4099   19.3411 C   0  0  0  0  0  0
  -32.0430  -25.3798   19.8925 C   0  0  0  0  0  0
  -26.5628  -23.0498   17.0906 C   0  0  0  0  0  0
  -31.8238  -25.9800   18.4917 C   0  0  0  0  0  0
  -27.6920  -23.3603   16.1012 C   0  0  0  0  0  0
  -30.4456  -25.7786   16.5714 C   0  0  0  0  0  0
  -29.5763  -24.7665   15.8142 C   0  0  0  0  0  0
  -30.2114  -15.1095   21.6834 N   0  0  0  0  0  0
  -27.5160  -20.8388   20.5924 O   0  0  0  0  0  0
  -31.0005  -25.7752   20.7787 O   0  0  0  0  0  0
  -27.1392  -22.6506   18.3270 O   0  0  0  0  0  0
  -30.9592  -25.1450   17.7354 O   0  0  0  0  0  0
  -28.4463  -24.4492   16.6139 O   0  0  0  0  0  0
  -31.4699  -12.4240   19.0766 H   0  0  0  0  0  0
  -30.3534  -11.2608   19.7275 H   0  0  0  0  0  0
  -29.7166  -11.8481   17.3802 H   0  0  0  0  0  0
  -29.6526  -13.5423   17.7937 H   0  0  0  0  0  0
  -27.8184  -11.3275   18.7800 H   0  0  0  0  0  0
  -27.3551  -12.6870   17.7905 H   0  0  0  0  0  0
  -27.7420  -14.2535   19.6405 H   0  0  0  0  0  0
  -28.6702  -11.8345   21.2570 H   0  0  0  0  0  0
  -28.4443  -13.4182   21.9107 H   0  0  0  0  0  0
  -25.2766   -9.5675   22.4740 H   0  0  0  0  0  0
  -24.0005   -7.4623   22.7464 H   0  0  0  0  0  0
  -21.0828   -8.8780   19.8953 H   0  0  0  0  0  0
  -22.3694  -10.9676   19.6160 H   0  0  0  0  0  0
  -21.1996   -7.6148   23.9716 H   0  0  0  0  0  0
  -21.1487   -6.0527   25.9086 H   0  0  0  0  0  0
  -22.0594   -2.7602   23.2860 H   0  0  0  0  0  0
  -22.4151  -11.9905   22.4795 H   0  0  0  0  0  0
  -21.1151  -13.1276   22.2624 H   0  0  0  0  0  0
  -24.6852  -15.8524   20.5351 H   0  0  0  0  0  0
  -26.3170  -15.6225   20.1587 H   0  0  0  0  0  0
  -26.7125  -32.5561   23.1187 H   0  0  0  0  0  0
  -25.0060  -33.9783   25.0497 H   0  0  0  0  0  0
  -22.6852  -31.3072   21.4150 H   0  0  0  0  0  0
  -23.3742  -35.9660   23.3307 H   0  0  0  0  0  0
  -24.3568  -36.8932   22.2054 H   0  0  0  0  0  0
  -23.7224  -37.6528   23.6650 H   0  0  0  0  0  0
  -26.0253  -31.6107   20.5883 H   0  0  0  0  0  0
  -26.8130  -30.9032   21.9733 H   0  0  0  0  0  0
  -28.1079  -29.1553   21.1283 H   0  0  0  0  0  0
  -26.0986  -25.9717   19.0326 H   0  0  0  0  0  0
  -23.9795  -27.2669   19.0700 H   0  0  0  0  0  0
  -23.7096  -30.5884   19.4066 H   0  0  0  0  0  0
  -22.7285  -29.2327   19.8791 H   0  0  0  0  0  0
  -25.1272  -36.1996   25.0833 H   0  0  0  0  0  0
  -20.9930  -28.3206   24.1464 H   0  0  0  0  0  0
  -20.5668  -26.2255   23.3608 H   0  0  0  0  0  0
  -21.6631  -26.7438   22.1217 H   0  0  0  0  0  0
  -19.6895  -25.6290   21.1236 H   0  0  0  0  0  0
  -19.6682  -27.3200   20.6767 H   0  0  0  0  0  0
  -17.4186  -26.6691   21.4013 H   0  0  0  0  0  0
  -18.0291  -26.0060   22.9008 H   0  0  0  0  0  0
  -19.7929  -30.7244   24.2299 H   0  0  0  0  0  0
  -17.5009  -31.6262   24.5172 H   0  0  0  0  0  0
  -15.5342  -30.2995   23.7636 H   0  0  0  0  0  0
  -15.8656  -28.0830   22.7043 H   0  0  0  0  0  0
  -24.5921  -30.7067   25.7839 H   0  0  0  0  0  0
  -24.8967  -32.2861   26.4978 H   0  0  0  0  0  0
  -25.8126  -30.8853   27.0233 H   0  0  0  0  0  0
  -26.2821  -29.6816   24.1183 H   0  0  0  0  0  0
  -27.4129  -29.7305   25.4527 H   0  0  0  0  0  0
  -27.8638  -30.4390   23.9180 H   0  0  0  0  0  0
  -27.2657  -33.3617   26.2109 H   0  0  0  0  0  0
  -28.3827  -32.6945   25.0299 H   0  0  0  0  0  0
  -28.0766  -31.8452   26.5366 H   0  0  0  0  0  0
  -28.2600  -38.0109   24.7524 H   0  0  0  0  0  0
  -28.1081  -36.2638   24.6265 H   0  0  0  0  0  0
  -27.2303  -37.1437   25.8866 H   0  0  0  0  0  0
  -20.9312  -29.8737   21.6979 H   0  0  0  0  0  0
  -26.0189  -38.2887   24.1429 H   0  0  0  0  0  0
  -29.5829  -19.2836   19.7111 H   0  0  0  0  0  0
  -28.2003  -18.6539   23.7446 H   0  0  0  0  0  0
  -30.4631  -16.9831   19.6373 H   0  0  0  0  0  0
  -29.0450  -16.3438   23.6866 H   0  0  0  0  0  0
  -29.0989  -21.2418   21.8612 H   0  0  0  0  0  0
  -27.6362  -20.6592   22.6425 H   0  0  0  0  0  0
  -28.7878  -26.3866   22.0100 H   0  0  0  0  0  0
  -27.7285  -25.2339   21.2065 H   0  0  0  0  0  0
  -26.2007  -22.1530   21.4834 H   0  0  0  0  0  0
  -27.6565  -22.8957   20.8396 H   0  0  0  0  0  0
  -29.6580  -24.5461   19.7183 H   0  0  0  0  0  0
  -29.9171  -24.1469   21.4009 H   0  0  0  0  0  0
  -25.5473  -23.2933   19.4671 H   0  0  0  0  0  0
  -25.5225  -21.5783   19.0716 H   0  0  0  0  0  0
  -32.9683  -25.7931   20.2955 H   0  0  0  0  0  0
  -32.1782  -24.2970   19.8654 H   0  0  0  0  0  0
  -25.9336  -22.2484   16.6995 H   0  0  0  0  0  0
  -25.9310  -23.9295   17.2224 H   0  0  0  0  0  0
  -32.7767  -26.0502   17.9647 H   0  0  0  0  0  0
  -31.4300  -26.9935   18.5845 H   0  0  0  0  0  0
  -27.2768  -23.6250   15.1273 H   0  0  0  0  0  0
  -28.3197  -22.4782   15.9601 H   0  0  0  0  0  0
  -29.8586  -26.6578   16.8415 H   0  0  0  0  0  0
  -31.2659  -26.1103   15.9332 H   0  0  0  0  0  0
  -30.1626  -23.8745   15.5855 H   0  0  0  0  0  0
  -29.2399  -25.1900   14.8669 H   0  0  0  0  0  0
  -29.6889  -14.5520   22.3412 H   0  0  0  0  0  0
  1 25  1  0  0  0
  1 30  2  0  0  0
  1 88  1  0  0  0
  2  3  1  0  0  0
  2 25  1  0  0  0
  2 94  1  0  0  0
  2 95  1  0  0  0
  3  4  1  0  0  0
  3 96  1  0  0  0
  3 97  1  0  0  0
  4  5  1  0  0  0
  4 98  1  0  0  0
  4 99  1  0  0  0
  5  6  1  0  0  0
  5 26  1  0  0  0
  5100  1  0  0  0
  6 25  1  0  0  0
  6101  1  0  0  0
  6102  1  0  0  0
  7  8  2  0  0  0
  7 26  1  0  0  0
  7 29  1  0  0  0
  8  9  1  0  0  0
  8 22  1  0  0  0
  9 10  1  0  0  0
  9 27  2  0  0  0
 10 11  2  0  0  0
 10 15  1  0  0  0
 11 12  1  0  0  0
 11103  1  0  0  0
 12 13  2  0  0  0
 12104  1  0  0  0
 13 14  1  0  0  0
 13 31  1  0  0  0
 14 15  2  0  0  0
 14105  1  0  0  0
 15106  1  0  0  0
 16 17  2  0  0  0
 16 21  1  0  0  0
 16 31  1  0  0  0
 17 18  1  0  0  0
 17107  1  0  0  0
 18 19  2  0  0  0
 18108  1  0  0  0
 19 20  1  0  0  0
 19 24  1  0  0  0
 20 21  2  0  0  0
 20109  1  0  0  0
 21 23  1  0  0  0
 22 28  1  0  0  0
 22 32  2  0  0  0
 26 27  1  0  0  0
 28110  1  0  0  0
 28111  1  0  0  0
 29112  1  0  0  0
 29113  1  0  0  0
 33 34  1  0  0  0
 33 66  1  0  0  0
 33 70  2  0  0  0
 34 36  1  0  0  0
 34 59  1  0  0  0
 34114  1  0  0  0
 35 44  2  0  0  0
 35 45  1  0  0  0
 35 68  1  0  0  0
 36 56  1  0  0  0
 36115  1  0  0  0
 37 39  1  0  0  0
 37 47  1  0  0  0
 37 66  1  0  0  0
 37116  1  0  0  0
 38 43  2  0  0  0
 38 46  1  0  0  0
 38 47  1  0  0  0
 39 64  1  0  0  0
 39 67  2  0  0  0
 40 52  1  0  0  0
 40 53  2  0  0  0
 40 58  1  0  0  0
 41117  1  0  0  0
 41118  1  0  0  0
 41119  1  0  0  0
 41 48  1  0  0  0
 42 43  1  0  0  0
 42 66  1  0  0  0
 42120  1  0  0  0
 42121  1  0  0  0
 43 44  1  0  0  0
 44122  1  0  0  0
 45 46  2  0  0  0
 45123  1  0  0  0
 46124  1  0  0  0
 47125  1  0  0  0
 47126  1  0  0  0
 48 56  1  0  0  0
 48 65  1  0  0  0
 48127  1  0  0  0
 49 50  1  0  0  0
 49 53  1  0  0  0
 49 64  1  0  0  0
 49128  1  0  0  0
 50 51  1  0  0  0
 50129  1  0  0  0
 50130  1  0  0  0
 51 52  1  0  0  0
 51131  1  0  0  0
 51132  1  0  0  0
 52133  1  0  0  0
 52134  1  0  0  0
 53 54  1  0  0  0
 54 55  2  0  0  0
 54135  1  0  0  0
 55 57  1  0  0  0
 55136  1  0  0  0
 56 69  2  0  0  0
 57 58  2  0  0  0
 57137  1  0  0  0
 58138  1  0  0  0
 59 60  1  0  0  0
 59 61  1  0  0  0
 59 62  1  0  0  0
 60139  1  0  0  0
 60140  1  0  0  0
 60141  1  0  0  0
 61142  1  0  0  0
 61143  1  0  0  0
 61144  1  0  0  0
 62145  1  0  0  0
 62146  1  0  0  0
 62147  1  0  0  0
 63 65  1  0  0  0
 63148  1  0  0  0
 63149  1  0  0  0
 63150  1  0  0  0
 64151  1  0  0  0
 65152  1  0  0  0
 68 78  1  0  0  0
 71 73  2  0  0  0
 71 75  1  0  0  0
 71153  1  0  0  0
 72 74  1  0  0  0
 72 75  2  0  0  0
 72154  1  0  0  0
 73 76  1  0  0  0
 73155  1  0  0  0
 74 76  2  0  0  0
 74156  1  0  0  0
 75 77  1  0  0  0
 76 88  1  0  0  0
 77 89  1  0  0  0
 77157  1  0  0  0
 77158  1  0  0  0
 78 80  1  0  0  0
 78159  1  0  0  0
 78160  1  0  0  0
 79 81  1  0  0  0
 79 89  1  0  0  0
 79161  1  0  0  0
 79162  1  0  0  0
 80 90  1  0  0  0
 80163  1  0  0  0
 80164  1  0  0  0
 81 91  1  0  0  0
 81165  1  0  0  0
 81166  1  0  0  0
 82 84  1  0  0  0
 82 90  1  0  0  0
 82167  1  0  0  0
 82168  1  0  0  0
 83 85  1  0  0  0
 83 91  1  0  0  0
 83169  1  0  0  0
 83170  1  0  0  0
 84 92  1  0  0  0
 84171  1  0  0  0
 84172  1  0  0  0
 85 93  1  0  0  0
 85173  1  0  0  0
 85174  1  0  0  0
 86 87  1  0  0  0
 86 92  1  0  0  0
 86175  1  0  0  0
 86176  1  0  0  0
 87 93  1  0  0  0
 87177  1  0  0  0
 87178  1  0  0  0
 88179  1  0  0  0
M  ISO  4   1 100  68 101  78 101  88 100
M  END
> <chiral flag>
0

> <version>
0

> <s_m_source_file>
/data/baiqing/PycharmProjects/Reinvent-master-3.2/result/LINK_invent/BTK/process_docking_weight1_custom_product_contain_oxygen_bond_distance_aromatic_linkinvent_7_9_3/rearranged_h_0000.sdf

> <i_m_source_file_index>
15

> <r_mmod_Potential_Energy-OPLS-2005>
-31.8283882141113

> <r_mmod_Stretch_Energy-OPLS-2005>
32.7739486694336

> <r_mmod_Bend_Energy-OPLS-2005>
95.2924957275391

> <r_mmod_Torsional_Energy-OPLS-2005>
252.308044433594

> <r_mmod_Improper_Torsional_Energy-OPLS-2005>
4.58041667938232

> <r_mmod_Van_der_Waal_Energy-OPLS-2005>
134.068649291992

> <r_mmod_Electrostatic_Energy-OPLS-2005>
-308.589996337891

> <r_mmod_Solvation_Energy-OPLS-2005>
-249.920257568359

> <b_mmod_Minimization_Converged-OPLS-2005>
0

> <r_mmod_RMS_Derivative-OPLS-2005>
1.88654839992523

$$$$
15
                    3D
 Structure written by MMmdl.
150157  0  0  1  0            999 V2000
  -30.6623  -14.5678   20.5389 C   0  0  0  0  0  0
  -30.4350  -12.3358   19.4355 C   0  0  0  0  0  0
  -29.5045  -12.5042   18.2151 C   0  0  0  0  0  0
  -28.0242  -12.3551   18.6246 C   0  0  0  0  0  0
  -27.6553  -13.2127   19.8658 C   0  0  2  0  0  0
  -28.6896  -13.0276   20.9947 C   0  0  0  0  0  0
  -25.2564  -13.8171   20.5672 C   0  0  0  0  0  0
  -24.1822  -13.0438   20.9165 C   0  0  0  0  0  0
  -24.6384  -11.6906   20.8716 C   0  0  0  0  0  0
  -23.9054  -10.4293   21.0397 C   0  0  0  0  0  0
  -24.3613   -9.4212   21.9179 C   0  0  0  0  0  0
  -23.6292   -8.2244   22.0753 C   0  0  0  0  0  0
  -22.4273   -8.0281   21.3544 C   0  0  0  0  0  0
  -21.9903   -9.0249   20.4647 C   0  0  0  0  0  0
  -22.7225  -10.2130   20.3050 C   0  0  0  0  0  0
  -21.6854   -6.0736   22.5277 C   0  0  0  0  0  0
  -21.4014   -6.5641   23.8209 C   0  0  0  0  0  0
  -21.3658   -5.6795   24.9174 C   0  0  0  0  0  0
  -21.6045   -4.3056   24.7227 C   0  0  0  0  0  0
  -21.8818   -3.8148   23.4347 C   0  0  0  0  0  0
  -21.9194   -4.6964   22.3403 C   0  0  0  0  0  0
  -22.7848  -13.5231   21.1849 C   0  0  0  0  0  0
  -22.1662   -4.2148   21.0980 F   0  0  0  0  0  0
  -21.5630   -3.4539   25.7740 F   0  0  0  0  0  0
  -30.0167  -13.3202   20.4419 N   0  0  0  0  0  0
  -26.2986  -12.9346   20.3304 N   0  0  0  0  0  0
  -25.9306  -11.6499   20.5725 N   0  0  0  0  0  0
  -22.0507  -12.8213   22.0411 N   0  0  0  0  0  0
  -25.4301  -15.1894   20.4127 N   0  0  0  0  0  0
  -31.7993  -14.7981   20.1220 O   0  0  0  0  0  0
  -21.6643   -6.8875   21.4237 O   0  0  0  0  0  0
  -22.3524  -14.5537   20.6710 O   0  0  0  0  0  0
  -24.6196  -31.8641   23.2038 C   0  0  0  0  0  0
  -25.9069  -32.4800   23.8355 C   0  0  1  0  0  0
  -27.2335  -27.3805   20.1159 C   0  0  0  0  0  0
  -25.5913  -33.8600   24.2296 N   0  0  0  0  0  0
  -23.4102  -30.4847   21.5456 C   0  0  2  0  0  0
  -24.8576  -28.9363   20.1192 C   0  0  0  0  0  0
  -22.7435  -29.4644   22.4971 C   0  0  0  0  0  0
  -18.0279  -28.1374   22.8493 C   0  0  0  0  0  0
  -24.1490  -36.7307   23.2641 C   0  0  0  0  0  0
  -25.9429  -30.8139   21.3626 C   0  0  0  0  0  0
  -26.0207  -29.4416   20.7140 C   0  0  0  0  0  0
  -27.2143  -28.6747   20.7000 C   0  0  0  0  0  0
  -26.0526  -26.8966   19.5178 C   0  0  0  0  0  0
  -24.8712  -27.6658   19.5151 C   0  0  0  0  0  0
  -23.6221  -29.8102   20.1634 C   0  0  0  0  0  0
  -25.4113  -36.3099   24.0333 C   0  0  1  0  0  0
  -20.5874  -28.3672   23.1306 C   0  0  2  0  0  0
  -20.6772  -26.9404   22.5416 C   0  0  0  0  0  0
  -19.5750  -26.6383   21.5214 C   0  0  0  0  0  0
  -18.1927  -26.7921   22.1624 C   0  0  0  0  0  0
  -19.1528  -28.8839   23.2897 C   0  0  0  0  0  0
  -18.9457  -30.1446   23.8908 C   0  0  0  0  0  0
  -17.6460  -30.6583   24.0563 C   0  0  0  0  0  0
  -25.9047  -34.9466   23.5115 C   0  0  0  0  0  0
  -16.5351  -29.9083   23.6325 C   0  0  0  0  0  0
  -16.7267  -28.6497   23.0349 C   0  0  0  0  0  0
  -26.4478  -31.6584   25.0699 C   0  0  0  0  0  0
  -25.3731  -31.3693   26.1437 C   0  0  0  0  0  0
  -27.0314  -30.3025   24.6095 C   0  0  0  0  0  0
  -27.6055  -32.4297   25.7465 C   0  0  0  0  0  0
  -27.5577  -37.1809   24.8465 C   0  0  0  0  0  0
  -21.4159  -29.3038   22.3710 N   0  0  0  0  0  0
  -26.4292  -37.3789   23.9407 N   0  0  0  0  0  0
  -24.6760  -31.0702   22.0954 N   0  0  0  0  0  0
  -23.4185  -28.8195   23.3037 O   0  0  0  0  0  0
  -28.3900  -26.6187   20.0764 O   0  0  0  0  0  0
  -26.5609  -34.8926   22.4679 O   0  0  0  0  0  0
  -23.5377  -32.1411   23.7408 O   0  0  0  0  0  0
  -28.3956  -25.3422   20.7774 C   0  0  0  0  0  0
  -30.2206  -16.9199   21.2653 C   0  0  0  0  0  0
  -28.1547  -24.0250   19.9564 C   0  0  0  0  0  0
  -29.7994  -17.9943   20.1999 C   0  0  0  0  0  0
  -28.3761  -21.5706   20.0436 C   0  0  0  0  0  0
  -29.4044  -20.3949   19.8226 C   0  0  0  0  0  0
  -29.8140  -15.5466   21.0316 O   0  0  0  0  0  0
  -28.9132  -22.8682   20.4184 O   0  0  0  0  0  0
  -29.3562  -19.2724   20.7454 O   0  0  0  0  0  0
  -31.4780  -12.4671   19.1420 H   0  0  0  0  0  0
  -30.3582  -11.3276   19.8447 H   0  0  0  0  0  0
  -29.7545  -11.7712   17.4468 H   0  0  0  0  0  0
  -29.6620  -13.4856   17.7644 H   0  0  0  0  0  0
  -27.8459  -11.3006   18.8383 H   0  0  0  0  0  0
  -27.3742  -12.6084   17.7862 H   0  0  0  0  0  0
  -27.6910  -14.2561   19.5511 H   0  0  0  0  0  0
  -28.6684  -12.0027   21.3675 H   0  0  0  0  0  0
  -28.4502  -13.6602   21.8509 H   0  0  0  0  0  0
  -25.2760   -9.5695   22.4749 H   0  0  0  0  0  0
  -24.0008   -7.4637   22.7470 H   0  0  0  0  0  0
  -21.0834   -8.8759   19.8953 H   0  0  0  0  0  0
  -22.3677  -10.9667   19.6156 H   0  0  0  0  0  0
  -21.2001   -7.6148   23.9709 H   0  0  0  0  0  0
  -21.1483   -6.0529   25.9075 H   0  0  0  0  0  0
  -22.0599   -2.7610   23.2849 H   0  0  0  0  0  0
  -22.4133  -11.9863   22.4772 H   0  0  0  0  0  0
  -21.1129  -13.1233   22.2644 H   0  0  0  0  0  0
  -24.6714  -15.8514   20.5348 H   0  0  0  0  0  0
  -26.2984  -15.6278   20.1313 H   0  0  0  0  0  0
  -26.7140  -32.5497   23.1114 H   0  0  0  0  0  0
  -25.0073  -33.9747   25.0447 H   0  0  0  0  0  0
  -22.7016  -31.3029   21.4010 H   0  0  0  0  0  0
  -23.3746  -35.9646   23.3312 H   0  0  0  0  0  0
  -24.3580  -36.8914   22.2053 H   0  0  0  0  0  0
  -23.7247  -37.6519   23.6648 H   0  0  0  0  0  0
  -26.0593  -31.5749   20.5892 H   0  0  0  0  0  0
  -26.8295  -30.8706   21.9826 H   0  0  0  0  0  0
  -28.1163  -29.0660   21.1500 H   0  0  0  0  0  0
  -26.0464  -25.9255   19.0441 H   0  0  0  0  0  0
  -23.9780  -27.2726   19.0493 H   0  0  0  0  0  0
  -23.7343  -30.5818   19.4011 H   0  0  0  0  0  0
  -22.7442  -29.2328   19.8671 H   0  0  0  0  0  0
  -25.1288  -36.1964   25.0825 H   0  0  0  0  0  0
  -20.9966  -28.3243   24.1425 H   0  0  0  0  0  0
  -20.5682  -26.2279   23.3608 H   0  0  0  0  0  0
  -21.6642  -26.7447   22.1204 H   0  0  0  0  0  0
  -19.6919  -25.6298   21.1232 H   0  0  0  0  0  0
  -19.6688  -27.3206   20.6754 H   0  0  0  0  0  0
  -17.4201  -26.6673   21.4022 H   0  0  0  0  0  0
  -18.0327  -26.0053   22.9009 H   0  0  0  0  0  0
  -19.7936  -30.7257   24.2280 H   0  0  0  0  0  0
  -17.5015  -31.6264   24.5164 H   0  0  0  0  0  0
  -15.5351  -30.2991   23.7641 H   0  0  0  0  0  0
  -15.8665  -28.0821   22.7058 H   0  0  0  0  0  0
  -24.5915  -30.7032   25.7759 H   0  0  0  0  0  0
  -24.8904  -32.2846   26.4878 H   0  0  0  0  0  0
  -25.8071  -30.8861   27.0199 H   0  0  0  0  0  0
  -26.2862  -29.6782   24.1152 H   0  0  0  0  0  0
  -27.4082  -29.7267   25.4559 H   0  0  0  0  0  0
  -27.8695  -30.4332   23.9243 H   0  0  0  0  0  0
  -27.2686  -33.3594   26.2060 H   0  0  0  0  0  0
  -28.3858  -32.6862   25.0286 H   0  0  0  0  0  0
  -28.0730  -31.8404   26.5364 H   0  0  0  0  0  0
  -28.2608  -38.0096   24.7507 H   0  0  0  0  0  0
  -28.1058  -36.2628   24.6294 H   0  0  0  0  0  0
  -27.2289  -37.1463   25.8866 H   0  0  0  0  0  0
  -20.9330  -29.8751   21.6917 H   0  0  0  0  0  0
  -26.0182  -38.2870   24.1397 H   0  0  0  0  0  0
  -29.3934  -25.2724   21.2103 H   0  0  0  0  0  0
  -27.7208  -25.3738   21.6343 H   0  0  0  0  0  0
  -29.7504  -17.1971   22.2086 H   0  0  0  0  0  0
  -31.2937  -16.9791   21.4540 H   0  0  0  0  0  0
  -28.4258  -24.1942   18.9136 H   0  0  0  0  0  0
  -27.0859  -23.8055   19.9637 H   0  0  0  0  0  0
  -28.9845  -17.5999   19.5914 H   0  0  0  0  0  0
  -30.6403  -18.1471   19.5217 H   0  0  0  0  0  0
  -27.6201  -21.2774   20.7721 H   0  0  0  0  0  0
  -27.8354  -21.6928   19.1032 H   0  0  0  0  0  0
  -30.4213  -20.7873   19.7924 H   0  0  0  0  0  0
  -29.2173  -20.0058   18.8199 H   0  0  0  0  0  0
  1 25  1  0  0  0
  1 30  2  0  0  0
  1 77  1  0  0  0
  2  3  1  0  0  0
  2 25  1  0  0  0
  2 80  1  0  0  0
  2 81  1  0  0  0
  3  4  1  0  0  0
  3 82  1  0  0  0
  3 83  1  0  0  0
  4  5  1  0  0  0
  4 84  1  0  0  0
  4 85  1  0  0  0
  5  6  1  0  0  0
  5 26  1  0  0  0
  5 86  1  0  0  0
  6 25  1  0  0  0
  6 87  1  0  0  0
  6 88  1  0  0  0
  7  8  2  0  0  0
  7 26  1  0  0  0
  7 29  1  0  0  0
  8  9  1  0  0  0
  8 22  1  0  0  0
  9 10  1  0  0  0
  9 27  2  0  0  0
 10 11  2  0  0  0
 10 15  1  0  0  0
 11 12  1  0  0  0
 11 89  1  0  0  0
 12 13  2  0  0  0
 12 90  1  0  0  0
 13 14  1  0  0  0
 13 31  1  0  0  0
 14 15  2  0  0  0
 14 91  1  0  0  0
 15 92  1  0  0  0
 16 17  2  0  0  0
 16 21  1  0  0  0
 16 31  1  0  0  0
 17 18  1  0  0  0
 17 93  1  0  0  0
 18 19  2  0  0  0
 18 94  1  0  0  0
 19 20  1  0  0  0
 19 24  1  0  0  0
 20 21  2  0  0  0
 20 95  1  0  0  0
 21 23  1  0  0  0
 22 28  1  0  0  0
 22 32  2  0  0  0
 26 27  1  0  0  0
 28 96  1  0  0  0
 28 97  1  0  0  0
 29 98  1  0  0  0
 29 99  1  0  0  0
 33 34  1  0  0  0
 33 66  1  0  0  0
 33 70  2  0  0  0
 34 36  1  0  0  0
 34 59  1  0  0  0
 34100  1  0  0  0
 35 44  2  0  0  0
 35 45  1  0  0  0
 35 68  1  0  0  0
 36 56  1  0  0  0
 36101  1  0  0  0
 37 39  1  0  0  0
 37 47  1  0  0  0
 37 66  1  0  0  0
 37102  1  0  0  0
 38 43  2  0  0  0
 38 46  1  0  0  0
 38 47  1  0  0  0
 39 64  1  0  0  0
 39 67  2  0  0  0
 40 52  1  0  0  0
 40 53  2  0  0  0
 40 58  1  0  0  0
 41103  1  0  0  0
 41104  1  0  0  0
 41105  1  0  0  0
 41 48  1  0  0  0
 42 43  1  0  0  0
 42 66  1  0  0  0
 42106  1  0  0  0
 42107  1  0  0  0
 43 44  1  0  0  0
 44108  1  0  0  0
 45 46  2  0  0  0
 45109  1  0  0  0
 46110  1  0  0  0
 47111  1  0  0  0
 47112  1  0  0  0
 48 56  1  0  0  0
 48 65  1  0  0  0
 48113  1  0  0  0
 49 50  1  0  0  0
 49 53  1  0  0  0
 49 64  1  0  0  0
 49114  1  0  0  0
 50 51  1  0  0  0
 50115  1  0  0  0
 50116  1  0  0  0
 51 52  1  0  0  0
 51117  1  0  0  0
 51118  1  0  0  0
 52119  1  0  0  0
 52120  1  0  0  0
 53 54  1  0  0  0
 54 55  2  0  0  0
 54121  1  0  0  0
 55 57  1  0  0  0
 55122  1  0  0  0
 56 69  2  0  0  0
 57 58  2  0  0  0
 57123  1  0  0  0
 58124  1  0  0  0
 59 60  1  0  0  0
 59 61  1  0  0  0
 59 62  1  0  0  0
 60125  1  0  0  0
 60126  1  0  0  0
 60127  1  0  0  0
 61128  1  0  0  0
 61129  1  0  0  0
 61130  1  0  0  0
 62131  1  0  0  0
 62132  1  0  0  0
 62133  1  0  0  0
 63 65  1  0  0  0
 63134  1  0  0  0
 63135  1  0  0  0
 63136  1  0  0  0
 64137  1  0  0  0
 65138  1  0  0  0
 68 71  1  0  0  0
 71 73  1  0  0  0
 71139  1  0  0  0
 71140  1  0  0  0
 72 74  1  0  0  0
 72 77  1  0  0  0
 72141  1  0  0  0
 72142  1  0  0  0
 73 78  1  0  0  0
 73143  1  0  0  0
 73144  1  0  0  0
 74 79  1  0  0  0
 74145  1  0  0  0
 74146  1  0  0  0
 75 76  1  0  0  0
 75 78  1  0  0  0
 75147  1  0  0  0
 75148  1  0  0  0
 76 79  1  0  0  0
 76149  1  0  0  0
 76150  1  0  0  0
M  ISO  4   1 100  68 101  71 101  77 100
M  END
> <chiral flag>
0

> <version>
0

> <s_m_source_file>
/data/baiqing/PycharmProjects/Reinvent-master-3.2/result/LINK_invent/BTK/process_docking_weight1_custom_product_contain_oxygen_bond_distance_aromatic_linkinvent_7_9_3/rearranged_h_0000.sdf

> <i_m_source_file_index>
16

> <r_mmod_Potential_Energy-OPLS-2005>
4.52846193313599

> <r_mmod_Stretch_Energy-OPLS-2005>
57.1656455993652

> <r_mmod_Bend_Energy-OPLS-2005>
120.624153137207

> <r_mmod_Torsional_Energy-OPLS-2005>
194.531997680664

> <r_mmod_Improper_Torsional_Energy-OPLS-2005>
3.09483981132507

> <r_mmod_Van_der_Waal_Energy-OPLS-2005>
123.415977478027

> <r_mmod_Electrostatic_Energy-OPLS-2005>
-319.977447509766

> <r_mmod_Solvation_Energy-OPLS-2005>
-198.287109375

> <b_mmod_Minimization_Converged-OPLS-2005>
0

> <r_mmod_RMS_Derivative-OPLS-2005>
0.775499224662781

$$$$
16
                    3D
 Structure written by MMmdl.
151158  0  0  1  0            999 V2000
  -30.6553  -14.5615   20.5164 C   0  0  0  0  0  0
  -30.4343  -12.3448   19.4472 C   0  0  0  0  0  0
  -29.5058  -12.5000   18.2222 C   0  0  0  0  0  0
  -28.0269  -12.3522   18.6318 C   0  0  0  0  0  0
  -27.6599  -13.2100   19.8722 C   0  0  2  0  0  0
  -28.7030  -13.0341   21.0011 C   0  0  0  0  0  0
  -25.2584  -13.8162   20.5687 C   0  0  0  0  0  0
  -24.1839  -13.0436   20.9184 C   0  0  0  0  0  0
  -24.6399  -11.6904   20.8735 C   0  0  0  0  0  0
  -23.9065  -10.4291   21.0404 C   0  0  0  0  0  0
  -24.3613   -9.4209   21.9185 C   0  0  0  0  0  0
  -23.6290   -8.2244   22.0754 C   0  0  0  0  0  0
  -22.4274   -8.0280   21.3544 C   0  0  0  0  0  0
  -21.9908   -9.0255   20.4647 C   0  0  0  0  0  0
  -22.7234  -10.2136   20.3058 C   0  0  0  0  0  0
  -21.6852   -6.0737   22.5281 C   0  0  0  0  0  0
  -21.4013   -6.5642   23.8214 C   0  0  0  0  0  0
  -21.3659   -5.6793   24.9176 C   0  0  0  0  0  0
  -21.6042   -4.3056   24.7226 C   0  0  0  0  0  0
  -21.8819   -3.8149   23.4347 C   0  0  0  0  0  0
  -21.9193   -4.6966   22.3403 C   0  0  0  0  0  0
  -22.7864  -13.5235   21.1847 C   0  0  0  0  0  0
  -22.1662   -4.2151   21.0980 F   0  0  0  0  0  0
  -21.5628   -3.4539   25.7739 F   0  0  0  0  0  0
  -30.0293  -13.3503   20.4461 N   0  0  0  0  0  0
  -26.3021  -12.9338   20.3357 N   0  0  0  0  0  0
  -25.9330  -11.6495   20.5769 N   0  0  0  0  0  0
  -22.0500  -12.8230   22.0403 N   0  0  0  0  0  0
  -25.4306  -15.1882   20.4098 N   0  0  0  0  0  0
  -31.7943  -14.7459   20.0817 O   0  0  0  0  0  0
  -21.6637   -6.8878   21.4242 O   0  0  0  0  0  0
  -22.3554  -14.5544   20.6697 O   0  0  0  0  0  0
  -24.6214  -31.8639   23.2075 C   0  0  0  0  0  0
  -25.9085  -32.4801   23.8384 C   0  0  1  0  0  0
  -27.2255  -27.3712   20.1033 C   0  0  0  0  0  0
  -25.5919  -33.8602   24.2308 N   0  0  0  0  0  0
  -23.4114  -30.4896   21.5492 C   0  0  2  0  0  0
  -24.8565  -28.9542   20.1093 C   0  0  0  0  0  0
  -22.7445  -29.4644   22.4958 C   0  0  0  0  0  0
  -18.0278  -28.1380   22.8491 C   0  0  0  0  0  0
  -24.1487  -36.7311   23.2637 C   0  0  0  0  0  0
  -25.9475  -30.8102   21.3710 C   0  0  0  0  0  0
  -26.0215  -29.4415   20.7145 C   0  0  0  0  0  0
  -27.2071  -28.6586   20.7081 C   0  0  0  0  0  0
  -26.0402  -26.9304   19.4662 C   0  0  0  0  0  0
  -24.8648  -27.7015   19.4786 C   0  0  0  0  0  0
  -23.6224  -29.8285   20.1616 C   0  0  0  0  0  0
  -25.4106  -36.3097   24.0333 C   0  0  1  0  0  0
  -20.5876  -28.3678   23.1297 C   0  0  2  0  0  0
  -20.6771  -26.9407   22.5414 C   0  0  0  0  0  0
  -19.5748  -26.6385   21.5213 C   0  0  0  0  0  0
  -18.1926  -26.7925   22.1623 C   0  0  0  0  0  0
  -19.1531  -28.8844   23.2893 C   0  0  0  0  0  0
  -18.9454  -30.1447   23.8907 C   0  0  0  0  0  0
  -17.6457  -30.6586   24.0563 C   0  0  0  0  0  0
  -25.9042  -34.9465   23.5117 C   0  0  0  0  0  0
  -16.5347  -29.9089   23.6325 C   0  0  0  0  0  0
  -16.7266  -28.6504   23.0347 C   0  0  0  0  0  0
  -26.4492  -31.6591   25.0732 C   0  0  0  0  0  0
  -25.3750  -31.3715   26.1476 C   0  0  0  0  0  0
  -27.0327  -30.3021   24.6144 C   0  0  0  0  0  0
  -27.6054  -32.4318   25.7506 C   0  0  0  0  0  0
  -27.5575  -37.1810   24.8463 C   0  0  0  0  0  0
  -21.4166  -29.3041   22.3700 N   0  0  0  0  0  0
  -26.4286  -37.3783   23.9409 N   0  0  0  0  0  0
  -24.6785  -31.0701   22.1001 N   0  0  0  0  0  0
  -23.4196  -28.8175   23.3006 O   0  0  0  0  0  0
  -28.3648  -26.5671   20.1596 O   0  0  0  0  0  0
  -26.5600  -34.8920   22.4678 O   0  0  0  0  0  0
  -23.5393  -32.1416   23.7435 O   0  0  0  0  0  0
  -29.9427  -17.0084   20.3659 C   0  0  0  0  0  0
  -30.2398  -18.1042   21.4380 C   0  0  0  0  0  0
  -28.2075  -25.1343   19.9110 C   0  0  0  0  0  0
  -29.2662  -24.1793   20.5573 C   0  0  0  0  0  0
  -29.9175  -20.3642   20.4052 C   0  0  0  0  0  0
  -29.8174  -21.8260   20.9840 C   0  0  0  0  0  0
  -29.8654  -15.6054   20.8638 N   0  0  0  0  0  0
  -29.4912  -19.3441   21.3363 O   0  0  0  0  0  0
  -29.0968  -22.7873   20.1739 O   0  0  0  0  0  0
  -31.4781  -12.4560   19.1472 H   0  0  0  0  0  0
  -30.3514  -11.3425   19.8699 H   0  0  0  0  0  0
  -29.7587  -11.7587   17.4631 H   0  0  0  0  0  0
  -29.6633  -13.4758   17.7598 H   0  0  0  0  0  0
  -27.8494  -11.2980   18.8472 H   0  0  0  0  0  0
  -27.3765  -12.6041   17.7933 H   0  0  0  0  0  0
  -27.6900  -14.2503   19.5482 H   0  0  0  0  0  0
  -28.6939  -12.0094   21.3754 H   0  0  0  0  0  0
  -28.4608  -13.6637   21.8586 H   0  0  0  0  0  0
  -25.2760   -9.5685   22.4755 H   0  0  0  0  0  0
  -24.0002   -7.4637   22.7472 H   0  0  0  0  0  0
  -21.0840   -8.8774   19.8954 H   0  0  0  0  0  0
  -22.3696  -10.9673   19.6164 H   0  0  0  0  0  0
  -21.2005   -7.6149   23.9717 H   0  0  0  0  0  0
  -21.1480   -6.0523   25.9077 H   0  0  0  0  0  0
  -22.0598   -2.7611   23.2847 H   0  0  0  0  0  0
  -22.4113  -11.9886   22.4785 H   0  0  0  0  0  0
  -21.1121  -13.1263   22.2609 H   0  0  0  0  0  0
  -24.6640  -15.8434   20.5187 H   0  0  0  0  0  0
  -26.2817  -15.6270   20.0812 H   0  0  0  0  0  0
  -26.7157  -32.5488   23.1142 H   0  0  0  0  0  0
  -25.0089  -33.9756   25.0468 H   0  0  0  0  0  0
  -22.7027  -31.3087   21.4110 H   0  0  0  0  0  0
  -23.3738  -35.9655   23.3305 H   0  0  0  0  0  0
  -24.3581  -36.8924   22.2051 H   0  0  0  0  0  0
  -23.7254  -37.6523   23.6652 H   0  0  0  0  0  0
  -26.0704  -31.5737   20.6015 H   0  0  0  0  0  0
  -26.8328  -30.8610   21.9934 H   0  0  0  0  0  0
  -28.1002  -29.0266   21.1935 H   0  0  0  0  0  0
  -25.9945  -25.9816   18.9532 H   0  0  0  0  0  0
  -23.9737  -27.3260   18.9946 H   0  0  0  0  0  0
  -23.7382  -30.6078   19.4073 H   0  0  0  0  0  0
  -22.7435  -29.2556   19.8597 H   0  0  0  0  0  0
  -25.1283  -36.1955   25.0825 H   0  0  0  0  0  0
  -20.9968  -28.3250   24.1416 H   0  0  0  0  0  0
  -20.5675  -26.2286   23.3609 H   0  0  0  0  0  0
  -21.6641  -26.7445   22.1203 H   0  0  0  0  0  0
  -19.6911  -25.6300   21.1234 H   0  0  0  0  0  0
  -19.6685  -27.3205   20.6752 H   0  0  0  0  0  0
  -17.4196  -26.6671   21.4025 H   0  0  0  0  0  0
  -18.0322  -26.0066   22.9016 H   0  0  0  0  0  0
  -19.7933  -30.7257   24.2281 H   0  0  0  0  0  0
  -17.5015  -31.6265   24.5168 H   0  0  0  0  0  0
  -15.5351  -30.2995   23.7644 H   0  0  0  0  0  0
  -15.8663  -28.0830   22.7056 H   0  0  0  0  0  0
  -24.5923  -30.7058   25.7824 H   0  0  0  0  0  0
  -24.8950  -32.2878   26.4917 H   0  0  0  0  0  0
  -25.8105  -30.8896   27.0238 H   0  0  0  0  0  0
  -26.2885  -29.6782   24.1174 H   0  0  0  0  0  0
  -27.4053  -29.7258   25.4624 H   0  0  0  0  0  0
  -27.8744  -30.4323   23.9335 H   0  0  0  0  0  0
  -27.2656  -33.3602   26.2106 H   0  0  0  0  0  0
  -28.3859  -32.6902   25.0339 H   0  0  0  0  0  0
  -28.0726  -31.8432   26.5410 H   0  0  0  0  0  0
  -28.2595  -38.0105   24.7496 H   0  0  0  0  0  0
  -28.1067  -36.2633   24.6297 H   0  0  0  0  0  0
  -27.2294  -37.1473   25.8868 H   0  0  0  0  0  0
  -20.9327  -29.8783   21.6941 H   0  0  0  0  0  0
  -26.0170  -38.2861   24.1406 H   0  0  0  0  0  0
  -30.6541  -17.0949   19.5428 H   0  0  0  0  0  0
  -28.9678  -17.2228   19.9266 H   0  0  0  0  0  0
  -31.3103  -18.3080   21.4926 H   0  0  0  0  0  0
  -29.9771  -17.6939   22.4136 H   0  0  0  0  0  0
  -27.2444  -24.7911   20.2910 H   0  0  0  0  0  0
  -28.1973  -24.9789   18.8314 H   0  0  0  0  0  0
  -29.1932  -24.2677   21.6418 H   0  0  0  0  0  0
  -30.2711  -24.5014   20.2815 H   0  0  0  0  0  0
  -30.9434  -20.1789   20.0829 H   0  0  0  0  0  0
  -29.3018  -20.2769   19.5094 H   0  0  0  0  0  0
  -30.8295  -22.1951   21.1586 H   0  0  0  0  0  0
  -29.3415  -21.7928   21.9649 H   0  0  0  0  0  0
  -28.9732  -15.3399   21.2544 H   0  0  0  0  0  0
  1 25  1  0  0  0
  1 30  2  0  0  0
  1 77  1  0  0  0
  2  3  1  0  0  0
  2 25  1  0  0  0
  2 80  1  0  0  0
  2 81  1  0  0  0
  3  4  1  0  0  0
  3 82  1  0  0  0
  3 83  1  0  0  0
  4  5  1  0  0  0
  4 84  1  0  0  0
  4 85  1  0  0  0
  5  6  1  0  0  0
  5 26  1  0  0  0
  5 86  1  0  0  0
  6 25  1  0  0  0
  6 87  1  0  0  0
  6 88  1  0  0  0
  7  8  2  0  0  0
  7 26  1  0  0  0
  7 29  1  0  0  0
  8  9  1  0  0  0
  8 22  1  0  0  0
  9 10  1  0  0  0
  9 27  2  0  0  0
 10 11  2  0  0  0
 10 15  1  0  0  0
 11 12  1  0  0  0
 11 89  1  0  0  0
 12 13  2  0  0  0
 12 90  1  0  0  0
 13 14  1  0  0  0
 13 31  1  0  0  0
 14 15  2  0  0  0
 14 91  1  0  0  0
 15 92  1  0  0  0
 16 17  2  0  0  0
 16 21  1  0  0  0
 16 31  1  0  0  0
 17 18  1  0  0  0
 17 93  1  0  0  0
 18 19  2  0  0  0
 18 94  1  0  0  0
 19 20  1  0  0  0
 19 24  1  0  0  0
 20 21  2  0  0  0
 20 95  1  0  0  0
 21 23  1  0  0  0
 22 28  1  0  0  0
 22 32  2  0  0  0
 26 27  1  0  0  0
 28 96  1  0  0  0
 28 97  1  0  0  0
 29 98  1  0  0  0
 29 99  1  0  0  0
 33 34  1  0  0  0
 33 66  1  0  0  0
 33 70  2  0  0  0
 34 36  1  0  0  0
 34 59  1  0  0  0
 34100  1  0  0  0
 35 44  2  0  0  0
 35 45  1  0  0  0
 35 68  1  0  0  0
 36 56  1  0  0  0
 36101  1  0  0  0
 37 39  1  0  0  0
 37 47  1  0  0  0
 37 66  1  0  0  0
 37102  1  0  0  0
 38 43  2  0  0  0
 38 46  1  0  0  0
 38 47  1  0  0  0
 39 64  1  0  0  0
 39 67  2  0  0  0
 40 52  1  0  0  0
 40 53  2  0  0  0
 40 58  1  0  0  0
 41103  1  0  0  0
 41104  1  0  0  0
 41105  1  0  0  0
 41 48  1  0  0  0
 42 43  1  0  0  0
 42 66  1  0  0  0
 42106  1  0  0  0
 42107  1  0  0  0
 43 44  1  0  0  0
 44108  1  0  0  0
 45 46  2  0  0  0
 45109  1  0  0  0
 46110  1  0  0  0
 47111  1  0  0  0
 47112  1  0  0  0
 48 56  1  0  0  0
 48 65  1  0  0  0
 48113  1  0  0  0
 49 50  1  0  0  0
 49 53  1  0  0  0
 49 64  1  0  0  0
 49114  1  0  0  0
 50 51  1  0  0  0
 50115  1  0  0  0
 50116  1  0  0  0
 51 52  1  0  0  0
 51117  1  0  0  0
 51118  1  0  0  0
 52119  1  0  0  0
 52120  1  0  0  0
 53 54  1  0  0  0
 54 55  2  0  0  0
 54121  1  0  0  0
 55 57  1  0  0  0
 55122  1  0  0  0
 56 69  2  0  0  0
 57 58  2  0  0  0
 57123  1  0  0  0
 58124  1  0  0  0
 59 60  1  0  0  0
 59 61  1  0  0  0
 59 62  1  0  0  0
 60125  1  0  0  0
 60126  1  0  0  0
 60127  1  0  0  0
 61128  1  0  0  0
 61129  1  0  0  0
 61130  1  0  0  0
 62131  1  0  0  0
 62132  1  0  0  0
 62133  1  0  0  0
 63 65  1  0  0  0
 63134  1  0  0  0
 63135  1  0  0  0
 63136  1  0  0  0
 64137  1  0  0  0
 65138  1  0  0  0
 68 73  1  0  0  0
 71 72  1  0  0  0
 71 77  1  0  0  0
 71139  1  0  0  0
 71140  1  0  0  0
 72 78  1  0  0  0
 72141  1  0  0  0
 72142  1  0  0  0
 73 74  1  0  0  0
 73143  1  0  0  0
 73144  1  0  0  0
 74 79  1  0  0  0
 74145  1  0  0  0
 74146  1  0  0  0
 75 76  1  0  0  0
 75 78  1  0  0  0
 75147  1  0  0  0
 75148  1  0  0  0
 76 79  1  0  0  0
 76149  1  0  0  0
 76150  1  0  0  0
 77151  1  0  0  0
M  ISO  4   1 100  68 101  73 101  77 100
M  END
> <chiral flag>
0

> <version>
0

> <s_m_source_file>
/data/baiqing/PycharmProjects/Reinvent-master-3.2/result/LINK_invent/BTK/process_docking_weight1_custom_product_contain_oxygen_bond_distance_aromatic_linkinvent_7_9_3/rearranged_h_0000.sdf

> <i_m_source_file_index>
17

> <r_mmod_Potential_Energy-OPLS-2005>
-33.6661491394043

> <r_mmod_Stretch_Energy-OPLS-2005>
54.1415176391602

> <r_mmod_Bend_Energy-OPLS-2005>
117.664672851562

> <r_mmod_Torsional_Energy-OPLS-2005>
224.785095214844

> <r_mmod_Improper_Torsional_Energy-OPLS-2005>
6.75608205795288

> <r_mmod_Van_der_Waal_Energy-OPLS-2005>
133.051956176758

> <r_mmod_Electrostatic_Energy-OPLS-2005>
-384.544891357422

> <r_mmod_Solvation_Energy-OPLS-2005>
-214.149185180664

> <b_mmod_Minimization_Converged-OPLS-2005>
0

> <r_mmod_RMS_Derivative-OPLS-2005>
0.78693014383316

$$$$
17
                    3D
 Structure written by MMmdl.
174183  0  0  1  0            999 V2000
  -28.7963  -18.4503   20.6237 C   0  0  0  0  0  0
  -29.7737  -15.2438   19.6904 C   0  0  0  0  0  0
  -29.4563  -13.8936   18.6990 C   0  0  0  0  0  0
  -28.3996  -12.9011   19.1792 C   0  0  0  0  0  0
  -27.4950  -13.8453   19.9621 C   0  0  2  0  0  0
  -28.1389  -15.0784   20.9330 C   0  0  0  0  0  0
  -25.1212  -13.9209   20.6171 C   0  0  0  0  0  0
  -24.1284  -13.0594   20.9424 C   0  0  0  0  0  0
  -24.6835  -11.7438   20.8696 C   0  0  0  0  0  0
  -23.9656  -10.4458   21.0172 C   0  0  0  0  0  0
  -24.3973   -9.4323   21.9056 C   0  0  0  0  0  0
  -23.6509   -8.2406   22.0711 C   0  0  0  0  0  0
  -22.4479   -8.0420   21.3552 C   0  0  0  0  0  0
  -22.0253   -9.0382   20.4592 C   0  0  0  0  0  0
  -22.7718  -10.2204   20.2907 C   0  0  0  0  0  0
  -21.6935   -6.0823   22.5259 C   0  0  0  0  0  0
  -21.4091   -6.5687   23.8202 C   0  0  0  0  0  0
  -21.3688   -5.6825   24.9162 C   0  0  0  0  0  0
  -21.6047   -4.3080   24.7209 C   0  0  0  0  0  0
  -21.8800   -3.8182   23.4319 C   0  0  0  0  0  0
  -21.9214   -4.7029   22.3382 C   0  0  0  0  0  0
  -22.7160  -13.4794   21.1960 C   0  0  0  0  0  0
  -22.1658   -4.2202   21.0961 F   0  0  0  0  0  0
  -21.5618   -3.4546   25.7707 F   0  0  0  0  0  0
  -28.7243  -16.5527   20.3290 N   0  0  0  0  0  0
  -26.2569  -13.1877   20.4319 N   0  0  0  0  0  0
  -26.0031  -11.8330   20.5827 N   0  0  0  0  0  0
  -22.0094  -12.7635   22.0595 N   0  0  0  0  0  0
  -25.1537  -15.2987   20.4323 N   0  0  0  0  0  0
  -30.0657  -17.9985   20.5660 O   0  0  0  0  0  0
  -21.6780   -6.9037   21.4263 O   0  0  0  0  0  0
  -22.2594  -14.5027   20.6830 O   0  0  0  0  0  0
  -24.7754  -31.2526   22.9974 C   0  0  0  0  0  0
  -26.0211  -31.9492   23.7762 C   0  0  1  0  0  0
  -28.3124  -25.9153   19.2949 C   0  0  0  0  0  0
  -25.6071  -33.4615   24.0129 N   0  0  0  0  0  0
  -23.5222  -29.8254   21.3577 C   0  0  2  0  0  0
  -24.9459  -27.4518   20.1778 C   0  0  0  0  0  0
  -22.6152  -29.2323   22.4474 C   0  0  0  0  0  0
  -17.9704  -28.1378   22.8340 C   0  0  0  0  0  0
  -24.1635  -36.5291   23.2846 C   0  0  0  0  0  0
  -25.6071  -28.7687   21.8863 C   0  0  0  0  0  0
  -25.7445  -26.8465   21.4256 C   0  0  0  0  0  0
  -28.1656  -25.7685   20.8667 C   0  0  0  0  0  0
  -27.0184  -26.4884   18.4138 C   0  0  0  0  0  0
  -25.5891  -27.1130   18.8288 C   0  0  0  0  0  0
  -23.8284  -28.7420   20.1639 C   0  0  0  0  0  0
  -25.4366  -36.0483   24.0112 C   0  0  1  0  0  0
  -20.4931  -28.3444   23.1130 C   0  0  2  0  0  0
  -20.5916  -26.8983   22.5760 C   0  0  0  0  0  0
  -19.5256  -26.6094   21.5249 C   0  0  0  0  0  0
  -18.1346  -26.7906   22.1430 C   0  0  0  0  0  0
  -19.0895  -28.8813   23.2720 C   0  0  0  0  0  0
  -18.9092  -30.1413   23.8798 C   0  0  0  0  0  0
  -17.6173  -30.6633   24.0566 C   0  0  0  0  0  0
  -25.9507  -34.6640   23.4378 C   0  0  0  0  0  0
  -16.5007  -29.9179   23.6371 C   0  0  0  0  0  0
  -16.6775  -28.6597   23.0298 C   0  0  0  0  0  0
  -26.6213  -31.0922   25.2277 C   0  0  0  0  0  0
  -25.2316  -31.1153   26.0481 C   0  0  0  0  0  0
  -28.6897  -28.6396   25.2608 C   0  0  0  0  0  0
  -27.1079  -32.5210   25.9283 C   0  0  0  0  0  0
  -27.5376  -37.0762   24.8474 C   0  0  0  0  0  0
  -21.3008  -29.2185   22.2784 N   0  0  0  0  0  0
  -26.4100  -37.1755   23.9277 N   0  0  0  0  0  0
  -24.7482  -30.1140   22.0660 N   0  0  0  0  0  0
  -23.1088  -28.7293   23.4617 O   0  0  0  0  0  0
  -29.5560  -26.4993   19.3541 O   0  0  0  0  0  0
  -26.6684  -34.7131   22.4413 O   0  0  0  0  0  0
  -23.7101  -31.8307   23.3220 O   0  0  0  0  0  0
  -27.4127  -27.6922   20.4505 C   0  0  0  0  0  0
  -26.3063  -24.9928   20.2681 C   0  0  0  0  0  0
  -28.8542  -30.8512   24.6124 C   0  0  0  0  0  0
  -27.9169  -27.6307   22.1156 C   0  0  0  0  0  0
  -27.7789  -29.9241   23.6052 C   0  0  0  0  0  0
  -27.1663  -24.4485   22.5791 C   0  0  0  0  0  0
  -26.4717  -28.8205   25.9910 C   0  0  0  0  0  0
  -27.1782  -23.2539   21.1254 C   0  0  0  0  0  0
  -28.7572  -30.6489   26.3199 C   0  0  0  0  0  0
  -27.4320  -26.2850   23.0684 C   0  0  0  0  0  0
  -26.6398  -28.7561   24.3385 C   0  0  0  0  0  0
  -27.5039  -29.7171   26.9697 C   0  0  0  0  0  0
  -30.4714  -29.3778   27.8524 C   0  0  0  0  0  0
  -30.5042  -27.8199   27.4020 C   0  0  0  0  0  0
  -30.7869  -25.8884   20.0293 C   0  0  0  0  0  0
  -31.1439  -25.4392   21.5745 C   0  0  0  0  0  0
  -30.5915  -26.1466   25.4534 C   0  0  0  0  0  0
  -31.2183  -25.6380   24.0686 C   0  0  0  0  0  0
  -27.9326  -20.6121   20.8129 N   0  0  0  0  0  0
  -29.9973  -30.5682   27.0359 N   0  0  0  0  0  0
  -26.6629  -27.2108   24.0224 O   0  0  0  0  0  0
  -31.0972  -27.3654   26.1199 O   0  0  0  0  0  0
  -30.8219  -26.2380   22.7758 O   0  0  0  0  0  0
  -27.4480  -29.4678   28.2948 F   0  0  0  0  0  0
  -30.4642  -15.8138   19.0736 H   0  0  0  0  0  0
  -30.4684  -14.9181   20.4702 H   0  0  0  0  0  0
  -30.3829  -13.3508   18.4997 H   0  0  0  0  0  0
  -29.1330  -14.2634   17.7263 H   0  0  0  0  0  0
  -28.8324  -12.1573   19.8507 H   0  0  0  0  0  0
  -27.8908  -12.3840   18.3637 H   0  0  0  0  0  0
  -27.1121  -14.4322   19.1235 H   0  0  0  0  0  0
  -28.7774  -14.6431   21.7091 H   0  0  0  0  0  0
  -27.3451  -15.4215   21.5889 H   0  0  0  0  0  0
  -25.3067   -9.5774   22.4748 H   0  0  0  0  0  0
  -24.0131   -7.4846   22.7518 H   0  0  0  0  0  0
  -21.1174   -8.8968   19.8900 H   0  0  0  0  0  0
  -22.4146  -10.9723   19.6002 H   0  0  0  0  0  0
  -21.2111   -7.6196   23.9745 H   0  0  0  0  0  0
  -21.1528   -6.0540   25.9082 H   0  0  0  0  0  0
  -22.0545   -2.7638   23.2796 H   0  0  0  0  0  0
  -22.3992  -11.9416   22.4975 H   0  0  0  0  0  0
  -21.0628  -13.0371   22.2851 H   0  0  0  0  0  0
  -24.3242  -15.8829   20.5009 H   0  0  0  0  0  0
  -25.9873  -15.8061   20.1554 H   0  0  0  0  0  0
  -26.7922  -32.0318   23.0065 H   0  0  0  0  0  0
  -24.9203  -33.5443   24.7470 H   0  0  0  0  0  0
  -23.0638  -30.7396   20.9614 H   0  0  0  0  0  0
  -23.3872  -35.7627   23.3100 H   0  0  0  0  0  0
  -24.3672  -36.7520   22.2347 H   0  0  0  0  0  0
  -23.7488  -37.4241   23.7474 H   0  0  0  0  0  0
  -26.4549  -29.3850   21.7492 H   0  0  0  0  0  0
  -25.1789  -28.4234   22.7828 H   0  0  0  0  0  0
  -28.9359  -25.4455   21.5190 H   0  0  0  0  0  0
  -27.2563  -26.6349   17.3750 H   0  0  0  0  0  0
  -25.0775  -27.5417   17.9723 H   0  0  0  0  0  0
  -24.1450  -29.3596   19.3191 H   0  0  0  0  0  0
  -22.8672  -28.3178   19.8374 H   0  0  0  0  0  0
  -25.1778  -35.8815   25.0574 H   0  0  0  0  0  0
  -20.8617  -28.3317   24.1422 H   0  0  0  0  0  0
  -20.4377  -26.2071   23.4062 H   0  0  0  0  0  0
  -21.5825  -26.6621   22.1907 H   0  0  0  0  0  0
  -19.6340  -25.5978   21.1309 H   0  0  0  0  0  0
  -19.6499  -27.2880   20.6797 H   0  0  0  0  0  0
  -17.3720  -26.6810   21.3703 H   0  0  0  0  0  0
  -17.9539  -26.0049   22.8789 H   0  0  0  0  0  0
  -19.7665  -30.7101   24.2089 H   0  0  0  0  0  0
  -17.4811  -31.6311   24.5176 H   0  0  0  0  0  0
  -15.5033  -30.3152   23.7745 H   0  0  0  0  0  0
  -15.8111  -28.1015   22.6998 H   0  0  0  0  0  0
  -24.5554  -30.3218   25.7327 H   0  0  0  0  0  0
  -24.6315  -32.0101   25.9200 H   0  0  0  0  0  0
  -25.3677  -31.0465   27.1260 H   0  0  0  0  0  0
  -28.8366  -27.9955   24.4077 H   0  0  0  0  0  0
  -28.5310  -27.8109   25.9407 H   0  0  0  0  0  0
  -29.7528  -28.8438   25.2390 H   0  0  0  0  0  0
  -26.3263  -33.2207   26.1838 H   0  0  0  0  0  0
  -27.8423  -33.0826   25.3404 H   0  0  0  0  0  0
  -27.4751  -32.4700   26.9535 H   0  0  0  0  0  0
  -28.1971  -37.9381   24.7240 H   0  0  0  0  0  0
  -28.1299  -36.1746   24.6663 H   0  0  0  0  0  0
  -27.1968  -37.0589   25.8858 H   0  0  0  0  0  0
  -20.8805  -29.6151   21.4492 H   0  0  0  0  0  0
  -25.9472  -38.0650   24.0920 H   0  0  0  0  0  0
  -27.4646  -28.5400   19.7654 H   0  0  0  0  0  0
  -25.7530  -24.6927   19.3772 H   0  0  0  0  0  0
  -29.6975  -31.3423   24.1737 H   0  0  0  0  0  0
  -28.7805  -28.2167   22.3833 H   0  0  0  0  0  0
  -28.0722  -30.0173   22.5734 H   0  0  0  0  0  0
  -26.9993  -23.8929   23.4787 H   0  0  0  0  0  0
  -25.8436  -28.0921   26.4869 H   0  0  0  0  0  0
  -31.4756  -29.6178   28.2043 H   0  0  0  0  0  0
  -29.8578  -29.3852   28.7464 H   0  0  0  0  0  0
  -29.5210  -27.3919   27.5904 H   0  0  0  0  0  0
  -31.0590  -27.2811   28.1774 H   0  0  0  0  0  0
  -30.9363  -24.9524   19.4904 H   0  0  0  0  0  0
  -31.6117  -26.5135   19.6881 H   0  0  0  0  0  0
  -32.2150  -25.2393   21.6351 H   0  0  0  0  0  0
  -30.7211  -24.4442   21.7381 H   0  0  0  0  0  0
  -30.6962  -25.3201   26.1615 H   0  0  0  0  0  0
  -29.5158  -26.1436   25.3214 H   0  0  0  0  0  0
  -30.8764  -24.6073   23.9938 H   0  0  0  0  0  0
  -32.2970  -25.5027   24.1464 H   0  0  0  0  0  0
  -28.8575  -20.8007   21.1817 H   0  0  0  0  0  0
  -30.7267  -31.2091   26.7556 H   0  0  0  0  0  0
  1 25  1  0  0  0
  1 30  2  0  0  0
  1 89  1  0  0  0
  2  3  1  0  0  0
  2 25  1  0  0  0
  2 95  1  0  0  0
  2 96  1  0  0  0
  3  4  1  0  0  0
  3 97  1  0  0  0
  3 98  1  0  0  0
  4  5  1  0  0  0
  4 99  1  0  0  0
  4100  1  0  0  0
  5  6  1  0  0  0
  5 26  1  0  0  0
  5101  1  0  0  0
  6 25  1  0  0  0
  6102  1  0  0  0
  6103  1  0  0  0
  7  8  2  0  0  0
  7 26  1  0  0  0
  7 29  1  0  0  0
  8  9  1  0  0  0
  8 22  1  0  0  0
  9 10  1  0  0  0
  9 27  2  0  0  0
 10 11  2  0  0  0
 10 15  1  0  0  0
 11 12  1  0  0  0
 11104  1  0  0  0
 12 13  2  0  0  0
 12105  1  0  0  0
 13 14  1  0  0  0
 13 31  1  0  0  0
 14 15  2  0  0  0
 14106  1  0  0  0
 15107  1  0  0  0
 16 17  2  0  0  0
 16 21  1  0  0  0
 16 31  1  0  0  0
 17 18  1  0  0  0
 17108  1  0  0  0
 18 19  2  0  0  0
 18109  1  0  0  0
 19 20  1  0  0  0
 19 24  1  0  0  0
 20 21  2  0  0  0
 20110  1  0  0  0
 21 23  1  0  0  0
 22 28  1  0  0  0
 22 32  2  0  0  0
 26 27  1  0  0  0
 28111  1  0  0  0
 28112  1  0  0  0
 29113  1  0  0  0
 29114  1  0  0  0
 33 34  1  0  0  0
 33 66  1  0  0  0
 33 70  2  0  0  0
 34 36  1  0  0  0
 34 59  1  0  0  0
 34115  1  0  0  0
 35 44  2  0  0  0
 35 45  1  0  0  0
 35 68  1  0  0  0
 36 56  1  0  0  0
 36116  1  0  0  0
 37 39  1  0  0  0
 37 47  1  0  0  0
 37 66  1  0  0  0
 37117  1  0  0  0
 38 43  2  0  0  0
 38 46  1  0  0  0
 38 47  1  0  0  0
 39 64  1  0  0  0
 39 67  2  0  0  0
 40 52  1  0  0  0
 40 53  2  0  0  0
 40 58  1  0  0  0
 41118  1  0  0  0
 41119  1  0  0  0
 41120  1  0  0  0
 41 48  1  0  0  0
 42 43  1  0  0  0
 42 66  1  0  0  0
 42121  1  0  0  0
 42122  1  0  0  0
 43 44  1  0  0  0
 44123  1  0  0  0
 45 46  2  0  0  0
 45124  1  0  0  0
 46125  1  0  0  0
 47126  1  0  0  0
 47127  1  0  0  0
 48 56  1  0  0  0
 48 65  1  0  0  0
 48128  1  0  0  0
 49 50  1  0  0  0
 49 53  1  0  0  0
 49 64  1  0  0  0
 49129  1  0  0  0
 50 51  1  0  0  0
 50130  1  0  0  0
 50131  1  0  0  0
 51 52  1  0  0  0
 51132  1  0  0  0
 51133  1  0  0  0
 52134  1  0  0  0
 52135  1  0  0  0
 53 54  1  0  0  0
 54 55  2  0  0  0
 54136  1  0  0  0
 55 57  1  0  0  0
 55137  1  0  0  0
 56 69  2  0  0  0
 57 58  2  0  0  0
 57138  1  0  0  0
 58139  1  0  0  0
 59 60  1  0  0  0
 59 61  1  0  0  0
 59 62  1  0  0  0
 60140  1  0  0  0
 60141  1  0  0  0
 60142  1  0  0  0
 61143  1  0  0  0
 61144  1  0  0  0
 61145  1  0  0  0
 62146  1  0  0  0
 62147  1  0  0  0
 62148  1  0  0  0
 63 65  1  0  0  0
 63149  1  0  0  0
 63150  1  0  0  0
 63151  1  0  0  0
 64152  1  0  0  0
 65153  1  0  0  0
 68 85  1  0  0  0
 71 72  2  0  0  0
 71 74  1  0  0  0
 71154  1  0  0  0
 72 78  1  0  0  0
 72155  1  0  0  0
 73 75  2  0  0  0
 73 79  1  0  0  0
 73156  1  0  0  0
 74 80  2  0  0  0
 74157  1  0  0  0
 75 81  1  0  0  0
 75158  1  0  0  0
 76 78  2  0  0  0
 76 80  1  0  0  0
 76159  1  0  0  0
 77 81  2  0  0  0
 77 82  1  0  0  0
 77160  1  0  0  0
 78 89  1  0  0  0
 79 82  2  0  0  0
 79 90  1  0  0  0
 80 91  1  0  0  0
 81 91  1  0  0  0
 82 94  1  0  0  0
 83 84  1  0  0  0
 83 90  1  0  0  0
 83161  1  0  0  0
 83162  1  0  0  0
 84 92  1  0  0  0
 84163  1  0  0  0
 84164  1  0  0  0
 85 86  1  0  0  0
 85165  1  0  0  0
 85166  1  0  0  0
 86 93  1  0  0  0
 86167  1  0  0  0
 86168  1  0  0  0
 87 88  1  0  0  0
 87 92  1  0  0  0
 87169  1  0  0  0
 87170  1  0  0  0
 88 93  1  0  0  0
 88171  1  0  0  0
 88172  1  0  0  0
 89173  1  0  0  0
 90174  1  0  0  0
M  ISO  4   1 100  68 101  85 101  89 100
M  END
> <chiral flag>
0

> <version>
0

> <s_m_source_file>
/data/baiqing/PycharmProjects/Reinvent-master-3.2/result/LINK_invent/BTK/process_docking_weight1_custom_product_contain_oxygen_bond_distance_aromatic_linkinvent_7_9_3/rearranged_h_0000.sdf

> <i_m_source_file_index>
18

> <r_mmod_Potential_Energy-OPLS-2005>
42131.14453125

> <r_mmod_Stretch_Energy-OPLS-2005>
21862.310546875

> <r_mmod_Bend_Energy-OPLS-2005>
2735.44799804688

> <r_mmod_Torsional_Energy-OPLS-2005>
870.0068359375

> <r_mmod_Improper_Torsional_Energy-OPLS-2005>
109.325080871582

> <r_mmod_Van_der_Waal_Energy-OPLS-2005>
6012.01416015625

> <r_mmod_Electrostatic_Energy-OPLS-2005>
-342.642028808594

> <r_mmod_Solvation_Energy-OPLS-2005>
-249.615936279297

> <b_mmod_Minimization_Converged-OPLS-2005>
0

> <r_mmod_RMS_Derivative-OPLS-2005>
36.0428085327148

$$$$
18
                    3D
 Structure written by MMmdl.
147155  0  0  1  0            999 V2000
  -30.4173  -15.3377   20.3238 C   0  0  0  0  0  0
  -30.4429  -12.8496   19.5415 C   0  0  0  0  0  0
  -29.5466  -12.5835   18.3044 C   0  0  0  0  0  0
  -28.1044  -12.2845   18.7491 C   0  0  0  0  0  0
  -27.6144  -13.2854   19.8231 C   0  0  2  0  0  0
  -28.6408  -13.5037   20.9568 C   0  0  0  0  0  0
  -25.2393  -13.8315   20.5742 C   0  0  0  0  0  0
  -24.1767  -13.0477   20.9269 C   0  0  0  0  0  0
  -24.6425  -11.6978   20.8757 C   0  0  0  0  0  0
  -23.9107  -10.4331   21.0397 C   0  0  0  0  0  0
  -24.3650   -9.4247   21.9185 C   0  0  0  0  0  0
  -23.6341   -8.2267   22.0730 C   0  0  0  0  0  0
  -22.4321   -8.0295   21.3532 C   0  0  0  0  0  0
  -21.9958   -9.0264   20.4640 C   0  0  0  0  0  0
  -22.7264  -10.2157   20.3058 C   0  0  0  0  0  0
  -21.6874   -6.0761   22.5280 C   0  0  0  0  0  0
  -21.4046   -6.5657   23.8217 C   0  0  0  0  0  0
  -21.3646   -5.6789   24.9163 C   0  0  0  0  0  0
  -21.6025   -4.3052   24.7209 C   0  0  0  0  0  0
  -21.8832   -3.8168   23.4329 C   0  0  0  0  0  0
  -21.9212   -4.6993   22.3394 C   0  0  0  0  0  0
  -22.7765  -13.5177   21.1890 C   0  0  0  0  0  0
  -22.1680   -4.2182   21.0972 F   0  0  0  0  0  0
  -21.5611   -3.4531   25.7724 F   0  0  0  0  0  0
  -29.8736  -14.0115   20.3306 N   0  0  0  0  0  0
  -26.2831  -12.9589   20.3211 N   0  0  0  0  0  0
  -25.9354  -11.6678   20.5719 N   0  0  0  0  0  0
  -22.0445  -12.8139   22.0456 N   0  0  0  0  0  0
  -25.3995  -15.2044   20.4132 N   0  0  0  0  0  0
  -31.6343  -15.3268   20.0769 O   0  0  0  0  0  0
  -21.6653   -6.8903   21.4243 O   0  0  0  0  0  0
  -22.3409  -14.5439   20.6685 O   0  0  0  0  0  0
  -24.6639  -31.8206   23.1679 C   0  0  0  0  0  0
  -25.9293  -32.4590   23.8142 C   0  0  1  0  0  0
  -27.2301  -26.9041   20.1724 C   0  0  0  0  0  0
  -25.5954  -33.8394   24.2048 N   0  0  0  0  0  0
  -23.4792  -30.4275   21.5181 C   0  0  2  0  0  0
  -24.9341  -28.8092   20.1097 C   0  0  0  0  0  0
  -22.7677  -29.4404   22.4791 C   0  0  0  0  0  0
  -18.0352  -28.1409   22.8425 C   0  0  0  0  0  0
  -24.1483  -36.7212   23.2651 C   0  0  0  0  0  0
  -26.0495  -30.6193   21.4014 C   0  0  0  0  0  0
  -26.1180  -29.2050   20.7439 C   0  0  0  0  0  0
  -27.2524  -28.2708   20.7542 C   0  0  0  0  0  0
  -26.0147  -26.6667   19.4886 C   0  0  0  0  0  0
  -24.9079  -27.5614   19.4646 C   0  0  0  0  0  0
  -23.7205  -29.7400   20.1468 C   0  0  0  0  0  0
  -25.4127  -36.2987   24.0300 C   0  0  1  0  0  0
  -20.5945  -28.3771   23.1251 C   0  0  2  0  0  0
  -20.6866  -26.9462   22.5451 C   0  0  0  0  0  0
  -19.5886  -26.6385   21.5253 C   0  0  0  0  0  0
  -18.2023  -26.7962   22.1587 C   0  0  0  0  0  0
  -19.1571  -28.8900   23.2802 C   0  0  0  0  0  0
  -18.9412  -30.1468   23.8857 C   0  0  0  0  0  0
  -17.6405  -30.6562   24.0560 C   0  0  0  0  0  0
  -25.9091  -34.9370   23.4998 C   0  0  0  0  0  0
  -16.5346  -29.9031   23.6257 C   0  0  0  0  0  0
  -16.7313  -28.6471   23.0286 C   0  0  0  0  0  0
  -26.4537  -31.6556   25.0691 C   0  0  0  0  0  0
  -25.3640  -31.3820   26.1332 C   0  0  0  0  0  0
  -27.0445  -30.2923   24.6462 C   0  0  0  0  0  0
  -27.6023  -32.4380   25.7501 C   0  0  0  0  0  0
  -27.5556  -37.1767   24.8467 C   0  0  0  0  0  0
  -21.4334  -29.3040   22.3579 N   0  0  0  0  0  0
  -26.4283  -37.3719   23.9400 N   0  0  0  0  0  0
  -24.7524  -30.9844   22.0828 N   0  0  0  0  0  0
  -23.4211  -28.7995   23.3048 O   0  0  0  0  0  0
  -28.2434  -25.8023   20.2918 O   0  0  0  0  0  0
  -26.5733  -34.8890   22.4621 O   0  0  0  0  0  0
  -23.5697  -32.1187   23.6746 O   0  0  0  0  0  0
  -30.4574  -19.7735   18.2385 C   0  0  0  0  0  0
  -29.8838  -20.9571   18.7817 C   0  0  0  0  0  0
  -30.4003  -18.4795   18.8314 C   0  0  0  0  0  0
  -29.1298  -19.5344   20.5858 C   0  0  0  0  0  0
  -29.1807  -20.9844   20.0068 C   0  0  0  0  0  0
  -29.7276  -18.2014   20.0451 C   0  0  0  0  0  0
  -28.6918  -22.5849   20.5862 C   0  0  0  0  0  0
  -28.2563  -24.1938   19.8356 C   0  0  0  0  0  0
  -29.6525  -16.6185   20.4827 N   0  0  0  0  0  0
  -31.4638  -13.0457   19.2134 H   0  0  0  0  0  0
  -30.5154  -11.9574   20.1644 H   0  0  0  0  0  0
  -29.9397  -11.7591   17.7092 H   0  0  0  0  0  0
  -29.5554  -13.4598   17.6532 H   0  0  0  0  0  0
  -28.0917  -11.2763   19.1669 H   0  0  0  0  0  0
  -27.4290  -12.2662   17.8945 H   0  0  0  0  0  0
  -27.5241  -14.2363   19.2968 H   0  0  0  0  0  0
  -28.8133  -12.5874   21.5201 H   0  0  0  0  0  0
  -28.2689  -14.2421   21.6695 H   0  0  0  0  0  0
  -25.2781   -9.5713   22.4775 H   0  0  0  0  0  0
  -24.0042   -7.4642   22.7429 H   0  0  0  0  0  0
  -21.0895   -8.8773   19.8945 H   0  0  0  0  0  0
  -22.3705  -10.9694   19.6181 H   0  0  0  0  0  0
  -21.2075   -7.6176   23.9727 H   0  0  0  0  0  0
  -21.1425   -6.0520   25.9052 H   0  0  0  0  0  0
  -22.0630   -2.7639   23.2826 H   0  0  0  0  0  0
  -22.4127  -11.9798   22.4786 H   0  0  0  0  0  0
  -21.1051  -13.1114   22.2683 H   0  0  0  0  0  0
  -24.6295  -15.8519   20.5379 H   0  0  0  0  0  0
  -26.2130  -15.6399   19.9971 H   0  0  0  0  0  0
  -26.7351  -32.5122   23.0843 H   0  0  0  0  0  0
  -24.9998  -33.9460   25.0122 H   0  0  0  0  0  0
  -22.7922  -31.2575   21.3482 H   0  0  0  0  0  0
  -23.3772  -35.9518   23.3310 H   0  0  0  0  0  0
  -24.3539  -36.8869   22.2066 H   0  0  0  0  0  0
  -23.7203  -37.6376   23.6715 H   0  0  0  0  0  0
  -26.2310  -31.3606   20.6216 H   0  0  0  0  0  0
  -26.9075  -30.6781   22.0594 H   0  0  0  0  0  0
  -28.1442  -28.5719   21.2874 H   0  0  0  0  0  0
  -25.8772  -25.7137   18.9978 H   0  0  0  0  0  0
  -24.0029  -27.2483   18.9610 H   0  0  0  0  0  0
  -23.8816  -30.5135   19.3931 H   0  0  0  0  0  0
  -22.8297  -29.1979   19.8222 H   0  0  0  0  0  0
  -25.1318  -36.1809   25.0793 H   0  0  0  0  0  0
  -20.9948  -28.3479   24.1395 H   0  0  0  0  0  0
  -20.5743  -26.2411   23.3676 H   0  0  0  0  0  0
  -21.6731  -26.7458   22.1229 H   0  0  0  0  0  0
  -19.6986  -25.6270   21.1352 H   0  0  0  0  0  0
  -19.6945  -27.3099   20.6719 H   0  0  0  0  0  0
  -17.4345  -26.6759   21.3942 H   0  0  0  0  0  0
  -18.0367  -26.0090   22.8930 H   0  0  0  0  0  0
  -19.7873  -30.7321   24.2169 H   0  0  0  0  0  0
  -17.4839  -31.6204   24.5199 H   0  0  0  0  0  0
  -15.5330  -30.2906   23.7480 H   0  0  0  0  0  0
  -15.8730  -28.0789   22.6988 H   0  0  0  0  0  0
  -24.5838  -30.7160   25.7625 H   0  0  0  0  0  0
  -24.8813  -32.3031   26.4615 H   0  0  0  0  0  0
  -25.7848  -30.9075   27.0197 H   0  0  0  0  0  0
  -26.3124  -29.6587   24.1447 H   0  0  0  0  0  0
  -27.3929  -29.7315   25.5133 H   0  0  0  0  0  0
  -27.9081  -30.4088   23.9910 H   0  0  0  0  0  0
  -27.2583  -33.3725   26.1937 H   0  0  0  0  0  0
  -28.3918  -32.6858   25.0397 H   0  0  0  0  0  0
  -28.0600  -31.8599   26.5535 H   0  0  0  0  0  0
  -28.2578  -38.0056   24.7487 H   0  0  0  0  0  0
  -28.1053  -36.2577   24.6356 H   0  0  0  0  0  0
  -27.2263  -37.1481   25.8870 H   0  0  0  0  0  0
  -20.9514  -29.8813   21.6805 H   0  0  0  0  0  0
  -26.0153  -38.2777   24.1451 H   0  0  0  0  0  0
  -30.9796  -19.8670   17.2954 H   0  0  0  0  0  0
  -30.0180  -21.8837   18.2329 H   0  0  0  0  0  0
  -30.8617  -17.6670   18.2851 H   0  0  0  0  0  0
  -28.6059  -19.4490   21.5308 H   0  0  0  0  0  0
  -27.8770  -22.3691   21.2812 H   0  0  0  0  0  0
  -29.5245  -22.8445   21.2385 H   0  0  0  0  0  0
  -27.3031  -24.0277   19.3345 H   0  0  0  0  0  0
  -28.9624  -24.2545   19.0068 H   0  0  0  0  0  0
  -28.7484  -16.3975   20.8725 H   0  0  0  0  0  0
  1 25  1  0  0  0
  1 30  2  0  0  0
  1 79  1  0  0  0
  2  3  1  0  0  0
  2 25  1  0  0  0
  2 80  1  0  0  0
  2 81  1  0  0  0
  3  4  1  0  0  0
  3 82  1  0  0  0
  3 83  1  0  0  0
  4  5  1  0  0  0
  4 84  1  0  0  0
  4 85  1  0  0  0
  5  6  1  0  0  0
  5 26  1  0  0  0
  5 86  1  0  0  0
  6 25  1  0  0  0
  6 87  1  0  0  0
  6 88  1  0  0  0
  7  8  2  0  0  0
  7 26  1  0  0  0
  7 29  1  0  0  0
  8  9  1  0  0  0
  8 22  1  0  0  0
  9 10  1  0  0  0
  9 27  2  0  0  0
 10 11  2  0  0  0
 10 15  1  0  0  0
 11 12  1  0  0  0
 11 89  1  0  0  0
 12 13  2  0  0  0
 12 90  1  0  0  0
 13 14  1  0  0  0
 13 31  1  0  0  0
 14 15  2  0  0  0
 14 91  1  0  0  0
 15 92  1  0  0  0
 16 17  2  0  0  0
 16 21  1  0  0  0
 16 31  1  0  0  0
 17 18  1  0  0  0
 17 93  1  0  0  0
 18 19  2  0  0  0
 18 94  1  0  0  0
 19 20  1  0  0  0
 19 24  1  0  0  0
 20 21  2  0  0  0
 20 95  1  0  0  0
 21 23  1  0  0  0
 22 28  1  0  0  0
 22 32  2  0  0  0
 26 27  1  0  0  0
 28 96  1  0  0  0
 28 97  1  0  0  0
 29 98  1  0  0  0
 29 99  1  0  0  0
 33 34  1  0  0  0
 33 66  1  0  0  0
 33 70  2  0  0  0
 34 36  1  0  0  0
 34 59  1  0  0  0
 34100  1  0  0  0
 35 44  2  0  0  0
 35 45  1  0  0  0
 35 68  1  0  0  0
 36 56  1  0  0  0
 36101  1  0  0  0
 37 39  1  0  0  0
 37 47  1  0  0  0
 37 66  1  0  0  0
 37102  1  0  0  0
 38 43  2  0  0  0
 38 46  1  0  0  0
 38 47  1  0  0  0
 39 64  1  0  0  0
 39 67  2  0  0  0
 40 52  1  0  0  0
 40 53  2  0  0  0
 40 58  1  0  0  0
 41103  1  0  0  0
 41104  1  0  0  0
 41105  1  0  0  0
 41 48  1  0  0  0
 42 43  1  0  0  0
 42 66  1  0  0  0
 42106  1  0  0  0
 42107  1  0  0  0
 43 44  1  0  0  0
 44108  1  0  0  0
 45 46  2  0  0  0
 45109  1  0  0  0
 46110  1  0  0  0
 47111  1  0  0  0
 47112  1  0  0  0
 48 56  1  0  0  0
 48 65  1  0  0  0
 48113  1  0  0  0
 49 50  1  0  0  0
 49 53  1  0  0  0
 49 64  1  0  0  0
 49114  1  0  0  0
 50 51  1  0  0  0
 50115  1  0  0  0
 50116  1  0  0  0
 51 52  1  0  0  0
 51117  1  0  0  0
 51118  1  0  0  0
 52119  1  0  0  0
 52120  1  0  0  0
 53 54  1  0  0  0
 54 55  2  0  0  0
 54121  1  0  0  0
 55 57  1  0  0  0
 55122  1  0  0  0
 56 69  2  0  0  0
 57 58  2  0  0  0
 57123  1  0  0  0
 58124  1  0  0  0
 59 60  1  0  0  0
 59 61  1  0  0  0
 59 62  1  0  0  0
 60125  1  0  0  0
 60126  1  0  0  0
 60127  1  0  0  0
 61128  1  0  0  0
 61129  1  0  0  0
 61130  1  0  0  0
 62131  1  0  0  0
 62132  1  0  0  0
 62133  1  0  0  0
 63 65  1  0  0  0
 63134  1  0  0  0
 63135  1  0  0  0
 63136  1  0  0  0
 64137  1  0  0  0
 65138  1  0  0  0
 68 78  1  0  0  0
 71 72  2  0  0  0
 71 73  1  0  0  0
 71139  1  0  0  0
 72 75  1  0  0  0
 72140  1  0  0  0
 73 76  2  0  0  0
 73141  1  0  0  0
 74 75  2  0  0  0
 74 76  1  0  0  0
 74142  1  0  0  0
 75 77  1  0  0  0
 76 79  1  0  0  0
 77 78  1  0  0  0
 77143  1  0  0  0
 77144  1  0  0  0
 78145  1  0  0  0
 78146  1  0  0  0
 79147  1  0  0  0
M  ISO  4   1 100  68 101  78 101  79 100
M  END
> <chiral flag>
0

> <version>
0

> <s_m_source_file>
/data/baiqing/PycharmProjects/Reinvent-master-3.2/result/LINK_invent/BTK/process_docking_weight1_custom_product_contain_oxygen_bond_distance_aromatic_linkinvent_7_9_3/rearranged_h_0000.sdf

> <i_m_source_file_index>
19

> <r_mmod_Potential_Energy-OPLS-2005>
1413.70751953125

> <r_mmod_Stretch_Energy-OPLS-2005>
652.188598632812

> <r_mmod_Bend_Energy-OPLS-2005>
447.77783203125

> <r_mmod_Torsional_Energy-OPLS-2005>
226.55256652832

> <r_mmod_Improper_Torsional_Energy-OPLS-2005>
3.64749312400818

> <r_mmod_Van_der_Waal_Energy-OPLS-2005>
123.477447509766

> <r_mmod_Electrostatic_Energy-OPLS-2005>
-347.025146484375

> <r_mmod_Solvation_Energy-OPLS-2005>
-211.674667358398

> <b_mmod_Minimization_Converged-OPLS-2005>
0

> <r_mmod_RMS_Derivative-OPLS-2005>
5.35810518264771

$$$$
19
                    3D
 Structure written by MMmdl.
137144  0  0  1  0            999 V2000
  -29.9622  -16.5635   20.2664 C   0  0  0  0  0  0
  -30.3146  -13.7964   19.5233 C   0  0  0  0  0  0
  -29.5702  -12.9451   18.4142 C   0  0  0  0  0  0
  -28.2376  -12.3814   18.9086 C   0  0  0  0  0  0
  -27.5746  -13.4257   19.8177 C   0  0  2  0  0  0
  -28.5152  -14.1357   20.8613 C   0  0  0  0  0  0
  -25.2174  -13.8479   20.5951 C   0  0  0  0  0  0
  -24.1675  -13.0467   20.9341 C   0  0  0  0  0  0
  -24.6541  -11.7031   20.8745 C   0  0  0  0  0  0
  -23.9255  -10.4321   21.0342 C   0  0  0  0  0  0
  -24.3739   -9.4228   21.9149 C   0  0  0  0  0  0
  -23.6364   -8.2283   22.0747 C   0  0  0  0  0  0
  -22.4340   -8.0323   21.3544 C   0  0  0  0  0  0
  -22.0014   -9.0304   20.4634 C   0  0  0  0  0  0
  -22.7395  -10.2158   20.3018 C   0  0  0  0  0  0
  -21.6878   -6.0765   22.5277 C   0  0  0  0  0  0
  -21.4033   -6.5657   23.8214 C   0  0  0  0  0  0
  -21.3665   -5.6802   24.9171 C   0  0  0  0  0  0
  -21.6043   -4.3064   24.7217 C   0  0  0  0  0  0
  -21.8816   -3.8163   23.4335 C   0  0  0  0  0  0
  -21.9200   -4.6987   22.3396 C   0  0  0  0  0  0
  -22.7650  -13.5092   21.1938 C   0  0  0  0  0  0
  -22.1663   -4.2170   21.0973 F   0  0  0  0  0  0
  -21.5624   -3.4543   25.7727 F   0  0  0  0  0  0
  -29.5188  -15.0444   20.1465 N   0  0  0  0  0  0
  -26.2805  -13.0063   20.3476 N   0  0  0  0  0  0
  -25.9548  -11.6990   20.5678 N   0  0  0  0  0  0
  -22.0351  -12.8040   22.0489 N   0  0  0  0  0  0
  -25.3555  -15.2242   20.4383 N   0  0  0  0  0  0
  -31.2063  -16.3142   20.2293 O   0  0  0  0  0  0
  -21.6677   -6.8928   21.4248 O   0  0  0  0  0  0
  -22.3283  -14.5375   20.6771 O   0  0  0  0  0  0
  -24.7449  -31.7216   23.0979 C   0  0  0  0  0  0
  -25.9712  -32.4091   23.7768 C   0  0  1  0  0  0
  -27.2626  -26.0606   20.2671 C   0  0  0  0  0  0
  -25.6018  -33.7953   24.1581 N   0  0  0  0  0  0
  -23.5996  -30.2922   21.4680 C   0  0  2  0  0  0
  -25.0624  -28.4936   20.1392 C   0  0  0  0  0  0
  -22.8035  -29.3895   22.4550 C   0  0  0  0  0  0
  -18.0376  -28.1454   22.8421 C   0  0  0  0  0  0
  -24.1496  -36.6992   23.2671 C   0  0  0  0  0  0
  -26.1999  -30.2411   21.4589 C   0  0  0  0  0  0
  -26.2597  -28.7329   20.8212 C   0  0  0  0  0  0
  -27.3097  -27.5690   20.8335 C   0  0  0  0  0  0
  -26.0272  -26.1946   19.5192 C   0  0  0  0  0  0
  -25.0234  -27.2541   19.4619 C   0  0  0  0  0  0
  -23.8874  -29.5253   20.1333 C   0  0  0  0  0  0
  -25.4170  -36.2677   24.0236 C   0  0  1  0  0  0
  -20.6038  -28.3836   23.1031 C   0  0  2  0  0  0
  -20.6806  -26.9436   22.5420 C   0  0  0  0  0  0
  -19.5796  -26.6348   21.5224 C   0  0  0  0  0  0
  -18.1977  -26.7969   22.1607 C   0  0  0  0  0  0
  -19.1657  -28.8984   23.2686 C   0  0  0  0  0  0
  -18.9553  -30.1552   23.8759 C   0  0  0  0  0  0
  -17.6536  -30.6619   24.0537 C   0  0  0  0  0  0
  -25.9187  -34.9084   23.4798 C   0  0  0  0  0  0
  -16.5422  -29.9090   23.6366 C   0  0  0  0  0  0
  -16.7352  -28.6518   23.0376 C   0  0  0  0  0  0
  -26.4693  -31.6408   25.0652 C   0  0  0  0  0  0
  -25.3596  -31.3898   26.1149 C   0  0  0  0  0  0
  -27.0730  -30.2690   24.7003 C   0  0  0  0  0  0
  -27.6017  -32.4426   25.7501 C   0  0  0  0  0  0
  -27.5543  -37.1648   24.8466 C   0  0  0  0  0  0
  -21.4628  -29.2949   22.3282 N   0  0  0  0  0  0
  -26.4242  -37.3509   23.9408 N   0  0  0  0  0  0
  -24.8802  -30.8007   22.0600 N   0  0  0  0  0  0
  -23.4175  -28.7613   23.3197 O   0  0  0  0  0  0
  -28.1668  -24.5661   20.3212 O   0  0  0  0  0  0
  -26.5925  -34.8791   22.4483 O   0  0  0  0  0  0
  -23.6336  -32.0588   23.5524 O   0  0  0  0  0  0
  -29.2006  -20.3375   20.3201 C   0  0  0  0  0  0
  -28.2004  -22.4649   20.2188 C   0  0  0  0  0  0
  -29.3170  -18.2279   20.2702 N   0  0  0  0  0  0
  -31.2155  -14.1817   19.0448 H   0  0  0  0  0  0
  -30.7050  -13.1434   20.3066 H   0  0  0  0  0  0
  -30.2109  -12.1390   18.0541 H   0  0  0  0  0  0
  -29.3823  -13.5901   17.5547 H   0  0  0  0  0  0
  -28.4305  -11.4738   19.4819 H   0  0  0  0  0  0
  -27.5913  -12.1016   18.0755 H   0  0  0  0  0  0
  -27.3204  -14.2160   19.1091 H   0  0  0  0  0  0
  -28.9720  -13.4238   21.5512 H   0  0  0  0  0  0
  -27.9168  -14.7884   21.4973 H   0  0  0  0  0  0
  -25.2871   -9.5690   22.4748 H   0  0  0  0  0  0
  -24.0047   -7.4683   22.7489 H   0  0  0  0  0  0
  -21.0938   -8.8851   19.8945 H   0  0  0  0  0  0
  -22.3854  -10.9697   19.6127 H   0  0  0  0  0  0
  -21.2035   -7.6165   23.9725 H   0  0  0  0  0  0
  -21.1486   -6.0529   25.9075 H   0  0  0  0  0  0
  -22.0587   -2.7625   23.2829 H   0  0  0  0  0  0
  -22.4039  -11.9742   22.4895 H   0  0  0  0  0  0
  -21.0937  -13.0980   22.2674 H   0  0  0  0  0  0
  -24.5768  -15.8638   20.5540 H   0  0  0  0  0  0
  -26.2060  -15.6839   20.1380 H   0  0  0  0  0  0
  -26.7876  -32.4443   23.0543 H   0  0  0  0  0  0
  -24.9961  -33.8879   24.9601 H   0  0  0  0  0  0
  -22.9629  -31.1444   21.2211 H   0  0  0  0  0  0
  -23.3792  -35.9283   23.3224 H   0  0  0  0  0  0
  -24.3542  -36.8804   22.2107 H   0  0  0  0  0  0
  -23.7229  -37.6104   23.6874 H   0  0  0  0  0  0
  -26.4659  -30.9211   20.6487 H   0  0  0  0  0  0
  -27.0298  -30.3291   22.1459 H   0  0  0  0  0  0
  -28.1985  -27.7908   21.4071 H   0  0  0  0  0  0
  -25.7596  -25.3099   18.9588 H   0  0  0  0  0  0
  -24.1415  -27.0455   18.8719 H   0  0  0  0  0  0
  -24.1127  -30.2559   19.3556 H   0  0  0  0  0  0
  -22.9802  -29.0216   19.7958 H   0  0  0  0  0  0
  -25.1411  -36.1346   25.0723 H   0  0  0  0  0  0
  -21.0093  -28.3507   24.1170 H   0  0  0  0  0  0
  -20.5606  -26.2478   23.3738 H   0  0  0  0  0  0
  -21.6663  -26.7276   22.1281 H   0  0  0  0  0  0
  -19.6940  -25.6222   21.1342 H   0  0  0  0  0  0
  -19.6763  -27.3084   20.6699 H   0  0  0  0  0  0
  -17.4253  -26.6718   21.4002 H   0  0  0  0  0  0
  -18.0338  -26.0144   22.9029 H   0  0  0  0  0  0
  -19.8031  -30.7398   24.2071 H   0  0  0  0  0  0
  -17.5087  -31.6284   24.5168 H   0  0  0  0  0  0
  -15.5417  -30.2952   23.7771 H   0  0  0  0  0  0
  -15.8752  -28.0794   22.7169 H   0  0  0  0  0  0
  -24.5845  -30.7190   25.7424 H   0  0  0  0  0  0
  -24.8725  -32.3171   26.4173 H   0  0  0  0  0  0
  -25.7627  -30.9316   27.0189 H   0  0  0  0  0  0
  -26.3552  -29.6093   24.2123 H   0  0  0  0  0  0
  -27.4038  -29.7408   25.5956 H   0  0  0  0  0  0
  -27.9570  -30.3690   24.0706 H   0  0  0  0  0  0
  -27.2476  -33.3875   26.1635 H   0  0  0  0  0  0
  -28.4042  -32.6752   25.0488 H   0  0  0  0  0  0
  -28.0450  -31.8868   26.5774 H   0  0  0  0  0  0
  -28.2488  -38.0006   24.7515 H   0  0  0  0  0  0
  -28.1107  -36.2518   24.6291 H   0  0  0  0  0  0
  -27.2256  -37.1265   25.8866 H   0  0  0  0  0  0
  -21.0089  -29.8498   21.6159 H   0  0  0  0  0  0
  -26.0011  -38.2526   24.1435 H   0  0  0  0  0  0
  -30.0015  -20.5173   19.6027 H   0  0  0  0  0  0
  -29.6902  -20.4553   21.2869 H   0  0  0  0  0  0
  -27.7199  -22.3753   19.2446 H   0  0  0  0  0  0
  -27.3860  -22.2933   20.9225 H   0  0  0  0  0  0
  -30.3181  -18.3884   20.2986 H   0  0  0  0  0  0
  1 25  1  0  0  0
  1 30  2  0  0  0
  1 73  1  0  0  0
  2  3  1  0  0  0
  2 25  1  0  0  0
  2 74  1  0  0  0
  2 75  1  0  0  0
  3  4  1  0  0  0
  3 76  1  0  0  0
  3 77  1  0  0  0
  4  5  1  0  0  0
  4 78  1  0  0  0
  4 79  1  0  0  0
  5  6  1  0  0  0
  5 26  1  0  0  0
  5 80  1  0  0  0
  6 25  1  0  0  0
  6 81  1  0  0  0
  6 82  1  0  0  0
  7  8  2  0  0  0
  7 26  1  0  0  0
  7 29  1  0  0  0
  8  9  1  0  0  0
  8 22  1  0  0  0
  9 10  1  0  0  0
  9 27  2  0  0  0
 10 11  2  0  0  0
 10 15  1  0  0  0
 11 12  1  0  0  0
 11 83  1  0  0  0
 12 13  2  0  0  0
 12 84  1  0  0  0
 13 14  1  0  0  0
 13 31  1  0  0  0
 14 15  2  0  0  0
 14 85  1  0  0  0
 15 86  1  0  0  0
 16 17  2  0  0  0
 16 21  1  0  0  0
 16 31  1  0  0  0
 17 18  1  0  0  0
 17 87  1  0  0  0
 18 19  2  0  0  0
 18 88  1  0  0  0
 19 20  1  0  0  0
 19 24  1  0  0  0
 20 21  2  0  0  0
 20 89  1  0  0  0
 21 23  1  0  0  0
 22 28  1  0  0  0
 22 32  2  0  0  0
 26 27  1  0  0  0
 28 90  1  0  0  0
 28 91  1  0  0  0
 29 92  1  0  0  0
 29 93  1  0  0  0
 33 34  1  0  0  0
 33 66  1  0  0  0
 33 70  2  0  0  0
 34 36  1  0  0  0
 34 59  1  0  0  0
 34 94  1  0  0  0
 35 44  2  0  0  0
 35 45  1  0  0  0
 35 68  1  0  0  0
 36 56  1  0  0  0
 36 95  1  0  0  0
 37 39  1  0  0  0
 37 47  1  0  0  0
 37 66  1  0  0  0
 37 96  1  0  0  0
 38 43  2  0  0  0
 38 46  1  0  0  0
 38 47  1  0  0  0
 39 64  1  0  0  0
 39 67  2  0  0  0
 40 52  1  0  0  0
 40 53  2  0  0  0
 40 58  1  0  0  0
 41 97  1  0  0  0
 41 98  1  0  0  0
 41 99  1  0  0  0
 41 48  1  0  0  0
 42 43  1  0  0  0
 42 66  1  0  0  0
 42100  1  0  0  0
 42101  1  0  0  0
 43 44  1  0  0  0
 44102  1  0  0  0
 45 46  2  0  0  0
 45103  1  0  0  0
 46104  1  0  0  0
 47105  1  0  0  0
 47106  1  0  0  0
 48 56  1  0  0  0
 48 65  1  0  0  0
 48107  1  0  0  0
 49 50  1  0  0  0
 49 53  1  0  0  0
 49 64  1  0  0  0
 49108  1  0  0  0
 50 51  1  0  0  0
 50109  1  0  0  0
 50110  1  0  0  0
 51 52  1  0  0  0
 51111  1  0  0  0
 51112  1  0  0  0
 52113  1  0  0  0
 52114  1  0  0  0
 53 54  1  0  0  0
 54 55  2  0  0  0
 54115  1  0  0  0
 55 57  1  0  0  0
 55116  1  0  0  0
 56 69  2  0  0  0
 57 58  2  0  0  0
 57117  1  0  0  0
 58118  1  0  0  0
 59 60  1  0  0  0
 59 61  1  0  0  0
 59 62  1  0  0  0
 60119  1  0  0  0
 60120  1  0  0  0
 60121  1  0  0  0
 61122  1  0  0  0
 61123  1  0  0  0
 61124  1  0  0  0
 62125  1  0  0  0
 62126  1  0  0  0
 62127  1  0  0  0
 63 65  1  0  0  0
 63128  1  0  0  0
 63129  1  0  0  0
 63130  1  0  0  0
 64131  1  0  0  0
 65132  1  0  0  0
 68 72  1  0  0  0
 71 72  1  0  0  0
 71 73  1  0  0  0
 71133  1  0  0  0
 71134  1  0  0  0
 72135  1  0  0  0
 72136  1  0  0  0
 73137  1  0  0  0
M  ISO  4   1 100  68 101  72 101  73 100
M  END
> <chiral flag>
0

> <version>
0

> <s_m_source_file>
/data/baiqing/PycharmProjects/Reinvent-master-3.2/result/LINK_invent/BTK/process_docking_weight1_custom_product_contain_oxygen_bond_distance_aromatic_linkinvent_7_9_3/rearranged_h_0000.sdf

> <i_m_source_file_index>
20

> <r_mmod_Potential_Energy-OPLS-2005>
6948.9697265625

> <r_mmod_Stretch_Energy-OPLS-2005>
3136.46411132812

> <r_mmod_Bend_Energy-OPLS-2005>
1268.50207519531

> <r_mmod_Torsional_Energy-OPLS-2005>
217.324829101562

> <r_mmod_Improper_Torsional_Energy-OPLS-2005>
4.82364273071289

> <r_mmod_Van_der_Waal_Energy-OPLS-2005>
120.95548248291

> <r_mmod_Electrostatic_Energy-OPLS-2005>
-391.247985839844

> <r_mmod_Solvation_Energy-OPLS-2005>
-221.174652099609

> <b_mmod_Minimization_Converged-OPLS-2005>
1

> <r_mmod_RMS_Derivative-OPLS-2005>
0.042349461466074

$$$$
20
                    3D
 Structure written by MMmdl.
146154  0  0  1  0            999 V2000
  -30.4098  -15.3368   20.3736 C   0  0  0  0  0  0
  -30.4408  -12.8687   19.5077 C   0  0  0  0  0  0
  -29.5353  -12.5850   18.2819 C   0  0  0  0  0  0
  -28.0893  -12.2926   18.7204 C   0  0  0  0  0  0
  -27.6067  -13.2774   19.8133 C   0  0  2  0  0  0
  -28.6433  -13.4856   20.9367 C   0  0  0  0  0  0
  -25.2381  -13.8241   20.5754 C   0  0  0  0  0  0
  -24.1739  -13.0428   20.9269 C   0  0  0  0  0  0
  -24.6400  -11.6927   20.8765 C   0  0  0  0  0  0
  -23.9095  -10.4288   21.0407 C   0  0  0  0  0  0
  -24.3638   -9.4202   21.9186 C   0  0  0  0  0  0
  -23.6304   -8.2241   22.0754 C   0  0  0  0  0  0
  -22.4286   -8.0282   21.3545 C   0  0  0  0  0  0
  -21.9928   -9.0256   20.4645 C   0  0  0  0  0  0
  -22.7265  -10.2131   20.3055 C   0  0  0  0  0  0
  -21.6855   -6.0738   22.5279 C   0  0  0  0  0  0
  -21.4016   -6.5641   23.8213 C   0  0  0  0  0  0
  -21.3660   -5.6793   24.9175 C   0  0  0  0  0  0
  -21.6044   -4.3056   24.7225 C   0  0  0  0  0  0
  -21.8819   -3.8148   23.4346 C   0  0  0  0  0  0
  -21.9193   -4.6965   22.3402 C   0  0  0  0  0  0
  -22.7755  -13.5180   21.1912 C   0  0  0  0  0  0
  -22.1662   -4.2151   21.0980 F   0  0  0  0  0  0
  -21.5628   -3.4539   25.7738 F   0  0  0  0  0  0
  -29.8543  -14.0215   20.2892 N   0  0  0  0  0  0
  -26.2805  -12.9519   20.3203 N   0  0  0  0  0  0
  -25.9336  -11.6622   20.5711 N   0  0  0  0  0  0
  -22.0414  -12.8161   22.0465 N   0  0  0  0  0  0
  -25.3995  -15.1978   20.4190 N   0  0  0  0  0  0
  -31.6452  -15.3236   20.2628 O   0  0  0  0  0  0
  -21.6644   -6.8882   21.4242 O   0  0  0  0  0  0
  -22.3435  -14.5481   20.6751 O   0  0  0  0  0  0
  -24.6676  -31.8201   23.1685 C   0  0  0  0  0  0
  -25.9338  -32.4572   23.8162 C   0  0  1  0  0  0
  -27.2180  -26.8797   20.1993 C   0  0  0  0  0  0
  -25.5988  -33.8388   24.2061 N   0  0  0  0  0  0
  -23.4850  -30.4306   21.5193 C   0  0  2  0  0  0
  -24.9397  -28.8067   20.1238 C   0  0  0  0  0  0
  -22.7690  -29.4425   22.4779 C   0  0  0  0  0  0
  -18.0327  -28.1412   22.8464 C   0  0  0  0  0  0
  -24.1494  -36.7198   23.2646 C   0  0  0  0  0  0
  -26.0581  -30.6102   21.4086 C   0  0  0  0  0  0
  -26.1264  -29.1921   20.7618 C   0  0  0  0  0  0
  -27.2620  -28.2521   20.7740 C   0  0  0  0  0  0
  -26.0007  -26.6626   19.5139 C   0  0  0  0  0  0
  -24.9036  -27.5611   19.4801 C   0  0  0  0  0  0
  -23.7300  -29.7426   20.1490 C   0  0  0  0  0  0
  -25.4136  -36.2957   24.0296 C   0  0  1  0  0  0
  -20.5954  -28.3762   23.1178 C   0  0  2  0  0  0
  -20.6803  -26.9439   22.5400 C   0  0  0  0  0  0
  -19.5775  -26.6378   21.5213 C   0  0  0  0  0  0
  -18.1959  -26.7944   22.1622 C   0  0  0  0  0  0
  -19.1589  -28.8909   23.2806 C   0  0  0  0  0  0
  -18.9497  -30.1497   23.8844 C   0  0  0  0  0  0
  -17.6489  -30.6599   24.0554 C   0  0  0  0  0  0
  -25.9106  -34.9341   23.5001 C   0  0  0  0  0  0
  -16.5380  -29.9084   23.6345 C   0  0  0  0  0  0
  -16.7308  -28.6506   23.0363 C   0  0  0  0  0  0
  -26.4571  -31.6530   25.0707 C   0  0  0  0  0  0
  -25.3683  -31.3795   26.1352 C   0  0  0  0  0  0
  -27.0477  -30.2889   24.6478 C   0  0  0  0  0  0
  -27.6052  -32.4351   25.7515 C   0  0  0  0  0  0
  -27.5571  -37.1755   24.8464 C   0  0  0  0  0  0
  -21.4356  -29.3046   22.3523 N   0  0  0  0  0  0
  -26.4277  -37.3698   23.9410 N   0  0  0  0  0  0
  -24.7586  -30.9817   22.0853 N   0  0  0  0  0  0
  -23.4215  -28.7995   23.3038 O   0  0  0  0  0  0
  -28.1994  -25.7389   20.1495 O   0  0  0  0  0  0
  -26.5719  -34.8882   22.4600 O   0  0  0  0  0  0
  -23.5734  -32.1195   23.6744 O   0  0  0  0  0  0
  -29.6170  -21.3581   18.1505 C   0  0  0  0  0  0
  -29.1631  -22.5601   18.7722 C   0  0  0  0  0  0
  -29.7001  -20.0783   18.7767 C   0  0  0  0  0  0
  -28.8431  -21.1896   20.7292 C   0  0  0  0  0  0
  -28.7045  -22.6131   20.1073 C   0  0  0  0  0  0
  -29.3522  -19.8473   20.1260 C   0  0  0  0  0  0
  -28.0129  -24.1129   20.6519 C   0  0  0  0  0  0
  -29.7602  -18.2554   20.7923 C   0  0  0  0  0  0
  -29.6303  -16.6179   20.3805 N   0  0  0  0  0  0
  -27.2051  -23.9643   21.5715 O   0  0  0  0  0  0
  -31.4487  -13.1014   19.1614 H   0  0  0  0  0  0
  -30.5422  -11.9803   20.1333 H   0  0  0  0  0  0
  -29.9292  -11.7501   17.7008 H   0  0  0  0  0  0
  -29.5448  -13.4517   17.6192 H   0  0  0  0  0  0
  -28.0630  -11.2746   19.1108 H   0  0  0  0  0  0
  -27.4169  -12.3093   17.8618 H   0  0  0  0  0  0
  -27.5079  -14.2338   19.2983 H   0  0  0  0  0  0
  -28.8386  -12.5610   21.4820 H   0  0  0  0  0  0
  -28.2711  -14.2060   21.6669 H   0  0  0  0  0  0
  -25.2778   -9.5677   22.4767 H   0  0  0  0  0  0
  -24.0008   -7.4631   22.7476 H   0  0  0  0  0  0
  -21.0859   -8.8781   19.8950 H   0  0  0  0  0  0
  -22.3724  -10.9673   19.6167 H   0  0  0  0  0  0
  -21.2009   -7.6149   23.9717 H   0  0  0  0  0  0
  -21.1482   -6.0523   25.9078 H   0  0  0  0  0  0
  -22.0597   -2.7610   23.2846 H   0  0  0  0  0  0
  -22.4048  -11.9832   22.4857 H   0  0  0  0  0  0
  -21.1023  -13.1164   22.2665 H   0  0  0  0  0  0
  -24.6268  -15.8449   20.5336 H   0  0  0  0  0  0
  -26.2366  -15.6421   20.0669 H   0  0  0  0  0  0
  -26.7411  -32.5101   23.0878 H   0  0  0  0  0  0
  -25.0077  -33.9461   25.0173 H   0  0  0  0  0  0
  -22.8008  -31.2634   21.3440 H   0  0  0  0  0  0
  -23.3773  -35.9510   23.3264 H   0  0  0  0  0  0
  -24.3572  -36.8893   22.2070 H   0  0  0  0  0  0
  -23.7233  -37.6364   23.6735 H   0  0  0  0  0  0
  -26.2416  -31.3445   20.6231 H   0  0  0  0  0  0
  -26.9169  -30.6735   22.0646 H   0  0  0  0  0  0
  -28.1665  -28.5534   21.2832 H   0  0  0  0  0  0
  -25.8716  -25.7155   19.0094 H   0  0  0  0  0  0
  -24.0056  -27.2593   18.9587 H   0  0  0  0  0  0
  -23.8942  -30.5086   19.3903 H   0  0  0  0  0  0
  -22.8383  -29.2015   19.8273 H   0  0  0  0  0  0
  -25.1335  -36.1746   25.0786 H   0  0  0  0  0  0
  -21.0040  -28.3371   24.1302 H   0  0  0  0  0  0
  -20.5682  -26.2382   23.3644 H   0  0  0  0  0  0
  -21.6665  -26.7411   22.1207 H   0  0  0  0  0  0
  -19.6934  -25.6274   21.1278 H   0  0  0  0  0  0
  -19.6713  -27.3158   20.6719 H   0  0  0  0  0  0
  -17.4226  -26.6684   21.4028 H   0  0  0  0  0  0
  -18.0355  -26.0099   22.9032 H   0  0  0  0  0  0
  -19.7972  -30.7328   24.2189 H   0  0  0  0  0  0
  -17.5040  -31.6274   24.5167 H   0  0  0  0  0  0
  -15.5377  -30.2968   23.7700 H   0  0  0  0  0  0
  -15.8709  -28.0806   22.7109 H   0  0  0  0  0  0
  -24.5885  -30.7124   25.7658 H   0  0  0  0  0  0
  -24.8851  -32.3000   26.4635 H   0  0  0  0  0  0
  -25.7901  -30.9055   27.0223 H   0  0  0  0  0  0
  -26.3159  -29.6551   24.1459 H   0  0  0  0  0  0
  -27.3959  -29.7272   25.5156 H   0  0  0  0  0  0
  -27.9120  -30.4055   23.9938 H   0  0  0  0  0  0
  -27.2612  -33.3700   26.1951 H   0  0  0  0  0  0
  -28.3938  -32.6834   25.0400 H   0  0  0  0  0  0
  -28.0636  -31.8573   26.5551 H   0  0  0  0  0  0
  -28.2558  -38.0079   24.7525 H   0  0  0  0  0  0
  -28.1098  -36.2605   24.6274 H   0  0  0  0  0  0
  -27.2288  -37.1373   25.8866 H   0  0  0  0  0  0
  -20.9622  -29.8729   21.6638 H   0  0  0  0  0  0
  -26.0120  -38.2752   24.1428 H   0  0  0  0  0  0
  -29.9295  -21.4236   17.1170 H   0  0  0  0  0  0
  -29.1306  -23.4643   18.1791 H   0  0  0  0  0  0
  -30.0944  -19.2520   18.2006 H   0  0  0  0  0  0
  -28.5397  -21.1315   21.7654 H   0  0  0  0  0  0
  -29.2972  -18.2876   21.7789 H   0  0  0  0  0  0
  -30.8236  -18.3584   21.0109 H   0  0  0  0  0  0
  -28.6552  -16.3885   20.2592 H   0  0  0  0  0  0
  1 25  1  0  0  0
  1 30  2  0  0  0
  1 79  1  0  0  0
  2  3  1  0  0  0
  2 25  1  0  0  0
  2 81  1  0  0  0
  2 82  1  0  0  0
  3  4  1  0  0  0
  3 83  1  0  0  0
  3 84  1  0  0  0
  4  5  1  0  0  0
  4 85  1  0  0  0
  4 86  1  0  0  0
  5  6  1  0  0  0
  5 26  1  0  0  0
  5 87  1  0  0  0
  6 25  1  0  0  0
  6 88  1  0  0  0
  6 89  1  0  0  0
  7  8  2  0  0  0
  7 26  1  0  0  0
  7 29  1  0  0  0
  8  9  1  0  0  0
  8 22  1  0  0  0
  9 10  1  0  0  0
  9 27  2  0  0  0
 10 11  2  0  0  0
 10 15  1  0  0  0
 11 12  1  0  0  0
 11 90  1  0  0  0
 12 13  2  0  0  0
 12 91  1  0  0  0
 13 14  1  0  0  0
 13 31  1  0  0  0
 14 15  2  0  0  0
 14 92  1  0  0  0
 15 93  1  0  0  0
 16 17  2  0  0  0
 16 21  1  0  0  0
 16 31  1  0  0  0
 17 18  1  0  0  0
 17 94  1  0  0  0
 18 19  2  0  0  0
 18 95  1  0  0  0
 19 20  1  0  0  0
 19 24  1  0  0  0
 20 21  2  0  0  0
 20 96  1  0  0  0
 21 23  1  0  0  0
 22 28  1  0  0  0
 22 32  2  0  0  0
 26 27  1  0  0  0
 28 97  1  0  0  0
 28 98  1  0  0  0
 29 99  1  0  0  0
 29100  1  0  0  0
 33 34  1  0  0  0
 33 66  1  0  0  0
 33 70  2  0  0  0
 34 36  1  0  0  0
 34 59  1  0  0  0
 34101  1  0  0  0
 35 44  2  0  0  0
 35 45  1  0  0  0
 35 68  1  0  0  0
 36 56  1  0  0  0
 36102  1  0  0  0
 37 39  1  0  0  0
 37 47  1  0  0  0
 37 66  1  0  0  0
 37103  1  0  0  0
 38 43  2  0  0  0
 38 46  1  0  0  0
 38 47  1  0  0  0
 39 64  1  0  0  0
 39 67  2  0  0  0
 40 52  1  0  0  0
 40 53  2  0  0  0
 40 58  1  0  0  0
 41104  1  0  0  0
 41105  1  0  0  0
 41106  1  0  0  0
 41 48  1  0  0  0
 42 43  1  0  0  0
 42 66  1  0  0  0
 42107  1  0  0  0
 42108  1  0  0  0
 43 44  1  0  0  0
 44109  1  0  0  0
 45 46  2  0  0  0
 45110  1  0  0  0
 46111  1  0  0  0
 47112  1  0  0  0
 47113  1  0  0  0
 48 56  1  0  0  0
 48 65  1  0  0  0
 48114  1  0  0  0
 49 50  1  0  0  0
 49 53  1  0  0  0
 49 64  1  0  0  0
 49115  1  0  0  0
 50 51  1  0  0  0
 50116  1  0  0  0
 50117  1  0  0  0
 51 52  1  0  0  0
 51118  1  0  0  0
 51119  1  0  0  0
 52120  1  0  0  0
 52121  1  0  0  0
 53 54  1  0  0  0
 54 55  2  0  0  0
 54122  1  0  0  0
 55 57  1  0  0  0
 55123  1  0  0  0
 56 69  2  0  0  0
 57 58  2  0  0  0
 57124  1  0  0  0
 58125  1  0  0  0
 59 60  1  0  0  0
 59 61  1  0  0  0
 59 62  1  0  0  0
 60126  1  0  0  0
 60127  1  0  0  0
 60128  1  0  0  0
 61129  1  0  0  0
 61130  1  0  0  0
 61131  1  0  0  0
 62132  1  0  0  0
 62133  1  0  0  0
 62134  1  0  0  0
 63 65  1  0  0  0
 63135  1  0  0  0
 63136  1  0  0  0
 63137  1  0  0  0
 64138  1  0  0  0
 65139  1  0  0  0
 68 77  1  0  0  0
 71 72  2  0  0  0
 71 73  1  0  0  0
 71140  1  0  0  0
 72 75  1  0  0  0
 72141  1  0  0  0
 73 76  2  0  0  0
 73142  1  0  0  0
 74 75  2  0  0  0
 74 76  1  0  0  0
 74143  1  0  0  0
 75 77  1  0  0  0
 76 78  1  0  0  0
 77 80  2  0  0  0
 78 79  1  0  0  0
 78144  1  0  0  0
 78145  1  0  0  0
 79146  1  0  0  0
M  ISO  4   1 100  68 101  77 101  79 100
M  END
> <chiral flag>
0

> <version>
0

> <s_m_source_file>
/data/baiqing/PycharmProjects/Reinvent-master-3.2/result/LINK_invent/BTK/process_docking_weight1_custom_product_contain_oxygen_bond_distance_aromatic_linkinvent_7_9_3/rearranged_h_0000.sdf

> <i_m_source_file_index>
21

> <r_mmod_Potential_Energy-OPLS-2005>
1455.11975097656

> <r_mmod_Stretch_Energy-OPLS-2005>
686.045471191406

> <r_mmod_Bend_Energy-OPLS-2005>
446.300048828125

> <r_mmod_Torsional_Energy-OPLS-2005>
232.818740844727

> <r_mmod_Improper_Torsional_Energy-OPLS-2005>
6.18646001815796

> <r_mmod_Van_der_Waal_Energy-OPLS-2005>
120.808937072754

> <r_mmod_Electrostatic_Energy-OPLS-2005>
-350.542907714844

> <r_mmod_Solvation_Energy-OPLS-2005>
-223.631927490234

> <b_mmod_Minimization_Converged-OPLS-2005>
0

> <r_mmod_RMS_Derivative-OPLS-2005>
0.0672496855258942

$$$$
21
                    3D
 Structure written by MMmdl.
158165  0  0  1  0            999 V2000
  -30.7658  -14.3889   20.6360 C   0  0  0  0  0  0
  -30.4074  -12.2785   19.4144 C   0  0  0  0  0  0
  -29.4903  -12.5247   18.1997 C   0  0  0  0  0  0
  -28.0096  -12.3990   18.6040 C   0  0  0  0  0  0
  -27.6673  -13.2142   19.8803 C   0  0  2  0  0  0
  -28.7046  -12.9686   21.0009 C   0  0  0  0  0  0
  -25.2610  -13.8184   20.5647 C   0  0  0  0  0  0
  -24.1858  -13.0456   20.9146 C   0  0  0  0  0  0
  -24.6424  -11.6929   20.8746 C   0  0  0  0  0  0
  -23.9089  -10.4310   21.0422 C   0  0  0  0  0  0
  -24.3632   -9.4216   21.9193 C   0  0  0  0  0  0
  -23.6297   -8.2260   22.0762 C   0  0  0  0  0  0
  -22.4270   -8.0312   21.3575 C   0  0  0  0  0  0
  -21.9914   -9.0289   20.4670 C   0  0  0  0  0  0
  -22.7263  -10.2147   20.3065 C   0  0  0  0  0  0
  -21.6865   -6.0758   22.5298 C   0  0  0  0  0  0
  -21.4021   -6.5664   23.8236 C   0  0  0  0  0  0
  -21.3647   -5.6804   24.9185 C   0  0  0  0  0  0
  -21.6029   -4.3063   24.7226 C   0  0  0  0  0  0
  -21.8820   -3.8171   23.4356 C   0  0  0  0  0  0
  -21.9192   -4.6994   22.3407 C   0  0  0  0  0  0
  -22.7896  -13.5264   21.1841 C   0  0  0  0  0  0
  -22.1674   -4.2188   21.0981 F   0  0  0  0  0  0
  -21.5602   -3.4532   25.7736 F   0  0  0  0  0  0
  -30.0476  -13.2474   20.4604 N   0  0  0  0  0  0
  -26.3053  -12.9366   20.3350 N   0  0  0  0  0  0
  -25.9345  -11.6514   20.5746 N   0  0  0  0  0  0
  -22.0528  -12.8243   22.0385 N   0  0  0  0  0  0
  -25.4334  -15.1903   20.4105 N   0  0  0  0  0  0
  -31.8181  -14.6281   20.0402 O   0  0  0  0  0  0
  -21.6647   -6.8898   21.4256 O   0  0  0  0  0  0
  -22.3575  -14.5598   20.6747 O   0  0  0  0  0  0
  -24.6101  -31.8715   23.2139 C   0  0  0  0  0  0
  -25.9010  -32.4844   23.8419 C   0  0  1  0  0  0
  -27.2304  -27.4522   20.0946 C   0  0  0  0  0  0
  -25.5879  -33.8642   24.2359 N   0  0  0  0  0  0
  -23.3960  -30.4948   21.5544 C   0  0  2  0  0  0
  -24.8404  -28.9644   20.1208 C   0  0  0  0  0  0
  -22.7356  -29.4691   22.5019 C   0  0  0  0  0  0
  -18.0253  -28.1394   22.8486 C   0  0  0  0  0  0
  -24.1489  -36.7329   23.2643 C   0  0  0  0  0  0
  -25.9212  -30.8438   21.3623 C   0  0  0  0  0  0
  -25.9996  -29.4780   20.7130 C   0  0  0  0  0  0
  -27.1971  -28.7292   20.6948 C   0  0  0  0  0  0
  -26.0461  -26.9464   19.5050 C   0  0  0  0  0  0
  -24.8574  -27.6953   19.5186 C   0  0  0  0  0  0
  -23.6038  -29.8301   20.1683 C   0  0  0  0  0  0
  -25.4106  -36.3135   24.0358 C   0  0  1  0  0  0
  -20.5828  -28.3668   23.1298 C   0  0  2  0  0  0
  -20.6728  -26.9382   22.5424 C   0  0  0  0  0  0
  -19.5700  -26.6354   21.5215 C   0  0  0  0  0  0
  -18.1898  -26.7920   22.1655 C   0  0  0  0  0  0
  -19.1504  -28.8837   23.2895 C   0  0  0  0  0  0
  -18.9473  -30.1463   23.8858 C   0  0  0  0  0  0
  -17.6481  -30.6617   24.0554 C   0  0  0  0  0  0
  -25.9029  -34.9498   23.5147 C   0  0  0  0  0  0
  -16.5367  -29.9126   23.6339 C   0  0  0  0  0  0
  -16.7258  -28.6546   23.0341 C   0  0  0  0  0  0
  -26.4436  -31.6599   25.0716 C   0  0  0  0  0  0
  -25.3739  -31.3674   26.1494 C   0  0  0  0  0  0
  -27.0236  -30.3066   24.5996 C   0  0  0  0  0  0
  -27.6022  -32.4286   25.7473 C   0  0  0  0  0  0
  -27.5581  -37.1820   24.8466 C   0  0  0  0  0  0
  -21.4087  -29.3057   22.3715 N   0  0  0  0  0  0
  -26.4307  -37.3794   23.9404 N   0  0  0  0  0  0
  -24.6609  -31.0829   22.1033 N   0  0  0  0  0  0
  -23.4132  -28.8227   23.3053 O   0  0  0  0  0  0
  -28.4214  -26.7587   20.0955 O   0  0  0  0  0  0
  -26.5578  -34.8930   22.4697 O   0  0  0  0  0  0
  -23.5302  -32.1467   23.7550 O   0  0  0  0  0  0
  -30.8032  -16.6265   21.6666 C   0  0  0  0  0  0
  -30.0066  -17.4124   22.7233 C   0  0  0  0  0  0
  -28.3843  -25.3277   20.1107 C   0  0  0  0  0  0
  -27.9345  -24.7756   21.4773 C   0  0  0  0  0  0
  -28.1748  -18.1294   21.3338 C   0  0  0  0  0  0
  -27.1010  -19.1651   21.7100 C   0  0  0  0  0  0
  -27.4055  -22.7646   22.6157 C   0  0  0  0  0  0
  -26.7461  -21.3890   22.4286 C   0  0  0  0  0  0
  -30.2482  -15.2873   21.4780 N   0  0  0  0  0  0
  -28.6015  -17.4062   22.4848 O   0  0  0  0  0  0
  -27.5942  -23.3981   21.3515 O   0  0  0  0  0  0
  -27.7040  -20.4209   22.0108 O   0  0  0  0  0  0
  -31.4545  -12.3509   19.1182 H   0  0  0  0  0  0
  -30.2767  -11.2628   19.7914 H   0  0  0  0  0  0
  -29.7224  -11.8254   17.3950 H   0  0  0  0  0  0
  -29.6777  -13.5220   17.7984 H   0  0  0  0  0  0
  -27.7996  -11.3426   18.7700 H   0  0  0  0  0  0
  -27.3646  -12.7129   17.7823 H   0  0  0  0  0  0
  -27.7166  -14.2687   19.6085 H   0  0  0  0  0  0
  -28.6574  -11.9347   21.3434 H   0  0  0  0  0  0
  -28.4595  -13.5680   21.8779 H   0  0  0  0  0  0
  -25.2789   -9.5683   22.4748 H   0  0  0  0  0  0
  -24.0037   -7.4633   22.7446 H   0  0  0  0  0  0
  -21.0869   -8.8814   19.8962 H   0  0  0  0  0  0
  -22.3768  -10.9680   19.6159 H   0  0  0  0  0  0
  -21.2035   -7.6184   23.9755 H   0  0  0  0  0  0
  -21.1443   -6.0531   25.9085 H   0  0  0  0  0  0
  -22.0608   -2.7644   23.2837 H   0  0  0  0  0  0
  -22.4168  -11.9919   22.4781 H   0  0  0  0  0  0
  -21.1157  -13.1310   22.2571 H   0  0  0  0  0  0
  -24.6752  -15.8507   20.5350 H   0  0  0  0  0  0
  -26.2984  -15.6303   20.1253 H   0  0  0  0  0  0
  -26.7092  -32.5561   23.1204 H   0  0  0  0  0  0
  -25.0030  -33.9781   25.0512 H   0  0  0  0  0  0
  -22.6840  -31.3118   21.4153 H   0  0  0  0  0  0
  -23.3746  -35.9659   23.3322 H   0  0  0  0  0  0
  -24.3596  -36.8909   22.2051 H   0  0  0  0  0  0
  -23.7252  -37.6548   23.6635 H   0  0  0  0  0  0
  -26.0240  -31.6055   20.5894 H   0  0  0  0  0  0
  -26.8156  -30.9024   21.9711 H   0  0  0  0  0  0
  -28.0959  -29.1251   21.1473 H   0  0  0  0  0  0
  -26.0144  -25.9838   19.0197 H   0  0  0  0  0  0
  -23.9650  -27.2922   19.0616 H   0  0  0  0  0  0
  -23.7141  -30.6060   19.4081 H   0  0  0  0  0  0
  -22.7275  -29.2498   19.8720 H   0  0  0  0  0  0
  -25.1284  -36.2002   25.0854 H   0  0  0  0  0  0
  -20.9891  -28.3229   24.1424 H   0  0  0  0  0  0
  -20.5602  -26.2251   23.3610 H   0  0  0  0  0  0
  -21.6611  -26.7407   22.1227 H   0  0  0  0  0  0
  -19.6846  -25.6250   21.1270 H   0  0  0  0  0  0
  -19.6652  -27.3143   20.6733 H   0  0  0  0  0  0
  -17.4137  -26.6615   21.4110 H   0  0  0  0  0  0
  -18.0347  -26.0112   22.9107 H   0  0  0  0  0  0
  -19.7981  -30.7257   24.2181 H   0  0  0  0  0  0
  -17.5108  -31.6305   24.5150 H   0  0  0  0  0  0
  -15.5386  -30.3040   23.7694 H   0  0  0  0  0  0
  -15.8663  -28.0877   22.7024 H   0  0  0  0  0  0
  -24.5943  -30.6961   25.7877 H   0  0  0  0  0  0
  -24.8897  -32.2806   26.4953 H   0  0  0  0  0  0
  -25.8157  -30.8882   27.0242 H   0  0  0  0  0  0
  -26.2729  -29.6882   24.1065 H   0  0  0  0  0  0
  -27.4075  -29.7227   25.4369 H   0  0  0  0  0  0
  -27.8537  -30.4433   23.9068 H   0  0  0  0  0  0
  -27.2658  -33.3587   26.2067 H   0  0  0  0  0  0
  -28.3831  -32.6835   25.0301 H   0  0  0  0  0  0
  -28.0682  -31.8392   26.5376 H   0  0  0  0  0  0
  -28.2621  -38.0097   24.7492 H   0  0  0  0  0  0
  -28.1059  -36.2630   24.6327 H   0  0  0  0  0  0
  -27.2290  -37.1508   25.8865 H   0  0  0  0  0  0
  -20.9228  -29.8741   21.6898 H   0  0  0  0  0  0
  -26.0211  -38.2877   24.1379 H   0  0  0  0  0  0
  -31.8503  -16.5537   21.9721 H   0  0  0  0  0  0
  -30.8015  -17.1641   20.7154 H   0  0  0  0  0  0
  -30.3767  -18.4353   22.8054 H   0  0  0  0  0  0
  -30.1733  -16.9517   23.6981 H   0  0  0  0  0  0
  -27.7738  -24.9237   19.3056 H   0  0  0  0  0  0
  -29.3912  -24.9687   19.9042 H   0  0  0  0  0  0
  -27.0649  -25.3227   21.8493 H   0  0  0  0  0  0
  -28.7350  -24.9156   22.2048 H   0  0  0  0  0  0
  -28.9949  -18.6094   20.7986 H   0  0  0  0  0  0
  -27.7358  -17.3974   20.6547 H   0  0  0  0  0  0
  -26.4948  -18.8077   22.5443 H   0  0  0  0  0  0
  -26.4299  -19.2956   20.8600 H   0  0  0  0  0  0
  -26.7483  -23.3755   23.2379 H   0  0  0  0  0  0
  -28.3573  -22.6684   23.1402 H   0  0  0  0  0  0
  -25.9108  -21.4697   21.7303 H   0  0  0  0  0  0
  -26.3306  -21.0636   23.3829 H   0  0  0  0  0  0
  -29.3893  -15.0652   21.9615 H   0  0  0  0  0  0
  1 25  1  0  0  0
  1 30  2  0  0  0
  1 79  1  0  0  0
  2  3  1  0  0  0
  2 25  1  0  0  0
  2 83  1  0  0  0
  2 84  1  0  0  0
  3  4  1  0  0  0
  3 85  1  0  0  0
  3 86  1  0  0  0
  4  5  1  0  0  0
  4 87  1  0  0  0
  4 88  1  0  0  0
  5  6  1  0  0  0
  5 26  1  0  0  0
  5 89  1  0  0  0
  6 25  1  0  0  0
  6 90  1  0  0  0
  6 91  1  0  0  0
  7  8  2  0  0  0
  7 26  1  0  0  0
  7 29  1  0  0  0
  8  9  1  0  0  0
  8 22  1  0  0  0
  9 10  1  0  0  0
  9 27  2  0  0  0
 10 11  2  0  0  0
 10 15  1  0  0  0
 11 12  1  0  0  0
 11 92  1  0  0  0
 12 13  2  0  0  0
 12 93  1  0  0  0
 13 14  1  0  0  0
 13 31  1  0  0  0
 14 15  2  0  0  0
 14 94  1  0  0  0
 15 95  1  0  0  0
 16 17  2  0  0  0
 16 21  1  0  0  0
 16 31  1  0  0  0
 17 18  1  0  0  0
 17 96  1  0  0  0
 18 19  2  0  0  0
 18 97  1  0  0  0
 19 20  1  0  0  0
 19 24  1  0  0  0
 20 21  2  0  0  0
 20 98  1  0  0  0
 21 23  1  0  0  0
 22 28  1  0  0  0
 22 32  2  0  0  0
 26 27  1  0  0  0
 28 99  1  0  0  0
 28100  1  0  0  0
 29101  1  0  0  0
 29102  1  0  0  0
 33 34  1  0  0  0
 33 66  1  0  0  0
 33 70  2  0  0  0
 34 36  1  0  0  0
 34 59  1  0  0  0
 34103  1  0  0  0
 35 44  2  0  0  0
 35 45  1  0  0  0
 35 68  1  0  0  0
 36 56  1  0  0  0
 36104  1  0  0  0
 37 39  1  0  0  0
 37 47  1  0  0  0
 37 66  1  0  0  0
 37105  1  0  0  0
 38 43  2  0  0  0
 38 46  1  0  0  0
 38 47  1  0  0  0
 39 64  1  0  0  0
 39 67  2  0  0  0
 40 52  1  0  0  0
 40 53  2  0  0  0
 40 58  1  0  0  0
 41106  1  0  0  0
 41107  1  0  0  0
 41108  1  0  0  0
 41 48  1  0  0  0
 42 43  1  0  0  0
 42 66  1  0  0  0
 42109  1  0  0  0
 42110  1  0  0  0
 43 44  1  0  0  0
 44111  1  0  0  0
 45 46  2  0  0  0
 45112  1  0  0  0
 46113  1  0  0  0
 47114  1  0  0  0
 47115  1  0  0  0
 48 56  1  0  0  0
 48 65  1  0  0  0
 48116  1  0  0  0
 49 50  1  0  0  0
 49 53  1  0  0  0
 49 64  1  0  0  0
 49117  1  0  0  0
 50 51  1  0  0  0
 50118  1  0  0  0
 50119  1  0  0  0
 51 52  1  0  0  0
 51120  1  0  0  0
 51121  1  0  0  0
 52122  1  0  0  0
 52123  1  0  0  0
 53 54  1  0  0  0
 54 55  2  0  0  0
 54124  1  0  0  0
 55 57  1  0  0  0
 55125  1  0  0  0
 56 69  2  0  0  0
 57 58  2  0  0  0
 57126  1  0  0  0
 58127  1  0  0  0
 59 60  1  0  0  0
 59 61  1  0  0  0
 59 62  1  0  0  0
 60128  1  0  0  0
 60129  1  0  0  0
 60130  1  0  0  0
 61131  1  0  0  0
 61132  1  0  0  0
 61133  1  0  0  0
 62134  1  0  0  0
 62135  1  0  0  0
 62136  1  0  0  0
 63 65  1  0  0  0
 63137  1  0  0  0
 63138  1  0  0  0
 63139  1  0  0  0
 64140  1  0  0  0
 65141  1  0  0  0
 68 73  1  0  0  0
 71 72  1  0  0  0
 71 79  1  0  0  0
 71142  1  0  0  0
 71143  1  0  0  0
 72 80  1  0  0  0
 72144  1  0  0  0
 72145  1  0  0  0
 73 74  1  0  0  0
 73146  1  0  0  0
 73147  1  0  0  0
 74 81  1  0  0  0
 74148  1  0  0  0
 74149  1  0  0  0
 75 76  1  0  0  0
 75 80  1  0  0  0
 75150  1  0  0  0
 75151  1  0  0  0
 76 82  1  0  0  0
 76152  1  0  0  0
 76153  1  0  0  0
 77 78  1  0  0  0
 77 81  1  0  0  0
 77154  1  0  0  0
 77155  1  0  0  0
 78 82  1  0  0  0
 78156  1  0  0  0
 78157  1  0  0  0
 79158  1  0  0  0
M  ISO  4   1 100  68 101  73 101  79 100
M  END
> <chiral flag>
0

> <version>
0

> <s_m_source_file>
/data/baiqing/PycharmProjects/Reinvent-master-3.2/result/LINK_invent/BTK/process_docking_weight1_custom_product_contain_oxygen_bond_distance_aromatic_linkinvent_7_9_3/rearranged_h_0000.sdf

> <i_m_source_file_index>
22

> <r_mmod_Potential_Energy-OPLS-2005>
-132.649719238281

> <r_mmod_Stretch_Energy-OPLS-2005>
31.9378795623779

> <r_mmod_Bend_Energy-OPLS-2005>
94.8774032592773

> <r_mmod_Torsional_Energy-OPLS-2005>
201.347106933594

> <r_mmod_Improper_Torsional_Energy-OPLS-2005>
1.87841999530792

> <r_mmod_Van_der_Waal_Energy-OPLS-2005>
137.073379516602

> <r_mmod_Electrostatic_Energy-OPLS-2005>
-394.197540283203

> <r_mmod_Solvation_Energy-OPLS-2005>
-213.581817626953

> <b_mmod_Minimization_Converged-OPLS-2005>
0

> <r_mmod_RMS_Derivative-OPLS-2005>
4.17057800292969

$$$$
22
                    3D
 Structure written by MMmdl.
151159  0  0  1  0            999 V2000
  -30.6108  -14.7369   20.4652 C   0  0  0  0  0  0
  -30.4303  -12.4501   19.4613 C   0  0  0  0  0  0
  -29.5092  -12.5150   18.2240 C   0  0  0  0  0  0
  -28.0329  -12.3463   18.6355 C   0  0  0  0  0  0
  -27.6403  -13.2328   19.8479 C   0  0  2  0  0  0
  -28.6879  -13.1550   20.9795 C   0  0  0  0  0  0
  -25.2497  -13.8193   20.5689 C   0  0  0  0  0  0
  -24.1799  -13.0435   20.9206 C   0  0  0  0  0  0
  -24.6398  -11.6912   20.8753 C   0  0  0  0  0  0
  -23.9079  -10.4292   21.0417 C   0  0  0  0  0  0
  -24.3631   -9.4201   21.9188 C   0  0  0  0  0  0
  -23.6308   -8.2234   22.0757 C   0  0  0  0  0  0
  -22.4287   -8.0274   21.3552 C   0  0  0  0  0  0
  -21.9919   -9.0249   20.4646 C   0  0  0  0  0  0
  -22.7255  -10.2131   20.3059 C   0  0  0  0  0  0
  -21.6853   -6.0736   22.5291 C   0  0  0  0  0  0
  -21.4009   -6.5644   23.8224 C   0  0  0  0  0  0
  -21.3658   -5.6798   24.9187 C   0  0  0  0  0  0
  -21.6049   -4.3060   24.7238 C   0  0  0  0  0  0
  -21.8812   -3.8151   23.4357 C   0  0  0  0  0  0
  -21.9192   -4.6964   22.3413 C   0  0  0  0  0  0
  -22.7822  -13.5209   21.1871 C   0  0  0  0  0  0
  -22.1660   -4.2154   21.0987 F   0  0  0  0  0  0
  -21.5634   -3.4535   25.7747 F   0  0  0  0  0  0
  -29.9861  -13.5116   20.3939 N   0  0  0  0  0  0
  -26.2928  -12.9409   20.3266 N   0  0  0  0  0  0
  -25.9322  -11.6549   20.5736 N   0  0  0  0  0  0
  -22.0474  -12.8197   22.0424 N   0  0  0  0  0  0
  -25.4157  -15.1922   20.4071 N   0  0  0  0  0  0
  -31.8076  -14.8217   20.1744 O   0  0  0  0  0  0
  -21.6643   -6.8875   21.4250 O   0  0  0  0  0  0
  -22.3494  -14.5514   20.6713 O   0  0  0  0  0  0
  -24.6315  -31.8538   23.1952 C   0  0  0  0  0  0
  -25.9134  -32.4755   23.8306 C   0  0  1  0  0  0
  -27.2287  -27.2612   20.1419 C   0  0  0  0  0  0
  -25.5939  -33.8555   24.2243 N   0  0  0  0  0  0
  -23.4291  -30.4712   21.5394 C   0  0  2  0  0  0
  -24.8790  -28.9083   20.1172 C   0  0  0  0  0  0
  -22.7498  -29.4577   22.4918 C   0  0  0  0  0  0
  -18.0293  -28.1377   22.8474 C   0  0  0  0  0  0
  -24.1498  -36.7275   23.2638 C   0  0  0  0  0  0
  -25.9726  -30.7677   21.3723 C   0  0  0  0  0  0
  -26.0492  -29.3862   20.7216 C   0  0  0  0  0  0
  -27.2298  -28.5767   20.7163 C   0  0  0  0  0  0
  -26.0371  -26.8408   19.5176 C   0  0  0  0  0  0
  -24.8772  -27.6437   19.5044 C   0  0  0  0  0  0
  -23.6486  -29.7954   20.1592 C   0  0  0  0  0  0
  -25.4130  -36.3070   24.0322 C   0  0  1  0  0  0
  -20.5895  -28.3681   23.1277 C   0  0  2  0  0  0
  -20.6776  -26.9398   22.5411 C   0  0  0  0  0  0
  -19.5758  -26.6371   21.5208 C   0  0  0  0  0  0
  -18.1939  -26.7920   22.1614 C   0  0  0  0  0  0
  -19.1545  -28.8847   23.2870 C   0  0  0  0  0  0
  -18.9463  -30.1452   23.8879 C   0  0  0  0  0  0
  -17.6460  -30.6579   24.0551 C   0  0  0  0  0  0
  -25.9065  -34.9440   23.5084 C   0  0  0  0  0  0
  -16.5352  -29.9068   23.6332 C   0  0  0  0  0  0
  -16.7278  -28.6489   23.0348 C   0  0  0  0  0  0
  -26.4508  -31.6573   25.0691 C   0  0  0  0  0  0
  -25.3734  -31.3693   26.1406 C   0  0  0  0  0  0
  -27.0353  -30.3002   24.6146 C   0  0  0  0  0  0
  -27.6080  -32.4289   25.7468 C   0  0  0  0  0  0
  -27.5587  -37.1795   24.8465 C   0  0  0  0  0  0
  -21.4208  -29.3024   22.3661 N   0  0  0  0  0  0
  -26.4302  -37.3769   23.9402 N   0  0  0  0  0  0
  -24.6966  -31.0491   22.0930 N   0  0  0  0  0  0
  -23.4192  -28.8132   23.3031 O   0  0  0  0  0  0
  -28.3401  -26.3923   20.1368 O   0  0  0  0  0  0
  -26.5625  -34.8916   22.4647 O   0  0  0  0  0  0
  -23.5464  -32.1355   23.7252 O   0  0  0  0  0  0
  -31.7791  -19.0248   21.4916 C   0  0  0  0  0  0
  -30.9240  -20.0860   21.1258 C   0  0  0  0  0  0
  -31.4139  -17.6752   21.3042 C   0  0  0  0  0  0
  -29.2982  -18.4344   20.3830 C   0  0  0  0  0  0
  -29.6543  -19.8424   20.5589 C   0  0  0  0  0  0
  -30.1678  -17.3164   20.7420 C   0  0  0  0  0  0
  -28.8016  -21.0522   20.0523 C   0  0  0  0  0  0
  -28.6137  -23.6754   19.8142 C   0  0  0  0  0  0
  -28.2221  -24.9919   20.6795 C   0  0  0  0  0  0
  -29.8175  -15.8731   20.6119 N   0  0  0  0  0  0
  -29.0181  -22.3527   20.4874 N   0  0  0  0  0  0
  -27.9350  -20.8296   19.2054 O   0  0  0  0  0  0
  -31.4735  -12.5690   19.1619 H   0  0  0  0  0  0
  -30.3648  -11.4709   19.9378 H   0  0  0  0  0  0
  -29.7881  -11.7484   17.4993 H   0  0  0  0  0  0
  -29.6415  -13.4735   17.7201 H   0  0  0  0  0  0
  -27.8719  -11.2961   18.8783 H   0  0  0  0  0  0
  -27.3838  -12.5621   17.7867 H   0  0  0  0  0  0
  -27.6343  -14.2572   19.4763 H   0  0  0  0  0  0
  -28.7234  -12.1530   21.4088 H   0  0  0  0  0  0
  -28.4304  -13.8300   21.7973 H   0  0  0  0  0  0
  -25.2778   -9.5679   22.4754 H   0  0  0  0  0  0
  -24.0027   -7.4621   22.7469 H   0  0  0  0  0  0
  -21.0851   -8.8759   19.8945 H   0  0  0  0  0  0
  -22.3709  -10.9664   19.6167 H   0  0  0  0  0  0
  -21.1989   -7.6152   23.9724 H   0  0  0  0  0  0
  -21.1498   -6.0534   25.9092 H   0  0  0  0  0  0
  -22.0594   -2.7611   23.2865 H   0  0  0  0  0  0
  -22.4094  -11.9875   22.4840 H   0  0  0  0  0  0
  -21.1078  -13.1208   22.2609 H   0  0  0  0  0  0
  -24.6384  -15.8380   20.4950 H   0  0  0  0  0  0
  -26.2490  -15.6312   20.0384 H   0  0  0  0  0  0
  -26.7189  -32.5406   23.1038 H   0  0  0  0  0  0
  -25.0109  -33.9690   25.0405 H   0  0  0  0  0  0
  -22.7261  -31.2934   21.3884 H   0  0  0  0  0  0
  -23.3772  -35.9594   23.3299 H   0  0  0  0  0  0
  -24.3585  -36.8899   22.2052 H   0  0  0  0  0  0
  -23.7236  -37.6470   23.6662 H   0  0  0  0  0  0
  -26.1057  -31.5241   20.5978 H   0  0  0  0  0  0
  -26.8520  -30.8228   22.0025 H   0  0  0  0  0  0
  -28.1319  -28.9413   21.1874 H   0  0  0  0  0  0
  -26.0012  -25.8700   19.0429 H   0  0  0  0  0  0
  -23.9804  -27.2713   19.0285 H   0  0  0  0  0  0
  -23.7736  -30.5666   19.3978 H   0  0  0  0  0  0
  -22.7672  -29.2260   19.8576 H   0  0  0  0  0  0
  -25.1319  -36.1918   25.0813 H   0  0  0  0  0  0
  -20.9990  -28.3253   24.1398 H   0  0  0  0  0  0
  -20.5676  -26.2283   23.3604 H   0  0  0  0  0  0
  -21.6645  -26.7416   22.1213 H   0  0  0  0  0  0
  -19.6923  -25.6281   21.1239 H   0  0  0  0  0  0
  -19.6719  -27.3175   20.6734 H   0  0  0  0  0  0
  -17.4214  -26.6663   21.4011 H   0  0  0  0  0  0
  -18.0344  -26.0066   22.9016 H   0  0  0  0  0  0
  -19.7936  -30.7273   24.2245 H   0  0  0  0  0  0
  -17.5010  -31.6268   24.5136 H   0  0  0  0  0  0
  -15.5347  -30.2953   23.7676 H   0  0  0  0  0  0
  -15.8682  -28.0803   22.7063 H   0  0  0  0  0  0
  -24.5932  -30.7032   25.7706 H   0  0  0  0  0  0
  -24.8901  -32.2843   26.4835 H   0  0  0  0  0  0
  -25.8059  -30.8859   27.0173 H   0  0  0  0  0  0
  -26.2914  -29.6746   24.1204 H   0  0  0  0  0  0
  -27.4087  -29.7277   25.4641 H   0  0  0  0  0  0
  -27.8767  -30.4297   23.9341 H   0  0  0  0  0  0
  -27.2724  -33.3599   26.2043 H   0  0  0  0  0  0
  -28.3902  -32.6818   25.0302 H   0  0  0  0  0  0
  -28.0726  -31.8398   26.5381 H   0  0  0  0  0  0
  -28.2605  -38.0097   24.7528 H   0  0  0  0  0  0
  -28.1088  -36.2626   24.6286 H   0  0  0  0  0  0
  -27.2295  -37.1434   25.8866 H   0  0  0  0  0  0
  -20.9392  -29.8734   21.6857 H   0  0  0  0  0  0
  -26.0185  -38.2843   24.1411 H   0  0  0  0  0  0
  -32.7464  -19.2518   21.9194 H   0  0  0  0  0  0
  -31.2726  -21.1003   21.2636 H   0  0  0  0  0  0
  -32.1187  -16.9140   21.6116 H   0  0  0  0  0  0
  -28.3384  -18.2134   19.9354 H   0  0  0  0  0  0
  -29.4737  -23.9441   19.1997 H   0  0  0  0  0  0
  -27.8079  -23.4825   19.1046 H   0  0  0  0  0  0
  -28.8750  -24.9913   21.5525 H   0  0  0  0  0  0
  -27.2218  -24.8475   21.0893 H   0  0  0  0  0  0
  -28.8304  -15.6720   20.6284 H   0  0  0  0  0  0
  -29.6825  -22.4432   21.2434 H   0  0  0  0  0  0
  1 25  1  0  0  0
  1 30  2  0  0  0
  1 80  1  0  0  0
  2  3  1  0  0  0
  2 25  1  0  0  0
  2 83  1  0  0  0
  2 84  1  0  0  0
  3  4  1  0  0  0
  3 85  1  0  0  0
  3 86  1  0  0  0
  4  5  1  0  0  0
  4 87  1  0  0  0
  4 88  1  0  0  0
  5  6  1  0  0  0
  5 26  1  0  0  0
  5 89  1  0  0  0
  6 25  1  0  0  0
  6 90  1  0  0  0
  6 91  1  0  0  0
  7  8  2  0  0  0
  7 26  1  0  0  0
  7 29  1  0  0  0
  8  9  1  0  0  0
  8 22  1  0  0  0
  9 10  1  0  0  0
  9 27  2  0  0  0
 10 11  2  0  0  0
 10 15  1  0  0  0
 11 12  1  0  0  0
 11 92  1  0  0  0
 12 13  2  0  0  0
 12 93  1  0  0  0
 13 14  1  0  0  0
 13 31  1  0  0  0
 14 15  2  0  0  0
 14 94  1  0  0  0
 15 95  1  0  0  0
 16 17  2  0  0  0
 16 21  1  0  0  0
 16 31  1  0  0  0
 17 18  1  0  0  0
 17 96  1  0  0  0
 18 19  2  0  0  0
 18 97  1  0  0  0
 19 20  1  0  0  0
 19 24  1  0  0  0
 20 21  2  0  0  0
 20 98  1  0  0  0
 21 23  1  0  0  0
 22 28  1  0  0  0
 22 32  2  0  0  0
 26 27  1  0  0  0
 28 99  1  0  0  0
 28100  1  0  0  0
 29101  1  0  0  0
 29102  1  0  0  0
 33 34  1  0  0  0
 33 66  1  0  0  0
 33 70  2  0  0  0
 34 36  1  0  0  0
 34 59  1  0  0  0
 34103  1  0  0  0
 35 44  2  0  0  0
 35 45  1  0  0  0
 35 68  1  0  0  0
 36 56  1  0  0  0
 36104  1  0  0  0
 37 39  1  0  0  0
 37 47  1  0  0  0
 37 66  1  0  0  0
 37105  1  0  0  0
 38 43  2  0  0  0
 38 46  1  0  0  0
 38 47  1  0  0  0
 39 64  1  0  0  0
 39 67  2  0  0  0
 40 52  1  0  0  0
 40 53  2  0  0  0
 40 58  1  0  0  0
 41106  1  0  0  0
 41107  1  0  0  0
 41108  1  0  0  0
 41 48  1  0  0  0
 42 43  1  0  0  0
 42 66  1  0  0  0
 42109  1  0  0  0
 42110  1  0  0  0
 43 44  1  0  0  0
 44111  1  0  0  0
 45 46  2  0  0  0
 45112  1  0  0  0
 46113  1  0  0  0
 47114  1  0  0  0
 47115  1  0  0  0
 48 56  1  0  0  0
 48 65  1  0  0  0
 48116  1  0  0  0
 49 50  1  0  0  0
 49 53  1  0  0  0
 49 64  1  0  0  0
 49117  1  0  0  0
 50 51  1  0  0  0
 50118  1  0  0  0
 50119  1  0  0  0
 51 52  1  0  0  0
 51120  1  0  0  0
 51121  1  0  0  0
 52122  1  0  0  0
 52123  1  0  0  0
 53 54  1  0  0  0
 54 55  2  0  0  0
 54124  1  0  0  0
 55 57  1  0  0  0
 55125  1  0  0  0
 56 69  2  0  0  0
 57 58  2  0  0  0
 57126  1  0  0  0
 58127  1  0  0  0
 59 60  1  0  0  0
 59 61  1  0  0  0
 59 62  1  0  0  0
 60128  1  0  0  0
 60129  1  0  0  0
 60130  1  0  0  0
 61131  1  0  0  0
 61132  1  0  0  0
 61133  1  0  0  0
 62134  1  0  0  0
 62135  1  0  0  0
 62136  1  0  0  0
 63 65  1  0  0  0
 63137  1  0  0  0
 63138  1  0  0  0
 63139  1  0  0  0
 64140  1  0  0  0
 65141  1  0  0  0
 68 79  1  0  0  0
 71 72  2  0  0  0
 71 73  1  0  0  0
 71142  1  0  0  0
 72 75  1  0  0  0
 72143  1  0  0  0
 73 76  2  0  0  0
 73144  1  0  0  0
 74 75  2  0  0  0
 74 76  1  0  0  0
 74145  1  0  0  0
 75 77  1  0  0  0
 76 80  1  0  0  0
 77 81  1  0  0  0
 77 82  2  0  0  0
 78 79  1  0  0  0
 78 81  1  0  0  0
 78146  1  0  0  0
 78147  1  0  0  0
 79148  1  0  0  0
 79149  1  0  0  0
 80150  1  0  0  0
 81151  1  0  0  0
M  ISO  4   1 100  68 101  79 101  80 100
M  END
> <chiral flag>
0

> <version>
0

> <s_m_source_file>
/data/baiqing/PycharmProjects/Reinvent-master-3.2/result/LINK_invent/BTK/process_docking_weight1_custom_product_contain_oxygen_bond_distance_aromatic_linkinvent_7_9_3/rearranged_h_0000.sdf

> <i_m_source_file_index>
23

> <r_mmod_Potential_Energy-OPLS-2005>
78.586296081543

> <r_mmod_Stretch_Energy-OPLS-2005>
125.418853759766

> <r_mmod_Bend_Energy-OPLS-2005>
158.979034423828

> <r_mmod_Torsional_Energy-OPLS-2005>
249.130096435547

> <r_mmod_Improper_Torsional_Energy-OPLS-2005>
6.98363304138184

> <r_mmod_Van_der_Waal_Energy-OPLS-2005>
135.837265014648

> <r_mmod_Electrostatic_Energy-OPLS-2005>
-442.598510742188

> <r_mmod_Solvation_Energy-OPLS-2005>
-235.281036376953

> <b_mmod_Minimization_Converged-OPLS-2005>
0

> <r_mmod_RMS_Derivative-OPLS-2005>
1.91622853279114

$$$$
23
                    3D
 Structure written by MMmdl.
162170  0  0  1  0            999 V2000
  -30.7742  -14.3806   20.6557 C   0  0  0  0  0  0
  -30.4044  -12.2956   19.3850 C   0  0  0  0  0  0
  -29.4715  -12.5160   18.1817 C   0  0  0  0  0  0
  -28.0009  -12.3628   18.6122 C   0  0  0  0  0  0
  -27.6600  -13.1951   19.8760 C   0  0  2  0  0  0
  -28.7054  -12.9631   20.9883 C   0  0  0  0  0  0
  -25.2598  -13.8061   20.5738 C   0  0  0  0  0  0
  -24.1827  -13.0385   20.9153 C   0  0  0  0  0  0
  -24.6361  -11.6844   20.8714 C   0  0  0  0  0  0
  -23.9019  -10.4259   21.0398 C   0  0  0  0  0  0
  -24.3572   -9.4183   21.9186 C   0  0  0  0  0  0
  -23.6257   -8.2218   22.0758 C   0  0  0  0  0  0
  -22.4244   -8.0247   21.3541 C   0  0  0  0  0  0
  -21.9863   -9.0224   20.4647 C   0  0  0  0  0  0
  -22.7180  -10.2110   20.3065 C   0  0  0  0  0  0
  -21.6843   -6.0697   22.5275 C   0  0  0  0  0  0
  -21.4004   -6.5611   23.8201 C   0  0  0  0  0  0
  -21.3667   -5.6776   24.9174 C   0  0  0  0  0  0
  -21.6057   -4.3040   24.7235 C   0  0  0  0  0  0
  -21.8813   -3.8115   23.4359 C   0  0  0  0  0  0
  -21.9189   -4.6926   22.3407 C   0  0  0  0  0  0
  -22.7867  -13.5232   21.1813 C   0  0  0  0  0  0
  -22.1662   -4.2102   21.0991 F   0  0  0  0  0  0
  -21.5647   -3.4537   25.7757 F   0  0  0  0  0  0
  -30.0338  -13.2624   20.4287 N   0  0  0  0  0  0
  -26.3028  -12.9243   20.3409 N   0  0  0  0  0  0
  -25.9290  -11.6406   20.5759 N   0  0  0  0  0  0
  -22.0494  -12.8275   22.0372 N   0  0  0  0  0  0
  -25.4373  -15.1765   20.4292 N   0  0  0  0  0  0
  -31.8483  -14.6071   20.0950 O   0  0  0  0  0  0
  -21.6623   -6.8835   21.4233 O   0  0  0  0  0  0
  -22.3594  -14.5563   20.6664 O   0  0  0  0  0  0
  -24.6123  -31.8670   23.2195 C   0  0  0  0  0  0
  -25.9026  -32.4814   23.8457 C   0  0  1  0  0  0
  -27.2369  -27.4468   20.0984 C   0  0  0  0  0  0
  -25.5901  -33.8608   24.2365 N   0  0  0  0  0  0
  -23.4031  -30.4993   21.5504 C   0  0  2  0  0  0
  -24.8537  -28.9691   20.1170 C   0  0  0  0  0  0
  -22.7436  -29.4700   22.4960 C   0  0  0  0  0  0
  -18.0339  -28.1308   22.8532 C   0  0  0  0  0  0
  -24.1498  -36.7302   23.2641 C   0  0  0  0  0  0
  -25.9342  -30.8408   21.3752 C   0  0  0  0  0  0
  -26.0125  -29.4795   20.7147 C   0  0  0  0  0  0
  -27.2066  -28.7228   20.7045 C   0  0  0  0  0  0
  -26.0569  -26.9530   19.4945 C   0  0  0  0  0  0
  -24.8704  -27.7050   19.5066 C   0  0  0  0  0  0
  -23.6131  -29.8289   20.1654 C   0  0  0  0  0  0
  -25.4106  -36.3085   24.0345 C   0  0  1  0  0  0
  -20.5917  -28.3676   23.1298 C   0  0  2  0  0  0
  -20.6837  -26.9395   22.5437 C   0  0  0  0  0  0
  -19.5814  -26.6291   21.5257 C   0  0  0  0  0  0
  -18.2032  -26.7806   22.1769 C   0  0  0  0  0  0
  -19.1574  -28.8825   23.2895 C   0  0  0  0  0  0
  -18.9476  -30.1461   23.8848 C   0  0  0  0  0  0
  -17.6464  -30.6575   24.0481 C   0  0  0  0  0  0
  -25.9012  -34.9454   23.5141 C   0  0  0  0  0  0
  -16.5376  -29.9017   23.6292 C   0  0  0  0  0  0
  -16.7324  -28.6399   23.0394 C   0  0  0  0  0  0
  -26.4462  -31.6612   25.0781 C   0  0  0  0  0  0
  -25.3766  -31.3696   26.1563 C   0  0  0  0  0  0
  -27.0275  -30.3046   24.6176 C   0  0  0  0  0  0
  -27.6057  -32.4329   25.7504 C   0  0  0  0  0  0
  -27.5579  -37.1799   24.8452 C   0  0  0  0  0  0
  -21.4167  -29.3102   22.3750 N   0  0  0  0  0  0
  -26.4294  -37.3770   23.9394 N   0  0  0  0  0  0
  -24.6671  -31.0816   22.1060 N   0  0  0  0  0  0
  -23.4237  -28.8143   23.2904 O   0  0  0  0  0  0
  -28.4217  -26.7386   20.1205 O   0  0  0  0  0  0
  -26.5566  -34.8907   22.4689 O   0  0  0  0  0  0
  -23.5325  -32.1400   23.7617 O   0  0  0  0  0  0
  -28.3356  -16.4581   22.3683 C   0  0  0  0  0  0
  -28.9647  -16.7227   20.0301 C   0  0  0  0  0  0
  -27.2705  -17.3607   22.1840 C   0  0  0  0  0  0
  -27.9057  -17.6333   19.8524 C   0  0  0  0  0  0
  -29.1851  -16.1284   21.2936 C   0  0  0  0  0  0
  -27.0477  -17.9637   20.9200 C   0  0  0  0  0  0
  -25.0262  -19.0455   21.6368 C   0  0  0  0  0  0
  -28.3932  -25.3185   19.9187 C   0  0  0  0  0  0
  -24.0251  -20.1068   21.1595 C   0  0  0  0  0  0
  -27.7324  -24.5460   21.0890 C   0  0  0  0  0  0
  -25.0067  -22.1072   20.2868 C   0  0  0  0  0  0
  -25.6394  -23.4372   20.7321 C   0  0  0  0  0  0
  -30.2887  -15.2701   21.5339 N   0  0  0  0  0  0
  -26.0325  -18.8551   20.6488 O   0  0  0  0  0  0
  -24.5434  -21.4053   21.4330 O   0  0  0  0  0  0
  -27.0615  -23.3705   20.6332 O   0  0  0  0  0  0
  -31.4486  -12.3804   19.0791 H   0  0  0  0  0  0
  -30.2894  -11.2798   19.7662 H   0  0  0  0  0  0
  -29.7022  -11.8014   17.3895 H   0  0  0  0  0  0
  -29.6361  -13.5081   17.7571 H   0  0  0  0  0  0
  -27.8240  -11.3052   18.8112 H   0  0  0  0  0  0
  -27.3359  -12.6342   17.7907 H   0  0  0  0  0  0
  -27.7067  -14.2426   19.5819 H   0  0  0  0  0  0
  -28.6809  -11.9269   21.3286 H   0  0  0  0  0  0
  -28.4681  -13.5590   21.8691 H   0  0  0  0  0  0
  -25.2709   -9.5671   22.4765 H   0  0  0  0  0  0
  -23.9956   -7.4616   22.7495 H   0  0  0  0  0  0
  -21.0780   -8.8745   19.8967 H   0  0  0  0  0  0
  -22.3617  -10.9662   19.6196 H   0  0  0  0  0  0
  -21.1981   -7.6117   23.9688 H   0  0  0  0  0  0
  -21.1514   -6.0517   25.9079 H   0  0  0  0  0  0
  -22.0584   -2.7573   23.2885 H   0  0  0  0  0  0
  -22.4070  -11.9910   22.4738 H   0  0  0  0  0  0
  -21.1152  -13.1384   22.2616 H   0  0  0  0  0  0
  -24.6996  -15.8397   20.6325 H   0  0  0  0  0  0
  -26.3401  -15.6148   20.2950 H   0  0  0  0  0  0
  -26.7104  -32.5545   23.1231 H   0  0  0  0  0  0
  -25.0094  -33.9747   25.0541 H   0  0  0  0  0  0
  -22.6931  -31.3170   21.4072 H   0  0  0  0  0  0
  -23.3747  -35.9649   23.3307 H   0  0  0  0  0  0
  -24.3604  -36.8903   22.2053 H   0  0  0  0  0  0
  -23.7267  -37.6519   23.6654 H   0  0  0  0  0  0
  -26.0598  -31.6217   20.6234 H   0  0  0  0  0  0
  -26.8136  -30.8810   22.0073 H   0  0  0  0  0  0
  -28.1063  -29.1013   21.1727 H   0  0  0  0  0  0
  -26.0252  -25.9951   19.0006 H   0  0  0  0  0  0
  -23.9791  -27.3078   19.0421 H   0  0  0  0  0  0
  -23.7138  -30.5947   19.3958 H   0  0  0  0  0  0
  -22.7417  -29.2375   19.8758 H   0  0  0  0  0  0
  -25.1282  -36.1965   25.0843 H   0  0  0  0  0  0
  -21.0031  -28.3241   24.1409 H   0  0  0  0  0  0
  -20.5694  -26.2314   23.3670 H   0  0  0  0  0  0
  -21.6715  -26.7362   22.1278 H   0  0  0  0  0  0
  -19.6996  -25.6155   21.1393 H   0  0  0  0  0  0
  -19.6701  -27.3010   20.6707 H   0  0  0  0  0  0
  -17.4225  -26.6360   21.4299 H   0  0  0  0  0  0
  -18.0635  -26.0029   22.9296 H   0  0  0  0  0  0
  -19.7920  -30.7329   24.2215 H   0  0  0  0  0  0
  -17.4991  -31.6287   24.5000 H   0  0  0  0  0  0
  -15.5366  -30.2871   23.7618 H   0  0  0  0  0  0
  -15.8752  -28.0613   22.7203 H   0  0  0  0  0  0
  -24.5953  -30.7003   25.7941 H   0  0  0  0  0  0
  -24.8938  -32.2826   26.5061 H   0  0  0  0  0  0
  -25.8170  -30.8869   27.0302 H   0  0  0  0  0  0
  -26.2816  -29.6845   24.1190 H   0  0  0  0  0  0
  -27.3957  -29.7256   25.4660 H   0  0  0  0  0  0
  -27.8716  -30.4318   23.9392 H   0  0  0  0  0  0
  -27.2692  -33.3611   26.2135 H   0  0  0  0  0  0
  -28.3832  -32.6918   25.0306 H   0  0  0  0  0  0
  -28.0789  -31.8439   26.5376 H   0  0  0  0  0  0
  -28.2587  -38.0103   24.7481 H   0  0  0  0  0  0
  -28.1078  -36.2622   24.6293 H   0  0  0  0  0  0
  -27.2287  -37.1473   25.8854 H   0  0  0  0  0  0
  -20.9321  -29.8967   21.7098 H   0  0  0  0  0  0
  -26.0186  -38.2854   24.1387 H   0  0  0  0  0  0
  -28.4919  -16.0173   23.3434 H   0  0  0  0  0  0
  -29.6097  -16.5034   19.1904 H   0  0  0  0  0  0
  -26.6412  -17.5704   23.0355 H   0  0  0  0  0  0
  -27.7490  -18.0827   18.8815 H   0  0  0  0  0  0
  -24.5040  -18.1005   21.7966 H   0  0  0  0  0  0
  -25.4557  -19.3583   22.5889 H   0  0  0  0  0  0
  -29.4245  -24.9747   19.8348 H   0  0  0  0  0  0
  -27.9471  -25.0751   18.9539 H   0  0  0  0  0  0
  -23.1092  -20.0051   21.7427 H   0  0  0  0  0  0
  -23.7402  -19.9504   20.1165 H   0  0  0  0  0  0
  -27.0632  -25.1834   21.6662 H   0  0  0  0  0  0
  -28.5033  -24.2400   21.7985 H   0  0  0  0  0  0
  -25.7171  -21.5108   19.7133 H   0  0  0  0  0  0
  -24.1588  -22.3075   19.6318 H   0  0  0  0  0  0
  -25.3335  -23.6612   21.7564 H   0  0  0  0  0  0
  -25.2558  -24.2461   20.1128 H   0  0  0  0  0  0
  -31.0366  -15.7501   22.0128 H   0  0  0  0  0  0
  1 25  1  0  0  0
  1 30  2  0  0  0
  1 83  1  0  0  0
  2  3  1  0  0  0
  2 25  1  0  0  0
  2 87  1  0  0  0
  2 88  1  0  0  0
  3  4  1  0  0  0
  3 89  1  0  0  0
  3 90  1  0  0  0
  4  5  1  0  0  0
  4 91  1  0  0  0
  4 92  1  0  0  0
  5  6  1  0  0  0
  5 26  1  0  0  0
  5 93  1  0  0  0
  6 25  1  0  0  0
  6 94  1  0  0  0
  6 95  1  0  0  0
  7  8  2  0  0  0
  7 26  1  0  0  0
  7 29  1  0  0  0
  8  9  1  0  0  0
  8 22  1  0  0  0
  9 10  1  0  0  0
  9 27  2  0  0  0
 10 11  2  0  0  0
 10 15  1  0  0  0
 11 12  1  0  0  0
 11 96  1  0  0  0
 12 13  2  0  0  0
 12 97  1  0  0  0
 13 14  1  0  0  0
 13 31  1  0  0  0
 14 15  2  0  0  0
 14 98  1  0  0  0
 15 99  1  0  0  0
 16 17  2  0  0  0
 16 21  1  0  0  0
 16 31  1  0  0  0
 17 18  1  0  0  0
 17100  1  0  0  0
 18 19  2  0  0  0
 18101  1  0  0  0
 19 20  1  0  0  0
 19 24  1  0  0  0
 20 21  2  0  0  0
 20102  1  0  0  0
 21 23  1  0  0  0
 22 28  1  0  0  0
 22 32  2  0  0  0
 26 27  1  0  0  0
 28103  1  0  0  0
 28104  1  0  0  0
 29105  1  0  0  0
 29106  1  0  0  0
 33 34  1  0  0  0
 33 66  1  0  0  0
 33 70  2  0  0  0
 34 36  1  0  0  0
 34 59  1  0  0  0
 34107  1  0  0  0
 35 44  2  0  0  0
 35 45  1  0  0  0
 35 68  1  0  0  0
 36 56  1  0  0  0
 36108  1  0  0  0
 37 39  1  0  0  0
 37 47  1  0  0  0
 37 66  1  0  0  0
 37109  1  0  0  0
 38 43  2  0  0  0
 38 46  1  0  0  0
 38 47  1  0  0  0
 39 64  1  0  0  0
 39 67  2  0  0  0
 40 52  1  0  0  0
 40 53  2  0  0  0
 40 58  1  0  0  0
 41110  1  0  0  0
 41111  1  0  0  0
 41112  1  0  0  0
 41 48  1  0  0  0
 42 43  1  0  0  0
 42 66  1  0  0  0
 42113  1  0  0  0
 42114  1  0  0  0
 43 44  1  0  0  0
 44115  1  0  0  0
 45 46  2  0  0  0
 45116  1  0  0  0
 46117  1  0  0  0
 47118  1  0  0  0
 47119  1  0  0  0
 48 56  1  0  0  0
 48 65  1  0  0  0
 48120  1  0  0  0
 49 50  1  0  0  0
 49 53  1  0  0  0
 49 64  1  0  0  0
 49121  1  0  0  0
 50 51  1  0  0  0
 50122  1  0  0  0
 50123  1  0  0  0
 51 52  1  0  0  0
 51124  1  0  0  0
 51125  1  0  0  0
 52126  1  0  0  0
 52127  1  0  0  0
 53 54  1  0  0  0
 54 55  2  0  0  0
 54128  1  0  0  0
 55 57  1  0  0  0
 55129  1  0  0  0
 56 69  2  0  0  0
 57 58  2  0  0  0
 57130  1  0  0  0
 58131  1  0  0  0
 59 60  1  0  0  0
 59 61  1  0  0  0
 59 62  1  0  0  0
 60132  1  0  0  0
 60133  1  0  0  0
 60134  1  0  0  0
 61135  1  0  0  0
 61136  1  0  0  0
 61137  1  0  0  0
 62138  1  0  0  0
 62139  1  0  0  0
 62140  1  0  0  0
 63 65  1  0  0  0
 63141  1  0  0  0
 63142  1  0  0  0
 63143  1  0  0  0
 64144  1  0  0  0
 65145  1  0  0  0
 68 78  1  0  0  0
 71 73  2  0  0  0
 71 75  1  0  0  0
 71146  1  0  0  0
 72 74  1  0  0  0
 72 75  2  0  0  0
 72147  1  0  0  0
 73 76  1  0  0  0
 73148  1  0  0  0
 74 76  2  0  0  0
 74149  1  0  0  0
 75 83  1  0  0  0
 76 84  1  0  0  0
 77 79  1  0  0  0
 77 84  1  0  0  0
 77150  1  0  0  0
 77151  1  0  0  0
 78 80  1  0  0  0
 78152  1  0  0  0
 78153  1  0  0  0
 79 85  1  0  0  0
 79154  1  0  0  0
 79155  1  0  0  0
 80 86  1  0  0  0
 80156  1  0  0  0
 80157  1  0  0  0
 81 82  1  0  0  0
 81 85  1  0  0  0
 81158  1  0  0  0
 81159  1  0  0  0
 82 86  1  0  0  0
 82160  1  0  0  0
 82161  1  0  0  0
 83162  1  0  0  0
M  ISO  4   1 100  68 101  78 101  83 100
M  END
> <chiral flag>
0

> <version>
0

> <s_m_source_file>
/data/baiqing/PycharmProjects/Reinvent-master-3.2/result/LINK_invent/BTK/process_docking_weight1_custom_product_contain_oxygen_bond_distance_aromatic_linkinvent_7_9_3/rearranged_h_0000.sdf

> <i_m_source_file_index>
24

> <r_mmod_Potential_Energy-OPLS-2005>
-0.0545871406793594

> <r_mmod_Stretch_Energy-OPLS-2005>
33.9532661437988

> <r_mmod_Bend_Energy-OPLS-2005>
111.98168182373

> <r_mmod_Torsional_Energy-OPLS-2005>
260.162902832031

> <r_mmod_Improper_Torsional_Energy-OPLS-2005>
5.5890736579895

> <r_mmod_Van_der_Waal_Energy-OPLS-2005>
151.979965209961

> <r_mmod_Electrostatic_Energy-OPLS-2005>
-368.872436523438

> <r_mmod_Solvation_Energy-OPLS-2005>
-204.786804199219

> <b_mmod_Minimization_Converged-OPLS-2005>
0

> <r_mmod_RMS_Derivative-OPLS-2005>
3.30119204521179

$$$$
24
                    3D
 Structure written by MMmdl.
182191  0  0  1  0            999 V2000
  -30.8369  -14.2778   20.7447 C   0  0  0  0  0  0
  -30.4052  -12.2813   19.3726 C   0  0  0  0  0  0
  -29.4695  -12.5370   18.1816 C   0  0  0  0  0  0
  -28.0015  -12.3789   18.6103 C   0  0  0  0  0  0
  -27.6665  -13.2057   19.8776 C   0  0  2  0  0  0
  -28.7057  -12.9635   20.9955 C   0  0  0  0  0  0
  -25.2611  -13.8173   20.5692 C   0  0  0  0  0  0
  -24.1853  -13.0451   20.9170 C   0  0  0  0  0  0
  -24.6402  -11.6916   20.8725 C   0  0  0  0  0  0
  -23.9059  -10.4300   21.0400 C   0  0  0  0  0  0
  -24.3611   -9.4216   21.9182 C   0  0  0  0  0  0
  -23.6291   -8.2250   22.0755 C   0  0  0  0  0  0
  -22.4276   -8.0281   21.3542 C   0  0  0  0  0  0
  -21.9905   -9.0257   20.4646 C   0  0  0  0  0  0
  -22.7230  -10.2137   20.3054 C   0  0  0  0  0  0
  -21.6853   -6.0737   22.5279 C   0  0  0  0  0  0
  -21.4016   -6.5641   23.8211 C   0  0  0  0  0  0
  -21.3659   -5.6793   24.9174 C   0  0  0  0  0  0
  -21.6041   -4.3058   24.7223 C   0  0  0  0  0  0
  -21.8819   -3.8147   23.4349 C   0  0  0  0  0  0
  -21.9195   -4.6965   22.3402 C   0  0  0  0  0  0
  -22.7876  -13.5251   21.1837 C   0  0  0  0  0  0
  -22.1662   -4.2151   21.0983 F   0  0  0  0  0  0
  -21.5628   -3.4540   25.7737 F   0  0  0  0  0  0
  -30.0582  -13.2077   20.4590 N   0  0  0  0  0  0
  -26.3057  -12.9346   20.3392 N   0  0  0  0  0  0
  -25.9329  -11.6500   20.5763 N   0  0  0  0  0  0
  -22.0514  -12.8241   22.0391 N   0  0  0  0  0  0
  -25.4354  -15.1885   20.4117 N   0  0  0  0  0  0
  -31.7527  -14.6733   20.0161 O   0  0  0  0  0  0
  -21.6641   -6.8882   21.4241 O   0  0  0  0  0  0
  -22.3553  -14.5556   20.6687 O   0  0  0  0  0  0
  -24.6088  -31.8707   23.2121 C   0  0  0  0  0  0
  -25.8998  -32.4837   23.8413 C   0  0  1  0  0  0
  -27.2417  -27.4754   20.0991 C   0  0  0  0  0  0
  -25.5864  -33.8636   24.2340 N   0  0  0  0  0  0
  -23.3968  -30.4912   21.5509 C   0  0  2  0  0  0
  -24.8465  -28.9586   20.1191 C   0  0  0  0  0  0
  -22.7394  -29.4658   22.5009 C   0  0  0  0  0  0
  -18.0268  -28.1378   22.8480 C   0  0  0  0  0  0
  -24.1490  -36.7328   23.2637 C   0  0  0  0  0  0
  -25.9184  -30.8487   21.3597 C   0  0  0  0  0  0
  -25.9997  -29.4829   20.7176 C   0  0  0  0  0  0
  -27.1999  -28.7452   20.7121 C   0  0  0  0  0  0
  -26.0826  -26.9609   19.4873 C   0  0  0  0  0  0
  -24.8801  -27.6944   19.5025 C   0  0  0  0  0  0
  -23.6049  -29.8198   20.1665 C   0  0  0  0  0  0
  -25.4104  -36.3131   24.0349 C   0  0  1  0  0  0
  -20.5851  -28.3643   23.1339 C   0  0  2  0  0  0
  -20.6767  -26.9385   22.5423 C   0  0  0  0  0  0
  -19.5748  -26.6386   21.5218 C   0  0  0  0  0  0
  -18.1920  -26.7928   22.1617 C   0  0  0  0  0  0
  -19.1516  -28.8830   23.2901 C   0  0  0  0  0  0
  -18.9453  -30.1434   23.8911 C   0  0  0  0  0  0
  -17.6454  -30.6582   24.0560 C   0  0  0  0  0  0
  -25.9023  -34.9490   23.5149 C   0  0  0  0  0  0
  -16.5336  -29.9086   23.6334 C   0  0  0  0  0  0
  -16.7259  -28.6512   23.0331 C   0  0  0  0  0  0
  -26.4456  -31.6583   25.0718 C   0  0  0  0  0  0
  -25.3741  -31.3661   26.1482 C   0  0  0  0  0  0
  -27.0270  -30.3039   24.6030 C   0  0  0  0  0  0
  -27.6048  -32.4282   25.7477 C   0  0  0  0  0  0
  -27.5583  -37.1809   24.8468 C   0  0  0  0  0  0
  -21.4123  -29.3018   22.3755 N   0  0  0  0  0  0
  -26.4293  -37.3809   23.9425 N   0  0  0  0  0  0
  -24.6594  -31.0837   22.1009 N   0  0  0  0  0  0
  -23.4185  -28.8211   23.3042 O   0  0  0  0  0  0
  -28.3968  -26.7390   20.0592 O   0  0  0  0  0  0
  -26.5599  -34.8940   22.4716 O   0  0  0  0  0  0
  -23.5290  -32.1434   23.7540 O   0  0  0  0  0  0
  -22.0026  -20.4278   26.6210 C   0  0  0  0  0  0
  -22.0314  -20.9501   25.3138 C   0  0  0  0  0  0
  -22.9626  -19.4786   27.0201 C   0  0  0  0  0  0
  -23.0246  -20.5285   24.4080 C   0  0  0  0  0  0
  -23.9564  -19.0566   26.1150 C   0  0  0  0  0  0
  -28.8573  -17.6246   21.9495 C   0  0  0  0  0  0
  -27.6049  -18.0431   22.4370 C   0  0  0  0  0  0
  -29.8377  -18.0151   24.1454 C   0  0  0  0  0  0
  -24.0024  -19.5880   24.8029 C   0  0  0  0  0  0
  -29.9766  -17.6079   22.8045 C   0  0  0  0  0  0
  -27.4659  -18.4625   23.7832 C   0  0  0  0  0  0
  -28.5901  -18.4571   24.6373 C   0  0  0  0  0  0
  -25.0481  -19.1395   23.8214 C   0  0  0  0  0  0
  -31.3304  -17.1436   22.2998 C   0  0  0  0  0  0
  -31.6167  -15.6714   22.6406 C   0  0  0  0  0  0
  -28.8550  -26.2929   21.3333 C   0  0  0  0  0  0
  -29.3526  -19.7917   26.4658 C   0  0  0  0  0  0
  -28.2859  -24.8965   21.6274 C   0  0  0  0  0  0
  -28.7798  -21.2086   26.3361 C   0  0  0  0  0  0
  -28.1640  -23.2175   23.2877 C   0  0  0  0  0  0
  -28.4115  -22.9487   24.7781 C   0  0  0  0  0  0
  -26.2483  -18.8979   24.3673 N   0  0  0  0  0  0
  -30.6878  -14.7516   21.9857 N   0  0  0  0  0  0
  -24.7899  -19.0870   22.6165 O   0  0  0  0  0  0
  -28.4192  -18.8428   25.9488 O   0  0  0  0  0  0
  -28.5699  -24.5436   22.9742 O   0  0  0  0  0  0
  -28.7331  -21.5784   24.9643 O   0  0  0  0  0  0
  -31.4476  -12.3774   19.0613 H   0  0  0  0  0  0
  -30.2968  -11.2545   19.7262 H   0  0  0  0  0  0
  -29.6969  -11.8462   17.3685 H   0  0  0  0  0  0
  -29.6359  -13.5414   17.7887 H   0  0  0  0  0  0
  -27.8190  -11.3200   18.7976 H   0  0  0  0  0  0
  -27.3387  -12.6610   17.7913 H   0  0  0  0  0  0
  -27.7227  -14.2581   19.5972 H   0  0  0  0  0  0
  -28.6478  -11.9358   21.3564 H   0  0  0  0  0  0
  -28.4629  -13.5966   21.8500 H   0  0  0  0  0  0
  -25.2758   -9.5694   22.4752 H   0  0  0  0  0  0
  -24.0001   -7.4643   22.7478 H   0  0  0  0  0  0
  -21.0834   -8.8771   19.8954 H   0  0  0  0  0  0
  -22.3687  -10.9674   19.6160 H   0  0  0  0  0  0
  -21.2009   -7.6148   23.9715 H   0  0  0  0  0  0
  -21.1480   -6.0525   25.9076 H   0  0  0  0  0  0
  -22.0599   -2.7610   23.2847 H   0  0  0  0  0  0
  -22.4121  -11.9899   22.4779 H   0  0  0  0  0  0
  -21.1131  -13.1266   22.2596 H   0  0  0  0  0  0
  -24.6799  -15.8520   20.5414 H   0  0  0  0  0  0
  -26.3023  -15.6248   20.1250 H   0  0  0  0  0  0
  -26.7073  -32.5595   23.1192 H   0  0  0  0  0  0
  -25.0037  -33.9817   25.0501 H   0  0  0  0  0  0
  -22.6832  -31.3057   21.4081 H   0  0  0  0  0  0
  -23.3755  -35.9655   23.3316 H   0  0  0  0  0  0
  -24.3593  -36.8932   22.2051 H   0  0  0  0  0  0
  -23.7238  -37.6537   23.6638 H   0  0  0  0  0  0
  -26.0156  -31.6094   20.5829 H   0  0  0  0  0  0
  -26.8139  -30.9176   21.9669 H   0  0  0  0  0  0
  -28.0935  -29.1503   21.1672 H   0  0  0  0  0  0
  -26.1144  -25.9938   19.0069 H   0  0  0  0  0  0
  -23.9959  -27.2868   19.0323 H   0  0  0  0  0  0
  -23.7109  -30.5921   19.4042 H   0  0  0  0  0  0
  -22.7321  -29.2361   19.8698 H   0  0  0  0  0  0
  -25.1263  -36.2008   25.0841 H   0  0  0  0  0  0
  -20.9917  -28.3196   24.1465 H   0  0  0  0  0  0
  -20.5671  -26.2242   23.3591 H   0  0  0  0  0  0
  -21.6639  -26.7439   22.1200 H   0  0  0  0  0  0
  -19.6919  -25.6309   21.1228 H   0  0  0  0  0  0
  -19.6710  -27.3217   20.6763 H   0  0  0  0  0  0
  -17.4186  -26.6662   21.4015 H   0  0  0  0  0  0
  -18.0308  -26.0073   22.9014 H   0  0  0  0  0  0
  -19.7927  -30.7243   24.2276 H   0  0  0  0  0  0
  -17.5019  -31.6262   24.5159 H   0  0  0  0  0  0
  -15.5344  -30.2994   23.7666 H   0  0  0  0  0  0
  -15.8658  -28.0855   22.7023 H   0  0  0  0  0  0
  -24.5944  -30.6960   25.7843 H   0  0  0  0  0  0
  -24.8877  -32.2793   26.4923 H   0  0  0  0  0  0
  -25.8115  -30.8862   27.0245 H   0  0  0  0  0  0
  -26.2778  -29.6826   24.1108 H   0  0  0  0  0  0
  -27.4109  -29.7245   25.4436 H   0  0  0  0  0  0
  -27.8588  -30.4402   23.9115 H   0  0  0  0  0  0
  -27.2691  -33.3595   26.2050 H   0  0  0  0  0  0
  -28.3857  -32.6804   25.0291 H   0  0  0  0  0  0
  -28.0712  -31.8398   26.5392 H   0  0  0  0  0  0
  -28.2586  -38.0116   24.7524 H   0  0  0  0  0  0
  -28.1081  -36.2644   24.6262 H   0  0  0  0  0  0
  -27.2304  -37.1436   25.8870 H   0  0  0  0  0  0
  -20.9277  -29.8741   21.6984 H   0  0  0  0  0  0
  -26.0194  -38.2892   24.1428 H   0  0  0  0  0  0
  -21.2403  -20.7516   27.3165 H   0  0  0  0  0  0
  -21.2909  -21.6745   25.0040 H   0  0  0  0  0  0
  -22.9351  -19.0698   28.0213 H   0  0  0  0  0  0
  -23.0378  -20.9340   23.4049 H   0  0  0  0  0  0
  -24.6748  -18.3149   26.4369 H   0  0  0  0  0  0
  -28.9500  -17.3074   20.9202 H   0  0  0  0  0  0
  -26.7691  -18.0264   21.7556 H   0  0  0  0  0  0
  -30.6961  -17.9647   24.7988 H   0  0  0  0  0  0
  -32.1049  -17.7738   22.7410 H   0  0  0  0  0  0
  -31.3978  -17.3064   21.2239 H   0  0  0  0  0  0
  -31.5520  -15.5172   23.7188 H   0  0  0  0  0  0
  -32.6433  -15.4221   22.3648 H   0  0  0  0  0  0
  -29.9438  -26.2562   21.3242 H   0  0  0  0  0  0
  -28.5820  -26.9815   22.1348 H   0  0  0  0  0  0
  -29.5052  -19.5596   27.5202 H   0  0  0  0  0  0
  -30.3381  -19.7566   26.0022 H   0  0  0  0  0  0
  -28.7224  -24.1717   20.9384 H   0  0  0  0  0  0
  -27.2053  -24.8864   21.4746 H   0  0  0  0  0  0
  -29.4166  -21.9030   26.8870 H   0  0  0  0  0  0
  -27.7834  -21.2591   26.7777 H   0  0  0  0  0  0
  -27.1117  -23.0546   23.0497 H   0  0  0  0  0  0
  -28.7447  -22.5193   22.6819 H   0  0  0  0  0  0
  -27.5360  -23.2395   25.3611 H   0  0  0  0  0  0
  -29.2497  -23.5494   25.1347 H   0  0  0  0  0  0
  -26.3065  -19.0765   25.3596 H   0  0  0  0  0  0
  -29.9510  -14.3500   22.5467 H   0  0  0  0  0  0
  1 25  1  0  0  0
  1 30  2  0  0  0
  1 93  1  0  0  0
  2  3  1  0  0  0
  2 25  1  0  0  0
  2 98  1  0  0  0
  2 99  1  0  0  0
  3  4  1  0  0  0
  3100  1  0  0  0
  3101  1  0  0  0
  4  5  1  0  0  0
  4102  1  0  0  0
  4103  1  0  0  0
  5  6  1  0  0  0
  5 26  1  0  0  0
  5104  1  0  0  0
  6 25  1  0  0  0
  6105  1  0  0  0
  6106  1  0  0  0
  7  8  2  0  0  0
  7 26  1  0  0  0
  7 29  1  0  0  0
  8  9  1  0  0  0
  8 22  1  0  0  0
  9 10  1  0  0  0
  9 27  2  0  0  0
 10 11  2  0  0  0
 10 15  1  0  0  0
 11 12  1  0  0  0
 11107  1  0  0  0
 12 13  2  0  0  0
 12108  1  0  0  0
 13 14  1  0  0  0
 13 31  1  0  0  0
 14 15  2  0  0  0
 14109  1  0  0  0
 15110  1  0  0  0
 16 17  2  0  0  0
 16 21  1  0  0  0
 16 31  1  0  0  0
 17 18  1  0  0  0
 17111  1  0  0  0
 18 19  2  0  0  0
 18112  1  0  0  0
 19 20  1  0  0  0
 19 24  1  0  0  0
 20 21  2  0  0  0
 20113  1  0  0  0
 21 23  1  0  0  0
 22 28  1  0  0  0
 22 32  2  0  0  0
 26 27  1  0  0  0
 28114  1  0  0  0
 28115  1  0  0  0
 29116  1  0  0  0
 29117  1  0  0  0
 33 34  1  0  0  0
 33 66  1  0  0  0
 33 70  2  0  0  0
 34 36  1  0  0  0
 34 59  1  0  0  0
 34118  1  0  0  0
 35 44  2  0  0  0
 35 45  1  0  0  0
 35 68  1  0  0  0
 36 56  1  0  0  0
 36119  1  0  0  0
 37 39  1  0  0  0
 37 47  1  0  0  0
 37 66  1  0  0  0
 37120  1  0  0  0
 38 43  2  0  0  0
 38 46  1  0  0  0
 38 47  1  0  0  0
 39 64  1  0  0  0
 39 67  2  0  0  0
 40 52  1  0  0  0
 40 53  2  0  0  0
 40 58  1  0  0  0
 41121  1  0  0  0
 41122  1  0  0  0
 41123  1  0  0  0
 41 48  1  0  0  0
 42 43  1  0  0  0
 42 66  1  0  0  0
 42124  1  0  0  0
 42125  1  0  0  0
 43 44  1  0  0  0
 44126  1  0  0  0
 45 46  2  0  0  0
 45127  1  0  0  0
 46128  1  0  0  0
 47129  1  0  0  0
 47130  1  0  0  0
 48 56  1  0  0  0
 48 65  1  0  0  0
 48131  1  0  0  0
 49 50  1  0  0  0
 49 53  1  0  0  0
 49 64  1  0  0  0
 49132  1  0  0  0
 50 51  1  0  0  0
 50133  1  0  0  0
 50134  1  0  0  0
 51 52  1  0  0  0
 51135  1  0  0  0
 51136  1  0  0  0
 52137  1  0  0  0
 52138  1  0  0  0
 53 54  1  0  0  0
 54 55  2  0  0  0
 54139  1  0  0  0
 55 57  1  0  0  0
 55140  1  0  0  0
 56 69  2  0  0  0
 57 58  2  0  0  0
 57141  1  0  0  0
 58142  1  0  0  0
 59 60  1  0  0  0
 59 61  1  0  0  0
 59 62  1  0  0  0
 60143  1  0  0  0
 60144  1  0  0  0
 60145  1  0  0  0
 61146  1  0  0  0
 61147  1  0  0  0
 61148  1  0  0  0
 62149  1  0  0  0
 62150  1  0  0  0
 62151  1  0  0  0
 63 65  1  0  0  0
 63152  1  0  0  0
 63153  1  0  0  0
 63154  1  0  0  0
 64155  1  0  0  0
 65156  1  0  0  0
 68 86  1  0  0  0
 71 72  2  0  0  0
 71 73  1  0  0  0
 71157  1  0  0  0
 72 74  1  0  0  0
 72158  1  0  0  0
 73 75  2  0  0  0
 73159  1  0  0  0
 74 79  2  0  0  0
 74160  1  0  0  0
 75 79  1  0  0  0
 75161  1  0  0  0
 76 77  2  0  0  0
 76 80  1  0  0  0
 76162  1  0  0  0
 77 81  1  0  0  0
 77163  1  0  0  0
 78 80  2  0  0  0
 78 82  1  0  0  0
 78164  1  0  0  0
 79 83  1  0  0  0
 80 84  1  0  0  0
 81 82  2  0  0  0
 81 92  1  0  0  0
 82 95  1  0  0  0
 83 92  1  0  0  0
 83 94  2  0  0  0
 84 85  1  0  0  0
 84165  1  0  0  0
 84166  1  0  0  0
 85 93  1  0  0  0
 85167  1  0  0  0
 85168  1  0  0  0
 86 88  1  0  0  0
 86169  1  0  0  0
 86170  1  0  0  0
 87 89  1  0  0  0
 87 95  1  0  0  0
 87171  1  0  0  0
 87172  1  0  0  0
 88 96  1  0  0  0
 88173  1  0  0  0
 88174  1  0  0  0
 89 97  1  0  0  0
 89175  1  0  0  0
 89176  1  0  0  0
 90 91  1  0  0  0
 90 96  1  0  0  0
 90177  1  0  0  0
 90178  1  0  0  0
 91 97  1  0  0  0
 91179  1  0  0  0
 91180  1  0  0  0
 92181  1  0  0  0
 93182  1  0  0  0
M  ISO  4   1 100  68 101  86 101  93 100
M  END
> <chiral flag>
0

> <version>
0

> <s_m_source_file>
/data/baiqing/PycharmProjects/Reinvent-master-3.2/result/LINK_invent/BTK/process_docking_weight1_custom_product_contain_oxygen_bond_distance_aromatic_linkinvent_7_9_3/rearranged_h_0000.sdf

> <i_m_source_file_index>
25

> <r_mmod_Potential_Energy-OPLS-2005>
-88.3926467895508

> <r_mmod_Stretch_Energy-OPLS-2005>
33.5140113830566

> <r_mmod_Bend_Energy-OPLS-2005>
98.6875228881836

> <r_mmod_Torsional_Energy-OPLS-2005>
258.744873046875

> <r_mmod_Improper_Torsional_Energy-OPLS-2005>
4.83742570877075

> <r_mmod_Van_der_Waal_Energy-OPLS-2005>
167.283157348633

> <r_mmod_Electrostatic_Energy-OPLS-2005>
-426.445678710938

> <r_mmod_Solvation_Energy-OPLS-2005>
-232.90478515625

> <b_mmod_Minimization_Converged-OPLS-2005>
0

> <r_mmod_RMS_Derivative-OPLS-2005>
2.02001976966858

$$$$
25
                    3D
 Structure written by MMmdl.
155163  0  0  1  0            999 V2000
  -30.7001  -14.4330   20.6315 C   0  0  0  0  0  0
  -30.4325  -12.3038   19.4060 C   0  0  0  0  0  0
  -29.4962  -12.5237   18.1994 C   0  0  0  0  0  0
  -28.0167  -12.3802   18.6095 C   0  0  0  0  0  0
  -27.6681  -13.1984   19.8811 C   0  0  2  0  0  0
  -28.7055  -12.9310   20.9936 C   0  0  0  0  0  0
  -25.2621  -13.8152   20.5674 C   0  0  0  0  0  0
  -24.1852  -13.0441   20.9146 C   0  0  0  0  0  0
  -24.6390  -11.6902   20.8708 C   0  0  0  0  0  0
  -23.9037  -10.4296   21.0391 C   0  0  0  0  0  0
  -24.3606   -9.4221   21.9173 C   0  0  0  0  0  0
  -23.6280   -8.2252   22.0748 C   0  0  0  0  0  0
  -22.4264   -8.0285   21.3536 C   0  0  0  0  0  0
  -21.9885   -9.0256   20.4641 C   0  0  0  0  0  0
  -22.7205  -10.2140   20.3050 C   0  0  0  0  0  0
  -21.6857   -6.0731   22.5279 C   0  0  0  0  0  0
  -21.4017   -6.5637   23.8209 C   0  0  0  0  0  0
  -21.3661   -5.6784   24.9171 C   0  0  0  0  0  0
  -21.6044   -4.3047   24.7221 C   0  0  0  0  0  0
  -21.8825   -3.8138   23.4340 C   0  0  0  0  0  0
  -21.9193   -4.6959   22.3397 C   0  0  0  0  0  0
  -22.7881  -13.5254   21.1826 C   0  0  0  0  0  0
  -22.1660   -4.2138   21.0976 F   0  0  0  0  0  0
  -21.5629   -3.4534   25.7730 F   0  0  0  0  0  0
  -30.0461  -13.2512   20.4625 N   0  0  0  0  0  0
  -26.3051  -12.9301   20.3364 N   0  0  0  0  0  0
  -25.9313  -11.6468   20.5738 N   0  0  0  0  0  0
  -22.0505  -12.8259   22.0386 N   0  0  0  0  0  0
  -25.4373  -15.1875   20.4134 N   0  0  0  0  0  0
  -31.7751  -14.6902   20.0770 O   0  0  0  0  0  0
  -21.6644   -6.8874   21.4239 O   0  0  0  0  0  0
  -22.3560  -14.5554   20.6663 O   0  0  0  0  0  0
  -24.6105  -31.8705   23.2120 C   0  0  0  0  0  0
  -25.9010  -32.4839   23.8410 C   0  0  1  0  0  0
  -27.2475  -27.4525   20.1040 C   0  0  0  0  0  0
  -25.5882  -33.8636   24.2343 N   0  0  0  0  0  0
  -23.3991  -30.4917   21.5509 C   0  0  2  0  0  0
  -24.8508  -28.9572   20.1209 C   0  0  0  0  0  0
  -22.7393  -29.4658   22.4993 C   0  0  0  0  0  0
  -18.0266  -28.1366   22.8499 C   0  0  0  0  0  0
  -24.1484  -36.7317   23.2640 C   0  0  0  0  0  0
  -25.9253  -30.8407   21.3644 C   0  0  0  0  0  0
  -26.0064  -29.4726   20.7212 C   0  0  0  0  0  0
  -27.2078  -28.7289   20.7156 C   0  0  0  0  0  0
  -26.0783  -26.9541   19.4950 C   0  0  0  0  0  0
  -24.8796  -27.6928   19.5068 C   0  0  0  0  0  0
  -23.6099  -29.8209   20.1668 C   0  0  0  0  0  0
  -25.4107  -36.3122   24.0342 C   0  0  1  0  0  0
  -20.5856  -28.3650   23.1322 C   0  0  2  0  0  0
  -20.6751  -26.9385   22.5418 C   0  0  0  0  0  0
  -19.5730  -26.6376   21.5209 C   0  0  0  0  0  0
  -18.1910  -26.7913   22.1627 C   0  0  0  0  0  0
  -19.1515  -28.8822   23.2911 C   0  0  0  0  0  0
  -18.9450  -30.1428   23.8920 C   0  0  0  0  0  0
  -17.6452  -30.6577   24.0562 C   0  0  0  0  0  0
  -25.9031  -34.9484   23.5137 C   0  0  0  0  0  0
  -16.5341  -29.9080   23.6325 C   0  0  0  0  0  0
  -16.7254  -28.6491   23.0354 C   0  0  0  0  0  0
  -26.4457  -31.6609   25.0722 C   0  0  0  0  0  0
  -25.3741  -31.3718   26.1487 C   0  0  0  0  0  0
  -27.0275  -30.3052   24.6077 C   0  0  0  0  0  0
  -27.6047  -32.4323   25.7465 C   0  0  0  0  0  0
  -27.5580  -37.1816   24.8468 C   0  0  0  0  0  0
  -21.4120  -29.3025   22.3735 N   0  0  0  0  0  0
  -26.4299  -37.3795   23.9402 N   0  0  0  0  0  0
  -24.6627  -31.0820   22.1012 N   0  0  0  0  0  0
  -23.4168  -28.8206   23.3033 O   0  0  0  0  0  0
  -28.3832  -26.6779   19.9989 O   0  0  0  0  0  0
  -26.5599  -34.8930   22.4705 O   0  0  0  0  0  0
  -23.5305  -32.1452   23.7525 O   0  0  0  0  0  0
  -29.1114  -17.3386   22.3126 C   0  0  0  0  0  0
  -30.8167  -17.5497   20.5949 C   0  0  0  0  0  0
  -28.9607  -18.7386   22.3342 C   0  0  0  0  0  0
  -30.6736  -18.9567   20.6288 C   0  0  0  0  0  0
  -30.0336  -16.7233   21.4390 C   0  0  0  0  0  0
  -29.7400  -19.5656   21.5024 C   0  0  0  0  0  0
  -30.5885  -21.8113   21.2433 C   0  0  0  0  0  0
  -29.2540  -26.5528   21.1248 C   0  0  0  0  0  0
  -30.3507  -23.1835   21.9154 C   0  0  0  0  0  0
  -29.0570  -25.2012   21.8473 C   0  0  0  0  0  0
  -30.0716  -15.2959   21.4498 N   0  0  0  0  0  0
  -29.5222  -20.9262   21.5878 O   0  0  0  0  0  0
  -29.5837  -24.0871   21.1109 O   0  0  0  0  0  0
  -31.4739  -12.4235   19.1003 H   0  0  0  0  0  0
  -30.3486  -11.2802   19.7748 H   0  0  0  0  0  0
  -29.7331  -11.8144   17.4049 H   0  0  0  0  0  0
  -29.6648  -13.5177   17.7815 H   0  0  0  0  0  0
  -27.8218  -11.3216   18.7841 H   0  0  0  0  0  0
  -27.3684  -12.6762   17.7842 H   0  0  0  0  0  0
  -27.7260  -14.2535   19.6131 H   0  0  0  0  0  0
  -28.6785  -11.8790   21.2836 H   0  0  0  0  0  0
  -28.4478  -13.4782   21.9007 H   0  0  0  0  0  0
  -25.2763   -9.5696   22.4723 H   0  0  0  0  0  0
  -23.9991   -7.4656   22.7476 H   0  0  0  0  0  0
  -21.0803   -8.8780   19.8959 H   0  0  0  0  0  0
  -22.3667  -10.9678   19.6152 H   0  0  0  0  0  0
  -21.2019   -7.6146   23.9708 H   0  0  0  0  0  0
  -21.1472   -6.0516   25.9066 H   0  0  0  0  0  0
  -22.0601   -2.7599   23.2853 H   0  0  0  0  0  0
  -22.4109  -11.9928   22.4801 H   0  0  0  0  0  0
  -21.1131  -13.1314   22.2592 H   0  0  0  0  0  0
  -24.6798  -15.8500   20.5367 H   0  0  0  0  0  0
  -26.3028  -15.6259   20.1229 H   0  0  0  0  0  0
  -26.7083  -32.5571   23.1188 H   0  0  0  0  0  0
  -25.0026  -33.9803   25.0479 H   0  0  0  0  0  0
  -22.6863  -31.3069   21.4111 H   0  0  0  0  0  0
  -23.3731  -35.9669   23.3344 H   0  0  0  0  0  0
  -24.3568  -36.8881   22.2045 H   0  0  0  0  0  0
  -23.7258  -37.6548   23.6618 H   0  0  0  0  0  0
  -26.0343  -31.6035   20.5923 H   0  0  0  0  0  0
  -26.8144  -30.8997   21.9800 H   0  0  0  0  0  0
  -28.0983  -29.1547   21.1555 H   0  0  0  0  0  0
  -26.0995  -25.9884   19.0093 H   0  0  0  0  0  0
  -23.9937  -27.2890   19.0360 H   0  0  0  0  0  0
  -23.7164  -30.5957   19.4069 H   0  0  0  0  0  0
  -22.7355  -29.2381   19.8707 H   0  0  0  0  0  0
  -25.1285  -36.2002   25.0838 H   0  0  0  0  0  0
  -20.9952  -28.3215   24.1438 H   0  0  0  0  0  0
  -20.5629  -26.2259   23.3602 H   0  0  0  0  0  0
  -21.6625  -26.7407   22.1226 H   0  0  0  0  0  0
  -19.6886  -25.6294   21.1212 H   0  0  0  0  0  0
  -19.6668  -27.3205   20.6755 H   0  0  0  0  0  0
  -17.4176  -26.6657   21.4034 H   0  0  0  0  0  0
  -18.0318  -26.0046   22.9015 H   0  0  0  0  0  0
  -19.7926  -30.7231   24.2304 H   0  0  0  0  0  0
  -17.5009  -31.6262   24.5156 H   0  0  0  0  0  0
  -15.5343  -30.2991   23.7631 H   0  0  0  0  0  0
  -15.8655  -28.0809   22.7069 H   0  0  0  0  0  0
  -24.5893  -30.7087   25.7835 H   0  0  0  0  0  0
  -24.8962  -32.2878   26.4972 H   0  0  0  0  0  0
  -25.8105  -30.8860   27.0223 H   0  0  0  0  0  0
  -26.2804  -29.6823   24.1144 H   0  0  0  0  0  0
  -27.4065  -29.7281   25.4523 H   0  0  0  0  0  0
  -27.8635  -30.4376   23.9206 H   0  0  0  0  0  0
  -27.2681  -33.3617   26.2074 H   0  0  0  0  0  0
  -28.3832  -32.6895   25.0267 H   0  0  0  0  0  0
  -28.0743  -31.8428   26.5351 H   0  0  0  0  0  0
  -28.2634  -38.0077   24.7476 H   0  0  0  0  0  0
  -28.1038  -36.2611   24.6342 H   0  0  0  0  0  0
  -27.2289  -37.1530   25.8870 H   0  0  0  0  0  0
  -20.9268  -29.8764   21.6983 H   0  0  0  0  0  0
  -26.0196  -38.2881   24.1387 H   0  0  0  0  0  0
  -28.4944  -16.7412   22.9698 H   0  0  0  0  0  0
  -31.5287  -17.1292   19.9002 H   0  0  0  0  0  0
  -28.2403  -19.1840   23.0055 H   0  0  0  0  0  0
  -31.2769  -19.5528   19.9596 H   0  0  0  0  0  0
  -31.5216  -21.4004   21.6345 H   0  0  0  0  0  0
  -30.7026  -21.9080   20.1631 H   0  0  0  0  0  0
  -30.2845  -26.6459   20.7815 H   0  0  0  0  0  0
  -29.1082  -27.3525   21.8497 H   0  0  0  0  0  0
  -31.3150  -23.6575   22.1086 H   0  0  0  0  0  0
  -29.8819  -23.0245   22.8885 H   0  0  0  0  0  0
  -28.0011  -25.0276   22.0582 H   0  0  0  0  0  0
  -29.5487  -25.2843   22.8186 H   0  0  0  0  0  0
  -29.3299  -14.8604   21.9767 H   0  0  0  0  0  0
  1 25  1  0  0  0
  1 30  2  0  0  0
  1 81  1  0  0  0
  2  3  1  0  0  0
  2 25  1  0  0  0
  2 84  1  0  0  0
  2 85  1  0  0  0
  3  4  1  0  0  0
  3 86  1  0  0  0
  3 87  1  0  0  0
  4  5  1  0  0  0
  4 88  1  0  0  0
  4 89  1  0  0  0
  5  6  1  0  0  0
  5 26  1  0  0  0
  5 90  1  0  0  0
  6 25  1  0  0  0
  6 91  1  0  0  0
  6 92  1  0  0  0
  7  8  2  0  0  0
  7 26  1  0  0  0
  7 29  1  0  0  0
  8  9  1  0  0  0
  8 22  1  0  0  0
  9 10  1  0  0  0
  9 27  2  0  0  0
 10 11  2  0  0  0
 10 15  1  0  0  0
 11 12  1  0  0  0
 11 93  1  0  0  0
 12 13  2  0  0  0
 12 94  1  0  0  0
 13 14  1  0  0  0
 13 31  1  0  0  0
 14 15  2  0  0  0
 14 95  1  0  0  0
 15 96  1  0  0  0
 16 17  2  0  0  0
 16 21  1  0  0  0
 16 31  1  0  0  0
 17 18  1  0  0  0
 17 97  1  0  0  0
 18 19  2  0  0  0
 18 98  1  0  0  0
 19 20  1  0  0  0
 19 24  1  0  0  0
 20 21  2  0  0  0
 20 99  1  0  0  0
 21 23  1  0  0  0
 22 28  1  0  0  0
 22 32  2  0  0  0
 26 27  1  0  0  0
 28100  1  0  0  0
 28101  1  0  0  0
 29102  1  0  0  0
 29103  1  0  0  0
 33 34  1  0  0  0
 33 66  1  0  0  0
 33 70  2  0  0  0
 34 36  1  0  0  0
 34 59  1  0  0  0
 34104  1  0  0  0
 35 44  2  0  0  0
 35 45  1  0  0  0
 35 68  1  0  0  0
 36 56  1  0  0  0
 36105  1  0  0  0
 37 39  1  0  0  0
 37 47  1  0  0  0
 37 66  1  0  0  0
 37106  1  0  0  0
 38 43  2  0  0  0
 38 46  1  0  0  0
 38 47  1  0  0  0
 39 64  1  0  0  0
 39 67  2  0  0  0
 40 52  1  0  0  0
 40 53  2  0  0  0
 40 58  1  0  0  0
 41107  1  0  0  0
 41108  1  0  0  0
 41109  1  0  0  0
 41 48  1  0  0  0
 42 43  1  0  0  0
 42 66  1  0  0  0
 42110  1  0  0  0
 42111  1  0  0  0
 43 44  1  0  0  0
 44112  1  0  0  0
 45 46  2  0  0  0
 45113  1  0  0  0
 46114  1  0  0  0
 47115  1  0  0  0
 47116  1  0  0  0
 48 56  1  0  0  0
 48 65  1  0  0  0
 48117  1  0  0  0
 49 50  1  0  0  0
 49 53  1  0  0  0
 49 64  1  0  0  0
 49118  1  0  0  0
 50 51  1  0  0  0
 50119  1  0  0  0
 50120  1  0  0  0
 51 52  1  0  0  0
 51121  1  0  0  0
 51122  1  0  0  0
 52123  1  0  0  0
 52124  1  0  0  0
 53 54  1  0  0  0
 54 55  2  0  0  0
 54125  1  0  0  0
 55 57  1  0  0  0
 55126  1  0  0  0
 56 69  2  0  0  0
 57 58  2  0  0  0
 57127  1  0  0  0
 58128  1  0  0  0
 59 60  1  0  0  0
 59 61  1  0  0  0
 59 62  1  0  0  0
 60129  1  0  0  0
 60130  1  0  0  0
 60131  1  0  0  0
 61132  1  0  0  0
 61133  1  0  0  0
 61134  1  0  0  0
 62135  1  0  0  0
 62136  1  0  0  0
 62137  1  0  0  0
 63 65  1  0  0  0
 63138  1  0  0  0
 63139  1  0  0  0
 63140  1  0  0  0
 64141  1  0  0  0
 65142  1  0  0  0
 68 78  1  0  0  0
 71 73  2  0  0  0
 71 75  1  0  0  0
 71143  1  0  0  0
 72 74  1  0  0  0
 72 75  2  0  0  0
 72144  1  0  0  0
 73 76  1  0  0  0
 73145  1  0  0  0
 74 76  2  0  0  0
 74146  1  0  0  0
 75 81  1  0  0  0
 76 82  1  0  0  0
 77 79  1  0  0  0
 77 82  1  0  0  0
 77147  1  0  0  0
 77148  1  0  0  0
 78 80  1  0  0  0
 78149  1  0  0  0
 78150  1  0  0  0
 79 83  1  0  0  0
 79151  1  0  0  0
 79152  1  0  0  0
 80 83  1  0  0  0
 80153  1  0  0  0
 80154  1  0  0  0
 81155  1  0  0  0
M  ISO  4   1 100  68 101  78 101  81 100
M  END
> <chiral flag>
0

> <version>
0

> <s_m_source_file>
/data/baiqing/PycharmProjects/Reinvent-master-3.2/result/LINK_invent/BTK/process_docking_weight1_custom_product_contain_oxygen_bond_distance_aromatic_linkinvent_7_9_3/rearranged_h_0000.sdf

> <i_m_source_file_index>
26

> <r_mmod_Potential_Energy-OPLS-2005>
-38.9534530639648

> <r_mmod_Stretch_Energy-OPLS-2005>
36.528636932373

> <r_mmod_Bend_Energy-OPLS-2005>
112.419082641602

> <r_mmod_Torsional_Energy-OPLS-2005>
225.387420654297

> <r_mmod_Improper_Torsional_Energy-OPLS-2005>
2.91311573982239

> <r_mmod_Van_der_Waal_Energy-OPLS-2005>
157.983779907227

> <r_mmod_Electrostatic_Energy-OPLS-2005>
-361.997161865234

> <r_mmod_Solvation_Energy-OPLS-2005>
-220.296997070312

> <b_mmod_Minimization_Converged-OPLS-2005>
0

> <r_mmod_RMS_Derivative-OPLS-2005>
1.65285289287567

$$$$
26
                    3D
 Structure written by MMmdl.
150157  0  0  1  0            999 V2000
  -30.6623  -14.5678   20.5389 C   0  0  0  0  0  0
  -30.4350  -12.3358   19.4355 C   0  0  0  0  0  0
  -29.5045  -12.5042   18.2151 C   0  0  0  0  0  0
  -28.0242  -12.3551   18.6246 C   0  0  0  0  0  0
  -27.6553  -13.2127   19.8658 C   0  0  2  0  0  0
  -28.6896  -13.0276   20.9947 C   0  0  0  0  0  0
  -25.2564  -13.8171   20.5672 C   0  0  0  0  0  0
  -24.1822  -13.0438   20.9165 C   0  0  0  0  0  0
  -24.6384  -11.6906   20.8716 C   0  0  0  0  0  0
  -23.9054  -10.4293   21.0397 C   0  0  0  0  0  0
  -24.3613   -9.4212   21.9179 C   0  0  0  0  0  0
  -23.6292   -8.2244   22.0753 C   0  0  0  0  0  0
  -22.4273   -8.0281   21.3544 C   0  0  0  0  0  0
  -21.9903   -9.0249   20.4647 C   0  0  0  0  0  0
  -22.7225  -10.2130   20.3050 C   0  0  0  0  0  0
  -21.6854   -6.0736   22.5277 C   0  0  0  0  0  0
  -21.4014   -6.5641   23.8209 C   0  0  0  0  0  0
  -21.3658   -5.6795   24.9174 C   0  0  0  0  0  0
  -21.6045   -4.3056   24.7227 C   0  0  0  0  0  0
  -21.8818   -3.8148   23.4347 C   0  0  0  0  0  0
  -21.9194   -4.6964   22.3403 C   0  0  0  0  0  0
  -22.7848  -13.5231   21.1849 C   0  0  0  0  0  0
  -22.1662   -4.2148   21.0980 F   0  0  0  0  0  0
  -21.5630   -3.4539   25.7740 F   0  0  0  0  0  0
  -30.0167  -13.3202   20.4419 N   0  0  0  0  0  0
  -26.2986  -12.9346   20.3304 N   0  0  0  0  0  0
  -25.9306  -11.6499   20.5725 N   0  0  0  0  0  0
  -22.0507  -12.8213   22.0411 N   0  0  0  0  0  0
  -25.4301  -15.1894   20.4127 N   0  0  0  0  0  0
  -31.7993  -14.7981   20.1220 O   0  0  0  0  0  0
  -21.6643   -6.8875   21.4237 O   0  0  0  0  0  0
  -22.3524  -14.5537   20.6710 O   0  0  0  0  0  0
  -24.6196  -31.8641   23.2038 C   0  0  0  0  0  0
  -25.9069  -32.4800   23.8355 C   0  0  1  0  0  0
  -27.2335  -27.3805   20.1159 C   0  0  0  0  0  0
  -25.5913  -33.8600   24.2296 N   0  0  0  0  0  0
  -23.4102  -30.4847   21.5456 C   0  0  2  0  0  0
  -24.8576  -28.9363   20.1192 C   0  0  0  0  0  0
  -22.7435  -29.4644   22.4971 C   0  0  0  0  0  0
  -18.0279  -28.1374   22.8493 C   0  0  0  0  0  0
  -24.1490  -36.7307   23.2641 C   0  0  0  0  0  0
  -25.9429  -30.8139   21.3626 C   0  0  0  0  0  0
  -26.0207  -29.4416   20.7140 C   0  0  0  0  0  0
  -27.2143  -28.6747   20.7000 C   0  0  0  0  0  0
  -26.0526  -26.8966   19.5178 C   0  0  0  0  0  0
  -24.8712  -27.6658   19.5151 C   0  0  0  0  0  0
  -23.6221  -29.8102   20.1634 C   0  0  0  0  0  0
  -25.4113  -36.3099   24.0333 C   0  0  1  0  0  0
  -20.5874  -28.3672   23.1306 C   0  0  2  0  0  0
  -20.6772  -26.9404   22.5416 C   0  0  0  0  0  0
  -19.5750  -26.6383   21.5214 C   0  0  0  0  0  0
  -18.1927  -26.7921   22.1624 C   0  0  0  0  0  0
  -19.1528  -28.8839   23.2897 C   0  0  0  0  0  0
  -18.9457  -30.1446   23.8908 C   0  0  0  0  0  0
  -17.6460  -30.6583   24.0563 C   0  0  0  0  0  0
  -25.9047  -34.9466   23.5115 C   0  0  0  0  0  0
  -16.5351  -29.9083   23.6325 C   0  0  0  0  0  0
  -16.7267  -28.6497   23.0349 C   0  0  0  0  0  0
  -26.4478  -31.6584   25.0699 C   0  0  0  0  0  0
  -25.3731  -31.3693   26.1437 C   0  0  0  0  0  0
  -27.0314  -30.3025   24.6095 C   0  0  0  0  0  0
  -27.6055  -32.4297   25.7465 C   0  0  0  0  0  0
  -27.5577  -37.1809   24.8465 C   0  0  0  0  0  0
  -21.4159  -29.3038   22.3710 N   0  0  0  0  0  0
  -26.4292  -37.3789   23.9407 N   0  0  0  0  0  0
  -24.6760  -31.0702   22.0954 N   0  0  0  0  0  0
  -23.4185  -28.8195   23.3037 O   0  0  0  0  0  0
  -28.3900  -26.6187   20.0764 O   0  0  0  0  0  0
  -26.5609  -34.8926   22.4679 O   0  0  0  0  0  0
  -23.5377  -32.1411   23.7408 O   0  0  0  0  0  0
  -28.3956  -25.3422   20.7774 C   0  0  0  0  0  0
  -30.2206  -16.9199   21.2653 C   0  0  0  0  0  0
  -28.1547  -24.0250   19.9564 C   0  0  0  0  0  0
  -29.7994  -17.9943   20.1999 C   0  0  0  0  0  0
  -28.3761  -21.5706   20.0436 C   0  0  0  0  0  0
  -29.4044  -20.3949   19.8226 C   0  0  0  0  0  0
  -29.8140  -15.5466   21.0316 O   0  0  0  0  0  0
  -28.9132  -22.8682   20.4184 O   0  0  0  0  0  0
  -29.3562  -19.2724   20.7454 O   0  0  0  0  0  0
  -31.4780  -12.4671   19.1420 H   0  0  0  0  0  0
  -30.3582  -11.3276   19.8447 H   0  0  0  0  0  0
  -29.7545  -11.7712   17.4468 H   0  0  0  0  0  0
  -29.6620  -13.4856   17.7644 H   0  0  0  0  0  0
  -27.8459  -11.3006   18.8383 H   0  0  0  0  0  0
  -27.3742  -12.6084   17.7862 H   0  0  0  0  0  0
  -27.6910  -14.2561   19.5511 H   0  0  0  0  0  0
  -28.6684  -12.0027   21.3675 H   0  0  0  0  0  0
  -28.4502  -13.6602   21.8509 H   0  0  0  0  0  0
  -25.2760   -9.5695   22.4749 H   0  0  0  0  0  0
  -24.0008   -7.4637   22.7470 H   0  0  0  0  0  0
  -21.0834   -8.8759   19.8953 H   0  0  0  0  0  0
  -22.3677  -10.9667   19.6156 H   0  0  0  0  0  0
  -21.2001   -7.6148   23.9709 H   0  0  0  0  0  0
  -21.1483   -6.0529   25.9075 H   0  0  0  0  0  0
  -22.0599   -2.7610   23.2849 H   0  0  0  0  0  0
  -22.4133  -11.9863   22.4772 H   0  0  0  0  0  0
  -21.1129  -13.1233   22.2644 H   0  0  0  0  0  0
  -24.6714  -15.8514   20.5348 H   0  0  0  0  0  0
  -26.2984  -15.6278   20.1313 H   0  0  0  0  0  0
  -26.7140  -32.5497   23.1114 H   0  0  0  0  0  0
  -25.0073  -33.9747   25.0447 H   0  0  0  0  0  0
  -22.7016  -31.3029   21.4010 H   0  0  0  0  0  0
  -23.3746  -35.9646   23.3312 H   0  0  0  0  0  0
  -24.3580  -36.8914   22.2053 H   0  0  0  0  0  0
  -23.7247  -37.6519   23.6648 H   0  0  0  0  0  0
  -26.0593  -31.5749   20.5892 H   0  0  0  0  0  0
  -26.8295  -30.8706   21.9826 H   0  0  0  0  0  0
  -28.1163  -29.0660   21.1500 H   0  0  0  0  0  0
  -26.0464  -25.9255   19.0441 H   0  0  0  0  0  0
  -23.9780  -27.2726   19.0493 H   0  0  0  0  0  0
  -23.7343  -30.5818   19.4011 H   0  0  0  0  0  0
  -22.7442  -29.2328   19.8671 H   0  0  0  0  0  0
  -25.1288  -36.1964   25.0825 H   0  0  0  0  0  0
  -20.9966  -28.3243   24.1425 H   0  0  0  0  0  0
  -20.5682  -26.2279   23.3608 H   0  0  0  0  0  0
  -21.6642  -26.7447   22.1204 H   0  0  0  0  0  0
  -19.6919  -25.6298   21.1232 H   0  0  0  0  0  0
  -19.6688  -27.3206   20.6754 H   0  0  0  0  0  0
  -17.4201  -26.6673   21.4022 H   0  0  0  0  0  0
  -18.0327  -26.0053   22.9009 H   0  0  0  0  0  0
  -19.7936  -30.7257   24.2280 H   0  0  0  0  0  0
  -17.5015  -31.6264   24.5164 H   0  0  0  0  0  0
  -15.5351  -30.2991   23.7641 H   0  0  0  0  0  0
  -15.8665  -28.0821   22.7058 H   0  0  0  0  0  0
  -24.5915  -30.7032   25.7759 H   0  0  0  0  0  0
  -24.8904  -32.2846   26.4878 H   0  0  0  0  0  0
  -25.8071  -30.8861   27.0199 H   0  0  0  0  0  0
  -26.2862  -29.6782   24.1152 H   0  0  0  0  0  0
  -27.4082  -29.7267   25.4559 H   0  0  0  0  0  0
  -27.8695  -30.4332   23.9243 H   0  0  0  0  0  0
  -27.2686  -33.3594   26.2060 H   0  0  0  0  0  0
  -28.3858  -32.6862   25.0286 H   0  0  0  0  0  0
  -28.0730  -31.8404   26.5364 H   0  0  0  0  0  0
  -28.2608  -38.0096   24.7507 H   0  0  0  0  0  0
  -28.1058  -36.2628   24.6294 H   0  0  0  0  0  0
  -27.2289  -37.1463   25.8866 H   0  0  0  0  0  0
  -20.9330  -29.8751   21.6917 H   0  0  0  0  0  0
  -26.0182  -38.2870   24.1397 H   0  0  0  0  0  0
  -29.3934  -25.2724   21.2103 H   0  0  0  0  0  0
  -27.7208  -25.3738   21.6343 H   0  0  0  0  0  0
  -29.7504  -17.1971   22.2086 H   0  0  0  0  0  0
  -31.2937  -16.9791   21.4540 H   0  0  0  0  0  0
  -28.4258  -24.1942   18.9136 H   0  0  0  0  0  0
  -27.0859  -23.8055   19.9637 H   0  0  0  0  0  0
  -28.9845  -17.5999   19.5914 H   0  0  0  0  0  0
  -30.6403  -18.1471   19.5217 H   0  0  0  0  0  0
  -27.6201  -21.2774   20.7721 H   0  0  0  0  0  0
  -27.8354  -21.6928   19.1032 H   0  0  0  0  0  0
  -30.4213  -20.7873   19.7924 H   0  0  0  0  0  0
  -29.2173  -20.0058   18.8199 H   0  0  0  0  0  0
  1 25  1  0  0  0
  1 30  2  0  0  0
  1 77  1  0  0  0
  2  3  1  0  0  0
  2 25  1  0  0  0
  2 80  1  0  0  0
  2 81  1  0  0  0
  3  4  1  0  0  0
  3 82  1  0  0  0
  3 83  1  0  0  0
  4  5  1  0  0  0
  4 84  1  0  0  0
  4 85  1  0  0  0
  5  6  1  0  0  0
  5 26  1  0  0  0
  5 86  1  0  0  0
  6 25  1  0  0  0
  6 87  1  0  0  0
  6 88  1  0  0  0
  7  8  2  0  0  0
  7 26  1  0  0  0
  7 29  1  0  0  0
  8  9  1  0  0  0
  8 22  1  0  0  0
  9 10  1  0  0  0
  9 27  2  0  0  0
 10 11  2  0  0  0
 10 15  1  0  0  0
 11 12  1  0  0  0
 11 89  1  0  0  0
 12 13  2  0  0  0
 12 90  1  0  0  0
 13 14  1  0  0  0
 13 31  1  0  0  0
 14 15  2  0  0  0
 14 91  1  0  0  0
 15 92  1  0  0  0
 16 17  2  0  0  0
 16 21  1  0  0  0
 16 31  1  0  0  0
 17 18  1  0  0  0
 17 93  1  0  0  0
 18 19  2  0  0  0
 18 94  1  0  0  0
 19 20  1  0  0  0
 19 24  1  0  0  0
 20 21  2  0  0  0
 20 95  1  0  0  0
 21 23  1  0  0  0
 22 28  1  0  0  0
 22 32  2  0  0  0
 26 27  1  0  0  0
 28 96  1  0  0  0
 28 97  1  0  0  0
 29 98  1  0  0  0
 29 99  1  0  0  0
 33 34  1  0  0  0
 33 66  1  0  0  0
 33 70  2  0  0  0
 34 36  1  0  0  0
 34 59  1  0  0  0
 34100  1  0  0  0
 35 44  2  0  0  0
 35 45  1  0  0  0
 35 68  1  0  0  0
 36 56  1  0  0  0
 36101  1  0  0  0
 37 39  1  0  0  0
 37 47  1  0  0  0
 37 66  1  0  0  0
 37102  1  0  0  0
 38 43  2  0  0  0
 38 46  1  0  0  0
 38 47  1  0  0  0
 39 64  1  0  0  0
 39 67  2  0  0  0
 40 52  1  0  0  0
 40 53  2  0  0  0
 40 58  1  0  0  0
 41103  1  0  0  0
 41104  1  0  0  0
 41105  1  0  0  0
 41 48  1  0  0  0
 42 43  1  0  0  0
 42 66  1  0  0  0
 42106  1  0  0  0
 42107  1  0  0  0
 43 44  1  0  0  0
 44108  1  0  0  0
 45 46  2  0  0  0
 45109  1  0  0  0
 46110  1  0  0  0
 47111  1  0  0  0
 47112  1  0  0  0
 48 56  1  0  0  0
 48 65  1  0  0  0
 48113  1  0  0  0
 49 50  1  0  0  0
 49 53  1  0  0  0
 49 64  1  0  0  0
 49114  1  0  0  0
 50 51  1  0  0  0
 50115  1  0  0  0
 50116  1  0  0  0
 51 52  1  0  0  0
 51117  1  0  0  0
 51118  1  0  0  0
 52119  1  0  0  0
 52120  1  0  0  0
 53 54  1  0  0  0
 54 55  2  0  0  0
 54121  1  0  0  0
 55 57  1  0  0  0
 55122  1  0  0  0
 56 69  2  0  0  0
 57 58  2  0  0  0
 57123  1  0  0  0
 58124  1  0  0  0
 59 60  1  0  0  0
 59 61  1  0  0  0
 59 62  1  0  0  0
 60125  1  0  0  0
 60126  1  0  0  0
 60127  1  0  0  0
 61128  1  0  0  0
 61129  1  0  0  0
 61130  1  0  0  0
 62131  1  0  0  0
 62132  1  0  0  0
 62133  1  0  0  0
 63 65  1  0  0  0
 63134  1  0  0  0
 63135  1  0  0  0
 63136  1  0  0  0
 64137  1  0  0  0
 65138  1  0  0  0
 68 71  1  0  0  0
 71 73  1  0  0  0
 71139  1  0  0  0
 71140  1  0  0  0
 72 74  1  0  0  0
 72 77  1  0  0  0
 72141  1  0  0  0
 72142  1  0  0  0
 73 78  1  0  0  0
 73143  1  0  0  0
 73144  1  0  0  0
 74 79  1  0  0  0
 74145  1  0  0  0
 74146  1  0  0  0
 75 76  1  0  0  0
 75 78  1  0  0  0
 75147  1  0  0  0
 75148  1  0  0  0
 76 79  1  0  0  0
 76149  1  0  0  0
 76150  1  0  0  0
M  ISO  4   1 100  68 101  71 101  77 100
M  END
> <chiral flag>
0

> <version>
0

> <s_m_source_file>
/data/baiqing/PycharmProjects/Reinvent-master-3.2/result/LINK_invent/BTK/process_docking_weight1_custom_product_contain_oxygen_bond_distance_aromatic_linkinvent_7_9_3/rearranged_h_0000.sdf

> <i_m_source_file_index>
27

> <r_mmod_Potential_Energy-OPLS-2005>
4.52846193313599

> <r_mmod_Stretch_Energy-OPLS-2005>
57.1656455993652

> <r_mmod_Bend_Energy-OPLS-2005>
120.624153137207

> <r_mmod_Torsional_Energy-OPLS-2005>
194.531997680664

> <r_mmod_Improper_Torsional_Energy-OPLS-2005>
3.09483981132507

> <r_mmod_Van_der_Waal_Energy-OPLS-2005>
123.415977478027

> <r_mmod_Electrostatic_Energy-OPLS-2005>
-319.977447509766

> <r_mmod_Solvation_Energy-OPLS-2005>
-198.287109375

> <b_mmod_Minimization_Converged-OPLS-2005>
0

> <r_mmod_RMS_Derivative-OPLS-2005>
0.775499224662781

$$$$
27
                    3D
 Structure written by MMmdl.
175184  0  0  1  0            999 V2000
  -30.7230  -14.3875   20.5293 C   0  0  0  0  0  0
  -30.4008  -12.2375   19.4190 C   0  0  0  0  0  0
  -29.4846  -12.4750   18.1992 C   0  0  0  0  0  0
  -28.0028  -12.3582   18.6082 C   0  0  0  0  0  0
  -27.6576  -13.1977   19.8678 C   0  0  2  0  0  0
  -28.6971  -12.9782   20.9942 C   0  0  0  0  0  0
  -25.2580  -13.8142   20.5684 C   0  0  0  0  0  0
  -24.1831  -13.0428   20.9211 C   0  0  0  0  0  0
  -24.6375  -11.6895   20.8754 C   0  0  0  0  0  0
  -23.9038  -10.4292   21.0421 C   0  0  0  0  0  0
  -24.3603   -9.4212   21.9197 C   0  0  0  0  0  0
  -23.6299   -8.2236   22.0761 C   0  0  0  0  0  0
  -22.4279   -8.0284   21.3558 C   0  0  0  0  0  0
  -21.9915   -9.0254   20.4657 C   0  0  0  0  0  0
  -22.7220  -10.2144   20.3069 C   0  0  0  0  0  0
  -21.6846   -6.0750   22.5286 C   0  0  0  0  0  0
  -21.3994   -6.5643   23.8221 C   0  0  0  0  0  0
  -21.3658   -5.6798   24.9187 C   0  0  0  0  0  0
  -21.6050   -4.3060   24.7224 C   0  0  0  0  0  0
  -21.8819   -3.8153   23.4346 C   0  0  0  0  0  0
  -21.9173   -4.6976   22.3408 C   0  0  0  0  0  0
  -22.7849  -13.5234   21.1881 C   0  0  0  0  0  0
  -22.1657   -4.2162   21.0980 F   0  0  0  0  0  0
  -21.5649   -3.4538   25.7737 F   0  0  0  0  0  0
  -30.0355  -13.2249   20.4406 N   0  0  0  0  0  0
  -26.2991  -12.9287   20.3333 N   0  0  0  0  0  0
  -25.9282  -11.6461   20.5757 N   0  0  0  0  0  0
  -22.0487  -12.8239   22.0438 N   0  0  0  0  0  0
  -25.4312  -15.1863   20.4093 N   0  0  0  0  0  0
  -31.8881  -14.5306   20.1343 O   0  0  0  0  0  0
  -21.6653   -6.8880   21.4245 O   0  0  0  0  0  0
  -22.3545  -14.5551   20.6733 O   0  0  0  0  0  0
  -24.6060  -31.8749   23.2157 C   0  0  0  0  0  0
  -25.8989  -32.4859   23.8421 C   0  0  1  0  0  0
  -27.2404  -27.5088   20.0880 C   0  0  0  0  0  0
  -25.5883  -33.8657   24.2358 N   0  0  0  0  0  0
  -23.3897  -30.4980   21.5554 C   0  0  2  0  0  0
  -24.8384  -28.9720   20.1176 C   0  0  0  0  0  0
  -22.7362  -29.4683   22.5030 C   0  0  0  0  0  0
  -18.0256  -28.1372   22.8499 C   0  0  0  0  0  0
  -24.1492  -36.7343   23.2632 C   0  0  0  0  0  0
  -25.9086  -30.8640   21.3565 C   0  0  0  0  0  0
  -25.9901  -29.5005   20.7123 C   0  0  0  0  0  0
  -27.1938  -28.7746   20.7039 C   0  0  0  0  0  0
  -26.0799  -26.9824   19.4830 C   0  0  0  0  0  0
  -24.8741  -27.7070   19.5040 C   0  0  0  0  0  0
  -23.5954  -29.8292   20.1696 C   0  0  0  0  0  0
  -25.4105  -36.3134   24.0342 C   0  0  1  0  0  0
  -20.5843  -28.3640   23.1352 C   0  0  2  0  0  0
  -20.6752  -26.9389   22.5432 C   0  0  0  0  0  0
  -19.5733  -26.6383   21.5222 C   0  0  0  0  0  0
  -18.1908  -26.7919   22.1628 C   0  0  0  0  0  0
  -19.1504  -28.8819   23.2925 C   0  0  0  0  0  0
  -18.9438  -30.1427   23.8932 C   0  0  0  0  0  0
  -17.6446  -30.6580   24.0569 C   0  0  0  0  0  0
  -25.9027  -34.9499   23.5144 C   0  0  0  0  0  0
  -16.5336  -29.9094   23.6320 C   0  0  0  0  0  0
  -16.7249  -28.6511   23.0341 C   0  0  0  0  0  0
  -26.4450  -31.6606   25.0709 C   0  0  0  0  0  0
  -25.3745  -31.3715   26.1481 C   0  0  0  0  0  0
  -27.0243  -30.3051   24.6018 C   0  0  0  0  0  0
  -27.6048  -32.4301   25.7459 C   0  0  0  0  0  0
  -27.5594  -37.1808   24.8454 C   0  0  0  0  0  0
  -21.4100  -29.3025   22.3775 N   0  0  0  0  0  0
  -26.4299  -37.3810   23.9415 N   0  0  0  0  0  0
  -24.6526  -31.0912   22.1027 N   0  0  0  0  0  0
  -23.4175  -28.8213   23.3026 O   0  0  0  0  0  0
  -28.4000  -26.7823   20.0577 O   0  0  0  0  0  0
  -26.5586  -34.8936   22.4703 O   0  0  0  0  0  0
  -23.5279  -32.1468   23.7609 O   0  0  0  0  0  0
  -28.5175  -18.2884   19.3631 C   0  0  0  0  0  0
  -28.9709  -18.4799   21.7471 C   0  0  0  0  0  0
  -27.7343  -19.4513   19.4204 C   0  0  0  0  0  0
  -28.2208  -19.6738   21.7876 C   0  0  0  0  0  0
  -29.1852  -17.8387   20.5131 C   0  0  0  0  0  0
  -27.6788  -20.2338   20.5995 C   0  0  0  0  0  0
  -30.1825  -16.7939   20.3662 C   0  0  0  0  0  0
  -27.1166  -22.3562   21.7691 C   0  0  0  0  0  0
  -27.5948  -22.3072   19.3327 C   0  0  0  0  0  0
  -27.1081  -23.8759   21.4956 C   0  0  0  0  0  0
  -28.7491  -23.2713   19.6771 C   0  0  1  0  0  0
  -30.3096  -22.8503   17.6802 C   0  0  0  0  0  0
  -28.4844  -24.5818   17.4341 C   0  0  0  0  0  0
  -29.3204  -25.0444   21.3644 C   0  0  0  0  0  0
  -28.9775  -26.5362   21.3435 C   0  0  0  0  0  0
  -29.4414  -23.8861   18.4195 C   0  0  0  0  0  0
  -27.1696  -21.5566   20.5303 N   0  0  0  0  0  0
  -29.9160  -15.5394   20.7789 N   0  0  0  0  0  0
  -31.3037  -17.1493   19.7290 N   0  3  0  0  0  0
  -28.2565  -24.3014   20.6373 N   0  3  2  0  0  0
  -31.4517  -12.2922   19.1254 H   0  0  0  0  0  0
  -30.2555  -11.2296   19.8103 H   0  0  0  0  0  0
  -29.7055  -11.7515   17.4128 H   0  0  0  0  0  0
  -29.6755  -13.4593   17.7689 H   0  0  0  0  0  0
  -27.7951  -11.3048   18.7967 H   0  0  0  0  0  0
  -27.3594  -12.6468   17.7766 H   0  0  0  0  0  0
  -27.6991  -14.2435   19.5594 H   0  0  0  0  0  0
  -28.6450  -11.9512   21.3604 H   0  0  0  0  0  0
  -28.4847  -13.6097   21.8588 H   0  0  0  0  0  0
  -25.2747   -9.5702   22.4775 H   0  0  0  0  0  0
  -24.0026   -7.4623   22.7471 H   0  0  0  0  0  0
  -21.0853   -8.8761   19.8958 H   0  0  0  0  0  0
  -22.3674  -10.9696   19.6188 H   0  0  0  0  0  0
  -21.1989   -7.6151   23.9727 H   0  0  0  0  0  0
  -21.1485   -6.0534   25.9093 H   0  0  0  0  0  0
  -22.0597   -2.7612   23.2852 H   0  0  0  0  0  0
  -22.4077  -11.9871   22.4778 H   0  0  0  0  0  0
  -21.1113  -13.1276   22.2653 H   0  0  0  0  0  0
  -24.6545  -15.8301   20.5122 H   0  0  0  0  0  0
  -26.2504  -15.6251   20.0102 H   0  0  0  0  0  0
  -26.7060  -32.5608   23.1200 H   0  0  0  0  0  0
  -25.0024  -33.9836   25.0492 H   0  0  0  0  0  0
  -22.6740  -31.3114   21.4198 H   0  0  0  0  0  0
  -23.3747  -35.9685   23.3304 H   0  0  0  0  0  0
  -24.3589  -36.8948   22.2045 H   0  0  0  0  0  0
  -23.7251  -37.6558   23.6628 H   0  0  0  0  0  0
  -26.0019  -31.6280   20.5825 H   0  0  0  0  0  0
  -26.8038  -30.9285   21.9627 H   0  0  0  0  0  0
  -28.0822  -29.1958   21.1541 H   0  0  0  0  0  0
  -26.0929  -26.0177   18.9992 H   0  0  0  0  0  0
  -23.9873  -27.2942   19.0415 H   0  0  0  0  0  0
  -23.6947  -30.6034   19.4080 H   0  0  0  0  0  0
  -22.7231  -29.2415   19.8786 H   0  0  0  0  0  0
  -25.1275  -36.2008   25.0836 H   0  0  0  0  0  0
  -20.9925  -28.3197   24.1473 H   0  0  0  0  0  0
  -20.5646  -26.2249   23.3606 H   0  0  0  0  0  0
  -21.6627  -26.7439   22.1225 H   0  0  0  0  0  0
  -19.6895  -25.6294   21.1240 H   0  0  0  0  0  0
  -19.6680  -27.3210   20.6763 H   0  0  0  0  0  0
  -17.4177  -26.6657   21.4031 H   0  0  0  0  0  0
  -18.0317  -26.0059   22.9020 H   0  0  0  0  0  0
  -19.7917  -30.7231   24.2321 H   0  0  0  0  0  0
  -17.5007  -31.6271   24.5163 H   0  0  0  0  0  0
  -15.5335  -30.3016   23.7620 H   0  0  0  0  0  0
  -15.8644  -28.0846   22.7033 H   0  0  0  0  0  0
  -24.5894  -30.7081   25.7837 H   0  0  0  0  0  0
  -24.8962  -32.2879   26.4955 H   0  0  0  0  0  0
  -25.8120  -30.8865   27.0216 H   0  0  0  0  0  0
  -26.2744  -29.6852   24.1086 H   0  0  0  0  0  0
  -27.4040  -29.7248   25.4437 H   0  0  0  0  0  0
  -27.8579  -30.4375   23.9116 H   0  0  0  0  0  0
  -27.2674  -33.3576   26.2100 H   0  0  0  0  0  0
  -28.3825  -32.6904   25.0265 H   0  0  0  0  0  0
  -28.0752  -31.8385   26.5323 H   0  0  0  0  0  0
  -28.2596  -38.0123   24.7541 H   0  0  0  0  0  0
  -28.1103  -36.2660   24.6215 H   0  0  0  0  0  0
  -27.2321  -37.1398   25.8858 H   0  0  0  0  0  0
  -20.9224  -29.8779   21.7047 H   0  0  0  0  0  0
  -26.0201  -38.2890   24.1434 H   0  0  0  0  0  0
  -28.6450  -17.7797   18.4167 H   0  0  0  0  0  0
  -29.4537  -18.1193   22.6458 H   0  0  0  0  0  0
  -27.2486  -19.7706   18.5093 H   0  0  0  0  0  0
  -28.1491  -20.1665   22.7432 H   0  0  0  0  0  0
  -26.2381  -22.0769   22.3534 H   0  0  0  0  0  0
  -27.9861  -22.1749   22.3984 H   0  0  0  0  0  0
  -27.9186  -21.6875   18.5016 H   0  0  0  0  0  0
  -26.7394  -22.8598   18.9411 H   0  0  0  0  0  0
  -27.0816  -24.4363   22.4316 H   0  0  0  0  0  0
  -26.1837  -24.1344   20.9784 H   0  0  0  0  0  0
  -29.5076  -22.6874   20.2052 H   0  0  0  0  0  0
  -30.9900  -22.3413   18.3638 H   0  0  0  0  0  0
  -30.9248  -23.3300   16.9180 H   0  0  0  0  0  0
  -29.7086  -22.0905   17.1801 H   0  0  0  0  0  0
  -27.9229  -25.3820   17.9073 H   0  0  0  0  0  0
  -27.7734  -23.8870   16.9863 H   0  0  0  0  0  0
  -29.0408  -25.0424   16.6175 H   0  0  0  0  0  0
  -29.4509  -24.6804   22.3844 H   0  0  0  0  0  0
  -30.2882  -24.9175   20.8829 H   0  0  0  0  0  0
  -29.8638  -27.1552   21.4957 H   0  0  0  0  0  0
  -28.2842  -26.7569   22.1584 H   0  0  0  0  0  0
  -30.1419  -24.6511   18.7520 H   0  0  0  0  0  0
  -28.9852  -15.4545   21.1438 H   0  0  0  0  0  0
  -31.4569  -18.1038   19.4427 H   0  0  0  0  0  0
  -32.0155  -16.4441   19.5727 H   0  0  0  0  0  0
  -27.8721  -25.0269   20.0453 H   0  0  0  0  0  0
  1 25  1  0  0  0
  1 30  2  0  0  0
  1 88  1  0  0  0
  2  3  1  0  0  0
  2 25  1  0  0  0
  2 91  1  0  0  0
  2 92  1  0  0  0
  3  4  1  0  0  0
  3 93  1  0  0  0
  3 94  1  0  0  0
  4  5  1  0  0  0
  4 95  1  0  0  0
  4 96  1  0  0  0
  5  6  1  0  0  0
  5 26  1  0  0  0
  5 97  1  0  0  0
  6 25  1  0  0  0
  6 98  1  0  0  0
  6 99  1  0  0  0
  7  8  2  0  0  0
  7 26  1  0  0  0
  7 29  1  0  0  0
  8  9  1  0  0  0
  8 22  1  0  0  0
  9 10  1  0  0  0
  9 27  2  0  0  0
 10 11  2  0  0  0
 10 15  1  0  0  0
 11 12  1  0  0  0
 11100  1  0  0  0
 12 13  2  0  0  0
 12101  1  0  0  0
 13 14  1  0  0  0
 13 31  1  0  0  0
 14 15  2  0  0  0
 14102  1  0  0  0
 15103  1  0  0  0
 16 17  2  0  0  0
 16 21  1  0  0  0
 16 31  1  0  0  0
 17 18  1  0  0  0
 17104  1  0  0  0
 18 19  2  0  0  0
 18105  1  0  0  0
 19 20  1  0  0  0
 19 24  1  0  0  0
 20 21  2  0  0  0
 20106  1  0  0  0
 21 23  1  0  0  0
 22 28  1  0  0  0
 22 32  2  0  0  0
 26 27  1  0  0  0
 28107  1  0  0  0
 28108  1  0  0  0
 29109  1  0  0  0
 29110  1  0  0  0
 33 34  1  0  0  0
 33 66  1  0  0  0
 33 70  2  0  0  0
 34 36  1  0  0  0
 34 59  1  0  0  0
 34111  1  0  0  0
 35 44  2  0  0  0
 35 45  1  0  0  0
 35 68  1  0  0  0
 36 56  1  0  0  0
 36112  1  0  0  0
 37 39  1  0  0  0
 37 47  1  0  0  0
 37 66  1  0  0  0
 37113  1  0  0  0
 38 43  2  0  0  0
 38 46  1  0  0  0
 38 47  1  0  0  0
 39 64  1  0  0  0
 39 67  2  0  0  0
 40 52  1  0  0  0
 40 53  2  0  0  0
 40 58  1  0  0  0
 41114  1  0  0  0
 41115  1  0  0  0
 41116  1  0  0  0
 41 48  1  0  0  0
 42 43  1  0  0  0
 42 66  1  0  0  0
 42117  1  0  0  0
 42118  1  0  0  0
 43 44  1  0  0  0
 44119  1  0  0  0
 45 46  2  0  0  0
 45120  1  0  0  0
 46121  1  0  0  0
 47122  1  0  0  0
 47123  1  0  0  0
 48 56  1  0  0  0
 48 65  1  0  0  0
 48124  1  0  0  0
 49 50  1  0  0  0
 49 53  1  0  0  0
 49 64  1  0  0  0
 49125  1  0  0  0
 50 51  1  0  0  0
 50126  1  0  0  0
 50127  1  0  0  0
 51 52  1  0  0  0
 51128  1  0  0  0
 51129  1  0  0  0
 52130  1  0  0  0
 52131  1  0  0  0
 53 54  1  0  0  0
 54 55  2  0  0  0
 54132  1  0  0  0
 55 57  1  0  0  0
 55133  1  0  0  0
 56 69  2  0  0  0
 57 58  2  0  0  0
 57134  1  0  0  0
 58135  1  0  0  0
 59 60  1  0  0  0
 59 61  1  0  0  0
 59 62  1  0  0  0
 60136  1  0  0  0
 60137  1  0  0  0
 60138  1  0  0  0
 61139  1  0  0  0
 61140  1  0  0  0
 61141  1  0  0  0
 62142  1  0  0  0
 62143  1  0  0  0
 62144  1  0  0  0
 63 65  1  0  0  0
 63145  1  0  0  0
 63146  1  0  0  0
 63147  1  0  0  0
 64148  1  0  0  0
 65149  1  0  0  0
 68 85  1  0  0  0
 71 73  2  0  0  0
 71 75  1  0  0  0
 71150  1  0  0  0
 72 74  1  0  0  0
 72 75  2  0  0  0
 72151  1  0  0  0
 73 76  1  0  0  0
 73152  1  0  0  0
 74 76  2  0  0  0
 74153  1  0  0  0
 75 77  1  0  0  0
 76 87  1  0  0  0
 77 88  1  0  0  0
 77 89  2  0  0  0
 78 80  1  0  0  0
 78 87  1  0  0  0
 78154  1  0  0  0
 78155  1  0  0  0
 79 87  1  0  0  0
 79156  1  0  0  0
 79157  1  0  0  0
 79 81  1  0  0  0
 80 90  1  0  0  0
 80158  1  0  0  0
 80159  1  0  0  0
 81 86  1  0  0  0
 81 90  1  0  0  0
 81160  1  0  0  0
 82161  1  0  0  0
 82162  1  0  0  0
 82163  1  0  0  0
 82 86  1  0  0  0
 83 86  1  0  0  0
 83164  1  0  0  0
 83165  1  0  0  0
 83166  1  0  0  0
 84 85  1  0  0  0
 84167  1  0  0  0
 84168  1  0  0  0
 84 90  1  0  0  0
 85169  1  0  0  0
 85170  1  0  0  0
 86171  1  0  0  0
 88172  1  0  0  0
 89173  1  0  0  0
 89174  1  0  0  0
 90175  1  0  0  0
M  CHG  2  89   1  90   1
M  ISO  4   1 100  68 101  85 101  88 100
M  END
> <chiral flag>
0

> <version>
0

> <s_m_source_file>
/data/baiqing/PycharmProjects/Reinvent-master-3.2/result/LINK_invent/BTK/process_docking_weight1_custom_product_contain_oxygen_bond_distance_aromatic_linkinvent_7_9_3/rearranged_h_0000.sdf

> <i_m_source_file_index>
28

> <r_mmod_Potential_Energy-OPLS-2005>
-134.618347167969

> <r_mmod_Stretch_Energy-OPLS-2005>
37.2692527770996

> <r_mmod_Bend_Energy-OPLS-2005>
117.630996704102

> <r_mmod_Torsional_Energy-OPLS-2005>
368.844879150391

> <r_mmod_Improper_Torsional_Energy-OPLS-2005>
13.7309970855713

> <r_mmod_Van_der_Waal_Energy-OPLS-2005>
192.861312866211

> <r_mmod_Electrostatic_Energy-OPLS-2005>
-79.6098861694336

> <r_mmod_Solvation_Energy-OPLS-2005>
-797.72412109375

> <b_mmod_Minimization_Converged-OPLS-2005>
0

> <r_mmod_RMS_Derivative-OPLS-2005>
2.30591011047363

$$$$
28
                    3D
 Structure written by MMmdl.
162170  0  0  1  0            999 V2000
  -29.6396  -12.6570   20.0537 C   0  0  0  0  0  0
  -30.5113  -11.8848   19.0086 C   0  0  0  0  0  0
  -29.3992  -12.7786   17.7386 C   0  0  0  0  0  0
  -28.0474  -13.7825   18.4528 C   0  0  0  0  0  0
  -27.7045  -13.8731   20.2795 C   0  0  2  0  0  0
  -28.9064  -12.9989   21.4107 C   0  0  0  0  0  0
  -25.4707  -14.2800   20.6459 C   0  0  0  0  0  0
  -24.3714  -13.6272   20.8582 C   0  0  0  0  0  0
  -24.7130  -12.1554   21.3996 C   0  0  0  0  0  0
  -24.0493  -10.5903   21.6244 C   0  0  0  0  0  0
  -24.7181   -9.3629   21.9336 C   0  0  0  0  0  0
  -24.0549   -8.0632   21.9693 C   0  0  0  0  0  0
  -22.7433   -7.8878   21.4221 C   0  0  0  0  0  0
  -22.1429   -8.9917   20.9126 C   0  0  0  0  0  0
  -22.6759  -10.1096   21.5255 C   0  0  0  0  0  0
  -21.7844   -6.0222   22.5223 C   0  0  0  0  0  0
  -21.4689   -6.5505   23.7947 C   0  0  0  0  0  0
  -21.3755   -5.6807   24.9014 C   0  0  0  0  0  0
  -21.5881   -4.2978   24.7296 C   0  0  0  0  0  0
  -21.8576   -3.7766   23.4527 C   0  0  0  0  0  0
  -21.9422   -4.6404   22.3514 C   0  0  0  0  0  0
  -23.1870  -14.5872   20.2272 C   0  0  0  0  0  0
  -22.1888   -4.1496   21.1134 F   0  0  0  0  0  0
  -21.5336   -3.4620   25.7921 F   0  0  0  0  0  0
  -30.1774  -12.0919   20.7020 N   0  0  0  0  0  0
  -26.4185  -13.3993   20.7251 N   0  0  0  0  0  0
  -26.0455  -12.1699   21.2826 N   0  0  0  0  0  0
  -21.9213  -14.8441   20.6366 N   0  0  0  0  0  0
  -25.7088  -15.5957   20.2662 N   0  0  0  0  0  0
  -30.2882  -13.9195   19.8787 O   0  0  0  0  0  0
  -21.9399   -6.7801   21.3996 O   0  0  0  0  0  0
  -23.1958  -15.0044   19.1362 O   0  0  0  0  0  0
  -24.6633  -31.8250   23.1813 C   0  0  0  0  0  0
  -25.9356  -32.4549   23.8204 C   0  0  1  0  0  0
  -26.7508  -26.6939   20.4058 C   0  0  0  0  0  0
  -25.6048  -33.8385   24.2082 N   0  0  0  0  0  0
  -23.4623  -30.4680   21.5279 C   0  0  2  0  0  0
  -24.8594  -28.8715   20.0725 C   0  0  0  0  0  0
  -22.7614  -29.4495   22.4677 C   0  0  0  0  0  0
  -18.0321  -28.1404   22.8463 C   0  0  0  0  0  0
  -24.1504  -36.7184   23.2641 C   0  0  0  0  0  0
  -26.0338  -30.5632   21.4453 C   0  0  0  0  0  0
  -26.0239  -29.1453   20.7983 C   0  0  0  0  0  0
  -26.9998  -28.0590   20.9504 C   0  0  0  0  0  0
  -25.7330  -26.6725   19.4537 C   0  0  0  0  0  0
  -24.7703  -27.6850   19.3412 C   0  0  0  0  0  0
  -23.6921  -29.8443   20.1255 C   0  0  0  0  0  0
  -25.4151  -36.2943   24.0285 C   0  0  1  0  0  0
  -20.5945  -28.3758   23.1155 C   0  0  2  0  0  0
  -20.6799  -26.9437   22.5385 C   0  0  0  0  0  0
  -19.5767  -26.6370   21.5205 C   0  0  0  0  0  0
  -18.1952  -26.7938   22.1619 C   0  0  0  0  0  0
  -19.1582  -28.8897   23.2807 C   0  0  0  0  0  0
  -18.9497  -30.1485   23.8848 C   0  0  0  0  0  0
  -17.6492  -30.6594   24.0555 C   0  0  0  0  0  0
  -25.9130  -34.9326   23.4995 C   0  0  0  0  0  0
  -16.5380  -29.9082   23.6346 C   0  0  0  0  0  0
  -16.7304  -28.6501   23.0366 C   0  0  0  0  0  0
  -26.4582  -31.6532   25.0768 C   0  0  0  0  0  0
  -25.3685  -31.3831   26.1411 C   0  0  0  0  0  0
  -27.0488  -30.2867   24.6628 C   0  0  0  0  0  0
  -27.6059  -32.4371   25.7555 C   0  0  0  0  0  0
  -27.5573  -37.1760   24.8465 C   0  0  0  0  0  0
  -21.4289  -29.3056   22.3467 N   0  0  0  0  0  0
  -26.4286  -37.3690   23.9399 N   0  0  0  0  0  0
  -24.7438  -30.9875   22.0998 N   0  0  0  0  0  0
  -23.4198  -28.8015   23.2856 O   0  0  0  0  0  0
  -27.2109  -25.3147   20.7676 O   0  0  0  0  0  0
  -26.5721  -34.8857   22.4581 O   0  0  0  0  0  0
  -23.5720  -32.1316   23.6891 O   0  0  0  0  0  0
  -22.7461  -17.2514   22.0022 C   0  0  0  0  0  0
  -24.7161  -16.7499   22.8856 C   0  0  0  0  0  0
  -23.2451  -18.6558   21.7119 C   0  0  0  0  0  0
  -25.2250  -18.1686   22.5946 C   0  0  0  0  0  0
  -23.4225  -16.0580   22.5839 C   0  0  0  0  0  0
  -24.5514  -19.3210   21.9387 C   0  0  0  0  0  0
  -22.1866  -12.1954   20.1995 C   0  0  0  0  0  0
  -22.2169  -12.9467   22.0687 C   0  0  0  0  0  0
  -24.9319  -11.0876   19.0066 C   0  0  0  0  0  0
  -26.7796  -11.4153   18.8106 C   0  0  0  0  0  0
  -26.0599  -22.0996   21.5131 C   0  0  0  0  0  0
  -26.1843  -23.9051   20.8790 C   0  0  0  0  0  0
  -23.3340  -11.7913   19.2207 N   0  0  0  0  0  0
  -28.3085  -11.5714   19.6900 N   0  0  0  0  0  0
  -21.0565  -12.1053   19.7144 O   0  0  0  0  0  0
  -22.9903  -14.4771   22.7957 O   0  0  0  0  0  0
  -24.8867  -20.8324   21.5213 O   0  0  0  0  0  0
  -31.5680  -12.1195   18.7828 H   0  0  0  0  0  0
  -30.5182  -10.8083   18.7664 H   0  0  0  0  0  0
  -28.9918  -12.0417   17.0455 H   0  0  0  0  0  0
  -30.0201  -13.4218   17.1133 H   0  0  0  0  0  0
  -27.1381  -13.8180   17.8534 H   0  0  0  0  0  0
  -28.3997  -14.7940   18.2483 H   0  0  0  0  0  0
  -27.8958  -14.9009   20.5919 H   0  0  0  0  0  0
  -28.3808  -12.3475   22.1237 H   0  0  0  0  0  0
  -29.3014  -13.7386   22.1313 H   0  0  0  0  0  0
  -25.7679   -9.4148   22.1857 H   0  0  0  0  0  0
  -24.5943   -7.2012   22.3359 H   0  0  0  0  0  0
  -21.0895   -8.9265   20.6753 H   0  0  0  0  0  0
  -21.8141  -10.6347   21.8923 H   0  0  0  0  0  0
  -21.3255   -7.6129   23.9258 H   0  0  0  0  0  0
  -21.1558   -6.0741   25.8832 H   0  0  0  0  0  0
  -22.0020   -2.7154   23.3199 H   0  0  0  0  0  0
  -21.6910  -14.6911   21.6099 H   0  0  0  0  0  0
  -21.3052  -15.3739   20.0387 H   0  0  0  0  0  0
  -24.9722  -16.2757   20.1252 H   0  0  0  0  0  0
  -26.6225  -15.9598   20.0319 H   0  0  0  0  0  0
  -26.7378  -32.4973   23.0848 H   0  0  0  0  0  0
  -25.0161  -33.9476   25.0208 H   0  0  0  0  0  0
  -22.7779  -31.3082   21.3923 H   0  0  0  0  0  0
  -23.3781  -35.9500   23.3268 H   0  0  0  0  0  0
  -24.3575  -36.8872   22.2062 H   0  0  0  0  0  0
  -23.7249  -37.6354   23.6728 H   0  0  0  0  0  0
  -26.2573  -31.2871   20.6605 H   0  0  0  0  0  0
  -26.8888  -30.5926   22.1075 H   0  0  0  0  0  0
  -27.8179  -28.2006   21.6425 H   0  0  0  0  0  0
  -25.5310  -25.7567   18.9190 H   0  0  0  0  0  0
  -23.9062  -27.5067   18.7160 H   0  0  0  0  0  0
  -23.8897  -30.6390   19.4052 H   0  0  0  0  0  0
  -22.7826  -29.3518   19.7772 H   0  0  0  0  0  0
  -25.1352  -36.1732   25.0776 H   0  0  0  0  0  0
  -21.0060  -28.3384   24.1267 H   0  0  0  0  0  0
  -20.5685  -26.2383   23.3632 H   0  0  0  0  0  0
  -21.6662  -26.7416   22.1189 H   0  0  0  0  0  0
  -19.6927  -25.6265   21.1274 H   0  0  0  0  0  0
  -19.6699  -27.3145   20.6705 H   0  0  0  0  0  0
  -17.4219  -26.6678   21.4025 H   0  0  0  0  0  0
  -18.0350  -26.0092   22.9028 H   0  0  0  0  0  0
  -19.7975  -30.7312   24.2192 H   0  0  0  0  0  0
  -17.5047  -31.6270   24.5167 H   0  0  0  0  0  0
  -15.5379  -30.2970   23.7701 H   0  0  0  0  0  0
  -15.8702  -28.0802   22.7115 H   0  0  0  0  0  0
  -24.5893  -30.7140   25.7739 H   0  0  0  0  0  0
  -24.8846  -32.3048   26.4653 H   0  0  0  0  0  0
  -25.7900  -30.9132   27.0306 H   0  0  0  0  0  0
  -26.3164  -29.6488   24.1670 H   0  0  0  0  0  0
  -27.3956  -29.7312   25.5352 H   0  0  0  0  0  0
  -27.9155  -30.3984   24.0110 H   0  0  0  0  0  0
  -27.2615  -33.3729   26.1971 H   0  0  0  0  0  0
  -28.3947  -32.6843   25.0437 H   0  0  0  0  0  0
  -28.0642  -31.8618   26.5609 H   0  0  0  0  0  0
  -28.2564  -38.0079   24.7514 H   0  0  0  0  0  0
  -28.1098  -36.2605   24.6299 H   0  0  0  0  0  0
  -27.2282  -37.1402   25.8864 H   0  0  0  0  0  0
  -20.9495  -29.8799   21.6674 H   0  0  0  0  0  0
  -26.0121  -38.2743   24.1408 H   0  0  0  0  0  0
  -21.7166  -17.1048   21.7124 H   0  0  0  0  0  0
  -25.4510  -16.1104   23.3522 H   0  0  0  0  0  0
  -22.5069  -19.2953   21.2491 H   0  0  0  0  0  0
  -26.2418  -18.3576   22.9068 H   0  0  0  0  0  0
  -22.5246  -12.2362   22.8297 H   0  0  0  0  0  0
  -21.1563  -13.0443   22.3076 H   0  0  0  0  0  0
  -24.8806  -10.0761   19.3998 H   0  0  0  0  0  0
  -24.7497  -10.8437   17.9596 H   0  0  0  0  0  0
  -26.8591  -11.8089   17.8041 H   0  0  0  0  0  0
  -27.0192  -10.3872   18.5401 H   0  0  0  0  0  0
  -26.3139  -22.1808   22.5700 H   0  0  0  0  0  0
  -26.9293  -21.6082   21.0765 H   0  0  0  0  0  0
  -25.2890  -24.3509   21.3125 H   0  0  0  0  0  0
  -25.9248  -23.7662   19.8303 H   0  0  0  0  0  0
  -22.8862  -11.7266   18.3169 H   0  0  0  0  0  0
  -28.4617  -10.7290   20.2233 H   0  0  0  0  0  0
  1 25  1  0  0  0
  1 30  2  0  0  0
  1 84  1  0  0  0
  2  3  1  0  0  0
  2 25  1  0  0  0
  2 88  1  0  0  0
  2 89  1  0  0  0
  3  4  1  0  0  0
  3 90  1  0  0  0
  3 91  1  0  0  0
  4  5  1  0  0  0
  4 92  1  0  0  0
  4 93  1  0  0  0
  5  6  1  0  0  0
  5 26  1  0  0  0
  5 94  1  0  0  0
  6 25  1  0  0  0
  6 95  1  0  0  0
  6 96  1  0  0  0
  7  8  2  0  0  0
  7 26  1  0  0  0
  7 29  1  0  0  0
  8  9  1  0  0  0
  8 22  1  0  0  0
  9 10  1  0  0  0
  9 27  2  0  0  0
 10 11  2  0  0  0
 10 15  1  0  0  0
 11 12  1  0  0  0
 11 97  1  0  0  0
 12 13  2  0  0  0
 12 98  1  0  0  0
 13 14  1  0  0  0
 13 31  1  0  0  0
 14 15  2  0  0  0
 14 99  1  0  0  0
 15100  1  0  0  0
 16 17  2  0  0  0
 16 21  1  0  0  0
 16 31  1  0  0  0
 17 18  1  0  0  0
 17101  1  0  0  0
 18 19  2  0  0  0
 18102  1  0  0  0
 19 20  1  0  0  0
 19 24  1  0  0  0
 20 21  2  0  0  0
 20103  1  0  0  0
 21 23  1  0  0  0
 22 28  1  0  0  0
 22 32  2  0  0  0
 26 27  1  0  0  0
 28104  1  0  0  0
 28105  1  0  0  0
 29106  1  0  0  0
 29107  1  0  0  0
 33 34  1  0  0  0
 33 66  1  0  0  0
 33 70  2  0  0  0
 34 36  1  0  0  0
 34 59  1  0  0  0
 34108  1  0  0  0
 35 44  2  0  0  0
 35 45  1  0  0  0
 35 68  1  0  0  0
 36 56  1  0  0  0
 36109  1  0  0  0
 37 39  1  0  0  0
 37 47  1  0  0  0
 37 66  1  0  0  0
 37110  1  0  0  0
 38 43  2  0  0  0
 38 46  1  0  0  0
 38 47  1  0  0  0
 39 64  1  0  0  0
 39 67  2  0  0  0
 40 52  1  0  0  0
 40 53  2  0  0  0
 40 58  1  0  0  0
 41111  1  0  0  0
 41112  1  0  0  0
 41113  1  0  0  0
 41 48  1  0  0  0
 42 43  1  0  0  0
 42 66  1  0  0  0
 42114  1  0  0  0
 42115  1  0  0  0
 43 44  1  0  0  0
 44116  1  0  0  0
 45 46  2  0  0  0
 45117  1  0  0  0
 46118  1  0  0  0
 47119  1  0  0  0
 47120  1  0  0  0
 48 56  1  0  0  0
 48 65  1  0  0  0
 48121  1  0  0  0
 49 50  1  0  0  0
 49 53  1  0  0  0
 49 64  1  0  0  0
 49122  1  0  0  0
 50 51  1  0  0  0
 50123  1  0  0  0
 50124  1  0  0  0
 51 52  1  0  0  0
 51125  1  0  0  0
 51126  1  0  0  0
 52127  1  0  0  0
 52128  1  0  0  0
 53 54  1  0  0  0
 54 55  2  0  0  0
 54129  1  0  0  0
 55 57  1  0  0  0
 55130  1  0  0  0
 56 69  2  0  0  0
 57 58  2  0  0  0
 57131  1  0  0  0
 58132  1  0  0  0
 59 60  1  0  0  0
 59 61  1  0  0  0
 59 62  1  0  0  0
 60133  1  0  0  0
 60134  1  0  0  0
 60135  1  0  0  0
 61136  1  0  0  0
 61137  1  0  0  0
 61138  1  0  0  0
 62139  1  0  0  0
 62140  1  0  0  0
 62141  1  0  0  0
 63 65  1  0  0  0
 63142  1  0  0  0
 63143  1  0  0  0
 63144  1  0  0  0
 64145  1  0  0  0
 65146  1  0  0  0
 68 82  1  0  0  0
 71 73  2  0  0  0
 71 75  1  0  0  0
 71147  1  0  0  0
 72 74  1  0  0  0
 72 75  2  0  0  0
 72148  1  0  0  0
 73 76  1  0  0  0
 73149  1  0  0  0
 74 76  2  0  0  0
 74150  1  0  0  0
 75 86  1  0  0  0
 76 87  1  0  0  0
 77 78  1  0  0  0
 77 83  1  0  0  0
 77 85  2  0  0  0
 78 86  1  0  0  0
 78151  1  0  0  0
 78152  1  0  0  0
 79 80  1  0  0  0
 79 83  1  0  0  0
 79153  1  0  0  0
 79154  1  0  0  0
 80 84  1  0  0  0
 80155  1  0  0  0
 80156  1  0  0  0
 81 82  1  0  0  0
 81 87  1  0  0  0
 81157  1  0  0  0
 81158  1  0  0  0
 82159  1  0  0  0
 82160  1  0  0  0
 83161  1  0  0  0
 84162  1  0  0  0
M  ISO  4   1 100  68 101  82 101  84 100
M  END
> <chiral flag>
0

> <version>
0

> <s_m_source_file>
/data/baiqing/PycharmProjects/Reinvent-master-3.2/result/LINK_invent/BTK/process_docking_weight1_custom_product_contain_oxygen_bond_distance_aromatic_linkinvent_7_9_3/rearranged_h_0000.sdf

> <i_m_source_file_index>
29

> <r_mmod_Potential_Energy-OPLS-2005>
11282.720703125

> <r_mmod_Stretch_Energy-OPLS-2005>
3731.35791015625

> <r_mmod_Bend_Energy-OPLS-2005>
2139.841796875

> <r_mmod_Torsional_Energy-OPLS-2005>
531.41943359375

> <r_mmod_Improper_Torsional_Energy-OPLS-2005>
19.2619915008545

> <r_mmod_Van_der_Waal_Energy-OPLS-2005>
2067.7578125

> <r_mmod_Electrostatic_Energy-OPLS-2005>
-450.184936523438

> <r_mmod_Solvation_Energy-OPLS-2005>
-242.991790771484

> <b_mmod_Minimization_Converged-OPLS-2005>
0

> <r_mmod_RMS_Derivative-OPLS-2005>
0.88589346408844

$$$$
29
                    3D
 Structure written by MMmdl.
143150  0  0  1  0            999 V2000
  -30.4404  -15.2614   20.3650 C   0  0  0  0  0  0
  -30.4363  -12.8020   19.5362 C   0  0  0  0  0  0
  -29.5368  -12.5809   18.2930 C   0  0  0  0  0  0
  -28.0838  -12.3067   18.7150 C   0  0  0  0  0  0
  -27.6135  -13.2774   19.8269 C   0  0  2  0  0  0
  -28.6440  -13.4493   20.9650 C   0  0  0  0  0  0
  -25.2397  -13.8255   20.5745 C   0  0  0  0  0  0
  -24.1746  -13.0443   20.9248 C   0  0  0  0  0  0
  -24.6400  -11.6938   20.8754 C   0  0  0  0  0  0
  -23.9094  -10.4296   21.0401 C   0  0  0  0  0  0
  -24.3640   -9.4211   21.9181 C   0  0  0  0  0  0
  -23.6306   -8.2249   22.0754 C   0  0  0  0  0  0
  -22.4286   -8.0286   21.3545 C   0  0  0  0  0  0
  -21.9926   -9.0262   20.4646 C   0  0  0  0  0  0
  -22.7262  -10.2136   20.3052 C   0  0  0  0  0  0
  -21.6860   -6.0740   22.5279 C   0  0  0  0  0  0
  -21.4019   -6.5643   23.8212 C   0  0  0  0  0  0
  -21.3659   -5.6795   24.9172 C   0  0  0  0  0  0
  -21.6042   -4.3056   24.7223 C   0  0  0  0  0  0
  -21.8820   -3.8150   23.4344 C   0  0  0  0  0  0
  -21.9195   -4.6968   22.3402 C   0  0  0  0  0  0
  -22.7764  -13.5194   21.1899 C   0  0  0  0  0  0
  -22.1664   -4.2154   21.0979 F   0  0  0  0  0  0
  -21.5624   -3.4540   25.7736 F   0  0  0  0  0  0
  -29.8832  -13.9498   20.3488 N   0  0  0  0  0  0
  -26.2823  -12.9531   20.3223 N   0  0  0  0  0  0
  -25.9340  -11.6634   20.5720 N   0  0  0  0  0  0
  -22.0426  -12.8172   22.0450 N   0  0  0  0  0  0
  -25.4041  -15.1990   20.4191 N   0  0  0  0  0  0
  -31.6474  -15.2726   20.0889 O   0  0  0  0  0  0
  -21.6648   -6.8883   21.4240 O   0  0  0  0  0  0
  -22.3446  -14.5498   20.6741 O   0  0  0  0  0  0
  -24.6634  -31.8232   23.1718 C   0  0  0  0  0  0
  -25.9313  -32.4585   23.8181 C   0  0  1  0  0  0
  -27.2217  -26.9211   20.1708 C   0  0  0  0  0  0
  -25.5978  -33.8404   24.2078 N   0  0  0  0  0  0
  -23.4789  -30.4362   21.5202 C   0  0  2  0  0  0
  -24.9344  -28.8279   20.1068 C   0  0  0  0  0  0
  -22.7665  -29.4448   22.4773 C   0  0  0  0  0  0
  -18.0325  -28.1416   22.8470 C   0  0  0  0  0  0
  -24.1491  -36.7207   23.2646 C   0  0  0  0  0  0
  -26.0494  -30.6249   21.4071 C   0  0  0  0  0  0
  -26.1166  -29.2160   20.7481 C   0  0  0  0  0  0
  -27.2487  -28.2807   20.7655 C   0  0  0  0  0  0
  -26.0110  -26.6995   19.4711 C   0  0  0  0  0  0
  -24.9076  -27.5898   19.4495 C   0  0  0  0  0  0
  -23.7196  -29.7547   20.1452 C   0  0  0  0  0  0
  -25.4133  -36.2967   24.0297 C   0  0  1  0  0  0
  -20.5949  -28.3769   23.1188 C   0  0  2  0  0  0
  -20.6808  -26.9451   22.5399 C   0  0  0  0  0  0
  -19.5774  -26.6377   21.5224 C   0  0  0  0  0  0
  -18.1959  -26.7944   22.1636 C   0  0  0  0  0  0
  -19.1585  -28.8913   23.2814 C   0  0  0  0  0  0
  -18.9494  -30.1501   23.8851 C   0  0  0  0  0  0
  -17.6486  -30.6606   24.0559 C   0  0  0  0  0  0
  -25.9097  -34.9348   23.5009 C   0  0  0  0  0  0
  -16.5377  -29.9092   23.6346 C   0  0  0  0  0  0
  -16.7306  -28.6516   23.0362 C   0  0  0  0  0  0
  -26.4561  -31.6538   25.0717 C   0  0  0  0  0  0
  -25.3684  -31.3799   26.1370 C   0  0  0  0  0  0
  -27.0458  -30.2897   24.6473 C   0  0  0  0  0  0
  -27.6042  -32.4358   25.7522 C   0  0  0  0  0  0
  -27.5568  -37.1759   24.8464 C   0  0  0  0  0  0
  -21.4331  -29.3061   22.3533 N   0  0  0  0  0  0
  -26.4277  -37.3703   23.9404 N   0  0  0  0  0  0
  -24.7519  -30.9885   22.0861 N   0  0  0  0  0  0
  -23.4210  -28.8007   23.3010 O   0  0  0  0  0  0
  -28.1928  -25.7878   20.3191 O   0  0  0  0  0  0
  -26.5709  -34.8883   22.4605 O   0  0  0  0  0  0
  -23.5700  -32.1206   23.6802 O   0  0  0  0  0  0
  -28.0677  -24.1410   19.9140 C   0  0  0  0  0  0
  -28.8415  -22.7383   20.6293 C   0  0  0  0  0  0
  -29.8316  -18.1404   20.0457 C   0  0  0  0  0  0
  -29.1902  -19.7155   20.6682 C   0  0  0  0  0  0
  -29.6772  -16.5287   20.4876 N   0  0  0  0  0  0
  -27.2955  -23.8372   19.0016 O   0  0  0  0  0  0
  -28.9371  -21.2093   20.0115 O   0  0  0  0  0  0
  -31.4577  -12.9980   19.2077 H   0  0  0  0  0  0
  -30.4951  -11.8937   20.1383 H   0  0  0  0  0  0
  -29.9152  -11.7557   17.6883 H   0  0  0  0  0  0
  -29.5710  -13.4675   17.6579 H   0  0  0  0  0  0
  -28.0335  -11.2796   19.0787 H   0  0  0  0  0  0
  -27.4182  -12.3600   17.8524 H   0  0  0  0  0  0
  -27.5303  -14.2457   19.3318 H   0  0  0  0  0  0
  -28.8047  -12.5159   21.5066 H   0  0  0  0  0  0
  -28.2816  -14.1752   21.6943 H   0  0  0  0  0  0
  -25.2781   -9.5693   22.4759 H   0  0  0  0  0  0
  -24.0012   -7.4644   22.7479 H   0  0  0  0  0  0
  -21.0853   -8.8785   19.8955 H   0  0  0  0  0  0
  -22.3716  -10.9677   19.6164 H   0  0  0  0  0  0
  -21.2015   -7.6153   23.9717 H   0  0  0  0  0  0
  -21.1477   -6.0525   25.9075 H   0  0  0  0  0  0
  -22.0597   -2.7613   23.2844 H   0  0  0  0  0  0
  -22.4063  -11.9841   22.4832 H   0  0  0  0  0  0
  -21.1042  -13.1182   22.2664 H   0  0  0  0  0  0
  -24.6349  -15.8502   20.5341 H   0  0  0  0  0  0
  -26.2449  -15.6394   20.0686 H   0  0  0  0  0  0
  -26.7384  -32.5114   23.0895 H   0  0  0  0  0  0
  -25.0069  -33.9483   25.0192 H   0  0  0  0  0  0
  -22.7927  -31.2684   21.3503 H   0  0  0  0  0  0
  -23.3764  -35.9524   23.3279 H   0  0  0  0  0  0
  -24.3567  -36.8885   22.2065 H   0  0  0  0  0  0
  -23.7232  -37.6381   23.6724 H   0  0  0  0  0  0
  -26.2341  -31.3667   20.6292 H   0  0  0  0  0  0
  -26.9078  -30.6796   22.0645 H   0  0  0  0  0  0
  -28.1344  -28.5686   21.3136 H   0  0  0  0  0  0
  -25.8594  -25.7601   18.9656 H   0  0  0  0  0  0
  -24.0103  -27.2864   18.9273 H   0  0  0  0  0  0
  -23.8737  -30.5255   19.3889 H   0  0  0  0  0  0
  -22.8298  -29.2086   19.8267 H   0  0  0  0  0  0
  -25.1330  -36.1765   25.0787 H   0  0  0  0  0  0
  -21.0041  -28.3383   24.1311 H   0  0  0  0  0  0
  -20.5716  -26.2389   23.3642 H   0  0  0  0  0  0
  -21.6668  -26.7440   22.1189 H   0  0  0  0  0  0
  -19.6935  -25.6265   21.1310 H   0  0  0  0  0  0
  -19.6709  -27.3141   20.6718 H   0  0  0  0  0  0
  -17.4222  -26.6667   21.4050 H   0  0  0  0  0  0
  -18.0368  -26.0108   22.9059 H   0  0  0  0  0  0
  -19.7970  -30.7335   24.2195 H   0  0  0  0  0  0
  -17.5038  -31.6281   24.5173 H   0  0  0  0  0  0
  -15.5373  -30.2978   23.7702 H   0  0  0  0  0  0
  -15.8708  -28.0815   22.7104 H   0  0  0  0  0  0
  -24.5881  -30.7129   25.7686 H   0  0  0  0  0  0
  -24.8857  -32.3003   26.4664 H   0  0  0  0  0  0
  -25.7915  -30.9057   27.0234 H   0  0  0  0  0  0
  -26.3131  -29.6567   24.1454 H   0  0  0  0  0  0
  -27.3941  -29.7273   25.5147 H   0  0  0  0  0  0
  -27.9098  -30.4066   23.9929 H   0  0  0  0  0  0
  -27.2599  -33.3700   26.1973 H   0  0  0  0  0  0
  -28.3922  -32.6854   25.0404 H   0  0  0  0  0  0
  -28.0637  -31.8572   26.5544 H   0  0  0  0  0  0
  -28.2564  -38.0075   24.7512 H   0  0  0  0  0  0
  -28.1085  -36.2599   24.6293 H   0  0  0  0  0  0
  -27.2283  -37.1404   25.8867 H   0  0  0  0  0  0
  -20.9578  -29.8742   21.6658 H   0  0  0  0  0  0
  -26.0125  -38.2759   24.1420 H   0  0  0  0  0  0
  -29.8625  -23.0418   20.8596 H   0  0  0  0  0  0
  -28.3579  -22.6266   21.5996 H   0  0  0  0  0  0
  -29.4725  -18.1175   19.0170 H   0  0  0  0  0  0
  -30.9065  -18.2880   19.9346 H   0  0  0  0  0  0
  -29.7978  -19.9232   21.5493 H   0  0  0  0  0  0
  -28.2123  -19.4710   21.0832 H   0  0  0  0  0  0
  -28.7297  -16.3263   20.7741 H   0  0  0  0  0  0
  1 25  1  0  0  0
  1 30  2  0  0  0
  1 75  1  0  0  0
  2  3  1  0  0  0
  2 25  1  0  0  0
  2 78  1  0  0  0
  2 79  1  0  0  0
  3  4  1  0  0  0
  3 80  1  0  0  0
  3 81  1  0  0  0
  4  5  1  0  0  0
  4 82  1  0  0  0
  4 83  1  0  0  0
  5  6  1  0  0  0
  5 26  1  0  0  0
  5 84  1  0  0  0
  6 25  1  0  0  0
  6 85  1  0  0  0
  6 86  1  0  0  0
  7  8  2  0  0  0
  7 26  1  0  0  0
  7 29  1  0  0  0
  8  9  1  0  0  0
  8 22  1  0  0  0
  9 10  1  0  0  0
  9 27  2  0  0  0
 10 11  2  0  0  0
 10 15  1  0  0  0
 11 12  1  0  0  0
 11 87  1  0  0  0
 12 13  2  0  0  0
 12 88  1  0  0  0
 13 14  1  0  0  0
 13 31  1  0  0  0
 14 15  2  0  0  0
 14 89  1  0  0  0
 15 90  1  0  0  0
 16 17  2  0  0  0
 16 21  1  0  0  0
 16 31  1  0  0  0
 17 18  1  0  0  0
 17 91  1  0  0  0
 18 19  2  0  0  0
 18 92  1  0  0  0
 19 20  1  0  0  0
 19 24  1  0  0  0
 20 21  2  0  0  0
 20 93  1  0  0  0
 21 23  1  0  0  0
 22 28  1  0  0  0
 22 32  2  0  0  0
 26 27  1  0  0  0
 28 94  1  0  0  0
 28 95  1  0  0  0
 29 96  1  0  0  0
 29 97  1  0  0  0
 33 34  1  0  0  0
 33 66  1  0  0  0
 33 70  2  0  0  0
 34 36  1  0  0  0
 34 59  1  0  0  0
 34 98  1  0  0  0
 35 44  2  0  0  0
 35 45  1  0  0  0
 35 68  1  0  0  0
 36 56  1  0  0  0
 36 99  1  0  0  0
 37 39  1  0  0  0
 37 47  1  0  0  0
 37 66  1  0  0  0
 37100  1  0  0  0
 38 43  2  0  0  0
 38 46  1  0  0  0
 38 47  1  0  0  0
 39 64  1  0  0  0
 39 67  2  0  0  0
 40 52  1  0  0  0
 40 53  2  0  0  0
 40 58  1  0  0  0
 41101  1  0  0  0
 41102  1  0  0  0
 41103  1  0  0  0
 41 48  1  0  0  0
 42 43  1  0  0  0
 42 66  1  0  0  0
 42104  1  0  0  0
 42105  1  0  0  0
 43 44  1  0  0  0
 44106  1  0  0  0
 45 46  2  0  0  0
 45107  1  0  0  0
 46108  1  0  0  0
 47109  1  0  0  0
 47110  1  0  0  0
 48 56  1  0  0  0
 48 65  1  0  0  0
 48111  1  0  0  0
 49 50  1  0  0  0
 49 53  1  0  0  0
 49 64  1  0  0  0
 49112  1  0  0  0
 50 51  1  0  0  0
 50113  1  0  0  0
 50114  1  0  0  0
 51 52  1  0  0  0
 51115  1  0  0  0
 51116  1  0  0  0
 52117  1  0  0  0
 52118  1  0  0  0
 53 54  1  0  0  0
 54 55  2  0  0  0
 54119  1  0  0  0
 55 57  1  0  0  0
 55120  1  0  0  0
 56 69  2  0  0  0
 57 58  2  0  0  0
 57121  1  0  0  0
 58122  1  0  0  0
 59 60  1  0  0  0
 59 61  1  0  0  0
 59 62  1  0  0  0
 60123  1  0  0  0
 60124  1  0  0  0
 60125  1  0  0  0
 61126  1  0  0  0
 61127  1  0  0  0
 61128  1  0  0  0
 62129  1  0  0  0
 62130  1  0  0  0
 62131  1  0  0  0
 63 65  1  0  0  0
 63132  1  0  0  0
 63133  1  0  0  0
 63134  1  0  0  0
 64135  1  0  0  0
 65136  1  0  0  0
 68 71  1  0  0  0
 71 72  1  0  0  0
 71 76  2  0  0  0
 72 77  1  0  0  0
 72137  1  0  0  0
 72138  1  0  0  0
 73 74  1  0  0  0
 73 75  1  0  0  0
 73139  1  0  0  0
 73140  1  0  0  0
 74 77  1  0  0  0
 74141  1  0  0  0
 74142  1  0  0  0
 75143  1  0  0  0
M  ISO  4   1 100  68 101  71 101  75 100
M  END
> <chiral flag>
0

> <version>
0

> <s_m_source_file>
/data/baiqing/PycharmProjects/Reinvent-master-3.2/result/LINK_invent/BTK/process_docking_weight1_custom_product_contain_oxygen_bond_distance_aromatic_linkinvent_7_9_3/rearranged_h_0000.sdf

> <i_m_source_file_index>
30

> <r_mmod_Potential_Energy-OPLS-2005>
1339.25817871094

> <r_mmod_Stretch_Energy-OPLS-2005>
678.367858886719

> <r_mmod_Bend_Energy-OPLS-2005>
447.538177490234

> <r_mmod_Torsional_Energy-OPLS-2005>
215.749725341797

> <r_mmod_Improper_Torsional_Energy-OPLS-2005>
4.9492449760437

> <r_mmod_Van_der_Waal_Energy-OPLS-2005>
113.210205078125

> <r_mmod_Electrostatic_Energy-OPLS-2005>
-355.367553710938

> <r_mmod_Solvation_Energy-OPLS-2005>
-233.019821166992

> <b_mmod_Minimization_Converged-OPLS-2005>
0

> <r_mmod_RMS_Derivative-OPLS-2005>
0.723036646842957

$$$$
30
                    3D
 Structure written by MMmdl.
167175  0  0  1  0            999 V2000
  -30.7839  -14.3519   20.6997 C   0  0  0  0  0  0
  -30.4102  -12.2902   19.3899 C   0  0  0  0  0  0
  -29.4812  -12.5260   18.1861 C   0  0  0  0  0  0
  -28.0050  -12.3928   18.6083 C   0  0  0  0  0  0
  -27.6683  -13.2061   19.8903 C   0  0  2  0  0  0
  -28.7142  -12.9143   20.9892 C   0  0  0  0  0  0
  -25.2565  -13.8107   20.5651 C   0  0  0  0  0  0
  -24.1830  -13.0439   20.9148 C   0  0  0  0  0  0
  -24.6379  -11.6896   20.8739 C   0  0  0  0  0  0
  -23.9034  -10.4324   21.0397 C   0  0  0  0  0  0
  -24.3578   -9.4228   21.9182 C   0  0  0  0  0  0
  -23.6281   -8.2239   22.0744 C   0  0  0  0  0  0
  -22.4260   -8.0261   21.3537 C   0  0  0  0  0  0
  -21.9886   -9.0232   20.4645 C   0  0  0  0  0  0
  -22.7181  -10.2137   20.3077 C   0  0  0  0  0  0
  -21.6862   -6.0711   22.5263 C   0  0  0  0  0  0
  -21.4017   -6.5621   23.8189 C   0  0  0  0  0  0
  -21.3668   -5.6787   24.9161 C   0  0  0  0  0  0
  -21.6061   -4.3047   24.7231 C   0  0  0  0  0  0
  -21.8820   -3.8123   23.4354 C   0  0  0  0  0  0
  -21.9212   -4.6940   22.3401 C   0  0  0  0  0  0
  -22.7847  -13.5222   21.1819 C   0  0  0  0  0  0
  -22.1680   -4.2114   21.0974 F   0  0  0  0  0  0
  -21.5638   -3.4533   25.7744 F   0  0  0  0  0  0
  -30.0425  -13.2406   20.4498 N   0  0  0  0  0  0
  -26.3065  -12.9334   20.3459 N   0  0  0  0  0  0
  -25.9316  -11.6496   20.5823 N   0  0  0  0  0  0
  -22.0510  -12.8250   22.0393 N   0  0  0  0  0  0
  -25.4290  -15.1815   20.3963 N   0  0  0  0  0  0
  -31.8143  -14.6166   20.0770 O   0  0  0  0  0  0
  -21.6660   -6.8830   21.4214 O   0  0  0  0  0  0
  -22.3553  -14.5602   20.6743 O   0  0  0  0  0  0
  -24.6068  -31.8689   23.2186 C   0  0  0  0  0  0
  -25.9024  -32.4819   23.8426 C   0  0  1  0  0  0
  -27.2308  -27.4631   20.0794 C   0  0  0  0  0  0
  -25.5878  -33.8616   24.2324 N   0  0  0  0  0  0
  -23.3947  -30.4841   21.5539 C   0  0  2  0  0  0
  -24.8388  -28.9740   20.1064 C   0  0  0  0  0  0
  -22.7497  -29.4519   22.5086 C   0  0  0  0  0  0
  -18.0365  -28.1414   22.8561 C   0  0  0  0  0  0
  -24.1492  -36.7317   23.2639 C   0  0  0  0  0  0
  -25.9212  -30.8372   21.3792 C   0  0  0  0  0  0
  -25.9931  -29.4795   20.7122 C   0  0  0  0  0  0
  -27.1879  -28.7312   20.6948 C   0  0  0  0  0  0
  -26.0537  -26.9661   19.4692 C   0  0  0  0  0  0
  -24.8634  -27.7188   19.4774 C   0  0  0  0  0  0
  -23.6021  -29.8408   20.1582 C   0  0  0  0  0  0
  -25.4116  -36.3122   24.0317 C   0  0  1  0  0  0
  -20.5892  -28.3620   23.1742 C   0  0  2  0  0  0
  -20.6416  -26.9324   22.6021 C   0  0  0  0  0  0
  -19.5995  -26.7374   21.5029 C   0  0  0  0  0  0
  -18.2125  -26.8133   22.1410 C   0  0  0  0  0  0
  -19.1570  -28.8884   23.3150 C   0  0  0  0  0  0
  -18.9424  -30.1485   23.9127 C   0  0  0  0  0  0
  -17.6401  -30.6557   24.0629 C   0  0  0  0  0  0
  -25.9003  -34.9483   23.5100 C   0  0  0  0  0  0
  -16.5349  -29.9013   23.6346 C   0  0  0  0  0  0
  -16.7348  -28.6454   23.0358 C   0  0  0  0  0  0
  -26.4438  -31.6637   25.0770 C   0  0  0  0  0  0
  -25.3676  -31.3742   26.1499 C   0  0  0  0  0  0
  -27.0296  -30.3077   24.6236 C   0  0  0  0  0  0
  -27.6028  -32.4365   25.7473 C   0  0  0  0  0  0
  -27.5596  -37.1822   24.8457 C   0  0  0  0  0  0
  -21.4231  -29.2705   22.3875 N   0  0  0  0  0  0
  -26.4316  -37.3806   23.9371 N   0  0  0  0  0  0
  -24.6564  -31.0827   22.1047 N   0  0  0  0  0  0
  -23.4298  -28.8296   23.3245 O   0  0  0  0  0  0
  -28.4276  -26.7765   20.0955 O   0  0  0  0  0  0
  -26.5633  -34.8930   22.4688 O   0  0  0  0  0  0
  -23.5265  -32.1454   23.7598 O   0  0  0  0  0  0
  -27.2845  -16.9750   22.4848 C   0  0  0  0  0  0
  -28.2546  -15.9616   22.4511 C   0  0  0  0  0  0
  -28.7081  -18.3616   21.0878 C   0  0  0  0  0  0
  -27.4939  -18.1849   21.7975 C   0  0  0  0  0  0
  -29.7011  -17.3670   21.0796 C   0  0  0  0  0  0
  -29.4535  -16.1241   21.7189 C   0  0  0  0  0  0
  -26.4645  -19.2761   21.8802 C   0  0  0  0  0  0
  -31.0456  -17.7068   20.4574 C   0  0  0  0  0  0
  -25.3925  -21.6292   19.6330 C   0  0  0  0  0  0
  -28.6935  -24.8828   18.5793 C   0  0  0  0  0  0
  -25.9648  -21.5775   21.0582 C   0  0  0  0  0  0
  -26.4573  -21.8798   18.5500 C   0  0  0  0  0  0
  -28.3945  -25.3515   20.0146 C   0  0  0  0  0  0
  -28.2927  -23.4192   18.2869 C   0  0  0  0  0  0
  -30.4398  -15.1068   21.7616 N   0  0  0  0  0  0
  -26.7894  -20.3929   21.2354 N   0  0  0  0  0  0
  -25.4039  -19.1283   22.4931 O   0  0  0  0  0  0
  -26.9669  -23.1991   18.7508 O   0  0  0  0  0  0
  -31.4549  -12.3834   19.0863 H   0  0  0  0  0  0
  -30.3011  -11.2687   19.7527 H   0  0  0  0  0  0
  -29.6989  -11.8052   17.3968 H   0  0  0  0  0  0
  -29.6660  -13.5111   17.7564 H   0  0  0  0  0  0
  -27.8125  -11.3361   18.7947 H   0  0  0  0  0  0
  -27.3401  -12.6846   17.7927 H   0  0  0  0  0  0
  -27.7357  -14.2644   19.6385 H   0  0  0  0  0  0
  -28.6836  -11.8607   21.2726 H   0  0  0  0  0  0
  -28.4926  -13.4326   21.9095 H   0  0  0  0  0  0
  -25.2719   -9.5749   22.4747 H   0  0  0  0  0  0
  -24.0015   -7.4659   22.7486 H   0  0  0  0  0  0
  -21.0799   -8.8727   19.8982 H   0  0  0  0  0  0
  -22.3568  -10.9666   19.6214 H   0  0  0  0  0  0
  -21.1992   -7.6116   23.9669 H   0  0  0  0  0  0
  -21.1495   -6.0521   25.9057 H   0  0  0  0  0  0
  -22.0598   -2.7575   23.2859 H   0  0  0  0  0  0
  -22.4119  -11.9918   22.4826 H   0  0  0  0  0  0
  -21.1156  -13.1316   22.2653 H   0  0  0  0  0  0
  -24.6765  -15.8420   20.5550 H   0  0  0  0  0  0
  -26.3218  -15.6191   20.2087 H   0  0  0  0  0  0
  -26.7148  -32.5557   23.1240 H   0  0  0  0  0  0
  -25.0007  -33.9773   25.0468 H   0  0  0  0  0  0
  -22.6678  -31.2897   21.4337 H   0  0  0  0  0  0
  -23.3738  -35.9674   23.3343 H   0  0  0  0  0  0
  -24.3579  -36.8885   22.2044 H   0  0  0  0  0  0
  -23.7256  -37.6532   23.6626 H   0  0  0  0  0  0
  -26.0729  -31.6218   20.6362 H   0  0  0  0  0  0
  -26.7889  -30.8515   22.0246 H   0  0  0  0  0  0
  -28.0817  -29.1163   21.1657 H   0  0  0  0  0  0
  -26.0338  -26.0154   18.9516 H   0  0  0  0  0  0
  -23.9820  -27.3431   18.9698 H   0  0  0  0  0  0
  -23.7192  -30.6262   19.4066 H   0  0  0  0  0  0
  -22.7245  -29.2656   19.8636 H   0  0  0  0  0  0
  -25.1310  -36.2004   25.0812 H   0  0  0  0  0  0
  -20.9916  -28.3269   24.1915 H   0  0  0  0  0  0
  -20.3789  -26.2502   23.4135 H   0  0  0  0  0  0
  -21.6407  -26.6332   22.2952 H   0  0  0  0  0  0
  -19.7611  -25.7927   20.9837 H   0  0  0  0  0  0
  -19.7017  -27.5418   20.7672 H   0  0  0  0  0  0
  -17.4319  -26.6659   21.3926 H   0  0  0  0  0  0
  -18.1088  -26.0132   22.8695 H   0  0  0  0  0  0
  -19.7787  -30.7389   24.2663 H   0  0  0  0  0  0
  -17.4884  -31.6192   24.5324 H   0  0  0  0  0  0
  -15.5311  -30.2775   23.7667 H   0  0  0  0  0  0
  -15.8791  -28.0771   22.6908 H   0  0  0  0  0  0
  -24.5855  -30.7097   25.7805 H   0  0  0  0  0  0
  -24.8847  -32.2885   26.4950 H   0  0  0  0  0  0
  -25.7958  -30.8892   27.0282 H   0  0  0  0  0  0
  -26.2882  -29.6814   24.1264 H   0  0  0  0  0  0
  -27.4005  -29.7342   25.4742 H   0  0  0  0  0  0
  -27.8747  -30.4367   23.9468 H   0  0  0  0  0  0
  -27.2697  -33.3667   26.2085 H   0  0  0  0  0  0
  -28.3771  -32.6936   25.0231 H   0  0  0  0  0  0
  -28.0816  -31.8513   26.5342 H   0  0  0  0  0  0
  -28.2639  -38.0112   24.7513 H   0  0  0  0  0  0
  -28.1081  -36.2632   24.6288 H   0  0  0  0  0  0
  -27.2312  -37.1480   25.8873 H   0  0  0  0  0  0
  -20.9443  -29.8060   21.6807 H   0  0  0  0  0  0
  -26.0212  -38.2892   24.1355 H   0  0  0  0  0  0
  -26.3843  -16.8217   23.0572 H   0  0  0  0  0  0
  -28.0608  -15.0813   23.0426 H   0  0  0  0  0  0
  -28.9278  -19.2933   20.5874 H   0  0  0  0  0  0
  -31.0485  -18.7090   20.0305 H   0  0  0  0  0  0
  -31.3142  -17.0192   19.6595 H   0  0  0  0  0  0
  -31.8196  -17.6780   21.2298 H   0  0  0  0  0  0
  -24.6452  -22.4243   19.5836 H   0  0  0  0  0  0
  -24.8596  -20.6960   19.4309 H   0  0  0  0  0  0
  -29.7629  -25.0162   18.3913 H   0  0  0  0  0  0
  -28.1867  -25.5417   17.8801 H   0  0  0  0  0  0
  -25.1467  -21.6121   21.7782 H   0  0  0  0  0  0
  -26.5954  -22.4483   21.2503 H   0  0  0  0  0  0
  -26.0087  -21.8105   17.5600 H   0  0  0  0  0  0
  -27.2319  -21.1143   18.5848 H   0  0  0  0  0  0
  -29.1485  -24.9492   20.6893 H   0  0  0  0  0  0
  -27.4539  -24.9618   20.3982 H   0  0  0  0  0  0
  -28.9787  -22.7209   18.7638 H   0  0  0  0  0  0
  -28.3522  -23.2286   17.2133 H   0  0  0  0  0  0
  -31.2816  -15.4654   22.1919 H   0  0  0  0  0  0
  -27.6909  -20.3807   20.7753 H   0  0  0  0  0  0
  1 25  1  0  0  0
  1 30  2  0  0  0
  1 85  1  0  0  0
  2  3  1  0  0  0
  2 25  1  0  0  0
  2 89  1  0  0  0
  2 90  1  0  0  0
  3  4  1  0  0  0
  3 91  1  0  0  0
  3 92  1  0  0  0
  4  5  1  0  0  0
  4 93  1  0  0  0
  4 94  1  0  0  0
  5  6  1  0  0  0
  5 26  1  0  0  0
  5 95  1  0  0  0
  6 25  1  0  0  0
  6 96  1  0  0  0
  6 97  1  0  0  0
  7  8  2  0  0  0
  7 26  1  0  0  0
  7 29  1  0  0  0
  8  9  1  0  0  0
  8 22  1  0  0  0
  9 10  1  0  0  0
  9 27  2  0  0  0
 10 11  2  0  0  0
 10 15  1  0  0  0
 11 12  1  0  0  0
 11 98  1  0  0  0
 12 13  2  0  0  0
 12 99  1  0  0  0
 13 14  1  0  0  0
 13 31  1  0  0  0
 14 15  2  0  0  0
 14100  1  0  0  0
 15101  1  0  0  0
 16 17  2  0  0  0
 16 21  1  0  0  0
 16 31  1  0  0  0
 17 18  1  0  0  0
 17102  1  0  0  0
 18 19  2  0  0  0
 18103  1  0  0  0
 19 20  1  0  0  0
 19 24  1  0  0  0
 20 21  2  0  0  0
 20104  1  0  0  0
 21 23  1  0  0  0
 22 28  1  0  0  0
 22 32  2  0  0  0
 26 27  1  0  0  0
 28105  1  0  0  0
 28106  1  0  0  0
 29107  1  0  0  0
 29108  1  0  0  0
 33 34  1  0  0  0
 33 66  1  0  0  0
 33 70  2  0  0  0
 34 36  1  0  0  0
 34 59  1  0  0  0
 34109  1  0  0  0
 35 44  2  0  0  0
 35 45  1  0  0  0
 35 68  1  0  0  0
 36 56  1  0  0  0
 36110  1  0  0  0
 37 39  1  0  0  0
 37 47  1  0  0  0
 37 66  1  0  0  0
 37111  1  0  0  0
 38 43  2  0  0  0
 38 46  1  0  0  0
 38 47  1  0  0  0
 39 64  1  0  0  0
 39 67  2  0  0  0
 40 52  1  0  0  0
 40 53  2  0  0  0
 40 58  1  0  0  0
 41112  1  0  0  0
 41113  1  0  0  0
 41114  1  0  0  0
 41 48  1  0  0  0
 42 43  1  0  0  0
 42 66  1  0  0  0
 42115  1  0  0  0
 42116  1  0  0  0
 43 44  1  0  0  0
 44117  1  0  0  0
 45 46  2  0  0  0
 45118  1  0  0  0
 46119  1  0  0  0
 47120  1  0  0  0
 47121  1  0  0  0
 48 56  1  0  0  0
 48 65  1  0  0  0
 48122  1  0  0  0
 49 50  1  0  0  0
 49 53  1  0  0  0
 49 64  1  0  0  0
 49123  1  0  0  0
 50 51  1  0  0  0
 50124  1  0  0  0
 50125  1  0  0  0
 51 52  1  0  0  0
 51126  1  0  0  0
 51127  1  0  0  0
 52128  1  0  0  0
 52129  1  0  0  0
 53 54  1  0  0  0
 54 55  2  0  0  0
 54130  1  0  0  0
 55 57  1  0  0  0
 55131  1  0  0  0
 56 69  2  0  0  0
 57 58  2  0  0  0
 57132  1  0  0  0
 58133  1  0  0  0
 59 60  1  0  0  0
 59 61  1  0  0  0
 59 62  1  0  0  0
 60134  1  0  0  0
 60135  1  0  0  0
 60136  1  0  0  0
 61137  1  0  0  0
 61138  1  0  0  0
 61139  1  0  0  0
 62140  1  0  0  0
 62141  1  0  0  0
 62142  1  0  0  0
 63 65  1  0  0  0
 63143  1  0  0  0
 63144  1  0  0  0
 63145  1  0  0  0
 64146  1  0  0  0
 65147  1  0  0  0
 68 83  1  0  0  0
 71 72  2  0  0  0
 71 74  1  0  0  0
 71148  1  0  0  0
 72 76  1  0  0  0
 72149  1  0  0  0
 73 74  2  0  0  0
 73 75  1  0  0  0
 73150  1  0  0  0
 74 77  1  0  0  0
 75 76  2  0  0  0
 75 78  1  0  0  0
 76 85  1  0  0  0
 77 86  1  0  0  0
 77 87  2  0  0  0
 78151  1  0  0  0
 78152  1  0  0  0
 78153  1  0  0  0
 79 81  1  0  0  0
 79 82  1  0  0  0
 79154  1  0  0  0
 79155  1  0  0  0
 80 83  1  0  0  0
 80 84  1  0  0  0
 80156  1  0  0  0
 80157  1  0  0  0
 81 86  1  0  0  0
 81158  1  0  0  0
 81159  1  0  0  0
 82 88  1  0  0  0
 82160  1  0  0  0
 82161  1  0  0  0
 83162  1  0  0  0
 83163  1  0  0  0
 84 88  1  0  0  0
 84164  1  0  0  0
 84165  1  0  0  0
 85166  1  0  0  0
 86167  1  0  0  0
M  ISO  4   1 100  68 101  83 101  85 100
M  END
> <chiral flag>
0

> <version>
0

> <s_m_source_file>
/data/baiqing/PycharmProjects/Reinvent-master-3.2/result/LINK_invent/BTK/process_docking_weight1_custom_product_contain_oxygen_bond_distance_aromatic_linkinvent_7_9_3/rearranged_h_0000.sdf

> <i_m_source_file_index>
31

> <r_mmod_Potential_Energy-OPLS-2005>
-50.0693054199219

> <r_mmod_Stretch_Energy-OPLS-2005>
34.3890190124512

> <r_mmod_Bend_Energy-OPLS-2005>
114.733581542969

> <r_mmod_Torsional_Energy-OPLS-2005>
280.004211425781

> <r_mmod_Improper_Torsional_Energy-OPLS-2005>
8.47524833679199

> <r_mmod_Van_der_Waal_Energy-OPLS-2005>
158.918319702148

> <r_mmod_Electrostatic_Energy-OPLS-2005>
-445.037933349609

> <r_mmod_Solvation_Energy-OPLS-2005>
-213.668701171875

> <b_mmod_Minimization_Converged-OPLS-2005>
0

> <r_mmod_RMS_Derivative-OPLS-2005>
10.1915855407715

$$$$
31
                    3D
 Structure written by MMmdl.
158166  0  0  1  0            999 V2000
  -30.0960  -13.5821   20.2004 C   0  0  0  0  0  0
  -30.8297  -12.1213   19.9317 C   0  0  0  0  0  0
  -29.6903  -11.8741   18.5546 C   0  0  0  0  0  0
  -28.1750  -12.5872   18.5657 C   0  0  0  0  0  0
  -27.6716  -13.6928   19.7401 C   0  0  2  0  0  0
  -29.0277  -14.3349   20.8970 C   0  0  0  0  0  0
  -25.2245  -13.9122   20.5496 C   0  0  0  0  0  0
  -24.1993  -13.0798   20.9072 C   0  0  0  0  0  0
  -24.7113  -11.7492   20.8366 C   0  0  0  0  0  0
  -23.9782  -10.4586   21.0081 C   0  0  0  0  0  0
  -24.4078   -9.4469   21.9000 C   0  0  0  0  0  0
  -23.6592   -8.2550   22.0718 C   0  0  0  0  0  0
  -22.4548   -8.0532   21.3550 C   0  0  0  0  0  0
  -22.0303   -9.0527   20.4610 C   0  0  0  0  0  0
  -22.7801  -10.2339   20.2896 C   0  0  0  0  0  0
  -21.6984   -6.0888   22.5274 C   0  0  0  0  0  0
  -21.4108   -6.5733   23.8221 C   0  0  0  0  0  0
  -21.3680   -5.6849   24.9158 C   0  0  0  0  0  0
  -21.6038   -4.3109   24.7182 C   0  0  0  0  0  0
  -21.8809   -3.8235   23.4293 C   0  0  0  0  0  0
  -21.9233   -4.7088   22.3370 C   0  0  0  0  0  0
  -22.7871  -13.5134   21.1844 C   0  0  0  0  0  0
  -22.1675   -4.2261   21.0948 F   0  0  0  0  0  0
  -21.5610   -3.4566   25.7678 F   0  0  0  0  0  0
  -30.4756  -13.3778   21.0568 N   0  0  0  0  0  0
  -26.3459  -13.1533   20.2943 N   0  0  0  0  0  0
  -26.0208  -11.8131   20.5116 N   0  0  0  0  0  0
  -22.0715  -12.7969   22.0434 N   0  0  0  0  0  0
  -25.3046  -15.2881   20.4110 N   0  0  0  0  0  0
  -30.6607  -14.3282   19.2616 O   0  0  0  0  0  0
  -21.6843   -6.9125   21.4272 O   0  0  0  0  0  0
  -22.3301  -14.5366   20.6755 O   0  0  0  0  0  0
  -24.6289  -31.8587   23.2030 C   0  0  0  0  0  0
  -25.9128  -32.4773   23.8363 C   0  0  1  0  0  0
  -27.1628  -27.2564   20.1916 C   0  0  0  0  0  0
  -25.5931  -33.8575   24.2282 N   0  0  0  0  0  0
  -23.4249  -30.4869   21.5428 C   0  0  2  0  0  0
  -24.8729  -28.9537   20.0922 C   0  0  0  0  0  0
  -22.7500  -29.4625   22.4881 C   0  0  0  0  0  0
  -18.0294  -28.1388   22.8484 C   0  0  0  0  0  0
  -24.1491  -36.7293   23.2640 C   0  0  0  0  0  0
  -25.9703  -30.7792   21.3833 C   0  0  0  0  0  0
  -26.0407  -29.4060   20.7236 C   0  0  0  0  0  0
  -27.1998  -28.5677   20.7677 C   0  0  0  0  0  0
  -26.0089  -26.8997   19.4636 C   0  0  0  0  0  0
  -24.8655  -27.7142   19.4373 C   0  0  0  0  0  0
  -23.6423  -29.8361   20.1513 C   0  0  0  0  0  0
  -25.4116  -36.3082   24.0330 C   0  0  1  0  0  0
  -20.5901  -28.3703   23.1257 C   0  0  2  0  0  0
  -20.6784  -26.9418   22.5404 C   0  0  0  0  0  0
  -19.5757  -26.6383   21.5211 C   0  0  0  0  0  0
  -18.1938  -26.7929   22.1625 C   0  0  0  0  0  0
  -19.1549  -28.8861   23.2867 C   0  0  0  0  0  0
  -18.9470  -30.1459   23.8890 C   0  0  0  0  0  0
  -17.6470  -30.6589   24.0562 C   0  0  0  0  0  0
  -25.9056  -34.9449   23.5108 C   0  0  0  0  0  0
  -16.5360  -29.9088   23.6331 C   0  0  0  0  0  0
  -16.7280  -28.6504   23.0355 C   0  0  0  0  0  0
  -26.4500  -31.6585   25.0739 C   0  0  0  0  0  0
  -25.3724  -31.3728   26.1458 C   0  0  0  0  0  0
  -27.0348  -30.3004   24.6218 C   0  0  0  0  0  0
  -27.6056  -32.4324   25.7506 C   0  0  0  0  0  0
  -27.5581  -37.1805   24.8465 C   0  0  0  0  0  0
  -21.4207  -29.3048   22.3632 N   0  0  0  0  0  0
  -26.4294  -37.3776   23.9405 N   0  0  0  0  0  0
  -24.6933  -31.0587   22.0991 N   0  0  0  0  0  0
  -23.4211  -28.8165   23.2972 O   0  0  0  0  0  0
  -28.0875  -26.2160   20.3976 O   0  0  0  0  0  0
  -26.5625  -34.8915   22.4676 O   0  0  0  0  0  0
  -23.5444  -32.1397   23.7338 O   0  0  0  0  0  0
  -25.1811  -21.3869   21.4953 C   0  0  0  0  0  0
  -25.9517  -22.5362   21.2477 C   0  0  0  0  0  0
  -25.7753  -20.1645   21.8578 C   0  0  0  0  0  0
  -27.9531  -21.2389   21.7181 C   0  0  0  0  0  0
  -27.3616  -22.5247   21.3471 C   0  0  0  0  0  0
  -27.1774  -20.0280   21.9983 C   0  0  0  0  0  0
  -27.4834  -16.1978   23.1532 C   0  0  0  0  0  0
  -27.6054  -25.1242   21.2647 C   0  0  0  0  0  0
  -26.8592  -17.5495   22.5451 C   0  0  0  0  0  0
  -27.3247  -13.4690   23.1879 C   0  0  0  0  0  0
  -28.4196  -12.3688   22.5173 C   0  0  0  0  0  0
  -28.0733  -23.7905   20.9976 N   0  0  0  0  0  0
  -26.9771  -14.9473   22.8128 N   0  0  0  0  0  0
  -28.4291  -16.2842   23.9385 O   0  0  0  0  0  0
  -26.7918  -25.3528   22.1642 O   0  0  0  0  0  0
  -27.7299  -18.7659   22.3986 O   0  0  0  0  0  0
  -28.9215  -12.2029   21.0586 O   0  0  0  0  0  0
  -31.8632  -12.1755   19.5431 H   0  0  0  0  0  0
  -30.9176  -11.1706   20.4756 H   0  0  0  0  0  0
  -29.5626  -10.8003   18.4118 H   0  0  0  0  0  0
  -30.1954  -12.1983   17.6426 H   0  0  0  0  0  0
  -27.4472  -11.7846   18.4568 H   0  0  0  0  0  0
  -28.0846  -13.1068   17.6111 H   0  0  0  0  0  0
  -27.3977  -14.5718   19.1561 H   0  0  0  0  0  0
  -28.9635  -14.5953   21.9332 H   0  0  0  0  0  0
  -29.0690  -15.4448   20.6812 H   0  0  0  0  0  0
  -25.3210   -9.5894   22.4607 H   0  0  0  0  0  0
  -24.0242   -7.4994   22.7529 H   0  0  0  0  0  0
  -21.1212   -8.9120   19.8932 H   0  0  0  0  0  0
  -22.4249  -10.9832   19.5962 H   0  0  0  0  0  0
  -21.2142   -7.6243   23.9764 H   0  0  0  0  0  0
  -21.1489   -6.0561   25.9066 H   0  0  0  0  0  0
  -22.0550   -2.7695   23.2765 H   0  0  0  0  0  0
  -22.4520  -11.9702   22.4791 H   0  0  0  0  0  0
  -21.1276  -13.0782   22.2673 H   0  0  0  0  0  0
  -24.4297  -15.8023   20.3742 H   0  0  0  0  0  0
  -26.0106  -15.7027   19.8149 H   0  0  0  0  0  0
  -26.7198  -32.5434   23.1111 H   0  0  0  0  0  0
  -25.0063  -33.9719   25.0416 H   0  0  0  0  0  0
  -22.7198  -31.3092   21.4051 H   0  0  0  0  0  0
  -23.3752  -35.9628   23.3306 H   0  0  0  0  0  0
  -24.3584  -36.8911   22.2055 H   0  0  0  0  0  0
  -23.7246  -37.6497   23.6661 H   0  0  0  0  0  0
  -26.1108  -31.5419   20.6163 H   0  0  0  0  0  0
  -26.8481  -30.8249   22.0162 H   0  0  0  0  0  0
  -28.0730  -28.8808   21.3222 H   0  0  0  0  0  0
  -25.9534  -25.9283   18.9919 H   0  0  0  0  0  0
  -23.9764  -27.3696   18.9271 H   0  0  0  0  0  0
  -23.7620  -30.6205   19.4031 H   0  0  0  0  0  0
  -22.7610  -29.2702   19.8438 H   0  0  0  0  0  0
  -25.1299  -36.1938   25.0824 H   0  0  0  0  0  0
  -21.0000  -28.3290   24.1374 H   0  0  0  0  0  0
  -20.5684  -26.2317   23.3614 H   0  0  0  0  0  0
  -21.6653  -26.7441   22.1199 H   0  0  0  0  0  0
  -19.6921  -25.6291   21.1249 H   0  0  0  0  0  0
  -19.6694  -27.3186   20.6735 H   0  0  0  0  0  0
  -17.4206  -26.6668   21.4031 H   0  0  0  0  0  0
  -18.0344  -26.0075   22.9027 H   0  0  0  0  0  0
  -19.7947  -30.7275   24.2259 H   0  0  0  0  0  0
  -17.5027  -31.6269   24.5165 H   0  0  0  0  0  0
  -15.5361  -30.2991   23.7659 H   0  0  0  0  0  0
  -15.8678  -28.0820   22.7080 H   0  0  0  0  0  0
  -24.5897  -30.7082   25.7779 H   0  0  0  0  0  0
  -24.8916  -32.2896   26.4881 H   0  0  0  0  0  0
  -25.8039  -30.8900   27.0236 H   0  0  0  0  0  0
  -26.2936  -29.6750   24.1227 H   0  0  0  0  0  0
  -27.4016  -29.7263   25.4737 H   0  0  0  0  0  0
  -27.8821  -30.4280   23.9476 H   0  0  0  0  0  0
  -27.2664  -33.3623   26.2083 H   0  0  0  0  0  0
  -28.3862  -32.6889   25.0332 H   0  0  0  0  0  0
  -28.0731  -31.8453   26.5421 H   0  0  0  0  0  0
  -28.2602  -38.0097   24.7508 H   0  0  0  0  0  0
  -28.1073  -36.2630   24.6299 H   0  0  0  0  0  0
  -27.2299  -37.1463   25.8868 H   0  0  0  0  0  0
  -20.9381  -29.8772   21.6845 H   0  0  0  0  0  0
  -26.0178  -38.2855   24.1391 H   0  0  0  0  0  0
  -24.1056  -21.4438   21.4008 H   0  0  0  0  0  0
  -25.4261  -23.4351   20.9572 H   0  0  0  0  0  0
  -25.1044  -19.3363   22.0259 H   0  0  0  0  0  0
  -29.0289  -21.1764   21.7990 H   0  0  0  0  0  0
  -26.0291  -17.7914   23.2087 H   0  0  0  0  0  0
  -26.4331  -17.3312   21.5686 H   0  0  0  0  0  0
  -27.5385  -13.4863   24.2569 H   0  0  0  0  0  0
  -26.3584  -12.9682   23.1410 H   0  0  0  0  0  0
  -28.0493  -11.3812   22.7909 H   0  0  0  0  0  0
  -29.3270  -12.4670   23.1138 H   0  0  0  0  0  0
  -28.8759  -23.7326   20.3843 H   0  0  0  0  0  0
  -26.2292  -15.0238   22.1240 H   0  0  0  0  0  0
  1 25  1  0  0  0
  1 30  2  0  0  0
  1 87  1  0  0  0
  2  3  1  0  0  0
  2 25  1  0  0  0
  2 88  1  0  0  0
  2 89  1  0  0  0
  3  4  1  0  0  0
  3 90  1  0  0  0
  3 91  1  0  0  0
  4  5  1  0  0  0
  4 92  1  0  0  0
  4 93  1  0  0  0
  5  6  1  0  0  0
  5 26  1  0  0  0
  5 94  1  0  0  0
  6 25  1  0  0  0
  6 95  1  0  0  0
  6 96  1  0  0  0
  7  8  2  0  0  0
  7 26  1  0  0  0
  7 29  1  0  0  0
  8  9  1  0  0  0
  8 22  1  0  0  0
  9 10  1  0  0  0
  9 27  2  0  0  0
 10 11  2  0  0  0
 10 15  1  0  0  0
 11 12  1  0  0  0
 11 97  1  0  0  0
 12 13  2  0  0  0
 12 98  1  0  0  0
 13 14  1  0  0  0
 13 31  1  0  0  0
 14 15  2  0  0  0
 14 99  1  0  0  0
 15100  1  0  0  0
 16 17  2  0  0  0
 16 21  1  0  0  0
 16 31  1  0  0  0
 17 18  1  0  0  0
 17101  1  0  0  0
 18 19  2  0  0  0
 18102  1  0  0  0
 19 20  1  0  0  0
 19 24  1  0  0  0
 20 21  2  0  0  0
 20103  1  0  0  0
 21 23  1  0  0  0
 22 28  1  0  0  0
 22 32  2  0  0  0
 26 27  1  0  0  0
 28104  1  0  0  0
 28105  1  0  0  0
 29106  1  0  0  0
 29107  1  0  0  0
 33 34  1  0  0  0
 33 66  1  0  0  0
 33 70  2  0  0  0
 34 36  1  0  0  0
 34 59  1  0  0  0
 34108  1  0  0  0
 35 44  2  0  0  0
 35 45  1  0  0  0
 35 68  1  0  0  0
 36 56  1  0  0  0
 36109  1  0  0  0
 37 39  1  0  0  0
 37 47  1  0  0  0
 37 66  1  0  0  0
 37110  1  0  0  0
 38 43  2  0  0  0
 38 46  1  0  0  0
 38 47  1  0  0  0
 39 64  1  0  0  0
 39 67  2  0  0  0
 40 52  1  0  0  0
 40 53  2  0  0  0
 40 58  1  0  0  0
 41111  1  0  0  0
 41112  1  0  0  0
 41113  1  0  0  0
 41 48  1  0  0  0
 42 43  1  0  0  0
 42 66  1  0  0  0
 42114  1  0  0  0
 42115  1  0  0  0
 43 44  1  0  0  0
 44116  1  0  0  0
 45 46  2  0  0  0
 45117  1  0  0  0
 46118  1  0  0  0
 47119  1  0  0  0
 47120  1  0  0  0
 48 56  1  0  0  0
 48 65  1  0  0  0
 48121  1  0  0  0
 49 50  1  0  0  0
 49 53  1  0  0  0
 49 64  1  0  0  0
 49122  1  0  0  0
 50 51  1  0  0  0
 50123  1  0  0  0
 50124  1  0  0  0
 51 52  1  0  0  0
 51125  1  0  0  0
 51126  1  0  0  0
 52127  1  0  0  0
 52128  1  0  0  0
 53 54  1  0  0  0
 54 55  2  0  0  0
 54129  1  0  0  0
 55 57  1  0  0  0
 55130  1  0  0  0
 56 69  2  0  0  0
 57 58  2  0  0  0
 57131  1  0  0  0
 58132  1  0  0  0
 59 60  1  0  0  0
 59 61  1  0  0  0
 59 62  1  0  0  0
 60133  1  0  0  0
 60134  1  0  0  0
 60135  1  0  0  0
 61136  1  0  0  0
 61137  1  0  0  0
 61138  1  0  0  0
 62139  1  0  0  0
 62140  1  0  0  0
 62141  1  0  0  0
 63 65  1  0  0  0
 63142  1  0  0  0
 63143  1  0  0  0
 63144  1  0  0  0
 64145  1  0  0  0
 65146  1  0  0  0
 68 78  1  0  0  0
 71 72  2  0  0  0
 71 73  1  0  0  0
 71147  1  0  0  0
 72 75  1  0  0  0
 72148  1  0  0  0
 73 76  2  0  0  0
 73149  1  0  0  0
 74 75  2  0  0  0
 74 76  1  0  0  0
 74150  1  0  0  0
 75 82  1  0  0  0
 76 86  1  0  0  0
 77 79  1  0  0  0
 77 83  1  0  0  0
 77 84  2  0  0  0
 78 82  1  0  0  0
 78 85  2  0  0  0
 79 86  1  0  0  0
 79151  1  0  0  0
 79152  1  0  0  0
 80 81  1  0  0  0
 80 83  1  0  0  0
 80153  1  0  0  0
 80154  1  0  0  0
 81 87  1  0  0  0
 81155  1  0  0  0
 81156  1  0  0  0
 82157  1  0  0  0
 83158  1  0  0  0
M  ISO  4   1 100  68 101  78 101  87 100
M  END
> <chiral flag>
0

> <version>
0

> <s_m_source_file>
/data/baiqing/PycharmProjects/Reinvent-master-3.2/result/LINK_invent/BTK/process_docking_weight1_custom_product_contain_oxygen_bond_distance_aromatic_linkinvent_7_9_3/rearranged_h_0000.sdf

> <i_m_source_file_index>
32

> <r_mmod_Potential_Energy-OPLS-2005>
4119.12255859375

> <r_mmod_Stretch_Energy-OPLS-2005>
1495.27709960938

> <r_mmod_Bend_Energy-OPLS-2005>
1243.08654785156

> <r_mmod_Torsional_Energy-OPLS-2005>
353.203674316406

> <r_mmod_Improper_Torsional_Energy-OPLS-2005>
19.1326961517334

> <r_mmod_Van_der_Waal_Energy-OPLS-2005>
861.016723632812

> <r_mmod_Electrostatic_Energy-OPLS-2005>
-408.627197265625

> <r_mmod_Solvation_Energy-OPLS-2005>
-265.505035400391

> <b_mmod_Minimization_Converged-OPLS-2005>
0

> <r_mmod_RMS_Derivative-OPLS-2005>
0.6148881316185

$$$$
32
                    3D
 Structure written by MMmdl.
154162  0  0  1  0            999 V2000
  -30.7747  -14.3380   20.6592 C   0  0  0  0  0  0
  -30.4166  -12.2434   19.3838 C   0  0  0  0  0  0
  -29.4838  -12.5189   18.1888 C   0  0  0  0  0  0
  -28.0062  -12.3844   18.6068 C   0  0  0  0  0  0
  -27.6697  -13.1945   19.8875 C   0  0  2  0  0  0
  -28.7023  -12.9094   21.0010 C   0  0  0  0  0  0
  -25.2611  -13.8134   20.5697 C   0  0  0  0  0  0
  -24.1841  -13.0420   20.9166 C   0  0  0  0  0  0
  -24.6377  -11.6884   20.8723 C   0  0  0  0  0  0
  -23.9040  -10.4275   21.0413 C   0  0  0  0  0  0
  -24.3593   -9.4190   21.9195 C   0  0  0  0  0  0
  -23.6269   -8.2225   22.0759 C   0  0  0  0  0  0
  -22.4255   -8.0266   21.3549 C   0  0  0  0  0  0
  -21.9879   -9.0239   20.4653 C   0  0  0  0  0  0
  -22.7207  -10.2119   20.3067 C   0  0  0  0  0  0
  -21.6842   -6.0713   22.5273 C   0  0  0  0  0  0
  -21.4007   -6.5621   23.8206 C   0  0  0  0  0  0
  -21.3673   -5.6781   24.9175 C   0  0  0  0  0  0
  -21.6051   -4.3045   24.7230 C   0  0  0  0  0  0
  -21.8823   -3.8128   23.4350 C   0  0  0  0  0  0
  -21.9184   -4.6940   22.3397 C   0  0  0  0  0  0
  -22.7865  -13.5236   21.1836 C   0  0  0  0  0  0
  -22.1662   -4.2122   21.0979 F   0  0  0  0  0  0
  -21.5625   -3.4534   25.7746 F   0  0  0  0  0  0
  -30.0479  -13.1626   20.4600 N   0  0  0  0  0  0
  -26.3050  -12.9288   20.3408 N   0  0  0  0  0  0
  -25.9297  -11.6456   20.5754 N   0  0  0  0  0  0
  -22.0486  -12.8246   22.0399 N   0  0  0  0  0  0
  -25.4351  -15.1851   20.4153 N   0  0  0  0  0  0
  -31.8169  -14.6518   20.0786 O   0  0  0  0  0  0
  -21.6624   -6.8856   21.4238 O   0  0  0  0  0  0
  -22.3568  -14.5555   20.6690 O   0  0  0  0  0  0
  -24.6085  -31.8733   23.2156 C   0  0  0  0  0  0
  -25.9001  -32.4854   23.8432 C   0  0  1  0  0  0
  -27.2355  -27.4979   20.0904 C   0  0  0  0  0  0
  -25.5881  -33.8648   24.2365 N   0  0  0  0  0  0
  -23.3932  -30.4976   21.5532 C   0  0  2  0  0  0
  -24.8415  -28.9718   20.1159 C   0  0  0  0  0  0
  -22.7375  -29.4684   22.5007 C   0  0  0  0  0  0
  -18.0270  -28.1365   22.8495 C   0  0  0  0  0  0
  -24.1486  -36.7332   23.2637 C   0  0  0  0  0  0
  -25.9151  -30.8596   21.3580 C   0  0  0  0  0  0
  -25.9973  -29.4981   20.7087 C   0  0  0  0  0  0
  -27.2022  -28.7697   20.6937 C   0  0  0  0  0  0
  -26.0697  -26.9746   19.4885 C   0  0  0  0  0  0
  -24.8682  -27.7051   19.5054 C   0  0  0  0  0  0
  -23.5996  -29.8299   20.1671 C   0  0  0  0  0  0
  -25.4104  -36.3135   24.0347 C   0  0  1  0  0  0
  -20.5848  -28.3643   23.1334 C   0  0  2  0  0  0
  -20.6762  -26.9392   22.5413 C   0  0  0  0  0  0
  -19.5741  -26.6381   21.5209 C   0  0  0  0  0  0
  -18.1918  -26.7914   22.1620 C   0  0  0  0  0  0
  -19.1513  -28.8817   23.2921 C   0  0  0  0  0  0
  -18.9447  -30.1422   23.8932 C   0  0  0  0  0  0
  -17.6450  -30.6571   24.0559 C   0  0  0  0  0  0
  -25.9023  -34.9494   23.5150 C   0  0  0  0  0  0
  -16.5340  -29.9077   23.6319 C   0  0  0  0  0  0
  -16.7259  -28.6494   23.0344 C   0  0  0  0  0  0
  -26.4460  -31.6608   25.0725 C   0  0  0  0  0  0
  -25.3761  -31.3689   26.1494 C   0  0  0  0  0  0
  -27.0275  -30.3070   24.6026 C   0  0  0  0  0  0
  -27.6053  -32.4312   25.7478 C   0  0  0  0  0  0
  -27.5585  -37.1821   24.8467 C   0  0  0  0  0  0
  -21.4105  -29.3041   22.3761 N   0  0  0  0  0  0
  -26.4303  -37.3807   23.9406 N   0  0  0  0  0  0
  -24.6569  -31.0887   22.1021 N   0  0  0  0  0  0
  -23.4180  -28.8219   23.3016 O   0  0  0  0  0  0
  -28.3936  -26.7709   20.0484 O   0  0  0  0  0  0
  -26.5571  -34.8933   22.4700 O   0  0  0  0  0  0
  -23.5292  -32.1456   23.7577 O   0  0  0  0  0  0
  -27.6306  -21.4189   20.8605 C   0  0  0  0  0  0
  -29.5428  -21.1794   19.3660 C   0  0  0  0  0  0
  -27.8727  -22.8000   20.9453 C   0  0  0  0  0  0
  -29.7917  -22.5590   19.4557 C   0  0  0  0  0  0
  -28.4741  -20.5992   20.0860 C   0  0  0  0  0  0
  -28.9648  -23.3764   20.2493 C   0  0  0  0  0  0
  -28.2339  -19.1249   20.0380 C   0  0  0  0  0  0
  -28.4962  -25.7323   20.8800 C   0  0  0  0  0  0
  -29.4220  -16.9580   20.0888 C   0  0  0  0  0  0
  -30.2472  -16.5536   21.3204 C   0  0  0  0  0  0
  -29.2424  -24.7628   20.2472 N   0  0  0  0  0  0
  -29.3503  -18.4001   19.9876 N   0  0  0  0  0  0
  -27.1010  -18.6474   20.1276 O   0  0  0  0  0  0
  -27.9679  -25.6565   21.9935 O   0  0  0  0  0  0
  -30.1197  -15.1559   21.4879 O   0  0  0  0  0  0
  -31.4629  -12.3460   19.0908 H   0  0  0  0  0  0
  -30.3003  -11.2139   19.7256 H   0  0  0  0  0  0
  -29.7014  -11.8270   17.3737 H   0  0  0  0  0  0
  -29.6664  -13.5219   17.7996 H   0  0  0  0  0  0
  -27.8016  -11.3264   18.7730 H   0  0  0  0  0  0
  -27.3573  -12.6929   17.7861 H   0  0  0  0  0  0
  -27.7365  -14.2502   19.6264 H   0  0  0  0  0  0
  -28.6398  -11.8653   21.3115 H   0  0  0  0  0  0
  -28.4764  -13.4856   21.8982 H   0  0  0  0  0  0
  -25.2738   -9.5651   22.4769 H   0  0  0  0  0  0
  -23.9963   -7.4612   22.7475 H   0  0  0  0  0  0
  -21.0805   -8.8774   19.8957 H   0  0  0  0  0  0
  -22.3685  -10.9664   19.6173 H   0  0  0  0  0  0
  -21.2008   -7.6133   23.9707 H   0  0  0  0  0  0
  -21.1502   -6.0513   25.9081 H   0  0  0  0  0  0
  -22.0596   -2.7587   23.2863 H   0  0  0  0  0  0
  -22.4070  -11.9897   22.4801 H   0  0  0  0  0  0
  -21.1120  -13.1326   22.2623 H   0  0  0  0  0  0
  -24.6770  -15.8457   20.5474 H   0  0  0  0  0  0
  -26.3002  -15.6307   20.1356 H   0  0  0  0  0  0
  -26.7066  -32.5594   23.1206 H   0  0  0  0  0  0
  -25.0075  -33.9829   25.0536 H   0  0  0  0  0  0
  -22.6793  -31.3126   21.4164 H   0  0  0  0  0  0
  -23.3741  -35.9674   23.3318 H   0  0  0  0  0  0
  -24.3587  -36.8912   22.2047 H   0  0  0  0  0  0
  -23.7247  -37.6549   23.6630 H   0  0  0  0  0  0
  -26.0131  -31.6257   20.5871 H   0  0  0  0  0  0
  -26.8079  -30.9184   21.9679 H   0  0  0  0  0  0
  -28.0975  -29.1749   21.1451 H   0  0  0  0  0  0
  -26.0949  -26.0055   19.0100 H   0  0  0  0  0  0
  -23.9803  -27.2928   19.0469 H   0  0  0  0  0  0
  -23.7032  -30.6038   19.4063 H   0  0  0  0  0  0
  -22.7270  -29.2446   19.8728 H   0  0  0  0  0  0
  -25.1277  -36.2017   25.0843 H   0  0  0  0  0  0
  -20.9955  -28.3181   24.1445 H   0  0  0  0  0  0
  -20.5654  -26.2255   23.3588 H   0  0  0  0  0  0
  -21.6645  -26.7436   22.1222 H   0  0  0  0  0  0
  -19.6893  -25.6294   21.1214 H   0  0  0  0  0  0
  -19.6671  -27.3194   20.6739 H   0  0  0  0  0  0
  -17.4189  -26.6672   21.4010 H   0  0  0  0  0  0
  -18.0327  -26.0043   22.9007 H   0  0  0  0  0  0
  -19.7923  -30.7224   24.2319 H   0  0  0  0  0  0
  -17.5007  -31.6254   24.5155 H   0  0  0  0  0  0
  -15.5344  -30.2995   23.7617 H   0  0  0  0  0  0
  -15.8658  -28.0821   22.7053 H   0  0  0  0  0  0
  -24.5919  -30.7048   25.7841 H   0  0  0  0  0  0
  -24.8976  -32.2837   26.5001 H   0  0  0  0  0  0
  -25.8147  -30.8825   27.0214 H   0  0  0  0  0  0
  -26.2784  -29.6840   24.1123 H   0  0  0  0  0  0
  -27.4128  -29.7290   25.4432 H   0  0  0  0  0  0
  -27.8586  -30.4417   23.9099 H   0  0  0  0  0  0
  -27.2679  -33.3583   26.2120 H   0  0  0  0  0  0
  -28.3833  -32.6904   25.0290 H   0  0  0  0  0  0
  -28.0755  -31.8396   26.5340 H   0  0  0  0  0  0
  -28.2621  -38.0101   24.7504 H   0  0  0  0  0  0
  -28.1062  -36.2634   24.6307 H   0  0  0  0  0  0
  -27.2306  -37.1491   25.8872 H   0  0  0  0  0  0
  -20.9242  -29.8791   21.7023 H   0  0  0  0  0  0
  -26.0200  -38.2891   24.1389 H   0  0  0  0  0  0
  -26.8006  -20.9881   21.4043 H   0  0  0  0  0  0
  -30.1846  -20.5751   18.7403 H   0  0  0  0  0  0
  -27.1938  -23.3870   21.5473 H   0  0  0  0  0  0
  -30.6198  -22.9815   18.9028 H   0  0  0  0  0  0
  -28.4259  -16.5179   20.1597 H   0  0  0  0  0  0
  -29.8668  -16.5700   19.1717 H   0  0  0  0  0  0
  -29.8612  -17.0437   22.2150 H   0  0  0  0  0  0
  -31.2913  -16.8539   21.2176 H   0  0  0  0  0  0
  -29.7672  -25.1112   19.4561 H   0  0  0  0  0  0
  -30.2202  -18.9123   19.9544 H   0  0  0  0  0  0
  1 25  1  0  0  0
  1 30  2  0  0  0
  1 85  1  0  0  0
  2  3  1  0  0  0
  2 25  1  0  0  0
  2 86  1  0  0  0
  2 87  1  0  0  0
  3  4  1  0  0  0
  3 88  1  0  0  0
  3 89  1  0  0  0
  4  5  1  0  0  0
  4 90  1  0  0  0
  4 91  1  0  0  0
  5  6  1  0  0  0
  5 26  1  0  0  0
  5 92  1  0  0  0
  6 25  1  0  0  0
  6 93  1  0  0  0
  6 94  1  0  0  0
  7  8  2  0  0  0
  7 26  1  0  0  0
  7 29  1  0  0  0
  8  9  1  0  0  0
  8 22  1  0  0  0
  9 10  1  0  0  0
  9 27  2  0  0  0
 10 11  2  0  0  0
 10 15  1  0  0  0
 11 12  1  0  0  0
 11 95  1  0  0  0
 12 13  2  0  0  0
 12 96  1  0  0  0
 13 14  1  0  0  0
 13 31  1  0  0  0
 14 15  2  0  0  0
 14 97  1  0  0  0
 15 98  1  0  0  0
 16 17  2  0  0  0
 16 21  1  0  0  0
 16 31  1  0  0  0
 17 18  1  0  0  0
 17 99  1  0  0  0
 18 19  2  0  0  0
 18100  1  0  0  0
 19 20  1  0  0  0
 19 24  1  0  0  0
 20 21  2  0  0  0
 20101  1  0  0  0
 21 23  1  0  0  0
 22 28  1  0  0  0
 22 32  2  0  0  0
 26 27  1  0  0  0
 28102  1  0  0  0
 28103  1  0  0  0
 29104  1  0  0  0
 29105  1  0  0  0
 33 34  1  0  0  0
 33 66  1  0  0  0
 33 70  2  0  0  0
 34 36  1  0  0  0
 34 59  1  0  0  0
 34106  1  0  0  0
 35 44  2  0  0  0
 35 45  1  0  0  0
 35 68  1  0  0  0
 36 56  1  0  0  0
 36107  1  0  0  0
 37 39  1  0  0  0
 37 47  1  0  0  0
 37 66  1  0  0  0
 37108  1  0  0  0
 38 43  2  0  0  0
 38 46  1  0  0  0
 38 47  1  0  0  0
 39 64  1  0  0  0
 39 67  2  0  0  0
 40 52  1  0  0  0
 40 53  2  0  0  0
 40 58  1  0  0  0
 41109  1  0  0  0
 41110  1  0  0  0
 41111  1  0  0  0
 41 48  1  0  0  0
 42 43  1  0  0  0
 42 66  1  0  0  0
 42112  1  0  0  0
 42113  1  0  0  0
 43 44  1  0  0  0
 44114  1  0  0  0
 45 46  2  0  0  0
 45115  1  0  0  0
 46116  1  0  0  0
 47117  1  0  0  0
 47118  1  0  0  0
 48 56  1  0  0  0
 48 65  1  0  0  0
 48119  1  0  0  0
 49 50  1  0  0  0
 49 53  1  0  0  0
 49 64  1  0  0  0
 49120  1  0  0  0
 50 51  1  0  0  0
 50121  1  0  0  0
 50122  1  0  0  0
 51 52  1  0  0  0
 51123  1  0  0  0
 51124  1  0  0  0
 52125  1  0  0  0
 52126  1  0  0  0
 53 54  1  0  0  0
 54 55  2  0  0  0
 54127  1  0  0  0
 55 57  1  0  0  0
 55128  1  0  0  0
 56 69  2  0  0  0
 57 58  2  0  0  0
 57129  1  0  0  0
 58130  1  0  0  0
 59 60  1  0  0  0
 59 61  1  0  0  0
 59 62  1  0  0  0
 60131  1  0  0  0
 60132  1  0  0  0
 60133  1  0  0  0
 61134  1  0  0  0
 61135  1  0  0  0
 61136  1  0  0  0
 62137  1  0  0  0
 62138  1  0  0  0
 62139  1  0  0  0
 63 65  1  0  0  0
 63140  1  0  0  0
 63141  1  0  0  0
 63142  1  0  0  0
 64143  1  0  0  0
 65144  1  0  0  0
 68 78  1  0  0  0
 71 73  2  0  0  0
 71 75  1  0  0  0
 71145  1  0  0  0
 72 74  1  0  0  0
 72 75  2  0  0  0
 72146  1  0  0  0
 73 76  1  0  0  0
 73147  1  0  0  0
 74 76  2  0  0  0
 74148  1  0  0  0
 75 77  1  0  0  0
 76 81  1  0  0  0
 77 82  1  0  0  0
 77 83  2  0  0  0
 78 81  1  0  0  0
 78 84  2  0  0  0
 79 80  1  0  0  0
 79 82  1  0  0  0
 79149  1  0  0  0
 79150  1  0  0  0
 80 85  1  0  0  0
 80151  1  0  0  0
 80152  1  0  0  0
 81153  1  0  0  0
 82154  1  0  0  0
M  ISO  4   1 100  68 101  78 101  85 100
M  END
> <chiral flag>
0

> <version>
0

> <s_m_source_file>
/data/baiqing/PycharmProjects/Reinvent-master-3.2/result/LINK_invent/BTK/process_docking_weight1_custom_product_contain_oxygen_bond_distance_aromatic_linkinvent_7_9_3/rearranged_h_0000.sdf

> <i_m_source_file_index>
33

> <r_mmod_Potential_Energy-OPLS-2005>
-186.847076416016

> <r_mmod_Stretch_Energy-OPLS-2005>
28.4971332550049

> <r_mmod_Bend_Energy-OPLS-2005>
83.5925521850586

> <r_mmod_Torsional_Energy-OPLS-2005>
206.607360839844

> <r_mmod_Improper_Torsional_Energy-OPLS-2005>
5.15539932250977

> <r_mmod_Van_der_Waal_Energy-OPLS-2005>
164.911682128906

> <r_mmod_Electrostatic_Energy-OPLS-2005>
-453.751861572266

> <r_mmod_Solvation_Energy-OPLS-2005>
-228.121948242188

> <b_mmod_Minimization_Converged-OPLS-2005>
0

> <r_mmod_RMS_Derivative-OPLS-2005>
1.78867566585541

$$$$
33
                    3D
 Structure written by MMmdl.
160167  0  0  1  0            999 V2000
  -30.7414  -14.3428   20.7059 C   0  0  0  0  0  0
  -30.4154  -12.2861   19.3748 C   0  0  0  0  0  0
  -29.4853  -12.5669   18.1801 C   0  0  0  0  0  0
  -28.0046  -12.4110   18.5921 C   0  0  0  0  0  0
  -27.6651  -13.2014   19.8828 C   0  0  2  0  0  0
  -28.7002  -12.8951   20.9849 C   0  0  0  0  0  0
  -25.2545  -13.8170   20.5685 C   0  0  0  0  0  0
  -24.1790  -13.0410   20.9137 C   0  0  0  0  0  0
  -24.6345  -11.6899   20.8626 C   0  0  0  0  0  0
  -23.8988  -10.4294   21.0303 C   0  0  0  0  0  0
  -24.3567   -9.4252   21.9096 C   0  0  0  0  0  0
  -23.6286   -8.2250   22.0689 C   0  0  0  0  0  0
  -22.4236   -8.0245   21.3518 C   0  0  0  0  0  0
  -21.9874   -9.0187   20.4609 C   0  0  0  0  0  0
  -22.7144  -10.2092   20.2997 C   0  0  0  0  0  0
  -21.6855   -6.0714   22.5280 C   0  0  0  0  0  0
  -21.4033   -6.5628   23.8217 C   0  0  0  0  0  0
  -21.3694   -5.6781   24.9169 C   0  0  0  0  0  0
  -21.6078   -4.3047   24.7232 C   0  0  0  0  0  0
  -21.8845   -3.8136   23.4335 C   0  0  0  0  0  0
  -21.9193   -4.6956   22.3402 C   0  0  0  0  0  0
  -22.7818  -13.5190   21.1789 C   0  0  0  0  0  0
  -22.1639   -4.2147   21.0970 F   0  0  0  0  0  0
  -21.5626   -3.4549   25.7739 F   0  0  0  0  0  0
  -30.0516  -13.1987   20.4685 N   0  0  0  0  0  0
  -26.3000  -12.9343   20.3368 N   0  0  0  0  0  0
  -25.9272  -11.6483   20.5694 N   0  0  0  0  0  0
  -22.0459  -12.8173   22.0370 N   0  0  0  0  0  0
  -25.4167  -15.1909   20.4155 N   0  0  0  0  0  0
  -31.7383  -14.6936   20.0650 O   0  0  0  0  0  0
  -21.6623   -6.8840   21.4231 O   0  0  0  0  0  0
  -22.3510  -14.5489   20.6660 O   0  0  0  0  0  0
  -24.6103  -31.8692   23.2208 C   0  0  0  0  0  0
  -25.8998  -32.4844   23.8493 C   0  0  1  0  0  0
  -27.2313  -27.4706   20.0670 C   0  0  0  0  0  0
  -25.5892  -33.8658   24.2416 N   0  0  0  0  0  0
  -23.4012  -30.4956   21.5553 C   0  0  2  0  0  0
  -24.8470  -28.9679   20.1217 C   0  0  0  0  0  0
  -22.7406  -29.4652   22.4967 C   0  0  0  0  0  0
  -18.0251  -28.1374   22.8473 C   0  0  0  0  0  0
  -24.1470  -36.7334   23.2642 C   0  0  0  0  0  0
  -25.9300  -30.8395   21.3768 C   0  0  0  0  0  0
  -26.0062  -29.4757   20.7255 C   0  0  0  0  0  0
  -27.2057  -28.7300   20.7092 C   0  0  0  0  0  0
  -26.0647  -26.9771   19.4575 C   0  0  0  0  0  0
  -24.8666  -27.7108   19.4939 C   0  0  0  0  0  0
  -23.6129  -29.8365   20.1682 C   0  0  0  0  0  0
  -25.4088  -36.3157   24.0363 C   0  0  1  0  0  0
  -20.5843  -28.3659   23.1324 C   0  0  2  0  0  0
  -20.6740  -26.9381   22.5418 C   0  0  0  0  0  0
  -19.5727  -26.6377   21.5213 C   0  0  0  0  0  0
  -18.1911  -26.7915   22.1608 C   0  0  0  0  0  0
  -19.1497  -28.8827   23.2903 C   0  0  0  0  0  0
  -18.9426  -30.1438   23.8914 C   0  0  0  0  0  0
  -17.6434  -30.6579   24.0568 C   0  0  0  0  0  0
  -25.9007  -34.9500   23.5179 C   0  0  0  0  0  0
  -16.5328  -29.9087   23.6322 C   0  0  0  0  0  0
  -16.7250  -28.6506   23.0340 C   0  0  0  0  0  0
  -26.4437  -31.6615   25.0791 C   0  0  0  0  0  0
  -25.3739  -31.3691   26.1565 C   0  0  0  0  0  0
  -27.0278  -30.3073   24.6154 C   0  0  0  0  0  0
  -27.6047  -32.4330   25.7510 C   0  0  0  0  0  0
  -27.5578  -37.1826   24.8470 C   0  0  0  0  0  0
  -21.4122  -29.3062   22.3751 N   0  0  0  0  0  0
  -26.4291  -37.3828   23.9409 N   0  0  0  0  0  0
  -24.6644  -31.0817   22.1089 N   0  0  0  0  0  0
  -23.4168  -28.8156   23.2987 O   0  0  0  0  0  0
  -28.3590  -26.7049   19.9362 O   0  0  0  0  0  0
  -26.5560  -34.8929   22.4725 O   0  0  0  0  0  0
  -23.5291  -32.1438   23.7584 O   0  0  0  0  0  0
  -27.6298  -22.2536   21.0244 C   0  0  0  0  0  0
  -28.1388  -23.5973   20.4866 C   0  0  0  0  0  0
  -29.3042  -18.7085   22.4523 C   0  0  0  0  0  0
  -27.8981  -19.3188   22.6006 C   0  0  0  0  0  0
  -29.1959  -17.1890   22.2554 C   0  0  0  0  0  0
  -27.8389  -20.7884   23.0444 C   0  0  0  0  0  0
  -30.5346  -16.4681   22.0191 C   0  0  0  0  0  0
  -29.1827  -26.5503   21.0767 C   0  0  0  0  0  0
  -29.8947  -25.1974   20.9093 C   0  0  0  0  0  0
  -28.3203  -21.7460   22.0526 N   0  0  0  0  0  0
  -30.2525  -15.0718   21.7132 N   0  0  0  0  0  0
  -26.6198  -21.7236   20.5588 O   0  0  0  0  0  0
  -29.1227  -24.1057   21.3938 O   0  0  0  0  0  0
  -31.4581  -12.4015   19.0785 H   0  0  0  0  0  0
  -30.3110  -11.2475   19.6969 H   0  0  0  0  0  0
  -29.7194  -11.9102   17.3388 H   0  0  0  0  0  0
  -29.6509  -13.5854   17.8250 H   0  0  0  0  0  0
  -27.8016  -11.3489   18.7325 H   0  0  0  0  0  0
  -27.3548  -12.7490   17.7839 H   0  0  0  0  0  0
  -27.7317  -14.2626   19.6373 H   0  0  0  0  0  0
  -28.6558  -11.8378   21.2493 H   0  0  0  0  0  0
  -28.4367  -13.4265   21.8971 H   0  0  0  0  0  0
  -25.2716   -9.5826   22.4670 H   0  0  0  0  0  0
  -24.0072   -7.4698   22.7423 H   0  0  0  0  0  0
  -21.0798   -8.8651   19.8937 H   0  0  0  0  0  0
  -22.3506  -10.9599   19.6124 H   0  0  0  0  0  0
  -21.2009   -7.6142   23.9722 H   0  0  0  0  0  0
  -21.1474   -6.0475   25.9067 H   0  0  0  0  0  0
  -22.0562   -2.7601   23.2814 H   0  0  0  0  0  0
  -22.4125  -11.9890   22.4855 H   0  0  0  0  0  0
  -21.1056  -13.1198   22.2514 H   0  0  0  0  0  0
  -24.6408  -15.8369   20.5311 H   0  0  0  0  0  0
  -26.2816  -15.6480   20.1463 H   0  0  0  0  0  0
  -26.7063  -32.5546   23.1258 H   0  0  0  0  0  0
  -25.0107  -33.9871   25.0603 H   0  0  0  0  0  0
  -22.6886  -31.3112   21.4186 H   0  0  0  0  0  0
  -23.3745  -35.9657   23.3316 H   0  0  0  0  0  0
  -24.3575  -36.8916   22.2057 H   0  0  0  0  0  0
  -23.7198  -37.6536   23.6624 H   0  0  0  0  0  0
  -26.0461  -31.6053   20.6091 H   0  0  0  0  0  0
  -26.8184  -30.8909   21.9939 H   0  0  0  0  0  0
  -28.1042  -29.1337   21.1526 H   0  0  0  0  0  0
  -26.0912  -26.0273   18.9434 H   0  0  0  0  0  0
  -23.9813  -27.3137   19.0180 H   0  0  0  0  0  0
  -23.7439  -30.6200   19.4219 H   0  0  0  0  0  0
  -22.7344  -29.2726   19.8514 H   0  0  0  0  0  0
  -25.1247  -36.2062   25.0863 H   0  0  0  0  0  0
  -20.9930  -28.3211   24.1451 H   0  0  0  0  0  0
  -20.5630  -26.2263   23.3601 H   0  0  0  0  0  0
  -21.6612  -26.7435   22.1210 H   0  0  0  0  0  0
  -19.6884  -25.6298   21.1233 H   0  0  0  0  0  0
  -19.6667  -27.3191   20.6742 H   0  0  0  0  0  0
  -17.4171  -26.6667   21.4018 H   0  0  0  0  0  0
  -18.0295  -26.0078   22.9009 H   0  0  0  0  0  0
  -19.7905  -30.7245   24.2290 H   0  0  0  0  0  0
  -17.4989  -31.6247   24.5162 H   0  0  0  0  0  0
  -15.5322  -30.2993   23.7644 H   0  0  0  0  0  0
  -15.8641  -28.0839   22.7045 H   0  0  0  0  0  0
  -24.5927  -30.6995   25.7920 H   0  0  0  0  0  0
  -24.8894  -32.2822   26.5045 H   0  0  0  0  0  0
  -25.8136  -30.8861   27.0306 H   0  0  0  0  0  0
  -26.2832  -29.6833   24.1191 H   0  0  0  0  0  0
  -27.4028  -29.7298   25.4614 H   0  0  0  0  0  0
  -27.8676  -30.4399   23.9333 H   0  0  0  0  0  0
  -27.2715  -33.3643   26.2100 H   0  0  0  0  0  0
  -28.3829  -32.6864   25.0303 H   0  0  0  0  0  0
  -28.0746  -31.8449   26.5396 H   0  0  0  0  0  0
  -28.2620  -38.0110   24.7521 H   0  0  0  0  0  0
  -28.1060  -36.2640   24.6287 H   0  0  0  0  0  0
  -27.2307  -37.1477   25.8884 H   0  0  0  0  0  0
  -20.9240  -29.8860   21.7056 H   0  0  0  0  0  0
  -26.0195  -38.2905   24.1424 H   0  0  0  0  0  0
  -27.3007  -24.2910   20.4018 H   0  0  0  0  0  0
  -28.5532  -23.4560   19.4860 H   0  0  0  0  0  0
  -29.9058  -18.9166   23.3381 H   0  0  0  0  0  0
  -29.8203  -19.1659   21.6069 H   0  0  0  0  0  0
  -27.3456  -18.7454   23.3460 H   0  0  0  0  0  0
  -27.3514  -19.1888   21.6664 H   0  0  0  0  0  0
  -28.5263  -16.9842   21.4173 H   0  0  0  0  0  0
  -28.7048  -16.7635   23.1341 H   0  0  0  0  0  0
  -28.4263  -20.9209   23.9523 H   0  0  0  0  0  0
  -26.8117  -21.0468   23.3154 H   0  0  0  0  0  0
  -31.0822  -16.9387   21.2027 H   0  0  0  0  0  0
  -31.1649  -16.5274   22.9081 H   0  0  0  0  0  0
  -29.9166  -27.3580   21.0961 H   0  0  0  0  0  0
  -28.6150  -26.5780   22.0084 H   0  0  0  0  0  0
  -30.8082  -25.2032   21.4991 H   0  0  0  0  0  0
  -30.1992  -25.0368   19.8713 H   0  0  0  0  0  0
  -29.1410  -22.2982   22.2865 H   0  0  0  0  0  0
  -29.4958  -14.6395   22.2222 H   0  0  0  0  0  0
  1 25  1  0  0  0
  1 30  2  0  0  0
  1 81  1  0  0  0
  2  3  1  0  0  0
  2 25  1  0  0  0
  2 84  1  0  0  0
  2 85  1  0  0  0
  3  4  1  0  0  0
  3 86  1  0  0  0
  3 87  1  0  0  0
  4  5  1  0  0  0
  4 88  1  0  0  0
  4 89  1  0  0  0
  5  6  1  0  0  0
  5 26  1  0  0  0
  5 90  1  0  0  0
  6 25  1  0  0  0
  6 91  1  0  0  0
  6 92  1  0  0  0
  7  8  2  0  0  0
  7 26  1  0  0  0
  7 29  1  0  0  0
  8  9  1  0  0  0
  8 22  1  0  0  0
  9 10  1  0  0  0
  9 27  2  0  0  0
 10 11  2  0  0  0
 10 15  1  0  0  0
 11 12  1  0  0  0
 11 93  1  0  0  0
 12 13  2  0  0  0
 12 94  1  0  0  0
 13 14  1  0  0  0
 13 31  1  0  0  0
 14 15  2  0  0  0
 14 95  1  0  0  0
 15 96  1  0  0  0
 16 17  2  0  0  0
 16 21  1  0  0  0
 16 31  1  0  0  0
 17 18  1  0  0  0
 17 97  1  0  0  0
 18 19  2  0  0  0
 18 98  1  0  0  0
 19 20  1  0  0  0
 19 24  1  0  0  0
 20 21  2  0  0  0
 20 99  1  0  0  0
 21 23  1  0  0  0
 22 28  1  0  0  0
 22 32  2  0  0  0
 26 27  1  0  0  0
 28100  1  0  0  0
 28101  1  0  0  0
 29102  1  0  0  0
 29103  1  0  0  0
 33 34  1  0  0  0
 33 66  1  0  0  0
 33 70  2  0  0  0
 34 36  1  0  0  0
 34 59  1  0  0  0
 34104  1  0  0  0
 35 44  2  0  0  0
 35 45  1  0  0  0
 35 68  1  0  0  0
 36 56  1  0  0  0
 36105  1  0  0  0
 37 39  1  0  0  0
 37 47  1  0  0  0
 37 66  1  0  0  0
 37106  1  0  0  0
 38 43  2  0  0  0
 38 46  1  0  0  0
 38 47  1  0  0  0
 39 64  1  0  0  0
 39 67  2  0  0  0
 40 52  1  0  0  0
 40 53  2  0  0  0
 40 58  1  0  0  0
 41107  1  0  0  0
 41108  1  0  0  0
 41109  1  0  0  0
 41 48  1  0  0  0
 42 43  1  0  0  0
 42 66  1  0  0  0
 42110  1  0  0  0
 42111  1  0  0  0
 43 44  1  0  0  0
 44112  1  0  0  0
 45 46  2  0  0  0
 45113  1  0  0  0
 46114  1  0  0  0
 47115  1  0  0  0
 47116  1  0  0  0
 48 56  1  0  0  0
 48 65  1  0  0  0
 48117  1  0  0  0
 49 50  1  0  0  0
 49 53  1  0  0  0
 49 64  1  0  0  0
 49118  1  0  0  0
 50 51  1  0  0  0
 50119  1  0  0  0
 50120  1  0  0  0
 51 52  1  0  0  0
 51121  1  0  0  0
 51122  1  0  0  0
 52123  1  0  0  0
 52124  1  0  0  0
 53 54  1  0  0  0
 54 55  2  0  0  0
 54125  1  0  0  0
 55 57  1  0  0  0
 55126  1  0  0  0
 56 69  2  0  0  0
 57 58  2  0  0  0
 57127  1  0  0  0
 58128  1  0  0  0
 59 60  1  0  0  0
 59 61  1  0  0  0
 59 62  1  0  0  0
 60129  1  0  0  0
 60130  1  0  0  0
 60131  1  0  0  0
 61132  1  0  0  0
 61133  1  0  0  0
 61134  1  0  0  0
 62135  1  0  0  0
 62136  1  0  0  0
 62137  1  0  0  0
 63 65  1  0  0  0
 63138  1  0  0  0
 63139  1  0  0  0
 63140  1  0  0  0
 64141  1  0  0  0
 65142  1  0  0  0
 68 78  1  0  0  0
 71 72  1  0  0  0
 71 80  1  0  0  0
 71 82  2  0  0  0
 72 83  1  0  0  0
 72143  1  0  0  0
 72144  1  0  0  0
 73 74  1  0  0  0
 73 75  1  0  0  0
 73145  1  0  0  0
 73146  1  0  0  0
 74 76  1  0  0  0
 74147  1  0  0  0
 74148  1  0  0  0
 75 77  1  0  0  0
 75149  1  0  0  0
 75150  1  0  0  0
 76 80  1  0  0  0
 76151  1  0  0  0
 76152  1  0  0  0
 77 81  1  0  0  0
 77153  1  0  0  0
 77154  1  0  0  0
 78 79  1  0  0  0
 78155  1  0  0  0
 78156  1  0  0  0
 79 83  1  0  0  0
 79157  1  0  0  0
 79158  1  0  0  0
 80159  1  0  0  0
 81160  1  0  0  0
M  ISO  4   1 100  68 101  78 101  81 100
M  END
> <chiral flag>
0

> <version>
0

> <s_m_source_file>
/data/baiqing/PycharmProjects/Reinvent-master-3.2/result/LINK_invent/BTK/process_docking_weight1_custom_product_contain_oxygen_bond_distance_aromatic_linkinvent_7_9_3/rearranged_h_0000.sdf

> <i_m_source_file_index>
34

> <r_mmod_Potential_Energy-OPLS-2005>
-136.727493286133

> <r_mmod_Stretch_Energy-OPLS-2005>
30.5025806427002

> <r_mmod_Bend_Energy-OPLS-2005>
101.323402404785

> <r_mmod_Torsional_Energy-OPLS-2005>
213.368606567383

> <r_mmod_Improper_Torsional_Energy-OPLS-2005>
3.32541656494141

> <r_mmod_Van_der_Waal_Energy-OPLS-2005>
131.361846923828

> <r_mmod_Electrostatic_Energy-OPLS-2005>
-395.860870361328

> <r_mmod_Solvation_Energy-OPLS-2005>
-229.605560302734

> <b_mmod_Minimization_Converged-OPLS-2005>
0

> <r_mmod_RMS_Derivative-OPLS-2005>
5.27297639846802

$$$$
34
                    3D
 Structure written by MMmdl.
147154  0  0  1  0            999 V2000
  -30.5523  -14.9311   20.4195 C   0  0  0  0  0  0
  -30.4378  -12.5763   19.4953 C   0  0  0  0  0  0
  -29.5193  -12.5256   18.2530 C   0  0  0  0  0  0
  -28.0517  -12.3162   18.6713 C   0  0  0  0  0  0
  -27.6298  -13.2475   19.8382 C   0  0  2  0  0  0
  -28.6730  -13.2721   20.9752 C   0  0  0  0  0  0
  -25.2461  -13.8217   20.5711 C   0  0  0  0  0  0
  -24.1778  -13.0440   20.9229 C   0  0  0  0  0  0
  -24.6394  -11.6925   20.8756 C   0  0  0  0  0  0
  -23.9079  -10.4294   21.0409 C   0  0  0  0  0  0
  -24.3627   -9.4207   21.9185 C   0  0  0  0  0  0
  -23.6299   -8.2243   22.0754 C   0  0  0  0  0  0
  -22.4281   -8.0282   21.3544 C   0  0  0  0  0  0
  -21.9919   -9.0257   20.4647 C   0  0  0  0  0  0
  -22.7250  -10.2135   20.3057 C   0  0  0  0  0  0
  -21.6855   -6.0737   22.5279 C   0  0  0  0  0  0
  -21.4016   -6.5641   23.8213 C   0  0  0  0  0  0
  -21.3660   -5.6793   24.9175 C   0  0  0  0  0  0
  -21.6044   -4.3056   24.7225 C   0  0  0  0  0  0
  -21.8818   -3.8148   23.4346 C   0  0  0  0  0  0
  -21.9193   -4.6965   22.3402 C   0  0  0  0  0  0
  -22.7797  -13.5209   21.1883 C   0  0  0  0  0  0
  -22.1661   -4.2151   21.0980 F   0  0  0  0  0  0
  -21.5628   -3.4539   25.7737 F   0  0  0  0  0  0
  -29.9498  -13.6764   20.3744 N   0  0  0  0  0  0
  -26.2886  -12.9448   20.3247 N   0  0  0  0  0  0
  -25.9326  -11.6577   20.5742 N   0  0  0  0  0  0
  -22.0449  -12.8196   22.0439 N   0  0  0  0  0  0
  -25.4119  -15.1946   20.4127 N   0  0  0  0  0  0
  -31.7575  -14.9906   20.1563 O   0  0  0  0  0  0
  -21.6642   -6.8880   21.4241 O   0  0  0  0  0  0
  -22.3479  -14.5513   20.6726 O   0  0  0  0  0  0
  -24.6437  -31.8440   23.1882 C   0  0  0  0  0  0
  -25.9208  -32.4694   23.8272 C   0  0  1  0  0  0
  -27.2157  -27.1356   20.1489 C   0  0  0  0  0  0
  -25.5955  -33.8500   24.2189 N   0  0  0  0  0  0
  -23.4470  -30.4639   21.5340 C   0  0  2  0  0  0
  -24.8959  -28.8911   20.1099 C   0  0  0  0  0  0
  -22.7568  -29.4547   22.4859 C   0  0  0  0  0  0
  -18.0306  -28.1396   22.8477 C   0  0  0  0  0  0
  -24.1492  -36.7256   23.2643 C   0  0  0  0  0  0
  -26.0034  -30.7177   21.3869 C   0  0  0  0  0  0
  -26.0742  -29.3292   20.7276 C   0  0  0  0  0  0
  -27.2355  -28.4682   20.7287 C   0  0  0  0  0  0
  -26.0099  -26.7995   19.4939 C   0  0  0  0  0  0
  -24.8767  -27.6398   19.4775 C   0  0  0  0  0  0
  -23.6731  -29.7939   20.1532 C   0  0  0  0  0  0
  -25.4124  -36.3032   24.0315 C   0  0  1  0  0  0
  -20.5918  -28.3722   23.1234 C   0  0  2  0  0  0
  -20.6789  -26.9425   22.5403 C   0  0  0  0  0  0
  -19.5763  -26.6381   21.5212 C   0  0  0  0  0  0
  -18.1945  -26.7933   22.1624 C   0  0  0  0  0  0
  -19.1562  -28.8877   23.2847 C   0  0  0  0  0  0
  -18.9478  -30.1473   23.8873 C   0  0  0  0  0  0
  -17.6474  -30.6591   24.0559 C   0  0  0  0  0  0
  -25.9075  -34.9407   23.5061 C   0  0  0  0  0  0
  -16.5366  -29.9084   23.6335 C   0  0  0  0  0  0
  -16.7290  -28.6503   23.0356 C   0  0  0  0  0  0
  -26.4527  -31.6564   25.0716 C   0  0  0  0  0  0
  -25.3710  -31.3754   26.1410 C   0  0  0  0  0  0
  -27.0397  -30.2961   24.6301 C   0  0  0  0  0  0
  -27.6053  -32.4335   25.7505 C   0  0  0  0  0  0
  -27.5575  -37.1785   24.8466 C   0  0  0  0  0  0
  -21.4261  -29.3048   22.3606 N   0  0  0  0  0  0
  -26.4287  -37.3745   23.9407 N   0  0  0  0  0  0
  -24.7180  -31.0297   22.0916 N   0  0  0  0  0  0
  -23.4211  -28.8095   23.3010 O   0  0  0  0  0  0
  -28.2671  -26.1488   20.2186 O   0  0  0  0  0  0
  -26.5661  -34.8905   22.4640 O   0  0  0  0  0  0
  -23.5556  -32.1317   23.7102 O   0  0  0  0  0  0
  -29.1151  -18.9634   20.3931 C   0  0  0  0  0  0
  -30.1799  -17.6528   20.4753 C   0  0  0  0  0  0
  -29.5473  -20.6003   20.3983 C   0  0  0  0  0  0
  -27.9753  -24.6216   20.0799 C   0  0  0  0  0  0
  -28.9988  -23.3024   20.3446 C   0  0  0  0  0  0
  -29.7841  -16.1214   20.5489 N   0  0  0  0  0  0
  -28.5915  -21.8086   20.2533 O   0  0  0  0  0  0
  -31.4726  -12.7286   19.1847 H   0  0  0  0  0  0
  -30.4243  -11.6239   20.0276 H   0  0  0  0  0  0
  -29.8351  -11.7277   17.5795 H   0  0  0  0  0  0
  -29.6113  -13.4564   17.6909 H   0  0  0  0  0  0
  -27.9441  -11.2745   18.9759 H   0  0  0  0  0  0
  -27.3889  -12.4529   17.8160 H   0  0  0  0  0  0
  -27.5946  -14.2507   19.4123 H   0  0  0  0  0  0
  -28.7558  -12.2966   21.4567 H   0  0  0  0  0  0
  -28.3772  -13.9779   21.7528 H   0  0  0  0  0  0
  -25.2770   -9.5683   22.4762 H   0  0  0  0  0  0
  -24.0007   -7.4634   22.7474 H   0  0  0  0  0  0
  -21.0849   -8.8780   19.8953 H   0  0  0  0  0  0
  -22.3709  -10.9675   19.6168 H   0  0  0  0  0  0
  -21.2010   -7.6149   23.9717 H   0  0  0  0  0  0
  -21.1482   -6.0523   25.9078 H   0  0  0  0  0  0
  -22.0597   -2.7610   23.2845 H   0  0  0  0  0  0
  -22.4075  -11.9865   22.4833 H   0  0  0  0  0  0
  -21.1064  -13.1213   22.2645 H   0  0  0  0  0  0
  -24.6401  -15.8437   20.5218 H   0  0  0  0  0  0
  -26.2511  -15.6365   20.0607 H   0  0  0  0  0  0
  -26.7274  -32.5299   23.1000 H   0  0  0  0  0  0
  -25.0077  -33.9614   25.0319 H   0  0  0  0  0  0
  -22.7496  -31.2900   21.3800 H   0  0  0  0  0  0
  -23.3758  -35.9584   23.3293 H   0  0  0  0  0  0
  -24.3575  -36.8901   22.2060 H   0  0  0  0  0  0
  -23.7244  -37.6447   23.6688 H   0  0  0  0  0  0
  -26.1598  -31.4726   20.6152 H   0  0  0  0  0  0
  -26.8735  -30.7669   22.0299 H   0  0  0  0  0  0
  -28.1330  -28.7987   21.2324 H   0  0  0  0  0  0
  -25.9052  -25.8438   19.0039 H   0  0  0  0  0  0
  -23.9773  -27.2993   18.9831 H   0  0  0  0  0  0
  -23.8104  -30.5687   19.3980 H   0  0  0  0  0  0
  -22.7875  -29.2370   19.8420 H   0  0  0  0  0  0
  -25.1312  -36.1859   25.0808 H   0  0  0  0  0  0
  -21.0011  -28.3313   24.1355 H   0  0  0  0  0  0
  -20.5682  -26.2337   23.3623 H   0  0  0  0  0  0
  -21.6655  -26.7430   22.1202 H   0  0  0  0  0  0
  -19.6924  -25.6285   21.1258 H   0  0  0  0  0  0
  -19.6699  -27.3177   20.6730 H   0  0  0  0  0  0
  -17.4213  -26.6676   21.4029 H   0  0  0  0  0  0
  -18.0346  -26.0081   22.9027 H   0  0  0  0  0  0
  -19.7954  -30.7296   24.2232 H   0  0  0  0  0  0
  -17.5027  -31.6268   24.5166 H   0  0  0  0  0  0
  -15.5364  -30.2978   23.7672 H   0  0  0  0  0  0
  -15.8691  -28.0813   22.7084 H   0  0  0  0  0  0
  -24.5895  -30.7095   25.7729 H   0  0  0  0  0  0
  -24.8892  -32.2936   26.4779 H   0  0  0  0  0  0
  -25.7991  -30.8963   27.0224 H   0  0  0  0  0  0
  -26.3018  -29.6678   24.1299 H   0  0  0  0  0  0
  -27.3999  -29.7265   25.4879 H   0  0  0  0  0  0
  -27.8929  -30.4197   23.9628 H   0  0  0  0  0  0
  -27.2640  -33.3653   26.2025 H   0  0  0  0  0  0
  -28.3894  -32.6867   25.0357 H   0  0  0  0  0  0
  -28.0687  -31.8499   26.5470 H   0  0  0  0  0  0
  -28.2585  -38.0088   24.7509 H   0  0  0  0  0  0
  -28.1078  -36.2617   24.6298 H   0  0  0  0  0  0
  -27.2291  -37.1437   25.8868 H   0  0  0  0  0  0
  -20.9472  -29.8763   21.6786 H   0  0  0  0  0  0
  -26.0153  -38.2813   24.1408 H   0  0  0  0  0  0
  -28.4087  -18.8373   21.2136 H   0  0  0  0  0  0
  -28.5176  -18.8122   19.4940 H   0  0  0  0  0  0
  -30.8174  -17.8243   21.3433 H   0  0  0  0  0  0
  -30.8544  -17.7427   19.6226 H   0  0  0  0  0  0
  -30.2918  -20.7269   19.6116 H   0  0  0  0  0  0
  -30.0939  -20.7717   21.3261 H   0  0  0  0  0  0
  -27.1038  -24.4420   20.7103 H   0  0  0  0  0  0
  -27.6190  -24.4882   19.0589 H   0  0  0  0  0  0
  -29.4216  -23.4281   21.3415 H   0  0  0  0  0  0
  -29.8431  -23.4214   19.6651 H   0  0  0  0  0  0
  -28.8029  -15.9487   20.7111 H   0  0  0  0  0  0
  1 25  1  0  0  0
  1 30  2  0  0  0
  1 76  1  0  0  0
  2  3  1  0  0  0
  2 25  1  0  0  0
  2 78  1  0  0  0
  2 79  1  0  0  0
  3  4  1  0  0  0
  3 80  1  0  0  0
  3 81  1  0  0  0
  4  5  1  0  0  0
  4 82  1  0  0  0
  4 83  1  0  0  0
  5  6  1  0  0  0
  5 26  1  0  0  0
  5 84  1  0  0  0
  6 25  1  0  0  0
  6 85  1  0  0  0
  6 86  1  0  0  0
  7  8  2  0  0  0
  7 26  1  0  0  0
  7 29  1  0  0  0
  8  9  1  0  0  0
  8 22  1  0  0  0
  9 10  1  0  0  0
  9 27  2  0  0  0
 10 11  2  0  0  0
 10 15  1  0  0  0
 11 12  1  0  0  0
 11 87  1  0  0  0
 12 13  2  0  0  0
 12 88  1  0  0  0
 13 14  1  0  0  0
 13 31  1  0  0  0
 14 15  2  0  0  0
 14 89  1  0  0  0
 15 90  1  0  0  0
 16 17  2  0  0  0
 16 21  1  0  0  0
 16 31  1  0  0  0
 17 18  1  0  0  0
 17 91  1  0  0  0
 18 19  2  0  0  0
 18 92  1  0  0  0
 19 20  1  0  0  0
 19 24  1  0  0  0
 20 21  2  0  0  0
 20 93  1  0  0  0
 21 23  1  0  0  0
 22 28  1  0  0  0
 22 32  2  0  0  0
 26 27  1  0  0  0
 28 94  1  0  0  0
 28 95  1  0  0  0
 29 96  1  0  0  0
 29 97  1  0  0  0
 33 34  1  0  0  0
 33 66  1  0  0  0
 33 70  2  0  0  0
 34 36  1  0  0  0
 34 59  1  0  0  0
 34 98  1  0  0  0
 35 44  2  0  0  0
 35 45  1  0  0  0
 35 68  1  0  0  0
 36 56  1  0  0  0
 36 99  1  0  0  0
 37 39  1  0  0  0
 37 47  1  0  0  0
 37 66  1  0  0  0
 37100  1  0  0  0
 38 43  2  0  0  0
 38 46  1  0  0  0
 38 47  1  0  0  0
 39 64  1  0  0  0
 39 67  2  0  0  0
 40 52  1  0  0  0
 40 53  2  0  0  0
 40 58  1  0  0  0
 41101  1  0  0  0
 41102  1  0  0  0
 41103  1  0  0  0
 41 48  1  0  0  0
 42 43  1  0  0  0
 42 66  1  0  0  0
 42104  1  0  0  0
 42105  1  0  0  0
 43 44  1  0  0  0
 44106  1  0  0  0
 45 46  2  0  0  0
 45107  1  0  0  0
 46108  1  0  0  0
 47109  1  0  0  0
 47110  1  0  0  0
 48 56  1  0  0  0
 48 65  1  0  0  0
 48111  1  0  0  0
 49 50  1  0  0  0
 49 53  1  0  0  0
 49 64  1  0  0  0
 49112  1  0  0  0
 50 51  1  0  0  0
 50113  1  0  0  0
 50114  1  0  0  0
 51 52  1  0  0  0
 51115  1  0  0  0
 51116  1  0  0  0
 52117  1  0  0  0
 52118  1  0  0  0
 53 54  1  0  0  0
 54 55  2  0  0  0
 54119  1  0  0  0
 55 57  1  0  0  0
 55120  1  0  0  0
 56 69  2  0  0  0
 57 58  2  0  0  0
 57121  1  0  0  0
 58122  1  0  0  0
 59 60  1  0  0  0
 59 61  1  0  0  0
 59 62  1  0  0  0
 60123  1  0  0  0
 60124  1  0  0  0
 60125  1  0  0  0
 61126  1  0  0  0
 61127  1  0  0  0
 61128  1  0  0  0
 62129  1  0  0  0
 62130  1  0  0  0
 62131  1  0  0  0
 63 65  1  0  0  0
 63132  1  0  0  0
 63133  1  0  0  0
 63134  1  0  0  0
 64135  1  0  0  0
 65136  1  0  0  0
 68 74  1  0  0  0
 71 72  1  0  0  0
 71 73  1  0  0  0
 71137  1  0  0  0
 71138  1  0  0  0
 72 76  1  0  0  0
 72139  1  0  0  0
 72140  1  0  0  0
 73 77  1  0  0  0
 73141  1  0  0  0
 73142  1  0  0  0
 74 75  1  0  0  0
 74143  1  0  0  0
 74144  1  0  0  0
 75 77  1  0  0  0
 75145  1  0  0  0
 75146  1  0  0  0
 76147  1  0  0  0
M  ISO  4   1 100  68 101  74 101  76 100
M  END
> <chiral flag>
0

> <version>
0

> <s_m_source_file>
/data/baiqing/PycharmProjects/Reinvent-master-3.2/result/LINK_invent/BTK/process_docking_weight1_custom_product_contain_oxygen_bond_distance_aromatic_linkinvent_7_9_3/rearranged_h_0000.sdf

> <i_m_source_file_index>
35

> <r_mmod_Potential_Energy-OPLS-2005>
482.147308349609

> <r_mmod_Stretch_Energy-OPLS-2005>
273.507659912109

> <r_mmod_Bend_Energy-OPLS-2005>
260.983459472656

> <r_mmod_Torsional_Energy-OPLS-2005>
200.374084472656

> <r_mmod_Improper_Torsional_Energy-OPLS-2005>
4.40430402755737

> <r_mmod_Van_der_Waal_Energy-OPLS-2005>
115.539039611816

> <r_mmod_Electrostatic_Energy-OPLS-2005>
-342.325286865234

> <r_mmod_Solvation_Energy-OPLS-2005>
-217.101608276367

> <b_mmod_Minimization_Converged-OPLS-2005>
0

> <r_mmod_RMS_Derivative-OPLS-2005>
0.114588469266891

$$$$
35
                    3D
 Structure written by MMmdl.
172180  0  0  1  0            999 V2000
  -30.7219  -14.4461   20.5507 C   0  0  0  0  0  0
  -30.4140  -12.2798   19.4261 C   0  0  0  0  0  0
  -29.4925  -12.4797   18.2065 C   0  0  0  0  0  0
  -28.0130  -12.3406   18.6211 C   0  0  0  0  0  0
  -27.6561  -13.1937   19.8699 C   0  0  2  0  0  0
  -28.7022  -13.0047   20.9938 C   0  0  0  0  0  0
  -25.2595  -13.8133   20.5678 C   0  0  0  0  0  0
  -24.1821  -13.0447   20.9164 C   0  0  0  0  0  0
  -24.6353  -11.6907   20.8735 C   0  0  0  0  0  0
  -23.9024  -10.4303   21.0406 C   0  0  0  0  0  0
  -24.3596   -9.4234   21.9200 C   0  0  0  0  0  0
  -23.6274   -8.2267   22.0782 C   0  0  0  0  0  0
  -22.4263   -8.0303   21.3559 C   0  0  0  0  0  0
  -21.9876   -9.0268   20.4658 C   0  0  0  0  0  0
  -22.7195  -10.2151   20.3060 C   0  0  0  0  0  0
  -21.6848   -6.0752   22.5292 C   0  0  0  0  0  0
  -21.4017   -6.5641   23.8230 C   0  0  0  0  0  0
  -21.3651   -5.6779   24.9178 C   0  0  0  0  0  0
  -21.6049   -4.3045   24.7219 C   0  0  0  0  0  0
  -21.8813   -3.8145   23.4331 C   0  0  0  0  0  0
  -21.9181   -4.6977   22.3398 C   0  0  0  0  0  0
  -22.7847  -13.5289   21.1784 C   0  0  0  0  0  0
  -22.1649   -4.2169   21.0968 F   0  0  0  0  0  0
  -21.5624   -3.4525   25.7731 F   0  0  0  0  0  0
  -30.0332  -13.2823   20.4314 N   0  0  0  0  0  0
  -26.2999  -12.9264   20.3358 N   0  0  0  0  0  0
  -25.9277  -11.6449   20.5778 N   0  0  0  0  0  0
  -22.0408  -12.8371   22.0340 N   0  0  0  0  0  0
  -25.4347  -15.1851   20.4122 N   0  0  0  0  0  0
  -31.8865  -14.5824   20.1577 O   0  0  0  0  0  0
  -21.6621   -6.8909   21.4267 O   0  0  0  0  0  0
  -22.3585  -14.5605   20.6613 O   0  0  0  0  0  0
  -24.6096  -31.8694   23.2144 C   0  0  0  0  0  0
  -25.9009  -32.4841   23.8404 C   0  0  1  0  0  0
  -27.2495  -27.4797   20.0710 C   0  0  0  0  0  0
  -25.5892  -33.8637   24.2346 N   0  0  0  0  0  0
  -23.3952  -30.4888   21.5565 C   0  0  2  0  0  0
  -24.8440  -28.9580   20.1167 C   0  0  0  0  0  0
  -22.7371  -29.4652   22.5072 C   0  0  0  0  0  0
  -18.0259  -28.1354   22.8518 C   0  0  0  0  0  0
  -24.1486  -36.7316   23.2631 C   0  0  0  0  0  0
  -25.9177  -30.8441   21.3625 C   0  0  0  0  0  0
  -25.9982  -29.4781   20.7157 C   0  0  0  0  0  0
  -27.1961  -28.7364   20.7053 C   0  0  0  0  0  0
  -26.0779  -26.9593   19.4737 C   0  0  0  0  0  0
  -24.8755  -27.6944   19.4997 C   0  0  0  0  0  0
  -23.5987  -29.8129   20.1737 C   0  0  0  0  0  0
  -25.4112  -36.3124   24.0334 C   0  0  1  0  0  0
  -20.5843  -28.3622   23.1374 C   0  0  2  0  0  0
  -20.6759  -26.9371   22.5440 C   0  0  0  0  0  0
  -19.5736  -26.6372   21.5241 C   0  0  0  0  0  0
  -18.1905  -26.7916   22.1635 C   0  0  0  0  0  0
  -19.1510  -28.8819   23.2931 C   0  0  0  0  0  0
  -18.9428  -30.1438   23.8918 C   0  0  0  0  0  0
  -17.6429  -30.6572   24.0569 C   0  0  0  0  0  0
  -25.9029  -34.9489   23.5134 C   0  0  0  0  0  0
  -16.5319  -29.9068   23.6328 C   0  0  0  0  0  0
  -16.7251  -28.6481   23.0362 C   0  0  0  0  0  0
  -26.4452  -31.6627   25.0720 C   0  0  0  0  0  0
  -25.3733  -31.3720   26.1479 C   0  0  0  0  0  0
  -27.0264  -30.3076   24.6065 C   0  0  0  0  0  0
  -27.6024  -32.4352   25.7470 C   0  0  0  0  0  0
  -27.5591  -37.1813   24.8463 C   0  0  0  0  0  0
  -21.4115  -29.2991   22.3804 N   0  0  0  0  0  0
  -26.4312  -37.3801   23.9401 N   0  0  0  0  0  0
  -24.6586  -31.0818   22.1034 N   0  0  0  0  0  0
  -23.4179  -28.8200   23.3105 O   0  0  0  0  0  0
  -28.4442  -26.8012   20.0722 O   0  0  0  0  0  0
  -26.5571  -34.8924   22.4681 O   0  0  0  0  0  0
  -23.5297  -32.1430   23.7582 O   0  0  0  0  0  0
  -31.6895  -21.4331   19.2874 C   0  0  0  0  0  0
  -30.0480  -17.6071   19.5128 C   0  0  0  0  0  0
  -29.8442  -17.8104   22.0408 C   0  0  0  0  0  0
  -29.3681  -16.2568   19.7664 C   0  0  0  0  0  0
  -30.5051  -16.4084   21.9777 C   0  0  0  0  0  0
  -29.8094  -18.5648   20.6921 C   0  0  0  0  0  0
  -30.4474  -20.6288   19.6954 C   0  0  0  0  0  0
  -32.5482  -23.7269   18.8142 C   0  0  0  0  0  0
  -32.1651  -24.1707   17.3936 C   0  0  0  0  0  0
  -28.8499  -26.1676   18.8630 C   0  0  0  0  0  0
  -29.1333  -27.1953   17.7479 C   0  0  0  0  0  0
  -32.3603  -26.2250   16.1635 C   0  0  0  0  0  0
  -31.3648  -27.1418   16.9010 C   0  0  0  0  0  0
  -29.9956  -15.5353   20.8935 N   0  0  0  0  0  0
  -31.5883  -22.7654   19.3498 N   0  0  0  0  0  0
  -32.6999  -20.8577   18.8761 O   0  0  0  0  0  0
  -30.7909  -19.5991   20.6326 O   0  0  0  0  0  0
  -32.9630  -25.3018   17.0650 O   0  0  0  0  0  0
  -30.0389  -26.6281   16.8045 O   0  0  0  0  0  0
  -31.4622  -12.3572   19.1349 H   0  0  0  0  0  0
  -30.2946  -11.2768   19.8385 H   0  0  0  0  0  0
  -29.7359  -11.7556   17.4291 H   0  0  0  0  0  0
  -29.6624  -13.4621   17.7654 H   0  0  0  0  0  0
  -27.8303  -11.2844   18.8307 H   0  0  0  0  0  0
  -27.3619  -12.6034   17.7880 H   0  0  0  0  0  0
  -27.6798  -14.2297   19.5467 H   0  0  0  0  0  0
  -28.6760  -11.9804   21.3677 H   0  0  0  0  0  0
  -28.4792  -13.6379   21.8538 H   0  0  0  0  0  0
  -25.2731   -9.5727   22.4797 H   0  0  0  0  0  0
  -23.9976   -7.4656   22.7516 H   0  0  0  0  0  0
  -21.0802   -8.8799   19.8967 H   0  0  0  0  0  0
  -22.3650  -10.9712   19.6191 H   0  0  0  0  0  0
  -21.2027   -7.6151   23.9743 H   0  0  0  0  0  0
  -21.1470   -6.0499   25.9087 H   0  0  0  0  0  0
  -22.0590   -2.7610   23.2799 H   0  0  0  0  0  0
  -22.3891  -12.0050   22.4855 H   0  0  0  0  0  0
  -21.1064  -13.1555   22.2482 H   0  0  0  0  0  0
  -24.6759  -15.8471   20.5318 H   0  0  0  0  0  0
  -26.2987  -15.6223   20.1202 H   0  0  0  0  0  0
  -26.7081  -32.5573   23.1175 H   0  0  0  0  0  0
  -25.0111  -33.9805   25.0536 H   0  0  0  0  0  0
  -22.6797  -31.3023   21.4188 H   0  0  0  0  0  0
  -23.3757  -35.9644   23.3320 H   0  0  0  0  0  0
  -24.3570  -36.8900   22.2040 H   0  0  0  0  0  0
  -23.7244  -37.6528   23.6624 H   0  0  0  0  0  0
  -26.0162  -31.6097   20.5906 H   0  0  0  0  0  0
  -26.8105  -30.9056   21.9724 H   0  0  0  0  0  0
  -28.0897  -29.1364   21.1644 H   0  0  0  0  0  0
  -26.0832  -25.9896   18.9975 H   0  0  0  0  0  0
  -23.9866  -27.2897   19.0362 H   0  0  0  0  0  0
  -23.6835  -30.5785   19.4011 H   0  0  0  0  0  0
  -22.7301  -29.2108   19.9003 H   0  0  0  0  0  0
  -25.1295  -36.1986   25.0830 H   0  0  0  0  0  0
  -20.9910  -28.3170   24.1512 H   0  0  0  0  0  0
  -20.5702  -26.2203   23.3601 H   0  0  0  0  0  0
  -21.6621  -26.7444   22.1208 H   0  0  0  0  0  0
  -19.6874  -25.6288   21.1261 H   0  0  0  0  0  0
  -19.6688  -27.3203   20.6790 H   0  0  0  0  0  0
  -17.4180  -26.6712   21.4018 H   0  0  0  0  0  0
  -18.0257  -26.0042   22.8999 H   0  0  0  0  0  0
  -19.7890  -30.7269   24.2291 H   0  0  0  0  0  0
  -17.4961  -31.6261   24.5139 H   0  0  0  0  0  0
  -15.5317  -30.2958   23.7643 H   0  0  0  0  0  0
  -15.8650  -28.0799   22.7069 H   0  0  0  0  0  0
  -24.5902  -30.7073   25.7816 H   0  0  0  0  0  0
  -24.8931  -32.2874   26.4946 H   0  0  0  0  0  0
  -25.8099  -30.8869   27.0220 H   0  0  0  0  0  0
  -26.2781  -29.6864   24.1129 H   0  0  0  0  0  0
  -27.4050  -29.7284   25.4496 H   0  0  0  0  0  0
  -27.8609  -30.4402   23.9179 H   0  0  0  0  0  0
  -27.2638  -33.3644   26.2067 H   0  0  0  0  0  0
  -28.3813  -32.6947   25.0287 H   0  0  0  0  0  0
  -28.0720  -31.8481   26.5372 H   0  0  0  0  0  0
  -28.2622  -38.0098   24.7505 H   0  0  0  0  0  0
  -28.1073  -36.2627   24.6300 H   0  0  0  0  0  0
  -27.2288  -37.1476   25.8861 H   0  0  0  0  0  0
  -20.9266  -29.8665   21.6978 H   0  0  0  0  0  0
  -26.0204  -38.2880   24.1398 H   0  0  0  0  0  0
  -29.6883  -18.0342   18.5776 H   0  0  0  0  0  0
  -31.1199  -17.4496   19.3786 H   0  0  0  0  0  0
  -30.3291  -18.4216   22.8031 H   0  0  0  0  0  0
  -28.8163  -17.6751   22.3879 H   0  0  0  0  0  0
  -29.4003  -15.6753   18.8398 H   0  0  0  0  0  0
  -28.3121  -16.4174   19.9817 H   0  0  0  0  0  0
  -30.3678  -15.9055   22.9364 H   0  0  0  0  0  0
  -31.5812  -16.5519   21.8586 H   0  0  0  0  0  0
  -28.8131  -19.0032   20.6067 H   0  0  0  0  0  0
  -30.0299  -20.2207   18.7759 H   0  0  0  0  0  0
  -29.6796  -21.2789   20.1153 H   0  0  0  0  0  0
  -32.5439  -24.5953   19.4734 H   0  0  0  0  0  0
  -33.5683  -23.3395   18.8274 H   0  0  0  0  0  0
  -31.0984  -24.4019   17.3610 H   0  0  0  0  0  0
  -32.3408  -23.3717   16.6701 H   0  0  0  0  0  0
  -29.7762  -25.6493   19.1086 H   0  0  0  0  0  0
  -28.1577  -25.3935   18.5302 H   0  0  0  0  0  0
  -29.5266  -28.1224   18.1701 H   0  0  0  0  0  0
  -28.2004  -27.4653   17.2514 H   0  0  0  0  0  0
  -33.1692  -26.8414   15.7740 H   0  0  0  0  0  0
  -31.9173  -25.7283   15.2980 H   0  0  0  0  0  0
  -31.3739  -28.1378   16.4536 H   0  0  0  0  0  0
  -31.6758  -27.2581   17.9414 H   0  0  0  0  0  0
  -30.7320  -23.1438   19.7308 H   0  0  0  0  0  0
  1 25  1  0  0  0
  1 30  2  0  0  0
  1 84  1  0  0  0
  2  3  1  0  0  0
  2 25  1  0  0  0
  2 90  1  0  0  0
  2 91  1  0  0  0
  3  4  1  0  0  0
  3 92  1  0  0  0
  3 93  1  0  0  0
  4  5  1  0  0  0
  4 94  1  0  0  0
  4 95  1  0  0  0
  5  6  1  0  0  0
  5 26  1  0  0  0
  5 96  1  0  0  0
  6 25  1  0  0  0
  6 97  1  0  0  0
  6 98  1  0  0  0
  7  8  2  0  0  0
  7 26  1  0  0  0
  7 29  1  0  0  0
  8  9  1  0  0  0
  8 22  1  0  0  0
  9 10  1  0  0  0
  9 27  2  0  0  0
 10 11  2  0  0  0
 10 15  1  0  0  0
 11 12  1  0  0  0
 11 99  1  0  0  0
 12 13  2  0  0  0
 12100  1  0  0  0
 13 14  1  0  0  0
 13 31  1  0  0  0
 14 15  2  0  0  0
 14101  1  0  0  0
 15102  1  0  0  0
 16 17  2  0  0  0
 16 21  1  0  0  0
 16 31  1  0  0  0
 17 18  1  0  0  0
 17103  1  0  0  0
 18 19  2  0  0  0
 18104  1  0  0  0
 19 20  1  0  0  0
 19 24  1  0  0  0
 20 21  2  0  0  0
 20105  1  0  0  0
 21 23  1  0  0  0
 22 28  1  0  0  0
 22 32  2  0  0  0
 26 27  1  0  0  0
 28106  1  0  0  0
 28107  1  0  0  0
 29108  1  0  0  0
 29109  1  0  0  0
 33 34  1  0  0  0
 33 66  1  0  0  0
 33 70  2  0  0  0
 34 36  1  0  0  0
 34 59  1  0  0  0
 34110  1  0  0  0
 35 44  2  0  0  0
 35 45  1  0  0  0
 35 68  1  0  0  0
 36 56  1  0  0  0
 36111  1  0  0  0
 37 39  1  0  0  0
 37 47  1  0  0  0
 37 66  1  0  0  0
 37112  1  0  0  0
 38 43  2  0  0  0
 38 46  1  0  0  0
 38 47  1  0  0  0
 39 64  1  0  0  0
 39 67  2  0  0  0
 40 52  1  0  0  0
 40 53  2  0  0  0
 40 58  1  0  0  0
 41113  1  0  0  0
 41114  1  0  0  0
 41115  1  0  0  0
 41 48  1  0  0  0
 42 43  1  0  0  0
 42 66  1  0  0  0
 42116  1  0  0  0
 42117  1  0  0  0
 43 44  1  0  0  0
 44118  1  0  0  0
 45 46  2  0  0  0
 45119  1  0  0  0
 46120  1  0  0  0
 47121  1  0  0  0
 47122  1  0  0  0
 48 56  1  0  0  0
 48 65  1  0  0  0
 48123  1  0  0  0
 49 50  1  0  0  0
 49 53  1  0  0  0
 49 64  1  0  0  0
 49124  1  0  0  0
 50 51  1  0  0  0
 50125  1  0  0  0
 50126  1  0  0  0
 51 52  1  0  0  0
 51127  1  0  0  0
 51128  1  0  0  0
 52129  1  0  0  0
 52130  1  0  0  0
 53 54  1  0  0  0
 54 55  2  0  0  0
 54131  1  0  0  0
 55 57  1  0  0  0
 55132  1  0  0  0
 56 69  2  0  0  0
 57 58  2  0  0  0
 57133  1  0  0  0
 58134  1  0  0  0
 59 60  1  0  0  0
 59 61  1  0  0  0
 59 62  1  0  0  0
 60135  1  0  0  0
 60136  1  0  0  0
 60137  1  0  0  0
 61138  1  0  0  0
 61139  1  0  0  0
 61140  1  0  0  0
 62141  1  0  0  0
 62142  1  0  0  0
 62143  1  0  0  0
 63 65  1  0  0  0
 63144  1  0  0  0
 63145  1  0  0  0
 63146  1  0  0  0
 64147  1  0  0  0
 65148  1  0  0  0
 68 80  1  0  0  0
 71 77  1  0  0  0
 71 85  1  0  0  0
 71 86  2  0  0  0
 72 74  1  0  0  0
 72 76  1  0  0  0
 72149  1  0  0  0
 72150  1  0  0  0
 73 75  1  0  0  0
 73 76  1  0  0  0
 73151  1  0  0  0
 73152  1  0  0  0
 74 84  1  0  0  0
 74153  1  0  0  0
 74154  1  0  0  0
 75 84  1  0  0  0
 75155  1  0  0  0
 75156  1  0  0  0
 76 87  1  0  0  0
 76157  1  0  0  0
 77 87  1  0  0  0
 77158  1  0  0  0
 77159  1  0  0  0
 78 79  1  0  0  0
 78 85  1  0  0  0
 78160  1  0  0  0
 78161  1  0  0  0
 79 88  1  0  0  0
 79162  1  0  0  0
 79163  1  0  0  0
 80 81  1  0  0  0
 80164  1  0  0  0
 80165  1  0  0  0
 81 89  1  0  0  0
 81166  1  0  0  0
 81167  1  0  0  0
 82 83  1  0  0  0
 82 88  1  0  0  0
 82168  1  0  0  0
 82169  1  0  0  0
 83 89  1  0  0  0
 83170  1  0  0  0
 83171  1  0  0  0
 85172  1  0  0  0
M  ISO  4   1 100  68 101  80 101  84 100
M  END
> <chiral flag>
0

> <version>
0

> <s_m_source_file>
/data/baiqing/PycharmProjects/Reinvent-master-3.2/result/LINK_invent/BTK/process_docking_weight1_custom_product_contain_oxygen_bond_distance_aromatic_linkinvent_7_9_3/rearranged_h_0000.sdf

> <i_m_source_file_index>
36

> <r_mmod_Potential_Energy-OPLS-2005>
133.180358886719

> <r_mmod_Stretch_Energy-OPLS-2005>
36.1205787658691

> <r_mmod_Bend_Energy-OPLS-2005>
107.100105285645

> <r_mmod_Torsional_Energy-OPLS-2005>
364.034576416016

> <r_mmod_Improper_Torsional_Energy-OPLS-2005>
8.97027969360352

> <r_mmod_Van_der_Waal_Energy-OPLS-2005>
143.933670043945

> <r_mmod_Electrostatic_Energy-OPLS-2005>
-292.117614746094

> <r_mmod_Solvation_Energy-OPLS-2005>
-248.882186889648

> <b_mmod_Minimization_Converged-OPLS-2005>
0

> <r_mmod_RMS_Derivative-OPLS-2005>
3.80668306350708

$$$$
36
                    3D
 Structure written by MMmdl.
175184  0  0  1  0            999 V2000
  -30.7128  -14.4541   20.3603 C   0  0  0  0  0  0
  -30.4024  -12.2307   19.4365 C   0  0  0  0  0  0
  -29.4734  -12.3889   18.2126 C   0  0  0  0  0  0
  -27.9895  -12.3289   18.6205 C   0  0  0  0  0  0
  -27.6495  -13.2113   19.8482 C   0  0  2  0  0  0
  -28.7015  -13.0569   20.9696 C   0  0  0  0  0  0
  -25.2553  -13.8238   20.5689 C   0  0  0  0  0  0
  -24.1819  -13.0533   20.9187 C   0  0  0  0  0  0
  -24.6357  -11.6966   20.8770 C   0  0  0  0  0  0
  -23.9051  -10.4325   21.0455 C   0  0  0  0  0  0
  -24.3629   -9.4195   21.9193 C   0  0  0  0  0  0
  -23.6294   -8.2236   22.0740 C   0  0  0  0  0  0
  -22.4281   -8.0297   21.3526 C   0  0  0  0  0  0
  -21.9917   -9.0288   20.4640 C   0  0  0  0  0  0
  -22.7247  -10.2154   20.3051 C   0  0  0  0  0  0
  -21.6872   -6.0758   22.5243 C   0  0  0  0  0  0
  -21.4077   -6.5651   23.8196 C   0  0  0  0  0  0
  -21.3620   -5.6765   24.9121 C   0  0  0  0  0  0
  -21.6013   -4.3021   24.7133 C   0  0  0  0  0  0
  -21.8825   -3.8149   23.4246 C   0  0  0  0  0  0
  -21.9226   -4.6994   22.3323 C   0  0  0  0  0  0
  -22.7851  -13.5334   21.1923 C   0  0  0  0  0  0
  -22.1725   -4.2195   21.0893 F   0  0  0  0  0  0
  -21.5547   -3.4475   25.7622 F   0  0  0  0  0  0
  -30.0270  -13.2852   20.3810 N   0  0  0  0  0  0
  -26.2972  -12.9403   20.3306 N   0  0  0  0  0  0
  -25.9259  -11.6579   20.5761 N   0  0  0  0  0  0
  -22.0511  -12.8285   22.0454 N   0  0  0  0  0  0
  -25.4305  -15.1952   20.4059 N   0  0  0  0  0  0
  -31.9377  -14.5209   20.2808 O   0  0  0  0  0  0
  -21.6648   -6.8905   21.4217 O   0  0  0  0  0  0
  -22.3515  -14.5669   20.6822 O   0  0  0  0  0  0
  -24.6125  -31.8689   23.2095 C   0  0  0  0  0  0
  -25.9012  -32.4831   23.8410 C   0  0  1  0  0  0
  -27.2438  -27.4516   20.0945 C   0  0  0  0  0  0
  -25.5861  -33.8633   24.2343 N   0  0  0  0  0  0
  -23.4005  -30.4917   21.5497 C   0  0  2  0  0  0
  -24.8462  -28.9578   20.1199 C   0  0  0  0  0  0
  -22.7399  -29.4667   22.4999 C   0  0  0  0  0  0
  -18.0263  -28.1369   22.8495 C   0  0  0  0  0  0
  -24.1479  -36.7338   23.2645 C   0  0  0  0  0  0
  -25.9255  -30.8449   21.3542 C   0  0  0  0  0  0
  -26.0054  -29.4788   20.7058 C   0  0  0  0  0  0
  -27.2061  -28.7361   20.6817 C   0  0  0  0  0  0
  -26.0577  -26.9386   19.5133 C   0  0  0  0  0  0
  -24.8667  -27.6878   19.5216 C   0  0  0  0  0  0
  -23.6054  -29.8175   20.1673 C   0  0  0  0  0  0
  -25.4093  -36.3131   24.0349 C   0  0  1  0  0  0
  -20.5851  -28.3649   23.1314 C   0  0  2  0  0  0
  -20.6743  -26.9389   22.5402 C   0  0  0  0  0  0
  -19.5722  -26.6379   21.5198 C   0  0  0  0  0  0
  -18.1910  -26.7910   22.1634 C   0  0  0  0  0  0
  -19.1518  -28.8827   23.2903 C   0  0  0  0  0  0
  -18.9449  -30.1429   23.8913 C   0  0  0  0  0  0
  -17.6458  -30.6581   24.0557 C   0  0  0  0  0  0
  -25.9015  -34.9487   23.5148 C   0  0  0  0  0  0
  -16.5343  -29.9086   23.6317 C   0  0  0  0  0  0
  -16.7257  -28.6497   23.0349 C   0  0  0  0  0  0
  -26.4455  -31.6603   25.0730 C   0  0  0  0  0  0
  -25.3744  -31.3685   26.1497 C   0  0  0  0  0  0
  -27.0271  -30.3057   24.6055 C   0  0  0  0  0  0
  -27.6039  -32.4317   25.7491 C   0  0  0  0  0  0
  -27.5566  -37.1831   24.8478 C   0  0  0  0  0  0
  -21.4134  -29.3039   22.3743 N   0  0  0  0  0  0
  -26.4292  -37.3796   23.9405 N   0  0  0  0  0  0
  -24.6652  -31.0812   22.0974 N   0  0  0  0  0  0
  -23.4182  -28.8199   23.3032 O   0  0  0  0  0  0
  -28.4465  -26.7751   20.0880 O   0  0  0  0  0  0
  -26.5587  -34.8931   22.4719 O   0  0  0  0  0  0
  -23.5330  -32.1408   23.7509 O   0  0  0  0  0  0
  -34.0988  -19.2519   20.8755 C   0  0  0  0  0  0
  -31.0981  -16.9867   16.7425 C   0  0  0  0  0  0
  -31.7381  -18.4828   18.5440 C   0  0  0  0  0  0
  -30.4253  -16.1696   17.6691 C   0  0  0  0  0  0
  -31.0920  -17.6492   19.4800 C   0  0  0  0  0  0
  -33.5350  -20.1692   21.7856 C   0  0  0  0  0  0
  -34.9286  -21.1102   19.5459 C   0  0  0  0  0  0
  -34.7445  -19.7191   19.7108 C   0  0  0  0  0  0
  -31.8160  -18.1148   17.1863 C   0  0  0  0  0  0
  -30.4740  -16.4566   19.0531 C   0  0  0  0  0  0
  -33.6277  -21.5630   21.5764 C   0  0  0  0  0  0
  -34.3910  -22.0263   20.4710 C   0  0  0  0  0  0
  -35.1073  -18.7584   18.6159 C   0  0  0  0  0  0
  -32.6980  -18.8815   16.2124 C   0  0  0  0  0  0
  -34.1950  -18.4929   16.3148 C   0  0  0  0  0  0
  -28.4270  -25.3477   20.0452 C   0  0  0  0  0  0
  -32.6065  -23.7175   22.1457 C   0  0  0  0  0  0
  -29.8401  -24.7768   19.8346 C   0  0  0  0  0  0
  -31.7696  -23.8826   20.8530 C   0  0  0  0  0  0
  -29.9738  -15.5193   20.0024 N   0  0  0  0  0  0
  -34.8362  -19.2337   17.3963 N   0  0  0  0  0  0
  -35.4098  -17.5858   18.8415 O   0  0  0  0  0  0
  -32.9401  -22.3609   22.4731 O   0  0  0  0  0  0
  -30.5766  -24.6431   21.0535 O   0  0  0  0  0  0
  -34.5980  -23.3485   20.2607 F   0  0  0  0  0  0
  -31.4462  -12.2978   19.1256 H   0  0  0  0  0  0
  -30.2782  -11.2479   19.8960 H   0  0  0  0  0  0
  -29.6868  -11.6208   17.4675 H   0  0  0  0  0  0
  -29.6623  -13.3322   17.7244 H   0  0  0  0  0  0
  -27.7526  -11.2857   18.8287 H   0  0  0  0  0  0
  -27.3528  -12.6131   17.7853 H   0  0  0  0  0  0
  -27.6714  -14.2435   19.4988 H   0  0  0  0  0  0
  -28.6489  -12.0512   21.3884 H   0  0  0  0  0  0
  -28.5024  -13.7480   21.7891 H   0  0  0  0  0  0
  -25.2782   -9.5648   22.4757 H   0  0  0  0  0  0
  -24.0024   -7.4598   22.7405 H   0  0  0  0  0  0
  -21.0869   -8.8777   19.8914 H   0  0  0  0  0  0
  -22.3737  -10.9706   19.6120 H   0  0  0  0  0  0
  -21.2165   -7.6164   23.9700 H   0  0  0  0  0  0
  -21.1441   -6.0488   25.9027 H   0  0  0  0  0  0
  -22.0668   -2.7626   23.2666 H   0  0  0  0  0  0
  -22.4177  -11.9969   22.4832 H   0  0  0  0  0  0
  -21.1094  -13.1249   22.2655 H   0  0  0  0  0  0
  -24.6707  -15.8578   20.5066 H   0  0  0  0  0  0
  -26.2935  -15.6337   20.1119 H   0  0  0  0  0  0
  -26.7086  -32.5560   23.1193 H   0  0  0  0  0  0
  -24.9988  -33.9787   25.0474 H   0  0  0  0  0  0
  -22.6887  -31.3069   21.4066 H   0  0  0  0  0  0
  -23.3719  -35.9696   23.3350 H   0  0  0  0  0  0
  -24.3563  -36.8907   22.2048 H   0  0  0  0  0  0
  -23.7256  -37.6572   23.6623 H   0  0  0  0  0  0
  -26.0228  -31.6075   20.5807 H   0  0  0  0  0  0
  -26.8208  -30.9090   21.9611 H   0  0  0  0  0  0
  -28.1088  -29.1406   21.1186 H   0  0  0  0  0  0
  -26.0221  -25.9730   19.0346 H   0  0  0  0  0  0
  -23.9718  -27.2842   19.0663 H   0  0  0  0  0  0
  -23.7031  -30.5824   19.3971 H   0  0  0  0  0  0
  -22.7350  -29.2235   19.8830 H   0  0  0  0  0  0
  -25.1271  -36.2018   25.0841 H   0  0  0  0  0  0
  -20.9941  -28.3203   24.1436 H   0  0  0  0  0  0
  -20.5608  -26.2271   23.3589 H   0  0  0  0  0  0
  -21.6616  -26.7408   22.1216 H   0  0  0  0  0  0
  -19.6876  -25.6292   21.1219 H   0  0  0  0  0  0
  -19.6644  -27.3195   20.6730 H   0  0  0  0  0  0
  -17.4160  -26.6632   21.4056 H   0  0  0  0  0  0
  -18.0342  -26.0047   22.9035 H   0  0  0  0  0  0
  -19.7927  -30.7229   24.2297 H   0  0  0  0  0  0
  -17.5017  -31.6262   24.5156 H   0  0  0  0  0  0
  -15.5347  -30.3003   23.7613 H   0  0  0  0  0  0
  -15.8652  -28.0813   22.7070 H   0  0  0  0  0  0
  -24.5896  -30.7052   25.7846 H   0  0  0  0  0  0
  -24.8958  -32.2828   26.5014 H   0  0  0  0  0  0
  -25.8121  -30.8811   27.0216 H   0  0  0  0  0  0
  -26.2784  -29.6837   24.1125 H   0  0  0  0  0  0
  -27.4086  -29.7272   25.4480 H   0  0  0  0  0  0
  -27.8604  -30.4411   23.9153 H   0  0  0  0  0  0
  -27.2658  -33.3603   26.2105 H   0  0  0  0  0  0
  -28.3827  -32.6895   25.0303 H   0  0  0  0  0  0
  -28.0722  -31.8413   26.5377 H   0  0  0  0  0  0
  -28.2639  -38.0075   24.7459 H   0  0  0  0  0  0
  -28.1007  -36.2606   24.6394 H   0  0  0  0  0  0
  -27.2275  -37.1597   25.8882 H   0  0  0  0  0  0
  -20.9284  -29.8802   21.7002 H   0  0  0  0  0  0
  -26.0201  -38.2896   24.1355 H   0  0  0  0  0  0
  -33.9550  -18.1888   21.0260 H   0  0  0  0  0  0
  -31.0899  -16.7183   15.6932 H   0  0  0  0  0  0
  -32.2247  -19.3804   18.8923 H   0  0  0  0  0  0
  -29.9166  -15.2980   17.2964 H   0  0  0  0  0  0
  -31.1252  -17.9121   20.5273 H   0  0  0  0  0  0
  -32.9755  -19.7947   22.6316 H   0  0  0  0  0  0
  -35.4529  -21.4961   18.6837 H   0  0  0  0  0  0
  -32.5614  -19.9524   16.3793 H   0  0  0  0  0  0
  -32.3453  -18.7059   15.1964 H   0  0  0  0  0  0
  -34.6988  -18.7679   15.3901 H   0  0  0  0  0  0
  -34.3061  -17.4131   16.4250 H   0  0  0  0  0  0
  -27.9772  -24.9388   20.9515 H   0  0  0  0  0  0
  -27.8358  -24.9983   19.2043 H   0  0  0  0  0  0
  -32.0089  -24.0657   22.9894 H   0  0  0  0  0  0
  -33.4896  -24.3576   22.1431 H   0  0  0  0  0  0
  -30.3932  -25.3703   19.1023 H   0  0  0  0  0  0
  -29.7149  -23.7828   19.4004 H   0  0  0  0  0  0
  -31.4933  -22.8980   20.4748 H   0  0  0  0  0  0
  -32.3842  -24.3544   20.0843 H   0  0  0  0  0  0
  -28.9743  -15.3783   20.0204 H   0  0  0  0  0  0
  -34.7480  -20.2364   17.3332 H   0  0  0  0  0  0
  1 25  1  0  0  0
  1 30  2  0  0  0
  1 90  1  0  0  0
  2  3  1  0  0  0
  2 25  1  0  0  0
  2 96  1  0  0  0
  2 97  1  0  0  0
  3  4  1  0  0  0
  3 98  1  0  0  0
  3 99  1  0  0  0
  4  5  1  0  0  0
  4100  1  0  0  0
  4101  1  0  0  0
  5  6  1  0  0  0
  5 26  1  0  0  0
  5102  1  0  0  0
  6 25  1  0  0  0
  6103  1  0  0  0
  6104  1  0  0  0
  7  8  2  0  0  0
  7 26  1  0  0  0
  7 29  1  0  0  0
  8  9  1  0  0  0
  8 22  1  0  0  0
  9 10  1  0  0  0
  9 27  2  0  0  0
 10 11  2  0  0  0
 10 15  1  0  0  0
 11 12  1  0  0  0
 11105  1  0  0  0
 12 13  2  0  0  0
 12106  1  0  0  0
 13 14  1  0  0  0
 13 31  1  0  0  0
 14 15  2  0  0  0
 14107  1  0  0  0
 15108  1  0  0  0
 16 17  2  0  0  0
 16 21  1  0  0  0
 16 31  1  0  0  0
 17 18  1  0  0  0
 17109  1  0  0  0
 18 19  2  0  0  0
 18110  1  0  0  0
 19 20  1  0  0  0
 19 24  1  0  0  0
 20 21  2  0  0  0
 20111  1  0  0  0
 21 23  1  0  0  0
 22 28  1  0  0  0
 22 32  2  0  0  0
 26 27  1  0  0  0
 28112  1  0  0  0
 28113  1  0  0  0
 29114  1  0  0  0
 29115  1  0  0  0
 33 34  1  0  0  0
 33 66  1  0  0  0
 33 70  2  0  0  0
 34 36  1  0  0  0
 34 59  1  0  0  0
 34116  1  0  0  0
 35 44  2  0  0  0
 35 45  1  0  0  0
 35 68  1  0  0  0
 36 56  1  0  0  0
 36117  1  0  0  0
 37 39  1  0  0  0
 37 47  1  0  0  0
 37 66  1  0  0  0
 37118  1  0  0  0
 38 43  2  0  0  0
 38 46  1  0  0  0
 38 47  1  0  0  0
 39 64  1  0  0  0
 39 67  2  0  0  0
 40 52  1  0  0  0
 40 53  2  0  0  0
 40 58  1  0  0  0
 41119  1  0  0  0
 41120  1  0  0  0
 41121  1  0  0  0
 41 48  1  0  0  0
 42 43  1  0  0  0
 42 66  1  0  0  0
 42122  1  0  0  0
 42123  1  0  0  0
 43 44  1  0  0  0
 44124  1  0  0  0
 45 46  2  0  0  0
 45125  1  0  0  0
 46126  1  0  0  0
 47127  1  0  0  0
 47128  1  0  0  0
 48 56  1  0  0  0
 48 65  1  0  0  0
 48129  1  0  0  0
 49 50  1  0  0  0
 49 53  1  0  0  0
 49 64  1  0  0  0
 49130  1  0  0  0
 50 51  1  0  0  0
 50131  1  0  0  0
 50132  1  0  0  0
 51 52  1  0  0  0
 51133  1  0  0  0
 51134  1  0  0  0
 52135  1  0  0  0
 52136  1  0  0  0
 53 54  1  0  0  0
 54 55  2  0  0  0
 54137  1  0  0  0
 55 57  1  0  0  0
 55138  1  0  0  0
 56 69  2  0  0  0
 57 58  2  0  0  0
 57139  1  0  0  0
 58140  1  0  0  0
 59 60  1  0  0  0
 59 61  1  0  0  0
 59 62  1  0  0  0
 60141  1  0  0  0
 60142  1  0  0  0
 60143  1  0  0  0
 61144  1  0  0  0
 61145  1  0  0  0
 61146  1  0  0  0
 62147  1  0  0  0
 62148  1  0  0  0
 62149  1  0  0  0
 63 65  1  0  0  0
 63150  1  0  0  0
 63151  1  0  0  0
 63152  1  0  0  0
 64153  1  0  0  0
 65154  1  0  0  0
 68 86  1  0  0  0
 71 76  2  0  0  0
 71 78  1  0  0  0
 71155  1  0  0  0
 72 74  2  0  0  0
 72 79  1  0  0  0
 72156  1  0  0  0
 73 75  1  0  0  0
 73 79  2  0  0  0
 73157  1  0  0  0
 74 80  1  0  0  0
 74158  1  0  0  0
 75 80  2  0  0  0
 75159  1  0  0  0
 76 81  1  0  0  0
 76160  1  0  0  0
 77 78  2  0  0  0
 77 82  1  0  0  0
 77161  1  0  0  0
 78 83  1  0  0  0
 79 84  1  0  0  0
 80 90  1  0  0  0
 81 82  2  0  0  0
 81 93  1  0  0  0
 82 95  1  0  0  0
 83 91  1  0  0  0
 83 92  2  0  0  0
 84 85  1  0  0  0
 84162  1  0  0  0
 84163  1  0  0  0
 85 91  1  0  0  0
 85164  1  0  0  0
 85165  1  0  0  0
 86 88  1  0  0  0
 86166  1  0  0  0
 86167  1  0  0  0
 87 89  1  0  0  0
 87 93  1  0  0  0
 87168  1  0  0  0
 87169  1  0  0  0
 88 94  1  0  0  0
 88170  1  0  0  0
 88171  1  0  0  0
 89 94  1  0  0  0
 89172  1  0  0  0
 89173  1  0  0  0
 90174  1  0  0  0
 91175  1  0  0  0
M  ISO  4   1 100  68 101  86 101  90 100
M  END
> <chiral flag>
0

> <version>
0

> <s_m_source_file>
/data/baiqing/PycharmProjects/Reinvent-master-3.2/result/LINK_invent/BTK/process_docking_weight1_custom_product_contain_oxygen_bond_distance_aromatic_linkinvent_7_9_3/rearranged_h_0000.sdf

> <i_m_source_file_index>
37

> <r_mmod_Potential_Energy-OPLS-2005>
34.7069206237793

> <r_mmod_Stretch_Energy-OPLS-2005>
37.5389747619629

> <r_mmod_Bend_Energy-OPLS-2005>
114.770751953125

> <r_mmod_Torsional_Energy-OPLS-2005>
318.045715332031

> <r_mmod_Improper_Torsional_Energy-OPLS-2005>
19.5711326599121

> <r_mmod_Van_der_Waal_Energy-OPLS-2005>
178.498962402344

> <r_mmod_Electrostatic_Energy-OPLS-2005>
-401.470733642578

> <r_mmod_Solvation_Energy-OPLS-2005>
-265.274383544922

> <b_mmod_Minimization_Converged-OPLS-2005>
0

> <r_mmod_RMS_Derivative-OPLS-2005>
6.14356756210327

$$$$
37
                    3D
 Structure written by MMmdl.
165173  0  0  1  0            999 V2000
  -30.7703  -14.4695   20.4001 C   0  0  0  0  0  0
  -30.3922  -12.2709   19.4510 C   0  0  0  0  0  0
  -29.4894  -12.4540   18.2171 C   0  0  0  0  0  0
  -28.0092  -12.3530   18.6235 C   0  0  0  0  0  0
  -27.6537  -13.2230   19.8602 C   0  0  2  0  0  0
  -28.7020  -13.1135   20.9883 C   0  0  0  0  0  0
  -25.2585  -13.8208   20.5696 C   0  0  0  0  0  0
  -24.1844  -13.0477   20.9208 C   0  0  0  0  0  0
  -24.6390  -11.6940   20.8738 C   0  0  0  0  0  0
  -23.9050  -10.4338   21.0408 C   0  0  0  0  0  0
  -24.3608   -9.4256   21.9179 C   0  0  0  0  0  0
  -23.6303   -8.2274   22.0748 C   0  0  0  0  0  0
  -22.4285   -8.0308   21.3548 C   0  0  0  0  0  0
  -21.9926   -9.0274   20.4643 C   0  0  0  0  0  0
  -22.7230  -10.2172   20.3057 C   0  0  0  0  0  0
  -21.6880   -6.0745   22.5286 C   0  0  0  0  0  0
  -21.4027   -6.5637   23.8214 C   0  0  0  0  0  0
  -21.3660   -5.6792   24.9163 C   0  0  0  0  0  0
  -21.6040   -4.3059   24.7219 C   0  0  0  0  0  0
  -21.8823   -3.8154   23.4337 C   0  0  0  0  0  0
  -21.9213   -4.6971   22.3406 C   0  0  0  0  0  0
  -22.7878  -13.5282   21.1855 C   0  0  0  0  0  0
  -22.1688   -4.2170   21.0985 F   0  0  0  0  0  0
  -21.5631   -3.4540   25.7725 F   0  0  0  0  0  0
  -30.0295  -13.3309   20.4017 N   0  0  0  0  0  0
  -26.3021  -12.9394   20.3392 N   0  0  0  0  0  0
  -25.9333  -11.6539   20.5770 N   0  0  0  0  0  0
  -22.0498  -12.8275   22.0395 N   0  0  0  0  0  0
  -25.4376  -15.1894   20.4035 N   0  0  0  0  0  0
  -31.9896  -14.4367   20.2429 O   0  0  0  0  0  0
  -21.6654   -6.8895   21.4243 O   0  0  0  0  0  0
  -22.3618  -14.5613   20.6724 O   0  0  0  0  0  0
  -24.6169  -31.8708   23.2195 C   0  0  0  0  0  0
  -25.9061  -32.4838   23.8457 C   0  0  1  0  0  0
  -27.2091  -27.4469   20.1021 C   0  0  0  0  0  0
  -25.5934  -33.8639   24.2387 N   0  0  0  0  0  0
  -23.4047  -30.5008   21.5556 C   0  0  2  0  0  0
  -24.8451  -28.9810   20.1120 C   0  0  0  0  0  0
  -22.7409  -29.4684   22.4957 C   0  0  0  0  0  0
  -18.0264  -28.1394   22.8502 C   0  0  0  0  0  0
  -24.1472  -36.7315   23.2638 C   0  0  0  0  0  0
  -25.9328  -30.8419   21.3738 C   0  0  0  0  0  0
  -26.0046  -29.4799   20.7199 C   0  0  0  0  0  0
  -27.1931  -28.7150   20.7232 C   0  0  0  0  0  0
  -26.0477  -26.9878   19.4455 C   0  0  0  0  0  0
  -24.8612  -27.7324   19.4732 C   0  0  0  0  0  0
  -23.6099  -29.8464   20.1665 C   0  0  0  0  0  0
  -25.4095  -36.3132   24.0346 C   0  0  1  0  0  0
  -20.5872  -28.3680   23.1303 C   0  0  2  0  0  0
  -20.6759  -26.9400   22.5418 C   0  0  0  0  0  0
  -19.5733  -26.6380   21.5228 C   0  0  0  0  0  0
  -18.1911  -26.7942   22.1632 C   0  0  0  0  0  0
  -19.1526  -28.8848   23.2915 C   0  0  0  0  0  0
  -18.9444  -30.1445   23.8934 C   0  0  0  0  0  0
  -17.6445  -30.6603   24.0563 C   0  0  0  0  0  0
  -25.9015  -34.9483   23.5147 C   0  0  0  0  0  0
  -16.5332  -29.9110   23.6334 C   0  0  0  0  0  0
  -16.7256  -28.6523   23.0364 C   0  0  0  0  0  0
  -26.4480  -31.6623   25.0770 C   0  0  0  0  0  0
  -25.3751  -31.3710   26.1532 C   0  0  0  0  0  0
  -27.0313  -30.3085   24.6122 C   0  0  0  0  0  0
  -27.6080  -32.4345   25.7514 C   0  0  0  0  0  0
  -27.5572  -37.1809   24.8459 C   0  0  0  0  0  0
  -21.4135  -29.3060   22.3696 N   0  0  0  0  0  0
  -26.4278  -37.3812   23.9411 N   0  0  0  0  0  0
  -24.6690  -31.0835   22.1081 N   0  0  0  0  0  0
  -23.4186  -28.8162   23.2942 O   0  0  0  0  0  0
  -28.3343  -26.6643   20.1427 O   0  0  0  0  0  0
  -26.5509  -34.8915   22.4670 O   0  0  0  0  0  0
  -23.5360  -32.1434   23.7601 O   0  0  0  0  0  0
  -30.0367  -19.8657   21.4115 C   0  0  0  0  0  0
  -30.1157  -18.4849   21.1179 C   0  0  0  0  0  0
  -30.1474  -20.8250   20.3854 C   0  0  0  0  0  0
  -30.3683  -19.0333   18.7585 C   0  0  0  0  0  0
  -30.2922  -18.0597   19.7824 C   0  0  0  0  0  0
  -30.2903  -20.4115   19.0453 C   0  0  0  0  0  0
  -30.5804  -16.6232   19.4382 C   0  0  0  0  0  0
  -29.4030  -21.1251   16.9009 C   0  0  0  0  0  0
  -28.2185  -22.1106   16.9231 C   0  0  0  0  0  0
  -28.1989  -25.4993   20.9768 C   0  0  0  0  0  0
  -27.3559  -24.3700   20.3492 C   0  0  0  0  0  0
  -27.0907  -21.4928   18.9764 C   0  0  0  0  0  0
  -26.8390  -22.0285   20.4058 C   0  0  0  0  0  0
  -30.3320  -21.3609   18.0119 N   0  0  0  0  0  0
  -30.1063  -15.6348   20.2359 N   0  0  0  0  0  0
  -31.2380  -16.4073   18.4100 O   0  0  0  0  0  0
  -27.8335  -22.4524   18.2405 O   0  0  0  0  0  0
  -27.7377  -23.0721   20.8112 O   0  0  0  0  0  0
  -31.4409  -12.3062   19.1474 H   0  0  0  0  0  0
  -30.2508  -11.2913   19.9124 H   0  0  0  0  0  0
  -29.7196  -11.6962   17.4682 H   0  0  0  0  0  0
  -29.6843  -13.4193   17.7472 H   0  0  0  0  0  0
  -27.7961  -11.3003   18.8223 H   0  0  0  0  0  0
  -27.3813  -12.6377   17.7801 H   0  0  0  0  0  0
  -27.6740  -14.2550   19.5175 H   0  0  0  0  0  0
  -28.6583  -12.1318   21.4592 H   0  0  0  0  0  0
  -28.5022  -13.8478   21.7701 H   0  0  0  0  0  0
  -25.2715   -9.5770   22.4802 H   0  0  0  0  0  0
  -24.0039   -7.4652   22.7440 H   0  0  0  0  0  0
  -21.0899   -8.8768   19.8894 H   0  0  0  0  0  0
  -22.3663  -10.9726   19.6206 H   0  0  0  0  0  0
  -21.2015   -7.6143   23.9730 H   0  0  0  0  0  0
  -21.1482   -6.0505   25.9074 H   0  0  0  0  0  0
  -22.0601   -2.7621   23.2824 H   0  0  0  0  0  0
  -22.4056  -11.9895   22.4774 H   0  0  0  0  0  0
  -21.1119  -13.1340   22.2536 H   0  0  0  0  0  0
  -24.6798  -15.8574   20.4938 H   0  0  0  0  0  0
  -26.2924  -15.6121   20.0647 H   0  0  0  0  0  0
  -26.7095  -32.5555   23.1197 H   0  0  0  0  0  0
  -25.0176  -33.9805   25.0599 H   0  0  0  0  0  0
  -22.6985  -31.3234   21.4210 H   0  0  0  0  0  0
  -23.3745  -35.9639   23.3316 H   0  0  0  0  0  0
  -24.3568  -36.8907   22.2049 H   0  0  0  0  0  0
  -23.7194  -37.6504   23.6646 H   0  0  0  0  0  0
  -26.0396  -31.6033   20.5983 H   0  0  0  0  0  0
  -26.8275  -30.8985   21.9810 H   0  0  0  0  0  0
  -28.0838  -29.0830   21.2121 H   0  0  0  0  0  0
  -26.0384  -26.0527   18.9087 H   0  0  0  0  0  0
  -23.9751  -27.3462   18.9897 H   0  0  0  0  0  0
  -23.7261  -30.6286   19.4169 H   0  0  0  0  0  0
  -22.7336  -29.2711   19.8638 H   0  0  0  0  0  0
  -25.1264  -36.2007   25.0834 H   0  0  0  0  0  0
  -20.9983  -28.3248   24.1420 H   0  0  0  0  0  0
  -20.5685  -26.2261   23.3604 H   0  0  0  0  0  0
  -21.6622  -26.7437   22.1182 H   0  0  0  0  0  0
  -19.6890  -25.6293   21.1249 H   0  0  0  0  0  0
  -19.6712  -27.3196   20.6769 H   0  0  0  0  0  0
  -17.4175  -26.6707   21.4023 H   0  0  0  0  0  0
  -18.0294  -26.0079   22.9021 H   0  0  0  0  0  0
  -19.7904  -30.7253   24.2340 H   0  0  0  0  0  0
  -17.4997  -31.6302   24.5127 H   0  0  0  0  0  0
  -15.5343  -30.3025   23.7655 H   0  0  0  0  0  0
  -15.8640  -28.0858   22.7095 H   0  0  0  0  0  0
  -24.5945  -30.7024   25.7879 H   0  0  0  0  0  0
  -24.8907  -32.2841   26.5010 H   0  0  0  0  0  0
  -25.8114  -30.8876   27.0286 H   0  0  0  0  0  0
  -26.2845  -29.6848   24.1183 H   0  0  0  0  0  0
  -27.4088  -29.7327   25.4576 H   0  0  0  0  0  0
  -27.8689  -30.4414   23.9266 H   0  0  0  0  0  0
  -27.2732  -33.3666   26.2087 H   0  0  0  0  0  0
  -28.3890  -32.6871   25.0327 H   0  0  0  0  0  0
  -28.0745  -31.8459   26.5423 H   0  0  0  0  0  0
  -28.2583  -38.0109   24.7520 H   0  0  0  0  0  0
  -28.1062  -36.2636   24.6284 H   0  0  0  0  0  0
  -27.2274  -37.1453   25.8852 H   0  0  0  0  0  0
  -20.9282  -29.8816   21.6953 H   0  0  0  0  0  0
  -26.0178  -38.2871   24.1492 H   0  0  0  0  0  0
  -29.9015  -20.1898   22.4337 H   0  0  0  0  0  0
  -30.0749  -17.7649   21.9237 H   0  0  0  0  0  0
  -30.0959  -21.8759   20.6451 H   0  0  0  0  0  0
  -30.5281  -18.7175   17.7358 H   0  0  0  0  0  0
  -29.9297  -21.2373   15.9503 H   0  0  0  0  0  0
  -29.0190  -20.1076   16.8946 H   0  0  0  0  0  0
  -27.3702  -21.7402   16.3450 H   0  0  0  0  0  0
  -28.5231  -23.0517   16.4635 H   0  0  0  0  0  0
  -29.2052  -25.1267   21.1541 H   0  0  0  0  0  0
  -27.7904  -25.7614   21.9559 H   0  0  0  0  0  0
  -27.4778  -24.4417   19.2716 H   0  0  0  0  0  0
  -26.3006  -24.5409   20.5642 H   0  0  0  0  0  0
  -26.1440  -21.2744   18.4807 H   0  0  0  0  0  0
  -27.6293  -20.5486   19.0106 H   0  0  0  0  0  0
  -26.9432  -21.1962   21.1052 H   0  0  0  0  0  0
  -25.8053  -22.3618   20.5113 H   0  0  0  0  0  0
  -30.2588  -22.3197   18.3427 H   0  0  0  0  0  0
  -29.2399  -15.7806   20.7233 H   0  0  0  0  0  0
  1 25  1  0  0  0
  1 30  2  0  0  0
  1 85  1  0  0  0
  2  3  1  0  0  0
  2 25  1  0  0  0
  2 89  1  0  0  0
  2 90  1  0  0  0
  3  4  1  0  0  0
  3 91  1  0  0  0
  3 92  1  0  0  0
  4  5  1  0  0  0
  4 93  1  0  0  0
  4 94  1  0  0  0
  5  6  1  0  0  0
  5 26  1  0  0  0
  5 95  1  0  0  0
  6 25  1  0  0  0
  6 96  1  0  0  0
  6 97  1  0  0  0
  7  8  2  0  0  0
  7 26  1  0  0  0
  7 29  1  0  0  0
  8  9  1  0  0  0
  8 22  1  0  0  0
  9 10  1  0  0  0
  9 27  2  0  0  0
 10 11  2  0  0  0
 10 15  1  0  0  0
 11 12  1  0  0  0
 11 98  1  0  0  0
 12 13  2  0  0  0
 12 99  1  0  0  0
 13 14  1  0  0  0
 13 31  1  0  0  0
 14 15  2  0  0  0
 14100  1  0  0  0
 15101  1  0  0  0
 16 17  2  0  0  0
 16 21  1  0  0  0
 16 31  1  0  0  0
 17 18  1  0  0  0
 17102  1  0  0  0
 18 19  2  0  0  0
 18103  1  0  0  0
 19 20  1  0  0  0
 19 24  1  0  0  0
 20 21  2  0  0  0
 20104  1  0  0  0
 21 23  1  0  0  0
 22 28  1  0  0  0
 22 32  2  0  0  0
 26 27  1  0  0  0
 28105  1  0  0  0
 28106  1  0  0  0
 29107  1  0  0  0
 29108  1  0  0  0
 33 34  1  0  0  0
 33 66  1  0  0  0
 33 70  2  0  0  0
 34 36  1  0  0  0
 34 59  1  0  0  0
 34109  1  0  0  0
 35 44  2  0  0  0
 35 45  1  0  0  0
 35 68  1  0  0  0
 36 56  1  0  0  0
 36110  1  0  0  0
 37 39  1  0  0  0
 37 47  1  0  0  0
 37 66  1  0  0  0
 37111  1  0  0  0
 38 43  2  0  0  0
 38 46  1  0  0  0
 38 47  1  0  0  0
 39 64  1  0  0  0
 39 67  2  0  0  0
 40 52  1  0  0  0
 40 53  2  0  0  0
 40 58  1  0  0  0
 41112  1  0  0  0
 41113  1  0  0  0
 41114  1  0  0  0
 41 48  1  0  0  0
 42 43  1  0  0  0
 42 66  1  0  0  0
 42115  1  0  0  0
 42116  1  0  0  0
 43 44  1  0  0  0
 44117  1  0  0  0
 45 46  2  0  0  0
 45118  1  0  0  0
 46119  1  0  0  0
 47120  1  0  0  0
 47121  1  0  0  0
 48 56  1  0  0  0
 48 65  1  0  0  0
 48122  1  0  0  0
 49 50  1  0  0  0
 49 53  1  0  0  0
 49 64  1  0  0  0
 49123  1  0  0  0
 50 51  1  0  0  0
 50124  1  0  0  0
 50125  1  0  0  0
 51 52  1  0  0  0
 51126  1  0  0  0
 51127  1  0  0  0
 52128  1  0  0  0
 52129  1  0  0  0
 53 54  1  0  0  0
 54 55  2  0  0  0
 54130  1  0  0  0
 55 57  1  0  0  0
 55131  1  0  0  0
 56 69  2  0  0  0
 57 58  2  0  0  0
 57132  1  0  0  0
 58133  1  0  0  0
 59 60  1  0  0  0
 59 61  1  0  0  0
 59 62  1  0  0  0
 60134  1  0  0  0
 60135  1  0  0  0
 60136  1  0  0  0
 61137  1  0  0  0
 61138  1  0  0  0
 61139  1  0  0  0
 62140  1  0  0  0
 62141  1  0  0  0
 62142  1  0  0  0
 63 65  1  0  0  0
 63143  1  0  0  0
 63144  1  0  0  0
 63145  1  0  0  0
 64146  1  0  0  0
 65147  1  0  0  0
 68 80  1  0  0  0
 71 72  2  0  0  0
 71 73  1  0  0  0
 71148  1  0  0  0
 72 75  1  0  0  0
 72149  1  0  0  0
 73 76  2  0  0  0
 73150  1  0  0  0
 74 75  2  0  0  0
 74 76  1  0  0  0
 74151  1  0  0  0
 75 77  1  0  0  0
 76 84  1  0  0  0
 77 85  1  0  0  0
 77 86  2  0  0  0
 78 79  1  0  0  0
 78 84  1  0  0  0
 78152  1  0  0  0
 78153  1  0  0  0
 79 87  1  0  0  0
 79154  1  0  0  0
 79155  1  0  0  0
 80 81  1  0  0  0
 80156  1  0  0  0
 80157  1  0  0  0
 81 88  1  0  0  0
 81158  1  0  0  0
 81159  1  0  0  0
 82 83  1  0  0  0
 82 87  1  0  0  0
 82160  1  0  0  0
 82161  1  0  0  0
 83 88  1  0  0  0
 83162  1  0  0  0
 83163  1  0  0  0
 84164  1  0  0  0
 85165  1  0  0  0
M  ISO  4   1 100  68 101  80 101  85 100
M  END
> <chiral flag>
0

> <version>
0

> <s_m_source_file>
/data/baiqing/PycharmProjects/Reinvent-master-3.2/result/LINK_invent/BTK/process_docking_weight1_custom_product_contain_oxygen_bond_distance_aromatic_linkinvent_7_9_3/rearranged_h_0000.sdf

> <i_m_source_file_index>
38

> <r_mmod_Potential_Energy-OPLS-2005>
-15.7242670059204

> <r_mmod_Stretch_Energy-OPLS-2005>
35.4045524597168

> <r_mmod_Bend_Energy-OPLS-2005>
104.291557312012

> <r_mmod_Torsional_Energy-OPLS-2005>
337.375427246094

> <r_mmod_Improper_Torsional_Energy-OPLS-2005>
14.5842618942261

> <r_mmod_Van_der_Waal_Energy-OPLS-2005>
176.986389160156

> <r_mmod_Electrostatic_Energy-OPLS-2005>
-475.503723144531

> <r_mmod_Solvation_Energy-OPLS-2005>
-246.700698852539

> <b_mmod_Minimization_Converged-OPLS-2005>
0

> <r_mmod_RMS_Derivative-OPLS-2005>
5.02451801300049

$$$$
38
                    3D
 Structure written by MMmdl.
164171  0  0  1  0            999 V2000
  -30.6914  -14.4190   20.6279 C   0  0  0  0  0  0
  -30.4320  -12.3021   19.4106 C   0  0  0  0  0  0
  -29.5021  -12.5851   18.2138 C   0  0  0  0  0  0
  -28.0217  -12.4322   18.6116 C   0  0  0  0  0  0
  -27.6822  -13.2018   19.9165 C   0  0  2  0  0  0
  -28.7205  -12.9196   21.0296 C   0  0  0  0  0  0
  -25.2700  -13.8130   20.5650 C   0  0  0  0  0  0
  -24.1930  -13.0449   20.9093 C   0  0  0  0  0  0
  -24.6449  -11.6898   20.8742 C   0  0  0  0  0  0
  -23.9072  -10.4334   21.0431 C   0  0  0  0  0  0
  -24.3627   -9.4252   21.9219 C   0  0  0  0  0  0
  -23.6287   -8.2290   22.0798 C   0  0  0  0  0  0
  -22.4261   -8.0329   21.3580 C   0  0  0  0  0  0
  -21.9908   -9.0289   20.4645 C   0  0  0  0  0  0
  -22.7243  -10.2166   20.3063 C   0  0  0  0  0  0
  -21.6828   -6.0783   22.5276 C   0  0  0  0  0  0
  -21.4018   -6.5670   23.8232 C   0  0  0  0  0  0
  -21.3667   -5.6813   24.9171 C   0  0  0  0  0  0
  -21.6037   -4.3078   24.7208 C   0  0  0  0  0  0
  -21.8822   -3.8173   23.4329 C   0  0  0  0  0  0
  -21.9173   -4.7012   22.3387 C   0  0  0  0  0  0
  -22.7970  -13.5248   21.1771 C   0  0  0  0  0  0
  -22.1645   -4.2225   21.0956 F   0  0  0  0  0  0
  -21.5617   -3.4571   25.7746 F   0  0  0  0  0  0
  -30.0610  -13.2259   20.4941 N   0  0  0  0  0  0
  -26.3158  -12.9277   20.3525 N   0  0  0  0  0  0
  -25.9394  -11.6455   20.5814 N   0  0  0  0  0  0
  -22.0586  -12.8306   22.0330 N   0  0  0  0  0  0
  -25.4478  -15.1871   20.4124 N   0  0  0  0  0  0
  -31.7497  -14.6894   20.0547 O   0  0  0  0  0  0
  -21.6592   -6.8944   21.4268 O   0  0  0  0  0  0
  -22.3654  -14.5556   20.6580 O   0  0  0  0  0  0
  -24.6084  -31.8750   23.2160 C   0  0  0  0  0  0
  -25.9025  -32.4867   23.8413 C   0  0  1  0  0  0
  -27.2194  -27.4769   20.0783 C   0  0  0  0  0  0
  -25.5934  -33.8665   24.2347 N   0  0  0  0  0  0
  -23.3895  -30.4994   21.5566 C   0  0  2  0  0  0
  -24.8296  -28.9695   20.1192 C   0  0  0  0  0  0
  -22.7356  -29.4689   22.5037 C   0  0  0  0  0  0
  -18.0247  -28.1371   22.8484 C   0  0  0  0  0  0
  -24.1497  -36.7340   23.2617 C   0  0  0  0  0  0
  -25.9109  -30.8527   21.3583 C   0  0  0  0  0  0
  -25.9870  -29.4876   20.7099 C   0  0  0  0  0  0
  -27.1850  -28.7471   20.6984 C   0  0  0  0  0  0
  -26.0427  -26.9594   19.5013 C   0  0  0  0  0  0
  -24.8462  -27.6982   19.5167 C   0  0  0  0  0  0
  -23.5943  -29.8365   20.1671 C   0  0  0  0  0  0
  -25.4122  -36.3149   24.0321 C   0  0  1  0  0  0
  -20.5823  -28.3639   23.1349 C   0  0  2  0  0  0
  -20.6755  -26.9396   22.5417 C   0  0  0  0  0  0
  -19.5741  -26.6371   21.5213 C   0  0  0  0  0  0
  -18.1907  -26.7919   22.1601 C   0  0  0  0  0  0
  -19.1492  -28.8826   23.2901 C   0  0  0  0  0  0
  -18.9438  -30.1438   23.8896 C   0  0  0  0  0  0
  -17.6451  -30.6594   24.0553 C   0  0  0  0  0  0
  -25.9059  -34.9520   23.5120 C   0  0  0  0  0  0
  -16.5339  -29.9104   23.6316 C   0  0  0  0  0  0
  -16.7242  -28.6519   23.0339 C   0  0  0  0  0  0
  -26.4448  -31.6628   25.0723 C   0  0  0  0  0  0
  -25.3729  -31.3741   26.1476 C   0  0  0  0  0  0
  -27.0238  -30.3072   24.6052 C   0  0  0  0  0  0
  -27.6045  -32.4297   25.7511 C   0  0  0  0  0  0
  -27.5613  -37.1795   24.8423 C   0  0  0  0  0  0
  -21.4100  -29.3033   22.3790 N   0  0  0  0  0  0
  -26.4291  -37.3855   23.9435 N   0  0  0  0  0  0
  -24.6551  -31.0883   22.1038 N   0  0  0  0  0  0
  -23.4165  -28.8219   23.3035 O   0  0  0  0  0  0
  -28.3410  -26.6947   19.9974 O   0  0  0  0  0  0
  -26.5605  -34.8948   22.4667 O   0  0  0  0  0  0
  -23.5310  -32.1492   23.7605 O   0  0  0  0  0  0
  -30.9721  -18.8112   17.2508 C   0  0  0  0  0  0
  -31.1040  -23.1710   19.1745 C   0  0  0  0  0  0
  -29.7757  -16.7228   20.9202 C   0  0  0  0  0  0
  -31.8280  -20.0894   17.2530 C   0  0  0  0  0  0
  -32.0049  -22.1708   18.4270 C   0  0  0  0  0  0
  -31.2982  -17.8653   18.4213 C   0  0  0  0  0  0
  -31.8666  -24.4036   19.6806 C   0  0  0  0  0  0
  -31.0395  -17.5931   20.7772 C   0  0  0  0  0  0
  -29.5999  -27.3422   20.0110 C   0  0  0  0  0  0
  -30.5716  -26.3816   19.3189 C   0  0  0  0  0  0
  -29.9944  -15.3319   21.3227 N   0  0  0  0  0  0
  -31.2403  -21.0013   18.1750 O   0  0  0  0  0  0
  -30.9017  -18.4548   19.6565 O   0  0  0  0  0  0
  -30.9679  -25.3633   20.2347 O   0  0  0  0  0  0
  -31.4740  -12.4274   19.1077 H   0  0  0  0  0  0
  -30.3299  -11.2692   19.7424 H   0  0  0  0  0  0
  -29.7562  -11.9353   17.3736 H   0  0  0  0  0  0
  -29.6735  -13.6088   17.8709 H   0  0  0  0  0  0
  -27.8018  -11.3685   18.7173 H   0  0  0  0  0  0
  -27.3859  -12.7915   17.8019 H   0  0  0  0  0  0
  -27.7487  -14.2657   19.6935 H   0  0  0  0  0  0
  -28.6910  -11.8765   21.3344 H   0  0  0  0  0  0
  -28.4819  -13.4746   21.9384 H   0  0  0  0  0  0
  -25.2803   -9.5740   22.4748 H   0  0  0  0  0  0
  -24.0027   -7.4689   22.7526 H   0  0  0  0  0  0
  -21.0859   -8.8788   19.8930 H   0  0  0  0  0  0
  -22.3720  -10.9709   19.6167 H   0  0  0  0  0  0
  -21.2021   -7.6174   23.9740 H   0  0  0  0  0  0
  -21.1466   -6.0549   25.9078 H   0  0  0  0  0  0
  -22.0572   -2.7635   23.2761 H   0  0  0  0  0  0
  -22.4072  -11.9873   22.4665 H   0  0  0  0  0  0
  -21.1202  -13.1434   22.2441 H   0  0  0  0  0  0
  -24.6734  -15.8333   20.5189 H   0  0  0  0  0  0
  -26.3057  -15.6408   20.1285 H   0  0  0  0  0  0
  -26.7089  -32.5592   23.1182 H   0  0  0  0  0  0
  -25.0136  -33.9858   25.0520 H   0  0  0  0  0  0
  -22.6730  -31.3122   21.4223 H   0  0  0  0  0  0
  -23.3824  -35.9594   23.3163 H   0  0  0  0  0  0
  -24.3614  -36.9101   22.2053 H   0  0  0  0  0  0
  -23.7134  -37.6457   23.6715 H   0  0  0  0  0  0
  -25.9995  -31.6218   20.5901 H   0  0  0  0  0  0
  -26.8064  -30.9156   21.9638 H   0  0  0  0  0  0
  -28.0679  -29.1568   21.1650 H   0  0  0  0  0  0
  -26.0577  -25.9897   19.0236 H   0  0  0  0  0  0
  -23.9519  -27.2908   19.0641 H   0  0  0  0  0  0
  -23.7108  -30.6139   19.4115 H   0  0  0  0  0  0
  -22.7158  -29.2643   19.8639 H   0  0  0  0  0  0
  -25.1278  -36.2019   25.0808 H   0  0  0  0  0  0
  -20.9866  -28.3195   24.1489 H   0  0  0  0  0  0
  -20.5698  -26.2255   23.3585 H   0  0  0  0  0  0
  -21.6635  -26.7484   22.1205 H   0  0  0  0  0  0
  -19.6920  -25.6277   21.1266 H   0  0  0  0  0  0
  -19.6699  -27.3166   20.6733 H   0  0  0  0  0  0
  -17.4191  -26.6669   21.3987 H   0  0  0  0  0  0
  -18.0284  -26.0047   22.8977 H   0  0  0  0  0  0
  -19.7925  -30.7230   24.2281 H   0  0  0  0  0  0
  -17.5027  -31.6290   24.5129 H   0  0  0  0  0  0
  -15.5348  -30.3023   23.7638 H   0  0  0  0  0  0
  -15.8634  -28.0856   22.7042 H   0  0  0  0  0  0
  -24.5890  -30.7091   25.7826 H   0  0  0  0  0  0
  -24.8930  -32.2910   26.4909 H   0  0  0  0  0  0
  -25.8088  -30.8920   27.0236 H   0  0  0  0  0  0
  -26.2762  -29.6901   24.1051 H   0  0  0  0  0  0
  -27.3952  -29.7226   25.4482 H   0  0  0  0  0  0
  -27.8621  -30.4381   23.9205 H   0  0  0  0  0  0
  -27.2717  -33.3642   26.2018 H   0  0  0  0  0  0
  -28.3926  -32.6753   25.0393 H   0  0  0  0  0  0
  -28.0594  -31.8430   26.5496 H   0  0  0  0  0  0
  -28.2515  -38.0213   24.7715 H   0  0  0  0  0  0
  -28.1235  -36.2773   24.5968 H   0  0  0  0  0  0
  -27.2357  -37.1107   25.8816 H   0  0  0  0  0  0
  -20.9258  -29.8824   21.7074 H   0  0  0  0  0  0
  -26.0188  -38.2901   24.1589 H   0  0  0  0  0  0
  -31.1435  -18.2721   16.3189 H   0  0  0  0  0  0
  -29.9141  -19.0720   17.2417 H   0  0  0  0  0  0
  -30.6334  -22.6789   20.0279 H   0  0  0  0  0  0
  -30.2941  -23.4809   18.5125 H   0  0  0  0  0  0
  -29.1883  -16.7049   19.9971 H   0  0  0  0  0  0
  -29.1302  -17.1951   21.6640 H   0  0  0  0  0  0
  -31.8300  -20.5410   16.2604 H   0  0  0  0  0  0
  -32.8684  -19.8661   17.5046 H   0  0  0  0  0  0
  -32.8841  -21.9050   19.0191 H   0  0  0  0  0  0
  -32.3531  -22.6179   17.4934 H   0  0  0  0  0  0
  -32.3723  -17.6736   18.4390 H   0  0  0  0  0  0
  -30.7997  -16.9047   18.2692 H   0  0  0  0  0  0
  -32.4919  -24.8392   18.8984 H   0  0  0  0  0  0
  -32.5419  -24.0896   20.4785 H   0  0  0  0  0  0
  -31.9656  -17.0252   20.7232 H   0  0  0  0  0  0
  -31.1357  -18.2214   21.6628 H   0  0  0  0  0  0
  -29.5504  -28.2794   19.4505 H   0  0  0  0  0  0
  -29.9079  -27.5774   21.0309 H   0  0  0  0  0  0
  -31.4497  -26.9336   18.9814 H   0  0  0  0  0  0
  -30.0939  -25.9619   18.4304 H   0  0  0  0  0  0
  -29.2353  -14.9484   21.8665 H   0  0  0  0  0  0
  1 25  1  0  0  0
  1 30  2  0  0  0
  1 81  1  0  0  0
  2  3  1  0  0  0
  2 25  1  0  0  0
  2 85  1  0  0  0
  2 86  1  0  0  0
  3  4  1  0  0  0
  3 87  1  0  0  0
  3 88  1  0  0  0
  4  5  1  0  0  0
  4 89  1  0  0  0
  4 90  1  0  0  0
  5  6  1  0  0  0
  5 26  1  0  0  0
  5 91  1  0  0  0
  6 25  1  0  0  0
  6 92  1  0  0  0
  6 93  1  0  0  0
  7  8  2  0  0  0
  7 26  1  0  0  0
  7 29  1  0  0  0
  8  9  1  0  0  0
  8 22  1  0  0  0
  9 10  1  0  0  0
  9 27  2  0  0  0
 10 11  2  0  0  0
 10 15  1  0  0  0
 11 12  1  0  0  0
 11 94  1  0  0  0
 12 13  2  0  0  0
 12 95  1  0  0  0
 13 14  1  0  0  0
 13 31  1  0  0  0
 14 15  2  0  0  0
 14 96  1  0  0  0
 15 97  1  0  0  0
 16 17  2  0  0  0
 16 21  1  0  0  0
 16 31  1  0  0  0
 17 18  1  0  0  0
 17 98  1  0  0  0
 18 19  2  0  0  0
 18 99  1  0  0  0
 19 20  1  0  0  0
 19 24  1  0  0  0
 20 21  2  0  0  0
 20100  1  0  0  0
 21 23  1  0  0  0
 22 28  1  0  0  0
 22 32  2  0  0  0
 26 27  1  0  0  0
 28101  1  0  0  0
 28102  1  0  0  0
 29103  1  0  0  0
 29104  1  0  0  0
 33 34  1  0  0  0
 33 66  1  0  0  0
 33 70  2  0  0  0
 34 36  1  0  0  0
 34 59  1  0  0  0
 34105  1  0  0  0
 35 44  2  0  0  0
 35 45  1  0  0  0
 35 68  1  0  0  0
 36 56  1  0  0  0
 36106  1  0  0  0
 37 39  1  0  0  0
 37 47  1  0  0  0
 37 66  1  0  0  0
 37107  1  0  0  0
 38 43  2  0  0  0
 38 46  1  0  0  0
 38 47  1  0  0  0
 39 64  1  0  0  0
 39 67  2  0  0  0
 40 52  1  0  0  0
 40 53  2  0  0  0
 40 58  1  0  0  0
 41108  1  0  0  0
 41109  1  0  0  0
 41110  1  0  0  0
 41 48  1  0  0  0
 42 43  1  0  0  0
 42 66  1  0  0  0
 42111  1  0  0  0
 42112  1  0  0  0
 43 44  1  0  0  0
 44113  1  0  0  0
 45 46  2  0  0  0
 45114  1  0  0  0
 46115  1  0  0  0
 47116  1  0  0  0
 47117  1  0  0  0
 48 56  1  0  0  0
 48 65  1  0  0  0
 48118  1  0  0  0
 49 50  1  0  0  0
 49 53  1  0  0  0
 49 64  1  0  0  0
 49119  1  0  0  0
 50 51  1  0  0  0
 50120  1  0  0  0
 50121  1  0  0  0
 51 52  1  0  0  0
 51122  1  0  0  0
 51123  1  0  0  0
 52124  1  0  0  0
 52125  1  0  0  0
 53 54  1  0  0  0
 54 55  2  0  0  0
 54126  1  0  0  0
 55 57  1  0  0  0
 55127  1  0  0  0
 56 69  2  0  0  0
 57 58  2  0  0  0
 57128  1  0  0  0
 58129  1  0  0  0
 59 60  1  0  0  0
 59 61  1  0  0  0
 59 62  1  0  0  0
 60130  1  0  0  0
 60131  1  0  0  0
 60132  1  0  0  0
 61133  1  0  0  0
 61134  1  0  0  0
 61135  1  0  0  0
 62136  1  0  0  0
 62137  1  0  0  0
 62138  1  0  0  0
 63 65  1  0  0  0
 63139  1  0  0  0
 63140  1  0  0  0
 63141  1  0  0  0
 64142  1  0  0  0
 65143  1  0  0  0
 68 79  1  0  0  0
 71 74  1  0  0  0
 71 76  1  0  0  0
 71144  1  0  0  0
 71145  1  0  0  0
 72 75  1  0  0  0
 72 77  1  0  0  0
 72146  1  0  0  0
 72147  1  0  0  0
 73 78  1  0  0  0
 73 81  1  0  0  0
 73148  1  0  0  0
 73149  1  0  0  0
 74 82  1  0  0  0
 74150  1  0  0  0
 74151  1  0  0  0
 75 82  1  0  0  0
 75152  1  0  0  0
 75153  1  0  0  0
 76 83  1  0  0  0
 76154  1  0  0  0
 76155  1  0  0  0
 77 84  1  0  0  0
 77156  1  0  0  0
 77157  1  0  0  0
 78 83  1  0  0  0
 78158  1  0  0  0
 78159  1  0  0  0
 79 80  1  0  0  0
 79160  1  0  0  0
 79161  1  0  0  0
 80 84  1  0  0  0
 80162  1  0  0  0
 80163  1  0  0  0
 81164  1  0  0  0
M  ISO  4   1 100  68 101  79 101  81 100
M  END
> <chiral flag>
0

> <version>
0

> <s_m_source_file>
/data/baiqing/PycharmProjects/Reinvent-master-3.2/result/LINK_invent/BTK/process_docking_weight1_custom_product_contain_oxygen_bond_distance_aromatic_linkinvent_7_9_3/rearranged_h_0000.sdf

> <i_m_source_file_index>
39

> <r_mmod_Potential_Energy-OPLS-2005>
-103.396980285645

> <r_mmod_Stretch_Energy-OPLS-2005>
30.9520378112793

> <r_mmod_Bend_Energy-OPLS-2005>
100.353317260742

> <r_mmod_Torsional_Energy-OPLS-2005>
231.794784545898

> <r_mmod_Improper_Torsional_Energy-OPLS-2005>
5.68593740463257

> <r_mmod_Van_der_Waal_Energy-OPLS-2005>
137.938537597656

> <r_mmod_Electrostatic_Energy-OPLS-2005>
-386.843109130859

> <r_mmod_Solvation_Energy-OPLS-2005>
-232.796035766602

> <b_mmod_Minimization_Converged-OPLS-2005>
0

> <r_mmod_RMS_Derivative-OPLS-2005>
6.25827074050903

$$$$
39
                    3D
 Structure written by MMmdl.
151158  0  0  1  0            999 V2000
  -30.6553  -14.5615   20.5164 C   0  0  0  0  0  0
  -30.4343  -12.3448   19.4472 C   0  0  0  0  0  0
  -29.5058  -12.5000   18.2222 C   0  0  0  0  0  0
  -28.0269  -12.3522   18.6318 C   0  0  0  0  0  0
  -27.6599  -13.2100   19.8722 C   0  0  2  0  0  0
  -28.7030  -13.0341   21.0011 C   0  0  0  0  0  0
  -25.2584  -13.8162   20.5687 C   0  0  0  0  0  0
  -24.1839  -13.0436   20.9184 C   0  0  0  0  0  0
  -24.6399  -11.6904   20.8735 C   0  0  0  0  0  0
  -23.9065  -10.4291   21.0404 C   0  0  0  0  0  0
  -24.3613   -9.4209   21.9185 C   0  0  0  0  0  0
  -23.6290   -8.2244   22.0754 C   0  0  0  0  0  0
  -22.4274   -8.0280   21.3544 C   0  0  0  0  0  0
  -21.9908   -9.0255   20.4647 C   0  0  0  0  0  0
  -22.7234  -10.2136   20.3058 C   0  0  0  0  0  0
  -21.6852   -6.0737   22.5281 C   0  0  0  0  0  0
  -21.4013   -6.5642   23.8214 C   0  0  0  0  0  0
  -21.3659   -5.6793   24.9176 C   0  0  0  0  0  0
  -21.6042   -4.3056   24.7226 C   0  0  0  0  0  0
  -21.8819   -3.8149   23.4347 C   0  0  0  0  0  0
  -21.9193   -4.6966   22.3403 C   0  0  0  0  0  0
  -22.7864  -13.5235   21.1847 C   0  0  0  0  0  0
  -22.1662   -4.2151   21.0980 F   0  0  0  0  0  0
  -21.5628   -3.4539   25.7739 F   0  0  0  0  0  0
  -30.0293  -13.3503   20.4461 N   0  0  0  0  0  0
  -26.3021  -12.9338   20.3357 N   0  0  0  0  0  0
  -25.9330  -11.6495   20.5769 N   0  0  0  0  0  0
  -22.0500  -12.8230   22.0403 N   0  0  0  0  0  0
  -25.4306  -15.1882   20.4098 N   0  0  0  0  0  0
  -31.7943  -14.7459   20.0817 O   0  0  0  0  0  0
  -21.6637   -6.8878   21.4242 O   0  0  0  0  0  0
  -22.3554  -14.5544   20.6697 O   0  0  0  0  0  0
  -24.6214  -31.8639   23.2075 C   0  0  0  0  0  0
  -25.9085  -32.4801   23.8384 C   0  0  1  0  0  0
  -27.2255  -27.3712   20.1033 C   0  0  0  0  0  0
  -25.5919  -33.8602   24.2308 N   0  0  0  0  0  0
  -23.4114  -30.4896   21.5492 C   0  0  2  0  0  0
  -24.8565  -28.9542   20.1093 C   0  0  0  0  0  0
  -22.7445  -29.4644   22.4958 C   0  0  0  0  0  0
  -18.0278  -28.1380   22.8491 C   0  0  0  0  0  0
  -24.1487  -36.7311   23.2637 C   0  0  0  0  0  0
  -25.9475  -30.8102   21.3710 C   0  0  0  0  0  0
  -26.0215  -29.4415   20.7145 C   0  0  0  0  0  0
  -27.2071  -28.6586   20.7081 C   0  0  0  0  0  0
  -26.0402  -26.9304   19.4662 C   0  0  0  0  0  0
  -24.8648  -27.7015   19.4786 C   0  0  0  0  0  0
  -23.6224  -29.8285   20.1616 C   0  0  0  0  0  0
  -25.4106  -36.3097   24.0333 C   0  0  1  0  0  0
  -20.5876  -28.3678   23.1297 C   0  0  2  0  0  0
  -20.6771  -26.9407   22.5414 C   0  0  0  0  0  0
  -19.5748  -26.6385   21.5213 C   0  0  0  0  0  0
  -18.1926  -26.7925   22.1623 C   0  0  0  0  0  0
  -19.1531  -28.8844   23.2893 C   0  0  0  0  0  0
  -18.9454  -30.1447   23.8907 C   0  0  0  0  0  0
  -17.6457  -30.6586   24.0563 C   0  0  0  0  0  0
  -25.9042  -34.9465   23.5117 C   0  0  0  0  0  0
  -16.5347  -29.9089   23.6325 C   0  0  0  0  0  0
  -16.7266  -28.6504   23.0347 C   0  0  0  0  0  0
  -26.4492  -31.6591   25.0732 C   0  0  0  0  0  0
  -25.3750  -31.3715   26.1476 C   0  0  0  0  0  0
  -27.0327  -30.3021   24.6144 C   0  0  0  0  0  0
  -27.6054  -32.4318   25.7506 C   0  0  0  0  0  0
  -27.5575  -37.1810   24.8463 C   0  0  0  0  0  0
  -21.4166  -29.3041   22.3700 N   0  0  0  0  0  0
  -26.4286  -37.3783   23.9409 N   0  0  0  0  0  0
  -24.6785  -31.0701   22.1001 N   0  0  0  0  0  0
  -23.4196  -28.8175   23.3006 O   0  0  0  0  0  0
  -28.3648  -26.5671   20.1596 O   0  0  0  0  0  0
  -26.5600  -34.8920   22.4678 O   0  0  0  0  0  0
  -23.5393  -32.1416   23.7435 O   0  0  0  0  0  0
  -29.9427  -17.0084   20.3659 C   0  0  0  0  0  0
  -30.2398  -18.1042   21.4380 C   0  0  0  0  0  0
  -28.2075  -25.1343   19.9110 C   0  0  0  0  0  0
  -29.2662  -24.1793   20.5573 C   0  0  0  0  0  0
  -29.9175  -20.3642   20.4052 C   0  0  0  0  0  0
  -29.8174  -21.8260   20.9840 C   0  0  0  0  0  0
  -29.8654  -15.6054   20.8638 N   0  0  0  0  0  0
  -29.4912  -19.3441   21.3363 O   0  0  0  0  0  0
  -29.0968  -22.7873   20.1739 O   0  0  0  0  0  0
  -31.4781  -12.4560   19.1472 H   0  0  0  0  0  0
  -30.3514  -11.3425   19.8699 H   0  0  0  0  0  0
  -29.7587  -11.7587   17.4631 H   0  0  0  0  0  0
  -29.6633  -13.4758   17.7598 H   0  0  0  0  0  0
  -27.8494  -11.2980   18.8472 H   0  0  0  0  0  0
  -27.3765  -12.6041   17.7933 H   0  0  0  0  0  0
  -27.6900  -14.2503   19.5482 H   0  0  0  0  0  0
  -28.6939  -12.0094   21.3754 H   0  0  0  0  0  0
  -28.4608  -13.6637   21.8586 H   0  0  0  0  0  0
  -25.2760   -9.5685   22.4755 H   0  0  0  0  0  0
  -24.0002   -7.4637   22.7472 H   0  0  0  0  0  0
  -21.0840   -8.8774   19.8954 H   0  0  0  0  0  0
  -22.3696  -10.9673   19.6164 H   0  0  0  0  0  0
  -21.2005   -7.6149   23.9717 H   0  0  0  0  0  0
  -21.1480   -6.0523   25.9077 H   0  0  0  0  0  0
  -22.0598   -2.7611   23.2847 H   0  0  0  0  0  0
  -22.4113  -11.9886   22.4785 H   0  0  0  0  0  0
  -21.1121  -13.1263   22.2609 H   0  0  0  0  0  0
  -24.6640  -15.8434   20.5187 H   0  0  0  0  0  0
  -26.2817  -15.6270   20.0812 H   0  0  0  0  0  0
  -26.7157  -32.5488   23.1142 H   0  0  0  0  0  0
  -25.0089  -33.9756   25.0468 H   0  0  0  0  0  0
  -22.7027  -31.3087   21.4110 H   0  0  0  0  0  0
  -23.3738  -35.9655   23.3305 H   0  0  0  0  0  0
  -24.3581  -36.8924   22.2051 H   0  0  0  0  0  0
  -23.7254  -37.6523   23.6652 H   0  0  0  0  0  0
  -26.0704  -31.5737   20.6015 H   0  0  0  0  0  0
  -26.8328  -30.8610   21.9934 H   0  0  0  0  0  0
  -28.1002  -29.0266   21.1935 H   0  0  0  0  0  0
  -25.9945  -25.9816   18.9532 H   0  0  0  0  0  0
  -23.9737  -27.3260   18.9946 H   0  0  0  0  0  0
  -23.7382  -30.6078   19.4073 H   0  0  0  0  0  0
  -22.7435  -29.2556   19.8597 H   0  0  0  0  0  0
  -25.1283  -36.1955   25.0825 H   0  0  0  0  0  0
  -20.9968  -28.3250   24.1416 H   0  0  0  0  0  0
  -20.5675  -26.2286   23.3609 H   0  0  0  0  0  0
  -21.6641  -26.7445   22.1203 H   0  0  0  0  0  0
  -19.6911  -25.6300   21.1234 H   0  0  0  0  0  0
  -19.6685  -27.3205   20.6752 H   0  0  0  0  0  0
  -17.4196  -26.6671   21.4025 H   0  0  0  0  0  0
  -18.0322  -26.0066   22.9016 H   0  0  0  0  0  0
  -19.7933  -30.7257   24.2281 H   0  0  0  0  0  0
  -17.5015  -31.6265   24.5168 H   0  0  0  0  0  0
  -15.5351  -30.2995   23.7644 H   0  0  0  0  0  0
  -15.8663  -28.0830   22.7056 H   0  0  0  0  0  0
  -24.5923  -30.7058   25.7824 H   0  0  0  0  0  0
  -24.8950  -32.2878   26.4917 H   0  0  0  0  0  0
  -25.8105  -30.8896   27.0238 H   0  0  0  0  0  0
  -26.2885  -29.6782   24.1174 H   0  0  0  0  0  0
  -27.4053  -29.7258   25.4624 H   0  0  0  0  0  0
  -27.8744  -30.4323   23.9335 H   0  0  0  0  0  0
  -27.2656  -33.3602   26.2106 H   0  0  0  0  0  0
  -28.3859  -32.6902   25.0339 H   0  0  0  0  0  0
  -28.0726  -31.8432   26.5410 H   0  0  0  0  0  0
  -28.2595  -38.0105   24.7496 H   0  0  0  0  0  0
  -28.1067  -36.2633   24.6297 H   0  0  0  0  0  0
  -27.2294  -37.1473   25.8868 H   0  0  0  0  0  0
  -20.9327  -29.8783   21.6941 H   0  0  0  0  0  0
  -26.0170  -38.2861   24.1406 H   0  0  0  0  0  0
  -30.6541  -17.0949   19.5428 H   0  0  0  0  0  0
  -28.9678  -17.2228   19.9266 H   0  0  0  0  0  0
  -31.3103  -18.3080   21.4926 H   0  0  0  0  0  0
  -29.9771  -17.6939   22.4136 H   0  0  0  0  0  0
  -27.2444  -24.7911   20.2910 H   0  0  0  0  0  0
  -28.1973  -24.9789   18.8314 H   0  0  0  0  0  0
  -29.1932  -24.2677   21.6418 H   0  0  0  0  0  0
  -30.2711  -24.5014   20.2815 H   0  0  0  0  0  0
  -30.9434  -20.1789   20.0829 H   0  0  0  0  0  0
  -29.3018  -20.2769   19.5094 H   0  0  0  0  0  0
  -30.8295  -22.1951   21.1586 H   0  0  0  0  0  0
  -29.3415  -21.7928   21.9649 H   0  0  0  0  0  0
  -28.9732  -15.3399   21.2544 H   0  0  0  0  0  0
  1 25  1  0  0  0
  1 30  2  0  0  0
  1 77  1  0  0  0
  2  3  1  0  0  0
  2 25  1  0  0  0
  2 80  1  0  0  0
  2 81  1  0  0  0
  3  4  1  0  0  0
  3 82  1  0  0  0
  3 83  1  0  0  0
  4  5  1  0  0  0
  4 84  1  0  0  0
  4 85  1  0  0  0
  5  6  1  0  0  0
  5 26  1  0  0  0
  5 86  1  0  0  0
  6 25  1  0  0  0
  6 87  1  0  0  0
  6 88  1  0  0  0
  7  8  2  0  0  0
  7 26  1  0  0  0
  7 29  1  0  0  0
  8  9  1  0  0  0
  8 22  1  0  0  0
  9 10  1  0  0  0
  9 27  2  0  0  0
 10 11  2  0  0  0
 10 15  1  0  0  0
 11 12  1  0  0  0
 11 89  1  0  0  0
 12 13  2  0  0  0
 12 90  1  0  0  0
 13 14  1  0  0  0
 13 31  1  0  0  0
 14 15  2  0  0  0
 14 91  1  0  0  0
 15 92  1  0  0  0
 16 17  2  0  0  0
 16 21  1  0  0  0
 16 31  1  0  0  0
 17 18  1  0  0  0
 17 93  1  0  0  0
 18 19  2  0  0  0
 18 94  1  0  0  0
 19 20  1  0  0  0
 19 24  1  0  0  0
 20 21  2  0  0  0
 20 95  1  0  0  0
 21 23  1  0  0  0
 22 28  1  0  0  0
 22 32  2  0  0  0
 26 27  1  0  0  0
 28 96  1  0  0  0
 28 97  1  0  0  0
 29 98  1  0  0  0
 29 99  1  0  0  0
 33 34  1  0  0  0
 33 66  1  0  0  0
 33 70  2  0  0  0
 34 36  1  0  0  0
 34 59  1  0  0  0
 34100  1  0  0  0
 35 44  2  0  0  0
 35 45  1  0  0  0
 35 68  1  0  0  0
 36 56  1  0  0  0
 36101  1  0  0  0
 37 39  1  0  0  0
 37 47  1  0  0  0
 37 66  1  0  0  0
 37102  1  0  0  0
 38 43  2  0  0  0
 38 46  1  0  0  0
 38 47  1  0  0  0
 39 64  1  0  0  0
 39 67  2  0  0  0
 40 52  1  0  0  0
 40 53  2  0  0  0
 40 58  1  0  0  0
 41103  1  0  0  0
 41104  1  0  0  0
 41105  1  0  0  0
 41 48  1  0  0  0
 42 43  1  0  0  0
 42 66  1  0  0  0
 42106  1  0  0  0
 42107  1  0  0  0
 43 44  1  0  0  0
 44108  1  0  0  0
 45 46  2  0  0  0
 45109  1  0  0  0
 46110  1  0  0  0
 47111  1  0  0  0
 47112  1  0  0  0
 48 56  1  0  0  0
 48 65  1  0  0  0
 48113  1  0  0  0
 49 50  1  0  0  0
 49 53  1  0  0  0
 49 64  1  0  0  0
 49114  1  0  0  0
 50 51  1  0  0  0
 50115  1  0  0  0
 50116  1  0  0  0
 51 52  1  0  0  0
 51117  1  0  0  0
 51118  1  0  0  0
 52119  1  0  0  0
 52120  1  0  0  0
 53 54  1  0  0  0
 54 55  2  0  0  0
 54121  1  0  0  0
 55 57  1  0  0  0
 55122  1  0  0  0
 56 69  2  0  0  0
 57 58  2  0  0  0
 57123  1  0  0  0
 58124  1  0  0  0
 59 60  1  0  0  0
 59 61  1  0  0  0
 59 62  1  0  0  0
 60125  1  0  0  0
 60126  1  0  0  0
 60127  1  0  0  0
 61128  1  0  0  0
 61129  1  0  0  0
 61130  1  0  0  0
 62131  1  0  0  0
 62132  1  0  0  0
 62133  1  0  0  0
 63 65  1  0  0  0
 63134  1  0  0  0
 63135  1  0  0  0
 63136  1  0  0  0
 64137  1  0  0  0
 65138  1  0  0  0
 68 73  1  0  0  0
 71 72  1  0  0  0
 71 77  1  0  0  0
 71139  1  0  0  0
 71140  1  0  0  0
 72 78  1  0  0  0
 72141  1  0  0  0
 72142  1  0  0  0
 73 74  1  0  0  0
 73143  1  0  0  0
 73144  1  0  0  0
 74 79  1  0  0  0
 74145  1  0  0  0
 74146  1  0  0  0
 75 76  1  0  0  0
 75 78  1  0  0  0
 75147  1  0  0  0
 75148  1  0  0  0
 76 79  1  0  0  0
 76149  1  0  0  0
 76150  1  0  0  0
 77151  1  0  0  0
M  ISO  4   1 100  68 101  73 101  77 100
M  END
> <chiral flag>
0

> <version>
0

> <s_m_source_file>
/data/baiqing/PycharmProjects/Reinvent-master-3.2/result/LINK_invent/BTK/process_docking_weight1_custom_product_contain_oxygen_bond_distance_aromatic_linkinvent_7_9_3/rearranged_h_0000.sdf

> <i_m_source_file_index>
40

> <r_mmod_Potential_Energy-OPLS-2005>
-33.6661491394043

> <r_mmod_Stretch_Energy-OPLS-2005>
54.1415176391602

> <r_mmod_Bend_Energy-OPLS-2005>
117.664672851562

> <r_mmod_Torsional_Energy-OPLS-2005>
224.785095214844

> <r_mmod_Improper_Torsional_Energy-OPLS-2005>
6.75608205795288

> <r_mmod_Van_der_Waal_Energy-OPLS-2005>
133.051956176758

> <r_mmod_Electrostatic_Energy-OPLS-2005>
-384.544891357422

> <r_mmod_Solvation_Energy-OPLS-2005>
-214.149185180664

> <b_mmod_Minimization_Converged-OPLS-2005>
0

> <r_mmod_RMS_Derivative-OPLS-2005>
0.78693014383316

$$$$
40
                    3D
 Structure written by MMmdl.
143150  0  0  1  0            999 V2000
  -30.4750  -15.2283   20.3665 C   0  0  0  0  0  0
  -30.4398  -12.7516   19.5400 C   0  0  0  0  0  0
  -29.5408  -12.5611   18.2921 C   0  0  0  0  0  0
  -28.0815  -12.3000   18.7074 C   0  0  0  0  0  0
  -27.6057  -13.2766   19.8128 C   0  0  2  0  0  0
  -28.6222  -13.4432   20.9556 C   0  0  0  0  0  0
  -25.2369  -13.8262   20.5718 C   0  0  0  0  0  0
  -24.1723  -13.0448   20.9229 C   0  0  0  0  0  0
  -24.6378  -11.6943   20.8734 C   0  0  0  0  0  0
  -23.9082  -10.4300   21.0397 C   0  0  0  0  0  0
  -24.3633   -9.4217   21.9178 C   0  0  0  0  0  0
  -23.6304   -8.2252   22.0753 C   0  0  0  0  0  0
  -22.4285   -8.0286   21.3545 C   0  0  0  0  0  0
  -21.9921   -9.0258   20.4646 C   0  0  0  0  0  0
  -22.7252  -10.2135   20.3051 C   0  0  0  0  0  0
  -21.6858   -6.0738   22.5279 C   0  0  0  0  0  0
  -21.4018   -6.5641   23.8212 C   0  0  0  0  0  0
  -21.3661   -5.6793   24.9173 C   0  0  0  0  0  0
  -21.6044   -4.3056   24.7224 C   0  0  0  0  0  0
  -21.8819   -3.8148   23.4346 C   0  0  0  0  0  0
  -21.9194   -4.6965   22.3402 C   0  0  0  0  0  0
  -22.7748  -13.5199   21.1902 C   0  0  0  0  0  0
  -22.1662   -4.2150   21.0980 F   0  0  0  0  0  0
  -21.5628   -3.4540   25.7737 F   0  0  0  0  0  0
  -29.8825  -13.8835   20.3540 N   0  0  0  0  0  0
  -26.2766  -12.9532   20.3120 N   0  0  0  0  0  0
  -25.9303  -11.6637   20.5657 N   0  0  0  0  0  0
  -22.0419  -12.8175   22.0462 N   0  0  0  0  0  0
  -25.4057  -15.2000   20.4226 N   0  0  0  0  0  0
  -31.6923  -15.2758   20.1555 O   0  0  0  0  0  0
  -21.6648   -6.8883   21.4242 O   0  0  0  0  0  0
  -22.3421  -14.5502   20.6753 O   0  0  0  0  0  0
  -24.6608  -31.8260   23.1719 C   0  0  0  0  0  0
  -25.9299  -32.4600   23.8178 C   0  0  1  0  0  0
  -27.2164  -26.9504   20.1918 C   0  0  0  0  0  0
  -25.5974  -33.8413   24.2083 N   0  0  0  0  0  0
  -23.4738  -30.4380   21.5212 C   0  0  2  0  0  0
  -24.9256  -28.8248   20.1185 C   0  0  0  0  0  0
  -22.7653  -29.4456   22.4796 C   0  0  0  0  0  0
  -18.0320  -28.1405   22.8470 C   0  0  0  0  0  0
  -24.1492  -36.7214   23.2647 C   0  0  0  0  0  0
  -26.0414  -30.6415   21.3969 C   0  0  0  0  0  0
  -26.1103  -29.2317   20.7457 C   0  0  0  0  0  0
  -27.2545  -28.3175   20.7516 C   0  0  0  0  0  0
  -26.0013  -26.6854   19.5237 C   0  0  0  0  0  0
  -24.8946  -27.5711   19.4870 C   0  0  0  0  0  0
  -23.7123  -29.7520   20.1484 C   0  0  0  0  0  0
  -25.4132  -36.2973   24.0299 C   0  0  1  0  0  0
  -20.5943  -28.3748   23.1196 C   0  0  2  0  0  0
  -20.6798  -26.9432   22.5402 C   0  0  0  0  0  0
  -19.5771  -26.6377   21.5215 C   0  0  0  0  0  0
  -18.1953  -26.7940   22.1623 C   0  0  0  0  0  0
  -19.1581  -28.8897   23.2820 C   0  0  0  0  0  0
  -18.9492  -30.1487   23.8855 C   0  0  0  0  0  0
  -17.6486  -30.6598   24.0555 C   0  0  0  0  0  0
  -25.9096  -34.9356   23.5013 C   0  0  0  0  0  0
  -16.5376  -29.9085   23.6342 C   0  0  0  0  0  0
  -16.7302  -28.6504   23.0365 C   0  0  0  0  0  0
  -26.4557  -31.6538   25.0698 C   0  0  0  0  0  0
  -25.3689  -31.3784   26.1358 C   0  0  0  0  0  0
  -27.0450  -30.2907   24.6413 C   0  0  0  0  0  0
  -27.6050  -32.4344   25.7501 C   0  0  0  0  0  0
  -27.5569  -37.1762   24.8465 C   0  0  0  0  0  0
  -21.4325  -29.3044   22.3547 N   0  0  0  0  0  0
  -26.4278  -37.3707   23.9408 N   0  0  0  0  0  0
  -24.7466  -30.9948   22.0840 N   0  0  0  0  0  0
  -23.4212  -28.8024   23.3028 O   0  0  0  0  0  0
  -28.2409  -25.8750   20.2016 O   0  0  0  0  0  0
  -26.5707  -34.8889   22.4609 O   0  0  0  0  0  0
  -23.5683  -32.1217   23.6829 O   0  0  0  0  0  0
  -28.0282  -24.2769   20.5207 C   0  0  0  0  0  0
  -29.8400  -18.1858   20.6145 C   0  0  0  0  0  0
  -28.7108  -22.7080   19.9631 C   0  0  0  0  0  0
  -29.0742  -19.7167   20.0578 C   0  0  0  0  0  0
  -29.5324  -16.5877   20.4581 O   0  0  0  0  0  0
  -28.9485  -21.2395   20.6500 O   0  0  0  0  0  0
  -31.4654  -12.9536   19.2277 H   0  0  0  0  0  0
  -30.4812  -11.8365   20.1329 H   0  0  0  0  0  0
  -29.9102  -11.7385   17.6784 H   0  0  0  0  0  0
  -29.5888  -13.4556   17.6692 H   0  0  0  0  0  0
  -28.0240  -11.2749   19.0751 H   0  0  0  0  0  0
  -27.4216  -12.3515   17.8406 H   0  0  0  0  0  0
  -27.5280  -14.2462   19.3191 H   0  0  0  0  0  0
  -28.7520  -12.5136   21.5116 H   0  0  0  0  0  0
  -28.2746  -14.1926   21.6687 H   0  0  0  0  0  0
  -25.2775   -9.5696   22.4756 H   0  0  0  0  0  0
  -24.0012   -7.4646   22.7476 H   0  0  0  0  0  0
  -21.0851   -8.8779   19.8954 H   0  0  0  0  0  0
  -22.3706  -10.9674   19.6163 H   0  0  0  0  0  0
  -21.2013   -7.6150   23.9716 H   0  0  0  0  0  0
  -21.1482   -6.0524   25.9077 H   0  0  0  0  0  0
  -22.0596   -2.7610   23.2846 H   0  0  0  0  0  0
  -22.4058  -11.9841   22.4840 H   0  0  0  0  0  0
  -21.1035  -13.1183   22.2687 H   0  0  0  0  0  0
  -24.6477  -15.8601   20.5578 H   0  0  0  0  0  0
  -26.2712  -15.6420   20.1373 H   0  0  0  0  0  0
  -26.7369  -32.5147   23.0895 H   0  0  0  0  0  0
  -25.0067  -33.9493   25.0198 H   0  0  0  0  0  0
  -22.7859  -31.2687   21.3505 H   0  0  0  0  0  0
  -23.3763  -35.9536   23.3282 H   0  0  0  0  0  0
  -24.3569  -36.8887   22.2067 H   0  0  0  0  0  0
  -23.7244  -37.6392   23.6720 H   0  0  0  0  0  0
  -26.2163  -31.3819   20.6152 H   0  0  0  0  0  0
  -26.9039  -30.7004   22.0491 H   0  0  0  0  0  0
  -28.1586  -28.6328   21.2532 H   0  0  0  0  0  0
  -25.8863  -25.7284   19.0348 H   0  0  0  0  0  0
  -23.9944  -27.2538   18.9787 H   0  0  0  0  0  0
  -23.8685  -30.5191   19.3890 H   0  0  0  0  0  0
  -22.8222  -29.2057   19.8313 H   0  0  0  0  0  0
  -25.1329  -36.1771   25.0790 H   0  0  0  0  0  0
  -21.0031  -28.3353   24.1319 H   0  0  0  0  0  0
  -20.5683  -26.2364   23.3640 H   0  0  0  0  0  0
  -21.6661  -26.7415   22.1205 H   0  0  0  0  0  0
  -19.6932  -25.6277   21.1272 H   0  0  0  0  0  0
  -19.6711  -27.3163   20.6725 H   0  0  0  0  0  0
  -17.4222  -26.6683   21.4026 H   0  0  0  0  0  0
  -18.0349  -26.0091   22.9028 H   0  0  0  0  0  0
  -19.7968  -30.7313   24.2208 H   0  0  0  0  0  0
  -17.5039  -31.6275   24.5163 H   0  0  0  0  0  0
  -15.5375  -30.2975   23.7691 H   0  0  0  0  0  0
  -15.8702  -28.0807   22.7109 H   0  0  0  0  0  0
  -24.5883  -30.7120   25.7670 H   0  0  0  0  0  0
  -24.8865  -32.2985   26.4668 H   0  0  0  0  0  0
  -25.7924  -30.9029   27.0214 H   0  0  0  0  0  0
  -26.3112  -29.6586   24.1401 H   0  0  0  0  0  0
  -27.3971  -29.7267   25.5062 H   0  0  0  0  0  0
  -27.9056  -30.4094   23.9827 H   0  0  0  0  0  0
  -27.2620  -33.3689   26.1957 H   0  0  0  0  0  0
  -28.3927  -32.6837   25.0379 H   0  0  0  0  0  0
  -28.0645  -31.8552   26.5521 H   0  0  0  0  0  0
  -28.2567  -38.0076   24.7512 H   0  0  0  0  0  0
  -28.1084  -36.2601   24.6292 H   0  0  0  0  0  0
  -27.2285  -37.1405   25.8868 H   0  0  0  0  0  0
  -20.9575  -29.8733   21.6678 H   0  0  0  0  0  0
  -26.0126  -38.2765   24.1419 H   0  0  0  0  0  0
  -28.2458  -24.2605   21.5885 H   0  0  0  0  0  0
  -26.9486  -24.1324   20.4905 H   0  0  0  0  0  0
  -29.8442  -18.2917   21.6991 H   0  0  0  0  0  0
  -30.8932  -18.2812   20.3501 H   0  0  0  0  0  0
  -29.7081  -22.9608   19.6031 H   0  0  0  0  0  0
  -28.1608  -22.4818   19.0495 H   0  0  0  0  0  0
  -28.0305  -19.4480   19.8942 H   0  0  0  0  0  0
  -29.4599  -19.8609   19.0483 H   0  0  0  0  0  0
  1 25  1  0  0  0
  1 30  2  0  0  0
  1 75  1  0  0  0
  2  3  1  0  0  0
  2 25  1  0  0  0
  2 77  1  0  0  0
  2 78  1  0  0  0
  3  4  1  0  0  0
  3 79  1  0  0  0
  3 80  1  0  0  0
  4  5  1  0  0  0
  4 81  1  0  0  0
  4 82  1  0  0  0
  5  6  1  0  0  0
  5 26  1  0  0  0
  5 83  1  0  0  0
  6 25  1  0  0  0
  6 84  1  0  0  0
  6 85  1  0  0  0
  7  8  2  0  0  0
  7 26  1  0  0  0
  7 29  1  0  0  0
  8  9  1  0  0  0
  8 22  1  0  0  0
  9 10  1  0  0  0
  9 27  2  0  0  0
 10 11  2  0  0  0
 10 15  1  0  0  0
 11 12  1  0  0  0
 11 86  1  0  0  0
 12 13  2  0  0  0
 12 87  1  0  0  0
 13 14  1  0  0  0
 13 31  1  0  0  0
 14 15  2  0  0  0
 14 88  1  0  0  0
 15 89  1  0  0  0
 16 17  2  0  0  0
 16 21  1  0  0  0
 16 31  1  0  0  0
 17 18  1  0  0  0
 17 90  1  0  0  0
 18 19  2  0  0  0
 18 91  1  0  0  0
 19 20  1  0  0  0
 19 24  1  0  0  0
 20 21  2  0  0  0
 20 92  1  0  0  0
 21 23  1  0  0  0
 22 28  1  0  0  0
 22 32  2  0  0  0
 26 27  1  0  0  0
 28 93  1  0  0  0
 28 94  1  0  0  0
 29 95  1  0  0  0
 29 96  1  0  0  0
 33 34  1  0  0  0
 33 66  1  0  0  0
 33 70  2  0  0  0
 34 36  1  0  0  0
 34 59  1  0  0  0
 34 97  1  0  0  0
 35 44  2  0  0  0
 35 45  1  0  0  0
 35 68  1  0  0  0
 36 56  1  0  0  0
 36 98  1  0  0  0
 37 39  1  0  0  0
 37 47  1  0  0  0
 37 66  1  0  0  0
 37 99  1  0  0  0
 38 43  2  0  0  0
 38 46  1  0  0  0
 38 47  1  0  0  0
 39 64  1  0  0  0
 39 67  2  0  0  0
 40 52  1  0  0  0
 40 53  2  0  0  0
 40 58  1  0  0  0
 41100  1  0  0  0
 41101  1  0  0  0
 41102  1  0  0  0
 41 48  1  0  0  0
 42 43  1  0  0  0
 42 66  1  0  0  0
 42103  1  0  0  0
 42104  1  0  0  0
 43 44  1  0  0  0
 44105  1  0  0  0
 45 46  2  0  0  0
 45106  1  0  0  0
 46107  1  0  0  0
 47108  1  0  0  0
 47109  1  0  0  0
 48 56  1  0  0  0
 48 65  1  0  0  0
 48110  1  0  0  0
 49 50  1  0  0  0
 49 53  1  0  0  0
 49 64  1  0  0  0
 49111  1  0  0  0
 50 51  1  0  0  0
 50112  1  0  0  0
 50113  1  0  0  0
 51 52  1  0  0  0
 51114  1  0  0  0
 51115  1  0  0  0
 52116  1  0  0  0
 52117  1  0  0  0
 53 54  1  0  0  0
 54 55  2  0  0  0
 54118  1  0  0  0
 55 57  1  0  0  0
 55119  1  0  0  0
 56 69  2  0  0  0
 57 58  2  0  0  0
 57120  1  0  0  0
 58121  1  0  0  0
 59 60  1  0  0  0
 59 61  1  0  0  0
 59 62  1  0  0  0
 60122  1  0  0  0
 60123  1  0  0  0
 60124  1  0  0  0
 61125  1  0  0  0
 61126  1  0  0  0
 61127  1  0  0  0
 62128  1  0  0  0
 62129  1  0  0  0
 62130  1  0  0  0
 63 65  1  0  0  0
 63131  1  0  0  0
 63132  1  0  0  0
 63133  1  0  0  0
 64134  1  0  0  0
 65135  1  0  0  0
 68 71  1  0  0  0
 71 73  1  0  0  0
 71136  1  0  0  0
 71137  1  0  0  0
 72 74  1  0  0  0
 72 75  1  0  0  0
 72138  1  0  0  0
 72139  1  0  0  0
 73 76  1  0  0  0
 73140  1  0  0  0
 73141  1  0  0  0
 74 76  1  0  0  0
 74142  1  0  0  0
 74143  1  0  0  0
M  ISO  4   1 100  68 101  71 101  75 100
M  END
> <chiral flag>
0

> <version>
0

> <s_m_source_file>
/data/baiqing/PycharmProjects/Reinvent-master-3.2/result/LINK_invent/BTK/process_docking_weight1_custom_product_contain_oxygen_bond_distance_aromatic_linkinvent_7_9_3/rearranged_h_0000.sdf

> <i_m_source_file_index>
41

> <r_mmod_Potential_Energy-OPLS-2005>
1305.97973632812

> <r_mmod_Stretch_Energy-OPLS-2005>
643.654357910156

> <r_mmod_Bend_Energy-OPLS-2005>
465.456970214844

> <r_mmod_Torsional_Energy-OPLS-2005>
195.395568847656

> <r_mmod_Improper_Torsional_Energy-OPLS-2005>
3.16215133666992

> <r_mmod_Van_der_Waal_Energy-OPLS-2005>
108.705589294434

> <r_mmod_Electrostatic_Energy-OPLS-2005>
-322.338897705078

> <r_mmod_Solvation_Energy-OPLS-2005>
-201.006713867188

> <b_mmod_Minimization_Converged-OPLS-2005>
0

> <r_mmod_RMS_Derivative-OPLS-2005>
0.21904245018959

$$$$
41
                    3D
 Structure written by MMmdl.
148156  0  0  1  0            999 V2000
  -30.5066  -14.9122   20.4364 C   0  0  0  0  0  0
  -30.4572  -12.5594   19.4935 C   0  0  0  0  0  0
  -29.5282  -12.5199   18.2554 C   0  0  0  0  0  0
  -28.0576  -12.3117   18.6710 C   0  0  0  0  0  0
  -27.6394  -13.2328   19.8459 C   0  0  2  0  0  0
  -28.6827  -13.2097   20.9842 C   0  0  0  0  0  0
  -25.2503  -13.8179   20.5680 C   0  0  0  0  0  0
  -24.1804  -13.0432   20.9234 C   0  0  0  0  0  0
  -24.6391  -11.6909   20.8755 C   0  0  0  0  0  0
  -23.9061  -10.4290   21.0411 C   0  0  0  0  0  0
  -24.3611   -9.4205   21.9186 C   0  0  0  0  0  0
  -23.6288   -8.2238   22.0750 C   0  0  0  0  0  0
  -22.4271   -8.0275   21.3541 C   0  0  0  0  0  0
  -21.9904   -9.0252   20.4648 C   0  0  0  0  0  0
  -22.7230  -10.2135   20.3062 C   0  0  0  0  0  0
  -21.6854   -6.0729   22.5277 C   0  0  0  0  0  0
  -21.4013   -6.5632   23.8208 C   0  0  0  0  0  0
  -21.3661   -5.6786   24.9171 C   0  0  0  0  0  0
  -21.6045   -4.3047   24.7224 C   0  0  0  0  0  0
  -21.8820   -3.8140   23.4344 C   0  0  0  0  0  0
  -21.9192   -4.6957   22.3400 C   0  0  0  0  0  0
  -22.7825  -13.5222   21.1889 C   0  0  0  0  0  0
  -22.1662   -4.2144   21.0978 F   0  0  0  0  0  0
  -21.5632   -3.4531   25.7736 F   0  0  0  0  0  0
  -29.9671  -13.6300   20.4031 N   0  0  0  0  0  0
  -26.2923  -12.9383   20.3242 N   0  0  0  0  0  0
  -25.9319  -11.6532   20.5738 N   0  0  0  0  0  0
  -22.0468  -12.8219   22.0447 N   0  0  0  0  0  0
  -25.4177  -15.1897   20.4031 N   0  0  0  0  0  0
  -31.6939  -15.0568   20.1209 O   0  0  0  0  0  0
  -21.6638   -6.8871   21.4237 O   0  0  0  0  0  0
  -22.3514  -14.5527   20.6726 O   0  0  0  0  0  0
  -24.6416  -31.8453   23.1901 C   0  0  0  0  0  0
  -25.9200  -32.4701   23.8277 C   0  0  1  0  0  0
  -27.2194  -27.1518   20.1453 C   0  0  0  0  0  0
  -25.5965  -33.8506   24.2202 N   0  0  0  0  0  0
  -23.4439  -30.4666   21.5351 C   0  0  2  0  0  0
  -24.8937  -28.8974   20.1099 C   0  0  0  0  0  0
  -22.7560  -29.4552   22.4860 C   0  0  0  0  0  0
  -18.0312  -28.1393   22.8469 C   0  0  0  0  0  0
  -24.1494  -36.7247   23.2641 C   0  0  0  0  0  0
  -25.9996  -30.7244   21.3866 C   0  0  0  0  0  0
  -26.0718  -29.3381   20.7263 C   0  0  0  0  0  0
  -27.2360  -28.4820   20.7257 C   0  0  0  0  0  0
  -26.0120  -26.8101   19.4939 C   0  0  0  0  0  0
  -24.8768  -27.6464   19.4781 C   0  0  0  0  0  0
  -23.6696  -29.7981   20.1537 C   0  0  0  0  0  0
  -25.4127  -36.3034   24.0317 C   0  0  1  0  0  0
  -20.5919  -28.3710   23.1237 C   0  0  2  0  0  0
  -20.6792  -26.9413   22.5410 C   0  0  0  0  0  0
  -19.5774  -26.6379   21.5205 C   0  0  0  0  0  0
  -18.1953  -26.7936   22.1610 C   0  0  0  0  0  0
  -19.1566  -28.8871   23.2846 C   0  0  0  0  0  0
  -18.9483  -30.1470   23.8866 C   0  0  0  0  0  0
  -17.6479  -30.6586   24.0558 C   0  0  0  0  0  0
  -25.9073  -34.9409   23.5067 C   0  0  0  0  0  0
  -16.5370  -29.9077   23.6341 C   0  0  0  0  0  0
  -16.7296  -28.6502   23.0351 C   0  0  0  0  0  0
  -26.4529  -31.6562   25.0707 C   0  0  0  0  0  0
  -25.3724  -31.3768   26.1419 C   0  0  0  0  0  0
  -27.0377  -30.2956   24.6276 C   0  0  0  0  0  0
  -27.6086  -32.4308   25.7471 C   0  0  0  0  0  0
  -27.5583  -37.1776   24.8464 C   0  0  0  0  0  0
  -21.4255  -29.3039   22.3609 N   0  0  0  0  0  0
  -26.4289  -37.3749   23.9414 N   0  0  0  0  0  0
  -24.7147  -31.0329   22.0924 N   0  0  0  0  0  0
  -23.4217  -28.8100   23.2999 O   0  0  0  0  0  0
  -28.2775  -26.1735   20.2098 O   0  0  0  0  0  0
  -26.5645  -34.8903   22.4634 O   0  0  0  0  0  0
  -23.5543  -32.1324   23.7138 O   0  0  0  0  0  0
  -28.2153  -18.0953   20.7491 C   0  0  0  0  0  0
  -30.4833  -18.5413   20.2926 C   0  0  0  0  0  0
  -27.9193  -19.5039   20.6778 C   0  0  0  0  0  0
  -30.1796  -19.9799   20.2323 C   0  0  0  0  0  0
  -29.5053  -17.5105   20.5545 C   0  0  0  0  0  0
  -28.8633  -20.5436   20.4177 C   0  0  0  0  0  0
  -28.9684  -23.3056   20.2949 C   0  0  0  0  0  0
  -27.9754  -24.6526   20.0919 C   0  0  0  0  0  0
  -29.6169  -15.9865   20.6674 N   0  0  0  0  0  0
  -28.3409  -21.9105   20.3531 O   0  0  0  0  0  0
  -31.4885  -12.7346   19.1825 H   0  0  0  0  0  0
  -30.4604  -11.5956   20.0058 H   0  0  0  0  0  0
  -29.8405  -11.7242   17.5774 H   0  0  0  0  0  0
  -29.6216  -13.4520   17.6963 H   0  0  0  0  0  0
  -27.9473  -11.2684   18.9696 H   0  0  0  0  0  0
  -27.3947  -12.4547   17.8166 H   0  0  0  0  0  0
  -27.6179  -14.2430   19.4364 H   0  0  0  0  0  0
  -28.7602  -12.2129   21.4208 H   0  0  0  0  0  0
  -28.3848  -13.8728   21.7977 H   0  0  0  0  0  0
  -25.2756   -9.5682   22.4757 H   0  0  0  0  0  0
  -24.0001   -7.4627   22.7461 H   0  0  0  0  0  0
  -21.0838   -8.8770   19.8954 H   0  0  0  0  0  0
  -22.3684  -10.9672   19.6174 H   0  0  0  0  0  0
  -21.2003   -7.6140   23.9709 H   0  0  0  0  0  0
  -21.1487   -6.0516   25.9075 H   0  0  0  0  0  0
  -22.0599   -2.7601   23.2843 H   0  0  0  0  0  0
  -22.4081  -11.9886   22.4849 H   0  0  0  0  0  0
  -21.1085  -13.1247   22.2656 H   0  0  0  0  0  0
  -24.6341  -15.8285   20.4849 H   0  0  0  0  0  0
  -26.2245  -15.6094   19.9608 H   0  0  0  0  0  0
  -26.7255  -32.5312   23.0996 H   0  0  0  0  0  0
  -25.0126  -33.9625   25.0360 H   0  0  0  0  0  0
  -22.7454  -31.2921   21.3833 H   0  0  0  0  0  0
  -23.3765  -35.9568   23.3292 H   0  0  0  0  0  0
  -24.3585  -36.8891   22.2059 H   0  0  0  0  0  0
  -23.7234  -37.6436   23.6677 H   0  0  0  0  0  0
  -26.1556  -31.4817   20.6172 H   0  0  0  0  0  0
  -26.8696  -30.7724   22.0293 H   0  0  0  0  0  0
  -28.1328  -28.8166   21.2280 H   0  0  0  0  0  0
  -25.9048  -25.8561   19.0019 H   0  0  0  0  0  0
  -23.9779  -27.3044   18.9838 H   0  0  0  0  0  0
  -23.8045  -30.5736   19.3988 H   0  0  0  0  0  0
  -22.7847  -29.2399   19.8437 H   0  0  0  0  0  0
  -25.1317  -36.1861   25.0809 H   0  0  0  0  0  0
  -21.0016  -28.3300   24.1354 H   0  0  0  0  0  0
  -20.5666  -26.2323   23.3628 H   0  0  0  0  0  0
  -21.6663  -26.7413   22.1221 H   0  0  0  0  0  0
  -19.6932  -25.6284   21.1253 H   0  0  0  0  0  0
  -19.6722  -27.3173   20.6721 H   0  0  0  0  0  0
  -17.4228  -26.6678   21.4008 H   0  0  0  0  0  0
  -18.0350  -26.0083   22.9011 H   0  0  0  0  0  0
  -19.7958  -30.7296   24.2215 H   0  0  0  0  0  0
  -17.5033  -31.6263   24.5169 H   0  0  0  0  0  0
  -15.5368  -30.2966   23.7685 H   0  0  0  0  0  0
  -15.8700  -28.0816   22.7066 H   0  0  0  0  0  0
  -24.5925  -30.7071   25.7773 H   0  0  0  0  0  0
  -24.8874  -32.2948   26.4746 H   0  0  0  0  0  0
  -25.8030  -30.9039   27.0255 H   0  0  0  0  0  0
  -26.2979  -29.6681   24.1289 H   0  0  0  0  0  0
  -27.4002  -29.7261   25.4844 H   0  0  0  0  0  0
  -27.8892  -30.4194   23.9579 H   0  0  0  0  0  0
  -27.2718  -33.3642   26.1990 H   0  0  0  0  0  0
  -28.3920  -32.6807   25.0300 H   0  0  0  0  0  0
  -28.0715  -31.8451   26.5425 H   0  0  0  0  0  0
  -28.2603  -38.0072   24.7518 H   0  0  0  0  0  0
  -28.1082  -36.2608   24.6283 H   0  0  0  0  0  0
  -27.2305  -37.1418   25.8868 H   0  0  0  0  0  0
  -20.9454  -29.8756   21.6799 H   0  0  0  0  0  0
  -26.0160  -38.2816   24.1435 H   0  0  0  0  0  0
  -27.3841  -17.4389   20.9640 H   0  0  0  0  0  0
  -31.5080  -18.2375   20.1325 H   0  0  0  0  0  0
  -26.8912  -19.7983   20.8356 H   0  0  0  0  0  0
  -30.9941  -20.6580   20.0223 H   0  0  0  0  0  0
  -29.5285  -23.4334   21.2214 H   0  0  0  0  0  0
  -29.7148  -23.2995   19.5002 H   0  0  0  0  0  0
  -27.1411  -24.4904   20.7758 H   0  0  0  0  0  0
  -27.5573  -24.5134   19.0959 H   0  0  0  0  0  0
  -28.7281  -15.5826   20.9203 H   0  0  0  0  0  0
  1 25  1  0  0  0
  1 30  2  0  0  0
  1 79  1  0  0  0
  2  3  1  0  0  0
  2 25  1  0  0  0
  2 81  1  0  0  0
  2 82  1  0  0  0
  3  4  1  0  0  0
  3 83  1  0  0  0
  3 84  1  0  0  0
  4  5  1  0  0  0
  4 85  1  0  0  0
  4 86  1  0  0  0
  5  6  1  0  0  0
  5 26  1  0  0  0
  5 87  1  0  0  0
  6 25  1  0  0  0
  6 88  1  0  0  0
  6 89  1  0  0  0
  7  8  2  0  0  0
  7 26  1  0  0  0
  7 29  1  0  0  0
  8  9  1  0  0  0
  8 22  1  0  0  0
  9 10  1  0  0  0
  9 27  2  0  0  0
 10 11  2  0  0  0
 10 15  1  0  0  0
 11 12  1  0  0  0
 11 90  1  0  0  0
 12 13  2  0  0  0
 12 91  1  0  0  0
 13 14  1  0  0  0
 13 31  1  0  0  0
 14 15  2  0  0  0
 14 92  1  0  0  0
 15 93  1  0  0  0
 16 17  2  0  0  0
 16 21  1  0  0  0
 16 31  1  0  0  0
 17 18  1  0  0  0
 17 94  1  0  0  0
 18 19  2  0  0  0
 18 95  1  0  0  0
 19 20  1  0  0  0
 19 24  1  0  0  0
 20 21  2  0  0  0
 20 96  1  0  0  0
 21 23  1  0  0  0
 22 28  1  0  0  0
 22 32  2  0  0  0
 26 27  1  0  0  0
 28 97  1  0  0  0
 28 98  1  0  0  0
 29 99  1  0  0  0
 29100  1  0  0  0
 33 34  1  0  0  0
 33 66  1  0  0  0
 33 70  2  0  0  0
 34 36  1  0  0  0
 34 59  1  0  0  0
 34101  1  0  0  0
 35 44  2  0  0  0
 35 45  1  0  0  0
 35 68  1  0  0  0
 36 56  1  0  0  0
 36102  1  0  0  0
 37 39  1  0  0  0
 37 47  1  0  0  0
 37 66  1  0  0  0
 37103  1  0  0  0
 38 43  2  0  0  0
 38 46  1  0  0  0
 38 47  1  0  0  0
 39 64  1  0  0  0
 39 67  2  0  0  0
 40 52  1  0  0  0
 40 53  2  0  0  0
 40 58  1  0  0  0
 41104  1  0  0  0
 41105  1  0  0  0
 41106  1  0  0  0
 41 48  1  0  0  0
 42 43  1  0  0  0
 42 66  1  0  0  0
 42107  1  0  0  0
 42108  1  0  0  0
 43 44  1  0  0  0
 44109  1  0  0  0
 45 46  2  0  0  0
 45110  1  0  0  0
 46111  1  0  0  0
 47112  1  0  0  0
 47113  1  0  0  0
 48 56  1  0  0  0
 48 65  1  0  0  0
 48114  1  0  0  0
 49 50  1  0  0  0
 49 53  1  0  0  0
 49 64  1  0  0  0
 49115  1  0  0  0
 50 51  1  0  0  0
 50116  1  0  0  0
 50117  1  0  0  0
 51 52  1  0  0  0
 51118  1  0  0  0
 51119  1  0  0  0
 52120  1  0  0  0
 52121  1  0  0  0
 53 54  1  0  0  0
 54 55  2  0  0  0
 54122  1  0  0  0
 55 57  1  0  0  0
 55123  1  0  0  0
 56 69  2  0  0  0
 57 58  2  0  0  0
 57124  1  0  0  0
 58125  1  0  0  0
 59 60  1  0  0  0
 59 61  1  0  0  0
 59 62  1  0  0  0
 60126  1  0  0  0
 60127  1  0  0  0
 60128  1  0  0  0
 61129  1  0  0  0
 61130  1  0  0  0
 61131  1  0  0  0
 62132  1  0  0  0
 62133  1  0  0  0
 62134  1  0  0  0
 63 65  1  0  0  0
 63135  1  0  0  0
 63136  1  0  0  0
 63137  1  0  0  0
 64138  1  0  0  0
 65139  1  0  0  0
 68 78  1  0  0  0
 71 73  2  0  0  0
 71 75  1  0  0  0
 71140  1  0  0  0
 72 74  1  0  0  0
 72 75  2  0  0  0
 72141  1  0  0  0
 73 76  1  0  0  0
 73142  1  0  0  0
 74 76  2  0  0  0
 74143  1  0  0  0
 75 79  1  0  0  0
 76 80  1  0  0  0
 77 78  1  0  0  0
 77 80  1  0  0  0
 77144  1  0  0  0
 77145  1  0  0  0
 78146  1  0  0  0
 78147  1  0  0  0
 79148  1  0  0  0
M  ISO  4   1 100  68 101  78 101  79 100
M  END
> <chiral flag>
0

> <version>
0

> <s_m_source_file>
/data/baiqing/PycharmProjects/Reinvent-master-3.2/result/LINK_invent/BTK/process_docking_weight1_custom_product_contain_oxygen_bond_distance_aromatic_linkinvent_7_9_3/rearranged_h_0000.sdf

> <i_m_source_file_index>
42

> <r_mmod_Potential_Energy-OPLS-2005>
453.292022705078

> <r_mmod_Stretch_Energy-OPLS-2005>
216.148208618164

> <r_mmod_Bend_Energy-OPLS-2005>
303.559814453125

> <r_mmod_Torsional_Energy-OPLS-2005>
210.8935546875

> <r_mmod_Improper_Torsional_Energy-OPLS-2005>
4.47378873825073

> <r_mmod_Van_der_Waal_Energy-OPLS-2005>
131.151794433594

> <r_mmod_Electrostatic_Energy-OPLS-2005>
-373.256744384766

> <r_mmod_Solvation_Energy-OPLS-2005>
-214.08235168457

> <b_mmod_Minimization_Converged-OPLS-2005>
0

> <r_mmod_RMS_Derivative-OPLS-2005>
0.848834156990051

$$$$
42
                    3D
 Structure written by MMmdl.
170178  0  0  1  0            999 V2000
  -30.3126  -16.4518   20.5019 C   0  0  0  0  0  0
  -30.4205  -13.6887   19.6552 C   0  0  0  0  0  0
  -29.6258  -12.9665   18.4858 C   0  0  0  0  0  0
  -28.2627  -12.4295   18.9292 C   0  0  0  0  0  0
  -27.6348  -13.4589   19.8790 C   0  0  2  0  0  0
  -28.6096  -14.1214   20.9566 C   0  0  0  0  0  0
  -25.2339  -13.8573   20.6006 C   0  0  0  0  0  0
  -24.1804  -13.0517   20.9316 C   0  0  0  0  0  0
  -24.6695  -11.7094   20.8706 C   0  0  0  0  0  0
  -23.9370  -10.4357   21.0278 C   0  0  0  0  0  0
  -24.3794   -9.4262   21.9119 C   0  0  0  0  0  0
  -23.6405   -8.2319   22.0730 C   0  0  0  0  0  0
  -22.4391   -8.0339   21.3513 C   0  0  0  0  0  0
  -22.0077   -9.0333   20.4610 C   0  0  0  0  0  0
  -22.7477  -10.2185   20.2987 C   0  0  0  0  0  0
  -21.6905   -6.0797   22.5274 C   0  0  0  0  0  0
  -21.4062   -6.5680   23.8218 C   0  0  0  0  0  0
  -21.3665   -5.6814   24.9165 C   0  0  0  0  0  0
  -21.6053   -4.3078   24.7195 C   0  0  0  0  0  0
  -21.8809   -3.8180   23.4305 C   0  0  0  0  0  0
  -21.9201   -4.7014   22.3374 C   0  0  0  0  0  0
  -22.7736  -13.5075   21.1898 C   0  0  0  0  0  0
  -22.1664   -4.2198   21.0951 F   0  0  0  0  0  0
  -21.5602   -3.4549   25.7700 F   0  0  0  0  0  0
  -29.7386  -14.9773   20.3357 N   0  0  0  0  0  0
  -26.3143  -13.0291   20.3743 N   0  0  0  0  0  0
  -25.9767  -11.7158   20.5755 N   0  0  0  0  0  0
  -22.0462  -12.7997   22.0455 N   0  0  0  0  0  0
  -25.3677  -15.2331   20.4452 N   0  0  0  0  0  0
  -31.5247  -16.1678   20.3029 O   0  0  0  0  0  0
  -21.6709   -6.8956   21.4245 O   0  0  0  0  0  0
  -22.3329  -14.5341   20.6743 O   0  0  0  0  0  0
  -24.9837  -31.7252   23.4408 C   0  0  0  0  0  0
  -26.1617  -32.4677   24.0146 C   0  0  1  0  0  0
  -26.8324  -25.6027   19.3152 C   0  0  0  0  0  0
  -25.7330  -33.8648   24.2792 N   0  0  0  0  0  0
  -23.7541  -30.7597   21.6405 C   0  0  2  0  0  0
  -24.7978  -28.6799   19.5050 C   0  0  0  0  0  0
  -22.5640  -29.9802   22.5656 C   0  0  0  0  0  0
  -18.0063  -28.1676   22.8368 C   0  0  0  0  0  0
  -24.1633  -36.7037   23.2420 C   0  0  0  0  0  0
  -26.3763  -29.0617   22.9575 C   0  0  0  0  0  0
  -26.3939  -27.5174   21.3707 C   0  0  0  0  0  0
  -27.0796  -26.2213   20.8061 C   0  0  0  0  0  0
  -25.7834  -26.1886   18.0020 C   0  0  0  0  0  0
  -24.7827  -27.6796   18.0683 C   0  0  0  0  0  0
  -23.8925  -30.1054   19.9474 C   0  0  0  0  0  0
  -25.4255  -36.2952   24.0159 C   0  0  1  0  0  0
  -20.5622  -28.5044   22.9587 C   0  0  2  0  0  0
  -20.6595  -27.0727   22.3882 C   0  0  0  0  0  0
  -19.5093  -26.6666   21.4754 C   0  0  0  0  0  0
  -18.1677  -26.8044   22.1863 C   0  0  0  0  0  0
  -19.1285  -28.9499   23.2165 C   0  0  0  0  0  0
  -18.9205  -30.1913   23.8493 C   0  0  0  0  0  0
  -17.6190  -30.6787   24.0621 C   0  0  0  0  0  0
  -25.9463  -34.9310   23.5022 C   0  0  0  0  0  0
  -16.5108  -29.9137   23.6611 C   0  0  0  0  0  0
  -16.7021  -28.6588   23.0554 C   0  0  0  0  0  0
  -26.6050  -31.7922   25.3496 C   0  0  0  0  0  0
  -25.4286  -31.4775   26.3075 C   0  0  0  0  0  0
  -27.3804  -30.4887   25.2167 C   0  0  0  0  0  0
  -27.6119  -32.7317   26.0298 C   0  0  0  0  0  0
  -27.5649  -37.1806   24.8514 C   0  0  0  0  0  0
  -21.3659  -29.4993   22.1618 N   0  0  0  0  0  0
  -26.4316  -37.3797   23.9482 N   0  0  0  0  0  0
  -25.1880  -30.6187   22.6665 N   0  0  0  0  0  0
  -22.9318  -29.5408   23.6704 O   0  0  0  0  0  0
  -27.3063  -24.4387   19.5921 O   0  0  0  0  0  0
  -26.5651  -34.8680   22.4380 O   0  0  0  0  0  0
  -23.8588  -32.2112   23.7172 O   0  0  0  0  0  0
  -26.8149  -27.9023   19.1825 C   0  0  0  0  0  0
  -24.8547  -26.5725   20.0956 C   0  0  0  0  0  0
  -27.1561  -29.3067   19.4906 C   0  0  0  0  0  0
  -24.5512  -28.5563   21.6879 C   0  0  0  0  0  0
  -24.0539  -27.1022   21.2657 C   0  0  0  0  0  0
  -26.5498  -29.5694   20.7716 C   0  0  0  0  0  0
  -23.8491  -25.9309   22.2359 C   0  0  0  0  0  0
  -30.1167  -30.2219   20.9411 C   0  0  0  0  0  0
  -29.5677  -26.1954   21.4873 C   0  0  0  0  0  0
  -30.1009  -31.6811   21.3972 C   0  0  0  0  0  0
  -29.3338  -22.3798   21.0471 C   0  0  0  0  0  0
  -30.0657  -20.1878   20.7840 C   0  0  0  0  0  0
  -26.1513  -23.6811   20.2001 C   0  0  0  0  0  0
  -25.4696  -24.0394   21.6308 C   0  0  0  0  0  0
  -28.6202  -28.2601   21.1432 C   0  0  2  0  0  0
  -29.6504  -24.4165   21.3479 N   0  0  0  0  0  0
  -29.4875  -29.3148   21.7075 N   0  0  0  0  0  0
  -29.7887  -18.1278   20.7081 N   0  0  0  0  0  0
  -23.5121  -26.0737   23.4130 O   0  0  0  0  0  0
  -30.6445  -29.9352   19.8617 O   0  0  0  0  0  0
  -30.6301  -26.4842   22.0344 O   0  0  0  0  0  0
  -24.1275  -24.6437   21.7090 O   0  0  0  0  0  0
  -31.3773  -13.9875   19.2296 H   0  0  0  0  0  0
  -30.7164  -12.9535   20.4089 H   0  0  0  0  0  0
  -30.2210  -12.1669   18.0492 H   0  0  0  0  0  0
  -29.4713  -13.7080   17.7021 H   0  0  0  0  0  0
  -28.3964  -11.4837   19.4565 H   0  0  0  0  0  0
  -27.6241  -12.2243   18.0693 H   0  0  0  0  0  0
  -27.4092  -14.2772   19.1948 H   0  0  0  0  0  0
  -28.9982  -13.3791   21.6571 H   0  0  0  0  0  0
  -28.0237  -14.7987   21.5778 H   0  0  0  0  0  0
  -25.2908   -9.5735   22.4754 H   0  0  0  0  0  0
  -24.0080   -7.4740   22.7494 H   0  0  0  0  0  0
  -21.1001   -8.8879   19.8933 H   0  0  0  0  0  0
  -22.3906  -10.9724   19.6099 H   0  0  0  0  0  0
  -21.2102   -7.6195   23.9733 H   0  0  0  0  0  0
  -21.1495   -6.0541   25.9068 H   0  0  0  0  0  0
  -22.0581   -2.7647   23.2788 H   0  0  0  0  0  0
  -22.4133  -11.9668   22.4834 H   0  0  0  0  0  0
  -21.1050  -13.0912   22.2645 H   0  0  0  0  0  0
  -24.5821  -15.8664   20.5422 H   0  0  0  0  0  0
  -26.2173  -15.6994   20.1579 H   0  0  0  0  0  0
  -26.9721  -32.4516   23.2868 H   0  0  0  0  0  0
  -25.1829  -34.0128   25.1119 H   0  0  0  0  0  0
  -23.4431  -31.8013   21.4720 H   0  0  0  0  0  0
  -23.4075  -35.9223   23.2976 H   0  0  0  0  0  0
  -24.3742  -36.8743   22.1877 H   0  0  0  0  0  0
  -23.7170  -37.6078   23.6451 H   0  0  0  0  0  0
  -27.4060  -29.3262   23.0936 H   0  0  0  0  0  0
  -26.0758  -28.5109   23.8443 H   0  0  0  0  0  0
  -27.9095  -26.3125   20.1549 H   0  0  0  0  0  0
  -25.6927  -25.5615   17.1242 H   0  0  0  0  0  0
  -24.1684  -27.9608   17.2262 H   0  0  0  0  0  0
  -24.3289  -30.8910   19.3428 H   0  0  0  0  0  0
  -22.8851  -29.9697   19.5525 H   0  0  0  0  0  0
  -25.1375  -36.1694   25.0620 H   0  0  0  0  0  0
  -20.9508  -28.4179   23.9745 H   0  0  0  0  0  0
  -20.7270  -26.3521   23.2044 H   0  0  0  0  0  0
  -21.5556  -26.9797   21.7965 H   0  0  0  0  0  0
  -19.6486  -25.6454   21.1207 H   0  0  0  0  0  0
  -19.5223  -27.3014   20.5883 H   0  0  0  0  0  0
  -17.3575  -26.6295   21.4719 H   0  0  0  0  0  0
  -18.0822  -26.0388   22.9613 H   0  0  0  0  0  0
  -19.7688  -30.7905   24.1544 H   0  0  0  0  0  0
  -17.4718  -31.6391   24.5381 H   0  0  0  0  0  0
  -15.5100  -30.2835   23.8315 H   0  0  0  0  0  0
  -15.8391  -28.0720   22.7607 H   0  0  0  0  0  0
  -24.7620  -30.7077   25.9171 H   0  0  0  0  0  0
  -24.8196  -32.3618   26.5052 H   0  0  0  0  0  0
  -25.7988  -31.1156   27.2682 H   0  0  0  0  0  0
  -26.7403  -29.6259   25.2931 H   0  0  0  0  0  0
  -28.1509  -30.5278   24.4491 H   0  0  0  0  0  0
  -27.9381  -30.3132   26.1414 H   0  0  0  0  0  0
  -27.1423  -33.6704   26.3395 H   0  0  0  0  0  0
  -28.4369  -32.9948   25.3688 H   0  0  0  0  0  0
  -28.0411  -32.3134   26.9450 H   0  0  0  0  0  0
  -28.2558  -38.0243   24.7724 H   0  0  0  0  0  0
  -28.1236  -36.2703   24.6120 H   0  0  0  0  0  0
  -27.2317  -37.1215   25.8910 H   0  0  0  0  0  0
  -21.0328  -29.7479   21.2400 H   0  0  0  0  0  0
  -26.0054  -38.2820   24.1443 H   0  0  0  0  0  0
  -27.4917  -27.6375   18.3671 H   0  0  0  0  0  0
  -24.4778  -25.6166   19.7536 H   0  0  0  0  0  0
  -27.9996  -29.8345   19.0641 H   0  0  0  0  0  0
  -24.3643  -28.3260   22.7208 H   0  0  0  0  0  0
  -29.3450  -32.2230   20.8313 H   0  0  0  0  0  0
  -31.0570  -32.1730   21.2277 H   0  0  0  0  0  0
  -29.8303  -31.8249   22.4383 H   0  0  0  0  0  0
  -28.6834  -22.4401   20.1729 H   0  0  0  0  0  0
  -28.6538  -22.2225   21.8968 H   0  0  0  0  0  0
  -31.0471  -20.2337   21.2619 H   0  0  0  0  0  0
  -30.3215  -20.2800   19.7271 H   0  0  0  0  0  0
  -25.3308  -23.6338   19.4806 H   0  0  0  0  0  0
  -26.4521  -22.6415   20.2816 H   0  0  0  0  0  0
  -26.1566  -24.5481   22.3037 H   0  0  0  0  0  0
  -25.3184  -23.0851   22.1368 H   0  0  0  0  0  0
  -29.0541  -28.1490   20.1517 H   0  0  0  0  0  0
  -30.5775  -24.3395   21.7477 H   0  0  0  0  0  0
  -29.3000  -29.5883   22.6607 H   0  0  0  0  0  0
  -28.7914  -18.0065   20.8488 H   0  0  0  0  0  0
  1 25  1  0  0  0
  1 30  2  0  0  0
  1 88  1  0  0  0
  2  3  1  0  0  0
  2 25  1  0  0  0
  2 93  1  0  0  0
  2 94  1  0  0  0
  3  4  1  0  0  0
  3 95  1  0  0  0
  3 96  1  0  0  0
  4  5  1  0  0  0
  4 97  1  0  0  0
  4 98  1  0  0  0
  5  6  1  0  0  0
  5 26  1  0  0  0
  5 99  1  0  0  0
  6 25  1  0  0  0
  6100  1  0  0  0
  6101  1  0  0  0
  7  8  2  0  0  0
  7 26  1  0  0  0
  7 29  1  0  0  0
  8  9  1  0  0  0
  8 22  1  0  0  0
  9 10  1  0  0  0
  9 27  2  0  0  0
 10 11  2  0  0  0
 10 15  1  0  0  0
 11 12  1  0  0  0
 11102  1  0  0  0
 12 13  2  0  0  0
 12103  1  0  0  0
 13 14  1  0  0  0
 13 31  1  0  0  0
 14 15  2  0  0  0
 14104  1  0  0  0
 15105  1  0  0  0
 16 17  2  0  0  0
 16 21  1  0  0  0
 16 31  1  0  0  0
 17 18  1  0  0  0
 17106  1  0  0  0
 18 19  2  0  0  0
 18107  1  0  0  0
 19 20  1  0  0  0
 19 24  1  0  0  0
 20 21  2  0  0  0
 20108  1  0  0  0
 21 23  1  0  0  0
 22 28  1  0  0  0
 22 32  2  0  0  0
 26 27  1  0  0  0
 28109  1  0  0  0
 28110  1  0  0  0
 29111  1  0  0  0
 29112  1  0  0  0
 33 34  1  0  0  0
 33 66  1  0  0  0
 33 70  2  0  0  0
 34 36  1  0  0  0
 34 59  1  0  0  0
 34113  1  0  0  0
 35 44  2  0  0  0
 35 45  1  0  0  0
 35 68  1  0  0  0
 36 56  1  0  0  0
 36114  1  0  0  0
 37 39  1  0  0  0
 37 47  1  0  0  0
 37 66  1  0  0  0
 37115  1  0  0  0
 38 43  2  0  0  0
 38 46  1  0  0  0
 38 47  1  0  0  0
 39 64  1  0  0  0
 39 67  2  0  0  0
 40 52  1  0  0  0
 40 53  2  0  0  0
 40 58  1  0  0  0
 41116  1  0  0  0
 41117  1  0  0  0
 41118  1  0  0  0
 41 48  1  0  0  0
 42 43  1  0  0  0
 42 66  1  0  0  0
 42119  1  0  0  0
 42120  1  0  0  0
 43 44  1  0  0  0
 44121  1  0  0  0
 45 46  2  0  0  0
 45122  1  0  0  0
 46123  1  0  0  0
 47124  1  0  0  0
 47125  1  0  0  0
 48 56  1  0  0  0
 48 65  1  0  0  0
 48126  1  0  0  0
 49 50  1  0  0  0
 49 53  1  0  0  0
 49 64  1  0  0  0
 49127  1  0  0  0
 50 51  1  0  0  0
 50128  1  0  0  0
 50129  1  0  0  0
 51 52  1  0  0  0
 51130  1  0  0  0
 51131  1  0  0  0
 52132  1  0  0  0
 52133  1  0  0  0
 53 54  1  0  0  0
 54 55  2  0  0  0
 54134  1  0  0  0
 55 57  1  0  0  0
 55135  1  0  0  0
 56 69  2  0  0  0
 57 58  2  0  0  0
 57136  1  0  0  0
 58137  1  0  0  0
 59 60  1  0  0  0
 59 61  1  0  0  0
 59 62  1  0  0  0
 60138  1  0  0  0
 60139  1  0  0  0
 60140  1  0  0  0
 61141  1  0  0  0
 61142  1  0  0  0
 61143  1  0  0  0
 62144  1  0  0  0
 62145  1  0  0  0
 62146  1  0  0  0
 63 65  1  0  0  0
 63147  1  0  0  0
 63148  1  0  0  0
 63149  1  0  0  0
 64150  1  0  0  0
 65151  1  0  0  0
 68 83  1  0  0  0
 71 72  2  0  0  0
 71 73  1  0  0  0
 71152  1  0  0  0
 72 75  1  0  0  0
 72153  1  0  0  0
 73 76  2  0  0  0
 73154  1  0  0  0
 74 75  2  0  0  0
 74 76  1  0  0  0
 74155  1  0  0  0
 75 77  1  0  0  0
 76 85  1  0  0  0
 77 89  2  0  0  0
 77 92  1  0  0  0
 78 80  1  0  0  0
 78 87  1  0  0  0
 78 90  2  0  0  0
 79 85  1  0  0  0
 79 86  1  0  0  0
 79 91  2  0  0  0
 80156  1  0  0  0
 80157  1  0  0  0
 80158  1  0  0  0
 81 82  1  0  0  0
 81 86  1  0  0  0
 81159  1  0  0  0
 81160  1  0  0  0
 82 88  1  0  0  0
 82161  1  0  0  0
 82162  1  0  0  0
 83 84  1  0  0  0
 83163  1  0  0  0
 83164  1  0  0  0
 84 92  1  0  0  0
 84165  1  0  0  0
 84166  1  0  0  0
 85 87  1  0  0  0
 85167  1  0  0  0
 86168  1  0  0  0
 87169  1  0  0  0
 88170  1  0  0  0
M  ISO  4   1 100  68 101  83 101  88 100
M  END
> <chiral flag>
0

> <version>
0

> <s_m_source_file>
/data/baiqing/PycharmProjects/Reinvent-master-3.2/result/LINK_invent/BTK/process_docking_weight1_custom_product_contain_oxygen_bond_distance_aromatic_linkinvent_7_9_3/rearranged_h_0000.sdf

> <i_m_source_file_index>
43

> <r_mmod_Potential_Energy-OPLS-2005>
28850.8515625

> <r_mmod_Stretch_Energy-OPLS-2005>
15387.9765625

> <r_mmod_Bend_Energy-OPLS-2005>
2247.91064453125

> <r_mmod_Torsional_Energy-OPLS-2005>
690.913635253906

> <r_mmod_Improper_Torsional_Energy-OPLS-2005>
76.6365432739258

> <r_mmod_Van_der_Waal_Energy-OPLS-2005>
6064.44921875

> <r_mmod_Electrostatic_Energy-OPLS-2005>
-543.460815429688

> <r_mmod_Solvation_Energy-OPLS-2005>
-292.795318603516

> <b_mmod_Minimization_Converged-OPLS-2005>
0

> <r_mmod_RMS_Derivative-OPLS-2005>
23.2818298339844

$$$$
43
                    3D
 Structure written by MMmdl.
165174  0  0  1  0            999 V2000
  -30.7643  -14.3506   20.6631 C   0  0  0  0  0  0
  -30.4169  -12.2673   19.3970 C   0  0  0  0  0  0
  -29.4859  -12.5152   18.1949 C   0  0  0  0  0  0
  -28.0093  -12.3791   18.6103 C   0  0  0  0  0  0
  -27.6705  -13.1989   19.8830 C   0  0  2  0  0  0
  -28.7070  -12.9284   20.9966 C   0  0  0  0  0  0
  -25.2632  -13.8151   20.5688 C   0  0  0  0  0  0
  -24.1866  -13.0438   20.9162 C   0  0  0  0  0  0
  -24.6400  -11.6900   20.8723 C   0  0  0  0  0  0
  -23.9055  -10.4291   21.0399 C   0  0  0  0  0  0
  -24.3613   -9.4212   21.9177 C   0  0  0  0  0  0
  -23.6291   -8.2245   22.0751 C   0  0  0  0  0  0
  -22.4273   -8.0278   21.3544 C   0  0  0  0  0  0
  -21.9906   -9.0251   20.4644 C   0  0  0  0  0  0
  -22.7231  -10.2129   20.3050 C   0  0  0  0  0  0
  -21.6852   -6.0735   22.5278 C   0  0  0  0  0  0
  -21.4012   -6.5641   23.8212 C   0  0  0  0  0  0
  -21.3662   -5.6793   24.9175 C   0  0  0  0  0  0
  -21.6044   -4.3056   24.7224 C   0  0  0  0  0  0
  -21.8820   -3.8147   23.4348 C   0  0  0  0  0  0
  -21.9196   -4.6963   22.3403 C   0  0  0  0  0  0
  -22.7889  -13.5242   21.1829 C   0  0  0  0  0  0
  -22.1663   -4.2149   21.0980 F   0  0  0  0  0  0
  -21.5631   -3.4538   25.7738 F   0  0  0  0  0  0
  -30.0551  -13.2108   20.4636 N   0  0  0  0  0  0
  -26.3070  -12.9310   20.3396 N   0  0  0  0  0  0
  -25.9326  -11.6472   20.5764 N   0  0  0  0  0  0
  -22.0529  -12.8234   22.0387 N   0  0  0  0  0  0
  -25.4379  -15.1866   20.4115 N   0  0  0  0  0  0
  -31.7955  -14.6216   20.0393 O   0  0  0  0  0  0
  -21.6640   -6.8876   21.4241 O   0  0  0  0  0  0
  -22.3578  -14.5561   20.6696 O   0  0  0  0  0  0
  -24.6104  -31.8706   23.2123 C   0  0  0  0  0  0
  -25.9013  -32.4836   23.8402 C   0  0  1  0  0  0
  -27.2380  -27.4796   20.0817 C   0  0  0  0  0  0
  -25.5883  -33.8634   24.2348 N   0  0  0  0  0  0
  -23.3950  -30.4954   21.5513 C   0  0  2  0  0  0
  -24.8397  -28.9644   20.1155 C   0  0  0  0  0  0
  -22.7387  -29.4673   22.4997 C   0  0  0  0  0  0
  -18.0268  -28.1378   22.8491 C   0  0  0  0  0  0
  -24.1485  -36.7308   23.2634 C   0  0  0  0  0  0
  -25.9188  -30.8511   21.3558 C   0  0  0  0  0  0
  -25.9968  -29.4880   20.7051 C   0  0  0  0  0  0
  -27.1977  -28.7534   20.6822 C   0  0  0  0  0  0
  -26.0631  -26.9567   19.4919 C   0  0  0  0  0  0
  -24.8654  -27.6961   19.5100 C   0  0  0  0  0  0
  -23.6000  -29.8257   20.1660 C   0  0  0  0  0  0
  -25.4098  -36.3117   24.0351 C   0  0  1  0  0  0
  -20.5855  -28.3650   23.1324 C   0  0  2  0  0  0
  -20.6762  -26.9389   22.5412 C   0  0  0  0  0  0
  -19.5745  -26.6388   21.5203 C   0  0  0  0  0  0
  -18.1921  -26.7929   22.1610 C   0  0  0  0  0  0
  -19.1519  -28.8827   23.2913 C   0  0  0  0  0  0
  -18.9451  -30.1435   23.8917 C   0  0  0  0  0  0
  -17.6457  -30.6582   24.0570 C   0  0  0  0  0  0
  -25.9020  -34.9486   23.5146 C   0  0  0  0  0  0
  -16.5345  -29.9090   23.6331 C   0  0  0  0  0  0
  -16.7259  -28.6506   23.0342 C   0  0  0  0  0  0
  -26.4464  -31.6596   25.0706 C   0  0  0  0  0  0
  -25.3751  -31.3681   26.1465 C   0  0  0  0  0  0
  -27.0285  -30.3055   24.6023 C   0  0  0  0  0  0
  -27.6050  -32.4298   25.7459 C   0  0  0  0  0  0
  -27.5599  -37.1780   24.8455 C   0  0  0  0  0  0
  -21.4117  -29.3034   22.3734 N   0  0  0  0  0  0
  -26.4281  -37.3809   23.9445 N   0  0  0  0  0  0
  -24.6599  -31.0856   22.0990 N   0  0  0  0  0  0
  -23.4196  -28.8209   23.3005 O   0  0  0  0  0  0
  -28.4375  -26.8125   20.0770 O   0  0  0  0  0  0
  -26.5588  -34.8932   22.4711 O   0  0  0  0  0  0
  -23.5310  -32.1424   23.7558 O   0  0  0  0  0  0
  -29.2487  -18.7116   21.8119 C   0  0  0  0  0  0
  -29.2065  -17.3070   21.8497 C   0  0  0  0  0  0
  -31.6138  -17.2283   21.4604 C   0  0  0  0  0  0
  -31.6600  -18.6359   21.4188 C   0  0  0  0  0  0
  -30.4696  -19.3804   21.5756 C   0  0  0  0  0  0
  -30.3815  -16.5597   21.6399 C   0  0  0  0  0  0
  -30.0493  -21.5236   22.6046 C   0  0  0  0  0  0
  -29.9961  -21.2066   20.1398 C   0  0  0  0  0  0
  -30.2501  -23.0346   22.3880 C   0  0  0  0  0  0
  -30.1859  -22.7195   19.9514 C   0  0  0  0  0  0
  -32.9880  -19.3370   21.1827 C   0  0  0  0  0  0
  -29.6181  -24.9324   20.9161 C   0  0  0  0  0  0
  -28.4046  -25.3931   20.0971 C   0  0  0  0  0  0
  -30.5098  -20.7722   21.4374 N   0  0  0  0  0  0
  -30.2706  -15.1508   21.6171 N   0  0  0  0  0  0
  -29.6249  -23.4616   21.1097 N   0  3  0  0  0  0
  -31.4612  -12.3570   19.0925 H   0  0  0  0  0  0
  -30.3056  -11.2441   19.7590 H   0  0  0  0  0  0
  -29.7126  -11.8114   17.3928 H   0  0  0  0  0  0
  -29.6636  -13.5120   17.7877 H   0  0  0  0  0  0
  -27.8106  -11.3216   18.7880 H   0  0  0  0  0  0
  -27.3575  -12.6758   17.7885 H   0  0  0  0  0  0
  -27.7332  -14.2546   19.6167 H   0  0  0  0  0  0
  -28.6619  -11.8832   21.3068 H   0  0  0  0  0  0
  -28.4559  -13.4973   21.8922 H   0  0  0  0  0  0
  -25.2761   -9.5688   22.4748 H   0  0  0  0  0  0
  -24.0006   -7.4635   22.7471 H   0  0  0  0  0  0
  -21.0838   -8.8764   19.8949 H   0  0  0  0  0  0
  -22.3692  -10.9665   19.6157 H   0  0  0  0  0  0
  -21.2000   -7.6146   23.9715 H   0  0  0  0  0  0
  -21.1484   -6.0522   25.9077 H   0  0  0  0  0  0
  -22.0599   -2.7607   23.2845 H   0  0  0  0  0  0
  -22.4143  -11.9880   22.4752 H   0  0  0  0  0  0
  -21.1147  -13.1259   22.2597 H   0  0  0  0  0  0
  -24.6754  -15.8457   20.5253 H   0  0  0  0  0  0
  -26.2955  -15.6233   20.0972 H   0  0  0  0  0  0
  -26.7086  -32.5562   23.1172 H   0  0  0  0  0  0
  -25.0059  -33.9804   25.0512 H   0  0  0  0  0  0
  -22.6817  -31.3106   21.4137 H   0  0  0  0  0  0
  -23.3766  -35.9618   23.3258 H   0  0  0  0  0  0
  -24.3597  -36.8947   22.2056 H   0  0  0  0  0  0
  -23.7206  -37.6492   23.6654 H   0  0  0  0  0  0
  -26.0243  -31.6189   20.5880 H   0  0  0  0  0  0
  -26.8103  -30.9055   21.9688 H   0  0  0  0  0  0
  -28.0962  -29.1610   21.1250 H   0  0  0  0  0  0
  -26.0612  -25.9937   19.0013 H   0  0  0  0  0  0
  -23.9742  -27.2890   19.0514 H   0  0  0  0  0  0
  -23.7013  -30.5993   19.4039 H   0  0  0  0  0  0
  -22.7257  -29.2398   19.8736 H   0  0  0  0  0  0
  -25.1266  -36.1978   25.0842 H   0  0  0  0  0  0
  -20.9945  -28.3207   24.1445 H   0  0  0  0  0  0
  -20.5654  -26.2251   23.3592 H   0  0  0  0  0  0
  -21.6634  -26.7431   22.1201 H   0  0  0  0  0  0
  -19.6911  -25.6307   21.1211 H   0  0  0  0  0  0
  -19.6702  -27.3218   20.6753 H   0  0  0  0  0  0
  -17.4193  -26.6674   21.4014 H   0  0  0  0  0  0
  -18.0320  -26.0070   22.9002 H   0  0  0  0  0  0
  -19.7929  -30.7246   24.2285 H   0  0  0  0  0  0
  -17.5018  -31.6261   24.5169 H   0  0  0  0  0  0
  -15.5348  -30.3003   23.7654 H   0  0  0  0  0  0
  -15.8650  -28.0845   22.7041 H   0  0  0  0  0  0
  -24.5919  -30.7035   25.7803 H   0  0  0  0  0  0
  -24.8948  -32.2832   26.4940 H   0  0  0  0  0  0
  -25.8120  -30.8830   27.0208 H   0  0  0  0  0  0
  -26.2802  -29.6813   24.1121 H   0  0  0  0  0  0
  -27.4149  -29.7280   25.4435 H   0  0  0  0  0  0
  -27.8598  -30.4406   23.9097 H   0  0  0  0  0  0
  -27.2672  -33.3578   26.2093 H   0  0  0  0  0  0
  -28.3827  -32.6888   25.0259 H   0  0  0  0  0  0
  -28.0757  -31.8389   26.5331 H   0  0  0  0  0  0
  -28.2539  -38.0154   24.7611 H   0  0  0  0  0  0
  -28.1169  -36.2691   24.6125 H   0  0  0  0  0  0
  -27.2339  -37.1239   25.8857 H   0  0  0  0  0  0
  -20.9253  -29.8758   21.6974 H   0  0  0  0  0  0
  -26.0171  -38.2873   24.1518 H   0  0  0  0  0  0
  -28.3278  -19.2640   21.9311 H   0  0  0  0  0  0
  -28.2574  -16.8105   22.0003 H   0  0  0  0  0  0
  -32.5277  -16.6670   21.3271 H   0  0  0  0  0  0
  -28.9957  -21.3167   22.7986 H   0  0  0  0  0  0
  -30.5993  -21.2045   23.4919 H   0  0  0  0  0  0
  -30.5085  -20.6720   19.3373 H   0  0  0  0  0  0
  -28.9375  -20.9524   20.0566 H   0  0  0  0  0  0
  -31.3149  -23.2716   22.3730 H   0  0  0  0  0  0
  -29.8193  -23.5783   23.2296 H   0  0  0  0  0  0
  -29.7129  -23.0304   19.0202 H   0  0  0  0  0  0
  -31.2487  -22.9498   19.8511 H   0  0  0  0  0  0
  -33.8242  -18.6386   21.2088 H   0  0  0  0  0  0
  -33.1580  -20.0933   21.9496 H   0  0  0  0  0  0
  -32.9857  -19.8317   20.2113 H   0  0  0  0  0  0
  -29.5646  -25.4264   21.8869 H   0  0  0  0  0  0
  -30.5479  -25.2653   20.4528 H   0  0  0  0  0  0
  -27.4960  -25.0186   20.5735 H   0  0  0  0  0  0
  -28.4338  -25.0123   19.0758 H   0  0  0  0  0  0
  -29.4670  -14.7628   22.0867 H   0  0  0  0  0  0
  -28.6618  -23.1709   21.1900 H   0  0  0  0  0  0
  1 25  1  0  0  0
  1 30  2  0  0  0
  1 85  1  0  0  0
  2  3  1  0  0  0
  2 25  1  0  0  0
  2 87  1  0  0  0
  2 88  1  0  0  0
  3  4  1  0  0  0
  3 89  1  0  0  0
  3 90  1  0  0  0
  4  5  1  0  0  0
  4 91  1  0  0  0
  4 92  1  0  0  0
  5  6  1  0  0  0
  5 26  1  0  0  0
  5 93  1  0  0  0
  6 25  1  0  0  0
  6 94  1  0  0  0
  6 95  1  0  0  0
  7  8  2  0  0  0
  7 26  1  0  0  0
  7 29  1  0  0  0
  8  9  1  0  0  0
  8 22  1  0  0  0
  9 10  1  0  0  0
  9 27  2  0  0  0
 10 11  2  0  0  0
 10 15  1  0  0  0
 11 12  1  0  0  0
 11 96  1  0  0  0
 12 13  2  0  0  0
 12 97  1  0  0  0
 13 14  1  0  0  0
 13 31  1  0  0  0
 14 15  2  0  0  0
 14 98  1  0  0  0
 15 99  1  0  0  0
 16 17  2  0  0  0
 16 21  1  0  0  0
 16 31  1  0  0  0
 17 18  1  0  0  0
 17100  1  0  0  0
 18 19  2  0  0  0
 18101  1  0  0  0
 19 20  1  0  0  0
 19 24  1  0  0  0
 20 21  2  0  0  0
 20102  1  0  0  0
 21 23  1  0  0  0
 22 28  1  0  0  0
 22 32  2  0  0  0
 26 27  1  0  0  0
 28103  1  0  0  0
 28104  1  0  0  0
 29105  1  0  0  0
 29106  1  0  0  0
 33 34  1  0  0  0
 33 66  1  0  0  0
 33 70  2  0  0  0
 34 36  1  0  0  0
 34 59  1  0  0  0
 34107  1  0  0  0
 35 44  2  0  0  0
 35 45  1  0  0  0
 35 68  1  0  0  0
 36 56  1  0  0  0
 36108  1  0  0  0
 37 39  1  0  0  0
 37 47  1  0  0  0
 37 66  1  0  0  0
 37109  1  0  0  0
 38 43  2  0  0  0
 38 46  1  0  0  0
 38 47  1  0  0  0
 39 64  1  0  0  0
 39 67  2  0  0  0
 40 52  1  0  0  0
 40 53  2  0  0  0
 40 58  1  0  0  0
 41110  1  0  0  0
 41111  1  0  0  0
 41112  1  0  0  0
 41 48  1  0  0  0
 42 43  1  0  0  0
 42 66  1  0  0  0
 42113  1  0  0  0
 42114  1  0  0  0
 43 44  1  0  0  0
 44115  1  0  0  0
 45 46  2  0  0  0
 45116  1  0  0  0
 46117  1  0  0  0
 47118  1  0  0  0
 47119  1  0  0  0
 48 56  1  0  0  0
 48 65  1  0  0  0
 48120  1  0  0  0
 49 50  1  0  0  0
 49 53  1  0  0  0
 49 64  1  0  0  0
 49121  1  0  0  0
 50 51  1  0  0  0
 50122  1  0  0  0
 50123  1  0  0  0
 51 52  1  0  0  0
 51124  1  0  0  0
 51125  1  0  0  0
 52126  1  0  0  0
 52127  1  0  0  0
 53 54  1  0  0  0
 54 55  2  0  0  0
 54128  1  0  0  0
 55 57  1  0  0  0
 55129  1  0  0  0
 56 69  2  0  0  0
 57 58  2  0  0  0
 57130  1  0  0  0
 58131  1  0  0  0
 59 60  1  0  0  0
 59 61  1  0  0  0
 59 62  1  0  0  0
 60132  1  0  0  0
 60133  1  0  0  0
 60134  1  0  0  0
 61135  1  0  0  0
 61136  1  0  0  0
 61137  1  0  0  0
 62138  1  0  0  0
 62139  1  0  0  0
 62140  1  0  0  0
 63 65  1  0  0  0
 63141  1  0  0  0
 63142  1  0  0  0
 63143  1  0  0  0
 64144  1  0  0  0
 65145  1  0  0  0
 68 83  1  0  0  0
 71 72  2  0  0  0
 71 75  1  0  0  0
 71146  1  0  0  0
 72 76  1  0  0  0
 72147  1  0  0  0
 73 74  1  0  0  0
 73 76  2  0  0  0
 73148  1  0  0  0
 74 75  2  0  0  0
 74 81  1  0  0  0
 75 84  1  0  0  0
 76 85  1  0  0  0
 77 79  1  0  0  0
 77 84  1  0  0  0
 77149  1  0  0  0
 77150  1  0  0  0
 78 80  1  0  0  0
 78 84  1  0  0  0
 78151  1  0  0  0
 78152  1  0  0  0
 79 86  1  0  0  0
 79153  1  0  0  0
 79154  1  0  0  0
 80 86  1  0  0  0
 80155  1  0  0  0
 80156  1  0  0  0
 81157  1  0  0  0
 81158  1  0  0  0
 81159  1  0  0  0
 82 83  1  0  0  0
 82160  1  0  0  0
 82161  1  0  0  0
 82 86  1  0  0  0
 83162  1  0  0  0
 83163  1  0  0  0
 85164  1  0  0  0
 86165  1  0  0  0
M  CHG  1  86   1
M  ISO  4   1 100  68 101  83 101  85 100
M  END
> <chiral flag>
0

> <version>
0

> <s_m_source_file>
/data/baiqing/PycharmProjects/Reinvent-master-3.2/result/LINK_invent/BTK/process_docking_weight1_custom_product_contain_oxygen_bond_distance_aromatic_linkinvent_7_9_3/rearranged_h_0000.sdf

> <i_m_source_file_index>
44

> <r_mmod_Potential_Energy-OPLS-2005>
-81.8627090454102

> <r_mmod_Stretch_Energy-OPLS-2005>
31.9839191436768

> <r_mmod_Bend_Energy-OPLS-2005>
92.3943405151367

> <r_mmod_Torsional_Energy-OPLS-2005>
301.717315673828

> <r_mmod_Improper_Torsional_Energy-OPLS-2005>
7.80664777755737

> <r_mmod_Van_der_Waal_Energy-OPLS-2005>
169.664657592773

> <r_mmod_Electrostatic_Energy-OPLS-2005>
-269.071075439453

> <r_mmod_Solvation_Energy-OPLS-2005>
-423.939636230469

> <b_mmod_Minimization_Converged-OPLS-2005>
0

> <r_mmod_RMS_Derivative-OPLS-2005>
1.40076148509979

$$$$
44
                    3D
 Structure written by MMmdl.
147155  0  0  1  0            999 V2000
  -30.3225  -15.5752   20.3474 C   0  0  0  0  0  0
  -30.4397  -13.0340   19.5489 C   0  0  0  0  0  0
  -29.5599  -12.6553   18.3236 C   0  0  0  0  0  0
  -28.1205  -12.3186   18.7472 C   0  0  0  0  0  0
  -27.6054  -13.3069   19.8197 C   0  0  2  0  0  0
  -28.6268  -13.5974   20.9449 C   0  0  0  0  0  0
  -25.2360  -13.8274   20.5781 C   0  0  0  0  0  0
  -24.1734  -13.0424   20.9233 C   0  0  0  0  0  0
  -24.6435  -11.6937   20.8726 C   0  0  0  0  0  0
  -23.9125  -10.4295   21.0376 C   0  0  0  0  0  0
  -24.3665   -9.4213   21.9166 C   0  0  0  0  0  0
  -23.6325   -8.2256   22.0757 C   0  0  0  0  0  0
  -22.4304   -8.0294   21.3548 C   0  0  0  0  0  0
  -21.9938   -9.0265   20.4649 C   0  0  0  0  0  0
  -22.7280  -10.2133   20.3042 C   0  0  0  0  0  0
  -21.6860   -6.0740   22.5277 C   0  0  0  0  0  0
  -21.4025   -6.5635   23.8213 C   0  0  0  0  0  0
  -21.3671   -5.6785   24.9172 C   0  0  0  0  0  0
  -21.6050   -4.3049   24.7216 C   0  0  0  0  0  0
  -21.8813   -3.8142   23.4333 C   0  0  0  0  0  0
  -21.9194   -4.6966   22.3393 C   0  0  0  0  0  0
  -22.7752  -13.5176   21.1869 C   0  0  0  0  0  0
  -22.1665   -4.2150   21.0971 F   0  0  0  0  0  0
  -21.5633   -3.4532   25.7733 F   0  0  0  0  0  0
  -29.8172  -14.2066   20.3059 N   0  0  0  0  0  0
  -26.2825  -12.9611   20.3239 N   0  0  0  0  0  0
  -25.9387  -11.6678   20.5671 N   0  0  0  0  0  0
  -22.0415  -12.8192   22.0442 N   0  0  0  0  0  0
  -25.3915  -15.2029   20.4319 N   0  0  0  0  0  0
  -31.5537  -15.5519   20.1579 O   0  0  0  0  0  0
  -21.6653   -6.8898   21.4252 O   0  0  0  0  0  0
  -22.3432  -14.5460   20.6673 O   0  0  0  0  0  0
  -24.6815  -31.8037   23.1542 C   0  0  0  0  0  0
  -25.9401  -32.4491   23.8087 C   0  0  1  0  0  0
  -27.2278  -26.7202   20.2024 C   0  0  0  0  0  0
  -25.5992  -33.8318   24.1964 N   0  0  0  0  0  0
  -23.5086  -30.4063   21.5075 C   0  0  2  0  0  0
  -24.9698  -28.7573   20.1149 C   0  0  0  0  0  0
  -22.7768  -29.4331   22.4717 C   0  0  0  0  0  0
  -18.0344  -28.1435   22.8451 C   0  0  0  0  0  0
  -24.1506  -36.7170   23.2648 C   0  0  0  0  0  0
  -26.0891  -30.5401   21.4228 C   0  0  0  0  0  0
  -26.1564  -29.1067   20.7720 C   0  0  0  0  0  0
  -27.2679  -28.1119   20.7936 C   0  0  0  0  0  0
  -26.0124  -26.5907   19.4803 C   0  0  0  0  0  0
  -24.9368  -27.5252   19.4452 C   0  0  0  0  0  0
  -23.7642  -29.7077   20.1415 C   0  0  0  0  0  0
  -25.4151  -36.2912   24.0281 C   0  0  1  0  0  0
  -20.5977  -28.3793   23.1158 C   0  0  2  0  0  0
  -20.6813  -26.9447   22.5439 C   0  0  0  0  0  0
  -19.5794  -26.6371   21.5245 C   0  0  0  0  0  0
  -18.1964  -26.7964   22.1616 C   0  0  0  0  0  0
  -19.1606  -28.8936   23.2781 C   0  0  0  0  0  0
  -18.9507  -30.1519   23.8828 C   0  0  0  0  0  0
  -17.6493  -30.6608   24.0551 C   0  0  0  0  0  0
  -25.9122  -34.9301   23.4950 C   0  0  0  0  0  0
  -16.5385  -29.9085   23.6353 C   0  0  0  0  0  0
  -16.7319  -28.6515   23.0353 C   0  0  0  0  0  0
  -26.4568  -31.6515   25.0705 C   0  0  0  0  0  0
  -25.3633  -31.3886   26.1333 C   0  0  0  0  0  0
  -27.0456  -30.2823   24.6633 C   0  0  0  0  0  0
  -27.6041  -32.4350   25.7515 C   0  0  0  0  0  0
  -27.5583  -37.1736   24.8439 C   0  0  0  0  0  0
  -21.4424  -29.3025   22.3464 N   0  0  0  0  0  0
  -26.4277  -37.3669   23.9406 N   0  0  0  0  0  0
  -24.7827  -30.9492   22.0805 N   0  0  0  0  0  0
  -23.4225  -28.7941   23.3061 O   0  0  0  0  0  0
  -28.1629  -25.4800   20.2692 O   0  0  0  0  0  0
  -26.5743  -34.8866   22.4556 O   0  0  0  0  0  0
  -23.5831  -32.1108   23.6499 O   0  0  0  0  0  0
  -29.8671  -21.3119   20.3929 C   0  0  0  0  0  0
  -30.2220  -19.8083   20.4232 C   0  0  0  0  0  0
  -27.7290  -20.7753   20.1957 C   0  0  0  0  0  0
  -28.5489  -22.0153   20.2766 C   0  0  0  0  0  0
  -29.3508  -18.5891   20.3523 C   0  0  0  0  0  0
  -28.0537  -19.2840   20.2196 C   0  0  0  0  0  0
  -27.7899  -23.6900   20.2156 C   0  0  0  0  0  0
  -25.8991  -18.7468   19.3280 C   0  0  0  0  0  0
  -29.4933  -16.8779   20.4158 N   0  0  0  0  0  0
  -26.5717  -23.5383   20.1047 O   0  0  0  0  0  0
  -27.0296  -18.3697   20.1030 O   0  0  0  0  0  0
  -31.4376  -13.2926   19.1947 H   0  0  0  0  0  0
  -30.5869  -12.1758   20.2065 H   0  0  0  0  0  0
  -30.0040  -11.8210   17.7784 H   0  0  0  0  0  0
  -29.5413  -13.4978   17.6310 H   0  0  0  0  0  0
  -28.1156  -11.3053   19.1492 H   0  0  0  0  0  0
  -27.4598  -12.3080   17.8793 H   0  0  0  0  0  0
  -27.4798  -14.2452   19.2779 H   0  0  0  0  0  0
  -28.8674  -12.6993   21.5153 H   0  0  0  0  0  0
  -28.2054  -14.3042   21.6600 H   0  0  0  0  0  0
  -25.2818   -9.5684   22.4727 H   0  0  0  0  0  0
  -24.0023   -7.4655   22.7487 H   0  0  0  0  0  0
  -21.0858   -8.8785   19.8971 H   0  0  0  0  0  0
  -22.3745  -10.9659   19.6139 H   0  0  0  0  0  0
  -21.2027   -7.6145   23.9717 H   0  0  0  0  0  0
  -21.1505   -6.0518   25.9078 H   0  0  0  0  0  0
  -22.0585   -2.7604   23.2822 H   0  0  0  0  0  0
  -22.4056  -11.9903   22.4896 H   0  0  0  0  0  0
  -21.1016  -13.1215   22.2596 H   0  0  0  0  0  0
  -24.6172  -15.8422   20.5701 H   0  0  0  0  0  0
  -26.2410  -15.6654   20.1380 H   0  0  0  0  0  0
  -26.7493  -32.4979   23.0813 H   0  0  0  0  0  0
  -25.0051  -33.9387   25.0053 H   0  0  0  0  0  0
  -22.8325  -31.2427   21.3198 H   0  0  0  0  0  0
  -23.3796  -35.9468   23.3228 H   0  0  0  0  0  0
  -24.3592  -36.8911   22.2081 H   0  0  0  0  0  0
  -23.7242  -37.6319   23.6768 H   0  0  0  0  0  0
  -26.2908  -31.2700   20.6374 H   0  0  0  0  0  0
  -26.9391  -30.6091   22.0891 H   0  0  0  0  0  0
  -28.1575  -28.3778   21.3472 H   0  0  0  0  0  0
  -25.8464  -25.6660   18.9486 H   0  0  0  0  0  0
  -24.0457  -27.2542   18.8951 H   0  0  0  0  0  0
  -23.9343  -30.4693   19.3799 H   0  0  0  0  0  0
  -22.8716  -29.1695   19.8182 H   0  0  0  0  0  0
  -25.1363  -36.1671   25.0772 H   0  0  0  0  0  0
  -21.0050  -28.3433   24.1286 H   0  0  0  0  0  0
  -20.5685  -26.2415   23.3710 H   0  0  0  0  0  0
  -21.6682  -26.7400   22.1261 H   0  0  0  0  0  0
  -19.6950  -25.6261   21.1330 H   0  0  0  0  0  0
  -19.6753  -27.3137   20.6744 H   0  0  0  0  0  0
  -17.4258  -26.6731   21.3992 H   0  0  0  0  0  0
  -18.0303  -26.0130   22.9025 H   0  0  0  0  0  0
  -19.7984  -30.7352   24.2168 H   0  0  0  0  0  0
  -17.5043  -31.6283   24.5170 H   0  0  0  0  0  0
  -15.5378  -30.2947   23.7735 H   0  0  0  0  0  0
  -15.8731  -28.0816   22.7082 H   0  0  0  0  0  0
  -24.5890  -30.7115   25.7698 H   0  0  0  0  0  0
  -24.8731  -32.3121   26.4432 H   0  0  0  0  0  0
  -25.7827  -30.9336   27.0316 H   0  0  0  0  0  0
  -26.3150  -29.6459   24.1627 H   0  0  0  0  0  0
  -27.3822  -29.7269   25.5399 H   0  0  0  0  0  0
  -27.9177  -30.3883   24.0179 H   0  0  0  0  0  0
  -27.2600  -33.3724   26.1895 H   0  0  0  0  0  0
  -28.3958  -32.6784   25.0416 H   0  0  0  0  0  0
  -28.0576  -31.8603   26.5602 H   0  0  0  0  0  0
  -28.2534  -38.0091   24.7526 H   0  0  0  0  0  0
  -28.1145  -36.2623   24.6196 H   0  0  0  0  0  0
  -27.2316  -37.1289   25.8841 H   0  0  0  0  0  0
  -20.9719  -29.8662   21.6525 H   0  0  0  0  0  0
  -26.0108  -38.2712   24.1441 H   0  0  0  0  0  0
  -30.7151  -21.9780   20.4742 H   0  0  0  0  0  0
  -31.2789  -19.6053   20.5190 H   0  0  0  0  0  0
  -26.6791  -21.0060   20.1110 H   0  0  0  0  0  0
  -25.3777  -17.8529   18.9844 H   0  0  0  0  0  0
  -26.1901  -19.3156   18.4421 H   0  0  0  0  0  0
  -25.1956  -19.3341   19.9193 H   0  0  0  0  0  0
  -28.5527  -16.5296   20.5292 H   0  0  0  0  0  0
  1 25  1  0  0  0
  1 30  2  0  0  0
  1 79  1  0  0  0
  2  3  1  0  0  0
  2 25  1  0  0  0
  2 82  1  0  0  0
  2 83  1  0  0  0
  3  4  1  0  0  0
  3 84  1  0  0  0
  3 85  1  0  0  0
  4  5  1  0  0  0
  4 86  1  0  0  0
  4 87  1  0  0  0
  5  6  1  0  0  0
  5 26  1  0  0  0
  5 88  1  0  0  0
  6 25  1  0  0  0
  6 89  1  0  0  0
  6 90  1  0  0  0
  7  8  2  0  0  0
  7 26  1  0  0  0
  7 29  1  0  0  0
  8  9  1  0  0  0
  8 22  1  0  0  0
  9 10  1  0  0  0
  9 27  2  0  0  0
 10 11  2  0  0  0
 10 15  1  0  0  0
 11 12  1  0  0  0
 11 91  1  0  0  0
 12 13  2  0  0  0
 12 92  1  0  0  0
 13 14  1  0  0  0
 13 31  1  0  0  0
 14 15  2  0  0  0
 14 93  1  0  0  0
 15 94  1  0  0  0
 16 17  2  0  0  0
 16 21  1  0  0  0
 16 31  1  0  0  0
 17 18  1  0  0  0
 17 95  1  0  0  0
 18 19  2  0  0  0
 18 96  1  0  0  0
 19 20  1  0  0  0
 19 24  1  0  0  0
 20 21  2  0  0  0
 20 97  1  0  0  0
 21 23  1  0  0  0
 22 28  1  0  0  0
 22 32  2  0  0  0
 26 27  1  0  0  0
 28 98  1  0  0  0
 28 99  1  0  0  0
 29100  1  0  0  0
 29101  1  0  0  0
 33 34  1  0  0  0
 33 66  1  0  0  0
 33 70  2  0  0  0
 34 36  1  0  0  0
 34 59  1  0  0  0
 34102  1  0  0  0
 35 44  2  0  0  0
 35 45  1  0  0  0
 35 68  1  0  0  0
 36 56  1  0  0  0
 36103  1  0  0  0
 37 39  1  0  0  0
 37 47  1  0  0  0
 37 66  1  0  0  0
 37104  1  0  0  0
 38 43  2  0  0  0
 38 46  1  0  0  0
 38 47  1  0  0  0
 39 64  1  0  0  0
 39 67  2  0  0  0
 40 52  1  0  0  0
 40 53  2  0  0  0
 40 58  1  0  0  0
 41105  1  0  0  0
 41106  1  0  0  0
 41107  1  0  0  0
 41 48  1  0  0  0
 42 43  1  0  0  0
 42 66  1  0  0  0
 42108  1  0  0  0
 42109  1  0  0  0
 43 44  1  0  0  0
 44110  1  0  0  0
 45 46  2  0  0  0
 45111  1  0  0  0
 46112  1  0  0  0
 47113  1  0  0  0
 47114  1  0  0  0
 48 56  1  0  0  0
 48 65  1  0  0  0
 48115  1  0  0  0
 49 50  1  0  0  0
 49 53  1  0  0  0
 49 64  1  0  0  0
 49116  1  0  0  0
 50 51  1  0  0  0
 50117  1  0  0  0
 50118  1  0  0  0
 51 52  1  0  0  0
 51119  1  0  0  0
 51120  1  0  0  0
 52121  1  0  0  0
 52122  1  0  0  0
 53 54  1  0  0  0
 54 55  2  0  0  0
 54123  1  0  0  0
 55 57  1  0  0  0
 55124  1  0  0  0
 56 69  2  0  0  0
 57 58  2  0  0  0
 57125  1  0  0  0
 58126  1  0  0  0
 59 60  1  0  0  0
 59 61  1  0  0  0
 59 62  1  0  0  0
 60127  1  0  0  0
 60128  1  0  0  0
 60129  1  0  0  0
 61130  1  0  0  0
 61131  1  0  0  0
 61132  1  0  0  0
 62133  1  0  0  0
 62134  1  0  0  0
 62135  1  0  0  0
 63 65  1  0  0  0
 63136  1  0  0  0
 63137  1  0  0  0
 63138  1  0  0  0
 64139  1  0  0  0
 65140  1  0  0  0
 68 77  1  0  0  0
 71 72  2  0  0  0
 71 74  1  0  0  0
 71141  1  0  0  0
 72 75  1  0  0  0
 72142  1  0  0  0
 73 74  2  0  0  0
 73 76  1  0  0  0
 73143  1  0  0  0
 74 77  1  0  0  0
 75 76  2  0  0  0
 75 79  1  0  0  0
 76 81  1  0  0  0
 77 80  2  0  0  0
 78 81  1  0  0  0
 78144  1  0  0  0
 78145  1  0  0  0
 78146  1  0  0  0
 79147  1  0  0  0
M  ISO  4   1 100  68 101  77 101  79 100
M  END
> <chiral flag>
0

> <version>
0

> <s_m_source_file>
/data/baiqing/PycharmProjects/Reinvent-master-3.2/result/LINK_invent/BTK/process_docking_weight1_custom_product_contain_oxygen_bond_distance_aromatic_linkinvent_7_9_3/rearranged_h_0000.sdf

> <i_m_source_file_index>
45

> <r_mmod_Potential_Energy-OPLS-2005>
2283.82397460938

> <r_mmod_Stretch_Energy-OPLS-2005>
978.019836425781

> <r_mmod_Bend_Energy-OPLS-2005>
708.277465820312

> <r_mmod_Torsional_Energy-OPLS-2005>
218.078659057617

> <r_mmod_Improper_Torsional_Energy-OPLS-2005>
3.46524596214294

> <r_mmod_Van_der_Waal_Energy-OPLS-2005>
137.492858886719

> <r_mmod_Electrostatic_Energy-OPLS-2005>
-389.259826660156

> <r_mmod_Solvation_Energy-OPLS-2005>
-212.952453613281

> <b_mmod_Minimization_Converged-OPLS-2005>
0

> <r_mmod_RMS_Derivative-OPLS-2005>
2.13009643554688

$$$$
45
                    3D
 Structure written by MMmdl.
144151  0  0  1  0            999 V2000
  -30.4369  -15.2511   20.3767 C   0  0  0  0  0  0
  -30.4407  -12.8036   19.5103 C   0  0  0  0  0  0
  -29.5321  -12.5695   18.2777 C   0  0  0  0  0  0
  -28.0806  -12.2958   18.7105 C   0  0  0  0  0  0
  -27.6107  -13.2711   19.8186 C   0  0  2  0  0  0
  -28.6480  -13.4407   20.9474 C   0  0  0  0  0  0
  -25.2393  -13.8238   20.5742 C   0  0  0  0  0  0
  -24.1743  -13.0431   20.9260 C   0  0  0  0  0  0
  -24.6395  -11.6928   20.8764 C   0  0  0  0  0  0
  -23.9090  -10.4290   21.0409 C   0  0  0  0  0  0
  -24.3635   -9.4203   21.9186 C   0  0  0  0  0  0
  -23.6303   -8.2241   22.0755 C   0  0  0  0  0  0
  -22.4284   -8.0282   21.3545 C   0  0  0  0  0  0
  -21.9926   -9.0257   20.4646 C   0  0  0  0  0  0
  -22.7261  -10.2132   20.3056 C   0  0  0  0  0  0
  -21.6855   -6.0737   22.5279 C   0  0  0  0  0  0
  -21.4016   -6.5641   23.8212 C   0  0  0  0  0  0
  -21.3660   -5.6793   24.9174 C   0  0  0  0  0  0
  -21.6044   -4.3056   24.7225 C   0  0  0  0  0  0
  -21.8819   -3.8148   23.4346 C   0  0  0  0  0  0
  -21.9193   -4.6965   22.3402 C   0  0  0  0  0  0
  -22.7761  -13.5187   21.1906 C   0  0  0  0  0  0
  -22.1661   -4.2150   21.0980 F   0  0  0  0  0  0
  -21.5628   -3.4540   25.7737 F   0  0  0  0  0  0
  -29.8748  -13.9472   20.3118 N   0  0  0  0  0  0
  -26.2814  -12.9504   20.3207 N   0  0  0  0  0  0
  -25.9329  -11.6614   20.5719 N   0  0  0  0  0  0
  -22.0419  -12.8169   22.0460 N   0  0  0  0  0  0
  -25.4019  -15.1973   20.4173 N   0  0  0  0  0  0
  -31.6652  -15.2598   20.2187 O   0  0  0  0  0  0
  -21.6644   -6.8882   21.4242 O   0  0  0  0  0  0
  -22.3441  -14.5488   20.6746 O   0  0  0  0  0  0
  -24.6622  -31.8245   23.1706 C   0  0  0  0  0  0
  -25.9306  -32.4593   23.8170 C   0  0  1  0  0  0
  -27.2187  -26.9359   20.1919 C   0  0  0  0  0  0
  -25.5976  -33.8406   24.2077 N   0  0  0  0  0  0
  -23.4761  -30.4358   21.5204 C   0  0  2  0  0  0
  -24.9283  -28.8193   20.1193 C   0  0  0  0  0  0
  -22.7660  -29.4449   22.4794 C   0  0  0  0  0  0
  -18.0321  -28.1408   22.8468 C   0  0  0  0  0  0
  -24.1493  -36.7209   23.2648 C   0  0  0  0  0  0
  -26.0446  -30.6350   21.3978 C   0  0  0  0  0  0
  -26.1136  -29.2235   20.7468 C   0  0  0  0  0  0
  -27.2569  -28.3054   20.7517 C   0  0  0  0  0  0
  -26.0019  -26.6767   19.5243 C   0  0  0  0  0  0
  -24.8966  -27.5655   19.4877 C   0  0  0  0  0  0
  -23.7155  -29.7482   20.1484 C   0  0  0  0  0  0
  -25.4134  -36.2970   24.0300 C   0  0  1  0  0  0
  -20.5944  -28.3752   23.1192 C   0  0  2  0  0  0
  -20.6798  -26.9435   22.5403 C   0  0  0  0  0  0
  -19.5772  -26.6378   21.5214 C   0  0  0  0  0  0
  -18.1954  -26.7942   22.1623 C   0  0  0  0  0  0
  -19.1582  -28.8901   23.2817 C   0  0  0  0  0  0
  -18.9493  -30.1491   23.8852 C   0  0  0  0  0  0
  -17.6486  -30.6598   24.0556 C   0  0  0  0  0  0
  -25.9098  -34.9353   23.5010 C   0  0  0  0  0  0
  -16.5376  -29.9085   23.6343 C   0  0  0  0  0  0
  -16.7303  -28.6506   23.0363 C   0  0  0  0  0  0
  -26.4559  -31.6536   25.0696 C   0  0  0  0  0  0
  -25.3687  -31.3784   26.1354 C   0  0  0  0  0  0
  -27.0455  -30.2904   24.6421 C   0  0  0  0  0  0
  -27.6050  -32.4345   25.7500 C   0  0  0  0  0  0
  -27.5569  -37.1762   24.8467 C   0  0  0  0  0  0
  -21.4331  -29.3044   22.3542 N   0  0  0  0  0  0
  -26.4280  -37.3705   23.9407 N   0  0  0  0  0  0
  -24.7491  -30.9919   22.0835 N   0  0  0  0  0  0
  -23.4211  -28.8021   23.3034 O   0  0  0  0  0  0
  -28.2432  -25.8546   20.1976 O   0  0  0  0  0  0
  -26.5710  -34.8888   22.4606 O   0  0  0  0  0  0
  -23.5694  -32.1209   23.6807 O   0  0  0  0  0  0
  -29.9032  -18.1505   20.6487 C   0  0  0  0  0  0
  -29.0916  -19.6523   20.0641 C   0  0  0  0  0  0
  -28.0410  -24.2465   20.5108 C   0  0  0  0  0  0
  -28.7182  -22.6665   19.9472 C   0  0  0  0  0  0
  -29.6593  -16.5123   20.4191 N   0  0  0  0  0  0
  -28.9892  -21.1936   20.6301 O   0  0  0  0  0  0
  -31.4561  -13.0183   19.1742 H   0  0  0  0  0  0
  -30.5160  -11.9000   20.1175 H   0  0  0  0  0  0
  -29.9090  -11.7401   17.6776 H   0  0  0  0  0  0
  -29.5601  -13.4510   17.6352 H   0  0  0  0  0  0
  -28.0368  -11.2719   19.0838 H   0  0  0  0  0  0
  -27.4101  -12.3372   17.8514 H   0  0  0  0  0  0
  -27.5259  -14.2383   19.3215 H   0  0  0  0  0  0
  -28.8185  -12.5046   21.4812 H   0  0  0  0  0  0
  -28.2924  -14.1615   21.6855 H   0  0  0  0  0  0
  -25.2776   -9.5679   22.4767 H   0  0  0  0  0  0
  -24.0007   -7.4633   22.7477 H   0  0  0  0  0  0
  -21.0856   -8.8780   19.8952 H   0  0  0  0  0  0
  -22.3719  -10.9674   19.6169 H   0  0  0  0  0  0
  -21.2009   -7.6149   23.9716 H   0  0  0  0  0  0
  -21.1482   -6.0524   25.9077 H   0  0  0  0  0  0
  -22.0597   -2.7610   23.2846 H   0  0  0  0  0  0
  -22.4051  -11.9839   22.4851 H   0  0  0  0  0  0
  -21.1031  -13.1176   22.2665 H   0  0  0  0  0  0
  -24.6298  -15.8453   20.5309 H   0  0  0  0  0  0
  -26.2396  -15.6403   20.0642 H   0  0  0  0  0  0
  -26.7377  -32.5137   23.0887 H   0  0  0  0  0  0
  -25.0070  -33.9485   25.0192 H   0  0  0  0  0  0
  -22.7891  -31.2670   21.3485 H   0  0  0  0  0  0
  -23.3765  -35.9530   23.3283 H   0  0  0  0  0  0
  -24.3569  -36.8881   22.2067 H   0  0  0  0  0  0
  -23.7242  -37.6387   23.6720 H   0  0  0  0  0  0
  -26.2213  -31.3747   20.6158 H   0  0  0  0  0  0
  -26.9062  -30.6947   22.0510 H   0  0  0  0  0  0
  -28.1614  -28.6200   21.2530 H   0  0  0  0  0  0
  -25.8841  -25.7202   19.0350 H   0  0  0  0  0  0
  -23.9962  -27.2498   18.9788 H   0  0  0  0  0  0
  -23.8728  -30.5146   19.3885 H   0  0  0  0  0  0
  -22.8250  -29.2028   19.8311 H   0  0  0  0  0  0
  -25.1332  -36.1767   25.0791 H   0  0  0  0  0  0
  -21.0032  -28.3358   24.1316 H   0  0  0  0  0  0
  -20.5680  -26.2370   23.3642 H   0  0  0  0  0  0
  -21.6662  -26.7414   22.1208 H   0  0  0  0  0  0
  -19.6931  -25.6277   21.1274 H   0  0  0  0  0  0
  -19.6710  -27.3164   20.6724 H   0  0  0  0  0  0
  -17.4222  -26.6685   21.4027 H   0  0  0  0  0  0
  -18.0350  -26.0095   22.9030 H   0  0  0  0  0  0
  -19.7968  -30.7320   24.2201 H   0  0  0  0  0  0
  -17.5037  -31.6274   24.5166 H   0  0  0  0  0  0
  -15.5375  -30.2973   23.7693 H   0  0  0  0  0  0
  -15.8704  -28.0808   22.7105 H   0  0  0  0  0  0
  -24.5885  -30.7117   25.7664 H   0  0  0  0  0  0
  -24.8859  -32.2984   26.4657 H   0  0  0  0  0  0
  -25.7920  -30.9033   27.0213 H   0  0  0  0  0  0
  -26.3120  -29.6580   24.1408 H   0  0  0  0  0  0
  -27.3971  -29.7268   25.5074 H   0  0  0  0  0  0
  -27.9066  -30.4088   23.9841 H   0  0  0  0  0  0
  -27.2619  -33.3690   26.1952 H   0  0  0  0  0  0
  -28.3927  -32.6835   25.0377 H   0  0  0  0  0  0
  -28.0645  -31.8555   26.5522 H   0  0  0  0  0  0
  -28.2572  -38.0071   24.7508 H   0  0  0  0  0  0
  -28.1079  -36.2597   24.6302 H   0  0  0  0  0  0
  -27.2284  -37.1414   25.8869 H   0  0  0  0  0  0
  -20.9586  -29.8729   21.6666 H   0  0  0  0  0  0
  -26.0128  -38.2764   24.1412 H   0  0  0  0  0  0
  -29.8343  -18.2328   21.7336 H   0  0  0  0  0  0
  -30.9655  -18.2990   20.4516 H   0  0  0  0  0  0
  -28.0459  -19.3727   19.9349 H   0  0  0  0  0  0
  -29.4521  -19.7769   19.0427 H   0  0  0  0  0  0
  -28.2693  -24.2286   21.5764 H   0  0  0  0  0  0
  -26.9610  -24.1021   20.4918 H   0  0  0  0  0  0
  -29.7032  -22.9230   19.5574 H   0  0  0  0  0  0
  -28.1449  -22.4326   19.0499 H   0  0  0  0  0  0
  -28.6725  -16.2975   20.4101 H   0  0  0  0  0  0
  1 25  1  0  0  0
  1 30  2  0  0  0
  1 75  1  0  0  0
  2  3  1  0  0  0
  2 25  1  0  0  0
  2 77  1  0  0  0
  2 78  1  0  0  0
  3  4  1  0  0  0
  3 79  1  0  0  0
  3 80  1  0  0  0
  4  5  1  0  0  0
  4 81  1  0  0  0
  4 82  1  0  0  0
  5  6  1  0  0  0
  5 26  1  0  0  0
  5 83  1  0  0  0
  6 25  1  0  0  0
  6 84  1  0  0  0
  6 85  1  0  0  0
  7  8  2  0  0  0
  7 26  1  0  0  0
  7 29  1  0  0  0
  8  9  1  0  0  0
  8 22  1  0  0  0
  9 10  1  0  0  0
  9 27  2  0  0  0
 10 11  2  0  0  0
 10 15  1  0  0  0
 11 12  1  0  0  0
 11 86  1  0  0  0
 12 13  2  0  0  0
 12 87  1  0  0  0
 13 14  1  0  0  0
 13 31  1  0  0  0
 14 15  2  0  0  0
 14 88  1  0  0  0
 15 89  1  0  0  0
 16 17  2  0  0  0
 16 21  1  0  0  0
 16 31  1  0  0  0
 17 18  1  0  0  0
 17 90  1  0  0  0
 18 19  2  0  0  0
 18 91  1  0  0  0
 19 20  1  0  0  0
 19 24  1  0  0  0
 20 21  2  0  0  0
 20 92  1  0  0  0
 21 23  1  0  0  0
 22 28  1  0  0  0
 22 32  2  0  0  0
 26 27  1  0  0  0
 28 93  1  0  0  0
 28 94  1  0  0  0
 29 95  1  0  0  0
 29 96  1  0  0  0
 33 34  1  0  0  0
 33 66  1  0  0  0
 33 70  2  0  0  0
 34 36  1  0  0  0
 34 59  1  0  0  0
 34 97  1  0  0  0
 35 44  2  0  0  0
 35 45  1  0  0  0
 35 68  1  0  0  0
 36 56  1  0  0  0
 36 98  1  0  0  0
 37 39  1  0  0  0
 37 47  1  0  0  0
 37 66  1  0  0  0
 37 99  1  0  0  0
 38 43  2  0  0  0
 38 46  1  0  0  0
 38 47  1  0  0  0
 39 64  1  0  0  0
 39 67  2  0  0  0
 40 52  1  0  0  0
 40 53  2  0  0  0
 40 58  1  0  0  0
 41100  1  0  0  0
 41101  1  0  0  0
 41102  1  0  0  0
 41 48  1  0  0  0
 42 43  1  0  0  0
 42 66  1  0  0  0
 42103  1  0  0  0
 42104  1  0  0  0
 43 44  1  0  0  0
 44105  1  0  0  0
 45 46  2  0  0  0
 45106  1  0  0  0
 46107  1  0  0  0
 47108  1  0  0  0
 47109  1  0  0  0
 48 56  1  0  0  0
 48 65  1  0  0  0
 48110  1  0  0  0
 49 50  1  0  0  0
 49 53  1  0  0  0
 49 64  1  0  0  0
 49111  1  0  0  0
 50 51  1  0  0  0
 50112  1  0  0  0
 50113  1  0  0  0
 51 52  1  0  0  0
 51114  1  0  0  0
 51115  1  0  0  0
 52116  1  0  0  0
 52117  1  0  0  0
 53 54  1  0  0  0
 54 55  2  0  0  0
 54118  1  0  0  0
 55 57  1  0  0  0
 55119  1  0  0  0
 56 69  2  0  0  0
 57 58  2  0  0  0
 57120  1  0  0  0
 58121  1  0  0  0
 59 60  1  0  0  0
 59 61  1  0  0  0
 59 62  1  0  0  0
 60122  1  0  0  0
 60123  1  0  0  0
 60124  1  0  0  0
 61125  1  0  0  0
 61126  1  0  0  0
 61127  1  0  0  0
 62128  1  0  0  0
 62129  1  0  0  0
 62130  1  0  0  0
 63 65  1  0  0  0
 63131  1  0  0  0
 63132  1  0  0  0
 63133  1  0  0  0
 64134  1  0  0  0
 65135  1  0  0  0
 68 73  1  0  0  0
 71 72  1  0  0  0
 71 75  1  0  0  0
 71136  1  0  0  0
 71137  1  0  0  0
 72 76  1  0  0  0
 72138  1  0  0  0
 72139  1  0  0  0
 73 74  1  0  0  0
 73140  1  0  0  0
 73141  1  0  0  0
 74 76  1  0  0  0
 74142  1  0  0  0
 74143  1  0  0  0
 75144  1  0  0  0
M  ISO  4   1 100  68 101  73 101  75 100
M  END
> <chiral flag>
0

> <version>
0

> <s_m_source_file>
/data/baiqing/PycharmProjects/Reinvent-master-3.2/result/LINK_invent/BTK/process_docking_weight1_custom_product_contain_oxygen_bond_distance_aromatic_linkinvent_7_9_3/rearranged_h_0000.sdf

> <i_m_source_file_index>
46

> <r_mmod_Potential_Energy-OPLS-2005>
1272.39196777344

> <r_mmod_Stretch_Energy-OPLS-2005>
620.559265136719

> <r_mmod_Bend_Energy-OPLS-2005>
470.408538818359

> <r_mmod_Torsional_Energy-OPLS-2005>
228.680725097656

> <r_mmod_Improper_Torsional_Energy-OPLS-2005>
4.08042764663696

> <r_mmod_Van_der_Waal_Energy-OPLS-2005>
109.728851318359

> <r_mmod_Electrostatic_Energy-OPLS-2005>
-380.777038574219

> <r_mmod_Solvation_Energy-OPLS-2005>
-221.878372192383

> <b_mmod_Minimization_Converged-OPLS-2005>
0

> <r_mmod_RMS_Derivative-OPLS-2005>
0.0835052877664566

$$$$
46
                    3D
 Structure written by MMmdl.
174183  0  0  1  0            999 V2000
  -29.1981  -14.3192   20.9072 C   0  0  0  0  0  0
  -30.5590  -12.5650   19.5602 C   0  0  0  0  0  0
  -29.7830  -12.2617   18.2113 C   0  0  0  0  0  0
  -28.3045  -11.7388   18.4242 C   0  0  0  0  0  0
  -27.7832  -12.3038   19.7432 C   0  0  2  0  0  0
  -28.7238  -12.0653   20.9310 C   0  0  0  0  0  0
  -25.3639  -14.1818   20.5990 C   0  0  0  0  0  0
  -24.5741  -13.7112   20.8023 C   0  0  0  0  0  0
  -25.4357  -11.9718   20.6435 C   0  0  0  0  0  0
  -24.6660  -10.5179   20.9401 C   0  0  0  0  0  0
  -25.2327   -8.8586   21.0444 C   0  0  0  0  0  0
  -24.0946   -7.5304   21.2822 C   0  0  0  0  0  0
  -22.3573   -7.6950   21.4308 C   0  0  0  0  0  0
  -21.4662   -9.1537   21.4238 C   0  0  0  0  0  0
  -22.2658  -10.6812   21.2771 C   0  0  0  0  0  0
  -21.6149   -5.9245   22.5580 C   0  0  0  0  0  0
  -21.3553   -6.4787   23.8296 C   0  0  0  0  0  0
  -21.3558   -5.6282   24.9461 C   0  0  0  0  0  0
  -21.6094   -4.2533   24.7725 C   0  0  0  0  0  0
  -21.8956   -3.7268   23.4996 C   0  0  0  0  0  0
  -21.9036   -4.5736   22.3881 C   0  0  0  0  0  0
  -23.0232  -14.3511   21.0874 C   0  0  0  0  0  0
  -22.1661   -4.1029   21.1439 F   0  0  0  0  0  0
  -21.5751   -3.4248   25.8369 F   0  0  0  0  0  0
  -29.6816  -13.0589   20.6882 N   0  0  0  0  0  0
  -26.3337  -12.7048   20.1379 N   0  0  0  0  0  0
  -26.1223  -11.5411   19.8549 N   0  0  0  0  0  0
  -22.0724  -13.8394   21.9194 N   0  0  0  0  0  0
  -25.4039  -15.6041   20.8479 N   0  0  0  0  0  0
  -30.1418  -15.1193   20.6002 O   0  0  0  0  0  0
  -21.5609   -6.6382   21.4270 O   0  0  0  0  0  0
  -22.5570  -15.2010   20.3624 O   0  0  0  0  0  0
  -24.6116  -31.8708   23.2131 C   0  0  0  0  0  0
  -25.9024  -32.4835   23.8417 C   0  0  1  0  0  0
  -27.2359  -27.4704   20.0878 C   0  0  0  0  0  0
  -25.5894  -33.8633   24.2347 N   0  0  0  0  0  0
  -23.3978  -30.4945   21.5536 C   0  0  2  0  0  0
  -24.8450  -28.9639   20.1197 C   0  0  0  0  0  0
  -22.7389  -29.4670   22.5011 C   0  0  0  0  0  0
  -18.0265  -28.1369   22.8495 C   0  0  0  0  0  0
  -24.1479  -36.7319   23.2640 C   0  0  0  0  0  0
  -25.9236  -30.8458   21.3625 C   0  0  0  0  0  0
  -26.0037  -29.4821   20.7133 C   0  0  0  0  0  0
  -27.2068  -28.7436   20.6952 C   0  0  0  0  0  0
  -26.0635  -26.9599   19.4897 C   0  0  0  0  0  0
  -24.8666  -27.6986   19.5080 C   0  0  0  0  0  0
  -23.6055  -29.8274   20.1682 C   0  0  0  0  0  0
  -25.4099  -36.3116   24.0341 C   0  0  1  0  0  0
  -20.5852  -28.3652   23.1327 C   0  0  2  0  0  0
  -20.6754  -26.9391   22.5420 C   0  0  0  0  0  0
  -19.5738  -26.6379   21.5213 C   0  0  0  0  0  0
  -18.1915  -26.7914   22.1625 C   0  0  0  0  0  0
  -19.1513  -28.8829   23.2907 C   0  0  0  0  0  0
  -18.9446  -30.1436   23.8914 C   0  0  0  0  0  0
  -17.6452  -30.6581   24.0563 C   0  0  0  0  0  0
  -25.9029  -34.9482   23.5138 C   0  0  0  0  0  0
  -16.5342  -29.9087   23.6325 C   0  0  0  0  0  0
  -16.7255  -28.6500   23.0350 C   0  0  0  0  0  0
  -26.4471  -31.6599   25.0727 C   0  0  0  0  0  0
  -25.3754  -31.3689   26.1486 C   0  0  0  0  0  0
  -27.0311  -30.3051   24.6075 C   0  0  0  0  0  0
  -27.6044  -32.4318   25.7496 C   0  0  0  0  0  0
  -27.5573  -37.1813   24.8465 C   0  0  0  0  0  0
  -21.4120  -29.3029   22.3745 N   0  0  0  0  0  0
  -26.4285  -37.3799   23.9412 N   0  0  0  0  0  0
  -24.6624  -31.0837   22.1018 N   0  0  0  0  0  0
  -23.4177  -28.8211   23.3037 O   0  0  0  0  0  0
  -28.3956  -26.7410   20.0051 O   0  0  0  0  0  0
  -26.5590  -34.8930   22.4697 O   0  0  0  0  0  0
  -23.5319  -32.1451   23.7546 O   0  0  0  0  0  0
  -23.2187   -9.2506   19.9042 C   0  0  0  0  0  0
  -23.5467   -9.4271   22.5132 C   0  0  0  0  0  0
  -23.1404  -10.6786   19.0565 C   0  0  0  0  0  0
  -23.7941  -10.8845   23.1853 C   0  0  0  0  0  0
  -23.3502  -12.1264   19.8291 C   0  0  0  0  0  0
  -23.9221  -12.1939   22.2667 C   0  0  0  0  0  0
  -27.6397  -14.9430   17.6692 C   0  0  0  0  0  0
  -28.5525  -20.8847   20.1294 C   0  0  0  0  0  0
  -28.5207  -25.6360   20.7672 C   0  0  0  0  0  0
  -24.7042  -13.3477   18.4504 C   0  0  0  0  0  0
  -26.1702  -13.2804   22.5694 C   0  0  0  0  0  0
  -26.7716  -14.6291   18.9190 C   0  0  1  0  0  0
  -29.2420  -22.1752   19.6666 C   0  0  0  0  0  0
  -29.3049  -24.5211   20.0688 C   0  0  0  0  0  0
  -28.1235  -17.5664   19.5700 C   0  0  0  0  0  0
  -29.0399  -17.0250   18.4528 C   0  0  0  0  0  0
  -28.8464  -18.4629   20.5950 C   0  0  0  0  0  0
  -27.6246  -14.3905   21.0325 N   0  0  0  0  0  0
  -28.5373  -15.9474   17.5805 N   0  0  0  0  0  0
  -29.2633  -19.7530   20.0529 N   0  0  0  0  0  0
  -27.4519  -14.2596   16.6665 O   0  0  0  0  0  0
  -27.4016  -20.9147   20.5746 O   0  0  0  0  0  0
  -27.9882  -25.4617   21.8693 O   0  0  0  0  0  0
  -28.7244  -23.2678   20.4147 O   0  0  0  0  0  0
  -31.3590  -13.2809   19.3642 H   0  0  0  0  0  0
  -31.0760  -11.6634   19.8945 H   0  0  0  0  0  0
  -30.3466  -11.5484   17.6081 H   0  0  0  0  0  0
  -29.7718  -13.1734   17.6161 H   0  0  0  0  0  0
  -28.3245  -10.6514   18.5099 H   0  0  0  0  0  0
  -27.6615  -11.9409   17.5657 H   0  0  0  0  0  0
  -28.1387  -13.0849   19.1895 H   0  0  0  0  0  0
  -29.1516  -11.0624   20.8727 H   0  0  0  0  0  0
  -28.3073  -12.1057   21.9274 H   0  0  0  0  0  0
  -26.2860   -8.6539   20.9230 H   0  0  0  0  0  0
  -24.4991   -6.5284   21.2930 H   0  0  0  0  0  0
  -20.3908   -9.1197   21.5118 H   0  0  0  0  0  0
  -21.6241  -11.5493   21.3018 H   0  0  0  0  0  0
  -21.1320   -7.5295   23.9445 H   0  0  0  0  0  0
  -21.1426   -6.0202   25.9304 H   0  0  0  0  0  0
  -22.0986   -2.6736   23.3799 H   0  0  0  0  0  0
  -22.3196  -13.0445   22.4941 H   0  0  0  0  0  0
  -21.1455  -14.2373   21.9586 H   0  0  0  0  0  0
  -24.5982  -16.1625   21.1022 H   0  0  0  0  0  0
  -26.2817  -16.0946   20.9488 H   0  0  0  0  0  0
  -26.7100  -32.5565   23.1192 H   0  0  0  0  0  0
  -25.0046  -33.9801   25.0492 H   0  0  0  0  0  0
  -22.6849  -31.3100   21.4163 H   0  0  0  0  0  0
  -23.3730  -35.9664   23.3323 H   0  0  0  0  0  0
  -24.3572  -36.8912   22.2051 H   0  0  0  0  0  0
  -23.7244  -37.6536   23.6640 H   0  0  0  0  0  0
  -26.0308  -31.6116   20.5934 H   0  0  0  0  0  0
  -26.8135  -30.9014   21.9773 H   0  0  0  0  0  0
  -28.1067  -29.1454   21.1395 H   0  0  0  0  0  0
  -26.0799  -25.9936   19.0050 H   0  0  0  0  0  0
  -23.9773  -27.2946   19.0442 H   0  0  0  0  0  0
  -23.7125  -30.6033   19.4091 H   0  0  0  0  0  0
  -22.7303  -29.2463   19.8718 H   0  0  0  0  0  0
  -25.1273  -36.1985   25.0834 H   0  0  0  0  0  0
  -20.9941  -28.3212   24.1449 H   0  0  0  0  0  0
  -20.5652  -26.2261   23.3604 H   0  0  0  0  0  0
  -21.6627  -26.7437   22.1218 H   0  0  0  0  0  0
  -19.6899  -25.6295   21.1231 H   0  0  0  0  0  0
  -19.6675  -27.3199   20.6752 H   0  0  0  0  0  0
  -17.4182  -26.6656   21.4028 H   0  0  0  0  0  0
  -18.0321  -26.0052   22.9021 H   0  0  0  0  0  0
  -19.7927  -30.7238   24.2290 H   0  0  0  0  0  0
  -17.5015  -31.6264   24.5156 H   0  0  0  0  0  0
  -15.5345  -30.2998   23.7638 H   0  0  0  0  0  0
  -15.8650  -28.0825   22.7060 H   0  0  0  0  0  0
  -24.5903  -30.7066   25.7820 H   0  0  0  0  0  0
  -24.8983  -32.2848   26.4983 H   0  0  0  0  0  0
  -25.8123  -30.8814   27.0211 H   0  0  0  0  0  0
  -26.2854  -29.6803   24.1145 H   0  0  0  0  0  0
  -27.4120  -29.7283   25.4515 H   0  0  0  0  0  0
  -27.8666  -30.4385   23.9199 H   0  0  0  0  0  0
  -27.2646  -33.3586   26.2130 H   0  0  0  0  0  0
  -28.3831  -32.6930   25.0317 H   0  0  0  0  0  0
  -28.0742  -31.8413   26.5372 H   0  0  0  0  0  0
  -28.2594  -38.0107   24.7510 H   0  0  0  0  0  0
  -28.1063  -36.2639   24.6289 H   0  0  0  0  0  0
  -27.2295  -37.1464   25.8870 H   0  0  0  0  0  0
  -20.9270  -29.8771   21.6992 H   0  0  0  0  0  0
  -26.0172  -38.2876   24.1421 H   0  0  0  0  0  0
  -23.1152   -8.3657   19.2801 H   0  0  0  0  0  0
  -23.5850   -8.6355   23.2593 H   0  0  0  0  0  0
  -23.0998  -10.6465   17.9777 H   0  0  0  0  0  0
  -24.1135  -10.9211   24.2172 H   0  0  0  0  0  0
  -24.0335  -14.0483   17.9526 H   0  0  0  0  0  0
  -24.9669  -12.6603   17.6448 H   0  0  0  0  0  0
  -26.7481  -12.5721   23.1604 H   0  0  0  0  0  0
  -25.9692  -14.0566   23.3101 H   0  0  0  0  0  0
  -26.4110  -15.6516   18.8149 H   0  0  0  0  0  0
  -29.0517  -22.3160   18.6014 H   0  0  0  0  0  0
  -30.3205  -22.0976   19.8105 H   0  0  0  0  0  0
  -30.3509  -24.5549   20.3738 H   0  0  0  0  0  0
  -29.2640  -24.6698   18.9887 H   0  0  0  0  0  0
  -27.2605  -18.0828   19.1479 H   0  0  0  0  0  0
  -27.7343  -16.7482   20.1549 H   0  0  0  0  0  0
  -30.0052  -16.7224   18.8496 H   0  0  0  0  0  0
  -29.2835  -17.8621   17.7976 H   0  0  0  0  0  0
  -29.7278  -17.9504   20.9826 H   0  0  0  0  0  0
  -28.1990  -18.6132   21.4621 H   0  0  0  0  0  0
  -28.9714  -15.9731   16.6672 H   0  0  0  0  0  0
  -30.2004  -19.8191   19.6766 H   0  0  0  0  0  0
  1 25  1  0  0  0
  1 30  2  0  0  0
  1 88  1  0  0  0
  2  3  1  0  0  0
  2 25  1  0  0  0
  2 95  1  0  0  0
  2 96  1  0  0  0
  3  4  1  0  0  0
  3 97  1  0  0  0
  3 98  1  0  0  0
  4  5  1  0  0  0
  4 99  1  0  0  0
  4100  1  0  0  0
  5  6  1  0  0  0
  5 26  1  0  0  0
  5101  1  0  0  0
  6 25  1  0  0  0
  6102  1  0  0  0
  6103  1  0  0  0
  7  8  2  0  0  0
  7 26  1  0  0  0
  7 29  1  0  0  0
  8  9  1  0  0  0
  8 22  1  0  0  0
  9 10  1  0  0  0
  9 27  2  0  0  0
 10 11  2  0  0  0
 10 15  1  0  0  0
 11 12  1  0  0  0
 11104  1  0  0  0
 12 13  2  0  0  0
 12105  1  0  0  0
 13 14  1  0  0  0
 13 31  1  0  0  0
 14 15  2  0  0  0
 14106  1  0  0  0
 15107  1  0  0  0
 16 17  2  0  0  0
 16 21  1  0  0  0
 16 31  1  0  0  0
 17 18  1  0  0  0
 17108  1  0  0  0
 18 19  2  0  0  0
 18109  1  0  0  0
 19 20  1  0  0  0
 19 24  1  0  0  0
 20 21  2  0  0  0
 20110  1  0  0  0
 21 23  1  0  0  0
 22 28  1  0  0  0
 22 32  2  0  0  0
 26 27  1  0  0  0
 28111  1  0  0  0
 28112  1  0  0  0
 29113  1  0  0  0
 29114  1  0  0  0
 33 34  1  0  0  0
 33 66  1  0  0  0
 33 70  2  0  0  0
 34 36  1  0  0  0
 34 59  1  0  0  0
 34115  1  0  0  0
 35 44  2  0  0  0
 35 45  1  0  0  0
 35 68  1  0  0  0
 36 56  1  0  0  0
 36116  1  0  0  0
 37 39  1  0  0  0
 37 47  1  0  0  0
 37 66  1  0  0  0
 37117  1  0  0  0
 38 43  2  0  0  0
 38 46  1  0  0  0
 38 47  1  0  0  0
 39 64  1  0  0  0
 39 67  2  0  0  0
 40 52  1  0  0  0
 40 53  2  0  0  0
 40 58  1  0  0  0
 41118  1  0  0  0
 41119  1  0  0  0
 41120  1  0  0  0
 41 48  1  0  0  0
 42 43  1  0  0  0
 42 66  1  0  0  0
 42121  1  0  0  0
 42122  1  0  0  0
 43 44  1  0  0  0
 44123  1  0  0  0
 45 46  2  0  0  0
 45124  1  0  0  0
 46125  1  0  0  0
 47126  1  0  0  0
 47127  1  0  0  0
 48 56  1  0  0  0
 48 65  1  0  0  0
 48128  1  0  0  0
 49 50  1  0  0  0
 49 53  1  0  0  0
 49 64  1  0  0  0
 49129  1  0  0  0
 50 51  1  0  0  0
 50130  1  0  0  0
 50131  1  0  0  0
 51 52  1  0  0  0
 51132  1  0  0  0
 51133  1  0  0  0
 52134  1  0  0  0
 52135  1  0  0  0
 53 54  1  0  0  0
 54 55  2  0  0  0
 54136  1  0  0  0
 55 57  1  0  0  0
 55137  1  0  0  0
 56 69  2  0  0  0
 57 58  2  0  0  0
 57138  1  0  0  0
 58139  1  0  0  0
 59 60  1  0  0  0
 59 61  1  0  0  0
 59 62  1  0  0  0
 60140  1  0  0  0
 60141  1  0  0  0
 60142  1  0  0  0
 61143  1  0  0  0
 61144  1  0  0  0
 61145  1  0  0  0
 62146  1  0  0  0
 62147  1  0  0  0
 62148  1  0  0  0
 63 65  1  0  0  0
 63149  1  0  0  0
 63150  1  0  0  0
 63151  1  0  0  0
 64152  1  0  0  0
 65153  1  0  0  0
 68 79  1  0  0  0
 71 72  2  0  0  0
 71 73  1  0  0  0
 71154  1  0  0  0
 72 74  1  0  0  0
 72155  1  0  0  0
 73 75  2  0  0  0
 73156  1  0  0  0
 74 76  2  0  0  0
 74157  1  0  0  0
 75 76  1  0  0  0
 75 80  1  0  0  0
 76 81  1  0  0  0
 77 89  1  0  0  0
 77 91  2  0  0  0
 77 82  1  0  0  0
 78 83  1  0  0  0
 78 90  1  0  0  0
 78 92  2  0  0  0
 79 84  1  0  0  0
 79 93  2  0  0  0
 80 82  1  0  0  0
 80158  1  0  0  0
 80159  1  0  0  0
 81 88  1  0  0  0
 81160  1  0  0  0
 81161  1  0  0  0
 82 88  1  0  0  0
 82162  1  0  0  0
 83 94  1  0  0  0
 83163  1  0  0  0
 83164  1  0  0  0
 84 94  1  0  0  0
 84165  1  0  0  0
 84166  1  0  0  0
 85 86  1  0  0  0
 85 87  1  0  0  0
 85167  1  0  0  0
 85168  1  0  0  0
 86 89  1  0  0  0
 86169  1  0  0  0
 86170  1  0  0  0
 87 90  1  0  0  0
 87171  1  0  0  0
 87172  1  0  0  0
 89173  1  0  0  0
 90174  1  0  0  0
M  ISO  4   1 100  68 101  79 101  88 100
M  END
> <chiral flag>
0

> <version>
0

> <s_m_source_file>
/data/baiqing/PycharmProjects/Reinvent-master-3.2/result/LINK_invent/BTK/process_docking_weight1_custom_product_contain_oxygen_bond_distance_aromatic_linkinvent_7_9_3/rearranged_h_0000.sdf

> <i_m_source_file_index>
47

> <r_mmod_Potential_Energy-OPLS-2005>
26507.541015625

> <r_mmod_Stretch_Energy-OPLS-2005>
16212.75

> <r_mmod_Bend_Energy-OPLS-2005>
1114.97412109375

> <r_mmod_Torsional_Energy-OPLS-2005>
568.658081054688

> <r_mmod_Improper_Torsional_Energy-OPLS-2005>
73.195182800293

> <r_mmod_Van_der_Waal_Energy-OPLS-2005>
7183.67578125

> <r_mmod_Electrostatic_Energy-OPLS-2005>
-392.422119140625

> <r_mmod_Solvation_Energy-OPLS-2005>
-270.986541748047

> <b_mmod_Minimization_Converged-OPLS-2005>
0

> <r_mmod_RMS_Derivative-OPLS-2005>
2.76507449150085

$$$$
47
                    3D
 Structure written by MMmdl.
187195  0  0  1  0            999 V2000
  -30.7332  -14.4152   20.6378 C   0  0  0  0  0  0
  -30.4302  -12.2791   19.4020 C   0  0  0  0  0  0
  -29.4959  -12.5315   18.2020 C   0  0  0  0  0  0
  -28.0174  -12.3816   18.6147 C   0  0  0  0  0  0
  -27.6704  -13.1966   19.8886 C   0  0  2  0  0  0
  -28.7044  -12.9319   21.0082 C   0  0  0  0  0  0
  -25.2626  -13.8151   20.5647 C   0  0  0  0  0  0
  -24.1879  -13.0459   20.9152 C   0  0  0  0  0  0
  -24.6415  -11.6911   20.8713 C   0  0  0  0  0  0
  -23.9087  -10.4310   21.0386 C   0  0  0  0  0  0
  -24.3641   -9.4246   21.9174 C   0  0  0  0  0  0
  -23.6325   -8.2277   22.0744 C   0  0  0  0  0  0
  -22.4309   -8.0321   21.3535 C   0  0  0  0  0  0
  -21.9935   -9.0290   20.4646 C   0  0  0  0  0  0
  -22.7256  -10.2164   20.3055 C   0  0  0  0  0  0
  -21.6885   -6.0770   22.5269 C   0  0  0  0  0  0
  -21.4047   -6.5662   23.8214 C   0  0  0  0  0  0
  -21.3639   -5.6809   24.9166 C   0  0  0  0  0  0
  -21.6040   -4.3071   24.7219 C   0  0  0  0  0  0
  -21.8818   -3.8168   23.4338 C   0  0  0  0  0  0
  -21.9201   -4.6982   22.3400 C   0  0  0  0  0  0
  -22.7902  -13.5276   21.1809 C   0  0  0  0  0  0
  -22.1657   -4.2170   21.0971 F   0  0  0  0  0  0
  -21.5612   -3.4555   25.7725 F   0  0  0  0  0  0
  -30.0427  -13.2094   20.4632 N   0  0  0  0  0  0
  -26.3061  -12.9297   20.3382 N   0  0  0  0  0  0
  -25.9327  -11.6460   20.5742 N   0  0  0  0  0  0
  -22.0580  -12.8251   22.0362 N   0  0  0  0  0  0
  -25.4374  -15.1871   20.3981 N   0  0  0  0  0  0
  -31.7905  -14.7259   20.0851 O   0  0  0  0  0  0
  -21.6668   -6.8914   21.4245 O   0  0  0  0  0  0
  -22.3569  -14.5583   20.6670 O   0  0  0  0  0  0
  -24.6128  -31.8704   23.2091 C   0  0  0  0  0  0
  -25.9036  -32.4813   23.8371 C   0  0  1  0  0  0
  -27.2435  -27.4735   20.0701 C   0  0  0  0  0  0
  -25.5906  -33.8610   24.2311 N   0  0  0  0  0  0
  -23.3984  -30.4921   21.5500 C   0  0  2  0  0  0
  -24.8463  -28.9567   20.1200 C   0  0  0  0  0  0
  -22.7411  -29.4659   22.4999 C   0  0  0  0  0  0
  -18.0278  -28.1380   22.8487 C   0  0  0  0  0  0
  -24.1494  -36.7314   23.2634 C   0  0  0  0  0  0
  -25.9263  -30.8364   21.3643 C   0  0  0  0  0  0
  -26.0027  -29.4718   20.7192 C   0  0  0  0  0  0
  -27.2068  -28.7362   20.6995 C   0  0  0  0  0  0
  -26.0762  -26.9623   19.4722 C   0  0  0  0  0  0
  -24.8738  -27.6957   19.4987 C   0  0  0  0  0  0
  -23.6042  -29.8169   20.1675 C   0  0  0  0  0  0
  -25.4114  -36.3104   24.0324 C   0  0  1  0  0  0
  -20.5864  -28.3654   23.1335 C   0  0  2  0  0  0
  -20.6769  -26.9380   22.5434 C   0  0  0  0  0  0
  -19.5756  -26.6371   21.5223 C   0  0  0  0  0  0
  -18.1937  -26.7919   22.1633 C   0  0  0  0  0  0
  -19.1525  -28.8835   23.2904 C   0  0  0  0  0  0
  -18.9448  -30.1452   23.8900 C   0  0  0  0  0  0
  -17.6445  -30.6584   24.0556 C   0  0  0  0  0  0
  -25.9047  -34.9472   23.5116 C   0  0  0  0  0  0
  -16.5340  -29.9085   23.6317 C   0  0  0  0  0  0
  -16.7262  -28.6505   23.0336 C   0  0  0  0  0  0
  -26.4470  -31.6592   25.0708 C   0  0  0  0  0  0
  -25.3731  -31.3691   26.1452 C   0  0  0  0  0  0
  -27.0316  -30.3036   24.6091 C   0  0  0  0  0  0
  -27.6051  -32.4301   25.7477 C   0  0  0  0  0  0
  -27.5577  -37.1813   24.8468 C   0  0  0  0  0  0
  -21.4135  -29.3020   22.3737 N   0  0  0  0  0  0
  -26.4307  -37.3783   23.9386 N   0  0  0  0  0  0
  -24.6629  -31.0825   22.0976 N   0  0  0  0  0  0
  -23.4207  -28.8204   23.3016 O   0  0  0  0  0  0
  -28.3910  -26.7337   19.9484 O   0  0  0  0  0  0
  -26.5617  -34.8923   22.4688 O   0  0  0  0  0  0
  -23.5324  -32.1445   23.7517 O   0  0  0  0  0  0
  -32.8126  -23.2455   20.9086 C   0  0  0  0  0  0
  -32.7068  -22.1172   20.4548 C   0  0  0  0  0  0
  -30.3672  -17.2133   17.0415 C   0  0  0  0  0  0
  -31.6120  -17.3007   17.6783 C   0  0  0  0  0  0
  -29.4151  -18.2299   17.2249 C   0  0  0  0  0  0
  -31.9043  -18.4122   18.4852 C   0  0  0  0  0  0
  -29.6719  -19.3504   18.0557 C   0  0  0  0  0  0
  -30.9592  -19.4555   18.6686 C   0  0  0  0  0  0
  -28.5931  -22.4433   19.7137 C   0  0  0  0  0  0
  -32.5947  -20.7722   19.8706 C   0  0  0  0  0  0
  -28.5478  -22.8927   21.1877 C   0  0  0  0  0  0
  -29.1788  -26.5616   21.1151 C   0  0  0  0  0  0
  -29.5425  -16.4676   20.8497 C   0  0  0  0  0  0
  -29.5576  -25.0755   21.1552 C   0  0  0  0  0  0
  -29.7323  -17.6697   21.7958 C   0  0  0  0  0  0
  -27.4872  -18.2548   22.3917 C   0  0  0  0  0  0
  -26.4076  -19.3303   22.2073 C   0  0  0  0  0  0
  -25.1616  -20.4115   20.4883 C   0  0  0  0  0  0
  -24.9810  -20.4321   18.9597 C   0  0  0  0  0  0
  -27.1297  -19.8854   18.0484 C   0  0  0  0  0  0
  -28.5717  -20.4304   18.2194 C   0  0  1  0  0  0
  -28.6136  -21.1199   19.5107 N   0  0  0  0  0  0
  -28.5921  -23.2653   18.7927 O   0  0  0  0  0  0
  -31.2598  -20.5753   19.4178 O   0  0  0  0  0  0
  -30.0362  -15.2603   21.4156 O   0  0  0  0  0  0
  -28.3695  -24.3040   21.3253 O   0  0  0  0  0  0
  -28.6724  -18.6230   21.6810 O   0  0  0  0  0  0
  -26.0445  -19.3550   20.8371 O   0  0  0  0  0  0
  -26.1671  -20.9027   18.3266 O   0  0  0  0  0  0
  -31.4757  -12.4009   19.1127 H   0  0  0  0  0  0
  -30.3348  -11.2526   19.7594 H   0  0  0  0  0  0
  -29.7306  -11.8496   17.3846 H   0  0  0  0  0  0
  -29.6666  -13.5370   17.8105 H   0  0  0  0  0  0
  -27.8160  -11.3232   18.7832 H   0  0  0  0  0  0
  -27.3700  -12.6859   17.7934 H   0  0  0  0  0  0
  -27.7301  -14.2505   19.6153 H   0  0  0  0  0  0
  -28.6620  -11.8893   21.3282 H   0  0  0  0  0  0
  -28.4728  -13.5179   21.8999 H   0  0  0  0  0  0
  -25.2785   -9.5747   22.4743 H   0  0  0  0  0  0
  -24.0063   -7.4675   22.7454 H   0  0  0  0  0  0
  -21.0875   -8.8822   19.8938 H   0  0  0  0  0  0
  -22.3728  -10.9717   19.6179 H   0  0  0  0  0  0
  -21.2083   -7.6173   23.9720 H   0  0  0  0  0  0
  -21.1435   -6.0541   25.9063 H   0  0  0  0  0  0
  -22.0617   -2.7631   23.2841 H   0  0  0  0  0  0
  -22.4267  -11.9913   22.4682 H   0  0  0  0  0  0
  -21.1189  -13.1216   22.2598 H   0  0  0  0  0  0
  -24.6759  -15.8483   20.4997 H   0  0  0  0  0  0
  -26.2706  -15.6044   20.0069 H   0  0  0  0  0  0
  -26.7117  -32.5532   23.1141 H   0  0  0  0  0  0
  -25.0013  -33.9760   25.0418 H   0  0  0  0  0  0
  -22.6819  -31.3042   21.4091 H   0  0  0  0  0  0
  -23.3750  -35.9664   23.3341 H   0  0  0  0  0  0
  -24.3573  -36.8893   22.2044 H   0  0  0  0  0  0
  -23.7280  -37.6535   23.6636 H   0  0  0  0  0  0
  -26.0459  -31.5959   20.5908 H   0  0  0  0  0  0
  -26.8140  -30.8891   21.9843 H   0  0  0  0  0  0
  -28.1054  -29.1500   21.1336 H   0  0  0  0  0  0
  -26.1046  -25.9984   18.9824 H   0  0  0  0  0  0
  -23.9853  -27.2951   19.0296 H   0  0  0  0  0  0
  -23.7005  -30.5873   19.4010 H   0  0  0  0  0  0
  -22.7324  -29.2250   19.8809 H   0  0  0  0  0  0
  -25.1305  -36.1958   25.0820 H   0  0  0  0  0  0
  -20.9950  -28.3238   24.1461 H   0  0  0  0  0  0
  -20.5691  -26.2244   23.3623 H   0  0  0  0  0  0
  -21.6640  -26.7433   22.1216 H   0  0  0  0  0  0
  -19.6918  -25.6290   21.1252 H   0  0  0  0  0  0
  -19.6715  -27.3192   20.6771 H   0  0  0  0  0  0
  -17.4191  -26.6642   21.4052 H   0  0  0  0  0  0
  -18.0351  -26.0075   22.9051 H   0  0  0  0  0  0
  -19.7923  -30.7279   24.2257 H   0  0  0  0  0  0
  -17.4997  -31.6269   24.5162 H   0  0  0  0  0  0
  -15.5345  -30.2990   23.7640 H   0  0  0  0  0  0
  -15.8662  -28.0848   22.7025 H   0  0  0  0  0  0
  -24.5891  -30.7062   25.7757 H   0  0  0  0  0  0
  -24.8945  -32.2859   26.4915 H   0  0  0  0  0  0
  -25.8075  -30.8822   27.0197 H   0  0  0  0  0  0
  -26.2881  -29.6786   24.1140 H   0  0  0  0  0  0
  -27.4083  -29.7258   25.4538 H   0  0  0  0  0  0
  -27.8705  -30.4326   23.9249 H   0  0  0  0  0  0
  -27.2669  -33.3568   26.2111 H   0  0  0  0  0  0
  -28.3851  -32.6908   25.0314 H   0  0  0  0  0  0
  -28.0746  -31.8396   26.5353 H   0  0  0  0  0  0
  -28.2627  -38.0076   24.7480 H   0  0  0  0  0  0
  -28.1045  -36.2614   24.6360 H   0  0  0  0  0  0
  -27.2285  -37.1534   25.8867 H   0  0  0  0  0  0
  -20.9295  -29.8706   21.6928 H   0  0  0  0  0  0
  -26.0209  -38.2869   24.1362 H   0  0  0  0  0  0
  -32.9191  -24.2366   21.2934 H   0  0  0  0  0  0
  -30.1427  -16.3665   16.4078 H   0  0  0  0  0  0
  -32.3477  -16.5203   17.5440 H   0  0  0  0  0  0
  -28.4809  -18.1216   16.6945 H   0  0  0  0  0  0
  -32.8767  -18.4360   18.9536 H   0  0  0  0  0  0
  -32.8771  -20.0422   20.6318 H   0  0  0  0  0  0
  -33.3047  -20.7187   19.0437 H   0  0  0  0  0  0
  -29.4416  -22.5535   21.7131 H   0  0  0  0  0  0
  -27.6952  -22.4053   21.6613 H   0  0  0  0  0  0
  -30.0720  -27.1807   21.0304 H   0  0  0  0  0  0
  -28.6599  -26.8475   22.0300 H   0  0  0  0  0  0
  -28.4812  -16.2995   20.6709 H   0  0  0  0  0  0
  -29.9819  -16.6801   19.8745 H   0  0  0  0  0  0
  -30.2369  -24.8820   21.9869 H   0  0  0  0  0  0
  -30.0844  -24.8099   20.2380 H   0  0  0  0  0  0
  -30.6769  -18.1611   21.5565 H   0  0  0  0  0  0
  -29.8223  -17.3375   22.8326 H   0  0  0  0  0  0
  -27.1033  -17.2918   22.0562 H   0  0  0  0  0  0
  -27.7153  -18.1547   23.4547 H   0  0  0  0  0  0
  -26.7759  -20.3011   22.5432 H   0  0  0  0  0  0
  -25.5330  -19.0817   22.8109 H   0  0  0  0  0  0
  -24.1994  -20.2640   20.9801 H   0  0  0  0  0  0
  -25.5430  -21.3779   20.8220 H   0  0  0  0  0  0
  -24.1828  -21.1337   18.7128 H   0  0  0  0  0  0
  -24.6657  -19.4605   18.5741 H   0  0  0  0  0  0
  -27.0094  -19.0199   18.6992 H   0  0  0  0  0  0
  -26.9345  -19.5306   17.0363 H   0  0  0  0  0  0
  -28.7448  -21.1521   17.4191 H   0  0  0  0  0  0
  -28.6224  -20.5187   20.3234 H   0  0  0  0  0  0
  1 25  1  0  0  0
  1 30  2  0  0  0
  1 95  1  0  0  0
  2  3  1  0  0  0
  2 25  1  0  0  0
  2100  1  0  0  0
  2101  1  0  0  0
  3  4  1  0  0  0
  3102  1  0  0  0
  3103  1  0  0  0
  4  5  1  0  0  0
  4104  1  0  0  0
  4105  1  0  0  0
  5  6  1  0  0  0
  5 26  1  0  0  0
  5106  1  0  0  0
  6 25  1  0  0  0
  6107  1  0  0  0
  6108  1  0  0  0
  7  8  2  0  0  0
  7 26  1  0  0  0
  7 29  1  0  0  0
  8  9  1  0  0  0
  8 22  1  0  0  0
  9 10  1  0  0  0
  9 27  2  0  0  0
 10 11  2  0  0  0
 10 15  1  0  0  0
 11 12  1  0  0  0
 11109  1  0  0  0
 12 13  2  0  0  0
 12110  1  0  0  0
 13 14  1  0  0  0
 13 31  1  0  0  0
 14 15  2  0  0  0
 14111  1  0  0  0
 15112  1  0  0  0
 16 17  2  0  0  0
 16 21  1  0  0  0
 16 31  1  0  0  0
 17 18  1  0  0  0
 17113  1  0  0  0
 18 19  2  0  0  0
 18114  1  0  0  0
 19 20  1  0  0  0
 19 24  1  0  0  0
 20 21  2  0  0  0
 20115  1  0  0  0
 21 23  1  0  0  0
 22 28  1  0  0  0
 22 32  2  0  0  0
 26 27  1  0  0  0
 28116  1  0  0  0
 28117  1  0  0  0
 29118  1  0  0  0
 29119  1  0  0  0
 33 34  1  0  0  0
 33 66  1  0  0  0
 33 70  2  0  0  0
 34 36  1  0  0  0
 34 59  1  0  0  0
 34120  1  0  0  0
 35 44  2  0  0  0
 35 45  1  0  0  0
 35 68  1  0  0  0
 36 56  1  0  0  0
 36121  1  0  0  0
 37 39  1  0  0  0
 37 47  1  0  0  0
 37 66  1  0  0  0
 37122  1  0  0  0
 38 43  2  0  0  0
 38 46  1  0  0  0
 38 47  1  0  0  0
 39 64  1  0  0  0
 39 67  2  0  0  0
 40 52  1  0  0  0
 40 53  2  0  0  0
 40 58  1  0  0  0
 41123  1  0  0  0
 41124  1  0  0  0
 41125  1  0  0  0
 41 48  1  0  0  0
 42 43  1  0  0  0
 42 66  1  0  0  0
 42126  1  0  0  0
 42127  1  0  0  0
 43 44  1  0  0  0
 44128  1  0  0  0
 45 46  2  0  0  0
 45129  1  0  0  0
 46130  1  0  0  0
 47131  1  0  0  0
 47132  1  0  0  0
 48 56  1  0  0  0
 48 65  1  0  0  0
 48133  1  0  0  0
 49 50  1  0  0  0
 49 53  1  0  0  0
 49 64  1  0  0  0
 49134  1  0  0  0
 50 51  1  0  0  0
 50135  1  0  0  0
 50136  1  0  0  0
 51 52  1  0  0  0
 51137  1  0  0  0
 51138  1  0  0  0
 52139  1  0  0  0
 52140  1  0  0  0
 53 54  1  0  0  0
 54 55  2  0  0  0
 54141  1  0  0  0
 55 57  1  0  0  0
 55142  1  0  0  0
 56 69  2  0  0  0
 57 58  2  0  0  0
 57143  1  0  0  0
 58144  1  0  0  0
 59 60  1  0  0  0
 59 61  1  0  0  0
 59 62  1  0  0  0
 60145  1  0  0  0
 60146  1  0  0  0
 60147  1  0  0  0
 61148  1  0  0  0
 61149  1  0  0  0
 61150  1  0  0  0
 62151  1  0  0  0
 62152  1  0  0  0
 62153  1  0  0  0
 63 65  1  0  0  0
 63154  1  0  0  0
 63155  1  0  0  0
 63156  1  0  0  0
 64157  1  0  0  0
 65158  1  0  0  0
 68 82  1  0  0  0
 71 72  3  0  0  0
 71159  1  0  0  0
 72 80  1  0  0  0
 73 74  2  0  0  0
 73 75  1  0  0  0
 73160  1  0  0  0
 74 76  1  0  0  0
 74161  1  0  0  0
 75 77  2  0  0  0
 75162  1  0  0  0
 76 78  2  0  0  0
 76163  1  0  0  0
 77 78  1  0  0  0
 77 91  1  0  0  0
 78 94  1  0  0  0
 79 81  1  0  0  0
 79 92  1  0  0  0
 79 93  2  0  0  0
 80 94  1  0  0  0
 80164  1  0  0  0
 80165  1  0  0  0
 81 96  1  0  0  0
 81166  1  0  0  0
 81167  1  0  0  0
 82 84  1  0  0  0
 82168  1  0  0  0
 82169  1  0  0  0
 83 85  1  0  0  0
 83 95  1  0  0  0
 83170  1  0  0  0
 83171  1  0  0  0
 84 96  1  0  0  0
 84172  1  0  0  0
 84173  1  0  0  0
 85 97  1  0  0  0
 85174  1  0  0  0
 85175  1  0  0  0
 86 87  1  0  0  0
 86 97  1  0  0  0
 86176  1  0  0  0
 86177  1  0  0  0
 87 98  1  0  0  0
 87178  1  0  0  0
 87179  1  0  0  0
 88 89  1  0  0  0
 88 98  1  0  0  0
 88180  1  0  0  0
 88181  1  0  0  0
 89 99  1  0  0  0
 89182  1  0  0  0
 89183  1  0  0  0
 90 99  1  0  0  0
 90184  1  0  0  0
 90185  1  0  0  0
 90 91  1  0  0  0
 91 92  1  0  0  0
 91186  1  0  0  0
 92187  1  0  0  0
M  ISO  4   1 100  68 101  82 101  95 100
M  END
> <chiral flag>
0

> <version>
0

> <s_m_source_file>
/data/baiqing/PycharmProjects/Reinvent-master-3.2/result/LINK_invent/BTK/process_docking_weight1_custom_product_contain_oxygen_bond_distance_aromatic_linkinvent_7_9_3/rearranged_h_0000.sdf

> <i_m_source_file_index>
48

> <r_mmod_Potential_Energy-OPLS-2005>
-120.45011138916

> <r_mmod_Stretch_Energy-OPLS-2005>
39.006275177002

> <r_mmod_Bend_Energy-OPLS-2005>
110.736618041992

> <r_mmod_Torsional_Energy-OPLS-2005>
212.88525390625

> <r_mmod_Improper_Torsional_Energy-OPLS-2005>
3.13808178901672

> <r_mmod_Van_der_Waal_Energy-OPLS-2005>
123.658164978027

> <r_mmod_Electrostatic_Energy-OPLS-2005>
-365.442047119141

> <r_mmod_Solvation_Energy-OPLS-2005>
-251.846298217773

> <b_mmod_Minimization_Converged-OPLS-2005>
0

> <r_mmod_RMS_Derivative-OPLS-2005>
3.90919327735901

$$$$
48
                    3D
 Structure written by MMmdl.
171178  0  0  1  0            999 V2000
  -30.7692  -14.3753   20.6647 C   0  0  0  0  0  0
  -30.4169  -12.2725   19.3797 C   0  0  0  0  0  0
  -29.4804  -12.5137   18.1829 C   0  0  0  0  0  0
  -28.0043  -12.3802   18.6049 C   0  0  0  0  0  0
  -27.6647  -13.2001   19.8801 C   0  0  2  0  0  0
  -28.6998  -12.9356   20.9945 C   0  0  0  0  0  0
  -25.2593  -13.8172   20.5670 C   0  0  0  0  0  0
  -24.1827  -13.0452   20.9155 C   0  0  0  0  0  0
  -24.6372  -11.6915   20.8715 C   0  0  0  0  0  0
  -23.9039  -10.4295   21.0387 C   0  0  0  0  0  0
  -24.3602   -9.4218   21.9171 C   0  0  0  0  0  0
  -23.6288   -8.2245   22.0746 C   0  0  0  0  0  0
  -22.4266   -8.0272   21.3546 C   0  0  0  0  0  0
  -21.9896   -9.0236   20.4639 C   0  0  0  0  0  0
  -22.7212  -10.2123   20.3043 C   0  0  0  0  0  0
  -21.6846   -6.0727   22.5278 C   0  0  0  0  0  0
  -21.4002   -6.5628   23.8212 C   0  0  0  0  0  0
  -21.3663   -5.6780   24.9176 C   0  0  0  0  0  0
  -21.6054   -4.3044   24.7221 C   0  0  0  0  0  0
  -21.8823   -3.8141   23.4344 C   0  0  0  0  0  0
  -21.9190   -4.6956   22.3404 C   0  0  0  0  0  0
  -22.7850  -13.5248   21.1834 C   0  0  0  0  0  0
  -22.1655   -4.2145   21.0979 F   0  0  0  0  0  0
  -21.5647   -3.4531   25.7738 F   0  0  0  0  0  0
  -30.0361  -13.2047   20.4436 N   0  0  0  0  0  0
  -26.3027  -12.9320   20.3383 N   0  0  0  0  0  0
  -25.9294  -11.6483   20.5753 N   0  0  0  0  0  0
  -22.0495  -12.8232   22.0392 N   0  0  0  0  0  0
  -25.4340  -15.1884   20.4089 N   0  0  0  0  0  0
  -31.8199  -14.6779   20.0900 O   0  0  0  0  0  0
  -21.6639   -6.8868   21.4241 O   0  0  0  0  0  0
  -22.3533  -14.5552   20.6690 O   0  0  0  0  0  0
  -24.6033  -31.8736   23.2090 C   0  0  0  0  0  0
  -25.8947  -32.4860   23.8399 C   0  0  1  0  0  0
  -27.2438  -27.4794   20.0895 C   0  0  0  0  0  0
  -25.5819  -33.8657   24.2323 N   0  0  0  0  0  0
  -23.3905  -30.4883   21.5540 C   0  0  2  0  0  0
  -24.8435  -28.9556   20.1196 C   0  0  0  0  0  0
  -22.7374  -29.4626   22.5055 C   0  0  0  0  0  0
  -18.0249  -28.1334   22.8482 C   0  0  0  0  0  0
  -24.1493  -36.7317   23.2642 C   0  0  0  0  0  0
  -25.9136  -30.8502   21.3547 C   0  0  0  0  0  0
  -25.9990  -29.4854   20.7074 C   0  0  0  0  0  0
  -27.2040  -28.7545   20.6901 C   0  0  0  0  0  0
  -26.0762  -26.9468   19.5061 C   0  0  0  0  0  0
  -24.8749  -27.6837   19.5195 C   0  0  0  0  0  0
  -23.5962  -29.8112   20.1708 C   0  0  0  0  0  0
  -25.4110  -36.3125   24.0336 C   0  0  1  0  0  0
  -20.5840  -28.3583   23.1372 C   0  0  2  0  0  0
  -20.6724  -26.9319   22.5448 C   0  0  0  0  0  0
  -19.5701  -26.6326   21.5231 C   0  0  0  0  0  0
  -18.1881  -26.7873   22.1633 C   0  0  0  0  0  0
  -19.1508  -28.8770   23.2910 C   0  0  0  0  0  0
  -18.9455  -30.1387   23.8897 C   0  0  0  0  0  0
  -17.6468  -30.6552   24.0541 C   0  0  0  0  0  0
  -25.9020  -34.9492   23.5136 C   0  0  0  0  0  0
  -16.5348  -29.9063   23.6322 C   0  0  0  0  0  0
  -16.7243  -28.6476   23.0340 C   0  0  0  0  0  0
  -26.4382  -31.6630   25.0716 C   0  0  0  0  0  0
  -25.3646  -31.3789   26.1475 C   0  0  0  0  0  0
  -27.0191  -30.3084   24.6036 C   0  0  0  0  0  0
  -27.5951  -32.4352   25.7471 C   0  0  0  0  0  0
  -27.5592  -37.1786   24.8448 C   0  0  0  0  0  0
  -21.4102  -29.2974   22.3810 N   0  0  0  0  0  0
  -26.4294  -37.3800   23.9406 N   0  0  0  0  0  0
  -24.6537  -31.0854   22.0981 N   0  0  0  0  0  0
  -23.4191  -28.8184   23.3074 O   0  0  0  0  0  0
  -28.4160  -26.7736   20.0650 O   0  0  0  0  0  0
  -26.5621  -34.8923   22.4724 O   0  0  0  0  0  0
  -23.5236  -32.1484   23.7490 O   0  0  0  0  0  0
  -28.4579  -25.6725   20.9697 C   0  0  0  0  0  0
  -30.7591  -16.4013   21.9233 C   0  0  0  0  0  0
  -29.8543  -25.5968   21.6164 C   0  0  0  0  0  0
  -29.7814  -17.2273   22.7665 C   0  0  0  0  0  0
  -31.4866  -24.6625   20.0849 C   0  0  0  0  0  0
  -27.9285  -18.6988   22.5849 C   0  0  0  0  0  0
  -30.7497  -24.7073   18.7388 C   0  0  0  0  0  0
  -26.7928  -19.1168   21.6415 C   0  0  0  0  0  0
  -29.1597  -23.5100   17.4645 C   0  0  0  0  0  0
  -26.3874  -20.1192   19.5280 C   0  0  0  0  0  0
  -28.5593  -22.1125   17.2694 C   0  0  0  0  0  0
  -27.1029  -20.5150   18.2283 C   0  0  0  0  0  0
  -30.1731  -15.1547   21.5809 O   0  0  0  0  0  0
  -30.6045  -24.4603   21.1895 O   0  0  0  0  0  0
  -28.7429  -17.7295   21.9345 O   0  0  0  0  0  0
  -30.0628  -23.4770   18.5598 O   0  0  0  0  0  0
  -27.3603  -19.7106   20.4800 O   0  0  0  0  0  0
  -27.7316  -21.7832   18.3794 O   0  0  0  0  0  0
  -31.4591  -12.3914   19.0765 H   0  0  0  0  0  0
  -30.3236  -11.2463   19.7388 H   0  0  0  0  0  0
  -29.7034  -11.8058   17.3838 H   0  0  0  0  0  0
  -29.6560  -13.5074   17.7690 H   0  0  0  0  0  0
  -27.8014  -11.3225   18.7801 H   0  0  0  0  0  0
  -27.3512  -12.6803   17.7839 H   0  0  0  0  0  0
  -27.7261  -14.2549   19.6110 H   0  0  0  0  0  0
  -28.6551  -11.8942   21.3148 H   0  0  0  0  0  0
  -28.4652  -13.5226   21.8819 H   0  0  0  0  0  0
  -25.2750   -9.5703   22.4730 H   0  0  0  0  0  0
  -24.0009   -7.4640   22.7456 H   0  0  0  0  0  0
  -21.0834   -8.8736   19.8939 H   0  0  0  0  0  0
  -22.3666  -10.9648   19.6139 H   0  0  0  0  0  0
  -21.1975   -7.6127   23.9716 H   0  0  0  0  0  0
  -21.1487   -6.0503   25.9077 H   0  0  0  0  0  0
  -22.0601   -2.7598   23.2841 H   0  0  0  0  0  0
  -22.4104  -11.9897   22.4793 H   0  0  0  0  0  0
  -21.1108  -13.1242   22.2589 H   0  0  0  0  0  0
  -24.6756  -15.8507   20.5233 H   0  0  0  0  0  0
  -26.3062  -15.6231   20.1338 H   0  0  0  0  0  0
  -26.7023  -32.5603   23.1165 H   0  0  0  0  0  0
  -24.9842  -33.9843   25.0378 H   0  0  0  0  0  0
  -22.6712  -31.2987   21.4133 H   0  0  0  0  0  0
  -23.3762  -35.9643   23.3296 H   0  0  0  0  0  0
  -24.3587  -36.8960   22.2063 H   0  0  0  0  0  0
  -23.7228  -37.6507   23.6668 H   0  0  0  0  0  0
  -26.0129  -31.6133   20.5820 H   0  0  0  0  0  0
  -26.8038  -30.9148   21.9683 H   0  0  0  0  0  0
  -28.1003  -29.1592   21.1370 H   0  0  0  0  0  0
  -26.1026  -25.9700   19.0434 H   0  0  0  0  0  0
  -23.9834  -27.2677   19.0717 H   0  0  0  0  0  0
  -23.6816  -30.5830   19.4042 H   0  0  0  0  0  0
  -22.7264  -29.2161   19.8872 H   0  0  0  0  0  0
  -25.1281  -36.1993   25.0827 H   0  0  0  0  0  0
  -20.9894  -28.3101   24.1505 H   0  0  0  0  0  0
  -20.5603  -26.2160   23.3610 H   0  0  0  0  0  0
  -21.6592  -26.7325   22.1244 H   0  0  0  0  0  0
  -19.6859  -25.6249   21.1209 H   0  0  0  0  0  0
  -19.6682  -27.3178   20.6798 H   0  0  0  0  0  0
  -17.4153  -26.6619   21.4032 H   0  0  0  0  0  0
  -18.0271  -26.0039   22.9044 H   0  0  0  0  0  0
  -19.7956  -30.7177   24.2270 H   0  0  0  0  0  0
  -17.5040  -31.6246   24.5119 H   0  0  0  0  0  0
  -15.5342  -30.2959   23.7652 H   0  0  0  0  0  0
  -15.8638  -28.0788   22.7059 H   0  0  0  0  0  0
  -24.5734  -30.7235   25.7808 H   0  0  0  0  0  0
  -24.8915  -32.2999   26.4917 H   0  0  0  0  0  0
  -25.7949  -30.8924   27.0240 H   0  0  0  0  0  0
  -26.2743  -29.6931   24.0968 H   0  0  0  0  0  0
  -27.3888  -29.7212   25.4450 H   0  0  0  0  0  0
  -27.8594  -30.4437   23.9216 H   0  0  0  0  0  0
  -27.2544  -33.3621   26.2089 H   0  0  0  0  0  0
  -28.3721  -32.6989   25.0289 H   0  0  0  0  0  0
  -28.0656  -31.8477   26.5367 H   0  0  0  0  0  0
  -28.2548  -38.0137   24.7544 H   0  0  0  0  0  0
  -28.1145  -36.2662   24.6197 H   0  0  0  0  0  0
  -27.2308  -37.1334   25.8848 H   0  0  0  0  0  0
  -20.9222  -29.8762   21.7116 H   0  0  0  0  0  0
  -26.0200  -38.2871   24.1459 H   0  0  0  0  0  0
  -27.7103  -25.7809   21.7590 H   0  0  0  0  0  0
  -28.2187  -24.7471   20.4453 H   0  0  0  0  0  0
  -31.6727  -16.2129   22.4890 H   0  0  0  0  0  0
  -31.0424  -16.9577   21.0284 H   0  0  0  0  0  0
  -29.7230  -25.4903   22.6946 H   0  0  0  0  0  0
  -30.4057  -26.5300   21.4844 H   0  0  0  0  0  0
  -30.3304  -18.0557   23.2173 H   0  0  0  0  0  0
  -29.3690  -16.6302   23.5816 H   0  0  0  0  0  0
  -32.0876  -25.5611   20.2325 H   0  0  0  0  0  0
  -32.1882  -23.8280   20.0663 H   0  0  0  0  0  0
  -27.5095  -18.2788   23.5004 H   0  0  0  0  0  0
  -28.5178  -19.5717   22.8675 H   0  0  0  0  0  0
  -31.4661  -24.8452   17.9263 H   0  0  0  0  0  0
  -30.0693  -25.5559   18.6958 H   0  0  0  0  0  0
  -26.1395  -19.8340   22.1421 H   0  0  0  0  0  0
  -26.1864  -18.2479   21.3799 H   0  0  0  0  0  0
  -28.3730  -24.2477   17.6350 H   0  0  0  0  0  0
  -29.6924  -23.8048   16.5588 H   0  0  0  0  0  0
  -25.7116  -19.2879   19.3191 H   0  0  0  0  0  0
  -25.7837  -20.9417   19.9136 H   0  0  0  0  0  0
  -29.3590  -21.3785   17.1581 H   0  0  0  0  0  0
  -27.9725  -22.0986   16.3492 H   0  0  0  0  0  0
  -26.3815  -20.5715   17.4099 H   0  0  0  0  0  0
  -27.8277  -19.7430   17.9632 H   0  0  0  0  0  0
  1 25  1  0  0  0
  1 30  2  0  0  0
  1 83  1  0  0  0
  2  3  1  0  0  0
  2 25  1  0  0  0
  2 89  1  0  0  0
  2 90  1  0  0  0
  3  4  1  0  0  0
  3 91  1  0  0  0
  3 92  1  0  0  0
  4  5  1  0  0  0
  4 93  1  0  0  0
  4 94  1  0  0  0
  5  6  1  0  0  0
  5 26  1  0  0  0
  5 95  1  0  0  0
  6 25  1  0  0  0
  6 96  1  0  0  0
  6 97  1  0  0  0
  7  8  2  0  0  0
  7 26  1  0  0  0
  7 29  1  0  0  0
  8  9  1  0  0  0
  8 22  1  0  0  0
  9 10  1  0  0  0
  9 27  2  0  0  0
 10 11  2  0  0  0
 10 15  1  0  0  0
 11 12  1  0  0  0
 11 98  1  0  0  0
 12 13  2  0  0  0
 12 99  1  0  0  0
 13 14  1  0  0  0
 13 31  1  0  0  0
 14 15  2  0  0  0
 14100  1  0  0  0
 15101  1  0  0  0
 16 17  2  0  0  0
 16 21  1  0  0  0
 16 31  1  0  0  0
 17 18  1  0  0  0
 17102  1  0  0  0
 18 19  2  0  0  0
 18103  1  0  0  0
 19 20  1  0  0  0
 19 24  1  0  0  0
 20 21  2  0  0  0
 20104  1  0  0  0
 21 23  1  0  0  0
 22 28  1  0  0  0
 22 32  2  0  0  0
 26 27  1  0  0  0
 28105  1  0  0  0
 28106  1  0  0  0
 29107  1  0  0  0
 29108  1  0  0  0
 33 34  1  0  0  0
 33 66  1  0  0  0
 33 70  2  0  0  0
 34 36  1  0  0  0
 34 59  1  0  0  0
 34109  1  0  0  0
 35 44  2  0  0  0
 35 45  1  0  0  0
 35 68  1  0  0  0
 36 56  1  0  0  0
 36110  1  0  0  0
 37 39  1  0  0  0
 37 47  1  0  0  0
 37 66  1  0  0  0
 37111  1  0  0  0
 38 43  2  0  0  0
 38 46  1  0  0  0
 38 47  1  0  0  0
 39 64  1  0  0  0
 39 67  2  0  0  0
 40 52  1  0  0  0
 40 53  2  0  0  0
 40 58  1  0  0  0
 41112  1  0  0  0
 41113  1  0  0  0
 41114  1  0  0  0
 41 48  1  0  0  0
 42 43  1  0  0  0
 42 66  1  0  0  0
 42115  1  0  0  0
 42116  1  0  0  0
 43 44  1  0  0  0
 44117  1  0  0  0
 45 46  2  0  0  0
 45118  1  0  0  0
 46119  1  0  0  0
 47120  1  0  0  0
 47121  1  0  0  0
 48 56  1  0  0  0
 48 65  1  0  0  0
 48122  1  0  0  0
 49 50  1  0  0  0
 49 53  1  0  0  0
 49 64  1  0  0  0
 49123  1  0  0  0
 50 51  1  0  0  0
 50124  1  0  0  0
 50125  1  0  0  0
 51 52  1  0  0  0
 51126  1  0  0  0
 51127  1  0  0  0
 52128  1  0  0  0
 52129  1  0  0  0
 53 54  1  0  0  0
 54 55  2  0  0  0
 54130  1  0  0  0
 55 57  1  0  0  0
 55131  1  0  0  0
 56 69  2  0  0  0
 57 58  2  0  0  0
 57132  1  0  0  0
 58133  1  0  0  0
 59 60  1  0  0  0
 59 61  1  0  0  0
 59 62  1  0  0  0
 60134  1  0  0  0
 60135  1  0  0  0
 60136  1  0  0  0
 61137  1  0  0  0
 61138  1  0  0  0
 61139  1  0  0  0
 62140  1  0  0  0
 62141  1  0  0  0
 62142  1  0  0  0
 63 65  1  0  0  0
 63143  1  0  0  0
 63144  1  0  0  0
 63145  1  0  0  0
 64146  1  0  0  0
 65147  1  0  0  0
 68 71  1  0  0  0
 71 73  1  0  0  0
 71148  1  0  0  0
 71149  1  0  0  0
 72 74  1  0  0  0
 72 83  1  0  0  0
 72150  1  0  0  0
 72151  1  0  0  0
 73 84  1  0  0  0
 73152  1  0  0  0
 73153  1  0  0  0
 74 85  1  0  0  0
 74154  1  0  0  0
 74155  1  0  0  0
 75 77  1  0  0  0
 75 84  1  0  0  0
 75156  1  0  0  0
 75157  1  0  0  0
 76 78  1  0  0  0
 76 85  1  0  0  0
 76158  1  0  0  0
 76159  1  0  0  0
 77 86  1  0  0  0
 77160  1  0  0  0
 77161  1  0  0  0
 78 87  1  0  0  0
 78162  1  0  0  0
 78163  1  0  0  0
 79 81  1  0  0  0
 79 86  1  0  0  0
 79164  1  0  0  0
 79165  1  0  0  0
 80 82  1  0  0  0
 80 87  1  0  0  0
 80166  1  0  0  0
 80167  1  0  0  0
 81 88  1  0  0  0
 81168  1  0  0  0
 81169  1  0  0  0
 82 88  1  0  0  0
 82170  1  0  0  0
 82171  1  0  0  0
M  ISO  4   1 100  68 101  71 101  83 100
M  END
> <chiral flag>
0

> <version>
0

> <s_m_source_file>
/data/baiqing/PycharmProjects/Reinvent-master-3.2/result/LINK_invent/BTK/process_docking_weight1_custom_product_contain_oxygen_bond_distance_aromatic_linkinvent_7_9_3/rearranged_h_0000.sdf

> <i_m_source_file_index>
49

> <r_mmod_Potential_Energy-OPLS-2005>
-85.9189987182617

> <r_mmod_Stretch_Energy-OPLS-2005>
30.6694431304932

> <r_mmod_Bend_Energy-OPLS-2005>
89.1935882568359

> <r_mmod_Torsional_Energy-OPLS-2005>
180.687469482422

> <r_mmod_Improper_Torsional_Energy-OPLS-2005>
1.64938616752625

> <r_mmod_Van_der_Waal_Energy-OPLS-2005>
125.921783447266

> <r_mmod_Electrostatic_Energy-OPLS-2005>
-288.1396484375

> <r_mmod_Solvation_Energy-OPLS-2005>
-232.460205078125

> <b_mmod_Minimization_Converged-OPLS-2005>
0

> <r_mmod_RMS_Derivative-OPLS-2005>
2.68479108810425

$$$$
49
                    3D
 Structure written by MMmdl.
172179  0  0  1  0            999 V2000
  -30.7103  -14.4096   20.6120 C   0  0  0  0  0  0
  -30.4287  -12.2841   19.4139 C   0  0  0  0  0  0
  -29.5014  -12.5148   18.2026 C   0  0  0  0  0  0
  -28.0172  -12.3899   18.6056 C   0  0  0  0  0  0
  -27.6681  -13.2034   19.8796 C   0  0  2  0  0  0
  -28.7018  -12.9400   20.9989 C   0  0  0  0  0  0
  -25.2600  -13.8169   20.5636 C   0  0  0  0  0  0
  -24.1854  -13.0447   20.9175 C   0  0  0  0  0  0
  -24.6406  -11.6917   20.8738 C   0  0  0  0  0  0
  -23.9065  -10.4304   21.0417 C   0  0  0  0  0  0
  -24.3611   -9.4219   21.9185 C   0  0  0  0  0  0
  -23.6286   -8.2251   22.0755 C   0  0  0  0  0  0
  -22.4260   -8.0299   21.3554 C   0  0  0  0  0  0
  -21.9891   -9.0291   20.4655 C   0  0  0  0  0  0
  -22.7238  -10.2165   20.3061 C   0  0  0  0  0  0
  -21.6849   -6.0732   22.5287 C   0  0  0  0  0  0
  -21.4018   -6.5630   23.8223 C   0  0  0  0  0  0
  -21.3651   -5.6784   24.9186 C   0  0  0  0  0  0
  -21.6032   -4.3053   24.7233 C   0  0  0  0  0  0
  -21.8823   -3.8141   23.4361 C   0  0  0  0  0  0
  -21.9189   -4.6951   22.3417 C   0  0  0  0  0  0
  -22.7872  -13.5251   21.1839 C   0  0  0  0  0  0
  -22.1661   -4.2139   21.0991 F   0  0  0  0  0  0
  -21.5610   -3.4527   25.7742 F   0  0  0  0  0  0
  -30.0461  -13.2350   20.4663 N   0  0  0  0  0  0
  -26.3042  -12.9335   20.3341 N   0  0  0  0  0  0
  -25.9330  -11.6494   20.5747 N   0  0  0  0  0  0
  -22.0506  -12.8270   22.0412 N   0  0  0  0  0  0
  -25.4311  -15.1893   20.4040 N   0  0  0  0  0  0
  -31.7883  -14.6613   20.0666 O   0  0  0  0  0  0
  -21.6638   -6.8889   21.4252 O   0  0  0  0  0  0
  -22.3554  -14.5541   20.6672 O   0  0  0  0  0  0
  -24.6133  -31.8712   23.2097 C   0  0  0  0  0  0
  -25.9030  -32.4833   23.8387 C   0  0  1  0  0  0
  -27.2382  -27.4599   20.0893 C   0  0  0  0  0  0
  -25.5903  -33.8620   24.2344 N   0  0  0  0  0  0
  -23.3978  -30.4962   21.5521 C   0  0  2  0  0  0
  -24.8417  -28.9606   20.1186 C   0  0  0  0  0  0
  -22.7388  -29.4715   22.5018 C   0  0  0  0  0  0
  -18.0266  -28.1406   22.8497 C   0  0  0  0  0  0
  -24.1488  -36.7314   23.2640 C   0  0  0  0  0  0
  -25.9230  -30.8457   21.3549 C   0  0  0  0  0  0
  -26.0013  -29.4812   20.7055 C   0  0  0  0  0  0
  -27.2024  -28.7405   20.6834 C   0  0  0  0  0  0
  -26.0579  -26.9478   19.4986 C   0  0  0  0  0  0
  -24.8645  -27.6921   19.5131 C   0  0  0  0  0  0
  -23.6024  -29.8253   20.1679 C   0  0  0  0  0  0
  -25.4100  -36.3112   24.0349 C   0  0  1  0  0  0
  -20.5852  -28.3702   23.1326 C   0  0  2  0  0  0
  -20.6765  -26.9447   22.5404 C   0  0  0  0  0  0
  -19.5742  -26.6423   21.5204 C   0  0  0  0  0  0
  -18.1927  -26.7955   22.1629 C   0  0  0  0  0  0
  -19.1508  -28.8860   23.2926 C   0  0  0  0  0  0
  -18.9436  -30.1472   23.8942 C   0  0  0  0  0  0
  -17.6437  -30.6608   24.0570 C   0  0  0  0  0  0
  -25.9022  -34.9475   23.5134 C   0  0  0  0  0  0
  -16.5332  -29.9104   23.6326 C   0  0  0  0  0  0
  -16.7263  -28.6518   23.0353 C   0  0  0  0  0  0
  -26.4457  -31.6594   25.0702 C   0  0  0  0  0  0
  -25.3731  -31.3681   26.1456 C   0  0  0  0  0  0
  -27.0270  -30.3040   24.6037 C   0  0  0  0  0  0
  -27.6056  -32.4293   25.7459 C   0  0  0  0  0  0
  -27.5585  -37.1810   24.8478 C   0  0  0  0  0  0
  -21.4115  -29.3079   22.3744 N   0  0  0  0  0  0
  -26.4299  -37.3791   23.9425 N   0  0  0  0  0  0
  -24.6631  -31.0841   22.0976 N   0  0  0  0  0  0
  -23.4164  -28.8248   23.3051 O   0  0  0  0  0  0
  -28.4244  -26.7613   20.1027 O   0  0  0  0  0  0
  -26.5586  -34.8928   22.4703 O   0  0  0  0  0  0
  -23.5333  -32.1458   23.7517 O   0  0  0  0  0  0
  -29.0678  -24.9666   15.1813 C   0  0  0  0  0  0
  -29.7200  -26.2964   15.5822 C   0  0  0  0  0  0
  -27.7030  -23.0563   16.0182 C   0  0  0  0  0  0
  -30.1680  -16.7884   21.0907 C   0  0  0  0  0  0
  -28.4131  -21.7337   16.3549 C   0  0  0  0  0  0
  -28.8618  -17.3646   20.5143 C   0  0  0  0  0  0
  -28.3373  -25.3380   20.0493 C   0  0  0  0  0  0
  -31.2221  -25.8241   17.3757 C   0  0  0  0  0  0
  -29.6831  -24.6932   20.4172 C   0  0  0  0  0  0
  -31.2363  -25.7079   18.9019 C   0  0  0  0  0  0
  -28.4464  -19.9416   17.8931 C   0  0  0  0  0  0
  -27.9992  -19.0389   19.0673 C   0  0  0  0  0  0
  -28.5710  -24.2201   16.1749 N   0  0  0  0  0  0
  -30.0289  -15.3439   21.2825 N   0  0  0  0  0  0
  -28.9751  -24.6517   13.9927 O   0  0  0  0  0  0
  -29.9549  -26.3408   16.9892 O   0  0  0  0  0  0
  -28.0772  -21.3004   17.6744 O   0  0  0  0  0  0
  -29.1390  -18.5423   19.7701 O   0  0  0  0  0  0
  -30.4987  -24.5459   19.2619 O   0  0  0  0  0  0
  -31.4739  -12.3935   19.1138 H   0  0  0  0  0  0
  -30.3367  -11.2627   19.7843 H   0  0  0  0  0  0
  -29.7382  -11.8002   17.4115 H   0  0  0  0  0  0
  -29.6897  -13.5048   17.7831 H   0  0  0  0  0  0
  -27.7999  -11.3348   18.7682 H   0  0  0  0  0  0
  -27.3826  -12.7065   17.7784 H   0  0  0  0  0  0
  -27.7250  -14.2580   19.6104 H   0  0  0  0  0  0
  -28.6606  -11.8965   21.3140 H   0  0  0  0  0  0
  -28.4516  -13.5162   21.8921 H   0  0  0  0  0  0
  -25.2773   -9.5667   22.4752 H   0  0  0  0  0  0
  -23.9984   -7.4624   22.7469 H   0  0  0  0  0  0
  -21.0810   -8.8848   19.8972 H   0  0  0  0  0  0
  -22.3730  -10.9711   19.6160 H   0  0  0  0  0  0
  -21.2040   -7.6137   23.9726 H   0  0  0  0  0  0
  -21.1443   -6.0514   25.9081 H   0  0  0  0  0  0
  -22.0604   -2.7593   23.2880 H   0  0  0  0  0  0
  -22.4093  -11.9944   22.4846 H   0  0  0  0  0  0
  -21.1134  -13.1353   22.2610 H   0  0  0  0  0  0
  -24.6621  -15.8436   20.5103 H   0  0  0  0  0  0
  -26.2724  -15.6251   20.0522 H   0  0  0  0  0  0
  -26.7101  -32.5564   23.1165 H   0  0  0  0  0  0
  -25.0055  -33.9789   25.0478 H   0  0  0  0  0  0
  -22.6859  -31.3122   21.4144 H   0  0  0  0  0  0
  -23.3740  -35.9665   23.3314 H   0  0  0  0  0  0
  -24.3587  -36.8904   22.2057 H   0  0  0  0  0  0
  -23.7242  -37.6527   23.6624 H   0  0  0  0  0  0
  -26.0268  -31.6090   20.5829 H   0  0  0  0  0  0
  -26.8126  -30.9056   21.9674 H   0  0  0  0  0  0
  -28.0990  -29.1448   21.1329 H   0  0  0  0  0  0
  -26.0443  -25.9819   19.0134 H   0  0  0  0  0  0
  -23.9740  -27.2846   19.0561 H   0  0  0  0  0  0
  -23.7093  -30.5993   19.4074 H   0  0  0  0  0  0
  -22.7250  -29.2456   19.8737 H   0  0  0  0  0  0
  -25.1271  -36.1986   25.0843 H   0  0  0  0  0  0
  -20.9956  -28.3263   24.1443 H   0  0  0  0  0  0
  -20.5673  -26.2314   23.3584 H   0  0  0  0  0  0
  -21.6641  -26.7512   22.1195 H   0  0  0  0  0  0
  -19.6903  -25.6330   21.1242 H   0  0  0  0  0  0
  -19.6670  -27.3223   20.6720 H   0  0  0  0  0  0
  -17.4190  -26.6703   21.4046 H   0  0  0  0  0  0
  -18.0361  -26.0099   22.9031 H   0  0  0  0  0  0
  -19.7903  -30.7289   24.2338 H   0  0  0  0  0  0
  -17.4978  -31.6286   24.5175 H   0  0  0  0  0  0
  -15.5332  -30.3016   23.7611 H   0  0  0  0  0  0
  -15.8671  -28.0836   22.7057 H   0  0  0  0  0  0
  -24.5929  -30.7002   25.7786 H   0  0  0  0  0  0
  -24.8891  -32.2826   26.4903 H   0  0  0  0  0  0
  -25.8107  -30.8857   27.0208 H   0  0  0  0  0  0
  -26.2789  -29.6827   24.1101 H   0  0  0  0  0  0
  -27.4067  -29.7259   25.4476 H   0  0  0  0  0  0
  -27.8617  -30.4378   23.9145 H   0  0  0  0  0  0
  -27.2697  -33.3592   26.2073 H   0  0  0  0  0  0
  -28.3844  -32.6858   25.0254 H   0  0  0  0  0  0
  -28.0741  -31.8376   26.5346 H   0  0  0  0  0  0
  -28.2610  -38.0093   24.7502 H   0  0  0  0  0  0
  -28.1067  -36.2629   24.6316 H   0  0  0  0  0  0
  -27.2320  -37.1486   25.8885 H   0  0  0  0  0  0
  -20.9269  -29.8795   21.6966 H   0  0  0  0  0  0
  -26.0190  -38.2886   24.1380 H   0  0  0  0  0  0
  -29.0278  -27.1007   15.3279 H   0  0  0  0  0  0
  -30.6306  -26.4701   15.0065 H   0  0  0  0  0  0
  -26.8115  -23.1852   16.6352 H   0  0  0  0  0  0
  -27.3371  -23.0074   14.9915 H   0  0  0  0  0  0
  -30.4179  -17.2721   22.0348 H   0  0  0  0  0  0
  -30.9872  -17.0073   20.4025 H   0  0  0  0  0  0
  -29.4954  -21.8115   16.2399 H   0  0  0  0  0  0
  -28.0749  -20.9820   15.6380 H   0  0  0  0  0  0
  -28.1430  -17.5646   21.3110 H   0  0  0  0  0  0
  -28.4095  -16.6266   19.8486 H   0  0  0  0  0  0
  -27.5859  -24.9991   20.7646 H   0  0  0  0  0  0
  -28.0252  -24.9960   19.0629 H   0  0  0  0  0  0
  -31.4361  -24.8570   16.9166 H   0  0  0  0  0  0
  -31.9944  -26.5202   17.0476 H   0  0  0  0  0  0
  -29.4890  -23.6835   20.7827 H   0  0  0  0  0  0
  -30.1889  -25.2220   21.2287 H   0  0  0  0  0  0
  -30.8466  -26.6244   19.3482 H   0  0  0  0  0  0
  -32.2581  -25.5892   19.2646 H   0  0  0  0  0  0
  -28.9884  -20.5358   18.6308 H   0  0  0  0  0  0
  -27.4169  -19.8798   17.5289 H   0  0  0  0  0  0
  -27.4159  -18.1998   18.6799 H   0  0  0  0  0  0
  -27.3435  -19.5788   19.7575 H   0  0  0  0  0  0
  -28.7546  -24.5621   17.1112 H   0  0  0  0  0  0
  -29.1835  -15.0273   21.7334 H   0  0  0  0  0  0
  1 25  1  0  0  0
  1 30  2  0  0  0
  1 84  1  0  0  0
  2  3  1  0  0  0
  2 25  1  0  0  0
  2 90  1  0  0  0
  2 91  1  0  0  0
  3  4  1  0  0  0
  3 92  1  0  0  0
  3 93  1  0  0  0
  4  5  1  0  0  0
  4 94  1  0  0  0
  4 95  1  0  0  0
  5  6  1  0  0  0
  5 26  1  0  0  0
  5 96  1  0  0  0
  6 25  1  0  0  0
  6 97  1  0  0  0
  6 98  1  0  0  0
  7  8  2  0  0  0
  7 26  1  0  0  0
  7 29  1  0  0  0
  8  9  1  0  0  0
  8 22  1  0  0  0
  9 10  1  0  0  0
  9 27  2  0  0  0
 10 11  2  0  0  0
 10 15  1  0  0  0
 11 12  1  0  0  0
 11 99  1  0  0  0
 12 13  2  0  0  0
 12100  1  0  0  0
 13 14  1  0  0  0
 13 31  1  0  0  0
 14 15  2  0  0  0
 14101  1  0  0  0
 15102  1  0  0  0
 16 17  2  0  0  0
 16 21  1  0  0  0
 16 31  1  0  0  0
 17 18  1  0  0  0
 17103  1  0  0  0
 18 19  2  0  0  0
 18104  1  0  0  0
 19 20  1  0  0  0
 19 24  1  0  0  0
 20 21  2  0  0  0
 20105  1  0  0  0
 21 23  1  0  0  0
 22 28  1  0  0  0
 22 32  2  0  0  0
 26 27  1  0  0  0
 28106  1  0  0  0
 28107  1  0  0  0
 29108  1  0  0  0
 29109  1  0  0  0
 33 34  1  0  0  0
 33 66  1  0  0  0
 33 70  2  0  0  0
 34 36  1  0  0  0
 34 59  1  0  0  0
 34110  1  0  0  0
 35 44  2  0  0  0
 35 45  1  0  0  0
 35 68  1  0  0  0
 36 56  1  0  0  0
 36111  1  0  0  0
 37 39  1  0  0  0
 37 47  1  0  0  0
 37 66  1  0  0  0
 37112  1  0  0  0
 38 43  2  0  0  0
 38 46  1  0  0  0
 38 47  1  0  0  0
 39 64  1  0  0  0
 39 67  2  0  0  0
 40 52  1  0  0  0
 40 53  2  0  0  0
 40 58  1  0  0  0
 41113  1  0  0  0
 41114  1  0  0  0
 41115  1  0  0  0
 41 48  1  0  0  0
 42 43  1  0  0  0
 42 66  1  0  0  0
 42116  1  0  0  0
 42117  1  0  0  0
 43 44  1  0  0  0
 44118  1  0  0  0
 45 46  2  0  0  0
 45119  1  0  0  0
 46120  1  0  0  0
 47121  1  0  0  0
 47122  1  0  0  0
 48 56  1  0  0  0
 48 65  1  0  0  0
 48123  1  0  0  0
 49 50  1  0  0  0
 49 53  1  0  0  0
 49 64  1  0  0  0
 49124  1  0  0  0
 50 51  1  0  0  0
 50125  1  0  0  0
 50126  1  0  0  0
 51 52  1  0  0  0
 51127  1  0  0  0
 51128  1  0  0  0
 52129  1  0  0  0
 52130  1  0  0  0
 53 54  1  0  0  0
 54 55  2  0  0  0
 54131  1  0  0  0
 55 57  1  0  0  0
 55132  1  0  0  0
 56 69  2  0  0  0
 57 58  2  0  0  0
 57133  1  0  0  0
 58134  1  0  0  0
 59 60  1  0  0  0
 59 61  1  0  0  0
 59 62  1  0  0  0
 60135  1  0  0  0
 60136  1  0  0  0
 60137  1  0  0  0
 61138  1  0  0  0
 61139  1  0  0  0
 61140  1  0  0  0
 62141  1  0  0  0
 62142  1  0  0  0
 62143  1  0  0  0
 63 65  1  0  0  0
 63144  1  0  0  0
 63145  1  0  0  0
 63146  1  0  0  0
 64147  1  0  0  0
 65148  1  0  0  0
 68 77  1  0  0  0
 71 72  1  0  0  0
 71 83  1  0  0  0
 71 85  2  0  0  0
 72 86  1  0  0  0
 72149  1  0  0  0
 72150  1  0  0  0
 73 75  1  0  0  0
 73 83  1  0  0  0
 73151  1  0  0  0
 73152  1  0  0  0
 74 76  1  0  0  0
 74 84  1  0  0  0
 74153  1  0  0  0
 74154  1  0  0  0
 75 87  1  0  0  0
 75155  1  0  0  0
 75156  1  0  0  0
 76 88  1  0  0  0
 76157  1  0  0  0
 76158  1  0  0  0
 77 79  1  0  0  0
 77159  1  0  0  0
 77160  1  0  0  0
 78 80  1  0  0  0
 78 86  1  0  0  0
 78161  1  0  0  0
 78162  1  0  0  0
 79 89  1  0  0  0
 79163  1  0  0  0
 79164  1  0  0  0
 80 89  1  0  0  0
 80165  1  0  0  0
 80166  1  0  0  0
 81 82  1  0  0  0
 81 87  1  0  0  0
 81167  1  0  0  0
 81168  1  0  0  0
 82 88  1  0  0  0
 82169  1  0  0  0
 82170  1  0  0  0
 83171  1  0  0  0
 84172  1  0  0  0
M  ISO  4   1 100  68 101  77 101  84 100
M  END
> <chiral flag>
0

> <version>
0

> <s_m_source_file>
/data/baiqing/PycharmProjects/Reinvent-master-3.2/result/LINK_invent/BTK/process_docking_weight1_custom_product_contain_oxygen_bond_distance_aromatic_linkinvent_7_9_3/rearranged_h_0000.sdf

> <i_m_source_file_index>
50

> <r_mmod_Potential_Energy-OPLS-2005>
40.7679901123047

> <r_mmod_Stretch_Energy-OPLS-2005>
33.249340057373

> <r_mmod_Bend_Energy-OPLS-2005>
309.411773681641

> <r_mmod_Torsional_Energy-OPLS-2005>
225.343887329102

> <r_mmod_Improper_Torsional_Energy-OPLS-2005>
4.69518280029297

> <r_mmod_Van_der_Waal_Energy-OPLS-2005>
144.852447509766

> <r_mmod_Electrostatic_Energy-OPLS-2005>
-438.749328613281

> <r_mmod_Solvation_Energy-OPLS-2005>
-246.475036621094

> <b_mmod_Minimization_Converged-OPLS-2005>
0

> <r_mmod_RMS_Derivative-OPLS-2005>
3.52462768554688

$$$$
50
                    3D
 Structure written by MMmdl.
144152  0  0  1  0            999 V2000
  -30.2491  -15.7690   20.3185 C   0  0  0  0  0  0
  -30.4165  -13.1824   19.5389 C   0  0  0  0  0  0
  -29.5561  -12.6883   18.3366 C   0  0  0  0  0  0
  -28.1400  -12.3025   18.7870 C   0  0  0  0  0  0
  -27.5914  -13.3204   19.8100 C   0  0  2  0  0  0
  -28.5996  -13.7101   20.9197 C   0  0  0  0  0  0
  -25.2302  -13.8299   20.5812 C   0  0  0  0  0  0
  -24.1705  -13.0432   20.9298 C   0  0  0  0  0  0
  -24.6425  -11.6949   20.8764 C   0  0  0  0  0  0
  -23.9129  -10.4292   21.0393 C   0  0  0  0  0  0
  -24.3660   -9.4205   21.9178 C   0  0  0  0  0  0
  -23.6316   -8.2248   22.0754 C   0  0  0  0  0  0
  -22.4296   -8.0290   21.3545 C   0  0  0  0  0  0
  -21.9945   -9.0266   20.4644 C   0  0  0  0  0  0
  -22.7293  -10.2135   20.3047 C   0  0  0  0  0  0
  -21.6860   -6.0742   22.5279 C   0  0  0  0  0  0
  -21.4020   -6.5644   23.8213 C   0  0  0  0  0  0
  -21.3660   -5.6795   24.9174 C   0  0  0  0  0  0
  -21.6043   -4.3057   24.7223 C   0  0  0  0  0  0
  -21.8818   -3.8151   23.4344 C   0  0  0  0  0  0
  -21.9195   -4.6969   22.3401 C   0  0  0  0  0  0
  -22.7713  -13.5153   21.1928 C   0  0  0  0  0  0
  -22.1662   -4.2154   21.0979 F   0  0  0  0  0  0
  -21.5627   -3.4540   25.7735 F   0  0  0  0  0  0
  -29.7500  -14.3765   20.2532 N   0  0  0  0  0  0
  -26.2766  -12.9654   20.3247 N   0  0  0  0  0  0
  -25.9376  -11.6711   20.5692 N   0  0  0  0  0  0
  -22.0381  -12.8128   22.0480 N   0  0  0  0  0  0
  -25.3868  -15.2043   20.4253 N   0  0  0  0  0  0
  -31.4896  -15.6885   20.1870 O   0  0  0  0  0  0
  -21.6650   -6.8891   21.4243 O   0  0  0  0  0  0
  -22.3385  -14.5450   20.6762 O   0  0  0  0  0  0
  -24.6936  -31.7881   23.1428 C   0  0  0  0  0  0
  -25.9467  -32.4408   23.8014 C   0  0  1  0  0  0
  -27.2314  -26.6000   20.2259 C   0  0  0  0  0  0
  -25.6003  -33.8239   24.1889 N   0  0  0  0  0  0
  -23.5248  -30.3852   21.4992 C   0  0  2  0  0  0
  -24.9837  -28.7043   20.1217 C   0  0  0  0  0  0
  -22.7812  -29.4252   22.4682 C   0  0  0  0  0  0
  -18.0345  -28.1427   22.8448 C   0  0  0  0  0  0
  -24.1496  -36.7128   23.2656 C   0  0  0  0  0  0
  -26.1099  -30.4873   21.4229 C   0  0  0  0  0  0
  -26.1749  -29.0406   20.7752 C   0  0  0  0  0  0
  -27.2793  -28.0201   20.7903 C   0  0  0  0  0  0
  -26.0052  -26.4991   19.5134 C   0  0  0  0  0  0
  -24.9440  -27.4606   19.4663 C   0  0  0  0  0  0
  -23.7849  -29.6724   20.1393 C   0  0  0  0  0  0
  -25.4150  -36.2860   24.0273 C   0  0  1  0  0  0
  -20.5986  -28.3792   23.1121 C   0  0  2  0  0  0
  -20.6806  -26.9441   22.5405 C   0  0  0  0  0  0
  -19.5784  -26.6367   21.5217 C   0  0  0  0  0  0
  -18.1967  -26.7952   22.1618 C   0  0  0  0  0  0
  -19.1614  -28.8936   23.2762 C   0  0  0  0  0  0
  -18.9518  -30.1517   23.8813 C   0  0  0  0  0  0
  -17.6507  -30.6607   24.0547 C   0  0  0  0  0  0
  -25.9137  -34.9253   23.4926 C   0  0  0  0  0  0
  -16.5395  -29.9086   23.6353 C   0  0  0  0  0  0
  -16.7324  -28.6509   23.0369 C   0  0  0  0  0  0
  -26.4611  -31.6488   25.0681 C   0  0  0  0  0  0
  -25.3648  -31.3836   26.1276 C   0  0  0  0  0  0
  -27.0562  -30.2813   24.6660 C   0  0  0  0  0  0
  -27.6036  -32.4377   25.7508 C   0  0  0  0  0  0
  -27.5560  -37.1721   24.8466 C   0  0  0  0  0  0
  -21.4449  -29.3019   22.3429 N   0  0  0  0  0  0
  -26.4267  -37.3633   23.9406 N   0  0  0  0  0  0
  -24.8007  -30.9224   22.0738 N   0  0  0  0  0  0
  -23.4206  -28.7870   23.3076 O   0  0  0  0  0  0
  -28.1813  -25.3340   20.2925 O   0  0  0  0  0  0
  -26.5793  -34.8851   22.4554 O   0  0  0  0  0  0
  -23.5932  -32.1003   23.6316 O   0  0  0  0  0  0
  -31.2233  -20.8510   20.4443 C   0  0  0  0  0  0
  -30.3278  -21.9742   20.3863 C   0  0  0  0  0  0
  -30.8973  -19.4510   20.4170 C   0  0  0  0  0  0
  -28.6498  -20.2656   20.2683 C   0  0  0  0  0  0
  -28.9175  -21.8849   20.2883 C   0  0  0  0  0  0
  -29.5860  -18.9200   20.3295 C   0  0  0  0  0  0
  -27.9553  -23.5403   20.1946 C   0  0  0  0  0  0
  -29.4678  -17.1584   20.3338 N   0  0  0  0  0  0
  -31.3972  -13.4683   19.1574 H   0  0  0  0  0  0
  -30.6150  -12.3654   20.2348 H   0  0  0  0  0  0
  -30.0382  -11.8449   17.8404 H   0  0  0  0  0  0
  -29.4933  -13.4857   17.5947 H   0  0  0  0  0  0
  -28.1920  -11.3161   19.2495 H   0  0  0  0  0  0
  -27.4721  -12.2092   17.9298 H   0  0  0  0  0  0
  -27.4353  -14.2232   19.2177 H   0  0  0  0  0  0
  -28.8922  -12.8505   21.5245 H   0  0  0  0  0  0
  -28.1402  -14.4228   21.6061 H   0  0  0  0  0  0
  -25.2799   -9.5677   22.4764 H   0  0  0  0  0  0
  -24.0015   -7.4641   22.7480 H   0  0  0  0  0  0
  -21.0874   -8.8796   19.8951 H   0  0  0  0  0  0
  -22.3752  -10.9677   19.6160 H   0  0  0  0  0  0
  -21.2015   -7.6152   23.9718 H   0  0  0  0  0  0
  -21.1481   -6.0525   25.9077 H   0  0  0  0  0  0
  -22.0595   -2.7612   23.2843 H   0  0  0  0  0  0
  -22.4028  -11.9810   22.4881 H   0  0  0  0  0  0
  -21.0984  -13.1116   22.2673 H   0  0  0  0  0  0
  -24.6121  -15.8494   20.5375 H   0  0  0  0  0  0
  -26.2233  -15.6482   20.0710 H   0  0  0  0  0  0
  -26.7560  -32.4853   23.0732 H   0  0  0  0  0  0
  -25.0040  -33.9259   24.9969 H   0  0  0  0  0  0
  -22.8560  -31.2251   21.3001 H   0  0  0  0  0  0
  -23.3778  -35.9436   23.3259 H   0  0  0  0  0  0
  -24.3559  -36.8857   22.2082 H   0  0  0  0  0  0
  -23.7237  -37.6279   23.6781 H   0  0  0  0  0  0
  -26.3235  -31.2052   20.6299 H   0  0  0  0  0  0
  -26.9566  -30.5591   22.0929 H   0  0  0  0  0  0
  -28.1740  -28.2884   21.3341 H   0  0  0  0  0  0
  -25.8210  -25.5639   19.0038 H   0  0  0  0  0  0
  -24.0480  -27.1923   18.9234 H   0  0  0  0  0  0
  -23.9691  -30.4280   19.3747 H   0  0  0  0  0  0
  -22.8876  -29.1444   19.8122 H   0  0  0  0  0  0
  -25.1366  -36.1607   25.0763 H   0  0  0  0  0  0
  -21.0064  -28.3426   24.1249 H   0  0  0  0  0  0
  -20.5660  -26.2419   23.3677 H   0  0  0  0  0  0
  -21.6666  -26.7367   22.1230 H   0  0  0  0  0  0
  -19.6938  -25.6255   21.1303 H   0  0  0  0  0  0
  -19.6730  -27.3129   20.6710 H   0  0  0  0  0  0
  -17.4236  -26.6693   21.4021 H   0  0  0  0  0  0
  -18.0352  -26.0116   22.9034 H   0  0  0  0  0  0
  -19.7994  -30.7354   24.2146 H   0  0  0  0  0  0
  -17.5057  -31.6278   24.5166 H   0  0  0  0  0  0
  -15.5392  -30.2961   23.7726 H   0  0  0  0  0  0
  -15.8725  -28.0800   22.7132 H   0  0  0  0  0  0
  -24.5864  -30.7155   25.7572 H   0  0  0  0  0  0
  -24.8806  -32.3067   26.4469 H   0  0  0  0  0  0
  -25.7799  -30.9150   27.0207 H   0  0  0  0  0  0
  -26.3300  -29.6394   24.1665 H   0  0  0  0  0  0
  -27.3958  -29.7305   25.5442 H   0  0  0  0  0  0
  -27.9292  -30.3914   24.0226 H   0  0  0  0  0  0
  -27.2557  -33.3759   26.1844 H   0  0  0  0  0  0
  -28.3970  -32.6810   25.0429 H   0  0  0  0  0  0
  -28.0570  -31.8672   26.5625 H   0  0  0  0  0  0
  -28.2540  -38.0050   24.7512 H   0  0  0  0  0  0
  -28.1093  -36.2570   24.6297 H   0  0  0  0  0  0
  -27.2273  -37.1358   25.8868 H   0  0  0  0  0  0
  -20.9779  -29.8658   21.6465 H   0  0  0  0  0  0
  -26.0084  -38.2675   24.1421 H   0  0  0  0  0  0
  -32.2755  -21.0887   20.5173 H   0  0  0  0  0  0
  -30.7626  -22.9641   20.4154 H   0  0  0  0  0  0
  -31.7198  -18.7513   20.4730 H   0  0  0  0  0  0
  -27.5975  -20.0310   20.1940 H   0  0  0  0  0  0
  -27.1705  -23.3778   20.9334 H   0  0  0  0  0  0
  -27.4334  -23.4350   19.2435 H   0  0  0  0  0  0
  -28.4908  -16.9030   20.3508 H   0  0  0  0  0  0
  1 25  1  0  0  0
  1 30  2  0  0  0
  1 78  1  0  0  0
  2  3  1  0  0  0
  2 25  1  0  0  0
  2 79  1  0  0  0
  2 80  1  0  0  0
  3  4  1  0  0  0
  3 81  1  0  0  0
  3 82  1  0  0  0
  4  5  1  0  0  0
  4 83  1  0  0  0
  4 84  1  0  0  0
  5  6  1  0  0  0
  5 26  1  0  0  0
  5 85  1  0  0  0
  6 25  1  0  0  0
  6 86  1  0  0  0
  6 87  1  0  0  0
  7  8  2  0  0  0
  7 26  1  0  0  0
  7 29  1  0  0  0
  8  9  1  0  0  0
  8 22  1  0  0  0
  9 10  1  0  0  0
  9 27  2  0  0  0
 10 11  2  0  0  0
 10 15  1  0  0  0
 11 12  1  0  0  0
 11 88  1  0  0  0
 12 13  2  0  0  0
 12 89  1  0  0  0
 13 14  1  0  0  0
 13 31  1  0  0  0
 14 15  2  0  0  0
 14 90  1  0  0  0
 15 91  1  0  0  0
 16 17  2  0  0  0
 16 21  1  0  0  0
 16 31  1  0  0  0
 17 18  1  0  0  0
 17 92  1  0  0  0
 18 19  2  0  0  0
 18 93  1  0  0  0
 19 20  1  0  0  0
 19 24  1  0  0  0
 20 21  2  0  0  0
 20 94  1  0  0  0
 21 23  1  0  0  0
 22 28  1  0  0  0
 22 32  2  0  0  0
 26 27  1  0  0  0
 28 95  1  0  0  0
 28 96  1  0  0  0
 29 97  1  0  0  0
 29 98  1  0  0  0
 33 34  1  0  0  0
 33 66  1  0  0  0
 33 70  2  0  0  0
 34 36  1  0  0  0
 34 59  1  0  0  0
 34 99  1  0  0  0
 35 44  2  0  0  0
 35 45  1  0  0  0
 35 68  1  0  0  0
 36 56  1  0  0  0
 36100  1  0  0  0
 37 39  1  0  0  0
 37 47  1  0  0  0
 37 66  1  0  0  0
 37101  1  0  0  0
 38 43  2  0  0  0
 38 46  1  0  0  0
 38 47  1  0  0  0
 39 64  1  0  0  0
 39 67  2  0  0  0
 40 52  1  0  0  0
 40 53  2  0  0  0
 40 58  1  0  0  0
 41102  1  0  0  0
 41103  1  0  0  0
 41104  1  0  0  0
 41 48  1  0  0  0
 42 43  1  0  0  0
 42 66  1  0  0  0
 42105  1  0  0  0
 42106  1  0  0  0
 43 44  1  0  0  0
 44107  1  0  0  0
 45 46  2  0  0  0
 45108  1  0  0  0
 46109  1  0  0  0
 47110  1  0  0  0
 47111  1  0  0  0
 48 56  1  0  0  0
 48 65  1  0  0  0
 48112  1  0  0  0
 49 50  1  0  0  0
 49 53  1  0  0  0
 49 64  1  0  0  0
 49113  1  0  0  0
 50 51  1  0  0  0
 50114  1  0  0  0
 50115  1  0  0  0
 51 52  1  0  0  0
 51116  1  0  0  0
 51117  1  0  0  0
 52118  1  0  0  0
 52119  1  0  0  0
 53 54  1  0  0  0
 54 55  2  0  0  0
 54120  1  0  0  0
 55 57  1  0  0  0
 55121  1  0  0  0
 56 69  2  0  0  0
 57 58  2  0  0  0
 57122  1  0  0  0
 58123  1  0  0  0
 59 60  1  0  0  0
 59 61  1  0  0  0
 59 62  1  0  0  0
 60124  1  0  0  0
 60125  1  0  0  0
 60126  1  0  0  0
 61127  1  0  0  0
 61128  1  0  0  0
 61129  1  0  0  0
 62130  1  0  0  0
 62131  1  0  0  0
 62132  1  0  0  0
 63 65  1  0  0  0
 63133  1  0  0  0
 63134  1  0  0  0
 63135  1  0  0  0
 64136  1  0  0  0
 65137  1  0  0  0
 68 77  1  0  0  0
 71 72  2  0  0  0
 71 73  1  0  0  0
 71138  1  0  0  0
 72 75  1  0  0  0
 72139  1  0  0  0
 73 76  2  0  0  0
 73140  1  0  0  0
 74 75  2  0  0  0
 74 76  1  0  0  0
 74141  1  0  0  0
 75 77  1  0  0  0
 76 78  1  0  0  0
 77142  1  0  0  0
 77143  1  0  0  0
 78144  1  0  0  0
M  ISO  4   1 100  68 101  77 101  78 100
M  END
> <chiral flag>
0

> <version>
0

> <s_m_source_file>
/data/baiqing/PycharmProjects/Reinvent-master-3.2/result/LINK_invent/BTK/process_docking_weight1_custom_product_contain_oxygen_bond_distance_aromatic_linkinvent_7_9_3/rearranged_h_0000.sdf

> <i_m_source_file_index>
51

> <r_mmod_Potential_Energy-OPLS-2005>
2813.380859375

> <r_mmod_Stretch_Energy-OPLS-2005>
1256.92761230469

> <r_mmod_Bend_Energy-OPLS-2005>
641.894226074219

> <r_mmod_Torsional_Energy-OPLS-2005>
222.88850402832

> <r_mmod_Improper_Torsional_Energy-OPLS-2005>
4.12787246704102

> <r_mmod_Van_der_Waal_Energy-OPLS-2005>
126.438247680664

> <r_mmod_Electrostatic_Energy-OPLS-2005>
-346.341064453125

> <r_mmod_Solvation_Energy-OPLS-2005>
-213.760787963867

> <b_mmod_Minimization_Converged-OPLS-2005>
0

> <r_mmod_RMS_Derivative-OPLS-2005>
0.157229289412498

$$$$
51
                    3D
 Structure written by MMmdl.
136143  0  0  1  0            999 V2000
  -30.0547  -16.4460   20.2582 C   0  0  0  0  0  0
  -30.3444  -13.6555   19.5669 C   0  0  0  0  0  0
  -29.5809  -12.8853   18.4207 C   0  0  0  0  0  0
  -28.2217  -12.3612   18.8918 C   0  0  0  0  0  0
  -27.5631  -13.4089   19.8053 C   0  0  2  0  0  0
  -28.4871  -14.0783   20.8756 C   0  0  0  0  0  0
  -25.2124  -13.8445   20.5879 C   0  0  0  0  0  0
  -24.1631  -13.0454   20.9323 C   0  0  0  0  0  0
  -24.6478  -11.7012   20.8735 C   0  0  0  0  0  0
  -23.9208  -10.4312   21.0352 C   0  0  0  0  0  0
  -24.3712   -9.4224   21.9154 C   0  0  0  0  0  0
  -23.6350   -8.2274   22.0747 C   0  0  0  0  0  0
  -22.4327   -8.0310   21.3544 C   0  0  0  0  0  0
  -21.9989   -9.0286   20.4636 C   0  0  0  0  0  0
  -22.7356  -10.2146   20.3023 C   0  0  0  0  0  0
  -21.6873   -6.0757   22.5279 C   0  0  0  0  0  0
  -21.4030   -6.5652   23.8214 C   0  0  0  0  0  0
  -21.3664   -5.6799   24.9172 C   0  0  0  0  0  0
  -21.6043   -4.3062   24.7220 C   0  0  0  0  0  0
  -21.8817   -3.8158   23.4339 C   0  0  0  0  0  0
  -21.9199   -4.6980   22.3398 C   0  0  0  0  0  0
  -22.7623  -13.5099   21.1948 C   0  0  0  0  0  0
  -22.1663   -4.2164   21.0975 F   0  0  0  0  0  0
  -21.5624   -3.4542   25.7730 F   0  0  0  0  0  0
  -29.5648  -14.8881   20.1934 N   0  0  0  0  0  0
  -26.2690  -12.9979   20.3316 N   0  0  0  0  0  0
  -25.9458  -11.6933   20.5620 N   0  0  0  0  0  0
  -22.0330  -12.8049   22.0506 N   0  0  0  0  0  0
  -25.3551  -15.2209   20.4332 N   0  0  0  0  0  0
  -31.3003  -16.2597   20.1575 O   0  0  0  0  0  0
  -21.6670   -6.8914   21.4248 O   0  0  0  0  0  0
  -22.3263  -14.5387   20.6788 O   0  0  0  0  0  0
  -24.7357  -31.7341   23.1059 C   0  0  0  0  0  0
  -25.9670  -32.4148   23.7810 C   0  0  1  0  0  0
  -27.2554  -26.1545   20.2647 C   0  0  0  0  0  0
  -25.6019  -33.8005   24.1636 N   0  0  0  0  0  0
  -23.5864  -30.3096   21.4734 C   0  0  2  0  0  0
  -25.0488  -28.5320   20.1367 C   0  0  0  0  0  0
  -22.7997  -29.3962   22.4572 C   0  0  0  0  0  0
  -18.0371  -28.1449   22.8427 C   0  0  0  0  0  0
  -24.1496  -36.7016   23.2667 C   0  0  0  0  0  0
  -26.1849  -30.2853   21.4529 C   0  0  0  0  0  0
  -26.2453  -28.7877   20.8145 C   0  0  0  0  0  0
  -27.3043  -27.6477   20.8288 C   0  0  0  0  0  0
  -26.0211  -26.2482   19.5206 C   0  0  0  0  0  0
  -25.0086  -27.2921   19.4634 C   0  0  0  0  0  0
  -23.8699  -29.5528   20.1341 C   0  0  0  0  0  0
  -25.4166  -36.2710   24.0243 C   0  0  1  0  0  0
  -20.6030  -28.3829   23.1046 C   0  0  2  0  0  0
  -20.6807  -26.9438   22.5415 C   0  0  0  0  0  0
  -19.5794  -26.6351   21.5223 C   0  0  0  0  0  0
  -18.1976  -26.7965   22.1609 C   0  0  0  0  0  0
  -19.1650  -28.8976   23.2700 C   0  0  0  0  0  0
  -18.9547  -30.1546   23.8768 C   0  0  0  0  0  0
  -17.6531  -30.6617   24.0538 C   0  0  0  0  0  0
  -25.9179  -34.9115   23.4820 C   0  0  0  0  0  0
  -16.5417  -29.9089   23.6364 C   0  0  0  0  0  0
  -16.7348  -28.6515   23.0376 C   0  0  0  0  0  0
  -26.4679  -31.6422   25.0657 C   0  0  0  0  0  0
  -25.3605  -31.3885   26.1171 C   0  0  0  0  0  0
  -27.0702  -30.2710   24.6944 C   0  0  0  0  0  0
  -27.6020  -32.4417   25.7503 C   0  0  0  0  0  0
  -27.5548  -37.1658   24.8464 C   0  0  0  0  0  0
  -21.4597  -29.2964   22.3307 N   0  0  0  0  0  0
  -26.4245  -37.3533   23.9412 N   0  0  0  0  0  0
  -24.8663  -30.8232   22.0623 N   0  0  0  0  0  0
  -23.4182  -28.7660   23.3173 O   0  0  0  0  0  0
  -28.1678  -24.6999   20.3196 O   0  0  0  0  0  0
  -26.5902  -34.8802   22.4495 O   0  0  0  0  0  0
  -23.6262  -32.0669   23.5664 O   0  0  0  0  0  0
  -28.1629  -22.6483   20.2373 C   0  0  0  0  0  0
  -29.1091  -20.5560   20.2925 C   0  0  0  0  0  0
  -29.0728  -18.5061   20.3040 O   0  0  0  0  0  0
  -31.2793  -14.0166   19.1378 H   0  0  0  0  0  0
  -30.6607  -12.9592   20.3459 H   0  0  0  0  0  0
  -30.1896  -12.0655   18.0370 H   0  0  0  0  0  0
  -29.4281  -13.5693   17.5846 H   0  0  0  0  0  0
  -28.3815  -11.4407   19.4547 H   0  0  0  0  0  0
  -27.5814  -12.1081   18.0457 H   0  0  0  0  0  0
  -27.3265  -14.2135   19.1067 H   0  0  0  0  0  0
  -28.8858  -13.3440   21.5777 H   0  0  0  0  0  0
  -27.9070  -14.7721   21.4846 H   0  0  0  0  0  0
  -25.2846   -9.5695   22.4747 H   0  0  0  0  0  0
  -24.0041   -7.4673   22.7486 H   0  0  0  0  0  0
  -21.0914   -8.8825   19.8947 H   0  0  0  0  0  0
  -22.3812  -10.9684   19.6133 H   0  0  0  0  0  0
  -21.2030   -7.6161   23.9723 H   0  0  0  0  0  0
  -21.1485   -6.0527   25.9076 H   0  0  0  0  0  0
  -22.0589   -2.7620   23.2834 H   0  0  0  0  0  0
  -22.4016  -11.9744   22.4901 H   0  0  0  0  0  0
  -21.0923  -13.0998   22.2709 H   0  0  0  0  0  0
  -24.5800  -15.8636   20.5550 H   0  0  0  0  0  0
  -26.2054  -15.6770   20.1269 H   0  0  0  0  0  0
  -26.7818  -32.4511   23.0570 H   0  0  0  0  0  0
  -24.9980  -33.8948   24.9669 H   0  0  0  0  0  0
  -22.9439  -31.1599   21.2351 H   0  0  0  0  0  0
  -23.3793  -35.9306   23.3221 H   0  0  0  0  0  0
  -24.3548  -36.8822   22.2104 H   0  0  0  0  0  0
  -23.7225  -37.6129   23.6862 H   0  0  0  0  0  0
  -26.4415  -30.9714   20.6448 H   0  0  0  0  0  0
  -27.0177  -30.3722   22.1369 H   0  0  0  0  0  0
  -28.1948  -27.8773   21.3966 H   0  0  0  0  0  0
  -25.7671  -25.3538   18.9693 H   0  0  0  0  0  0
  -24.1239  -27.0740   18.8809 H   0  0  0  0  0  0
  -24.0885  -30.2879   19.3588 H   0  0  0  0  0  0
  -22.9643  -29.0451   19.7982 H   0  0  0  0  0  0
  -25.1401  -36.1390   25.0729 H   0  0  0  0  0  0
  -21.0090  -28.3493   24.1183 H   0  0  0  0  0  0
  -20.5619  -26.2468   23.3725 H   0  0  0  0  0  0
  -21.6665  -26.7295   22.1268 H   0  0  0  0  0  0
  -19.6940  -25.6228   21.1334 H   0  0  0  0  0  0
  -19.6756  -27.3093   20.6701 H   0  0  0  0  0  0
  -17.4250  -26.6713   21.4007 H   0  0  0  0  0  0
  -18.0342  -26.0138   22.9031 H   0  0  0  0  0  0
  -19.8024  -30.7391   24.2084 H   0  0  0  0  0  0
  -17.5081  -31.6283   24.5167 H   0  0  0  0  0  0
  -15.5413  -30.2952   23.7763 H   0  0  0  0  0  0
  -15.8748  -28.0793   22.7164 H   0  0  0  0  0  0
  -24.5850  -30.7181   25.7447 H   0  0  0  0  0  0
  -24.8737  -32.3150   26.4225 H   0  0  0  0  0  0
  -25.7657  -30.9283   27.0191 H   0  0  0  0  0  0
  -26.3513  -29.6145   24.2036 H   0  0  0  0  0  0
  -27.4018  -29.7386   25.5869 H   0  0  0  0  0  0
  -27.9529  -30.3726   24.0630 H   0  0  0  0  0  0
  -27.2489  -33.3854   26.1674 H   0  0  0  0  0  0
  -28.4028  -32.6764   25.0478 H   0  0  0  0  0  0
  -28.0471  -31.8833   26.5748 H   0  0  0  0  0  0
  -28.2488  -38.0022   24.7530 H   0  0  0  0  0  0
  -28.1119  -36.2537   24.6267 H   0  0  0  0  0  0
  -27.2264  -37.1249   25.8865 H   0  0  0  0  0  0
  -21.0034  -29.8530   21.6213 H   0  0  0  0  0  0
  -26.0021  -38.2552   24.1448 H   0  0  0  0  0  0
  -27.4076  -22.4986   21.0086 H   0  0  0  0  0  0
  -27.6029  -22.5536   19.3072 H   0  0  0  0  0  0
  -29.8290  -20.6743   19.4829 H   0  0  0  0  0  0
  -29.7129  -20.6754   21.1918 H   0  0  0  0  0  0
  1 25  1  0  0  0
  1 30  2  0  0  0
  1 73  1  0  0  0
  2  3  1  0  0  0
  2 25  1  0  0  0
  2 74  1  0  0  0
  2 75  1  0  0  0
  3  4  1  0  0  0
  3 76  1  0  0  0
  3 77  1  0  0  0
  4  5  1  0  0  0
  4 78  1  0  0  0
  4 79  1  0  0  0
  5  6  1  0  0  0
  5 26  1  0  0  0
  5 80  1  0  0  0
  6 25  1  0  0  0
  6 81  1  0  0  0
  6 82  1  0  0  0
  7  8  2  0  0  0
  7 26  1  0  0  0
  7 29  1  0  0  0
  8  9  1  0  0  0
  8 22  1  0  0  0
  9 10  1  0  0  0
  9 27  2  0  0  0
 10 11  2  0  0  0
 10 15  1  0  0  0
 11 12  1  0  0  0
 11 83  1  0  0  0
 12 13  2  0  0  0
 12 84  1  0  0  0
 13 14  1  0  0  0
 13 31  1  0  0  0
 14 15  2  0  0  0
 14 85  1  0  0  0
 15 86  1  0  0  0
 16 17  2  0  0  0
 16 21  1  0  0  0
 16 31  1  0  0  0
 17 18  1  0  0  0
 17 87  1  0  0  0
 18 19  2  0  0  0
 18 88  1  0  0  0
 19 20  1  0  0  0
 19 24  1  0  0  0
 20 21  2  0  0  0
 20 89  1  0  0  0
 21 23  1  0  0  0
 22 28  1  0  0  0
 22 32  2  0  0  0
 26 27  1  0  0  0
 28 90  1  0  0  0
 28 91  1  0  0  0
 29 92  1  0  0  0
 29 93  1  0  0  0
 33 34  1  0  0  0
 33 66  1  0  0  0
 33 70  2  0  0  0
 34 36  1  0  0  0
 34 59  1  0  0  0
 34 94  1  0  0  0
 35 44  2  0  0  0
 35 45  1  0  0  0
 35 68  1  0  0  0
 36 56  1  0  0  0
 36 95  1  0  0  0
 37 39  1  0  0  0
 37 47  1  0  0  0
 37 66  1  0  0  0
 37 96  1  0  0  0
 38 43  2  0  0  0
 38 46  1  0  0  0
 38 47  1  0  0  0
 39 64  1  0  0  0
 39 67  2  0  0  0
 40 52  1  0  0  0
 40 53  2  0  0  0
 40 58  1  0  0  0
 41 97  1  0  0  0
 41 98  1  0  0  0
 41 99  1  0  0  0
 41 48  1  0  0  0
 42 43  1  0  0  0
 42 66  1  0  0  0
 42100  1  0  0  0
 42101  1  0  0  0
 43 44  1  0  0  0
 44102  1  0  0  0
 45 46  2  0  0  0
 45103  1  0  0  0
 46104  1  0  0  0
 47105  1  0  0  0
 47106  1  0  0  0
 48 56  1  0  0  0
 48 65  1  0  0  0
 48107  1  0  0  0
 49 50  1  0  0  0
 49 53  1  0  0  0
 49 64  1  0  0  0
 49108  1  0  0  0
 50 51  1  0  0  0
 50109  1  0  0  0
 50110  1  0  0  0
 51 52  1  0  0  0
 51111  1  0  0  0
 51112  1  0  0  0
 52113  1  0  0  0
 52114  1  0  0  0
 53 54  1  0  0  0
 54 55  2  0  0  0
 54115  1  0  0  0
 55 57  1  0  0  0
 55116  1  0  0  0
 56 69  2  0  0  0
 57 58  2  0  0  0
 57117  1  0  0  0
 58118  1  0  0  0
 59 60  1  0  0  0
 59 61  1  0  0  0
 59 62  1  0  0  0
 60119  1  0  0  0
 60120  1  0  0  0
 60121  1  0  0  0
 61122  1  0  0  0
 61123  1  0  0  0
 61124  1  0  0  0
 62125  1  0  0  0
 62126  1  0  0  0
 62127  1  0  0  0
 63 65  1  0  0  0
 63128  1  0  0  0
 63129  1  0  0  0
 63130  1  0  0  0
 64131  1  0  0  0
 65132  1  0  0  0
 68 71  1  0  0  0
 71 72  1  0  0  0
 71133  1  0  0  0
 71134  1  0  0  0
 72 73  1  0  0  0
 72135  1  0  0  0
 72136  1  0  0  0
M  ISO  4   1 100  68 101  71 101  73 100
M  END
> <chiral flag>
0

> <version>
0

> <s_m_source_file>
/data/baiqing/PycharmProjects/Reinvent-master-3.2/result/LINK_invent/BTK/process_docking_weight1_custom_product_contain_oxygen_bond_distance_aromatic_linkinvent_7_9_3/rearranged_h_0000.sdf

> <i_m_source_file_index>
52

> <r_mmod_Potential_Energy-OPLS-2005>
6478.73583984375

> <r_mmod_Stretch_Energy-OPLS-2005>
3177.73461914062

> <r_mmod_Bend_Energy-OPLS-2005>
1063.67736816406

> <r_mmod_Torsional_Energy-OPLS-2005>
189.976089477539

> <r_mmod_Improper_Torsional_Energy-OPLS-2005>
3.2452130317688

> <r_mmod_Van_der_Waal_Energy-OPLS-2005>
117.621681213379

> <r_mmod_Electrostatic_Energy-OPLS-2005>
-321.906036376953

> <r_mmod_Solvation_Energy-OPLS-2005>
-209.133285522461

> <b_mmod_Minimization_Converged-OPLS-2005>
1

> <r_mmod_RMS_Derivative-OPLS-2005>
0.0454980842769146

$$$$
52
                    3D
 Structure written by MMmdl.
156164  0  0  1  0            999 V2000
  -30.7296  -14.4151   20.5609 C   0  0  0  0  0  0
  -30.4103  -12.2657   19.4231 C   0  0  0  0  0  0
  -29.4931  -12.5019   18.2061 C   0  0  0  0  0  0
  -28.0120  -12.3743   18.6124 C   0  0  0  0  0  0
  -27.6630  -13.2070   19.8756 C   0  0  2  0  0  0
  -28.7018  -12.9771   20.9983 C   0  0  0  0  0  0
  -25.2591  -13.8164   20.5672 C   0  0  0  0  0  0
  -24.1844  -13.0439   20.9177 C   0  0  0  0  0  0
  -24.6397  -11.6907   20.8727 C   0  0  0  0  0  0
  -23.9059  -10.4296   21.0397 C   0  0  0  0  0  0
  -24.3615   -9.4212   21.9175 C   0  0  0  0  0  0
  -23.6294   -8.2243   22.0743 C   0  0  0  0  0  0
  -22.4273   -8.0281   21.3537 C   0  0  0  0  0  0
  -21.9907   -9.0251   20.4635 C   0  0  0  0  0  0
  -22.7231  -10.2134   20.3044 C   0  0  0  0  0  0
  -21.6848   -6.0739   22.5282 C   0  0  0  0  0  0
  -21.4011   -6.5643   23.8219 C   0  0  0  0  0  0
  -21.3661   -5.6791   24.9177 C   0  0  0  0  0  0
  -21.6047   -4.3055   24.7224 C   0  0  0  0  0  0
  -21.8818   -3.8150   23.4343 C   0  0  0  0  0  0
  -21.9194   -4.6967   22.3402 C   0  0  0  0  0  0
  -22.7869  -13.5243   21.1853 C   0  0  0  0  0  0
  -22.1663   -4.2158   21.0978 F   0  0  0  0  0  0
  -21.5631   -3.4535   25.7732 F   0  0  0  0  0  0
  -30.0404  -13.2508   20.4488 N   0  0  0  0  0  0
  -26.3034  -12.9341   20.3358 N   0  0  0  0  0  0
  -25.9327  -11.6498   20.5750 N   0  0  0  0  0  0
  -22.0507  -12.8230   22.0404 N   0  0  0  0  0  0
  -25.4294  -15.1879   20.4050 N   0  0  0  0  0  0
  -31.8658  -14.5623   20.1020 O   0  0  0  0  0  0
  -21.6635   -6.8882   21.4241 O   0  0  0  0  0  0
  -22.3557  -14.5554   20.6708 O   0  0  0  0  0  0
  -24.6091  -31.8720   23.2146 C   0  0  0  0  0  0
  -25.9011  -32.4841   23.8429 C   0  0  1  0  0  0
  -27.2426  -27.4823   20.1057 C   0  0  0  0  0  0
  -25.5883  -33.8638   24.2360 N   0  0  0  0  0  0
  -23.3952  -30.4934   21.5529 C   0  0  2  0  0  0
  -24.8454  -28.9644   20.1178 C   0  0  0  0  0  0
  -22.7380  -29.4675   22.5023 C   0  0  0  0  0  0
  -18.0262  -28.1370   22.8502 C   0  0  0  0  0  0
  -24.1477  -36.7332   23.2635 C   0  0  0  0  0  0
  -25.9170  -30.8555   21.3582 C   0  0  0  0  0  0
  -25.9999  -29.4926   20.7094 C   0  0  0  0  0  0
  -27.2037  -28.7617   20.6999 C   0  0  0  0  0  0
  -26.0792  -26.9605   19.5039 C   0  0  0  0  0  0
  -24.8777  -27.6945   19.5120 C   0  0  0  0  0  0
  -23.6027  -29.8231   20.1675 C   0  0  0  0  0  0
  -25.4091  -36.3128   24.0346 C   0  0  1  0  0  0
  -20.5846  -28.3646   23.1339 C   0  0  2  0  0  0
  -20.6741  -26.9389   22.5428 C   0  0  0  0  0  0
  -19.5722  -26.6383   21.5218 C   0  0  0  0  0  0
  -18.1902  -26.7919   22.1629 C   0  0  0  0  0  0
  -19.1510  -28.8828   23.2916 C   0  0  0  0  0  0
  -18.9443  -30.1438   23.8911 C   0  0  0  0  0  0
  -17.6446  -30.6577   24.0565 C   0  0  0  0  0  0
  -25.9024  -34.9489   23.5152 C   0  0  0  0  0  0
  -16.5334  -29.9076   23.6323 C   0  0  0  0  0  0
  -16.7251  -28.6496   23.0339 C   0  0  0  0  0  0
  -26.4463  -31.6601   25.0732 C   0  0  0  0  0  0
  -25.3748  -31.3686   26.1501 C   0  0  0  0  0  0
  -27.0295  -30.3050   24.6075 C   0  0  0  0  0  0
  -27.6057  -32.4305   25.7485 C   0  0  0  0  0  0
  -27.5591  -37.1804   24.8453 C   0  0  0  0  0  0
  -21.4116  -29.3026   22.3759 N   0  0  0  0  0  0
  -26.4280  -37.3811   23.9425 N   0  0  0  0  0  0
  -24.6582  -31.0861   22.1021 N   0  0  0  0  0  0
  -23.4180  -28.8221   23.3046 O   0  0  0  0  0  0
  -28.3919  -26.7351   20.0685 O   0  0  0  0  0  0
  -26.5580  -34.8933   22.4710 O   0  0  0  0  0  0
  -23.5300  -32.1457   23.7573 O   0  0  0  0  0  0
  -29.0280  -17.5244   20.3163 C   0  0  0  0  0  0
  -31.4491  -17.4165   20.5337 C   0  0  0  0  0  0
  -29.1356  -18.8214   19.7767 C   0  0  0  0  0  0
  -31.5543  -18.7088   19.9904 C   0  0  0  0  0  0
  -30.1845  -16.7943   20.6570 C   0  0  0  0  0  0
  -30.4070  -19.4200   19.5949 C   0  0  0  0  0  0
  -28.9022  -26.2284   21.2158 C   0  0  0  0  0  0
  -29.9228  -25.1232   20.9608 C   0  0  0  0  0  0
  -29.3015  -23.9655   20.1607 C   0  0  0  0  0  0
  -30.2414  -22.7629   20.0209 C   0  0  0  0  0  0
  -29.6423  -21.6683   19.1308 C   0  0  0  0  0  0
  -30.0342  -15.4433   21.0742 N   0  0  0  0  0  0
  -28.5765  -26.5390   22.3648 O   0  0  0  0  0  0
  -30.6164  -20.6396   18.9935 O   0  0  0  0  0  0
  -31.4597  -12.3329   19.1301 H   0  0  0  0  0  0
  -30.2785  -11.2558   19.8136 H   0  0  0  0  0  0
  -29.7268  -11.7893   17.4147 H   0  0  0  0  0  0
  -29.6769  -13.4937   17.7889 H   0  0  0  0  0  0
  -27.8092  -11.3191   18.7957 H   0  0  0  0  0  0
  -27.3680  -12.6648   17.7816 H   0  0  0  0  0  0
  -27.7116  -14.2569   19.5851 H   0  0  0  0  0  0
  -28.6595  -11.9442   21.3460 H   0  0  0  0  0  0
  -28.4726  -13.5865   21.8740 H   0  0  0  0  0  0
  -25.2759   -9.5694   22.4746 H   0  0  0  0  0  0
  -24.0006   -7.4635   22.7460 H   0  0  0  0  0  0
  -21.0839   -8.8765   19.8942 H   0  0  0  0  0  0
  -22.3685  -10.9669   19.6150 H   0  0  0  0  0  0
  -21.1994   -7.6147   23.9728 H   0  0  0  0  0  0
  -21.1487   -6.0516   25.9087 H   0  0  0  0  0  0
  -22.0596   -2.7611   23.2834 H   0  0  0  0  0  0
  -22.4108  -11.9874   22.4776 H   0  0  0  0  0  0
  -21.1127  -13.1256   22.2616 H   0  0  0  0  0  0
  -24.6557  -15.8372   20.4965 H   0  0  0  0  0  0
  -26.2734  -15.6222   20.0564 H   0  0  0  0  0  0
  -26.7092  -32.5585   23.1212 H   0  0  0  0  0  0
  -25.0023  -33.9812   25.0498 H   0  0  0  0  0  0
  -22.6816  -31.3082   21.4136 H   0  0  0  0  0  0
  -23.3744  -35.9663   23.3283 H   0  0  0  0  0  0
  -24.3586  -36.8959   22.2055 H   0  0  0  0  0  0
  -23.7226  -37.6530   23.6652 H   0  0  0  0  0  0
  -26.0170  -31.6221   20.5888 H   0  0  0  0  0  0
  -26.8087  -30.9147   21.9703 H   0  0  0  0  0  0
  -28.0962  -29.1701   21.1532 H   0  0  0  0  0  0
  -26.1067  -25.9859   19.0380 H   0  0  0  0  0  0
  -23.9907  -27.2807   19.0517 H   0  0  0  0  0  0
  -23.7040  -30.5962   19.4046 H   0  0  0  0  0  0
  -22.7299  -29.2357   19.8763 H   0  0  0  0  0  0
  -25.1261  -36.1999   25.0839 H   0  0  0  0  0  0
  -20.9937  -28.3197   24.1455 H   0  0  0  0  0  0
  -20.5623  -26.2255   23.3606 H   0  0  0  0  0  0
  -21.6609  -26.7417   22.1221 H   0  0  0  0  0  0
  -19.6865  -25.6298   21.1227 H   0  0  0  0  0  0
  -19.6656  -27.3202   20.6757 H   0  0  0  0  0  0
  -17.4169  -26.6684   21.4027 H   0  0  0  0  0  0
  -18.0290  -26.0051   22.9013 H   0  0  0  0  0  0
  -19.7924  -30.7253   24.2272 H   0  0  0  0  0  0
  -17.4999  -31.6255   24.5168 H   0  0  0  0  0  0
  -15.5329  -30.2974   23.7643 H   0  0  0  0  0  0
  -15.8655  -28.0821   22.7028 H   0  0  0  0  0  0
  -24.5905  -30.7050   25.7840 H   0  0  0  0  0  0
  -24.8953  -32.2831   26.4998 H   0  0  0  0  0  0
  -25.8118  -30.8821   27.0229 H   0  0  0  0  0  0
  -26.2833  -29.6802   24.1147 H   0  0  0  0  0  0
  -27.4103  -29.7289   25.4517 H   0  0  0  0  0  0
  -27.8647  -30.4377   23.9192 H   0  0  0  0  0  0
  -27.2688  -33.3579   26.2128 H   0  0  0  0  0  0
  -28.3831  -32.6906   25.0289 H   0  0  0  0  0  0
  -28.0766  -31.8385   26.5344 H   0  0  0  0  0  0
  -28.2569  -38.0141   24.7566 H   0  0  0  0  0  0
  -28.1128  -36.2680   24.6181 H   0  0  0  0  0  0
  -27.2329  -37.1333   25.8857 H   0  0  0  0  0  0
  -20.9261  -29.8775   21.7012 H   0  0  0  0  0  0
  -26.0179  -38.2884   24.1468 H   0  0  0  0  0  0
  -28.0489  -17.0794   20.4152 H   0  0  0  0  0  0
  -32.3562  -16.8996   20.8128 H   0  0  0  0  0  0
  -28.2263  -19.3106   19.4633 H   0  0  0  0  0  0
  -32.5313  -19.1506   19.8565 H   0  0  0  0  0  0
  -30.2862  -24.7603   21.9224 H   0  0  0  0  0  0
  -30.7796  -25.5417   20.4333 H   0  0  0  0  0  0
  -29.0243  -24.3206   19.1668 H   0  0  0  0  0  0
  -28.3748  -23.6426   20.6389 H   0  0  0  0  0  0
  -30.4633  -22.3513   21.0067 H   0  0  0  0  0  0
  -31.1927  -23.0880   19.5992 H   0  0  0  0  0  0
  -29.4316  -22.0717   18.1396 H   0  0  0  0  0  0
  -28.6877  -21.3499   19.5444 H   0  0  0  0  0  0
  -29.1202  -15.1842   21.4124 H   0  0  0  0  0  0
  1 25  1  0  0  0
  1 30  2  0  0  0
  1 82  1  0  0  0
  2  3  1  0  0  0
  2 25  1  0  0  0
  2 85  1  0  0  0
  2 86  1  0  0  0
  3  4  1  0  0  0
  3 87  1  0  0  0
  3 88  1  0  0  0
  4  5  1  0  0  0
  4 89  1  0  0  0
  4 90  1  0  0  0
  5  6  1  0  0  0
  5 26  1  0  0  0
  5 91  1  0  0  0
  6 25  1  0  0  0
  6 92  1  0  0  0
  6 93  1  0  0  0
  7  8  2  0  0  0
  7 26  1  0  0  0
  7 29  1  0  0  0
  8  9  1  0  0  0
  8 22  1  0  0  0
  9 10  1  0  0  0
  9 27  2  0  0  0
 10 11  2  0  0  0
 10 15  1  0  0  0
 11 12  1  0  0  0
 11 94  1  0  0  0
 12 13  2  0  0  0
 12 95  1  0  0  0
 13 14  1  0  0  0
 13 31  1  0  0  0
 14 15  2  0  0  0
 14 96  1  0  0  0
 15 97  1  0  0  0
 16 17  2  0  0  0
 16 21  1  0  0  0
 16 31  1  0  0  0
 17 18  1  0  0  0
 17 98  1  0  0  0
 18 19  2  0  0  0
 18 99  1  0  0  0
 19 20  1  0  0  0
 19 24  1  0  0  0
 20 21  2  0  0  0
 20100  1  0  0  0
 21 23  1  0  0  0
 22 28  1  0  0  0
 22 32  2  0  0  0
 26 27  1  0  0  0
 28101  1  0  0  0
 28102  1  0  0  0
 29103  1  0  0  0
 29104  1  0  0  0
 33 34  1  0  0  0
 33 66  1  0  0  0
 33 70  2  0  0  0
 34 36  1  0  0  0
 34 59  1  0  0  0
 34105  1  0  0  0
 35 44  2  0  0  0
 35 45  1  0  0  0
 35 68  1  0  0  0
 36 56  1  0  0  0
 36106  1  0  0  0
 37 39  1  0  0  0
 37 47  1  0  0  0
 37 66  1  0  0  0
 37107  1  0  0  0
 38 43  2  0  0  0
 38 46  1  0  0  0
 38 47  1  0  0  0
 39 64  1  0  0  0
 39 67  2  0  0  0
 40 52  1  0  0  0
 40 53  2  0  0  0
 40 58  1  0  0  0
 41108  1  0  0  0
 41109  1  0  0  0
 41110  1  0  0  0
 41 48  1  0  0  0
 42 43  1  0  0  0
 42 66  1  0  0  0
 42111  1  0  0  0
 42112  1  0  0  0
 43 44  1  0  0  0
 44113  1  0  0  0
 45 46  2  0  0  0
 45114  1  0  0  0
 46115  1  0  0  0
 47116  1  0  0  0
 47117  1  0  0  0
 48 56  1  0  0  0
 48 65  1  0  0  0
 48118  1  0  0  0
 49 50  1  0  0  0
 49 53  1  0  0  0
 49 64  1  0  0  0
 49119  1  0  0  0
 50 51  1  0  0  0
 50120  1  0  0  0
 50121  1  0  0  0
 51 52  1  0  0  0
 51122  1  0  0  0
 51123  1  0  0  0
 52124  1  0  0  0
 52125  1  0  0  0
 53 54  1  0  0  0
 54 55  2  0  0  0
 54126  1  0  0  0
 55 57  1  0  0  0
 55127  1  0  0  0
 56 69  2  0  0  0
 57 58  2  0  0  0
 57128  1  0  0  0
 58129  1  0  0  0
 59 60  1  0  0  0
 59 61  1  0  0  0
 59 62  1  0  0  0
 60130  1  0  0  0
 60131  1  0  0  0
 60132  1  0  0  0
 61133  1  0  0  0
 61134  1  0  0  0
 61135  1  0  0  0
 62136  1  0  0  0
 62137  1  0  0  0
 62138  1  0  0  0
 63 65  1  0  0  0
 63139  1  0  0  0
 63140  1  0  0  0
 63141  1  0  0  0
 64142  1  0  0  0
 65143  1  0  0  0
 68 77  1  0  0  0
 71 73  2  0  0  0
 71 75  1  0  0  0
 71144  1  0  0  0
 72 74  1  0  0  0
 72 75  2  0  0  0
 72145  1  0  0  0
 73 76  1  0  0  0
 73146  1  0  0  0
 74 76  2  0  0  0
 74147  1  0  0  0
 75 82  1  0  0  0
 76 84  1  0  0  0
 77 78  1  0  0  0
 77 83  2  0  0  0
 78 79  1  0  0  0
 78148  1  0  0  0
 78149  1  0  0  0
 79 80  1  0  0  0
 79150  1  0  0  0
 79151  1  0  0  0
 80 81  1  0  0  0
 80152  1  0  0  0
 80153  1  0  0  0
 81 84  1  0  0  0
 81154  1  0  0  0
 81155  1  0  0  0
 82156  1  0  0  0
M  ISO  4   1 100  68 101  77 101  82 100
M  END
> <chiral flag>
0

> <version>
0

> <s_m_source_file>
/data/baiqing/PycharmProjects/Reinvent-master-3.2/result/LINK_invent/BTK/process_docking_weight1_custom_product_contain_oxygen_bond_distance_aromatic_linkinvent_7_9_3/rearranged_h_0000.sdf

> <i_m_source_file_index>
53

> <r_mmod_Potential_Energy-OPLS-2005>
-41.8644752502441

> <r_mmod_Stretch_Energy-OPLS-2005>
31.6522464752197

> <r_mmod_Bend_Energy-OPLS-2005>
96.3759536743164

> <r_mmod_Torsional_Energy-OPLS-2005>
235.947387695312

> <r_mmod_Improper_Torsional_Energy-OPLS-2005>
5.91312313079834

> <r_mmod_Van_der_Waal_Energy-OPLS-2005>
159.480239868164

> <r_mmod_Electrostatic_Energy-OPLS-2005>
-363.804290771484

> <r_mmod_Solvation_Energy-OPLS-2005>
-217.187347412109

> <b_mmod_Minimization_Converged-OPLS-2005>
0

> <r_mmod_RMS_Derivative-OPLS-2005>
1.33287084102631

$$$$
53
                    3D
 Structure written by MMmdl.
158165  0  0  1  0            999 V2000
  -30.7658  -14.3889   20.6360 C   0  0  0  0  0  0
  -30.4074  -12.2785   19.4144 C   0  0  0  0  0  0
  -29.4903  -12.5247   18.1997 C   0  0  0  0  0  0
  -28.0096  -12.3990   18.6040 C   0  0  0  0  0  0
  -27.6673  -13.2142   19.8803 C   0  0  2  0  0  0
  -28.7046  -12.9686   21.0009 C   0  0  0  0  0  0
  -25.2610  -13.8184   20.5647 C   0  0  0  0  0  0
  -24.1858  -13.0456   20.9146 C   0  0  0  0  0  0
  -24.6424  -11.6929   20.8746 C   0  0  0  0  0  0
  -23.9089  -10.4310   21.0422 C   0  0  0  0  0  0
  -24.3632   -9.4216   21.9193 C   0  0  0  0  0  0
  -23.6297   -8.2260   22.0762 C   0  0  0  0  0  0
  -22.4270   -8.0312   21.3575 C   0  0  0  0  0  0
  -21.9914   -9.0289   20.4670 C   0  0  0  0  0  0
  -22.7263  -10.2147   20.3065 C   0  0  0  0  0  0
  -21.6865   -6.0758   22.5298 C   0  0  0  0  0  0
  -21.4021   -6.5664   23.8236 C   0  0  0  0  0  0
  -21.3647   -5.6804   24.9185 C   0  0  0  0  0  0
  -21.6029   -4.3063   24.7226 C   0  0  0  0  0  0
  -21.8820   -3.8171   23.4356 C   0  0  0  0  0  0
  -21.9192   -4.6994   22.3407 C   0  0  0  0  0  0
  -22.7896  -13.5264   21.1841 C   0  0  0  0  0  0
  -22.1674   -4.2188   21.0981 F   0  0  0  0  0  0
  -21.5602   -3.4532   25.7736 F   0  0  0  0  0  0
  -30.0476  -13.2474   20.4604 N   0  0  0  0  0  0
  -26.3053  -12.9366   20.3350 N   0  0  0  0  0  0
  -25.9345  -11.6514   20.5746 N   0  0  0  0  0  0
  -22.0528  -12.8243   22.0385 N   0  0  0  0  0  0
  -25.4334  -15.1903   20.4105 N   0  0  0  0  0  0
  -31.8181  -14.6281   20.0402 O   0  0  0  0  0  0
  -21.6647   -6.8898   21.4256 O   0  0  0  0  0  0
  -22.3575  -14.5598   20.6747 O   0  0  0  0  0  0
  -24.6101  -31.8715   23.2139 C   0  0  0  0  0  0
  -25.9010  -32.4844   23.8419 C   0  0  1  0  0  0
  -27.2304  -27.4522   20.0946 C   0  0  0  0  0  0
  -25.5879  -33.8642   24.2359 N   0  0  0  0  0  0
  -23.3960  -30.4948   21.5544 C   0  0  2  0  0  0
  -24.8404  -28.9644   20.1208 C   0  0  0  0  0  0
  -22.7356  -29.4691   22.5019 C   0  0  0  0  0  0
  -18.0253  -28.1394   22.8486 C   0  0  0  0  0  0
  -24.1489  -36.7329   23.2643 C   0  0  0  0  0  0
  -25.9212  -30.8438   21.3623 C   0  0  0  0  0  0
  -25.9996  -29.4780   20.7130 C   0  0  0  0  0  0
  -27.1971  -28.7292   20.6948 C   0  0  0  0  0  0
  -26.0461  -26.9464   19.5050 C   0  0  0  0  0  0
  -24.8574  -27.6953   19.5186 C   0  0  0  0  0  0
  -23.6038  -29.8301   20.1683 C   0  0  0  0  0  0
  -25.4106  -36.3135   24.0358 C   0  0  1  0  0  0
  -20.5828  -28.3668   23.1298 C   0  0  2  0  0  0
  -20.6728  -26.9382   22.5424 C   0  0  0  0  0  0
  -19.5700  -26.6354   21.5215 C   0  0  0  0  0  0
  -18.1898  -26.7920   22.1655 C   0  0  0  0  0  0
  -19.1504  -28.8837   23.2895 C   0  0  0  0  0  0
  -18.9473  -30.1463   23.8858 C   0  0  0  0  0  0
  -17.6481  -30.6617   24.0554 C   0  0  0  0  0  0
  -25.9029  -34.9498   23.5147 C   0  0  0  0  0  0
  -16.5367  -29.9126   23.6339 C   0  0  0  0  0  0
  -16.7258  -28.6546   23.0341 C   0  0  0  0  0  0
  -26.4436  -31.6599   25.0716 C   0  0  0  0  0  0
  -25.3739  -31.3674   26.1494 C   0  0  0  0  0  0
  -27.0236  -30.3066   24.5996 C   0  0  0  0  0  0
  -27.6022  -32.4286   25.7473 C   0  0  0  0  0  0
  -27.5581  -37.1820   24.8466 C   0  0  0  0  0  0
  -21.4087  -29.3057   22.3715 N   0  0  0  0  0  0
  -26.4307  -37.3794   23.9404 N   0  0  0  0  0  0
  -24.6609  -31.0829   22.1033 N   0  0  0  0  0  0
  -23.4132  -28.8227   23.3053 O   0  0  0  0  0  0
  -28.4214  -26.7587   20.0955 O   0  0  0  0  0  0
  -26.5578  -34.8930   22.4697 O   0  0  0  0  0  0
  -23.5302  -32.1467   23.7550 O   0  0  0  0  0  0
  -30.8032  -16.6265   21.6666 C   0  0  0  0  0  0
  -30.0066  -17.4124   22.7233 C   0  0  0  0  0  0
  -28.3843  -25.3277   20.1107 C   0  0  0  0  0  0
  -27.9345  -24.7756   21.4773 C   0  0  0  0  0  0
  -28.1748  -18.1294   21.3338 C   0  0  0  0  0  0
  -27.1010  -19.1651   21.7100 C   0  0  0  0  0  0
  -27.4055  -22.7646   22.6157 C   0  0  0  0  0  0
  -26.7461  -21.3890   22.4286 C   0  0  0  0  0  0
  -30.2482  -15.2873   21.4780 N   0  0  0  0  0  0
  -28.6015  -17.4062   22.4848 O   0  0  0  0  0  0
  -27.5942  -23.3981   21.3515 O   0  0  0  0  0  0
  -27.7040  -20.4209   22.0108 O   0  0  0  0  0  0
  -31.4545  -12.3509   19.1182 H   0  0  0  0  0  0
  -30.2767  -11.2628   19.7914 H   0  0  0  0  0  0
  -29.7224  -11.8254   17.3950 H   0  0  0  0  0  0
  -29.6777  -13.5220   17.7984 H   0  0  0  0  0  0
  -27.7996  -11.3426   18.7700 H   0  0  0  0  0  0
  -27.3646  -12.7129   17.7823 H   0  0  0  0  0  0
  -27.7166  -14.2687   19.6085 H   0  0  0  0  0  0
  -28.6574  -11.9347   21.3434 H   0  0  0  0  0  0
  -28.4595  -13.5680   21.8779 H   0  0  0  0  0  0
  -25.2789   -9.5683   22.4748 H   0  0  0  0  0  0
  -24.0037   -7.4633   22.7446 H   0  0  0  0  0  0
  -21.0869   -8.8814   19.8962 H   0  0  0  0  0  0
  -22.3768  -10.9680   19.6159 H   0  0  0  0  0  0
  -21.2035   -7.6184   23.9755 H   0  0  0  0  0  0
  -21.1443   -6.0531   25.9085 H   0  0  0  0  0  0
  -22.0608   -2.7644   23.2837 H   0  0  0  0  0  0
  -22.4168  -11.9919   22.4781 H   0  0  0  0  0  0
  -21.1157  -13.1310   22.2571 H   0  0  0  0  0  0
  -24.6752  -15.8507   20.5350 H   0  0  0  0  0  0
  -26.2984  -15.6303   20.1253 H   0  0  0  0  0  0
  -26.7092  -32.5561   23.1204 H   0  0  0  0  0  0
  -25.0030  -33.9781   25.0512 H   0  0  0  0  0  0
  -22.6840  -31.3118   21.4153 H   0  0  0  0  0  0
  -23.3746  -35.9659   23.3322 H   0  0  0  0  0  0
  -24.3596  -36.8909   22.2051 H   0  0  0  0  0  0
  -23.7252  -37.6548   23.6635 H   0  0  0  0  0  0
  -26.0240  -31.6055   20.5894 H   0  0  0  0  0  0
  -26.8156  -30.9024   21.9711 H   0  0  0  0  0  0
  -28.0959  -29.1251   21.1473 H   0  0  0  0  0  0
  -26.0144  -25.9838   19.0197 H   0  0  0  0  0  0
  -23.9650  -27.2922   19.0616 H   0  0  0  0  0  0
  -23.7141  -30.6060   19.4081 H   0  0  0  0  0  0
  -22.7275  -29.2498   19.8720 H   0  0  0  0  0  0
  -25.1284  -36.2002   25.0854 H   0  0  0  0  0  0
  -20.9891  -28.3229   24.1424 H   0  0  0  0  0  0
  -20.5602  -26.2251   23.3610 H   0  0  0  0  0  0
  -21.6611  -26.7407   22.1227 H   0  0  0  0  0  0
  -19.6846  -25.6250   21.1270 H   0  0  0  0  0  0
  -19.6652  -27.3143   20.6733 H   0  0  0  0  0  0
  -17.4137  -26.6615   21.4110 H   0  0  0  0  0  0
  -18.0347  -26.0112   22.9107 H   0  0  0  0  0  0
  -19.7981  -30.7257   24.2181 H   0  0  0  0  0  0
  -17.5108  -31.6305   24.5150 H   0  0  0  0  0  0
  -15.5386  -30.3040   23.7694 H   0  0  0  0  0  0
  -15.8663  -28.0877   22.7024 H   0  0  0  0  0  0
  -24.5943  -30.6961   25.7877 H   0  0  0  0  0  0
  -24.8897  -32.2806   26.4953 H   0  0  0  0  0  0
  -25.8157  -30.8882   27.0242 H   0  0  0  0  0  0
  -26.2729  -29.6882   24.1065 H   0  0  0  0  0  0
  -27.4075  -29.7227   25.4369 H   0  0  0  0  0  0
  -27.8537  -30.4433   23.9068 H   0  0  0  0  0  0
  -27.2658  -33.3587   26.2067 H   0  0  0  0  0  0
  -28.3831  -32.6835   25.0301 H   0  0  0  0  0  0
  -28.0682  -31.8392   26.5376 H   0  0  0  0  0  0
  -28.2621  -38.0097   24.7492 H   0  0  0  0  0  0
  -28.1059  -36.2630   24.6327 H   0  0  0  0  0  0
  -27.2290  -37.1508   25.8865 H   0  0  0  0  0  0
  -20.9228  -29.8741   21.6898 H   0  0  0  0  0  0
  -26.0211  -38.2877   24.1379 H   0  0  0  0  0  0
  -31.8503  -16.5537   21.9721 H   0  0  0  0  0  0
  -30.8015  -17.1641   20.7154 H   0  0  0  0  0  0
  -30.3767  -18.4353   22.8054 H   0  0  0  0  0  0
  -30.1733  -16.9517   23.6981 H   0  0  0  0  0  0
  -27.7738  -24.9237   19.3056 H   0  0  0  0  0  0
  -29.3912  -24.9687   19.9042 H   0  0  0  0  0  0
  -27.0649  -25.3227   21.8493 H   0  0  0  0  0  0
  -28.7350  -24.9156   22.2048 H   0  0  0  0  0  0
  -28.9949  -18.6094   20.7986 H   0  0  0  0  0  0
  -27.7358  -17.3974   20.6547 H   0  0  0  0  0  0
  -26.4948  -18.8077   22.5443 H   0  0  0  0  0  0
  -26.4299  -19.2956   20.8600 H   0  0  0  0  0  0
  -26.7483  -23.3755   23.2379 H   0  0  0  0  0  0
  -28.3573  -22.6684   23.1402 H   0  0  0  0  0  0
  -25.9108  -21.4697   21.7303 H   0  0  0  0  0  0
  -26.3306  -21.0636   23.3829 H   0  0  0  0  0  0
  -29.3893  -15.0652   21.9615 H   0  0  0  0  0  0
  1 25  1  0  0  0
  1 30  2  0  0  0
  1 79  1  0  0  0
  2  3  1  0  0  0
  2 25  1  0  0  0
  2 83  1  0  0  0
  2 84  1  0  0  0
  3  4  1  0  0  0
  3 85  1  0  0  0
  3 86  1  0  0  0
  4  5  1  0  0  0
  4 87  1  0  0  0
  4 88  1  0  0  0
  5  6  1  0  0  0
  5 26  1  0  0  0
  5 89  1  0  0  0
  6 25  1  0  0  0
  6 90  1  0  0  0
  6 91  1  0  0  0
  7  8  2  0  0  0
  7 26  1  0  0  0
  7 29  1  0  0  0
  8  9  1  0  0  0
  8 22  1  0  0  0
  9 10  1  0  0  0
  9 27  2  0  0  0
 10 11  2  0  0  0
 10 15  1  0  0  0
 11 12  1  0  0  0
 11 92  1  0  0  0
 12 13  2  0  0  0
 12 93  1  0  0  0
 13 14  1  0  0  0
 13 31  1  0  0  0
 14 15  2  0  0  0
 14 94  1  0  0  0
 15 95  1  0  0  0
 16 17  2  0  0  0
 16 21  1  0  0  0
 16 31  1  0  0  0
 17 18  1  0  0  0
 17 96  1  0  0  0
 18 19  2  0  0  0
 18 97  1  0  0  0
 19 20  1  0  0  0
 19 24  1  0  0  0
 20 21  2  0  0  0
 20 98  1  0  0  0
 21 23  1  0  0  0
 22 28  1  0  0  0
 22 32  2  0  0  0
 26 27  1  0  0  0
 28 99  1  0  0  0
 28100  1  0  0  0
 29101  1  0  0  0
 29102  1  0  0  0
 33 34  1  0  0  0
 33 66  1  0  0  0
 33 70  2  0  0  0
 34 36  1  0  0  0
 34 59  1  0  0  0
 34103  1  0  0  0
 35 44  2  0  0  0
 35 45  1  0  0  0
 35 68  1  0  0  0
 36 56  1  0  0  0
 36104  1  0  0  0
 37 39  1  0  0  0
 37 47  1  0  0  0
 37 66  1  0  0  0
 37105  1  0  0  0
 38 43  2  0  0  0
 38 46  1  0  0  0
 38 47  1  0  0  0
 39 64  1  0  0  0
 39 67  2  0  0  0
 40 52  1  0  0  0
 40 53  2  0  0  0
 40 58  1  0  0  0
 41106  1  0  0  0
 41107  1  0  0  0
 41108  1  0  0  0
 41 48  1  0  0  0
 42 43  1  0  0  0
 42 66  1  0  0  0
 42109  1  0  0  0
 42110  1  0  0  0
 43 44  1  0  0  0
 44111  1  0  0  0
 45 46  2  0  0  0
 45112  1  0  0  0
 46113  1  0  0  0
 47114  1  0  0  0
 47115  1  0  0  0
 48 56  1  0  0  0
 48 65  1  0  0  0
 48116  1  0  0  0
 49 50  1  0  0  0
 49 53  1  0  0  0
 49 64  1  0  0  0
 49117  1  0  0  0
 50 51  1  0  0  0
 50118  1  0  0  0
 50119  1  0  0  0
 51 52  1  0  0  0
 51120  1  0  0  0
 51121  1  0  0  0
 52122  1  0  0  0
 52123  1  0  0  0
 53 54  1  0  0  0
 54 55  2  0  0  0
 54124  1  0  0  0
 55 57  1  0  0  0
 55125  1  0  0  0
 56 69  2  0  0  0
 57 58  2  0  0  0
 57126  1  0  0  0
 58127  1  0  0  0
 59 60  1  0  0  0
 59 61  1  0  0  0
 59 62  1  0  0  0
 60128  1  0  0  0
 60129  1  0  0  0
 60130  1  0  0  0
 61131  1  0  0  0
 61132  1  0  0  0
 61133  1  0  0  0
 62134  1  0  0  0
 62135  1  0  0  0
 62136  1  0  0  0
 63 65  1  0  0  0
 63137  1  0  0  0
 63138  1  0  0  0
 63139  1  0  0  0
 64140  1  0  0  0
 65141  1  0  0  0
 68 73  1  0  0  0
 71 72  1  0  0  0
 71 79  1  0  0  0
 71142  1  0  0  0
 71143  1  0  0  0
 72 80  1  0  0  0
 72144  1  0  0  0
 72145  1  0  0  0
 73 74  1  0  0  0
 73146  1  0  0  0
 73147  1  0  0  0
 74 81  1  0  0  0
 74148  1  0  0  0
 74149  1  0  0  0
 75 76  1  0  0  0
 75 80  1  0  0  0
 75150  1  0  0  0
 75151  1  0  0  0
 76 82  1  0  0  0
 76152  1  0  0  0
 76153  1  0  0  0
 77 78  1  0  0  0
 77 81  1  0  0  0
 77154  1  0  0  0
 77155  1  0  0  0
 78 82  1  0  0  0
 78156  1  0  0  0
 78157  1  0  0  0
 79158  1  0  0  0
M  ISO  4   1 100  68 101  73 101  79 100
M  END
> <chiral flag>
0

> <version>
0

> <s_m_source_file>
/data/baiqing/PycharmProjects/Reinvent-master-3.2/result/LINK_invent/BTK/process_docking_weight1_custom_product_contain_oxygen_bond_distance_aromatic_linkinvent_7_9_3/rearranged_h_0000.sdf

> <i_m_source_file_index>
54

> <r_mmod_Potential_Energy-OPLS-2005>
-132.649719238281

> <r_mmod_Stretch_Energy-OPLS-2005>
31.9378795623779

> <r_mmod_Bend_Energy-OPLS-2005>
94.8774032592773

> <r_mmod_Torsional_Energy-OPLS-2005>
201.347106933594

> <r_mmod_Improper_Torsional_Energy-OPLS-2005>
1.87841999530792

> <r_mmod_Van_der_Waal_Energy-OPLS-2005>
137.073379516602

> <r_mmod_Electrostatic_Energy-OPLS-2005>
-394.197540283203

> <r_mmod_Solvation_Energy-OPLS-2005>
-213.581817626953

> <b_mmod_Minimization_Converged-OPLS-2005>
0

> <r_mmod_RMS_Derivative-OPLS-2005>
4.17057800292969

$$$$
54
                    3D
 Structure written by MMmdl.
150158  0  0  1  0            999 V2000
  -30.6184  -14.7325   20.4412 C   0  0  0  0  0  0
  -30.4365  -12.4379   19.4678 C   0  0  0  0  0  0
  -29.5056  -12.4724   18.2364 C   0  0  0  0  0  0
  -28.0283  -12.3289   18.6560 C   0  0  0  0  0  0
  -27.6446  -13.2388   19.8535 C   0  0  2  0  0  0
  -28.6968  -13.1726   20.9844 C   0  0  0  0  0  0
  -25.2503  -13.8217   20.5798 C   0  0  0  0  0  0
  -24.1761  -13.0465   20.9258 C   0  0  0  0  0  0
  -24.6373  -11.6942   20.8824 C   0  0  0  0  0  0
  -23.9068  -10.4310   21.0427 C   0  0  0  0  0  0
  -24.3611   -9.4192   21.9192 C   0  0  0  0  0  0
  -23.6282   -8.2196   22.0706 C   0  0  0  0  0  0
  -22.4282   -8.0236   21.3496 C   0  0  0  0  0  0
  -21.9917   -9.0219   20.4623 C   0  0  0  0  0  0
  -22.7237  -10.2129   20.3072 C   0  0  0  0  0  0
  -21.6818   -6.0717   22.5293 C   0  0  0  0  0  0
  -21.3919   -6.5607   23.8225 C   0  0  0  0  0  0
  -21.3643   -5.6773   24.9205 C   0  0  0  0  0  0
  -21.6061   -4.3049   24.7266 C   0  0  0  0  0  0
  -21.8842   -3.8131   23.4394 C   0  0  0  0  0  0
  -21.9177   -4.6947   22.3424 C   0  0  0  0  0  0
  -22.7788  -13.5232   21.1948 C   0  0  0  0  0  0
  -22.1662   -4.2145   21.1014 F   0  0  0  0  0  0
  -21.5672   -3.4514   25.7772 F   0  0  0  0  0  0
  -29.9970  -13.5075   20.3971 N   0  0  0  0  0  0
  -26.2959  -12.9490   20.3377 N   0  0  0  0  0  0
  -25.9313  -11.6640   20.5848 N   0  0  0  0  0  0
  -22.0424  -12.8194   22.0510 N   0  0  0  0  0  0
  -25.4178  -15.1946   20.4288 N   0  0  0  0  0  0
  -31.8031  -14.8335   20.1187 O   0  0  0  0  0  0
  -21.6586   -6.8872   21.4243 O   0  0  0  0  0  0
  -22.3474  -14.5532   20.6793 O   0  0  0  0  0  0
  -24.6325  -31.8565   23.1986 C   0  0  0  0  0  0
  -25.9140  -32.4750   23.8342 C   0  0  1  0  0  0
  -27.2114  -27.2462   20.1331 C   0  0  0  0  0  0
  -25.5927  -33.8558   24.2253 N   0  0  0  0  0  0
  -23.4286  -30.4850   21.5421 C   0  0  2  0  0  0
  -24.8734  -28.9305   20.1133 C   0  0  0  0  0  0
  -22.7489  -29.4661   22.4886 C   0  0  0  0  0  0
  -18.0301  -28.1379   22.8488 C   0  0  0  0  0  0
  -24.1485  -36.7254   23.2654 C   0  0  0  0  0  0
  -25.9790  -30.7686   21.3811 C   0  0  0  0  0  0
  -26.0527  -29.3945   20.7117 C   0  0  0  0  0  0
  -27.2210  -28.5641   20.7134 C   0  0  0  0  0  0
  -26.0061  -26.8568   19.5053 C   0  0  0  0  0  0
  -24.8563  -27.6666   19.5084 C   0  0  0  0  0  0
  -23.6458  -29.8211   20.1591 C   0  0  0  0  0  0
  -25.4118  -36.3065   24.0333 C   0  0  1  0  0  0
  -20.5904  -28.3718   23.1228 C   0  0  2  0  0  0
  -20.6779  -26.9419   22.5407 C   0  0  0  0  0  0
  -19.5756  -26.6364   21.5216 C   0  0  0  0  0  0
  -18.1937  -26.7920   22.1629 C   0  0  0  0  0  0
  -19.1552  -28.8862   23.2858 C   0  0  0  0  0  0
  -18.9482  -30.1458   23.8881 C   0  0  0  0  0  0
  -17.6482  -30.6584   24.0555 C   0  0  0  0  0  0
  -25.9057  -34.9439   23.5090 C   0  0  0  0  0  0
  -16.5371  -29.9073   23.6334 C   0  0  0  0  0  0
  -16.7291  -28.6482   23.0375 C   0  0  0  0  0  0
  -26.4493  -31.6599   25.0756 C   0  0  0  0  0  0
  -25.3692  -31.3789   26.1463 C   0  0  0  0  0  0
  -27.0381  -30.3004   24.6327 C   0  0  0  0  0  0
  -27.6012  -32.4397   25.7535 C   0  0  0  0  0  0
  -27.5566  -37.1787   24.8459 C   0  0  0  0  0  0
  -21.4202  -29.3056   22.3591 N   0  0  0  0  0  0
  -26.4274  -37.3769   23.9402 N   0  0  0  0  0  0
  -24.6991  -31.0533   22.0962 N   0  0  0  0  0  0
  -23.4175  -28.8191   23.2987 O   0  0  0  0  0  0
  -28.2712  -26.3116   20.2770 O   0  0  0  0  0  0
  -26.5651  -34.8919   22.4676 O   0  0  0  0  0  0
  -23.5467  -32.1386   23.7272 O   0  0  0  0  0  0
  -28.7242  -22.5639   22.6469 C   0  0  0  0  0  0
  -28.5524  -23.7341   21.8694 C   0  0  0  0  0  0
  -28.9599  -21.3005   22.0569 C   0  0  0  0  0  0
  -28.8787  -22.3773   19.8866 C   0  0  0  0  0  0
  -28.6085  -23.6941   20.4596 C   0  0  0  0  0  0
  -29.0717  -21.1515   20.6551 C   0  0  0  0  0  0
  -28.3339  -24.9922   19.6240 C   0  0  0  0  0  0
  -30.1775  -17.3068   20.2228 C   0  0  0  0  0  0
  -29.2749  -18.5526   20.7350 C   0  0  0  0  0  0
  -29.8359  -15.8660   20.6127 N   0  0  0  0  0  0
  -28.1585  -24.8990   18.4052 O   0  0  0  0  0  0
  -29.3936  -19.8906   20.0555 O   0  0  0  0  0  0
  -31.4717  -12.5602   19.1503 H   0  0  0  0  0  0
  -30.3941  -11.4635   19.9608 H   0  0  0  0  0  0
  -29.6502  -13.4077   17.6954 H   0  0  0  0  0  0
  -29.7706  -11.6757   17.5391 H   0  0  0  0  0  0
  -27.8767  -11.2842   18.9334 H   0  0  0  0  0  0
  -27.3713  -12.5181   17.8053 H   0  0  0  0  0  0
  -27.6347  -14.2608   19.4701 H   0  0  0  0  0  0
  -28.7294  -12.1742   21.4197 H   0  0  0  0  0  0
  -28.4477  -13.8641   21.7916 H   0  0  0  0  0  0
  -25.2743   -9.5649   22.4790 H   0  0  0  0  0  0
  -23.9999   -7.4572   22.7408 H   0  0  0  0  0  0
  -21.0833   -8.8762   19.8943 H   0  0  0  0  0  0
  -22.3665  -10.9678   19.6193 H   0  0  0  0  0  0
  -21.1794   -7.6095   23.9717 H   0  0  0  0  0  0
  -21.1453   -6.0487   25.9102 H   0  0  0  0  0  0
  -22.0631   -2.7593   23.2895 H   0  0  0  0  0  0
  -22.3927  -11.9794   22.4917 H   0  0  0  0  0  0
  -21.1038  -13.1209   22.2712 H   0  0  0  0  0  0
  -26.2991  -15.6489   20.2337 H   0  0  0  0  0  0
  -24.6563  -15.8538   20.5630 H   0  0  0  0  0  0
  -26.7213  -32.5401   23.1086 H   0  0  0  0  0  0
  -25.0010  -33.9701   25.0361 H   0  0  0  0  0  0
  -22.7274  -31.3097   21.3965 H   0  0  0  0  0  0
  -23.3755  -35.9572   23.3329 H   0  0  0  0  0  0
  -24.3553  -36.8860   22.2054 H   0  0  0  0  0  0
  -23.7212  -37.6455   23.6667 H   0  0  0  0  0  0
  -26.1332  -31.5411   20.6262 H   0  0  0  0  0  0
  -26.8475  -30.8002   22.0274 H   0  0  0  0  0  0
  -28.1162  -28.9073   21.2137 H   0  0  0  0  0  0
  -25.8962  -25.8825   19.0558 H   0  0  0  0  0  0
  -23.9443  -27.2848   19.0713 H   0  0  0  0  0  0
  -23.7731  -30.5989   19.4066 H   0  0  0  0  0  0
  -22.7599  -29.2627   19.8497 H   0  0  0  0  0  0
  -25.1301  -36.1912   25.0822 H   0  0  0  0  0  0
  -21.0037  -28.3316   24.1333 H   0  0  0  0  0  0
  -20.5652  -26.2341   23.3632 H   0  0  0  0  0  0
  -21.6651  -26.7402   22.1225 H   0  0  0  0  0  0
  -19.6911  -25.6263   21.1266 H   0  0  0  0  0  0
  -19.6685  -27.3150   20.6723 H   0  0  0  0  0  0
  -17.4203  -26.6672   21.4032 H   0  0  0  0  0  0
  -18.0335  -26.0059   22.9024 H   0  0  0  0  0  0
  -19.7968  -30.7278   24.2225 H   0  0  0  0  0  0
  -17.5048  -31.6276   24.5147 H   0  0  0  0  0  0
  -15.5374  -30.2980   23.7672 H   0  0  0  0  0  0
  -15.8692  -28.0798   22.7116 H   0  0  0  0  0  0
  -24.5840  -30.7167   25.7788 H   0  0  0  0  0  0
  -24.8923  -32.2988   26.4866 H   0  0  0  0  0  0
  -25.7979  -30.8972   27.0258 H   0  0  0  0  0  0
  -26.2990  -29.6672   24.1402 H   0  0  0  0  0  0
  -27.4059  -29.7361   25.4909 H   0  0  0  0  0  0
  -27.8868  -30.4240   23.9595 H   0  0  0  0  0  0
  -27.2549  -33.3678   26.2101 H   0  0  0  0  0  0
  -28.3814  -32.7004   25.0368 H   0  0  0  0  0  0
  -28.0693  -31.8560   26.5470 H   0  0  0  0  0  0
  -28.2595  -38.0088   24.7524 H   0  0  0  0  0  0
  -28.1066  -36.2609   24.6277 H   0  0  0  0  0  0
  -27.2283  -37.1416   25.8871 H   0  0  0  0  0  0
  -20.9365  -29.8759   21.6798 H   0  0  0  0  0  0
  -26.0156  -38.2839   24.1434 H   0  0  0  0  0  0
  -28.6834  -22.6335   23.7257 H   0  0  0  0  0  0
  -28.3563  -24.6713   22.3713 H   0  0  0  0  0  0
  -29.0792  -20.4554   22.7170 H   0  0  0  0  0  0
  -28.9192  -22.3019   18.8095 H   0  0  0  0  0  0
  -31.2163  -17.4914   20.5045 H   0  0  0  0  0  0
  -30.1918  -17.3334   19.1334 H   0  0  0  0  0  0
  -29.4508  -18.6345   21.8037 H   0  0  0  0  0  0
  -28.2287  -18.2635   20.6431 H   0  0  0  0  0  0
  -28.8786  -15.6971   20.8843 H   0  0  0  0  0  0
  1 25  1  0  0  0
  1 30  2  0  0  0
  1 80  1  0  0  0
  2  3  1  0  0  0
  2 25  1  0  0  0
  2 83  1  0  0  0
  2 84  1  0  0  0
  3  4  1  0  0  0
  3 85  1  0  0  0
  3 86  1  0  0  0
  4  5  1  0  0  0
  4 87  1  0  0  0
  4 88  1  0  0  0
  5  6  1  0  0  0
  5 26  1  0  0  0
  5 89  1  0  0  0
  6 25  1  0  0  0
  6 90  1  0  0  0
  6 91  1  0  0  0
  7  8  2  0  0  0
  7 26  1  0  0  0
  7 29  1  0  0  0
  8  9  1  0  0  0
  8 22  1  0  0  0
  9 10  1  0  0  0
  9 27  2  0  0  0
 10 11  2  0  0  0
 10 15  1  0  0  0
 11 12  1  0  0  0
 11 92  1  0  0  0
 12 13  2  0  0  0
 12 93  1  0  0  0
 13 14  1  0  0  0
 13 31  1  0  0  0
 14 15  2  0  0  0
 14 94  1  0  0  0
 15 95  1  0  0  0
 16 17  2  0  0  0
 16 21  1  0  0  0
 16 31  1  0  0  0
 17 18  1  0  0  0
 17 96  1  0  0  0
 18 19  2  0  0  0
 18 97  1  0  0  0
 19 20  1  0  0  0
 19 24  1  0  0  0
 20 21  2  0  0  0
 20 98  1  0  0  0
 21 23  1  0  0  0
 22 28  1  0  0  0
 22 32  2  0  0  0
 26 27  1  0  0  0
 28 99  1  0  0  0
 28100  1  0  0  0
 29101  1  0  0  0
 29102  1  0  0  0
 33 34  1  0  0  0
 33 66  1  0  0  0
 33 70  2  0  0  0
 34 36  1  0  0  0
 34 59  1  0  0  0
 34103  1  0  0  0
 35 44  2  0  0  0
 35 45  1  0  0  0
 35 68  1  0  0  0
 36 56  1  0  0  0
 36104  1  0  0  0
 37 39  1  0  0  0
 37 47  1  0  0  0
 37 66  1  0  0  0
 37105  1  0  0  0
 38 43  2  0  0  0
 38 46  1  0  0  0
 38 47  1  0  0  0
 39 64  1  0  0  0
 39 67  2  0  0  0
 40 52  1  0  0  0
 40 53  2  0  0  0
 40 58  1  0  0  0
 41106  1  0  0  0
 41107  1  0  0  0
 41108  1  0  0  0
 41 48  1  0  0  0
 42 43  1  0  0  0
 42 66  1  0  0  0
 42109  1  0  0  0
 42110  1  0  0  0
 43 44  1  0  0  0
 44111  1  0  0  0
 45 46  2  0  0  0
 45112  1  0  0  0
 46113  1  0  0  0
 47114  1  0  0  0
 47115  1  0  0  0
 48 56  1  0  0  0
 48 65  1  0  0  0
 48116  1  0  0  0
 49 50  1  0  0  0
 49 53  1  0  0  0
 49 64  1  0  0  0
 49117  1  0  0  0
 50 51  1  0  0  0
 50118  1  0  0  0
 50119  1  0  0  0
 51 52  1  0  0  0
 51120  1  0  0  0
 51121  1  0  0  0
 52122  1  0  0  0
 52123  1  0  0  0
 53 54  1  0  0  0
 54 55  2  0  0  0
 54124  1  0  0  0
 55 57  1  0  0  0
 55125  1  0  0  0
 56 69  2  0  0  0
 57 58  2  0  0  0
 57126  1  0  0  0
 58127  1  0  0  0
 59 60  1  0  0  0
 59 61  1  0  0  0
 59 62  1  0  0  0
 60128  1  0  0  0
 60129  1  0  0  0
 60130  1  0  0  0
 61131  1  0  0  0
 61132  1  0  0  0
 61133  1  0  0  0
 62134  1  0  0  0
 62135  1  0  0  0
 62136  1  0  0  0
 63 65  1  0  0  0
 63137  1  0  0  0
 63138  1  0  0  0
 63139  1  0  0  0
 64140  1  0  0  0
 65141  1  0  0  0
 68 77  1  0  0  0
 71 72  2  0  0  0
 71 73  1  0  0  0
 71142  1  0  0  0
 72 75  1  0  0  0
 72143  1  0  0  0
 73 76  2  0  0  0
 73144  1  0  0  0
 74 75  2  0  0  0
 74 76  1  0  0  0
 74145  1  0  0  0
 75 77  1  0  0  0
 76 82  1  0  0  0
 77 81  2  0  0  0
 78 79  1  0  0  0
 78 80  1  0  0  0
 78146  1  0  0  0
 78147  1  0  0  0
 79 82  1  0  0  0
 79148  1  0  0  0
 79149  1  0  0  0
 80150  1  0  0  0
M  ISO  4   1 100  68 101  77 101  80 100
M  END
> <chiral flag>
0

> <version>
0

> <s_m_source_file>
/data/baiqing/PycharmProjects/Reinvent-master-3.2/result/LINK_invent/BTK/process_docking_weight1_custom_product_contain_oxygen_bond_distance_aromatic_linkinvent_7_9_3/rearranged_h_0000.sdf

> <i_m_source_file_index>
55

> <r_mmod_Potential_Energy-OPLS-2005>
162.864898681641

> <r_mmod_Stretch_Energy-OPLS-2005>
138.002395629883

> <r_mmod_Bend_Energy-OPLS-2005>
162.987686157227

> <r_mmod_Torsional_Energy-OPLS-2005>
226.737487792969

> <r_mmod_Improper_Torsional_Energy-OPLS-2005>
6.2555513381958

> <r_mmod_Van_der_Waal_Energy-OPLS-2005>
142.326141357422

> <r_mmod_Electrostatic_Energy-OPLS-2005>
-387.441467285156

> <r_mmod_Solvation_Energy-OPLS-2005>
-221.11994934082

> <b_mmod_Minimization_Converged-OPLS-2005>
0

> <r_mmod_RMS_Derivative-OPLS-2005>
5.90191888809204

$$$$
55
                    3D
 Structure written by MMmdl.
188197  0  0  1  0            999 V2000
  -30.7147  -14.4167   20.5911 C   0  0  0  0  0  0
  -30.4222  -12.2758   19.4147 C   0  0  0  0  0  0
  -29.4988  -12.5064   18.2013 C   0  0  0  0  0  0
  -28.0165  -12.3806   18.6067 C   0  0  0  0  0  0
  -27.6674  -13.2009   19.8778 C   0  0  2  0  0  0
  -28.7052  -12.9467   20.9943 C   0  0  0  0  0  0
  -25.2623  -13.8164   20.5659 C   0  0  0  0  0  0
  -24.1855  -13.0445   20.9141 C   0  0  0  0  0  0
  -24.6396  -11.6901   20.8703 C   0  0  0  0  0  0
  -23.9051  -10.4292   21.0384 C   0  0  0  0  0  0
  -24.3601   -9.4217   21.9172 C   0  0  0  0  0  0
  -23.6276   -8.2253   22.0752 C   0  0  0  0  0  0
  -22.4259   -8.0285   21.3541 C   0  0  0  0  0  0
  -21.9885   -9.0263   20.4648 C   0  0  0  0  0  0
  -22.7216  -10.2136   20.3046 C   0  0  0  0  0  0
  -21.6862   -6.0725   22.5272 C   0  0  0  0  0  0
  -21.4028   -6.5627   23.8208 C   0  0  0  0  0  0
  -21.3655   -5.6784   24.9173 C   0  0  0  0  0  0
  -21.6037   -4.3044   24.7227 C   0  0  0  0  0  0
  -21.8820   -3.8132   23.4355 C   0  0  0  0  0  0
  -21.9199   -4.6951   22.3407 C   0  0  0  0  0  0
  -22.7877  -13.5253   21.1804 C   0  0  0  0  0  0
  -22.1663   -4.2130   21.0981 F   0  0  0  0  0  0
  -21.5623   -3.4521   25.7745 F   0  0  0  0  0  0
  -30.0438  -13.2429   20.4541 N   0  0  0  0  0  0
  -26.3052  -12.9315   20.3340 N   0  0  0  0  0  0
  -25.9323  -11.6478   20.5719 N   0  0  0  0  0  0
  -22.0502  -12.8270   22.0370 N   0  0  0  0  0  0
  -25.4380  -15.1886   20.4092 N   0  0  0  0  0  0
  -31.8279  -14.6092   20.0924 O   0  0  0  0  0  0
  -21.6642   -6.8868   21.4230 O   0  0  0  0  0  0
  -22.3563  -14.5556   20.6655 O   0  0  0  0  0  0
  -24.6121  -31.8693   23.2126 C   0  0  0  0  0  0
  -25.9032  -32.4819   23.8401 C   0  0  1  0  0  0
  -27.2463  -27.4637   20.0696 C   0  0  0  0  0  0
  -25.5903  -33.8617   24.2341 N   0  0  0  0  0  0
  -23.3988  -30.4919   21.5532 C   0  0  2  0  0  0
  -24.8438  -28.9564   20.1218 C   0  0  0  0  0  0
  -22.7398  -29.4653   22.5013 C   0  0  0  0  0  0
  -18.0273  -28.1374   22.8492 C   0  0  0  0  0  0
  -24.1489  -36.7311   23.2634 C   0  0  0  0  0  0
  -25.9250  -30.8377   21.3647 C   0  0  0  0  0  0
  -26.0016  -29.4714   20.7169 C   0  0  0  0  0  0
  -27.2000  -28.7261   20.7000 C   0  0  0  0  0  0
  -26.0600  -26.9440   19.4988 C   0  0  0  0  0  0
  -24.8642  -27.6864   19.5205 C   0  0  0  0  0  0
  -23.6059  -29.8221   20.1686 C   0  0  0  0  0  0
  -25.4104  -36.3105   24.0338 C   0  0  1  0  0  0
  -20.5858  -28.3651   23.1329 C   0  0  2  0  0  0
  -20.6763  -26.9391   22.5424 C   0  0  0  0  0  0
  -19.5750  -26.6382   21.5209 C   0  0  0  0  0  0
  -18.1922  -26.7928   22.1610 C   0  0  0  0  0  0
  -19.1521  -28.8829   23.2910 C   0  0  0  0  0  0
  -18.9450  -30.1434   23.8926 C   0  0  0  0  0  0
  -17.6453  -30.6578   24.0570 C   0  0  0  0  0  0
  -25.9029  -34.9471   23.5135 C   0  0  0  0  0  0
  -16.5345  -29.9083   23.6322 C   0  0  0  0  0  0
  -16.7262  -28.6498   23.0348 C   0  0  0  0  0  0
  -26.4470  -31.6584   25.0717 C   0  0  0  0  0  0
  -25.3746  -31.3702   26.1478 C   0  0  0  0  0  0
  -27.0280  -30.3015   24.6078 C   0  0  0  0  0  0
  -27.6063  -32.4290   25.7468 C   0  0  0  0  0  0
  -27.5584  -37.1804   24.8451 C   0  0  0  0  0  0
  -21.4128  -29.3023   22.3747 N   0  0  0  0  0  0
  -26.4288  -37.3790   23.9407 N   0  0  0  0  0  0
  -24.6632  -31.0802   22.1023 N   0  0  0  0  0  0
  -23.4183  -28.8186   23.3038 O   0  0  0  0  0  0
  -28.4516  -26.7942   20.0358 O   0  0  0  0  0  0
  -26.5585  -34.8920   22.4693 O   0  0  0  0  0  0
  -23.5322  -32.1446   23.7535 O   0  0  0  0  0  0
  -30.1207  -21.0098   20.7751 C   0  0  0  0  0  0
  -30.9448  -18.8420   20.0784 C   0  0  0  0  0  0
  -29.3090  -21.7999   21.6017 C   0  0  0  0  0  0
  -30.9522  -17.4416   20.1800 C   0  0  0  0  0  0
  -29.2873  -17.5714   21.9504 C   0  0  0  0  0  0
  -30.1062  -19.6119   20.9048 C   0  0  0  0  0  0
  -29.2550  -18.9868   21.8508 C   0  0  0  0  0  0
  -28.4416  -21.2090   22.5474 C   0  0  0  0  0  0
  -28.3938  -19.7850   22.6616 C   0  0  0  0  0  0
  -30.1243  -16.7888   21.1241 C   0  0  0  0  0  0
  -27.6273  -22.1291   23.4198 C   0  0  0  0  0  0
  -27.4158  -19.0916   23.6135 C   0  0  0  0  0  0
  -26.1571  -24.1426   23.3713 C   0  0  0  0  0  0
  -26.9592  -25.4505   23.4301 C   0  0  0  0  0  0
  -28.6272  -25.7683   19.0570 C   0  0  0  0  0  0
  -30.1201  -25.6084   18.7282 C   0  0  0  0  0  0
  -28.9681  -26.3810   24.2783 C   0  0  0  0  0  0
  -30.3300  -25.9324   24.8202 C   0  0  0  0  0  0
  -32.1846  -24.7269   19.4718 C   0  0  0  0  0  0
  -32.8273  -23.9041   20.5945 C   0  0  0  0  0  0
  -32.2212  -24.6474   24.1482 C   0  0  0  0  0  0
  -32.6961  -23.7955   22.9668 C   0  0  0  0  0  0
  -30.0411  -15.3703   21.2567 N   0  0  0  0  0  0
  -26.9483  -23.0759   22.7614 N   0  0  0  0  0  0
  -27.5937  -21.9923   24.6454 O   0  0  0  0  0  0
  -28.1179  -25.2437   24.2232 O   0  0  0  0  0  0
  -30.7850  -24.8356   19.7186 O   0  0  0  0  0  0
  -30.8956  -25.0614   23.8538 O   0  0  0  0  0  0
  -32.6659  -24.6198   21.8093 O   0  0  0  0  0  0
  -31.4685  -12.3645   19.1177 H   0  0  0  0  0  0
  -30.3097  -11.2595   19.7958 H   0  0  0  0  0  0
  -29.7330  -11.7928   17.4106 H   0  0  0  0  0  0
  -29.6830  -13.4983   17.7829 H   0  0  0  0  0  0
  -27.8069  -11.3241   18.7788 H   0  0  0  0  0  0
  -27.3769  -12.6840   17.7777 H   0  0  0  0  0  0
  -27.7242  -14.2538   19.6023 H   0  0  0  0  0  0
  -28.6694  -11.9012   21.3056 H   0  0  0  0  0  0
  -28.4640  -13.5182   21.8913 H   0  0  0  0  0  0
  -25.2753   -9.5690   22.4739 H   0  0  0  0  0  0
  -23.9993   -7.4644   22.7473 H   0  0  0  0  0  0
  -21.0808   -8.8783   19.8959 H   0  0  0  0  0  0
  -22.3680  -10.9672   19.6144 H   0  0  0  0  0  0
  -21.2030   -7.6141   23.9708 H   0  0  0  0  0  0
  -21.1468   -6.0514   25.9072 H   0  0  0  0  0  0
  -22.0606   -2.7594   23.2874 H   0  0  0  0  0  0
  -22.4092  -11.9931   22.4780 H   0  0  0  0  0  0
  -21.1127  -13.1330   22.2564 H   0  0  0  0  0  0
  -24.6751  -15.8486   20.5180 H   0  0  0  0  0  0
  -26.2982  -15.6240   20.1003 H   0  0  0  0  0  0
  -26.7101  -32.5550   23.1164 H   0  0  0  0  0  0
  -25.0069  -33.9785   25.0497 H   0  0  0  0  0  0
  -22.6860  -31.3073   21.4140 H   0  0  0  0  0  0
  -23.3747  -35.9650   23.3295 H   0  0  0  0  0  0
  -24.3591  -36.8926   22.2050 H   0  0  0  0  0  0
  -23.7247  -37.6515   23.6653 H   0  0  0  0  0  0
  -26.0338  -31.6023   20.5945 H   0  0  0  0  0  0
  -26.8147  -30.8943   21.9802 H   0  0  0  0  0  0
  -28.0982  -29.1265   21.1497 H   0  0  0  0  0  0
  -26.0401  -25.9707   19.0304 H   0  0  0  0  0  0
  -23.9702  -27.2775   19.0702 H   0  0  0  0  0  0
  -23.7129  -30.5946   19.4062 H   0  0  0  0  0  0
  -22.7301  -29.2404   19.8749 H   0  0  0  0  0  0
  -25.1280  -36.1973   25.0831 H   0  0  0  0  0  0
  -20.9946  -28.3219   24.1452 H   0  0  0  0  0  0
  -20.5647  -26.2260   23.3605 H   0  0  0  0  0  0
  -21.6643  -26.7434   22.1233 H   0  0  0  0  0  0
  -19.6910  -25.6298   21.1224 H   0  0  0  0  0  0
  -19.6694  -27.3203   20.6749 H   0  0  0  0  0  0
  -17.4198  -26.6688   21.4004 H   0  0  0  0  0  0
  -18.0310  -26.0057   22.8989 H   0  0  0  0  0  0
  -19.7925  -30.7244   24.2308 H   0  0  0  0  0  0
  -17.5008  -31.6261   24.5164 H   0  0  0  0  0  0
  -15.5346  -30.2994   23.7621 H   0  0  0  0  0  0
  -15.8661  -28.0819   22.7057 H   0  0  0  0  0  0
  -24.5916  -30.7042   25.7830 H   0  0  0  0  0  0
  -24.8946  -32.2868   26.4920 H   0  0  0  0  0  0
  -25.8114  -30.8880   27.0232 H   0  0  0  0  0  0
  -26.2807  -29.6793   24.1138 H   0  0  0  0  0  0
  -27.4047  -29.7236   25.4526 H   0  0  0  0  0  0
  -27.8650  -30.4324   23.9215 H   0  0  0  0  0  0
  -27.2703  -33.3582   26.2084 H   0  0  0  0  0  0
  -28.3849  -32.6857   25.0273 H   0  0  0  0  0  0
  -28.0750  -31.8386   26.5351 H   0  0  0  0  0  0
  -28.2592  -38.0112   24.7516 H   0  0  0  0  0  0
  -28.1089  -36.2647   24.6243 H   0  0  0  0  0  0
  -27.2316  -37.1414   25.8858 H   0  0  0  0  0  0
  -20.9277  -29.8759   21.6989 H   0  0  0  0  0  0
  -26.0177  -38.2863   24.1429 H   0  0  0  0  0  0
  -30.7629  -21.4824   20.0467 H   0  0  0  0  0  0
  -31.5841  -19.3219   19.3510 H   0  0  0  0  0  0
  -29.3652  -22.8770   21.5114 H   0  0  0  0  0  0
  -31.5977  -16.9000   19.5058 H   0  0  0  0  0  0
  -28.6655  -17.0565   22.6676 H   0  0  0  0  0  0
  -26.9154  -18.2611   23.1158 H   0  0  0  0  0  0
  -26.6081  -19.7313   23.9652 H   0  0  0  0  0  0
  -27.9456  -18.7041   24.4839 H   0  0  0  0  0  0
  -25.2564  -24.2952   22.7748 H   0  0  0  0  0  0
  -25.8179  -23.8624   24.3702 H   0  0  0  0  0  0
  -26.3514  -26.2507   23.8548 H   0  0  0  0  0  0
  -27.2409  -25.7531   22.4204 H   0  0  0  0  0  0
  -28.1950  -24.8258   19.3961 H   0  0  0  0  0  0
  -28.1267  -26.0460   18.1280 H   0  0  0  0  0  0
  -30.5835  -26.5904   18.6200 H   0  0  0  0  0  0
  -30.2211  -25.0994   17.7682 H   0  0  0  0  0  0
  -29.1006  -26.8284   23.2915 H   0  0  0  0  0  0
  -28.5264  -27.1414   24.9238 H   0  0  0  0  0  0
  -30.2224  -25.4284   25.7812 H   0  0  0  0  0  0
  -30.9735  -26.8014   24.9689 H   0  0  0  0  0  0
  -32.3559  -24.2339   18.5135 H   0  0  0  0  0  0
  -32.6462  -25.7142   19.4188 H   0  0  0  0  0  0
  -33.8893  -23.7449   20.4027 H   0  0  0  0  0  0
  -32.3589  -22.9218   20.6355 H   0  0  0  0  0  0
  -32.8778  -25.5082   24.2832 H   0  0  0  0  0  0
  -32.2385  -24.0642   25.0701 H   0  0  0  0  0  0
  -32.0342  -22.9346   22.8553 H   0  0  0  0  0  0
  -33.7049  -23.4168   23.1363 H   0  0  0  0  0  0
  -29.2315  -15.0280   21.7508 H   0  0  0  0  0  0
  -27.0368  -23.0826   21.7550 H   0  0  0  0  0  0
  1 25  1  0  0  0
  1 30  2  0  0  0
  1 93  1  0  0  0
  2  3  1  0  0  0
  2 25  1  0  0  0
  2100  1  0  0  0
  2101  1  0  0  0
  3  4  1  0  0  0
  3102  1  0  0  0
  3103  1  0  0  0
  4  5  1  0  0  0
  4104  1  0  0  0
  4105  1  0  0  0
  5  6  1  0  0  0
  5 26  1  0  0  0
  5106  1  0  0  0
  6 25  1  0  0  0
  6107  1  0  0  0
  6108  1  0  0  0
  7  8  2  0  0  0
  7 26  1  0  0  0
  7 29  1  0  0  0
  8  9  1  0  0  0
  8 22  1  0  0  0
  9 10  1  0  0  0
  9 27  2  0  0  0
 10 11  2  0  0  0
 10 15  1  0  0  0
 11 12  1  0  0  0
 11109  1  0  0  0
 12 13  2  0  0  0
 12110  1  0  0  0
 13 14  1  0  0  0
 13 31  1  0  0  0
 14 15  2  0  0  0
 14111  1  0  0  0
 15112  1  0  0  0
 16 17  2  0  0  0
 16 21  1  0  0  0
 16 31  1  0  0  0
 17 18  1  0  0  0
 17113  1  0  0  0
 18 19  2  0  0  0
 18114  1  0  0  0
 19 20  1  0  0  0
 19 24  1  0  0  0
 20 21  2  0  0  0
 20115  1  0  0  0
 21 23  1  0  0  0
 22 28  1  0  0  0
 22 32  2  0  0  0
 26 27  1  0  0  0
 28116  1  0  0  0
 28117  1  0  0  0
 29118  1  0  0  0
 29119  1  0  0  0
 33 34  1  0  0  0
 33 66  1  0  0  0
 33 70  2  0  0  0
 34 36  1  0  0  0
 34 59  1  0  0  0
 34120  1  0  0  0
 35 44  2  0  0  0
 35 45  1  0  0  0
 35 68  1  0  0  0
 36 56  1  0  0  0
 36121  1  0  0  0
 37 39  1  0  0  0
 37 47  1  0  0  0
 37 66  1  0  0  0
 37122  1  0  0  0
 38 43  2  0  0  0
 38 46  1  0  0  0
 38 47  1  0  0  0
 39 64  1  0  0  0
 39 67  2  0  0  0
 40 52  1  0  0  0
 40 53  2  0  0  0
 40 58  1  0  0  0
 41123  1  0  0  0
 41124  1  0  0  0
 41125  1  0  0  0
 41 48  1  0  0  0
 42 43  1  0  0  0
 42 66  1  0  0  0
 42126  1  0  0  0
 42127  1  0  0  0
 43 44  1  0  0  0
 44128  1  0  0  0
 45 46  2  0  0  0
 45129  1  0  0  0
 46130  1  0  0  0
 47131  1  0  0  0
 47132  1  0  0  0
 48 56  1  0  0  0
 48 65  1  0  0  0
 48133  1  0  0  0
 49 50  1  0  0  0
 49 53  1  0  0  0
 49 64  1  0  0  0
 49134  1  0  0  0
 50 51  1  0  0  0
 50135  1  0  0  0
 50136  1  0  0  0
 51 52  1  0  0  0
 51137  1  0  0  0
 51138  1  0  0  0
 52139  1  0  0  0
 52140  1  0  0  0
 53 54  1  0  0  0
 54 55  2  0  0  0
 54141  1  0  0  0
 55 57  1  0  0  0
 55142  1  0  0  0
 56 69  2  0  0  0
 57 58  2  0  0  0
 57143  1  0  0  0
 58144  1  0  0  0
 59 60  1  0  0  0
 59 61  1  0  0  0
 59 62  1  0  0  0
 60145  1  0  0  0
 60146  1  0  0  0
 60147  1  0  0  0
 61148  1  0  0  0
 61149  1  0  0  0
 61150  1  0  0  0
 62151  1  0  0  0
 62152  1  0  0  0
 62153  1  0  0  0
 63 65  1  0  0  0
 63154  1  0  0  0
 63155  1  0  0  0
 63156  1  0  0  0
 64157  1  0  0  0
 65158  1  0  0  0
 68 85  1  0  0  0
 71 73  2  0  0  0
 71 76  1  0  0  0
 71159  1  0  0  0
 72 74  1  0  0  0
 72 76  2  0  0  0
 72160  1  0  0  0
 73 78  1  0  0  0
 73161  1  0  0  0
 74 80  2  0  0  0
 74162  1  0  0  0
 75 77  2  0  0  0
 75 80  1  0  0  0
 75163  1  0  0  0
 76 77  1  0  0  0
 77 79  1  0  0  0
 78 79  2  0  0  0
 78 81  1  0  0  0
 79 82  1  0  0  0
 80 93  1  0  0  0
 81 94  1  0  0  0
 81 95  2  0  0  0
 82164  1  0  0  0
 82165  1  0  0  0
 82166  1  0  0  0
 83 84  1  0  0  0
 83 94  1  0  0  0
 83167  1  0  0  0
 83168  1  0  0  0
 84 96  1  0  0  0
 84169  1  0  0  0
 84170  1  0  0  0
 85 86  1  0  0  0
 85171  1  0  0  0
 85172  1  0  0  0
 86 97  1  0  0  0
 86173  1  0  0  0
 86174  1  0  0  0
 87 88  1  0  0  0
 87 96  1  0  0  0
 87175  1  0  0  0
 87176  1  0  0  0
 88 98  1  0  0  0
 88177  1  0  0  0
 88178  1  0  0  0
 89 90  1  0  0  0
 89 97  1  0  0  0
 89179  1  0  0  0
 89180  1  0  0  0
 90 99  1  0  0  0
 90181  1  0  0  0
 90182  1  0  0  0
 91 92  1  0  0  0
 91 98  1  0  0  0
 91183  1  0  0  0
 91184  1  0  0  0
 92 99  1  0  0  0
 92185  1  0  0  0
 92186  1  0  0  0
 93187  1  0  0  0
 94188  1  0  0  0
M  ISO  4   1 100  68 101  85 101  93 100
M  END
> <chiral flag>
0

> <version>
0

> <s_m_source_file>
/data/baiqing/PycharmProjects/Reinvent-master-3.2/result/LINK_invent/BTK/process_docking_weight1_custom_product_contain_oxygen_bond_distance_aromatic_linkinvent_7_9_3/rearranged_h_0000.sdf

> <i_m_source_file_index>
56

> <r_mmod_Potential_Energy-OPLS-2005>
-120.022071838379

> <r_mmod_Stretch_Energy-OPLS-2005>
39.0781478881836

> <r_mmod_Bend_Energy-OPLS-2005>
106.385215759277

> <r_mmod_Torsional_Energy-OPLS-2005>
227.651428222656

> <r_mmod_Improper_Torsional_Energy-OPLS-2005>
3.01086449623108

> <r_mmod_Van_der_Waal_Energy-OPLS-2005>
161.771865844727

> <r_mmod_Electrostatic_Energy-OPLS-2005>
-388.883514404297

> <r_mmod_Solvation_Energy-OPLS-2005>
-278.432373046875

> <b_mmod_Minimization_Converged-OPLS-2005>
0

> <r_mmod_RMS_Derivative-OPLS-2005>
1.62954163551331

$$$$
56
                    3D
 Structure written by MMmdl.
186193  0  0  1  0            999 V2000
  -30.7789  -14.3496   20.6955 C   0  0  0  0  0  0
  -30.4105  -12.2786   19.3756 C   0  0  0  0  0  0
  -29.4779  -12.5364   18.1819 C   0  0  0  0  0  0
  -28.0053  -12.3809   18.6054 C   0  0  0  0  0  0
  -27.6613  -13.2008   19.8811 C   0  0  2  0  0  0
  -28.6918  -12.9258   20.9981 C   0  0  0  0  0  0
  -25.2565  -13.8135   20.5712 C   0  0  0  0  0  0
  -24.1826  -13.0437   20.9195 C   0  0  0  0  0  0
  -24.6367  -11.6886   20.8736 C   0  0  0  0  0  0
  -23.9052  -10.4271   21.0363 C   0  0  0  0  0  0
  -24.3609   -9.4187   21.9140 C   0  0  0  0  0  0
  -23.6288   -8.2231   22.0733 C   0  0  0  0  0  0
  -22.4262   -8.0278   21.3540 C   0  0  0  0  0  0
  -21.9903   -9.0258   20.4643 C   0  0  0  0  0  0
  -22.7230  -10.2119   20.3022 C   0  0  0  0  0  0
  -21.6832   -6.0727   22.5289 C   0  0  0  0  0  0
  -21.4020   -6.5633   23.8227 C   0  0  0  0  0  0
  -21.3670   -5.6779   24.9178 C   0  0  0  0  0  0
  -21.6023   -4.3047   24.7225 C   0  0  0  0  0  0
  -21.8817   -3.8144   23.4343 C   0  0  0  0  0  0
  -21.9203   -4.6962   22.3398 C   0  0  0  0  0  0
  -22.7848  -13.5241   21.1878 C   0  0  0  0  0  0
  -22.1663   -4.2150   21.0972 F   0  0  0  0  0  0
  -21.5616   -3.4533   25.7733 F   0  0  0  0  0  0
  -30.0276  -13.1966   20.4487 N   0  0  0  0  0  0
  -26.3004  -12.9318   20.3382 N   0  0  0  0  0  0
  -25.9273  -11.6475   20.5729 N   0  0  0  0  0  0
  -22.0476  -12.8268   22.0432 N   0  0  0  0  0  0
  -25.4266  -15.1859   20.4094 N   0  0  0  0  0  0
  -31.8102  -14.6701   20.0971 O   0  0  0  0  0  0
  -21.6608   -6.8891   21.4252 O   0  0  0  0  0  0
  -22.3561  -14.5570   20.6715 O   0  0  0  0  0  0
  -24.6092  -31.8739   23.2185 C   0  0  0  0  0  0
  -25.9003  -32.4869   23.8463 C   0  0  1  0  0  0
  -27.2216  -27.4822   20.0749 C   0  0  0  0  0  0
  -25.5907  -33.8673   24.2413 N   0  0  0  0  0  0
  -23.3977  -30.5020   21.5582 C   0  0  2  0  0  0
  -24.8490  -28.9965   20.0893 C   0  0  0  0  0  0
  -22.7415  -29.4661   22.4983 C   0  0  0  0  0  0
  -18.0301  -28.1378   22.8481 C   0  0  0  0  0  0
  -24.1480  -36.7321   23.2629 C   0  0  0  0  0  0
  -25.9219  -30.8489   21.3734 C   0  0  0  0  0  0
  -26.0018  -29.4922   20.7138 C   0  0  0  0  0  0
  -27.1896  -28.7318   20.7276 C   0  0  0  0  0  0
  -26.0877  -27.0456   19.3521 C   0  0  0  0  0  0
  -24.8871  -27.7721   19.4010 C   0  0  0  0  0  0
  -23.6049  -29.8525   20.1640 C   0  0  0  0  0  0
  -25.4105  -36.3144   24.0341 C   0  0  1  0  0  0
  -20.5899  -28.3624   23.1335 C   0  0  2  0  0  0
  -20.6795  -26.9400   22.5345 C   0  0  0  0  0  0
  -19.5782  -26.6475   21.5118 C   0  0  0  0  0  0
  -18.1960  -26.7978   22.1509 C   0  0  0  0  0  0
  -19.1554  -28.8810   23.2937 C   0  0  0  0  0  0
  -18.9493  -30.1408   23.8970 C   0  0  0  0  0  0
  -17.6492  -30.6546   24.0648 C   0  0  0  0  0  0
  -25.9030  -34.9511   23.5169 C   0  0  0  0  0  0
  -16.5379  -29.9076   23.6359 C   0  0  0  0  0  0
  -16.7282  -28.6526   23.0318 C   0  0  0  0  0  0
  -26.4462  -31.6613   25.0745 C   0  0  0  0  0  0
  -25.3715  -31.3696   26.1466 C   0  0  0  0  0  0
  -27.0275  -30.3074   24.6056 C   0  0  0  0  0  0
  -27.6082  -32.4289   25.7469 C   0  0  0  0  0  0
  -27.5587  -37.1816   24.8464 C   0  0  0  0  0  0
  -21.4145  -29.3029   22.3762 N   0  0  0  0  0  0
  -26.4297  -37.3817   23.9407 N   0  0  0  0  0  0
  -24.6614  -31.0845   22.1100 N   0  0  0  0  0  0
  -23.4214  -28.8160   23.2973 O   0  0  0  0  0  0
  -28.2652  -26.6095   20.2488 O   0  0  0  0  0  0
  -26.5571  -34.8932   22.4720 O   0  0  0  0  0  0
  -23.5303  -32.1465   23.7618 O   0  0  0  0  0  0
  -30.7357  -19.3297   23.9519 C   0  0  0  0  0  0
  -25.9517  -19.6171   21.4324 C   0  0  0  0  0  0
  -31.4309  -20.6655   23.6539 C   0  0  0  0  0  0
  -24.6213  -19.0244   20.9588 C   0  0  0  0  0  0
  -31.3345  -21.1967   22.1937 C   0  0  0  0  0  0
  -29.9859  -21.8122   21.7628 C   0  0  0  0  0  0
  -28.9065  -20.7925   21.3609 C   0  0  0  0  0  0
  -27.5788  -21.4601   20.9787 C   0  0  0  0  0  0
  -29.9660  -17.1741   22.9125 C   0  0  0  0  0  0
  -23.6868  -18.5867   22.1080 C   0  0  0  0  0  0
  -30.9004  -16.2590   22.1153 C   0  0  0  0  0  0
  -28.0808  -25.7868   21.4374 C   0  0  0  0  0  0
  -26.6721  -25.1222   21.4997 C   0  0  0  0  0  0
  -22.3206  -20.5181   22.5095 C   0  0  0  0  0  0
  -22.1915  -21.7131   23.4702 C   0  0  0  0  0  0
  -24.9510  -23.8296   22.3420 C   0  0  0  0  0  0
  -24.3531  -22.8213   23.3296 C   0  0  0  0  0  0
  -26.5215  -20.5181   20.6182 N   0  0  0  0  0  0
  -30.5459  -18.5101   22.9159 N   0  0  0  0  0  0
  -30.4074  -19.0434   25.1041 O   0  0  0  0  0  0
  -26.4251  -19.3049   22.5251 O   0  0  0  0  0  0
  -30.2404  -15.0750   21.6945 O   0  0  0  0  0  0
  -23.3554  -19.6668   22.9790 O   0  0  0  0  0  0
  -26.3237  -24.2101   22.5420 O   0  0  0  0  0  0
  -22.9564  -22.8316   23.0355 O   0  0  0  0  0  0
  -31.4528  -12.4019   19.0769 H   0  0  0  0  0  0
  -30.3149  -11.2474   19.7217 H   0  0  0  0  0  0
  -29.7080  -11.8423   17.3720 H   0  0  0  0  0  0
  -29.6473  -13.5385   17.7843 H   0  0  0  0  0  0
  -27.8194  -11.3222   18.7938 H   0  0  0  0  0  0
  -27.3444  -12.6611   17.7845 H   0  0  0  0  0  0
  -27.7284  -14.2568   19.6205 H   0  0  0  0  0  0
  -28.6384  -11.8787   21.3025 H   0  0  0  0  0  0
  -28.4488  -13.5013   21.8917 H   0  0  0  0  0  0
  -25.2728   -9.5667   22.4740 H   0  0  0  0  0  0
  -23.9996   -7.4598   22.7431 H   0  0  0  0  0  0
  -21.0839   -8.8769   19.8944 H   0  0  0  0  0  0
  -22.3678  -10.9662   19.6156 H   0  0  0  0  0  0
  -21.2019   -7.6133   23.9760 H   0  0  0  0  0  0
  -21.1489   -6.0470   25.9081 H   0  0  0  0  0  0
  -22.0596   -2.7612   23.2817 H   0  0  0  0  0  0
  -22.4052  -11.9918   22.4845 H   0  0  0  0  0  0
  -21.1087  -13.1287   22.2603 H   0  0  0  0  0  0
  -24.6475  -15.8281   20.4900 H   0  0  0  0  0  0
  -26.2851  -15.6283   20.1080 H   0  0  0  0  0  0
  -26.7066  -32.5617   23.1239 H   0  0  0  0  0  0
  -25.0082  -33.9865   25.0572 H   0  0  0  0  0  0
  -22.6809  -31.3170   21.4312 H   0  0  0  0  0  0
  -23.3754  -35.9639   23.3317 H   0  0  0  0  0  0
  -24.3568  -36.8911   22.2036 H   0  0  0  0  0  0
  -23.7210  -37.6531   23.6610 H   0  0  0  0  0  0
  -26.0255  -31.6190   20.6054 H   0  0  0  0  0  0
  -26.8115  -30.9073   21.9884 H   0  0  0  0  0  0
  -28.0571  -29.0804   21.2713 H   0  0  0  0  0  0
  -26.1087  -26.1048   18.8227 H   0  0  0  0  0  0
  -24.0099  -27.4028   18.8872 H   0  0  0  0  0  0
  -23.7048  -30.6351   19.4117 H   0  0  0  0  0  0
  -22.7303  -29.2723   19.8672 H   0  0  0  0  0  0
  -25.1280  -36.2043   25.0831 H   0  0  0  0  0  0
  -21.0045  -28.3131   24.1438 H   0  0  0  0  0  0
  -20.5789  -26.2203   23.3474 H   0  0  0  0  0  0
  -21.6658  -26.7514   22.1097 H   0  0  0  0  0  0
  -19.6900  -25.6427   21.1052 H   0  0  0  0  0  0
  -19.6749  -27.3335   20.6689 H   0  0  0  0  0  0
  -17.4288  -26.6860   21.3817 H   0  0  0  0  0  0
  -18.0286  -26.0011   22.8775 H   0  0  0  0  0  0
  -19.7967  -30.7212   24.2384 H   0  0  0  0  0  0
  -17.5049  -31.6190   24.5324 H   0  0  0  0  0  0
  -15.5391  -30.2990   23.7710 H   0  0  0  0  0  0
  -15.8679  -28.0905   22.6942 H   0  0  0  0  0  0
  -24.5906  -30.7046   25.7756 H   0  0  0  0  0  0
  -24.8871  -32.2838   26.4904 H   0  0  0  0  0  0
  -25.8029  -30.8845   27.0229 H   0  0  0  0  0  0
  -26.2803  -29.6854   24.1109 H   0  0  0  0  0  0
  -27.4079  -29.7285   25.4483 H   0  0  0  0  0  0
  -27.8625  -30.4439   23.9180 H   0  0  0  0  0  0
  -27.2777  -33.3606   26.2079 H   0  0  0  0  0  0
  -28.3846  -32.6824   25.0229 H   0  0  0  0  0  0
  -28.0778  -31.8366   26.5329 H   0  0  0  0  0  0
  -28.2627  -38.0100   24.7532 H   0  0  0  0  0  0
  -28.1072  -36.2641   24.6285 H   0  0  0  0  0  0
  -27.2301  -37.1461   25.8867 H   0  0  0  0  0  0
  -20.9266  -29.8828   21.7082 H   0  0  0  0  0  0
  -26.0216  -38.2902   24.1421 H   0  0  0  0  0  0
  -32.4868  -20.5223   23.8864 H   0  0  0  0  0  0
  -31.0738  -21.4189   24.3584 H   0  0  0  0  0  0
  -24.8433  -18.1691   20.3223 H   0  0  0  0  0  0
  -24.1102  -19.7466   20.3237 H   0  0  0  0  0  0
  -31.6450  -20.4401   21.4742 H   0  0  0  0  0  0
  -32.0896  -21.9791   22.0997 H   0  0  0  0  0  0
  -30.1671  -22.4583   20.9028 H   0  0  0  0  0  0
  -29.6126  -22.4715   22.5500 H   0  0  0  0  0  0
  -28.7228  -20.1400   22.2067 H   0  0  0  0  0  0
  -29.2652  -20.1655   20.5435 H   0  0  0  0  0  0
  -27.7255  -22.1510   20.1451 H   0  0  0  0  0  0
  -27.2290  -22.0511   21.8229 H   0  0  0  0  0  0
  -29.7931  -16.7924   23.9210 H   0  0  0  0  0  0
  -28.9952  -17.2286   22.4188 H   0  0  0  0  0  0
  -24.1687  -17.8109   22.7036 H   0  0  0  0  0  0
  -22.7797  -18.1306   21.7073 H   0  0  0  0  0  0
  -31.2525  -16.8034   21.2344 H   0  0  0  0  0  0
  -31.7734  -15.9969   22.7124 H   0  0  0  0  0  0
  -28.8545  -25.0162   21.4386 H   0  0  0  0  0  0
  -28.2440  -26.4011   22.3257 H   0  0  0  0  0  0
  -26.5199  -24.6161   20.5466 H   0  0  0  0  0  0
  -25.9375  -25.9218   21.5848 H   0  0  0  0  0  0
  -22.4976  -20.8656   21.4903 H   0  0  0  0  0  0
  -21.3883  -19.9515   22.4971 H   0  0  0  0  0  0
  -22.4171  -21.4404   24.5018 H   0  0  0  0  0  0
  -21.1486  -22.0343   23.4595 H   0  0  0  0  0  0
  -24.3242  -24.7244   22.3761 H   0  0  0  0  0  0
  -24.8281  -23.4058   21.3425 H   0  0  0  0  0  0
  -24.5214  -23.1319   24.3612 H   0  0  0  0  0  0
  -24.8007  -21.8369   23.1915 H   0  0  0  0  0  0
  -26.0785  -20.6654   19.7199 H   0  0  0  0  0  0
  -30.8206  -18.8750   22.0152 H   0  0  0  0  0  0
  1 25  1  0  0  0
  1 30  2  0  0  0
  1 92  1  0  0  0
  2  3  1  0  0  0
  2 25  1  0  0  0
  2 96  1  0  0  0
  2 97  1  0  0  0
  3  4  1  0  0  0
  3 98  1  0  0  0
  3 99  1  0  0  0
  4  5  1  0  0  0
  4100  1  0  0  0
  4101  1  0  0  0
  5  6  1  0  0  0
  5 26  1  0  0  0
  5102  1  0  0  0
  6 25  1  0  0  0
  6103  1  0  0  0
  6104  1  0  0  0
  7  8  2  0  0  0
  7 26  1  0  0  0
  7 29  1  0  0  0
  8  9  1  0  0  0
  8 22  1  0  0  0
  9 10  1  0  0  0
  9 27  2  0  0  0
 10 11  2  0  0  0
 10 15  1  0  0  0
 11 12  1  0  0  0
 11105  1  0  0  0
 12 13  2  0  0  0
 12106  1  0  0  0
 13 14  1  0  0  0
 13 31  1  0  0  0
 14 15  2  0  0  0
 14107  1  0  0  0
 15108  1  0  0  0
 16 17  2  0  0  0
 16 21  1  0  0  0
 16 31  1  0  0  0
 17 18  1  0  0  0
 17109  1  0  0  0
 18 19  2  0  0  0
 18110  1  0  0  0
 19 20  1  0  0  0
 19 24  1  0  0  0
 20 21  2  0  0  0
 20111  1  0  0  0
 21 23  1  0  0  0
 22 28  1  0  0  0
 22 32  2  0  0  0
 26 27  1  0  0  0
 28112  1  0  0  0
 28113  1  0  0  0
 29114  1  0  0  0
 29115  1  0  0  0
 33 34  1  0  0  0
 33 66  1  0  0  0
 33 70  2  0  0  0
 34 36  1  0  0  0
 34 59  1  0  0  0
 34116  1  0  0  0
 35 44  2  0  0  0
 35 45  1  0  0  0
 35 68  1  0  0  0
 36 56  1  0  0  0
 36117  1  0  0  0
 37 39  1  0  0  0
 37 47  1  0  0  0
 37 66  1  0  0  0
 37118  1  0  0  0
 38 43  2  0  0  0
 38 46  1  0  0  0
 38 47  1  0  0  0
 39 64  1  0  0  0
 39 67  2  0  0  0
 40 52  1  0  0  0
 40 53  2  0  0  0
 40 58  1  0  0  0
 41119  1  0  0  0
 41120  1  0  0  0
 41121  1  0  0  0
 41 48  1  0  0  0
 42 43  1  0  0  0
 42 66  1  0  0  0
 42122  1  0  0  0
 42123  1  0  0  0
 43 44  1  0  0  0
 44124  1  0  0  0
 45 46  2  0  0  0
 45125  1  0  0  0
 46126  1  0  0  0
 47127  1  0  0  0
 47128  1  0  0  0
 48 56  1  0  0  0
 48 65  1  0  0  0
 48129  1  0  0  0
 49 50  1  0  0  0
 49 53  1  0  0  0
 49 64  1  0  0  0
 49130  1  0  0  0
 50 51  1  0  0  0
 50131  1  0  0  0
 50132  1  0  0  0
 51 52  1  0  0  0
 51133  1  0  0  0
 51134  1  0  0  0
 52135  1  0  0  0
 52136  1  0  0  0
 53 54  1  0  0  0
 54 55  2  0  0  0
 54137  1  0  0  0
 55 57  1  0  0  0
 55138  1  0  0  0
 56 69  2  0  0  0
 57 58  2  0  0  0
 57139  1  0  0  0
 58140  1  0  0  0
 59 60  1  0  0  0
 59 61  1  0  0  0
 59 62  1  0  0  0
 60141  1  0  0  0
 60142  1  0  0  0
 60143  1  0  0  0
 61144  1  0  0  0
 61145  1  0  0  0
 61146  1  0  0  0
 62147  1  0  0  0
 62148  1  0  0  0
 62149  1  0  0  0
 63 65  1  0  0  0
 63150  1  0  0  0
 63151  1  0  0  0
 63152  1  0  0  0
 64153  1  0  0  0
 65154  1  0  0  0
 68 82  1  0  0  0
 71 73  1  0  0  0
 71 89  1  0  0  0
 71 90  2  0  0  0
 72 74  1  0  0  0
 72 88  1  0  0  0
 72 91  2  0  0  0
 73 75  1  0  0  0
 73155  1  0  0  0
 73156  1  0  0  0
 74 80  1  0  0  0
 74157  1  0  0  0
 74158  1  0  0  0
 75 76  1  0  0  0
 75159  1  0  0  0
 75160  1  0  0  0
 76 77  1  0  0  0
 76161  1  0  0  0
 76162  1  0  0  0
 77 78  1  0  0  0
 77163  1  0  0  0
 77164  1  0  0  0
 78 88  1  0  0  0
 78165  1  0  0  0
 78166  1  0  0  0
 79 81  1  0  0  0
 79 89  1  0  0  0
 79167  1  0  0  0
 79168  1  0  0  0
 80 93  1  0  0  0
 80169  1  0  0  0
 80170  1  0  0  0
 81 92  1  0  0  0
 81171  1  0  0  0
 81172  1  0  0  0
 82 83  1  0  0  0
 82173  1  0  0  0
 82174  1  0  0  0
 83 94  1  0  0  0
 83175  1  0  0  0
 83176  1  0  0  0
 84 85  1  0  0  0
 84 93  1  0  0  0
 84177  1  0  0  0
 84178  1  0  0  0
 85 95  1  0  0  0
 85179  1  0  0  0
 85180  1  0  0  0
 86 87  1  0  0  0
 86 94  1  0  0  0
 86181  1  0  0  0
 86182  1  0  0  0
 87 95  1  0  0  0
 87183  1  0  0  0
 87184  1  0  0  0
 88185  1  0  0  0
 89186  1  0  0  0
M  ISO  4   1 100  68 101  82 101  92 100
M  END
> <chiral flag>
0

> <version>
0

> <s_m_source_file>
/data/baiqing/PycharmProjects/Reinvent-master-3.2/result/LINK_invent/BTK/process_docking_weight1_custom_product_contain_oxygen_bond_distance_aromatic_linkinvent_7_9_3/rearranged_h_0000.sdf

> <i_m_source_file_index>
57

> <r_mmod_Potential_Energy-OPLS-2005>
-171.355056762695

> <r_mmod_Stretch_Energy-OPLS-2005>
36.0545120239258

> <r_mmod_Bend_Energy-OPLS-2005>
124.106628417969

> <r_mmod_Torsional_Energy-OPLS-2005>
188.883071899414

> <r_mmod_Improper_Torsional_Energy-OPLS-2005>
2.91574311256409

> <r_mmod_Van_der_Waal_Energy-OPLS-2005>
136.382461547852

> <r_mmod_Electrostatic_Energy-OPLS-2005>
-416.862945556641

> <r_mmod_Solvation_Energy-OPLS-2005>
-263.732391357422

> <b_mmod_Minimization_Converged-OPLS-2005>
0

> <r_mmod_RMS_Derivative-OPLS-2005>
4.71262645721436

$$$$
57
                    3D
 Structure written by MMmdl.
165172  0  0  1  0            999 V2000
  -30.7299  -14.3479   20.7028 C   0  0  0  0  0  0
  -30.4295  -12.2794   19.3894 C   0  0  0  0  0  0
  -29.4879  -12.5170   18.1910 C   0  0  0  0  0  0
  -28.0100  -12.3728   18.6080 C   0  0  0  0  0  0
  -27.6692  -13.1920   19.8792 C   0  0  2  0  0  0
  -28.7005  -12.8911   20.9895 C   0  0  0  0  0  0
  -25.2627  -13.8152   20.5622 C   0  0  0  0  0  0
  -24.1869  -13.0449   20.9142 C   0  0  0  0  0  0
  -24.6394  -11.6913   20.8689 C   0  0  0  0  0  0
  -23.9042  -10.4311   21.0375 C   0  0  0  0  0  0
  -24.3598   -9.4240   21.9152 C   0  0  0  0  0  0
  -23.6296   -8.2263   22.0718 C   0  0  0  0  0  0
  -22.4264   -8.0294   21.3523 C   0  0  0  0  0  0
  -21.9896   -9.0256   20.4609 C   0  0  0  0  0  0
  -22.7212  -10.2145   20.3022 C   0  0  0  0  0  0
  -21.6855   -6.0769   22.5293 C   0  0  0  0  0  0
  -21.4017   -6.5648   23.8231 C   0  0  0  0  0  0
  -21.3661   -5.6779   24.9179 C   0  0  0  0  0  0
  -21.6032   -4.3046   24.7227 C   0  0  0  0  0  0
  -21.8825   -3.8168   23.4329 C   0  0  0  0  0  0
  -21.9189   -4.6996   22.3407 C   0  0  0  0  0  0
  -22.7904  -13.5243   21.1842 C   0  0  0  0  0  0
  -22.1645   -4.2192   21.0975 F   0  0  0  0  0  0
  -21.5630   -3.4515   25.7723 F   0  0  0  0  0  0
  -30.0515  -13.1958   20.4738 N   0  0  0  0  0  0
  -26.3056  -12.9298   20.3328 N   0  0  0  0  0  0
  -25.9314  -11.6475   20.5751 N   0  0  0  0  0  0
  -22.0528  -12.8245   22.0405 N   0  0  0  0  0  0
  -25.4375  -15.1869   20.3983 N   0  0  0  0  0  0
  -31.7234  -14.7055   20.0651 O   0  0  0  0  0  0
  -21.6623   -6.8899   21.4246 O   0  0  0  0  0  0
  -22.3596  -14.5568   20.6717 O   0  0  0  0  0  0
  -24.6135  -31.8698   23.2124 C   0  0  0  0  0  0
  -25.9036  -32.4823   23.8418 C   0  0  1  0  0  0
  -27.2335  -27.4498   20.0928 C   0  0  0  0  0  0
  -25.5897  -33.8623   24.2343 N   0  0  0  0  0  0
  -23.4007  -30.4940   21.5521 C   0  0  2  0  0  0
  -24.8437  -28.9601   20.1177 C   0  0  0  0  0  0
  -22.7407  -29.4664   22.4994 C   0  0  0  0  0  0
  -18.0280  -28.1366   22.8497 C   0  0  0  0  0  0
  -24.1489  -36.7317   23.2642 C   0  0  0  0  0  0
  -25.9284  -30.8376   21.3656 C   0  0  0  0  0  0
  -26.0037  -29.4745   20.7101 C   0  0  0  0  0  0
  -27.1999  -28.7280   20.6910 C   0  0  0  0  0  0
  -26.0522  -26.9415   19.5043 C   0  0  0  0  0  0
  -24.8614  -27.6916   19.5151 C   0  0  0  0  0  0
  -23.6082  -29.8266   20.1663 C   0  0  0  0  0  0
  -25.4106  -36.3119   24.0347 C   0  0  1  0  0  0
  -20.5875  -28.3653   23.1318 C   0  0  2  0  0  0
  -20.6769  -26.9390   22.5414 C   0  0  0  0  0  0
  -19.5738  -26.6383   21.5212 C   0  0  0  0  0  0
  -18.1923  -26.7920   22.1624 C   0  0  0  0  0  0
  -19.1530  -28.8827   23.2904 C   0  0  0  0  0  0
  -18.9457  -30.1443   23.8908 C   0  0  0  0  0  0
  -17.6455  -30.6574   24.0573 C   0  0  0  0  0  0
  -25.9033  -34.9479   23.5143 C   0  0  0  0  0  0
  -16.5350  -29.9077   23.6328 C   0  0  0  0  0  0
  -16.7268  -28.6495   23.0346 C   0  0  0  0  0  0
  -26.4469  -31.6612   25.0748 C   0  0  0  0  0  0
  -25.3742  -31.3714   26.1502 C   0  0  0  0  0  0
  -27.0314  -30.3058   24.6135 C   0  0  0  0  0  0
  -27.6057  -32.4335   25.7485 C   0  0  0  0  0  0
  -27.5582  -37.1813   24.8463 C   0  0  0  0  0  0
  -21.4144  -29.3032   22.3730 N   0  0  0  0  0  0
  -26.4295  -37.3797   23.9407 N   0  0  0  0  0  0
  -24.6656  -31.0811   22.1018 N   0  0  0  0  0  0
  -23.4193  -28.8201   23.3019 O   0  0  0  0  0  0
  -28.4309  -26.7688   20.0780 O   0  0  0  0  0  0
  -26.5582  -34.8923   22.4699 O   0  0  0  0  0  0
  -23.5331  -32.1445   23.7520 O   0  0  0  0  0  0
  -30.2804  -16.5388   21.8064 C   0  0  0  0  0  0
  -28.8853  -17.1149   21.5177 C   0  0  0  0  0  0
  -28.4233  -25.3391   20.1229 C   0  0  0  0  0  0
  -28.0994  -24.8309   21.5388 C   0  0  0  0  0  0
  -27.6376  -19.1061   21.1721 C   0  0  0  0  0  0
  -26.5880  -19.1081   22.3040 C   0  0  0  0  0  0
  -26.3204  -24.7739   23.1021 C   0  0  0  0  0  0
  -24.9186  -24.1606   23.2620 C   0  0  0  0  0  0
  -25.4972  -20.5381   23.8530 C   0  0  0  0  0  0
  -25.3863  -22.0205   24.2268 C   0  0  0  0  0  0
  -30.2068  -15.0894   21.6822 N   0  0  0  0  0  0
  -28.8879  -18.5361   21.5630 O   0  0  0  0  0  0
  -26.6930  -24.7460   21.7301 O   0  0  0  0  0  0
  -26.5917  -20.3704   22.9577 O   0  0  0  0  0  0
  -24.9529  -22.7472   23.0794 O   0  0  0  0  0  0
  -31.4677  -12.4045   19.0812 H   0  0  0  0  0  0
  -30.3526  -11.2467   19.7345 H   0  0  0  0  0  0
  -29.7200  -11.8154   17.3886 H   0  0  0  0  0  0
  -29.6550  -13.5141   17.7797 H   0  0  0  0  0  0
  -27.8151  -11.3152   18.7912 H   0  0  0  0  0  0
  -27.3552  -12.6580   17.7846 H   0  0  0  0  0  0
  -27.7387  -14.2504   19.6224 H   0  0  0  0  0  0
  -28.6619  -11.8329   21.2560 H   0  0  0  0  0  0
  -28.4336  -13.4202   21.9069 H   0  0  0  0  0  0
  -25.2733   -9.5761   22.4744 H   0  0  0  0  0  0
  -24.0055   -7.4669   22.7416 H   0  0  0  0  0  0
  -21.0840   -8.8750   19.8901 H   0  0  0  0  0  0
  -22.3636  -10.9680   19.6141 H   0  0  0  0  0  0
  -21.2001   -7.6154   23.9754 H   0  0  0  0  0  0
  -21.1458   -6.0493   25.9078 H   0  0  0  0  0  0
  -22.0600   -2.7639   23.2812 H   0  0  0  0  0  0
  -22.4085  -11.9892   22.4825 H   0  0  0  0  0  0
  -21.1137  -13.1277   22.2552 H   0  0  0  0  0  0
  -24.6578  -15.8310   20.4706 H   0  0  0  0  0  0
  -26.2702  -15.6097   20.0114 H   0  0  0  0  0  0
  -26.7106  -32.5537   23.1187 H   0  0  0  0  0  0
  -25.0090  -33.9801   25.0514 H   0  0  0  0  0  0
  -22.6897  -31.3108   21.4130 H   0  0  0  0  0  0
  -23.3752  -35.9650   23.3319 H   0  0  0  0  0  0
  -24.3585  -36.8913   22.2053 H   0  0  0  0  0  0
  -23.7236  -37.6529   23.6638 H   0  0  0  0  0  0
  -26.0476  -31.6066   20.6013 H   0  0  0  0  0  0
  -26.8150  -30.8832   21.9879 H   0  0  0  0  0  0
  -28.0992  -29.1266   21.1414 H   0  0  0  0  0  0
  -26.0298  -25.9758   19.0235 H   0  0  0  0  0  0
  -23.9705  -27.2907   19.0524 H   0  0  0  0  0  0
  -23.7169  -30.6014   19.4055 H   0  0  0  0  0  0
  -22.7324  -29.2461   19.8707 H   0  0  0  0  0  0
  -25.1281  -36.2000   25.0840 H   0  0  0  0  0  0
  -20.9970  -28.3210   24.1433 H   0  0  0  0  0  0
  -20.5667  -26.2262   23.3597 H   0  0  0  0  0  0
  -21.6639  -26.7424   22.1203 H   0  0  0  0  0  0
  -19.6897  -25.6301   21.1221 H   0  0  0  0  0  0
  -19.6677  -27.3212   20.6755 H   0  0  0  0  0  0
  -17.4197  -26.6693   21.4022 H   0  0  0  0  0  0
  -18.0313  -26.0052   22.9005 H   0  0  0  0  0  0
  -19.7937  -30.7264   24.2268 H   0  0  0  0  0  0
  -17.5011  -31.6253   24.5178 H   0  0  0  0  0  0
  -15.5351  -30.2974   23.7647 H   0  0  0  0  0  0
  -15.8674  -28.0819   22.7032 H   0  0  0  0  0  0
  -24.5879  -30.7105   25.7831 H   0  0  0  0  0  0
  -24.8979  -32.2877   26.5003 H   0  0  0  0  0  0
  -25.8095  -30.8829   27.0231 H   0  0  0  0  0  0
  -26.2868  -29.6789   24.1211 H   0  0  0  0  0  0
  -27.4117  -29.7317   25.4599 H   0  0  0  0  0  0
  -27.8688  -30.4388   23.9278 H   0  0  0  0  0  0
  -27.2684  -33.3614   26.2108 H   0  0  0  0  0  0
  -28.3820  -32.6929   25.0275 H   0  0  0  0  0  0
  -28.0781  -31.8443   26.5351 H   0  0  0  0  0  0
  -28.2613  -38.0100   24.7506 H   0  0  0  0  0  0
  -28.1070  -36.2636   24.6296 H   0  0  0  0  0  0
  -27.2306  -37.1472   25.8869 H   0  0  0  0  0  0
  -20.9295  -29.8776   21.6983 H   0  0  0  0  0  0
  -26.0199  -38.2888   24.1389 H   0  0  0  0  0  0
  -30.5970  -16.7970   22.8178 H   0  0  0  0  0  0
  -31.0162  -16.9644   21.1210 H   0  0  0  0  0  0
  -28.1696  -16.7179   22.2386 H   0  0  0  0  0  0
  -28.5609  -16.7743   20.5330 H   0  0  0  0  0  0
  -27.7986  -24.8703   19.3648 H   0  0  0  0  0  0
  -29.4403  -25.0300   19.8793 H   0  0  0  0  0  0
  -28.5849  -25.4711   22.2791 H   0  0  0  0  0  0
  -28.5102  -23.8286   21.6743 H   0  0  0  0  0  0
  -27.8079  -20.1312   20.8410 H   0  0  0  0  0  0
  -27.2452  -18.5850   20.2959 H   0  0  0  0  0  0
  -26.7408  -18.2991   23.0220 H   0  0  0  0  0  0
  -25.6062  -18.9474   21.8570 H   0  0  0  0  0  0
  -27.0491  -24.2537   23.7249 H   0  0  0  0  0  0
  -26.3099  -25.8138   23.4285 H   0  0  0  0  0  0
  -24.2466  -24.5980   22.5239 H   0  0  0  0  0  0
  -24.4947  -24.4050   24.2366 H   0  0  0  0  0  0
  -24.5562  -20.2186   23.4033 H   0  0  0  0  0  0
  -25.6589  -19.9313   24.7458 H   0  0  0  0  0  0
  -26.3451  -22.3744   24.6047 H   0  0  0  0  0  0
  -24.6570  -22.1469   25.0300 H   0  0  0  0  0  0
  -29.4792  -14.6360   22.2158 H   0  0  0  0  0  0
  1 25  1  0  0  0
  1 30  2  0  0  0
  1 81  1  0  0  0
  2  3  1  0  0  0
  2 25  1  0  0  0
  2 86  1  0  0  0
  2 87  1  0  0  0
  3  4  1  0  0  0
  3 88  1  0  0  0
  3 89  1  0  0  0
  4  5  1  0  0  0
  4 90  1  0  0  0
  4 91  1  0  0  0
  5  6  1  0  0  0
  5 26  1  0  0  0
  5 92  1  0  0  0
  6 25  1  0  0  0
  6 93  1  0  0  0
  6 94  1  0  0  0
  7  8  2  0  0  0
  7 26  1  0  0  0
  7 29  1  0  0  0
  8  9  1  0  0  0
  8 22  1  0  0  0
  9 10  1  0  0  0
  9 27  2  0  0  0
 10 11  2  0  0  0
 10 15  1  0  0  0
 11 12  1  0  0  0
 11 95  1  0  0  0
 12 13  2  0  0  0
 12 96  1  0  0  0
 13 14  1  0  0  0
 13 31  1  0  0  0
 14 15  2  0  0  0
 14 97  1  0  0  0
 15 98  1  0  0  0
 16 17  2  0  0  0
 16 21  1  0  0  0
 16 31  1  0  0  0
 17 18  1  0  0  0
 17 99  1  0  0  0
 18 19  2  0  0  0
 18100  1  0  0  0
 19 20  1  0  0  0
 19 24  1  0  0  0
 20 21  2  0  0  0
 20101  1  0  0  0
 21 23  1  0  0  0
 22 28  1  0  0  0
 22 32  2  0  0  0
 26 27  1  0  0  0
 28102  1  0  0  0
 28103  1  0  0  0
 29104  1  0  0  0
 29105  1  0  0  0
 33 34  1  0  0  0
 33 66  1  0  0  0
 33 70  2  0  0  0
 34 36  1  0  0  0
 34 59  1  0  0  0
 34106  1  0  0  0
 35 44  2  0  0  0
 35 45  1  0  0  0
 35 68  1  0  0  0
 36 56  1  0  0  0
 36107  1  0  0  0
 37 39  1  0  0  0
 37 47  1  0  0  0
 37 66  1  0  0  0
 37108  1  0  0  0
 38 43  2  0  0  0
 38 46  1  0  0  0
 38 47  1  0  0  0
 39 64  1  0  0  0
 39 67  2  0  0  0
 40 52  1  0  0  0
 40 53  2  0  0  0
 40 58  1  0  0  0
 41109  1  0  0  0
 41110  1  0  0  0
 41111  1  0  0  0
 41 48  1  0  0  0
 42 43  1  0  0  0
 42 66  1  0  0  0
 42112  1  0  0  0
 42113  1  0  0  0
 43 44  1  0  0  0
 44114  1  0  0  0
 45 46  2  0  0  0
 45115  1  0  0  0
 46116  1  0  0  0
 47117  1  0  0  0
 47118  1  0  0  0
 48 56  1  0  0  0
 48 65  1  0  0  0
 48119  1  0  0  0
 49 50  1  0  0  0
 49 53  1  0  0  0
 49 64  1  0  0  0
 49120  1  0  0  0
 50 51  1  0  0  0
 50121  1  0  0  0
 50122  1  0  0  0
 51 52  1  0  0  0
 51123  1  0  0  0
 51124  1  0  0  0
 52125  1  0  0  0
 52126  1  0  0  0
 53 54  1  0  0  0
 54 55  2  0  0  0
 54127  1  0  0  0
 55 57  1  0  0  0
 55128  1  0  0  0
 56 69  2  0  0  0
 57 58  2  0  0  0
 57129  1  0  0  0
 58130  1  0  0  0
 59 60  1  0  0  0
 59 61  1  0  0  0
 59 62  1  0  0  0
 60131  1  0  0  0
 60132  1  0  0  0
 60133  1  0  0  0
 61134  1  0  0  0
 61135  1  0  0  0
 61136  1  0  0  0
 62137  1  0  0  0
 62138  1  0  0  0
 62139  1  0  0  0
 63 65  1  0  0  0
 63140  1  0  0  0
 63141  1  0  0  0
 63142  1  0  0  0
 64143  1  0  0  0
 65144  1  0  0  0
 68 73  1  0  0  0
 71 72  1  0  0  0
 71 81  1  0  0  0
 71145  1  0  0  0
 71146  1  0  0  0
 72 82  1  0  0  0
 72147  1  0  0  0
 72148  1  0  0  0
 73 74  1  0  0  0
 73149  1  0  0  0
 73150  1  0  0  0
 74 83  1  0  0  0
 74151  1  0  0  0
 74152  1  0  0  0
 75 76  1  0  0  0
 75 82  1  0  0  0
 75153  1  0  0  0
 75154  1  0  0  0
 76 84  1  0  0  0
 76155  1  0  0  0
 76156  1  0  0  0
 77 78  1  0  0  0
 77 83  1  0  0  0
 77157  1  0  0  0
 77158  1  0  0  0
 78 85  1  0  0  0
 78159  1  0  0  0
 78160  1  0  0  0
 79 80  1  0  0  0
 79 84  1  0  0  0
 79161  1  0  0  0
 79162  1  0  0  0
 80 85  1  0  0  0
 80163  1  0  0  0
 80164  1  0  0  0
 81165  1  0  0  0
M  ISO  4   1 100  68 101  73 101  81 100
M  END
> <chiral flag>
0

> <version>
0

> <s_m_source_file>
/data/baiqing/PycharmProjects/Reinvent-master-3.2/result/LINK_invent/BTK/process_docking_weight1_custom_product_contain_oxygen_bond_distance_aromatic_linkinvent_7_9_3/rearranged_h_0000.sdf

> <i_m_source_file_index>
58

> <r_mmod_Potential_Energy-OPLS-2005>
-122.28645324707

> <r_mmod_Stretch_Energy-OPLS-2005>
32.0088500976562

> <r_mmod_Bend_Energy-OPLS-2005>
97.7230072021484

> <r_mmod_Torsional_Energy-OPLS-2005>
201.062683105469

> <r_mmod_Improper_Torsional_Energy-OPLS-2005>
3.23831534385681

> <r_mmod_Van_der_Waal_Energy-OPLS-2005>
131.441696166992

> <r_mmod_Electrostatic_Energy-OPLS-2005>
-358.040924072266

> <r_mmod_Solvation_Energy-OPLS-2005>
-238.455581665039

> <b_mmod_Minimization_Converged-OPLS-2005>
0

> <r_mmod_RMS_Derivative-OPLS-2005>
2.76533460617065

$$$$
58
                    3D
 Structure written by MMmdl.
148156  0  0  1  0            999 V2000
  -30.5205  -15.0264   20.4016 C   0  0  0  0  0  0
  -30.4388  -12.6399   19.5030 C   0  0  0  0  0  0
  -29.5228  -12.5359   18.2613 C   0  0  0  0  0  0
  -28.0594  -12.3085   18.6834 C   0  0  0  0  0  0
  -27.6237  -13.2547   19.8321 C   0  0  2  0  0  0
  -28.6657  -13.3235   20.9682 C   0  0  0  0  0  0
  -25.2437  -13.8224   20.5717 C   0  0  0  0  0  0
  -24.1766  -13.0437   20.9241 C   0  0  0  0  0  0
  -24.6393  -11.6927   20.8761 C   0  0  0  0  0  0
  -23.9081  -10.4293   21.0409 C   0  0  0  0  0  0
  -24.3628   -9.4206   21.9186 C   0  0  0  0  0  0
  -23.6298   -8.2243   22.0754 C   0  0  0  0  0  0
  -22.4281   -8.0282   21.3544 C   0  0  0  0  0  0
  -21.9920   -9.0257   20.4646 C   0  0  0  0  0  0
  -22.7253  -10.2134   20.3057 C   0  0  0  0  0  0
  -21.6855   -6.0736   22.5278 C   0  0  0  0  0  0
  -21.4016   -6.5640   23.8211 C   0  0  0  0  0  0
  -21.3659   -5.6792   24.9173 C   0  0  0  0  0  0
  -21.6044   -4.3055   24.7224 C   0  0  0  0  0  0
  -21.8819   -3.8146   23.4346 C   0  0  0  0  0  0
  -21.9193   -4.6963   22.3401 C   0  0  0  0  0  0
  -22.7786  -13.5202   21.1892 C   0  0  0  0  0  0
  -22.1661   -4.2149   21.0980 F   0  0  0  0  0  0
  -21.5628   -3.4538   25.7738 F   0  0  0  0  0  0
  -29.9294  -13.7564   20.3577 N   0  0  0  0  0  0
  -26.2861  -12.9466   20.3233 N   0  0  0  0  0  0
  -25.9326  -11.6590   20.5739 N   0  0  0  0  0  0
  -22.0439  -12.8187   22.0446 N   0  0  0  0  0  0
  -25.4080  -15.1955   20.4126 N   0  0  0  0  0  0
  -31.7341  -15.0537   20.1650 O   0  0  0  0  0  0
  -21.6642   -6.8880   21.4240 O   0  0  0  0  0  0
  -22.3467  -14.5505   20.6734 O   0  0  0  0  0  0
  -24.6491  -31.8384   23.1832 C   0  0  0  0  0  0
  -25.9238  -32.4664   23.8242 C   0  0  1  0  0  0
  -27.2152  -27.0784   20.1593 C   0  0  0  0  0  0
  -25.5962  -33.8472   24.2155 N   0  0  0  0  0  0
  -23.4556  -30.4559   21.5300 C   0  0  2  0  0  0
  -24.9054  -28.8722   20.1108 C   0  0  0  0  0  0
  -22.7597  -29.4517   22.4836 C   0  0  0  0  0  0
  -18.0309  -28.1399   22.8473 C   0  0  0  0  0  0
  -24.1492  -36.7241   23.2644 C   0  0  0  0  0  0
  -26.0157  -30.6939   21.3903 C   0  0  0  0  0  0
  -26.0858  -29.2996   20.7319 C   0  0  0  0  0  0
  -27.2411  -28.4207   20.7352 C   0  0  0  0  0  0
  -26.0064  -26.7659   19.4989 C   0  0  0  0  0  0
  -24.8820  -27.6210   19.4772 C   0  0  0  0  0  0
  -23.6855  -29.7822   20.1511 C   0  0  0  0  0  0
  -25.4127  -36.3013   24.0311 C   0  0  1  0  0  0
  -20.5926  -28.3729   23.1221 C   0  0  2  0  0  0
  -20.6792  -26.9426   22.5402 C   0  0  0  0  0  0
  -19.5765  -26.6380   21.5212 C   0  0  0  0  0  0
  -18.1946  -26.7934   22.1624 C   0  0  0  0  0  0
  -19.1567  -28.8883   23.2836 C   0  0  0  0  0  0
  -18.9483  -30.1477   23.8866 C   0  0  0  0  0  0
  -17.6479  -30.6594   24.0557 C   0  0  0  0  0  0
  -25.9082  -34.9391   23.5047 C   0  0  0  0  0  0
  -16.5369  -29.9084   23.6340 C   0  0  0  0  0  0
  -16.7293  -28.6504   23.0359 C   0  0  0  0  0  0
  -26.4538  -31.6555   25.0710 C   0  0  0  0  0  0
  -25.3705  -31.3765   26.1393 C   0  0  0  0  0  0
  -27.0414  -30.2943   24.6337 C   0  0  0  0  0  0
  -27.6054  -32.4336   25.7503 C   0  0  0  0  0  0
  -27.5574  -37.1776   24.8466 C   0  0  0  0  0  0
  -21.4282  -29.3046   22.3587 N   0  0  0  0  0  0
  -26.4284  -37.3733   23.9409 N   0  0  0  0  0  0
  -24.7272  -31.0188   22.0892 N   0  0  0  0  0  0
  -23.4213  -28.8070   23.3012 O   0  0  0  0  0  0
  -28.2523  -26.0582   20.2291 O   0  0  0  0  0  0
  -26.5674  -34.8900   22.4630 O   0  0  0  0  0  0
  -23.5597  -32.1286   23.7018 O   0  0  0  0  0  0
  -31.7700  -19.5441   20.5721 C   0  0  0  0  0  0
  -31.3857  -18.1810   20.5604 C   0  0  0  0  0  0
  -30.8520  -20.6180   20.4816 C   0  0  0  0  0  0
  -29.1018  -18.9472   20.3640 C   0  0  0  0  0  0
  -30.0374  -17.7691   20.4575 C   0  0  0  0  0  0
  -29.4615  -20.4115   20.3680 C   0  0  0  0  0  0
  -27.9614  -24.5038   20.1070 C   0  0  0  0  0  0
  -28.9765  -23.1286   20.3248 C   0  0  0  0  0  0
  -29.7366  -16.2366   20.4835 N   0  0  0  0  0  0
  -28.5804  -21.6011   20.2654 O   0  0  0  0  0  0
  -31.4693  -12.8061   19.1854 H   0  0  0  0  0  0
  -30.4485  -11.7011   20.0590 H   0  0  0  0  0  0
  -29.8554  -11.7267   17.6098 H   0  0  0  0  0  0
  -29.5967  -13.4529   17.6746 H   0  0  0  0  0  0
  -27.9707  -11.2716   19.0096 H   0  0  0  0  0  0
  -27.3938  -12.4159   17.8261 H   0  0  0  0  0  0
  -27.5734  -14.2472   19.3833 H   0  0  0  0  0  0
  -28.7736  -12.3592   21.4670 H   0  0  0  0  0  0
  -28.3527  -14.0363   21.7330 H   0  0  0  0  0  0
  -25.2770   -9.5681   22.4766 H   0  0  0  0  0  0
  -24.0004   -7.4634   22.7476 H   0  0  0  0  0  0
  -21.0852   -8.8780   19.8951 H   0  0  0  0  0  0
  -22.3712  -10.9674   19.6168 H   0  0  0  0  0  0
  -21.2010   -7.6148   23.9715 H   0  0  0  0  0  0
  -21.1481   -6.0522   25.9077 H   0  0  0  0  0  0
  -22.0598   -2.7609   23.2846 H   0  0  0  0  0  0
  -22.4066  -11.9853   22.4835 H   0  0  0  0  0  0
  -21.1053  -13.1199   22.2651 H   0  0  0  0  0  0
  -24.6338  -15.8423   20.5186 H   0  0  0  0  0  0
  -26.2411  -15.6362   20.0460 H   0  0  0  0  0  0
  -26.7302  -32.5250   23.0964 H   0  0  0  0  0  0
  -25.0079  -33.9576   25.0283 H   0  0  0  0  0  0
  -22.7612  -31.2836   21.3714 H   0  0  0  0  0  0
  -23.3762  -35.9565   23.3289 H   0  0  0  0  0  0
  -24.3575  -36.8895   22.2061 H   0  0  0  0  0  0
  -23.7242  -37.6428   23.6698 H   0  0  0  0  0  0
  -26.1785  -31.4453   20.6166 H   0  0  0  0  0  0
  -26.8831  -30.7448   22.0368 H   0  0  0  0  0  0
  -28.1389  -28.7436   21.2432 H   0  0  0  0  0  0
  -25.8933  -25.8099   19.0111 H   0  0  0  0  0  0
  -23.9815  -27.2887   18.9791 H   0  0  0  0  0  0
  -23.8280  -30.5554   19.3951 H   0  0  0  0  0  0
  -22.7984  -29.2283   19.8384 H   0  0  0  0  0  0
  -25.1317  -36.1831   25.0803 H   0  0  0  0  0  0
  -21.0014  -28.3324   24.1344 H   0  0  0  0  0  0
  -20.5683  -26.2343   23.3628 H   0  0  0  0  0  0
  -21.6656  -26.7424   22.1200 H   0  0  0  0  0  0
  -19.6927  -25.6283   21.1261 H   0  0  0  0  0  0
  -19.6704  -27.3175   20.6729 H   0  0  0  0  0  0
  -17.4214  -26.6677   21.4029 H   0  0  0  0  0  0
  -18.0345  -26.0085   22.9030 H   0  0  0  0  0  0
  -19.7960  -30.7300   24.2221 H   0  0  0  0  0  0
  -17.5033  -31.6271   24.5163 H   0  0  0  0  0  0
  -15.5368  -30.2975   23.7683 H   0  0  0  0  0  0
  -15.8694  -28.0812   22.7090 H   0  0  0  0  0  0
  -24.5893  -30.7105   25.7712 H   0  0  0  0  0  0
  -24.8886  -32.2953   26.4742 H   0  0  0  0  0  0
  -25.7970  -30.8987   27.0222 H   0  0  0  0  0  0
  -26.3047  -29.6649   24.1331 H   0  0  0  0  0  0
  -27.3989  -29.7263   25.4937 H   0  0  0  0  0  0
  -27.8970  -30.4161   23.9693 H   0  0  0  0  0  0
  -27.2638  -33.3668   26.1994 H   0  0  0  0  0  0
  -28.3910  -32.6847   25.0363 H   0  0  0  0  0  0
  -28.0671  -31.8519   26.5491 H   0  0  0  0  0  0
  -28.2576  -38.0085   24.7513 H   0  0  0  0  0  0
  -28.1083  -36.2614   24.6292 H   0  0  0  0  0  0
  -27.2290  -37.1419   25.8868 H   0  0  0  0  0  0
  -20.9504  -29.8756   21.6755 H   0  0  0  0  0  0
  -26.0146  -38.2798   24.1416 H   0  0  0  0  0  0
  -32.8222  -19.7769   20.6574 H   0  0  0  0  0  0
  -32.1724  -17.4461   20.6451 H   0  0  0  0  0  0
  -31.2468  -21.6234   20.4994 H   0  0  0  0  0  0
  -28.0487  -18.7195   20.2832 H   0  0  0  0  0  0
  -27.1135  -24.3371   20.7719 H   0  0  0  0  0  0
  -27.5561  -24.3759   19.1037 H   0  0  0  0  0  0
  -29.4489  -23.2554   21.2989 H   0  0  0  0  0  0
  -29.7877  -23.2451   19.6062 H   0  0  0  0  0  0
  -28.7533  -16.0263   20.5640 H   0  0  0  0  0  0
  1 25  1  0  0  0
  1 30  2  0  0  0
  1 79  1  0  0  0
  2  3  1  0  0  0
  2 25  1  0  0  0
  2 81  1  0  0  0
  2 82  1  0  0  0
  3  4  1  0  0  0
  3 83  1  0  0  0
  3 84  1  0  0  0
  4  5  1  0  0  0
  4 85  1  0  0  0
  4 86  1  0  0  0
  5  6  1  0  0  0
  5 26  1  0  0  0
  5 87  1  0  0  0
  6 25  1  0  0  0
  6 88  1  0  0  0
  6 89  1  0  0  0
  7  8  2  0  0  0
  7 26  1  0  0  0
  7 29  1  0  0  0
  8  9  1  0  0  0
  8 22  1  0  0  0
  9 10  1  0  0  0
  9 27  2  0  0  0
 10 11  2  0  0  0
 10 15  1  0  0  0
 11 12  1  0  0  0
 11 90  1  0  0  0
 12 13  2  0  0  0
 12 91  1  0  0  0
 13 14  1  0  0  0
 13 31  1  0  0  0
 14 15  2  0  0  0
 14 92  1  0  0  0
 15 93  1  0  0  0
 16 17  2  0  0  0
 16 21  1  0  0  0
 16 31  1  0  0  0
 17 18  1  0  0  0
 17 94  1  0  0  0
 18 19  2  0  0  0
 18 95  1  0  0  0
 19 20  1  0  0  0
 19 24  1  0  0  0
 20 21  2  0  0  0
 20 96  1  0  0  0
 21 23  1  0  0  0
 22 28  1  0  0  0
 22 32  2  0  0  0
 26 27  1  0  0  0
 28 97  1  0  0  0
 28 98  1  0  0  0
 29 99  1  0  0  0
 29100  1  0  0  0
 33 34  1  0  0  0
 33 66  1  0  0  0
 33 70  2  0  0  0
 34 36  1  0  0  0
 34 59  1  0  0  0
 34101  1  0  0  0
 35 44  2  0  0  0
 35 45  1  0  0  0
 35 68  1  0  0  0
 36 56  1  0  0  0
 36102  1  0  0  0
 37 39  1  0  0  0
 37 47  1  0  0  0
 37 66  1  0  0  0
 37103  1  0  0  0
 38 43  2  0  0  0
 38 46  1  0  0  0
 38 47  1  0  0  0
 39 64  1  0  0  0
 39 67  2  0  0  0
 40 52  1  0  0  0
 40 53  2  0  0  0
 40 58  1  0  0  0
 41104  1  0  0  0
 41105  1  0  0  0
 41106  1  0  0  0
 41 48  1  0  0  0
 42 43  1  0  0  0
 42 66  1  0  0  0
 42107  1  0  0  0
 42108  1  0  0  0
 43 44  1  0  0  0
 44109  1  0  0  0
 45 46  2  0  0  0
 45110  1  0  0  0
 46111  1  0  0  0
 47112  1  0  0  0
 47113  1  0  0  0
 48 56  1  0  0  0
 48 65  1  0  0  0
 48114  1  0  0  0
 49 50  1  0  0  0
 49 53  1  0  0  0
 49 64  1  0  0  0
 49115  1  0  0  0
 50 51  1  0  0  0
 50116  1  0  0  0
 50117  1  0  0  0
 51 52  1  0  0  0
 51118  1  0  0  0
 51119  1  0  0  0
 52120  1  0  0  0
 52121  1  0  0  0
 53 54  1  0  0  0
 54 55  2  0  0  0
 54122  1  0  0  0
 55 57  1  0  0  0
 55123  1  0  0  0
 56 69  2  0  0  0
 57 58  2  0  0  0
 57124  1  0  0  0
 58125  1  0  0  0
 59 60  1  0  0  0
 59 61  1  0  0  0
 59 62  1  0  0  0
 60126  1  0  0  0
 60127  1  0  0  0
 60128  1  0  0  0
 61129  1  0  0  0
 61130  1  0  0  0
 61131  1  0  0  0
 62132  1  0  0  0
 62133  1  0  0  0
 62134  1  0  0  0
 63 65  1  0  0  0
 63135  1  0  0  0
 63136  1  0  0  0
 63137  1  0  0  0
 64138  1  0  0  0
 65139  1  0  0  0
 68 77  1  0  0  0
 71 72  2  0  0  0
 71 73  1  0  0  0
 71140  1  0  0  0
 72 75  1  0  0  0
 72141  1  0  0  0
 73 76  2  0  0  0
 73142  1  0  0  0
 74 75  2  0  0  0
 74 76  1  0  0  0
 74143  1  0  0  0
 75 79  1  0  0  0
 76 80  1  0  0  0
 77 78  1  0  0  0
 77144  1  0  0  0
 77145  1  0  0  0
 78 80  1  0  0  0
 78146  1  0  0  0
 78147  1  0  0  0
 79148  1  0  0  0
M  ISO  4   1 100  68 101  77 101  79 100
M  END
> <chiral flag>
0

> <version>
0

> <s_m_source_file>
/data/baiqing/PycharmProjects/Reinvent-master-3.2/result/LINK_invent/BTK/process_docking_weight1_custom_product_contain_oxygen_bond_distance_aromatic_linkinvent_7_9_3/rearranged_h_0000.sdf

> <i_m_source_file_index>
59

> <r_mmod_Potential_Energy-OPLS-2005>
646.360778808594

> <r_mmod_Stretch_Energy-OPLS-2005>
330.501342773438

> <r_mmod_Bend_Energy-OPLS-2005>
281.674163818359

> <r_mmod_Torsional_Energy-OPLS-2005>
210.216598510742

> <r_mmod_Improper_Torsional_Energy-OPLS-2005>
4.87754726409912

> <r_mmod_Van_der_Waal_Energy-OPLS-2005>
132.894073486328

> <r_mmod_Electrostatic_Energy-OPLS-2005>
-348.155517578125

> <r_mmod_Solvation_Energy-OPLS-2005>
-214.931076049805

> <b_mmod_Minimization_Converged-OPLS-2005>
0

> <r_mmod_RMS_Derivative-OPLS-2005>
0.254653602838516

$$$$
59
                    3D
 Structure written by MMmdl.
158166  0  0  1  0            999 V2000
  -30.6949  -14.4095   20.6082 C   0  0  0  0  0  0
  -30.4281  -12.2768   19.4103 C   0  0  0  0  0  0
  -29.4967  -12.5075   18.2019 C   0  0  0  0  0  0
  -28.0152  -12.3727   18.6099 C   0  0  0  0  0  0
  -27.6670  -13.1930   19.8815 C   0  0  2  0  0  0
  -28.7028  -12.9190   20.9950 C   0  0  0  0  0  0
  -25.2605  -13.8114   20.5625 C   0  0  0  0  0  0
  -24.1855  -13.0416   20.9176 C   0  0  0  0  0  0
  -24.6398  -11.6874   20.8735 C   0  0  0  0  0  0
  -23.9057  -10.4274   21.0405 C   0  0  0  0  0  0
  -24.3609   -9.4190   21.9183 C   0  0  0  0  0  0
  -23.6282   -8.2233   22.0752 C   0  0  0  0  0  0
  -22.4263   -8.0274   21.3548 C   0  0  0  0  0  0
  -21.9898   -9.0246   20.4653 C   0  0  0  0  0  0
  -22.7226  -10.2121   20.3064 C   0  0  0  0  0  0
  -21.6846   -6.0732   22.5278 C   0  0  0  0  0  0
  -21.4012   -6.5638   23.8218 C   0  0  0  0  0  0
  -21.3665   -5.6790   24.9178 C   0  0  0  0  0  0
  -21.6046   -4.3050   24.7231 C   0  0  0  0  0  0
  -21.8821   -3.8146   23.4351 C   0  0  0  0  0  0
  -21.9191   -4.6966   22.3410 C   0  0  0  0  0  0
  -22.7888  -13.5222   21.1845 C   0  0  0  0  0  0
  -22.1654   -4.2157   21.0983 F   0  0  0  0  0  0
  -21.5642   -3.4536   25.7740 F   0  0  0  0  0  0
  -30.0429  -13.2274   20.4608 N   0  0  0  0  0  0
  -26.3039  -12.9261   20.3358 N   0  0  0  0  0  0
  -25.9311  -11.6431   20.5738 N   0  0  0  0  0  0
  -22.0532  -12.8230   22.0418 N   0  0  0  0  0  0
  -25.4287  -15.1817   20.3914 N   0  0  0  0  0  0
  -31.7991  -14.6470   20.1064 O   0  0  0  0  0  0
  -21.6635   -6.8865   21.4234 O   0  0  0  0  0  0
  -22.3572  -14.5526   20.6679 O   0  0  0  0  0  0
  -24.6059  -31.8726   23.2145 C   0  0  0  0  0  0
  -25.8977  -32.4857   23.8430 C   0  0  1  0  0  0
  -27.2643  -27.4991   20.1048 C   0  0  0  0  0  0
  -25.5855  -33.8654   24.2369 N   0  0  0  0  0  0
  -23.3927  -30.4920   21.5529 C   0  0  2  0  0  0
  -24.8455  -28.9646   20.1182 C   0  0  0  0  0  0
  -22.7371  -29.4663   22.5036 C   0  0  0  0  0  0
  -18.0255  -28.1366   22.8506 C   0  0  0  0  0  0
  -24.1477  -36.7330   23.2639 C   0  0  0  0  0  0
  -25.9103  -30.8650   21.3519 C   0  0  0  0  0  0
  -25.9962  -29.5016   20.7057 C   0  0  0  0  0  0
  -27.2056  -28.7847   20.6908 C   0  0  0  0  0  0
  -26.0977  -26.9688   19.5138 C   0  0  0  0  0  0
  -24.8885  -27.6935   19.5169 C   0  0  0  0  0  0
  -23.5994  -29.8183   20.1684 C   0  0  0  0  0  0
  -25.4096  -36.3140   24.0352 C   0  0  1  0  0  0
  -20.5840  -28.3635   23.1347 C   0  0  2  0  0  0
  -20.6745  -26.9381   22.5423 C   0  0  0  0  0  0
  -19.5725  -26.6382   21.5217 C   0  0  0  0  0  0
  -18.1904  -26.7916   22.1631 C   0  0  0  0  0  0
  -19.1504  -28.8824   23.2923 C   0  0  0  0  0  0
  -18.9432  -30.1433   23.8928 C   0  0  0  0  0  0
  -17.6436  -30.6579   24.0568 C   0  0  0  0  0  0
  -25.9016  -34.9497   23.5164 C   0  0  0  0  0  0
  -16.5328  -29.9085   23.6318 C   0  0  0  0  0  0
  -16.7247  -28.6497   23.0351 C   0  0  0  0  0  0
  -26.4438  -31.6611   25.0726 C   0  0  0  0  0  0
  -25.3737  -31.3703   26.1504 C   0  0  0  0  0  0
  -27.0239  -30.3062   24.6035 C   0  0  0  0  0  0
  -27.6045  -32.4310   25.7462 C   0  0  0  0  0  0
  -27.5585  -37.1810   24.8462 C   0  0  0  0  0  0
  -21.4107  -29.3015   22.3773 N   0  0  0  0  0  0
  -26.4294  -37.3813   23.9416 N   0  0  0  0  0  0
  -24.6543  -31.0888   22.1004 N   0  0  0  0  0  0
  -23.4180  -28.8212   23.3056 O   0  0  0  0  0  0
  -28.4009  -26.7233   20.0640 O   0  0  0  0  0  0
  -26.5584  -34.8935   22.4730 O   0  0  0  0  0  0
  -23.5267  -32.1439   23.7578 O   0  0  0  0  0  0
  -28.8165  -18.6059   19.9206 C   0  0  0  0  0  0
  -31.0929  -18.8796   20.7455 C   0  0  0  0  0  0
  -28.8307  -17.2595   20.3283 C   0  0  0  0  0  0
  -31.1136  -17.5277   21.1408 C   0  0  0  0  0  0
  -29.9524  -19.4250   20.1069 C   0  0  0  0  0  0
  -29.9893  -16.7086   20.9091 C   0  0  0  0  0  0
  -29.9022  -20.8653   19.6795 C   0  0  0  0  0  0
  -31.2241  -22.9170   19.2949 C   0  0  0  0  0  0
  -30.8785  -23.7069   20.5674 C   0  0  0  0  0  0
  -29.5278  -27.0953   20.8636 C   0  0  0  0  0  0
  -30.1986  -25.8128   21.3523 C   0  0  0  0  0  0
  -29.9902  -15.3423   21.2651 N   0  0  0  0  0  0
  -31.0783  -21.4851   19.5251 N   0  0  0  0  0  0
  -28.8223  -21.4264   19.4746 O   0  0  0  0  0  0
  -30.6606  -25.0665   20.2351 O   0  0  0  0  0  0
  -31.4723  -12.3865   19.1112 H   0  0  0  0  0  0
  -30.3308  -11.2540   19.7813 H   0  0  0  0  0  0
  -29.7316  -11.7971   17.4076 H   0  0  0  0  0  0
  -29.6727  -13.4996   17.7838 H   0  0  0  0  0  0
  -27.8141  -11.3149   18.7842 H   0  0  0  0  0  0
  -27.3675  -12.6697   17.7844 H   0  0  0  0  0  0
  -27.7254  -14.2472   19.6113 H   0  0  0  0  0  0
  -28.6682  -11.8687   21.2899 H   0  0  0  0  0  0
  -28.4562  -13.4708   21.9036 H   0  0  0  0  0  0
  -25.2757   -9.5670   22.4746 H   0  0  0  0  0  0
  -24.0001   -7.4627   22.7460 H   0  0  0  0  0  0
  -21.0835   -8.8764   19.8953 H   0  0  0  0  0  0
  -22.3686  -10.9663   19.6179 H   0  0  0  0  0  0
  -21.1994   -7.6142   23.9723 H   0  0  0  0  0  0
  -21.1491   -6.0520   25.9080 H   0  0  0  0  0  0
  -22.0595   -2.7610   23.2853 H   0  0  0  0  0  0
  -22.4120  -11.9872   22.4796 H   0  0  0  0  0  0
  -21.1173  -13.1294   22.2640 H   0  0  0  0  0  0
  -24.6493  -15.8251   20.4711 H   0  0  0  0  0  0
  -26.2511  -15.6051   19.9829 H   0  0  0  0  0  0
  -26.7062  -32.5608   23.1222 H   0  0  0  0  0  0
  -25.0016  -33.9830   25.0519 H   0  0  0  0  0  0
  -22.6781  -31.3054   21.4137 H   0  0  0  0  0  0
  -23.3745  -35.9654   23.3304 H   0  0  0  0  0  0
  -24.3577  -36.8938   22.2050 H   0  0  0  0  0  0
  -23.7210  -37.6535   23.6643 H   0  0  0  0  0  0
  -26.0038  -31.6312   20.5807 H   0  0  0  0  0  0
  -26.8037  -30.9301   21.9614 H   0  0  0  0  0  0
  -28.0781  -29.2525   21.1208 H   0  0  0  0  0  0
  -26.1293  -25.9909   19.0543 H   0  0  0  0  0  0
  -24.0050  -27.2705   19.0585 H   0  0  0  0  0  0
  -23.6979  -30.5906   19.4050 H   0  0  0  0  0  0
  -22.7286  -29.2273   19.8786 H   0  0  0  0  0  0
  -25.1262  -36.2030   25.0846 H   0  0  0  0  0  0
  -20.9928  -28.3181   24.1469 H   0  0  0  0  0  0
  -20.5645  -26.2240   23.3597 H   0  0  0  0  0  0
  -21.6613  -26.7427   22.1211 H   0  0  0  0  0  0
  -19.6876  -25.6302   21.1227 H   0  0  0  0  0  0
  -19.6660  -27.3212   20.6764 H   0  0  0  0  0  0
  -17.4168  -26.6668   21.4036 H   0  0  0  0  0  0
  -18.0300  -26.0050   22.9020 H   0  0  0  0  0  0
  -19.7908  -30.7240   24.2313 H   0  0  0  0  0  0
  -17.4988  -31.6262   24.5155 H   0  0  0  0  0  0
  -15.5329  -30.2993   23.7622 H   0  0  0  0  0  0
  -15.8647  -28.0824   22.7054 H   0  0  0  0  0  0
  -24.5870  -30.7096   25.7846 H   0  0  0  0  0  0
  -24.8976  -32.2856   26.5030 H   0  0  0  0  0  0
  -25.8106  -30.8807   27.0216 H   0  0  0  0  0  0
  -26.2745  -29.6856   24.1106 H   0  0  0  0  0  0
  -27.4046  -29.7264   25.4455 H   0  0  0  0  0  0
  -27.8569  -30.4401   23.9130 H   0  0  0  0  0  0
  -27.2704  -33.3624   26.2049 H   0  0  0  0  0  0
  -28.3836  -32.6845   25.0261 H   0  0  0  0  0  0
  -28.0724  -31.8421   26.5361 H   0  0  0  0  0  0
  -28.2602  -38.0110   24.7532 H   0  0  0  0  0  0
  -28.1084  -36.2648   24.6259 H   0  0  0  0  0  0
  -27.2310  -37.1426   25.8867 H   0  0  0  0  0  0
  -20.9263  -29.8749   21.7009 H   0  0  0  0  0  0
  -26.0198  -38.2898   24.1427 H   0  0  0  0  0  0
  -27.9275  -19.0092   19.4555 H   0  0  0  0  0  0
  -31.9648  -19.4871   20.9423 H   0  0  0  0  0  0
  -27.9541  -16.6517   20.1640 H   0  0  0  0  0  0
  -31.9961  -17.1210   21.6152 H   0  0  0  0  0  0
  -32.2430  -23.1418   18.9807 H   0  0  0  0  0  0
  -30.5724  -23.2152   18.4727 H   0  0  0  0  0  0
  -31.6719  -23.6110   21.3105 H   0  0  0  0  0  0
  -29.9684  -23.3091   21.0191 H   0  0  0  0  0  0
  -30.2185  -27.7095   20.2848 H   0  0  0  0  0  0
  -29.2541  -27.6480   21.7614 H   0  0  0  0  0  0
  -29.4732  -25.2526   21.9455 H   0  0  0  0  0  0
  -31.0385  -26.0410   22.0097 H   0  0  0  0  0  0
  -29.1170  -14.9882   21.6266 H   0  0  0  0  0  0
  -31.9206  -20.9443   19.6578 H   0  0  0  0  0  0
  1 25  1  0  0  0
  1 30  2  0  0  0
  1 82  1  0  0  0
  2  3  1  0  0  0
  2 25  1  0  0  0
  2 86  1  0  0  0
  2 87  1  0  0  0
  3  4  1  0  0  0
  3 88  1  0  0  0
  3 89  1  0  0  0
  4  5  1  0  0  0
  4 90  1  0  0  0
  4 91  1  0  0  0
  5  6  1  0  0  0
  5 26  1  0  0  0
  5 92  1  0  0  0
  6 25  1  0  0  0
  6 93  1  0  0  0
  6 94  1  0  0  0
  7  8  2  0  0  0
  7 26  1  0  0  0
  7 29  1  0  0  0
  8  9  1  0  0  0
  8 22  1  0  0  0
  9 10  1  0  0  0
  9 27  2  0  0  0
 10 11  2  0  0  0
 10 15  1  0  0  0
 11 12  1  0  0  0
 11 95  1  0  0  0
 12 13  2  0  0  0
 12 96  1  0  0  0
 13 14  1  0  0  0
 13 31  1  0  0  0
 14 15  2  0  0  0
 14 97  1  0  0  0
 15 98  1  0  0  0
 16 17  2  0  0  0
 16 21  1  0  0  0
 16 31  1  0  0  0
 17 18  1  0  0  0
 17 99  1  0  0  0
 18 19  2  0  0  0
 18100  1  0  0  0
 19 20  1  0  0  0
 19 24  1  0  0  0
 20 21  2  0  0  0
 20101  1  0  0  0
 21 23  1  0  0  0
 22 28  1  0  0  0
 22 32  2  0  0  0
 26 27  1  0  0  0
 28102  1  0  0  0
 28103  1  0  0  0
 29104  1  0  0  0
 29105  1  0  0  0
 33 34  1  0  0  0
 33 66  1  0  0  0
 33 70  2  0  0  0
 34 36  1  0  0  0
 34 59  1  0  0  0
 34106  1  0  0  0
 35 44  2  0  0  0
 35 45  1  0  0  0
 35 68  1  0  0  0
 36 56  1  0  0  0
 36107  1  0  0  0
 37 39  1  0  0  0
 37 47  1  0  0  0
 37 66  1  0  0  0
 37108  1  0  0  0
 38 43  2  0  0  0
 38 46  1  0  0  0
 38 47  1  0  0  0
 39 64  1  0  0  0
 39 67  2  0  0  0
 40 52  1  0  0  0
 40 53  2  0  0  0
 40 58  1  0  0  0
 41109  1  0  0  0
 41110  1  0  0  0
 41111  1  0  0  0
 41 48  1  0  0  0
 42 43  1  0  0  0
 42 66  1  0  0  0
 42112  1  0  0  0
 42113  1  0  0  0
 43 44  1  0  0  0
 44114  1  0  0  0
 45 46  2  0  0  0
 45115  1  0  0  0
 46116  1  0  0  0
 47117  1  0  0  0
 47118  1  0  0  0
 48 56  1  0  0  0
 48 65  1  0  0  0
 48119  1  0  0  0
 49 50  1  0  0  0
 49 53  1  0  0  0
 49 64  1  0  0  0
 49120  1  0  0  0
 50 51  1  0  0  0
 50121  1  0  0  0
 50122  1  0  0  0
 51 52  1  0  0  0
 51123  1  0  0  0
 51124  1  0  0  0
 52125  1  0  0  0
 52126  1  0  0  0
 53 54  1  0  0  0
 54 55  2  0  0  0
 54127  1  0  0  0
 55 57  1  0  0  0
 55128  1  0  0  0
 56 69  2  0  0  0
 57 58  2  0  0  0
 57129  1  0  0  0
 58130  1  0  0  0
 59 60  1  0  0  0
 59 61  1  0  0  0
 59 62  1  0  0  0
 60131  1  0  0  0
 60132  1  0  0  0
 60133  1  0  0  0
 61134  1  0  0  0
 61135  1  0  0  0
 61136  1  0  0  0
 62137  1  0  0  0
 62138  1  0  0  0
 62139  1  0  0  0
 63 65  1  0  0  0
 63140  1  0  0  0
 63141  1  0  0  0
 63142  1  0  0  0
 64143  1  0  0  0
 65144  1  0  0  0
 68 80  1  0  0  0
 71 73  2  0  0  0
 71 75  1  0  0  0
 71145  1  0  0  0
 72 74  1  0  0  0
 72 75  2  0  0  0
 72146  1  0  0  0
 73 76  1  0  0  0
 73147  1  0  0  0
 74 76  2  0  0  0
 74148  1  0  0  0
 75 77  1  0  0  0
 76 82  1  0  0  0
 77 83  1  0  0  0
 77 84  2  0  0  0
 78 79  1  0  0  0
 78 83  1  0  0  0
 78149  1  0  0  0
 78150  1  0  0  0
 79 85  1  0  0  0
 79151  1  0  0  0
 79152  1  0  0  0
 80 81  1  0  0  0
 80153  1  0  0  0
 80154  1  0  0  0
 81 85  1  0  0  0
 81155  1  0  0  0
 81156  1  0  0  0
 82157  1  0  0  0
 83158  1  0  0  0
M  ISO  4   1 100  68 101  80 101  82 100
M  END
> <chiral flag>
0

> <version>
0

> <s_m_source_file>
/data/baiqing/PycharmProjects/Reinvent-master-3.2/result/LINK_invent/BTK/process_docking_weight1_custom_product_contain_oxygen_bond_distance_aromatic_linkinvent_7_9_3/rearranged_h_0000.sdf

> <i_m_source_file_index>
60

> <r_mmod_Potential_Energy-OPLS-2005>
-124.98690032959

> <r_mmod_Stretch_Energy-OPLS-2005>
31.4717254638672

> <r_mmod_Bend_Energy-OPLS-2005>
91.7322387695312

> <r_mmod_Torsional_Energy-OPLS-2005>
232.461669921875

> <r_mmod_Improper_Torsional_Energy-OPLS-2005>
5.90420341491699

> <r_mmod_Van_der_Waal_Energy-OPLS-2005>
167.020568847656

> <r_mmod_Electrostatic_Energy-OPLS-2005>
-415.232421875

> <r_mmod_Solvation_Energy-OPLS-2005>
-245.636306762695

> <b_mmod_Minimization_Converged-OPLS-2005>
0

> <r_mmod_RMS_Derivative-OPLS-2005>
1.73864471912384

$$$$
60
                    3D
 Structure written by MMmdl.
158167  0  0  1  0            999 V2000
  -30.5094  -15.0222   20.4070 C   0  0  0  0  0  0
  -30.4341  -12.6358   19.5070 C   0  0  0  0  0  0
  -29.5203  -12.5371   18.2650 C   0  0  0  0  0  0
  -28.0629  -12.2934   18.6944 C   0  0  0  0  0  0
  -27.6213  -13.2502   19.8320 C   0  0  2  0  0  0
  -28.6583  -13.3197   20.9715 C   0  0  0  0  0  0
  -25.2430  -13.8213   20.5735 C   0  0  0  0  0  0
  -24.1757  -13.0446   20.9257 C   0  0  0  0  0  0
  -24.6380  -11.6925   20.8768 C   0  0  0  0  0  0
  -23.9075  -10.4298   21.0418 C   0  0  0  0  0  0
  -24.3614   -9.4206   21.9202 C   0  0  0  0  0  0
  -23.6286   -8.2237   22.0763 C   0  0  0  0  0  0
  -22.4270   -8.0281   21.3539 C   0  0  0  0  0  0
  -21.9913   -9.0261   20.4639 C   0  0  0  0  0  0
  -22.7248  -10.2141   20.3059 C   0  0  0  0  0  0
  -21.6852   -6.0735   22.5277 C   0  0  0  0  0  0
  -21.4010   -6.5639   23.8211 C   0  0  0  0  0  0
  -21.3654   -5.6792   24.9177 C   0  0  0  0  0  0
  -21.6044   -4.3051   24.7232 C   0  0  0  0  0  0
  -21.8812   -3.8144   23.4351 C   0  0  0  0  0  0
  -21.9194   -4.6961   22.3405 C   0  0  0  0  0  0
  -22.7772  -13.5205   21.1908 C   0  0  0  0  0  0
  -22.1660   -4.2146   21.0980 F   0  0  0  0  0  0
  -21.5635   -3.4530   25.7745 F   0  0  0  0  0  0
  -29.9217  -13.7516   20.3612 N   0  0  0  0  0  0
  -26.2838  -12.9453   20.3220 N   0  0  0  0  0  0
  -25.9308  -11.6583   20.5742 N   0  0  0  0  0  0
  -22.0408  -12.8192   22.0442 N   0  0  0  0  0  0
  -25.4084  -15.1953   20.4164 N   0  0  0  0  0  0
  -31.7237  -15.0475   20.1704 O   0  0  0  0  0  0
  -21.6626   -6.8878   21.4236 O   0  0  0  0  0  0
  -22.3473  -14.5524   20.6752 O   0  0  0  0  0  0
  -24.6468  -31.8396   23.1839 C   0  0  0  0  0  0
  -25.9221  -32.4669   23.8248 C   0  0  1  0  0  0
  -27.2228  -27.0898   20.1461 C   0  0  0  0  0  0
  -25.5936  -33.8477   24.2177 N   0  0  0  0  0  0
  -23.4557  -30.4545   21.5298 C   0  0  2  0  0  0
  -24.9084  -28.8765   20.1024 C   0  0  0  0  0  0
  -22.7604  -29.4501   22.4825 C   0  0  0  0  0  0
  -18.0298  -28.1373   22.8467 C   0  0  0  0  0  0
  -24.1499  -36.7255   23.2644 C   0  0  0  0  0  0
  -26.0131  -30.6972   21.3903 C   0  0  0  0  0  0
  -26.0854  -29.3028   20.7305 C   0  0  0  0  0  0
  -27.2412  -28.4258   20.7365 C   0  0  0  0  0  0
  -26.0241  -26.7831   19.4673 C   0  0  0  0  0  0
  -24.8955  -27.6342   19.4504 C   0  0  0  0  0  0
  -23.6877  -29.7868   20.1474 C   0  0  0  0  0  0
  -25.4123  -36.3031   24.0321 C   0  0  1  0  0  0
  -20.5917  -28.3723   23.1207 C   0  0  2  0  0  0
  -20.6793  -26.9415   22.5387 C   0  0  0  0  0  0
  -19.5769  -26.6377   21.5181 C   0  0  0  0  0  0
  -18.1951  -26.7920   22.1595 C   0  0  0  0  0  0
  -19.1560  -28.8855   23.2836 C   0  0  0  0  0  0
  -18.9492  -30.1444   23.8877 C   0  0  0  0  0  0
  -17.6495  -30.6579   24.0542 C   0  0  0  0  0  0
  -25.9083  -34.9405   23.5077 C   0  0  0  0  0  0
  -16.5380  -29.9063   23.6317 C   0  0  0  0  0  0
  -16.7292  -28.6477   23.0350 C   0  0  0  0  0  0
  -26.4528  -31.6520   25.0690 C   0  0  0  0  0  0
  -25.3695  -31.3661   26.1369 C   0  0  0  0  0  0
  -27.0427  -30.2930   24.6276 C   0  0  0  0  0  0
  -27.6067  -32.4286   25.7470 C   0  0  0  0  0  0
  -27.5589  -37.1765   24.8455 C   0  0  0  0  0  0
  -21.4284  -29.3051   22.3603 N   0  0  0  0  0  0
  -26.4286  -37.3740   23.9418 N   0  0  0  0  0  0
  -24.7248  -31.0216   22.0891 N   0  0  0  0  0  0
  -23.4233  -28.8062   23.2994 O   0  0  0  0  0  0
  -28.2622  -26.0747   20.2281 O   0  0  0  0  0  0
  -26.5710  -34.8901   22.4684 O   0  0  0  0  0  0
  -23.5571  -32.1294   23.7017 O   0  0  0  0  0  0
  -31.8272  -19.4429   20.8597 C   0  0  0  0  0  0
  -31.4006  -18.1071   20.7360 C   0  0  0  0  0  0
  -29.1765  -18.9837   20.3855 C   0  0  0  0  0  0
  -30.9731  -20.5725   20.7837 C   0  0  0  0  0  0
  -30.0544  -17.7598   20.5176 C   0  0  0  0  0  0
  -29.5753  -20.4414   20.4861 C   0  0  0  0  0  0
  -31.6928  -21.8156   21.0695 C   0  0  0  0  0  0
  -33.2804  -23.5250   20.8841 C   0  0  0  0  0  0
  -32.5364  -23.6768   22.2119 C   0  0  0  0  0  0
  -28.0241  -24.5342   19.9598 C   0  0  0  0  0  0
  -28.9757  -23.1799   20.4083 C   0  0  0  0  0  0
  -32.6425  -22.3430   20.2958 N   0  0  0  0  0  0
  -31.5740  -22.5666   22.1693 N   0  3  0  0  0  0
  -29.7258  -16.2335   20.4848 N   0  0  0  0  0  0
  -28.6853  -21.6263   20.2815 O   0  0  0  0  0  0
  -31.4672  -12.7987   19.1960 H   0  0  0  0  0  0
  -30.4371  -11.6965   20.0619 H   0  0  0  0  0  0
  -29.8584  -11.7363   17.6053 H   0  0  0  0  0  0
  -29.5822  -13.4622   17.6875 H   0  0  0  0  0  0
  -28.0004  -11.2628   19.0479 H   0  0  0  0  0  0
  -27.3886  -12.3682   17.8401 H   0  0  0  0  0  0
  -27.5723  -14.2388   19.3762 H   0  0  0  0  0  0
  -28.7645  -12.3567   21.4748 H   0  0  0  0  0  0
  -28.3432  -14.0341   21.7344 H   0  0  0  0  0  0
  -25.2751   -9.5691   22.4792 H   0  0  0  0  0  0
  -23.9986   -7.4640   22.7490 H   0  0  0  0  0  0
  -21.0841   -8.8787   19.8944 H   0  0  0  0  0  0
  -22.3704  -10.9687   19.6166 H   0  0  0  0  0  0
  -21.1983   -7.6144   23.9717 H   0  0  0  0  0  0
  -21.1484   -6.0520   25.9086 H   0  0  0  0  0  0
  -22.0591   -2.7603   23.2854 H   0  0  0  0  0  0
  -22.3999  -11.9837   22.4813 H   0  0  0  0  0  0
  -21.1025  -13.1216   22.2626 H   0  0  0  0  0  0
  -24.6339  -15.8419   20.5289 H   0  0  0  0  0  0
  -26.2442  -15.6388   20.0643 H   0  0  0  0  0  0
  -26.7299  -32.5279   23.0983 H   0  0  0  0  0  0
  -24.9958  -33.9567   25.0236 H   0  0  0  0  0  0
  -22.7588  -31.2816   21.3761 H   0  0  0  0  0  0
  -23.3787  -35.9558   23.3230 H   0  0  0  0  0  0
  -24.3591  -36.8980   22.2078 H   0  0  0  0  0  0
  -23.7211  -37.6399   23.6746 H   0  0  0  0  0  0
  -26.1714  -31.4529   20.6190 H   0  0  0  0  0  0
  -26.8795  -30.7516   22.0374 H   0  0  0  0  0  0
  -28.1357  -28.7464   21.2532 H   0  0  0  0  0  0
  -25.9279  -25.8364   18.9565 H   0  0  0  0  0  0
  -24.0019  -27.3085   18.9333 H   0  0  0  0  0  0
  -23.8301  -30.5690   19.3994 H   0  0  0  0  0  0
  -22.7997  -29.2381   19.8319 H   0  0  0  0  0  0
  -25.1294  -36.1857   25.0807 H   0  0  0  0  0  0
  -20.9985  -28.3317   24.1332 H   0  0  0  0  0  0
  -20.5657  -26.2336   23.3617 H   0  0  0  0  0  0
  -21.6665  -26.7420   22.1203 H   0  0  0  0  0  0
  -19.6952  -25.6274   21.1229 H   0  0  0  0  0  0
  -19.6702  -27.3174   20.6703 H   0  0  0  0  0  0
  -17.4218  -26.6639   21.4002 H   0  0  0  0  0  0
  -18.0355  -26.0044   22.8976 H   0  0  0  0  0  0
  -19.7970  -30.7221   24.2269 H   0  0  0  0  0  0
  -17.5059  -31.6258   24.5153 H   0  0  0  0  0  0
  -15.5370  -30.2973   23.7660 H   0  0  0  0  0  0
  -15.8688  -28.0795   22.7084 H   0  0  0  0  0  0
  -24.5932  -30.6974   25.7640 H   0  0  0  0  0  0
  -24.8808  -32.2811   26.4738 H   0  0  0  0  0  0
  -25.7965  -30.8858   27.0187 H   0  0  0  0  0  0
  -26.3063  -29.6591   24.1345 H   0  0  0  0  0  0
  -27.4111  -29.7280   25.4848 H   0  0  0  0  0  0
  -27.8930  -30.4169   23.9575 H   0  0  0  0  0  0
  -27.2714  -33.3673   26.1901 H   0  0  0  0  0  0
  -28.3940  -32.6688   25.0310 H   0  0  0  0  0  0
  -28.0657  -31.8480   26.5478 H   0  0  0  0  0  0
  -28.2526  -38.0142   24.7592 H   0  0  0  0  0  0
  -28.1177  -36.2672   24.6184 H   0  0  0  0  0  0
  -27.2324  -37.1278   25.8857 H   0  0  0  0  0  0
  -20.9501  -29.8819   21.6823 H   0  0  0  0  0  0
  -26.0166  -38.2802   24.1446 H   0  0  0  0  0  0
  -32.8784  -19.5970   21.0603 H   0  0  0  0  0  0
  -32.1525  -17.3427   20.8508 H   0  0  0  0  0  0
  -28.1288  -18.7978   20.1946 H   0  0  0  0  0  0
  -34.3448  -23.3493   21.0472 H   0  0  0  0  0  0
  -33.1636  -24.4044   20.2493 H   0  0  0  0  0  0
  -32.0390  -24.6446   22.2926 H   0  0  0  0  0  0
  -33.2186  -23.5670   23.0575 H   0  0  0  0  0  0
  -27.0164  -24.3176   20.3145 H   0  0  0  0  0  0
  -27.9562  -24.4701   18.8723 H   0  0  0  0  0  0
  -29.1713  -23.3338   21.4689 H   0  0  0  0  0  0
  -29.9157  -23.3507   19.8877 H   0  0  0  0  0  0
  -32.8815  -21.9782   19.3811 H   0  0  0  0  0  0
  -30.9799  -22.3237   22.9542 H   0  0  0  0  0  0
  -28.7389  -16.0347   20.5429 H   0  0  0  0  0  0
  1 25  1  0  0  0
  1 30  2  0  0  0
  1 84  1  0  0  0
  2  3  1  0  0  0
  2 25  1  0  0  0
  2 86  1  0  0  0
  2 87  1  0  0  0
  3  4  1  0  0  0
  3 88  1  0  0  0
  3 89  1  0  0  0
  4  5  1  0  0  0
  4 90  1  0  0  0
  4 91  1  0  0  0
  5  6  1  0  0  0
  5 26  1  0  0  0
  5 92  1  0  0  0
  6 25  1  0  0  0
  6 93  1  0  0  0
  6 94  1  0  0  0
  7  8  2  0  0  0
  7 26  1  0  0  0
  7 29  1  0  0  0
  8  9  1  0  0  0
  8 22  1  0  0  0
  9 10  1  0  0  0
  9 27  2  0  0  0
 10 11  2  0  0  0
 10 15  1  0  0  0
 11 12  1  0  0  0
 11 95  1  0  0  0
 12 13  2  0  0  0
 12 96  1  0  0  0
 13 14  1  0  0  0
 13 31  1  0  0  0
 14 15  2  0  0  0
 14 97  1  0  0  0
 15 98  1  0  0  0
 16 17  2  0  0  0
 16 21  1  0  0  0
 16 31  1  0  0  0
 17 18  1  0  0  0
 17 99  1  0  0  0
 18 19  2  0  0  0
 18100  1  0  0  0
 19 20  1  0  0  0
 19 24  1  0  0  0
 20 21  2  0  0  0
 20101  1  0  0  0
 21 23  1  0  0  0
 22 28  1  0  0  0
 22 32  2  0  0  0
 26 27  1  0  0  0
 28102  1  0  0  0
 28103  1  0  0  0
 29104  1  0  0  0
 29105  1  0  0  0
 33 34  1  0  0  0
 33 66  1  0  0  0
 33 70  2  0  0  0
 34 36  1  0  0  0
 34 59  1  0  0  0
 34106  1  0  0  0
 35 44  2  0  0  0
 35 45  1  0  0  0
 35 68  1  0  0  0
 36 56  1  0  0  0
 36107  1  0  0  0
 37 39  1  0  0  0
 37 47  1  0  0  0
 37 66  1  0  0  0
 37108  1  0  0  0
 38 43  2  0  0  0
 38 46  1  0  0  0
 38 47  1  0  0  0
 39 64  1  0  0  0
 39 67  2  0  0  0
 40 52  1  0  0  0
 40 53  2  0  0  0
 40 58  1  0  0  0
 41109  1  0  0  0
 41110  1  0  0  0
 41111  1  0  0  0
 41 48  1  0  0  0
 42 43  1  0  0  0
 42 66  1  0  0  0
 42112  1  0  0  0
 42113  1  0  0  0
 43 44  1  0  0  0
 44114  1  0  0  0
 45 46  2  0  0  0
 45115  1  0  0  0
 46116  1  0  0  0
 47117  1  0  0  0
 47118  1  0  0  0
 48 56  1  0  0  0
 48 65  1  0  0  0
 48119  1  0  0  0
 49 50  1  0  0  0
 49 53  1  0  0  0
 49 64  1  0  0  0
 49120  1  0  0  0
 50 51  1  0  0  0
 50121  1  0  0  0
 50122  1  0  0  0
 51 52  1  0  0  0
 51123  1  0  0  0
 51124  1  0  0  0
 52125  1  0  0  0
 52126  1  0  0  0
 53 54  1  0  0  0
 54 55  2  0  0  0
 54127  1  0  0  0
 55 57  1  0  0  0
 55128  1  0  0  0
 56 69  2  0  0  0
 57 58  2  0  0  0
 57129  1  0  0  0
 58130  1  0  0  0
 59 60  1  0  0  0
 59 61  1  0  0  0
 59 62  1  0  0  0
 60131  1  0  0  0
 60132  1  0  0  0
 60133  1  0  0  0
 61134  1  0  0  0
 61135  1  0  0  0
 61136  1  0  0  0
 62137  1  0  0  0
 62138  1  0  0  0
 62139  1  0  0  0
 63 65  1  0  0  0
 63140  1  0  0  0
 63141  1  0  0  0
 63142  1  0  0  0
 64143  1  0  0  0
 65144  1  0  0  0
 68 80  1  0  0  0
 71 72  2  0  0  0
 71 74  1  0  0  0
 71145  1  0  0  0
 72 75  1  0  0  0
 72146  1  0  0  0
 73 75  2  0  0  0
 73 76  1  0  0  0
 73147  1  0  0  0
 74 76  2  0  0  0
 74 77  1  0  0  0
 75 84  1  0  0  0
 76 85  1  0  0  0
 77 82  1  0  0  0
 77 83  2  0  0  0
 78 79  1  0  0  0
 78 82  1  0  0  0
 78148  1  0  0  0
 78149  1  0  0  0
 79 83  1  0  0  0
 79150  1  0  0  0
 79151  1  0  0  0
 80 81  1  0  0  0
 80152  1  0  0  0
 80153  1  0  0  0
 81 85  1  0  0  0
 81154  1  0  0  0
 81155  1  0  0  0
 82156  1  0  0  0
 83157  1  0  0  0
 84158  1  0  0  0
M  CHG  1  83   1
M  ISO  4   1 100  68 101  80 101  84 100
M  END
> <chiral flag>
0

> <version>
0

> <s_m_source_file>
/data/baiqing/PycharmProjects/Reinvent-master-3.2/result/LINK_invent/BTK/process_docking_weight1_custom_product_contain_oxygen_bond_distance_aromatic_linkinvent_7_9_3/rearranged_h_0000.sdf

> <i_m_source_file_index>
61

> <r_mmod_Potential_Energy-OPLS-2005>
625.376159667969

> <r_mmod_Stretch_Energy-OPLS-2005>
340.149169921875

> <r_mmod_Bend_Energy-OPLS-2005>
347.775024414062

> <r_mmod_Torsional_Energy-OPLS-2005>
235.79020690918

> <r_mmod_Improper_Torsional_Energy-OPLS-2005>
5.76410102844238

> <r_mmod_Van_der_Waal_Energy-OPLS-2005>
138.692123413086

> <r_mmod_Electrostatic_Energy-OPLS-2005>
-270.2666015625

> <r_mmod_Solvation_Energy-OPLS-2005>
-415.726684570312

> <b_mmod_Minimization_Converged-OPLS-2005>
0

> <r_mmod_RMS_Derivative-OPLS-2005>
3.54742884635925

$$$$
61
                    3D
 Structure written by MMmdl.
171179  0  0  1  0            999 V2000
  -30.6970  -14.4032   20.6055 C   0  0  0  0  0  0
  -30.4279  -12.2759   19.4009 C   0  0  0  0  0  0
  -29.4930  -12.5141   18.1970 C   0  0  0  0  0  0
  -28.0119  -12.3798   18.6077 C   0  0  0  0  0  0
  -27.6681  -13.1950   19.8831 C   0  0  2  0  0  0
  -28.7065  -12.9144   20.9932 C   0  0  0  0  0  0
  -25.2608  -13.8131   20.5660 C   0  0  0  0  0  0
  -24.1848  -13.0425   20.9170 C   0  0  0  0  0  0
  -24.6388  -11.6887   20.8733 C   0  0  0  0  0  0
  -23.9056  -10.4281   21.0405 C   0  0  0  0  0  0
  -24.3610   -9.4198   21.9184 C   0  0  0  0  0  0
  -23.6287   -8.2240   22.0752 C   0  0  0  0  0  0
  -22.4269   -8.0276   21.3541 C   0  0  0  0  0  0
  -21.9904   -9.0249   20.4642 C   0  0  0  0  0  0
  -22.7235  -10.2130   20.3048 C   0  0  0  0  0  0
  -21.6851   -6.0740   22.5284 C   0  0  0  0  0  0
  -21.4011   -6.5640   23.8213 C   0  0  0  0  0  0
  -21.3652   -5.6792   24.9175 C   0  0  0  0  0  0
  -21.6046   -4.3057   24.7228 C   0  0  0  0  0  0
  -21.8820   -3.8147   23.4342 C   0  0  0  0  0  0
  -21.9192   -4.6967   22.3403 C   0  0  0  0  0  0
  -22.7872  -13.5238   21.1839 C   0  0  0  0  0  0
  -22.1662   -4.2153   21.0980 F   0  0  0  0  0  0
  -21.5628   -3.4533   25.7735 F   0  0  0  0  0  0
  -30.0454  -13.2233   20.4550 N   0  0  0  0  0  0
  -26.3045  -12.9285   20.3382 N   0  0  0  0  0  0
  -25.9309  -11.6455   20.5761 N   0  0  0  0  0  0
  -22.0509  -12.8228   22.0390 N   0  0  0  0  0  0
  -25.4339  -15.1839   20.4051 N   0  0  0  0  0  0
  -31.7957  -14.6533   20.0991 O   0  0  0  0  0  0
  -21.6630   -6.8875   21.4240 O   0  0  0  0  0  0
  -22.3561  -14.5548   20.6692 O   0  0  0  0  0  0
  -24.6125  -31.8694   23.2095 C   0  0  0  0  0  0
  -25.9014  -32.4837   23.8385 C   0  0  1  0  0  0
  -27.2371  -27.4583   20.0954 C   0  0  0  0  0  0
  -25.5865  -33.8624   24.2320 N   0  0  0  0  0  0
  -23.3979  -30.4925   21.5510 C   0  0  2  0  0  0
  -24.8427  -28.9606   20.1150 C   0  0  0  0  0  0
  -22.7393  -29.4657   22.4997 C   0  0  0  0  0  0
  -18.0257  -28.1376   22.8507 C   0  0  0  0  0  0
  -24.1478  -36.7318   23.2653 C   0  0  0  0  0  0
  -25.9238  -30.8446   21.3556 C   0  0  0  0  0  0
  -26.0021  -29.4803   20.7048 C   0  0  0  0  0  0
  -27.2019  -28.7383   20.6866 C   0  0  0  0  0  0
  -26.0592  -26.9421   19.5067 C   0  0  0  0  0  0
  -24.8660  -27.6885   19.5156 C   0  0  0  0  0  0
  -23.6035  -29.8249   20.1653 C   0  0  0  0  0  0
  -25.4100  -36.3119   24.0349 C   0  0  1  0  0  0
  -20.5852  -28.3643   23.1343 C   0  0  2  0  0  0
  -20.6749  -26.9375   22.5438 C   0  0  0  0  0  0
  -19.5728  -26.6370   21.5239 C   0  0  0  0  0  0
  -18.1901  -26.7932   22.1630 C   0  0  0  0  0  0
  -19.1513  -28.8823   23.2928 C   0  0  0  0  0  0
  -18.9449  -30.1444   23.8914 C   0  0  0  0  0  0
  -17.6461  -30.6589   24.0570 C   0  0  0  0  0  0
  -25.9016  -34.9487   23.5134 C   0  0  0  0  0  0
  -16.5344  -29.9100   23.6334 C   0  0  0  0  0  0
  -16.7252  -28.6523   23.0343 C   0  0  0  0  0  0
  -26.4437  -31.6617   25.0711 C   0  0  0  0  0  0
  -25.3705  -31.3736   26.1475 C   0  0  0  0  0  0
  -27.0279  -30.3077   24.6053 C   0  0  0  0  0  0
  -27.6009  -32.4345   25.7465 C   0  0  0  0  0  0
  -27.5576  -37.1809   24.8467 C   0  0  0  0  0  0
  -21.4123  -29.3025   22.3762 N   0  0  0  0  0  0
  -26.4286  -37.3802   23.9418 N   0  0  0  0  0  0
  -24.6630  -31.0828   22.0977 N   0  0  0  0  0  0
  -23.4196  -28.8184   23.3001 O   0  0  0  0  0  0
  -28.4225  -26.7610   20.0947 O   0  0  0  0  0  0
  -26.5607  -34.8942   22.4717 O   0  0  0  0  0  0
  -23.5321  -32.1409   23.7522 O   0  0  0  0  0  0
  -28.1932  -20.2946   18.0830 C   0  0  0  0  0  0
  -29.0177  -20.6810   19.1569 C   0  0  0  0  0  0
  -27.5955  -19.0193   18.0787 C   0  0  0  0  0  0
  -29.2484  -19.7903   20.2235 C   0  0  0  0  0  0
  -27.8281  -18.1281   19.1443 C   0  0  0  0  0  0
  -28.6572  -18.5100   20.2203 C   0  0  0  0  0  0
  -31.1468  -17.1167   22.4396 C   0  0  0  0  0  0
  -28.9200  -17.5477   21.3651 C   0  0  0  0  0  0
  -32.6086  -18.8790   23.4090 C   0  0  0  0  0  0
  -31.8109  -20.1163   23.8437 C   0  0  0  0  0  0
  -28.3309  -25.3563   20.3272 C   0  0  0  0  0  0
  -29.7243  -24.7986   20.6614 C   0  0  0  0  0  0
  -30.7831  -22.0547   22.9283 C   0  0  0  0  0  0
  -30.8534  -23.0157   21.7316 C   0  0  0  0  0  0
  -30.2609  -16.7730   21.2341 C   0  0  2  0  0  0
  -31.8990  -18.2135   22.3232 N   0  0  0  0  0  0
  -29.9705  -15.3430   21.2142 N   0  0  0  0  0  0
  -31.1092  -16.4331   23.4659 O   0  0  0  0  0  0
  -31.7184  -21.0020   22.7329 O   0  0  0  0  0  0
  -29.6222  -23.7117   21.5765 O   0  0  0  0  0  0
  -31.4712  -12.3872   19.1002 H   0  0  0  0  0  0
  -30.3330  -11.2523   19.7662 H   0  0  0  0  0  0
  -29.7250  -11.8113   17.3954 H   0  0  0  0  0  0
  -29.6683  -13.5108   17.7890 H   0  0  0  0  0  0
  -27.8077  -11.3220   18.7773 H   0  0  0  0  0  0
  -27.3657  -12.6832   17.7828 H   0  0  0  0  0  0
  -27.7300  -14.2508   19.6182 H   0  0  0  0  0  0
  -28.6692  -11.8630   21.2818 H   0  0  0  0  0  0
  -28.4683  -13.4639   21.9049 H   0  0  0  0  0  0
  -25.2759   -9.5680   22.4749 H   0  0  0  0  0  0
  -24.0002   -7.4628   22.7461 H   0  0  0  0  0  0
  -21.0843   -8.8765   19.8936 H   0  0  0  0  0  0
  -22.3701  -10.9666   19.6148 H   0  0  0  0  0  0
  -21.1997   -7.6146   23.9725 H   0  0  0  0  0  0
  -21.1475   -6.0515   25.9083 H   0  0  0  0  0  0
  -22.0602   -2.7608   23.2842 H   0  0  0  0  0  0
  -22.4115  -11.9886   22.4782 H   0  0  0  0  0  0
  -21.1125  -13.1257   22.2591 H   0  0  0  0  0  0
  -24.6637  -15.8370   20.4972 H   0  0  0  0  0  0
  -26.2807  -15.6143   20.0611 H   0  0  0  0  0  0
  -26.7091  -32.5540   23.1152 H   0  0  0  0  0  0
  -24.9979  -33.9780   25.0439 H   0  0  0  0  0  0
  -22.6859  -31.3083   21.4124 H   0  0  0  0  0  0
  -23.3745  -35.9649   23.3323 H   0  0  0  0  0  0
  -24.3570  -36.8911   22.2063 H   0  0  0  0  0  0
  -23.7224  -37.6525   23.6653 H   0  0  0  0  0  0
  -26.0267  -31.6098   20.5851 H   0  0  0  0  0  0
  -26.8159  -30.9011   21.9663 H   0  0  0  0  0  0
  -28.0989  -29.1397   21.1369 H   0  0  0  0  0  0
  -26.0525  -25.9718   19.0313 H   0  0  0  0  0  0
  -23.9736  -27.2795   19.0625 H   0  0  0  0  0  0
  -23.7067  -30.6002   19.4054 H   0  0  0  0  0  0
  -22.7286  -29.2432   19.8701 H   0  0  0  0  0  0
  -25.1271  -36.1988   25.0843 H   0  0  0  0  0  0
  -20.9935  -28.3191   24.1466 H   0  0  0  0  0  0
  -20.5651  -26.2238   23.3614 H   0  0  0  0  0  0
  -21.6614  -26.7410   22.1212 H   0  0  0  0  0  0
  -19.6880  -25.6287   21.1244 H   0  0  0  0  0  0
  -19.6685  -27.3208   20.6802 H   0  0  0  0  0  0
  -17.4177  -26.6713   21.4018 H   0  0  0  0  0  0
  -18.0250  -26.0058   22.9003 H   0  0  0  0  0  0
  -19.7937  -30.7260   24.2260 H   0  0  0  0  0  0
  -17.5026  -31.6270   24.5172 H   0  0  0  0  0  0
  -15.5350  -30.3020   23.7662 H   0  0  0  0  0  0
  -15.8643  -28.0873   22.7030 H   0  0  0  0  0  0
  -24.5838  -30.7124   25.7822 H   0  0  0  0  0  0
  -24.8946  -32.2909   26.4954 H   0  0  0  0  0  0
  -25.8050  -30.8872   27.0218 H   0  0  0  0  0  0
  -26.2820  -29.6837   24.1116 H   0  0  0  0  0  0
  -27.4104  -29.7301   25.4476 H   0  0  0  0  0  0
  -27.8611  -30.4432   23.9154 H   0  0  0  0  0  0
  -27.2611  -33.3631   26.2067 H   0  0  0  0  0  0
  -28.3795  -32.6938   25.0276 H   0  0  0  0  0  0
  -28.0705  -31.8465   26.5355 H   0  0  0  0  0  0
  -28.2600  -38.0098   24.7508 H   0  0  0  0  0  0
  -28.1054  -36.2630   24.6289 H   0  0  0  0  0  0
  -27.2298  -37.1452   25.8870 H   0  0  0  0  0  0
  -20.9264  -29.8796   21.7038 H   0  0  0  0  0  0
  -26.0180  -38.2882   24.1432 H   0  0  0  0  0  0
  -28.0182  -20.9768   17.2622 H   0  0  0  0  0  0
  -29.4738  -21.6612   19.1609 H   0  0  0  0  0  0
  -26.9588  -18.7237   17.2562 H   0  0  0  0  0  0
  -29.8844  -20.0922   21.0431 H   0  0  0  0  0  0
  -27.3680  -17.1506   19.1265 H   0  0  0  0  0  0
  -28.0741  -16.8612   21.4282 H   0  0  0  0  0  0
  -28.8671  -18.1182   22.2949 H   0  0  0  0  0  0
  -32.7614  -18.2126   24.2603 H   0  0  0  0  0  0
  -33.5999  -19.1693   23.0600 H   0  0  0  0  0  0
  -32.3034  -20.6152   24.6792 H   0  0  0  0  0  0
  -30.8171  -19.8153   24.1816 H   0  0  0  0  0  0
  -27.6620  -25.1788   21.1716 H   0  0  0  0  0  0
  -27.9199  -24.8327   19.4641 H   0  0  0  0  0  0
  -30.3292  -25.5764   21.1299 H   0  0  0  0  0  0
  -30.2328  -24.5032   19.7427 H   0  0  0  0  0  0
  -29.7830  -21.6248   23.0024 H   0  0  0  0  0  0
  -30.9769  -22.5922   23.8584 H   0  0  0  0  0  0
  -31.0411  -22.4533   20.8163 H   0  0  0  0  0  0
  -31.6903  -23.7033   21.8639 H   0  0  0  0  0  0
  -30.7742  -17.0572   20.3122 H   0  0  0  0  0  0
  -31.8682  -18.7113   21.4432 H   0  0  0  0  0  0
  -29.1086  -15.0441   21.6404 H   0  0  0  0  0  0
  1 25  1  0  0  0
  1 30  2  0  0  0
  1 87  1  0  0  0
  2  3  1  0  0  0
  2 25  1  0  0  0
  2 91  1  0  0  0
  2 92  1  0  0  0
  3  4  1  0  0  0
  3 93  1  0  0  0
  3 94  1  0  0  0
  4  5  1  0  0  0
  4 95  1  0  0  0
  4 96  1  0  0  0
  5  6  1  0  0  0
  5 26  1  0  0  0
  5 97  1  0  0  0
  6 25  1  0  0  0
  6 98  1  0  0  0
  6 99  1  0  0  0
  7  8  2  0  0  0
  7 26  1  0  0  0
  7 29  1  0  0  0
  8  9  1  0  0  0
  8 22  1  0  0  0
  9 10  1  0  0  0
  9 27  2  0  0  0
 10 11  2  0  0  0
 10 15  1  0  0  0
 11 12  1  0  0  0
 11100  1  0  0  0
 12 13  2  0  0  0
 12101  1  0  0  0
 13 14  1  0  0  0
 13 31  1  0  0  0
 14 15  2  0  0  0
 14102  1  0  0  0
 15103  1  0  0  0
 16 17  2  0  0  0
 16 21  1  0  0  0
 16 31  1  0  0  0
 17 18  1  0  0  0
 17104  1  0  0  0
 18 19  2  0  0  0
 18105  1  0  0  0
 19 20  1  0  0  0
 19 24  1  0  0  0
 20 21  2  0  0  0
 20106  1  0  0  0
 21 23  1  0  0  0
 22 28  1  0  0  0
 22 32  2  0  0  0
 26 27  1  0  0  0
 28107  1  0  0  0
 28108  1  0  0  0
 29109  1  0  0  0
 29110  1  0  0  0
 33 34  1  0  0  0
 33 66  1  0  0  0
 33 70  2  0  0  0
 34 36  1  0  0  0
 34 59  1  0  0  0
 34111  1  0  0  0
 35 44  2  0  0  0
 35 45  1  0  0  0
 35 68  1  0  0  0
 36 56  1  0  0  0
 36112  1  0  0  0
 37 39  1  0  0  0
 37 47  1  0  0  0
 37 66  1  0  0  0
 37113  1  0  0  0
 38 43  2  0  0  0
 38 46  1  0  0  0
 38 47  1  0  0  0
 39 64  1  0  0  0
 39 67  2  0  0  0
 40 52  1  0  0  0
 40 53  2  0  0  0
 40 58  1  0  0  0
 41114  1  0  0  0
 41115  1  0  0  0
 41116  1  0  0  0
 41 48  1  0  0  0
 42 43  1  0  0  0
 42 66  1  0  0  0
 42117  1  0  0  0
 42118  1  0  0  0
 43 44  1  0  0  0
 44119  1  0  0  0
 45 46  2  0  0  0
 45120  1  0  0  0
 46121  1  0  0  0
 47122  1  0  0  0
 47123  1  0  0  0
 48 56  1  0  0  0
 48 65  1  0  0  0
 48124  1  0  0  0
 49 50  1  0  0  0
 49 53  1  0  0  0
 49 64  1  0  0  0
 49125  1  0  0  0
 50 51  1  0  0  0
 50126  1  0  0  0
 50127  1  0  0  0
 51 52  1  0  0  0
 51128  1  0  0  0
 51129  1  0  0  0
 52130  1  0  0  0
 52131  1  0  0  0
 53 54  1  0  0  0
 54 55  2  0  0  0
 54132  1  0  0  0
 55 57  1  0  0  0
 55133  1  0  0  0
 56 69  2  0  0  0
 57 58  2  0  0  0
 57134  1  0  0  0
 58135  1  0  0  0
 59 60  1  0  0  0
 59 61  1  0  0  0
 59 62  1  0  0  0
 60136  1  0  0  0
 60137  1  0  0  0
 60138  1  0  0  0
 61139  1  0  0  0
 61140  1  0  0  0
 61141  1  0  0  0
 62142  1  0  0  0
 62143  1  0  0  0
 62144  1  0  0  0
 63 65  1  0  0  0
 63145  1  0  0  0
 63146  1  0  0  0
 63147  1  0  0  0
 64148  1  0  0  0
 65149  1  0  0  0
 68 81  1  0  0  0
 71 72  2  0  0  0
 71 73  1  0  0  0
 71150  1  0  0  0
 72 74  1  0  0  0
 72151  1  0  0  0
 73 75  2  0  0  0
 73152  1  0  0  0
 74 76  2  0  0  0
 74153  1  0  0  0
 75 76  1  0  0  0
 75154  1  0  0  0
 76 78  1  0  0  0
 77 85  1  0  0  0
 77 86  1  0  0  0
 77 88  2  0  0  0
 78155  1  0  0  0
 78156  1  0  0  0
 78 85  1  0  0  0
 79 80  1  0  0  0
 79 86  1  0  0  0
 79157  1  0  0  0
 79158  1  0  0  0
 80 89  1  0  0  0
 80159  1  0  0  0
 80160  1  0  0  0
 81 82  1  0  0  0
 81161  1  0  0  0
 81162  1  0  0  0
 82 90  1  0  0  0
 82163  1  0  0  0
 82164  1  0  0  0
 83 84  1  0  0  0
 83 89  1  0  0  0
 83165  1  0  0  0
 83166  1  0  0  0
 84 90  1  0  0  0
 84167  1  0  0  0
 84168  1  0  0  0
 85 87  1  0  0  0
 85169  1  0  0  0
 86170  1  0  0  0
 87171  1  0  0  0
M  ISO  4   1 100  68 101  81 101  87 100
M  END
> <chiral flag>
0

> <version>
0

> <s_m_source_file>
/data/baiqing/PycharmProjects/Reinvent-master-3.2/result/LINK_invent/BTK/process_docking_weight1_custom_product_contain_oxygen_bond_distance_aromatic_linkinvent_7_9_3/rearranged_h_0000.sdf

> <i_m_source_file_index>
62

> <r_mmod_Potential_Energy-OPLS-2005>
-246.382080078125

> <r_mmod_Stretch_Energy-OPLS-2005>
32.3878631591797

> <r_mmod_Bend_Energy-OPLS-2005>
86.9675674438477

> <r_mmod_Torsional_Energy-OPLS-2005>
226.734710693359

> <r_mmod_Improper_Torsional_Energy-OPLS-2005>
4.33830070495605

> <r_mmod_Van_der_Waal_Energy-OPLS-2005>
146.354385375977

> <r_mmod_Electrostatic_Energy-OPLS-2005>
-516.51513671875

> <r_mmod_Solvation_Energy-OPLS-2005>
-235.284790039062

> <b_mmod_Minimization_Converged-OPLS-2005>
0

> <r_mmod_RMS_Derivative-OPLS-2005>
1.69089245796204

$$$$
62
                    3D
 Structure written by MMmdl.
145153  0  0  1  0            999 V2000
  -30.2138  -15.9659   20.3206 C   0  0  0  0  0  0
  -30.3867  -13.3358   19.5420 C   0  0  0  0  0  0
  -29.5546  -12.7452   18.3590 C   0  0  0  0  0  0
  -28.1593  -12.3148   18.8224 C   0  0  0  0  0  0
  -27.5832  -13.3459   19.8128 C   0  0  2  0  0  0
  -28.5764  -13.8296   20.9079 C   0  0  0  0  0  0
  -25.2259  -13.8350   20.5861 C   0  0  0  0  0  0
  -24.1683  -13.0443   20.9308 C   0  0  0  0  0  0
  -24.6445  -11.6973   20.8775 C   0  0  0  0  0  0
  -23.9152  -10.4306   21.0394 C   0  0  0  0  0  0
  -24.3673   -9.4218   21.9181 C   0  0  0  0  0  0
  -23.6324   -8.2264   22.0759 C   0  0  0  0  0  0
  -22.4303   -8.0312   21.3551 C   0  0  0  0  0  0
  -21.9952   -9.0288   20.4651 C   0  0  0  0  0  0
  -22.7308  -10.2150   20.3056 C   0  0  0  0  0  0
  -21.6868   -6.0754   22.5284 C   0  0  0  0  0  0
  -21.4027   -6.5653   23.8214 C   0  0  0  0  0  0
  -21.3655   -5.6807   24.9177 C   0  0  0  0  0  0
  -21.6044   -4.3066   24.7223 C   0  0  0  0  0  0
  -21.8811   -3.8160   23.4343 C   0  0  0  0  0  0
  -21.9193   -4.6977   22.3400 C   0  0  0  0  0  0
  -22.7686  -13.5144   21.1935 C   0  0  0  0  0  0
  -22.1658   -4.2164   21.0977 F   0  0  0  0  0  0
  -21.5617   -3.4549   25.7729 F   0  0  0  0  0  0
  -29.6881  -14.5570   20.2200 N   0  0  0  0  0  0
  -26.2756  -12.9757   20.3322 N   0  0  0  0  0  0
  -25.9409  -11.6780   20.5706 N   0  0  0  0  0  0
  -22.0365  -12.8121   22.0496 N   0  0  0  0  0  0
  -25.3814  -15.2104   20.4334 N   0  0  0  0  0  0
  -31.4496  -15.7886   20.1794 O   0  0  0  0  0  0
  -21.6665   -6.8906   21.4248 O   0  0  0  0  0  0
  -22.3356  -14.5442   20.6775 O   0  0  0  0  0  0
  -24.7045  -31.7732   23.1349 C   0  0  0  0  0  0
  -25.9511  -32.4335   23.7978 C   0  0  1  0  0  0
  -27.2357  -26.4722   20.2270 C   0  0  0  0  0  0
  -25.6002  -33.8175   24.1832 N   0  0  0  0  0  0
  -23.5416  -30.3656   21.4931 C   0  0  2  0  0  0
  -25.0043  -28.6631   20.1206 C   0  0  0  0  0  0
  -22.7863  -29.4165   22.4644 C   0  0  0  0  0  0
  -18.0351  -28.1422   22.8444 C   0  0  0  0  0  0
  -24.1505  -36.7105   23.2667 C   0  0  0  0  0  0
  -26.1317  -30.4274   21.4381 C   0  0  0  0  0  0
  -26.1943  -28.9677   20.7906 C   0  0  0  0  0  0
  -27.2788  -27.9051   20.8133 C   0  0  0  0  0  0
  -26.0123  -26.4415   19.4913 C   0  0  0  0  0  0
  -24.9664  -27.4282   19.4472 C   0  0  0  0  0  0
  -23.8107  -29.6465   20.1359 C   0  0  0  0  0  0
  -25.4170  -36.2826   24.0262 C   0  0  1  0  0  0
  -20.5997  -28.3790   23.1100 C   0  0  2  0  0  0
  -20.6809  -26.9427   22.5407 C   0  0  0  0  0  0
  -19.5787  -26.6350   21.5220 C   0  0  0  0  0  0
  -18.1971  -26.7942   22.1622 C   0  0  0  0  0  0
  -19.1622  -28.8933   23.2746 C   0  0  0  0  0  0
  -18.9523  -30.1514   23.8802 C   0  0  0  0  0  0
  -17.6511  -30.6597   24.0537 C   0  0  0  0  0  0
  -25.9145  -34.9216   23.4903 C   0  0  0  0  0  0
  -16.5399  -29.9077   23.6352 C   0  0  0  0  0  0
  -16.7331  -28.6498   23.0372 C   0  0  0  0  0  0
  -26.4624  -31.6474   25.0699 C   0  0  0  0  0  0
  -25.3629  -31.3862   26.1269 C   0  0  0  0  0  0
  -27.0597  -30.2787   24.6775 C   0  0  0  0  0  0
  -27.6021  -32.4402   25.7535 C   0  0  0  0  0  0
  -27.5539  -37.1749   24.8493 C   0  0  0  0  0  0
  -21.4486  -29.2994   22.3398 N   0  0  0  0  0  0
  -26.4297  -37.3589   23.9357 N   0  0  0  0  0  0
  -24.8185  -30.8945   22.0735 N   0  0  0  0  0  0
  -23.4209  -28.7799   23.3083 O   0  0  0  0  0  0
  -28.1380  -25.1261   20.3217 O   0  0  0  0  0  0
  -26.5820  -34.8826   22.4545 O   0  0  0  0  0  0
  -23.6015  -32.0915   23.6151 O   0  0  0  0  0  0
  -27.9029  -23.1401   20.0686 C   0  0  0  0  0  0
  -28.6880  -18.5224   21.1400 C   0  0  0  0  0  0
  -30.1646  -18.9321   19.7341 C   0  0  0  0  0  0
  -28.1742  -20.2872   21.0131 C   0  0  0  0  0  0
  -29.3702  -20.5270   19.3925 C   0  0  0  0  0  0
  -29.5875  -17.4907   20.2448 N   0  0  0  0  0  0
  -28.7670  -21.6860   20.3752 N   0  0  0  0  0  0
  -26.7922  -22.9205   19.5784 O   0  0  0  0  0  0
  -31.3544  -13.6297   19.1351 H   0  0  0  0  0  0
  -30.6281  -12.5586   20.2701 H   0  0  0  0  0  0
  -30.0754  -11.9024   17.9036 H   0  0  0  0  0  0
  -29.4574  -13.5054   17.5823 H   0  0  0  0  0  0
  -28.2509  -11.3481   19.3194 H   0  0  0  0  0  0
  -27.4921  -12.1693   17.9720 H   0  0  0  0  0  0
  -27.3973  -14.2185   19.1846 H   0  0  0  0  0  0
  -28.9165  -13.0113   21.5447 H   0  0  0  0  0  0
  -28.0760  -14.5355   21.5726 H   0  0  0  0  0  0
  -25.2802   -9.5690   22.4774 H   0  0  0  0  0  0
  -24.0017   -7.4657   22.7496 H   0  0  0  0  0  0
  -21.0867   -8.8826   19.8964 H   0  0  0  0  0  0
  -22.3761  -10.9699   19.6181 H   0  0  0  0  0  0
  -21.2037   -7.6166   23.9722 H   0  0  0  0  0  0
  -21.1475   -6.0537   25.9076 H   0  0  0  0  0  0
  -22.0589   -2.7623   23.2846 H   0  0  0  0  0  0
  -22.4004  -11.9790   22.4877 H   0  0  0  0  0  0
  -21.0974  -13.1124   22.2708 H   0  0  0  0  0  0
  -24.6101  -15.8566   20.5586 H   0  0  0  0  0  0
  -26.2314  -15.6637   20.1222 H   0  0  0  0  0  0
  -26.7611  -32.4746   23.0697 H   0  0  0  0  0  0
  -25.0008  -33.9187   24.9888 H   0  0  0  0  0  0
  -22.8799  -31.2095   21.2862 H   0  0  0  0  0  0
  -23.3746  -35.9466   23.3385 H   0  0  0  0  0  0
  -24.3523  -36.8717   22.2067 H   0  0  0  0  0  0
  -23.7322  -37.6320   23.6726 H   0  0  0  0  0  0
  -26.3625  -31.1375   20.6429 H   0  0  0  0  0  0
  -26.9721  -30.5017   22.1141 H   0  0  0  0  0  0
  -28.1629  -28.1484   21.3853 H   0  0  0  0  0  0
  -25.8064  -25.5221   18.9608 H   0  0  0  0  0  0
  -24.0770  -27.1833   18.8834 H   0  0  0  0  0  0
  -24.0057  -30.4015   19.3738 H   0  0  0  0  0  0
  -22.9109  -29.1282   19.8020 H   0  0  0  0  0  0
  -25.1413  -36.1583   25.0759 H   0  0  0  0  0  0
  -21.0070  -28.3424   24.1228 H   0  0  0  0  0  0
  -20.5654  -26.2415   23.3686 H   0  0  0  0  0  0
  -21.6667  -26.7334   22.1234 H   0  0  0  0  0  0
  -19.6939  -25.6233   21.1312 H   0  0  0  0  0  0
  -19.6734  -27.3105   20.6709 H   0  0  0  0  0  0
  -17.4240  -26.6668   21.4032 H   0  0  0  0  0  0
  -18.0359  -26.0108   22.9041 H   0  0  0  0  0  0
  -19.7997  -30.7348   24.2137 H   0  0  0  0  0  0
  -17.5057  -31.6272   24.5148 H   0  0  0  0  0  0
  -15.5393  -30.2949   23.7725 H   0  0  0  0  0  0
  -15.8732  -28.0782   22.7152 H   0  0  0  0  0  0
  -24.5824  -30.7214   25.7554 H   0  0  0  0  0  0
  -24.8815  -32.3110   26.4462 H   0  0  0  0  0  0
  -25.7738  -30.9156   27.0209 H   0  0  0  0  0  0
  -26.3353  -29.6324   24.1806 H   0  0  0  0  0  0
  -27.3964  -29.7340   25.5607 H   0  0  0  0  0  0
  -27.9364  -30.3867   24.0386 H   0  0  0  0  0  0
  -27.2506  -33.3779   26.1858 H   0  0  0  0  0  0
  -28.3960  -32.6843   25.0465 H   0  0  0  0  0  0
  -28.0552  -31.8713   26.5665 H   0  0  0  0  0  0
  -28.2641  -37.9953   24.7355 H   0  0  0  0  0  0
  -28.0950  -36.2467   24.6588 H   0  0  0  0  0  0
  -27.2210  -37.1705   25.8888 H   0  0  0  0  0  0
  -20.9839  -29.8629   21.6411 H   0  0  0  0  0  0
  -26.0117  -38.2664   24.1233 H   0  0  0  0  0  0
  -27.7647  -17.9710   21.3247 H   0  0  0  0  0  0
  -29.1892  -18.4714   22.1087 H   0  0  0  0  0  0
  -31.0205  -19.1458   20.3786 H   0  0  0  0  0  0
  -30.6350  -18.6638   18.7864 H   0  0  0  0  0  0
  -27.9421  -20.5714   22.0406 H   0  0  0  0  0  0
  -27.1774  -20.2305   20.5665 H   0  0  0  0  0  0
  -28.6203  -20.3530   18.6155 H   0  0  0  0  0  0
  -30.1382  -21.0811   18.8509 H   0  0  0  0  0  0
  1 25  1  0  0  0
  1 30  2  0  0  0
  1 76  1  0  0  0
  2  3  1  0  0  0
  2 25  1  0  0  0
  2 79  1  0  0  0
  2 80  1  0  0  0
  3  4  1  0  0  0
  3 81  1  0  0  0
  3 82  1  0  0  0
  4  5  1  0  0  0
  4 83  1  0  0  0
  4 84  1  0  0  0
  5  6  1  0  0  0
  5 26  1  0  0  0
  5 85  1  0  0  0
  6 25  1  0  0  0
  6 86  1  0  0  0
  6 87  1  0  0  0
  7  8  2  0  0  0
  7 26  1  0  0  0
  7 29  1  0  0  0
  8  9  1  0  0  0
  8 22  1  0  0  0
  9 10  1  0  0  0
  9 27  2  0  0  0
 10 11  2  0  0  0
 10 15  1  0  0  0
 11 12  1  0  0  0
 11 88  1  0  0  0
 12 13  2  0  0  0
 12 89  1  0  0  0
 13 14  1  0  0  0
 13 31  1  0  0  0
 14 15  2  0  0  0
 14 90  1  0  0  0
 15 91  1  0  0  0
 16 17  2  0  0  0
 16 21  1  0  0  0
 16 31  1  0  0  0
 17 18  1  0  0  0
 17 92  1  0  0  0
 18 19  2  0  0  0
 18 93  1  0  0  0
 19 20  1  0  0  0
 19 24  1  0  0  0
 20 21  2  0  0  0
 20 94  1  0  0  0
 21 23  1  0  0  0
 22 28  1  0  0  0
 22 32  2  0  0  0
 26 27  1  0  0  0
 28 95  1  0  0  0
 28 96  1  0  0  0
 29 97  1  0  0  0
 29 98  1  0  0  0
 33 34  1  0  0  0
 33 66  1  0  0  0
 33 70  2  0  0  0
 34 36  1  0  0  0
 34 59  1  0  0  0
 34 99  1  0  0  0
 35 44  2  0  0  0
 35 45  1  0  0  0
 35 68  1  0  0  0
 36 56  1  0  0  0
 36100  1  0  0  0
 37 39  1  0  0  0
 37 47  1  0  0  0
 37 66  1  0  0  0
 37101  1  0  0  0
 38 43  2  0  0  0
 38 46  1  0  0  0
 38 47  1  0  0  0
 39 64  1  0  0  0
 39 67  2  0  0  0
 40 52  1  0  0  0
 40 53  2  0  0  0
 40 58  1  0  0  0
 41102  1  0  0  0
 41103  1  0  0  0
 41104  1  0  0  0
 41 48  1  0  0  0
 42 43  1  0  0  0
 42 66  1  0  0  0
 42105  1  0  0  0
 42106  1  0  0  0
 43 44  1  0  0  0
 44107  1  0  0  0
 45 46  2  0  0  0
 45108  1  0  0  0
 46109  1  0  0  0
 47110  1  0  0  0
 47111  1  0  0  0
 48 56  1  0  0  0
 48 65  1  0  0  0
 48112  1  0  0  0
 49 50  1  0  0  0
 49 53  1  0  0  0
 49 64  1  0  0  0
 49113  1  0  0  0
 50 51  1  0  0  0
 50114  1  0  0  0
 50115  1  0  0  0
 51 52  1  0  0  0
 51116  1  0  0  0
 51117  1  0  0  0
 52118  1  0  0  0
 52119  1  0  0  0
 53 54  1  0  0  0
 54 55  2  0  0  0
 54120  1  0  0  0
 55 57  1  0  0  0
 55121  1  0  0  0
 56 69  2  0  0  0
 57 58  2  0  0  0
 57122  1  0  0  0
 58123  1  0  0  0
 59 60  1  0  0  0
 59 61  1  0  0  0
 59 62  1  0  0  0
 60124  1  0  0  0
 60125  1  0  0  0
 60126  1  0  0  0
 61127  1  0  0  0
 61128  1  0  0  0
 61129  1  0  0  0
 62130  1  0  0  0
 62131  1  0  0  0
 62132  1  0  0  0
 63 65  1  0  0  0
 63133  1  0  0  0
 63134  1  0  0  0
 63135  1  0  0  0
 64136  1  0  0  0
 65137  1  0  0  0
 68 71  1  0  0  0
 71 77  1  0  0  0
 71 78  2  0  0  0
 72 74  1  0  0  0
 72 76  1  0  0  0
 72138  1  0  0  0
 72139  1  0  0  0
 73 75  1  0  0  0
 73 76  1  0  0  0
 73140  1  0  0  0
 73141  1  0  0  0
 74 77  1  0  0  0
 74142  1  0  0  0
 74143  1  0  0  0
 75 77  1  0  0  0
 75144  1  0  0  0
 75145  1  0  0  0
M  ISO  4   1 100  68 101  71 101  76 100
M  END
> <chiral flag>
0

> <version>
0

> <s_m_source_file>
/data/baiqing/PycharmProjects/Reinvent-master-3.2/result/LINK_invent/BTK/process_docking_weight1_custom_product_contain_oxygen_bond_distance_aromatic_linkinvent_7_9_3/rearranged_h_0000.sdf

> <i_m_source_file_index>
63

> <r_mmod_Potential_Energy-OPLS-2005>
4126.98583984375

> <r_mmod_Stretch_Energy-OPLS-2005>
1579.25390625

> <r_mmod_Bend_Energy-OPLS-2005>
1035.71228027344

> <r_mmod_Torsional_Energy-OPLS-2005>
414.657196044922

> <r_mmod_Improper_Torsional_Energy-OPLS-2005>
21.4799480438232

> <r_mmod_Van_der_Waal_Energy-OPLS-2005>
128.791137695312

> <r_mmod_Electrostatic_Energy-OPLS-2005>
-266.882019042969

> <r_mmod_Solvation_Energy-OPLS-2005>
-243.395050048828

> <b_mmod_Minimization_Converged-OPLS-2005>
0

> <r_mmod_RMS_Derivative-OPLS-2005>
1.58480596542358

$$$$
63
                    3D
 Structure written by MMmdl.
151158  0  0  1  0            999 V2000
  -30.6553  -14.5615   20.5164 C   0  0  0  0  0  0
  -30.4343  -12.3448   19.4472 C   0  0  0  0  0  0
  -29.5058  -12.5000   18.2222 C   0  0  0  0  0  0
  -28.0269  -12.3522   18.6318 C   0  0  0  0  0  0
  -27.6599  -13.2100   19.8722 C   0  0  2  0  0  0
  -28.7030  -13.0341   21.0011 C   0  0  0  0  0  0
  -25.2584  -13.8162   20.5687 C   0  0  0  0  0  0
  -24.1839  -13.0436   20.9184 C   0  0  0  0  0  0
  -24.6399  -11.6904   20.8735 C   0  0  0  0  0  0
  -23.9065  -10.4291   21.0404 C   0  0  0  0  0  0
  -24.3613   -9.4209   21.9185 C   0  0  0  0  0  0
  -23.6290   -8.2244   22.0754 C   0  0  0  0  0  0
  -22.4274   -8.0280   21.3544 C   0  0  0  0  0  0
  -21.9908   -9.0255   20.4647 C   0  0  0  0  0  0
  -22.7234  -10.2136   20.3058 C   0  0  0  0  0  0
  -21.6852   -6.0737   22.5281 C   0  0  0  0  0  0
  -21.4013   -6.5642   23.8214 C   0  0  0  0  0  0
  -21.3659   -5.6793   24.9176 C   0  0  0  0  0  0
  -21.6042   -4.3056   24.7226 C   0  0  0  0  0  0
  -21.8819   -3.8149   23.4347 C   0  0  0  0  0  0
  -21.9193   -4.6966   22.3403 C   0  0  0  0  0  0
  -22.7864  -13.5235   21.1847 C   0  0  0  0  0  0
  -22.1662   -4.2151   21.0980 F   0  0  0  0  0  0
  -21.5628   -3.4539   25.7739 F   0  0  0  0  0  0
  -30.0293  -13.3503   20.4461 N   0  0  0  0  0  0
  -26.3021  -12.9338   20.3357 N   0  0  0  0  0  0
  -25.9330  -11.6495   20.5769 N   0  0  0  0  0  0
  -22.0500  -12.8230   22.0403 N   0  0  0  0  0  0
  -25.4306  -15.1882   20.4098 N   0  0  0  0  0  0
  -31.7943  -14.7459   20.0817 O   0  0  0  0  0  0
  -21.6637   -6.8878   21.4242 O   0  0  0  0  0  0
  -22.3554  -14.5544   20.6697 O   0  0  0  0  0  0
  -24.6214  -31.8639   23.2075 C   0  0  0  0  0  0
  -25.9085  -32.4801   23.8384 C   0  0  1  0  0  0
  -27.2255  -27.3712   20.1033 C   0  0  0  0  0  0
  -25.5919  -33.8602   24.2308 N   0  0  0  0  0  0
  -23.4114  -30.4896   21.5492 C   0  0  2  0  0  0
  -24.8565  -28.9542   20.1093 C   0  0  0  0  0  0
  -22.7445  -29.4644   22.4958 C   0  0  0  0  0  0
  -18.0278  -28.1380   22.8491 C   0  0  0  0  0  0
  -24.1487  -36.7311   23.2637 C   0  0  0  0  0  0
  -25.9475  -30.8102   21.3710 C   0  0  0  0  0  0
  -26.0215  -29.4415   20.7145 C   0  0  0  0  0  0
  -27.2071  -28.6586   20.7081 C   0  0  0  0  0  0
  -26.0402  -26.9304   19.4662 C   0  0  0  0  0  0
  -24.8648  -27.7015   19.4786 C   0  0  0  0  0  0
  -23.6224  -29.8285   20.1616 C   0  0  0  0  0  0
  -25.4106  -36.3097   24.0333 C   0  0  1  0  0  0
  -20.5876  -28.3678   23.1297 C   0  0  2  0  0  0
  -20.6771  -26.9407   22.5414 C   0  0  0  0  0  0
  -19.5748  -26.6385   21.5213 C   0  0  0  0  0  0
  -18.1926  -26.7925   22.1623 C   0  0  0  0  0  0
  -19.1531  -28.8844   23.2893 C   0  0  0  0  0  0
  -18.9454  -30.1447   23.8907 C   0  0  0  0  0  0
  -17.6457  -30.6586   24.0563 C   0  0  0  0  0  0
  -25.9042  -34.9465   23.5117 C   0  0  0  0  0  0
  -16.5347  -29.9089   23.6325 C   0  0  0  0  0  0
  -16.7266  -28.6504   23.0347 C   0  0  0  0  0  0
  -26.4492  -31.6591   25.0732 C   0  0  0  0  0  0
  -25.3750  -31.3715   26.1476 C   0  0  0  0  0  0
  -27.0327  -30.3021   24.6144 C   0  0  0  0  0  0
  -27.6054  -32.4318   25.7506 C   0  0  0  0  0  0
  -27.5575  -37.1810   24.8463 C   0  0  0  0  0  0
  -21.4166  -29.3041   22.3700 N   0  0  0  0  0  0
  -26.4286  -37.3783   23.9409 N   0  0  0  0  0  0
  -24.6785  -31.0701   22.1001 N   0  0  0  0  0  0
  -23.4196  -28.8175   23.3006 O   0  0  0  0  0  0
  -28.3648  -26.5671   20.1596 O   0  0  0  0  0  0
  -26.5600  -34.8920   22.4678 O   0  0  0  0  0  0
  -23.5393  -32.1416   23.7435 O   0  0  0  0  0  0
  -29.9427  -17.0084   20.3659 C   0  0  0  0  0  0
  -30.2398  -18.1042   21.4380 C   0  0  0  0  0  0
  -28.2075  -25.1343   19.9110 C   0  0  0  0  0  0
  -29.2662  -24.1793   20.5573 C   0  0  0  0  0  0
  -29.9175  -20.3642   20.4052 C   0  0  0  0  0  0
  -29.8174  -21.8260   20.9840 C   0  0  0  0  0  0
  -29.8654  -15.6054   20.8638 N   0  0  0  0  0  0
  -29.4912  -19.3441   21.3363 O   0  0  0  0  0  0
  -29.0968  -22.7873   20.1739 O   0  0  0  0  0  0
  -31.4781  -12.4560   19.1472 H   0  0  0  0  0  0
  -30.3514  -11.3425   19.8699 H   0  0  0  0  0  0
  -29.7587  -11.7587   17.4631 H   0  0  0  0  0  0
  -29.6633  -13.4758   17.7598 H   0  0  0  0  0  0
  -27.8494  -11.2980   18.8472 H   0  0  0  0  0  0
  -27.3765  -12.6041   17.7933 H   0  0  0  0  0  0
  -27.6900  -14.2503   19.5482 H   0  0  0  0  0  0
  -28.6939  -12.0094   21.3754 H   0  0  0  0  0  0
  -28.4608  -13.6637   21.8586 H   0  0  0  0  0  0
  -25.2760   -9.5685   22.4755 H   0  0  0  0  0  0
  -24.0002   -7.4637   22.7472 H   0  0  0  0  0  0
  -21.0840   -8.8774   19.8954 H   0  0  0  0  0  0
  -22.3696  -10.9673   19.6164 H   0  0  0  0  0  0
  -21.2005   -7.6149   23.9717 H   0  0  0  0  0  0
  -21.1480   -6.0523   25.9077 H   0  0  0  0  0  0
  -22.0598   -2.7611   23.2847 H   0  0  0  0  0  0
  -22.4113  -11.9886   22.4785 H   0  0  0  0  0  0
  -21.1121  -13.1263   22.2609 H   0  0  0  0  0  0
  -24.6640  -15.8434   20.5187 H   0  0  0  0  0  0
  -26.2817  -15.6270   20.0812 H   0  0  0  0  0  0
  -26.7157  -32.5488   23.1142 H   0  0  0  0  0  0
  -25.0089  -33.9756   25.0468 H   0  0  0  0  0  0
  -22.7027  -31.3087   21.4110 H   0  0  0  0  0  0
  -23.3738  -35.9655   23.3305 H   0  0  0  0  0  0
  -24.3581  -36.8924   22.2051 H   0  0  0  0  0  0
  -23.7254  -37.6523   23.6652 H   0  0  0  0  0  0
  -26.0704  -31.5737   20.6015 H   0  0  0  0  0  0
  -26.8328  -30.8610   21.9934 H   0  0  0  0  0  0
  -28.1002  -29.0266   21.1935 H   0  0  0  0  0  0
  -25.9945  -25.9816   18.9532 H   0  0  0  0  0  0
  -23.9737  -27.3260   18.9946 H   0  0  0  0  0  0
  -23.7382  -30.6078   19.4073 H   0  0  0  0  0  0
  -22.7435  -29.2556   19.8597 H   0  0  0  0  0  0
  -25.1283  -36.1955   25.0825 H   0  0  0  0  0  0
  -20.9968  -28.3250   24.1416 H   0  0  0  0  0  0
  -20.5675  -26.2286   23.3609 H   0  0  0  0  0  0
  -21.6641  -26.7445   22.1203 H   0  0  0  0  0  0
  -19.6911  -25.6300   21.1234 H   0  0  0  0  0  0
  -19.6685  -27.3205   20.6752 H   0  0  0  0  0  0
  -17.4196  -26.6671   21.4025 H   0  0  0  0  0  0
  -18.0322  -26.0066   22.9016 H   0  0  0  0  0  0
  -19.7933  -30.7257   24.2281 H   0  0  0  0  0  0
  -17.5015  -31.6265   24.5168 H   0  0  0  0  0  0
  -15.5351  -30.2995   23.7644 H   0  0  0  0  0  0
  -15.8663  -28.0830   22.7056 H   0  0  0  0  0  0
  -24.5923  -30.7058   25.7824 H   0  0  0  0  0  0
  -24.8950  -32.2878   26.4917 H   0  0  0  0  0  0
  -25.8105  -30.8896   27.0238 H   0  0  0  0  0  0
  -26.2885  -29.6782   24.1174 H   0  0  0  0  0  0
  -27.4053  -29.7258   25.4624 H   0  0  0  0  0  0
  -27.8744  -30.4323   23.9335 H   0  0  0  0  0  0
  -27.2656  -33.3602   26.2106 H   0  0  0  0  0  0
  -28.3859  -32.6902   25.0339 H   0  0  0  0  0  0
  -28.0726  -31.8432   26.5410 H   0  0  0  0  0  0
  -28.2595  -38.0105   24.7496 H   0  0  0  0  0  0
  -28.1067  -36.2633   24.6297 H   0  0  0  0  0  0
  -27.2294  -37.1473   25.8868 H   0  0  0  0  0  0
  -20.9327  -29.8783   21.6941 H   0  0  0  0  0  0
  -26.0170  -38.2861   24.1406 H   0  0  0  0  0  0
  -30.6541  -17.0949   19.5428 H   0  0  0  0  0  0
  -28.9678  -17.2228   19.9266 H   0  0  0  0  0  0
  -31.3103  -18.3080   21.4926 H   0  0  0  0  0  0
  -29.9771  -17.6939   22.4136 H   0  0  0  0  0  0
  -27.2444  -24.7911   20.2910 H   0  0  0  0  0  0
  -28.1973  -24.9789   18.8314 H   0  0  0  0  0  0
  -29.1932  -24.2677   21.6418 H   0  0  0  0  0  0
  -30.2711  -24.5014   20.2815 H   0  0  0  0  0  0
  -30.9434  -20.1789   20.0829 H   0  0  0  0  0  0
  -29.3018  -20.2769   19.5094 H   0  0  0  0  0  0
  -30.8295  -22.1951   21.1586 H   0  0  0  0  0  0
  -29.3415  -21.7928   21.9649 H   0  0  0  0  0  0
  -28.9732  -15.3399   21.2544 H   0  0  0  0  0  0
  1 25  1  0  0  0
  1 30  2  0  0  0
  1 77  1  0  0  0
  2  3  1  0  0  0
  2 25  1  0  0  0
  2 80  1  0  0  0
  2 81  1  0  0  0
  3  4  1  0  0  0
  3 82  1  0  0  0
  3 83  1  0  0  0
  4  5  1  0  0  0
  4 84  1  0  0  0
  4 85  1  0  0  0
  5  6  1  0  0  0
  5 26  1  0  0  0
  5 86  1  0  0  0
  6 25  1  0  0  0
  6 87  1  0  0  0
  6 88  1  0  0  0
  7  8  2  0  0  0
  7 26  1  0  0  0
  7 29  1  0  0  0
  8  9  1  0  0  0
  8 22  1  0  0  0
  9 10  1  0  0  0
  9 27  2  0  0  0
 10 11  2  0  0  0
 10 15  1  0  0  0
 11 12  1  0  0  0
 11 89  1  0  0  0
 12 13  2  0  0  0
 12 90  1  0  0  0
 13 14  1  0  0  0
 13 31  1  0  0  0
 14 15  2  0  0  0
 14 91  1  0  0  0
 15 92  1  0  0  0
 16 17  2  0  0  0
 16 21  1  0  0  0
 16 31  1  0  0  0
 17 18  1  0  0  0
 17 93  1  0  0  0
 18 19  2  0  0  0
 18 94  1  0  0  0
 19 20  1  0  0  0
 19 24  1  0  0  0
 20 21  2  0  0  0
 20 95  1  0  0  0
 21 23  1  0  0  0
 22 28  1  0  0  0
 22 32  2  0  0  0
 26 27  1  0  0  0
 28 96  1  0  0  0
 28 97  1  0  0  0
 29 98  1  0  0  0
 29 99  1  0  0  0
 33 34  1  0  0  0
 33 66  1  0  0  0
 33 70  2  0  0  0
 34 36  1  0  0  0
 34 59  1  0  0  0
 34100  1  0  0  0
 35 44  2  0  0  0
 35 45  1  0  0  0
 35 68  1  0  0  0
 36 56  1  0  0  0
 36101  1  0  0  0
 37 39  1  0  0  0
 37 47  1  0  0  0
 37 66  1  0  0  0
 37102  1  0  0  0
 38 43  2  0  0  0
 38 46  1  0  0  0
 38 47  1  0  0  0
 39 64  1  0  0  0
 39 67  2  0  0  0
 40 52  1  0  0  0
 40 53  2  0  0  0
 40 58  1  0  0  0
 41103  1  0  0  0
 41104  1  0  0  0
 41105  1  0  0  0
 41 48  1  0  0  0
 42 43  1  0  0  0
 42 66  1  0  0  0
 42106  1  0  0  0
 42107  1  0  0  0
 43 44  1  0  0  0
 44108  1  0  0  0
 45 46  2  0  0  0
 45109  1  0  0  0
 46110  1  0  0  0
 47111  1  0  0  0
 47112  1  0  0  0
 48 56  1  0  0  0
 48 65  1  0  0  0
 48113  1  0  0  0
 49 50  1  0  0  0
 49 53  1  0  0  0
 49 64  1  0  0  0
 49114  1  0  0  0
 50 51  1  0  0  0
 50115  1  0  0  0
 50116  1  0  0  0
 51 52  1  0  0  0
 51117  1  0  0  0
 51118  1  0  0  0
 52119  1  0  0  0
 52120  1  0  0  0
 53 54  1  0  0  0
 54 55  2  0  0  0
 54121  1  0  0  0
 55 57  1  0  0  0
 55122  1  0  0  0
 56 69  2  0  0  0
 57 58  2  0  0  0
 57123  1  0  0  0
 58124  1  0  0  0
 59 60  1  0  0  0
 59 61  1  0  0  0
 59 62  1  0  0  0
 60125  1  0  0  0
 60126  1  0  0  0
 60127  1  0  0  0
 61128  1  0  0  0
 61129  1  0  0  0
 61130  1  0  0  0
 62131  1  0  0  0
 62132  1  0  0  0
 62133  1  0  0  0
 63 65  1  0  0  0
 63134  1  0  0  0
 63135  1  0  0  0
 63136  1  0  0  0
 64137  1  0  0  0
 65138  1  0  0  0
 68 73  1  0  0  0
 71 72  1  0  0  0
 71 77  1  0  0  0
 71139  1  0  0  0
 71140  1  0  0  0
 72 78  1  0  0  0
 72141  1  0  0  0
 72142  1  0  0  0
 73 74  1  0  0  0
 73143  1  0  0  0
 73144  1  0  0  0
 74 79  1  0  0  0
 74145  1  0  0  0
 74146  1  0  0  0
 75 76  1  0  0  0
 75 78  1  0  0  0
 75147  1  0  0  0
 75148  1  0  0  0
 76 79  1  0  0  0
 76149  1  0  0  0
 76150  1  0  0  0
 77151  1  0  0  0
M  ISO  4   1 100  68 101  73 101  77 100
M  END
> <chiral flag>
0

> <version>
0

> <s_m_source_file>
/data/baiqing/PycharmProjects/Reinvent-master-3.2/result/LINK_invent/BTK/process_docking_weight1_custom_product_contain_oxygen_bond_distance_aromatic_linkinvent_7_9_3/rearranged_h_0000.sdf

> <i_m_source_file_index>
64

> <r_mmod_Potential_Energy-OPLS-2005>
-33.6661491394043

> <r_mmod_Stretch_Energy-OPLS-2005>
54.1415176391602

> <r_mmod_Bend_Energy-OPLS-2005>
117.664672851562

> <r_mmod_Torsional_Energy-OPLS-2005>
224.785095214844

> <r_mmod_Improper_Torsional_Energy-OPLS-2005>
6.75608205795288

> <r_mmod_Van_der_Waal_Energy-OPLS-2005>
133.051956176758

> <r_mmod_Electrostatic_Energy-OPLS-2005>
-384.544891357422

> <r_mmod_Solvation_Energy-OPLS-2005>
-214.149185180664

> <b_mmod_Minimization_Converged-OPLS-2005>
0

> <r_mmod_RMS_Derivative-OPLS-2005>
0.78693014383316

$$$$
64
                    3D
 Structure written by MMmdl.
147155  0  0  1  0            999 V2000
  -30.4751  -15.1823   20.3805 C   0  0  0  0  0  0
  -30.4354  -12.7503   19.5208 C   0  0  0  0  0  0
  -29.5293  -12.5597   18.2802 C   0  0  0  0  0  0
  -28.0737  -12.3019   18.7063 C   0  0  0  0  0  0
  -27.6140  -13.2691   19.8262 C   0  0  2  0  0  0
  -28.6501  -13.4142   20.9608 C   0  0  0  0  0  0
  -25.2396  -13.8243   20.5741 C   0  0  0  0  0  0
  -24.1743  -13.0438   20.9256 C   0  0  0  0  0  0
  -24.6391  -11.6934   20.8765 C   0  0  0  0  0  0
  -23.9084  -10.4293   21.0410 C   0  0  0  0  0  0
  -24.3633   -9.4206   21.9185 C   0  0  0  0  0  0
  -23.6307   -8.2242   22.0750 C   0  0  0  0  0  0
  -22.4286   -8.0281   21.3544 C   0  0  0  0  0  0
  -21.9928   -9.0255   20.4643 C   0  0  0  0  0  0
  -22.7259  -10.2134   20.3055 C   0  0  0  0  0  0
  -21.6855   -6.0739   22.5281 C   0  0  0  0  0  0
  -21.4015   -6.5642   23.8214 C   0  0  0  0  0  0
  -21.3659   -5.6794   24.9175 C   0  0  0  0  0  0
  -21.6045   -4.3055   24.7226 C   0  0  0  0  0  0
  -21.8819   -3.8149   23.4346 C   0  0  0  0  0  0
  -21.9196   -4.6968   22.3404 C   0  0  0  0  0  0
  -22.7761  -13.5192   21.1912 C   0  0  0  0  0  0
  -22.1663   -4.2153   21.0981 F   0  0  0  0  0  0
  -21.5631   -3.4538   25.7738 F   0  0  0  0  0  0
  -29.8927  -13.8922   20.3375 N   0  0  0  0  0  0
  -26.2822  -12.9509   20.3229 N   0  0  0  0  0  0
  -25.9325  -11.6618   20.5732 N   0  0  0  0  0  0
  -22.0426  -12.8163   22.0464 N   0  0  0  0  0  0
  -25.4030  -15.1977   20.4173 N   0  0  0  0  0  0
  -31.6935  -15.1828   20.1597 O   0  0  0  0  0  0
  -21.6644   -6.8882   21.4241 O   0  0  0  0  0  0
  -22.3438  -14.5497   20.6759 O   0  0  0  0  0  0
  -24.6588  -31.8286   23.1761 C   0  0  0  0  0  0
  -25.9293  -32.4618   23.8201 C   0  0  1  0  0  0
  -27.2114  -26.9740   20.1745 C   0  0  0  0  0  0
  -25.5981  -33.8429   24.2108 N   0  0  0  0  0  0
  -23.4707  -30.4443   21.5237 C   0  0  2  0  0  0
  -24.9232  -28.8455   20.1093 C   0  0  0  0  0  0
  -22.7642  -29.4472   22.4790 C   0  0  0  0  0  0
  -18.0320  -28.1410   22.8475 C   0  0  0  0  0  0
  -24.1486  -36.7203   23.2645 C   0  0  0  0  0  0
  -26.0381  -30.6502   21.4006 C   0  0  0  0  0  0
  -26.1063  -29.2463   20.7427 C   0  0  0  0  0  0
  -27.2474  -28.3300   20.7549 C   0  0  0  0  0  0
  -26.0015  -26.7223   19.4877 C   0  0  0  0  0  0
  -24.8939  -27.6023   19.4623 C   0  0  0  0  0  0
  -23.7077  -29.7672   20.1472 C   0  0  0  0  0  0
  -25.4125  -36.2979   24.0306 C   0  0  1  0  0  0
  -20.5944  -28.3749   23.1193 C   0  0  2  0  0  0
  -20.6796  -26.9435   22.5401 C   0  0  0  0  0  0
  -19.5767  -26.6385   21.5213 C   0  0  0  0  0  0
  -18.1950  -26.7945   22.1627 C   0  0  0  0  0  0
  -19.1582  -28.8900   23.2826 C   0  0  0  0  0  0
  -18.9495  -30.1489   23.8861 C   0  0  0  0  0  0
  -17.6490  -30.6605   24.0555 C   0  0  0  0  0  0
  -25.9093  -34.9366   23.5024 C   0  0  0  0  0  0
  -16.5377  -29.9094   23.6348 C   0  0  0  0  0  0
  -16.7304  -28.6512   23.0375 C   0  0  0  0  0  0
  -26.4558  -31.6552   25.0712 C   0  0  0  0  0  0
  -25.3702  -31.3799   26.1381 C   0  0  0  0  0  0
  -27.0443  -30.2921   24.6420 C   0  0  0  0  0  0
  -27.6054  -32.4355   25.7514 C   0  0  0  0  0  0
  -27.5563  -37.1755   24.8468 C   0  0  0  0  0  0
  -21.4319  -29.3048   22.3543 N   0  0  0  0  0  0
  -26.4267  -37.3717   23.9420 N   0  0  0  0  0  0
  -24.7433  -30.9997   22.0872 N   0  0  0  0  0  0
  -23.4214  -28.8031   23.3007 O   0  0  0  0  0  0
  -28.1962  -25.8671   20.2637 O   0  0  0  0  0  0
  -26.5687  -34.8895   22.4609 O   0  0  0  0  0  0
  -23.5671  -32.1232   23.6885 O   0  0  0  0  0  0
  -28.2774  -20.1783   20.9076 C   0  0  0  0  0  0
  -30.1456  -20.7584   19.6963 C   0  0  0  0  0  0
  -27.8545  -21.6057   20.8710 C   0  0  0  0  0  0
  -29.7223  -22.1796   19.6571 C   0  0  0  0  0  0
  -29.4725  -19.6132   20.3050 C   0  0  0  0  0  0
  -28.5298  -22.7500   20.2537 C   0  0  0  0  0  0
  -30.1825  -18.0265   20.3361 C   0  0  0  0  0  0
  -27.8040  -24.3101   20.0193 C   0  0  0  0  0  0
  -29.7353  -16.4509   20.4631 N   0  0  0  0  0  0
  -31.4594  -12.9371   19.1947 H   0  0  0  0  0  0
  -30.4796  -11.8355   20.1142 H   0  0  0  0  0  0
  -29.8932  -11.7354   17.6652 H   0  0  0  0  0  0
  -29.5747  -13.4531   17.6556 H   0  0  0  0  0  0
  -28.0144  -11.2735   19.0644 H   0  0  0  0  0  0
  -27.4061  -12.3652   17.8463 H   0  0  0  0  0  0
  -27.5393  -14.2436   19.3423 H   0  0  0  0  0  0
  -28.7973  -12.4727   21.4919 H   0  0  0  0  0  0
  -28.3051  -14.1392   21.6999 H   0  0  0  0  0  0
  -25.2775   -9.5686   22.4766 H   0  0  0  0  0  0
  -24.0018   -7.4629   22.7465 H   0  0  0  0  0  0
  -21.0861   -8.8777   19.8943 H   0  0  0  0  0  0
  -22.3716  -10.9677   19.6168 H   0  0  0  0  0  0
  -21.2001   -7.6149   23.9719 H   0  0  0  0  0  0
  -21.1482   -6.0522   25.9080 H   0  0  0  0  0  0
  -22.0598   -2.7611   23.2844 H   0  0  0  0  0  0
  -22.4066  -11.9826   22.4836 H   0  0  0  0  0  0
  -21.1039  -13.1162   22.2684 H   0  0  0  0  0  0
  -24.6307  -15.8462   20.5268 H   0  0  0  0  0  0
  -26.2426  -15.6401   20.0678 H   0  0  0  0  0  0
  -26.7360  -32.5170   23.0915 H   0  0  0  0  0  0
  -25.0108  -33.9519   25.0247 H   0  0  0  0  0  0
  -22.7817  -31.2753   21.3586 H   0  0  0  0  0  0
  -23.3765  -35.9516   23.3288 H   0  0  0  0  0  0
  -24.3561  -36.8862   22.2063 H   0  0  0  0  0  0
  -23.7225  -37.6381   23.6704 H   0  0  0  0  0  0
  -26.2147  -31.3959   20.6243 H   0  0  0  0  0  0
  -26.8998  -30.7033   22.0539 H   0  0  0  0  0  0
  -28.1398  -28.6311   21.2848 H   0  0  0  0  0  0
  -25.8646  -25.7763   18.9864 H   0  0  0  0  0  0
  -23.9957  -27.2900   18.9472 H   0  0  0  0  0  0
  -23.8604  -30.5388   19.3918 H   0  0  0  0  0  0
  -22.8182  -29.2207   19.8291 H   0  0  0  0  0  0
  -25.1322  -36.1770   25.0795 H   0  0  0  0  0  0
  -21.0038  -28.3354   24.1314 H   0  0  0  0  0  0
  -20.5671  -26.2370   23.3639 H   0  0  0  0  0  0
  -21.6659  -26.7417   22.1202 H   0  0  0  0  0  0
  -19.6920  -25.6286   21.1269 H   0  0  0  0  0  0
  -19.6698  -27.3172   20.6723 H   0  0  0  0  0  0
  -17.4213  -26.6691   21.4036 H   0  0  0  0  0  0
  -18.0346  -26.0100   22.9037 H   0  0  0  0  0  0
  -19.7970  -30.7314   24.2214 H   0  0  0  0  0  0
  -17.5045  -31.6283   24.5161 H   0  0  0  0  0  0
  -15.5376  -30.2985   23.7697 H   0  0  0  0  0  0
  -15.8703  -28.0812   22.7124 H   0  0  0  0  0  0
  -24.5887  -30.7140   25.7706 H   0  0  0  0  0  0
  -24.8887  -32.3001   26.4697 H   0  0  0  0  0  0
  -25.7949  -30.9045   27.0232 H   0  0  0  0  0  0
  -26.3101  -29.6613   24.1393 H   0  0  0  0  0  0
  -27.3950  -29.7270   25.5066 H   0  0  0  0  0  0
  -27.9059  -30.4114   23.9849 H   0  0  0  0  0  0
  -27.2623  -33.3701   26.1969 H   0  0  0  0  0  0
  -28.3933  -32.6842   25.0392 H   0  0  0  0  0  0
  -28.0644  -31.8559   26.5535 H   0  0  0  0  0  0
  -28.2564  -38.0066   24.7527 H   0  0  0  0  0  0
  -28.1075  -36.2596   24.6281 H   0  0  0  0  0  0
  -27.2284  -37.1386   25.8872 H   0  0  0  0  0  0
  -20.9555  -29.8749   21.6692 H   0  0  0  0  0  0
  -26.0113  -38.2769   24.1454 H   0  0  0  0  0  0
  -27.6291  -19.4927   21.4361 H   0  0  0  0  0  0
  -31.0814  -20.5404   19.1999 H   0  0  0  0  0  0
  -26.9033  -21.8209   21.3381 H   0  0  0  0  0  0
  -30.3513  -22.8578   19.0974 H   0  0  0  0  0  0
  -30.9305  -18.1209   21.1241 H   0  0  0  0  0  0
  -30.7794  -18.0194   19.4234 H   0  0  0  0  0  0
  -26.8452  -24.2068   20.5276 H   0  0  0  0  0  0
  -27.5507  -24.2802   18.9596 H   0  0  0  0  0  0
  -28.7435  -16.3219   20.5965 H   0  0  0  0  0  0
  1 25  1  0  0  0
  1 30  2  0  0  0
  1 79  1  0  0  0
  2  3  1  0  0  0
  2 25  1  0  0  0
  2 80  1  0  0  0
  2 81  1  0  0  0
  3  4  1  0  0  0
  3 82  1  0  0  0
  3 83  1  0  0  0
  4  5  1  0  0  0
  4 84  1  0  0  0
  4 85  1  0  0  0
  5  6  1  0  0  0
  5 26  1  0  0  0
  5 86  1  0  0  0
  6 25  1  0  0  0
  6 87  1  0  0  0
  6 88  1  0  0  0
  7  8  2  0  0  0
  7 26  1  0  0  0
  7 29  1  0  0  0
  8  9  1  0  0  0
  8 22  1  0  0  0
  9 10  1  0  0  0
  9 27  2  0  0  0
 10 11  2  0  0  0
 10 15  1  0  0  0
 11 12  1  0  0  0
 11 89  1  0  0  0
 12 13  2  0  0  0
 12 90  1  0  0  0
 13 14  1  0  0  0
 13 31  1  0  0  0
 14 15  2  0  0  0
 14 91  1  0  0  0
 15 92  1  0  0  0
 16 17  2  0  0  0
 16 21  1  0  0  0
 16 31  1  0  0  0
 17 18  1  0  0  0
 17 93  1  0  0  0
 18 19  2  0  0  0
 18 94  1  0  0  0
 19 20  1  0  0  0
 19 24  1  0  0  0
 20 21  2  0  0  0
 20 95  1  0  0  0
 21 23  1  0  0  0
 22 28  1  0  0  0
 22 32  2  0  0  0
 26 27  1  0  0  0
 28 96  1  0  0  0
 28 97  1  0  0  0
 29 98  1  0  0  0
 29 99  1  0  0  0
 33 34  1  0  0  0
 33 66  1  0  0  0
 33 70  2  0  0  0
 34 36  1  0  0  0
 34 59  1  0  0  0
 34100  1  0  0  0
 35 44  2  0  0  0
 35 45  1  0  0  0
 35 68  1  0  0  0
 36 56  1  0  0  0
 36101  1  0  0  0
 37 39  1  0  0  0
 37 47  1  0  0  0
 37 66  1  0  0  0
 37102  1  0  0  0
 38 43  2  0  0  0
 38 46  1  0  0  0
 38 47  1  0  0  0
 39 64  1  0  0  0
 39 67  2  0  0  0
 40 52  1  0  0  0
 40 53  2  0  0  0
 40 58  1  0  0  0
 41103  1  0  0  0
 41104  1  0  0  0
 41105  1  0  0  0
 41 48  1  0  0  0
 42 43  1  0  0  0
 42 66  1  0  0  0
 42106  1  0  0  0
 42107  1  0  0  0
 43 44  1  0  0  0
 44108  1  0  0  0
 45 46  2  0  0  0
 45109  1  0  0  0
 46110  1  0  0  0
 47111  1  0  0  0
 47112  1  0  0  0
 48 56  1  0  0  0
 48 65  1  0  0  0
 48113  1  0  0  0
 49 50  1  0  0  0
 49 53  1  0  0  0
 49 64  1  0  0  0
 49114  1  0  0  0
 50 51  1  0  0  0
 50115  1  0  0  0
 50116  1  0  0  0
 51 52  1  0  0  0
 51117  1  0  0  0
 51118  1  0  0  0
 52119  1  0  0  0
 52120  1  0  0  0
 53 54  1  0  0  0
 54 55  2  0  0  0
 54121  1  0  0  0
 55 57  1  0  0  0
 55122  1  0  0  0
 56 69  2  0  0  0
 57 58  2  0  0  0
 57123  1  0  0  0
 58124  1  0  0  0
 59 60  1  0  0  0
 59 61  1  0  0  0
 59 62  1  0  0  0
 60125  1  0  0  0
 60126  1  0  0  0
 60127  1  0  0  0
 61128  1  0  0  0
 61129  1  0  0  0
 61130  1  0  0  0
 62131  1  0  0  0
 62132  1  0  0  0
 62133  1  0  0  0
 63 65  1  0  0  0
 63134  1  0  0  0
 63135  1  0  0  0
 63136  1  0  0  0
 64137  1  0  0  0
 65138  1  0  0  0
 68 78  1  0  0  0
 71 73  2  0  0  0
 71 75  1  0  0  0
 71139  1  0  0  0
 72 74  1  0  0  0
 72 75  2  0  0  0
 72140  1  0  0  0
 73 76  1  0  0  0
 73141  1  0  0  0
 74 76  2  0  0  0
 74142  1  0  0  0
 75 77  1  0  0  0
 76 78  1  0  0  0
 77 79  1  0  0  0
 77143  1  0  0  0
 77144  1  0  0  0
 78145  1  0  0  0
 78146  1  0  0  0
 79147  1  0  0  0
M  ISO  4   1 100  68 101  78 101  79 100
M  END
> <chiral flag>
0

> <version>
0

> <s_m_source_file>
/data/baiqing/PycharmProjects/Reinvent-master-3.2/result/LINK_invent/BTK/process_docking_weight1_custom_product_contain_oxygen_bond_distance_aromatic_linkinvent_7_9_3/rearranged_h_0000.sdf

> <i_m_source_file_index>
65

> <r_mmod_Potential_Energy-OPLS-2005>
1015.4599609375

> <r_mmod_Stretch_Energy-OPLS-2005>
443.456787109375

> <r_mmod_Bend_Energy-OPLS-2005>
422.297058105469

> <r_mmod_Torsional_Energy-OPLS-2005>
215.021911621094

> <r_mmod_Improper_Torsional_Energy-OPLS-2005>
7.18429374694824

> <r_mmod_Van_der_Waal_Energy-OPLS-2005>
133.087112426758

> <r_mmod_Electrostatic_Energy-OPLS-2005>
-379.332244873047

> <r_mmod_Solvation_Energy-OPLS-2005>
-213.699493408203

> <b_mmod_Minimization_Converged-OPLS-2005>
0

> <r_mmod_RMS_Derivative-OPLS-2005>
0.623550474643707

$$$$
65
                    3D
 Structure written by MMmdl.
164171  0  0  1  0            999 V2000
  -30.7663  -14.3582   20.6724 C   0  0  0  0  0  0
  -30.4329  -12.2643   19.3828 C   0  0  0  0  0  0
  -29.5063  -12.5193   18.1812 C   0  0  0  0  0  0
  -28.0223  -12.3857   18.5918 C   0  0  0  0  0  0
  -27.6705  -13.1942   19.8727 C   0  0  2  0  0  0
  -28.7010  -12.9028   20.9837 C   0  0  0  0  0  0
  -25.2629  -13.8101   20.5637 C   0  0  0  0  0  0
  -24.1858  -13.0378   20.9093 C   0  0  0  0  0  0
  -24.6402  -11.6853   20.8629 C   0  0  0  0  0  0
  -23.9057  -10.4256   21.0350 C   0  0  0  0  0  0
  -24.3623   -9.4177   21.9111 C   0  0  0  0  0  0
  -23.6287   -8.2223   22.0714 C   0  0  0  0  0  0
  -22.4264   -8.0263   21.3530 C   0  0  0  0  0  0
  -21.9904   -9.0217   20.4601 C   0  0  0  0  0  0
  -22.7237  -10.2083   20.2995 C   0  0  0  0  0  0
  -21.6839   -6.0726   22.5284 C   0  0  0  0  0  0
  -21.4013   -6.5626   23.8219 C   0  0  0  0  0  0
  -21.3672   -5.6777   24.9179 C   0  0  0  0  0  0
  -21.6061   -4.3042   24.7217 C   0  0  0  0  0  0
  -21.8834   -3.8130   23.4335 C   0  0  0  0  0  0
  -21.9204   -4.6960   22.3399 C   0  0  0  0  0  0
  -22.7888  -13.5165   21.1835 C   0  0  0  0  0  0
  -22.1670   -4.2156   21.0978 F   0  0  0  0  0  0
  -21.5649   -3.4532   25.7717 F   0  0  0  0  0  0
  -30.0368  -13.1887   20.4411 N   0  0  0  0  0  0
  -26.3054  -12.9268   20.3268 N   0  0  0  0  0  0
  -25.9318  -11.6421   20.5614 N   0  0  0  0  0  0
  -22.0589  -12.8108   22.0409 N   0  0  0  0  0  0
  -25.4325  -15.1823   20.4219 N   0  0  0  0  0  0
  -31.8252  -14.6549   20.1148 O   0  0  0  0  0  0
  -21.6629   -6.8864   21.4242 O   0  0  0  0  0  0
  -22.3566  -14.5495   20.6751 O   0  0  0  0  0  0
  -24.6105  -31.8727   23.2052 C   0  0  0  0  0  0
  -25.9009  -32.4842   23.8346 C   0  0  1  0  0  0
  -27.2327  -27.4460   20.0929 C   0  0  0  0  0  0
  -25.5827  -33.8634   24.2284 N   0  0  0  0  0  0
  -23.4002  -30.4938   21.5487 C   0  0  2  0  0  0
  -24.8473  -28.9514   20.1228 C   0  0  0  0  0  0
  -22.7411  -29.4701   22.4998 C   0  0  0  0  0  0
  -18.0294  -28.1383   22.8493 C   0  0  0  0  0  0
  -24.1516  -36.7319   23.2641 C   0  0  0  0  0  0
  -25.9294  -30.8295   21.3703 C   0  0  0  0  0  0
  -26.0073  -29.4656   20.7198 C   0  0  0  0  0  0
  -27.2045  -28.7159   20.7109 C   0  0  0  0  0  0
  -26.0641  -26.9448   19.4881 C   0  0  0  0  0  0
  -24.8678  -27.6848   19.5130 C   0  0  0  0  0  0
  -23.6087  -29.8187   20.1684 C   0  0  0  0  0  0
  -25.4143  -36.3120   24.0321 C   0  0  1  0  0  0
  -20.5882  -28.3685   23.1318 C   0  0  2  0  0  0
  -20.6806  -26.9433   22.5411 C   0  0  0  0  0  0
  -19.5782  -26.6389   21.5221 C   0  0  0  0  0  0
  -18.1946  -26.7940   22.1615 C   0  0  0  0  0  0
  -19.1536  -28.8847   23.2907 C   0  0  0  0  0  0
  -18.9473  -30.1450   23.8923 C   0  0  0  0  0  0
  -17.6468  -30.6589   24.0568 C   0  0  0  0  0  0
  -25.9036  -34.9482   23.5111 C   0  0  0  0  0  0
  -16.5363  -29.9070   23.6350 C   0  0  0  0  0  0
  -16.7276  -28.6495   23.0359 C   0  0  0  0  0  0
  -26.4431  -31.6612   25.0671 C   0  0  0  0  0  0
  -25.3632  -31.3714   26.1369 C   0  0  0  0  0  0
  -27.0294  -30.3057   24.6047 C   0  0  0  0  0  0
  -27.6015  -32.4352   25.7409 C   0  0  0  0  0  0
  -27.5625  -37.1809   24.8466 C   0  0  0  0  0  0
  -21.4133  -29.3053   22.3733 N   0  0  0  0  0  0
  -26.4361  -37.3788   23.9376 N   0  0  0  0  0  0
  -24.6626  -31.0819   22.0972 N   0  0  0  0  0  0
  -23.4188  -28.8284   23.3097 O   0  0  0  0  0  0
  -28.3877  -26.7090   20.0467 O   0  0  0  0  0  0
  -26.5655  -34.8932   22.4700 O   0  0  0  0  0  0
  -23.5293  -32.1495   23.7412 O   0  0  0  0  0  0
  -28.5410  -25.7690   21.1135 C   0  0  0  0  0  0
  -30.7938  -16.2251   22.2171 C   0  0  0  0  0  0
  -27.7583  -24.4543   20.9079 C   0  0  0  0  0  0
  -31.2601  -17.3291   21.2548 C   0  0  0  0  0  0
  -27.1155  -22.4542   22.0655 C   0  0  0  0  0  0
  -30.7686  -18.4030   19.2321 C   0  0  0  0  0  0
  -27.4808  -21.4181   20.9843 C   0  0  0  0  0  0
  -29.6468  -18.7972   18.2691 C   0  0  0  0  0  0
  -26.4521  -20.5138   19.0071 C   0  0  0  0  0  0
  -27.6545  -20.0747   18.1574 C   0  0  0  0  0  0
  -30.1498  -15.1196   21.5912 O   0  0  0  0  0  0
  -27.9451  -23.6153   22.0422 O   0  0  0  0  0  0
  -30.2603  -17.5914   20.2814 O   0  0  0  0  0  0
  -26.7132  -21.6663   19.8096 O   0  0  0  0  0  0
  -28.6361  -19.4791   18.9944 O   0  0  0  0  0  0
  -31.4826  -12.3751   19.1037 H   0  0  0  0  0  0
  -30.3230  -11.2399   19.7341 H   0  0  0  0  0  0
  -29.7410  -11.8181   17.3784 H   0  0  0  0  0  0
  -29.6949  -13.5162   17.7775 H   0  0  0  0  0  0
  -27.8232  -11.3276   18.7587 H   0  0  0  0  0  0
  -27.3822  -12.6836   17.7624 H   0  0  0  0  0  0
  -27.7383  -14.2527   19.6196 H   0  0  0  0  0  0
  -28.6538  -11.8473   21.2566 H   0  0  0  0  0  0
  -28.4640  -13.4428   21.9000 H   0  0  0  0  0  0
  -25.2814   -9.5666   22.4604 H   0  0  0  0  0  0
  -24.0030   -7.4638   22.7421 H   0  0  0  0  0  0
  -21.0860   -8.8732   19.8877 H   0  0  0  0  0  0
  -22.3731  -10.9608   19.6070 H   0  0  0  0  0  0
  -21.1983   -7.6135   23.9719 H   0  0  0  0  0  0
  -21.1494   -6.0505   25.9090 H   0  0  0  0  0  0
  -22.0604   -2.7598   23.2835 H   0  0  0  0  0  0
  -22.4294  -11.9778   22.4759 H   0  0  0  0  0  0
  -21.1151  -13.1017   22.2578 H   0  0  0  0  0  0
  -24.6681  -15.8336   20.5561 H   0  0  0  0  0  0
  -26.3010  -15.6337   20.1637 H   0  0  0  0  0  0
  -26.7067  -32.5579   23.1098 H   0  0  0  0  0  0
  -24.9906  -33.9813   25.0366 H   0  0  0  0  0  0
  -22.6861  -31.3090   21.4073 H   0  0  0  0  0  0
  -23.3792  -35.9645   23.3332 H   0  0  0  0  0  0
  -24.3620  -36.8893   22.2055 H   0  0  0  0  0  0
  -23.7277  -37.6516   23.6661 H   0  0  0  0  0  0
  -26.0591  -31.5943   20.6054 H   0  0  0  0  0  0
  -26.8096  -30.8725   21.9996 H   0  0  0  0  0  0
  -28.1011  -29.1020   21.1784 H   0  0  0  0  0  0
  -26.0744  -25.9814   18.9947 H   0  0  0  0  0  0
  -23.9738  -27.2765   19.0621 H   0  0  0  0  0  0
  -23.7140  -30.5863   19.4020 H   0  0  0  0  0  0
  -22.7307  -29.2333   19.8835 H   0  0  0  0  0  0
  -25.1350  -36.1991   25.0826 H   0  0  0  0  0  0
  -20.9981  -28.3271   24.1430 H   0  0  0  0  0  0
  -20.5788  -26.2289   23.3595 H   0  0  0  0  0  0
  -21.6678  -26.7539   22.1175 H   0  0  0  0  0  0
  -19.6975  -25.6299   21.1236 H   0  0  0  0  0  0
  -19.6729  -27.3222   20.6769 H   0  0  0  0  0  0
  -17.4244  -26.6706   21.3978 H   0  0  0  0  0  0
  -18.0336  -26.0085   22.9013 H   0  0  0  0  0  0
  -19.7955  -30.7242   24.2323 H   0  0  0  0  0  0
  -17.5034  -31.6293   24.5141 H   0  0  0  0  0  0
  -15.5359  -30.2960   23.7690 H   0  0  0  0  0  0
  -15.8682  -28.0790   22.7067 H   0  0  0  0  0  0
  -24.5790  -30.7127   25.7625 H   0  0  0  0  0  0
  -24.8837  -32.2870   26.4845 H   0  0  0  0  0  0
  -25.7885  -30.8802   27.0124 H   0  0  0  0  0  0
  -26.2836  -29.6770   24.1163 H   0  0  0  0  0  0
  -27.4153  -29.7350   25.4501 H   0  0  0  0  0  0
  -27.8632  -30.4413   23.9153 H   0  0  0  0  0  0
  -27.2649  -33.3663   26.1997 H   0  0  0  0  0  0
  -28.3772  -32.6895   25.0174 H   0  0  0  0  0  0
  -28.0735  -31.8463   26.5282 H   0  0  0  0  0  0
  -28.2645  -38.0113   24.7558 H   0  0  0  0  0  0
  -28.1132  -36.2645   24.6287 H   0  0  0  0  0  0
  -27.2324  -37.1414   25.8863 H   0  0  0  0  0  0
  -20.9318  -29.8708   21.6879 H   0  0  0  0  0  0
  -26.0258  -38.2886   24.1320 H   0  0  0  0  0  0
  -29.6035  -25.5333   21.1902 H   0  0  0  0  0  0
  -28.2595  -26.2298   22.0624 H   0  0  0  0  0  0
  -30.0854  -16.6472   22.9283 H   0  0  0  0  0  0
  -31.6355  -15.8654   22.8073 H   0  0  0  0  0  0
  -28.1092  -23.9450   20.0098 H   0  0  0  0  0  0
  -26.6957  -24.6553   20.7821 H   0  0  0  0  0  0
  -32.1981  -17.0330   20.7833 H   0  0  0  0  0  0
  -31.4760  -18.2381   21.8189 H   0  0  0  0  0  0
  -27.2592  -21.9962   23.0447 H   0  0  0  0  0  0
  -26.0567  -22.7168   22.0152 H   0  0  0  0  0  0
  -31.2360  -19.2991   19.6404 H   0  0  0  0  0  0
  -31.5363  -17.8486   18.6874 H   0  0  0  0  0  0
  -27.2525  -20.4277   21.3789 H   0  0  0  0  0  0
  -28.5501  -21.4371   20.7701 H   0  0  0  0  0  0
  -29.2388  -17.9139   17.7780 H   0  0  0  0  0  0
  -30.0523  -19.4464   17.4914 H   0  0  0  0  0  0
  -26.0689  -19.6856   19.6053 H   0  0  0  0  0  0
  -25.6423  -20.7857   18.3297 H   0  0  0  0  0  0
  -28.0722  -20.9169   17.6044 H   0  0  0  0  0  0
  -27.3134  -19.3527   17.4132 H   0  0  0  0  0  0
  1 25  1  0  0  0
  1 30  2  0  0  0
  1 81  1  0  0  0
  2  3  1  0  0  0
  2 25  1  0  0  0
  2 86  1  0  0  0
  2 87  1  0  0  0
  3  4  1  0  0  0
  3 88  1  0  0  0
  3 89  1  0  0  0
  4  5  1  0  0  0
  4 90  1  0  0  0
  4 91  1  0  0  0
  5  6  1  0  0  0
  5 26  1  0  0  0
  5 92  1  0  0  0
  6 25  1  0  0  0
  6 93  1  0  0  0
  6 94  1  0  0  0
  7  8  2  0  0  0
  7 26  1  0  0  0
  7 29  1  0  0  0
  8  9  1  0  0  0
  8 22  1  0  0  0
  9 10  1  0  0  0
  9 27  2  0  0  0
 10 11  2  0  0  0
 10 15  1  0  0  0
 11 12  1  0  0  0
 11 95  1  0  0  0
 12 13  2  0  0  0
 12 96  1  0  0  0
 13 14  1  0  0  0
 13 31  1  0  0  0
 14 15  2  0  0  0
 14 97  1  0  0  0
 15 98  1  0  0  0
 16 17  2  0  0  0
 16 21  1  0  0  0
 16 31  1  0  0  0
 17 18  1  0  0  0
 17 99  1  0  0  0
 18 19  2  0  0  0
 18100  1  0  0  0
 19 20  1  0  0  0
 19 24  1  0  0  0
 20 21  2  0  0  0
 20101  1  0  0  0
 21 23  1  0  0  0
 22 28  1  0  0  0
 22 32  2  0  0  0
 26 27  1  0  0  0
 28102  1  0  0  0
 28103  1  0  0  0
 29104  1  0  0  0
 29105  1  0  0  0
 33 34  1  0  0  0
 33 66  1  0  0  0
 33 70  2  0  0  0
 34 36  1  0  0  0
 34 59  1  0  0  0
 34106  1  0  0  0
 35 44  2  0  0  0
 35 45  1  0  0  0
 35 68  1  0  0  0
 36 56  1  0  0  0
 36107  1  0  0  0
 37 39  1  0  0  0
 37 47  1  0  0  0
 37 66  1  0  0  0
 37108  1  0  0  0
 38 43  2  0  0  0
 38 46  1  0  0  0
 38 47  1  0  0  0
 39 64  1  0  0  0
 39 67  2  0  0  0
 40 52  1  0  0  0
 40 53  2  0  0  0
 40 58  1  0  0  0
 41109  1  0  0  0
 41110  1  0  0  0
 41111  1  0  0  0
 41 48  1  0  0  0
 42 43  1  0  0  0
 42 66  1  0  0  0
 42112  1  0  0  0
 42113  1  0  0  0
 43 44  1  0  0  0
 44114  1  0  0  0
 45 46  2  0  0  0
 45115  1  0  0  0
 46116  1  0  0  0
 47117  1  0  0  0
 47118  1  0  0  0
 48 56  1  0  0  0
 48 65  1  0  0  0
 48119  1  0  0  0
 49 50  1  0  0  0
 49 53  1  0  0  0
 49 64  1  0  0  0
 49120  1  0  0  0
 50 51  1  0  0  0
 50121  1  0  0  0
 50122  1  0  0  0
 51 52  1  0  0  0
 51123  1  0  0  0
 51124  1  0  0  0
 52125  1  0  0  0
 52126  1  0  0  0
 53 54  1  0  0  0
 54 55  2  0  0  0
 54127  1  0  0  0
 55 57  1  0  0  0
 55128  1  0  0  0
 56 69  2  0  0  0
 57 58  2  0  0  0
 57129  1  0  0  0
 58130  1  0  0  0
 59 60  1  0  0  0
 59 61  1  0  0  0
 59 62  1  0  0  0
 60131  1  0  0  0
 60132  1  0  0  0
 60133  1  0  0  0
 61134  1  0  0  0
 61135  1  0  0  0
 61136  1  0  0  0
 62137  1  0  0  0
 62138  1  0  0  0
 62139  1  0  0  0
 63 65  1  0  0  0
 63140  1  0  0  0
 63141  1  0  0  0
 63142  1  0  0  0
 64143  1  0  0  0
 65144  1  0  0  0
 68 71  1  0  0  0
 71 73  1  0  0  0
 71145  1  0  0  0
 71146  1  0  0  0
 72 74  1  0  0  0
 72 81  1  0  0  0
 72147  1  0  0  0
 72148  1  0  0  0
 73 82  1  0  0  0
 73149  1  0  0  0
 73150  1  0  0  0
 74 83  1  0  0  0
 74151  1  0  0  0
 74152  1  0  0  0
 75 77  1  0  0  0
 75 82  1  0  0  0
 75153  1  0  0  0
 75154  1  0  0  0
 76 78  1  0  0  0
 76 83  1  0  0  0
 76155  1  0  0  0
 76156  1  0  0  0
 77 84  1  0  0  0
 77157  1  0  0  0
 77158  1  0  0  0
 78 85  1  0  0  0
 78159  1  0  0  0
 78160  1  0  0  0
 79 80  1  0  0  0
 79 84  1  0  0  0
 79161  1  0  0  0
 79162  1  0  0  0
 80 85  1  0  0  0
 80163  1  0  0  0
 80164  1  0  0  0
M  ISO  4   1 100  68 101  71 101  81 100
M  END
> <chiral flag>
0

> <version>
0

> <s_m_source_file>
/data/baiqing/PycharmProjects/Reinvent-master-3.2/result/LINK_invent/BTK/process_docking_weight1_custom_product_contain_oxygen_bond_distance_aromatic_linkinvent_7_9_3/rearranged_h_0000.sdf

> <i_m_source_file_index>
66

> <r_mmod_Potential_Energy-OPLS-2005>
-74.1318511962891

> <r_mmod_Stretch_Energy-OPLS-2005>
30.4730110168457

> <r_mmod_Bend_Energy-OPLS-2005>
94.9522399902344

> <r_mmod_Torsional_Energy-OPLS-2005>
179.784942626953

> <r_mmod_Improper_Torsional_Energy-OPLS-2005>
1.49589860439301

> <r_mmod_Van_der_Waal_Energy-OPLS-2005>
136.211196899414

> <r_mmod_Electrostatic_Energy-OPLS-2005>
-318.597076416016

> <r_mmod_Solvation_Energy-OPLS-2005>
-206.442276000977

> <b_mmod_Minimization_Converged-OPLS-2005>
0

> <r_mmod_RMS_Derivative-OPLS-2005>
4.22694969177246

$$$$
66
                    3D
 Structure written by MMmdl.
196203  0  0  1  0            999 V2000
  -30.7481  -14.3600   20.7064 C   0  0  0  0  0  0
  -30.4410  -12.3040   19.3718 C   0  0  0  0  0  0
  -29.4852  -12.5157   18.1810 C   0  0  0  0  0  0
  -28.0090  -12.3824   18.6031 C   0  0  0  0  0  0
  -27.6723  -13.1971   19.8797 C   0  0  2  0  0  0
  -28.7118  -12.9003   20.9802 C   0  0  0  0  0  0
  -25.2640  -13.8145   20.5683 C   0  0  0  0  0  0
  -24.1860  -13.0442   20.9174 C   0  0  0  0  0  0
  -24.6384  -11.6906   20.8727 C   0  0  0  0  0  0
  -23.9041  -10.4293   21.0401 C   0  0  0  0  0  0
  -24.3590   -9.4208   21.9173 C   0  0  0  0  0  0
  -23.6275   -8.2235   22.0743 C   0  0  0  0  0  0
  -22.4261   -8.0271   21.3536 C   0  0  0  0  0  0
  -21.9887   -9.0243   20.4646 C   0  0  0  0  0  0
  -22.7210  -10.2125   20.3057 C   0  0  0  0  0  0
  -21.6841   -6.0728   22.5276 C   0  0  0  0  0  0
  -21.4005   -6.5628   23.8215 C   0  0  0  0  0  0
  -21.3662   -5.6787   24.9180 C   0  0  0  0  0  0
  -21.6042   -4.3048   24.7232 C   0  0  0  0  0  0
  -21.8822   -3.8138   23.4346 C   0  0  0  0  0  0
  -21.9187   -4.6950   22.3409 C   0  0  0  0  0  0
  -22.7876  -13.5251   21.1828 C   0  0  0  0  0  0
  -22.1657   -4.2140   21.0986 F   0  0  0  0  0  0
  -21.5637   -3.4534   25.7742 F   0  0  0  0  0  0
  -30.0552  -13.2231   20.4504 N   0  0  0  0  0  0
  -26.3078  -12.9300   20.3383 N   0  0  0  0  0  0
  -25.9312  -11.6463   20.5758 N   0  0  0  0  0  0
  -22.0489  -12.8292   22.0404 N   0  0  0  0  0  0
  -25.4420  -15.1853   20.4116 N   0  0  0  0  0  0
  -31.7670  -14.7059   20.1040 O   0  0  0  0  0  0
  -21.6627   -6.8853   21.4237 O   0  0  0  0  0  0
  -22.3580  -14.5547   20.6655 O   0  0  0  0  0  0
  -24.6130  -31.8712   23.2092 C   0  0  0  0  0  0
  -25.9015  -32.4847   23.8410 C   0  0  1  0  0  0
  -27.2482  -27.4704   20.0725 C   0  0  0  0  0  0
  -25.5918  -33.8645   24.2368 N   0  0  0  0  0  0
  -23.3998  -30.4925   21.5489 C   0  0  2  0  0  0
  -24.8475  -28.9648   20.1100 C   0  0  0  0  0  0
  -22.7376  -29.4665   22.4974 C   0  0  0  0  0  0
  -18.0276  -28.1351   22.8508 C   0  0  0  0  0  0
  -24.1473  -36.7296   23.2630 C   0  0  0  0  0  0
  -25.9252  -30.8456   21.3550 C   0  0  0  0  0  0
  -26.0046  -29.4796   20.7076 C   0  0  0  0  0  0
  -27.2043  -28.7344   20.6965 C   0  0  0  0  0  0
  -26.0645  -26.9505   19.5049 C   0  0  0  0  0  0
  -24.8709  -27.6945   19.5095 C   0  0  0  0  0  0
  -23.6043  -29.8234   20.1636 C   0  0  0  0  0  0
  -25.4093  -36.3122   24.0345 C   0  0  1  0  0  0
  -20.5863  -28.3635   23.1315 C   0  0  2  0  0  0
  -20.6756  -26.9380   22.5400 C   0  0  0  0  0  0
  -19.5728  -26.6382   21.5197 C   0  0  0  0  0  0
  -18.1914  -26.7915   22.1624 C   0  0  0  0  0  0
  -19.1527  -28.8804   23.2923 C   0  0  0  0  0  0
  -18.9458  -30.1412   23.8931 C   0  0  0  0  0  0
  -17.6464  -30.6567   24.0568 C   0  0  0  0  0  0
  -25.9038  -34.9484   23.5156 C   0  0  0  0  0  0
  -16.5349  -29.9089   23.6310 C   0  0  0  0  0  0
  -16.7269  -28.6491   23.0360 C   0  0  0  0  0  0
  -26.4447  -31.6598   25.0717 C   0  0  0  0  0  0
  -25.3726  -31.3701   26.1481 C   0  0  0  0  0  0
  -27.0258  -30.3059   24.6002 C   0  0  0  0  0  0
  -27.6058  -32.4267   25.7480 C   0  0  0  0  0  0
  -27.5564  -37.1786   24.8475 C   0  0  0  0  0  0
  -21.4102  -29.3036   22.3726 N   0  0  0  0  0  0
  -26.4273  -37.3799   23.9429 N   0  0  0  0  0  0
  -24.6648  -31.0821   22.0989 N   0  0  0  0  0  0
  -23.4159  -28.8182   23.2976 O   0  0  0  0  0  0
  -28.4145  -26.7396   20.0876 O   0  0  0  0  0  0
  -26.5576  -34.8918   22.4703 O   0  0  0  0  0  0
  -23.5315  -32.1452   23.7500 O   0  0  0  0  0  0
  -29.6416  -17.0086   18.2043 C   0  0  0  0  0  0
  -29.9079  -19.2619   18.9774 C   0  0  0  0  0  0
  -29.8035  -24.1794   22.5870 C   0  0  0  0  0  0
  -31.9317  -20.5265   18.8357 C   0  0  0  0  0  0
  -28.2006  -20.2223   20.5252 C   0  0  0  0  0  0
  -30.5817  -16.3970   22.1917 C   0  0  0  0  0  0
  -28.5195  -23.5773   22.0030 C   0  0  0  0  0  0
  -30.3574  -23.3786   23.7744 C   0  0  0  0  0  0
  -31.9653  -21.3347   17.5242 C   0  0  0  0  0  0
  -27.7083  -21.5987   20.9727 C   0  0  0  0  0  0
  -29.2828  -17.0908   22.6371 C   0  0  0  0  0  0
  -29.0734  -26.5299   18.8375 C   0  0  0  0  0  0
  -28.3797  -25.4800   17.9464 C   0  0  0  0  0  0
  -29.8837  -22.7577   26.0182 C   0  0  0  0  0  0
  -30.4043  -22.8044   16.4538 C   0  0  0  0  0  0
  -28.2695  -18.5491   24.1682 C   0  0  0  0  0  0
  -28.9309  -21.5676   26.1877 C   0  0  0  0  0  0
  -30.0768  -23.8331   17.5519 C   0  0  0  0  0  0
  -28.4745  -19.3911   25.4325 C   0  0  0  0  0  0
  -30.0251  -16.0738   17.6416 N   0  0  0  0  0  0
  -31.1692  -19.2920   18.6858 N   0  0  0  0  0  0
  -29.1647  -18.1146   18.8014 N   0  0  0  0  0  0
  -29.1708  -20.3302   19.4471 N   0  0  0  0  0  0
  -30.2282  -15.0713   21.7069 N   0  0  0  0  0  0
  -28.8458  -22.3375   21.3902 O   0  0  0  0  0  0
  -29.5049  -23.5513   24.8986 O   0  0  0  0  0  0
  -30.6406  -21.5348   17.0418 O   0  0  0  0  0  0
  -29.5060  -18.0548   23.6556 O   0  0  0  0  0  0
  -29.2448  -24.8499   17.0048 O   0  0  0  0  0  0
  -29.0970  -20.6323   25.1286 O   0  0  0  0  0  0
  -31.4738  -12.4501   19.0499 H   0  0  0  0  0  0
  -30.3866  -11.2759   19.7312 H   0  0  0  0  0  0
  -29.7135  -11.8045   17.3858 H   0  0  0  0  0  0
  -29.6468  -13.5016   17.7514 H   0  0  0  0  0  0
  -27.8082  -11.3246   18.7771 H   0  0  0  0  0  0
  -27.3550  -12.6842   17.7839 H   0  0  0  0  0  0
  -27.7402  -14.2570   19.6258 H   0  0  0  0  0  0
  -28.6852  -11.8418   21.2424 H   0  0  0  0  0  0
  -28.4457  -13.4160   21.9025 H   0  0  0  0  0  0
  -25.2725   -9.5697   22.4768 H   0  0  0  0  0  0
  -23.9985   -7.4628   22.7461 H   0  0  0  0  0  0
  -21.0809   -8.8747   19.8966 H   0  0  0  0  0  0
  -22.3641  -10.9655   19.6177 H   0  0  0  0  0  0
  -21.1988   -7.6141   23.9710 H   0  0  0  0  0  0
  -21.1489   -6.0523   25.9083 H   0  0  0  0  0  0
  -22.0601   -2.7599   23.2853 H   0  0  0  0  0  0
  -22.4069  -11.9973   22.4860 H   0  0  0  0  0  0
  -21.1104  -13.1350   22.2543 H   0  0  0  0  0  0
  -24.6847  -15.8496   20.5281 H   0  0  0  0  0  0
  -26.3037  -15.6104   20.0965 H   0  0  0  0  0  0
  -26.7088  -32.5551   23.1189 H   0  0  0  0  0  0
  -25.0158  -33.9845   25.0570 H   0  0  0  0  0  0
  -22.6872  -31.3069   21.4067 H   0  0  0  0  0  0
  -23.3750  -35.9622   23.3318 H   0  0  0  0  0  0
  -24.3559  -36.8870   22.2036 H   0  0  0  0  0  0
  -23.7204  -37.6502   23.6619 H   0  0  0  0  0  0
  -26.0146  -31.6045   20.5770 H   0  0  0  0  0  0
  -26.8252  -30.9204   21.9546 H   0  0  0  0  0  0
  -28.0950  -29.1295   21.1624 H   0  0  0  0  0  0
  -26.0413  -25.9641   19.0720 H   0  0  0  0  0  0
  -23.9780  -27.2763   19.0645 H   0  0  0  0  0  0
  -23.7029  -30.6020   19.4063 H   0  0  0  0  0  0
  -22.7351  -29.2310   19.8710 H   0  0  0  0  0  0
  -25.1250  -36.2009   25.0837 H   0  0  0  0  0  0
  -20.9982  -28.3193   24.1418 H   0  0  0  0  0  0
  -20.5628  -26.2243   23.3573 H   0  0  0  0  0  0
  -21.6626  -26.7402   22.1196 H   0  0  0  0  0  0
  -19.6898  -25.6308   21.1187 H   0  0  0  0  0  0
  -19.6675  -27.3221   20.6754 H   0  0  0  0  0  0
  -17.4180  -26.6675   21.4032 H   0  0  0  0  0  0
  -18.0315  -26.0042   22.9006 H   0  0  0  0  0  0
  -19.7942  -30.7214   24.2298 H   0  0  0  0  0  0
  -17.5037  -31.6246   24.5162 H   0  0  0  0  0  0
  -15.5355  -30.3020   23.7585 H   0  0  0  0  0  0
  -15.8669  -28.0811   22.7074 H   0  0  0  0  0  0
  -24.5939  -30.6998   25.7822 H   0  0  0  0  0  0
  -24.8863  -32.2855   26.4873 H   0  0  0  0  0  0
  -25.8096  -30.8934   27.0274 H   0  0  0  0  0  0
  -26.2802  -29.6879   24.0993 H   0  0  0  0  0  0
  -27.4017  -29.7206   25.4397 H   0  0  0  0  0  0
  -27.8629  -30.4397   23.9145 H   0  0  0  0  0  0
  -27.2747  -33.3593   26.2060 H   0  0  0  0  0  0
  -28.3883  -32.6782   25.0311 H   0  0  0  0  0  0
  -28.0715  -31.8375   26.5393 H   0  0  0  0  0  0
  -28.2607  -38.0053   24.7510 H   0  0  0  0  0  0
  -28.1039  -36.2601   24.6329 H   0  0  0  0  0  0
  -27.2284  -37.1437   25.8874 H   0  0  0  0  0  0
  -20.9214  -29.8823   21.7044 H   0  0  0  0  0  0
  -26.0187  -38.2887   24.1460 H   0  0  0  0  0  0
  -29.6233  -25.2095   22.8975 H   0  0  0  0  0  0
  -30.5571  -24.2273   21.8010 H   0  0  0  0  0  0
  -31.5641  -21.1542   19.6492 H   0  0  0  0  0  0
  -32.9551  -20.2787   19.1240 H   0  0  0  0  0  0
  -27.3567  -19.6070   20.2080 H   0  0  0  0  0  0
  -28.6769  -19.7230   21.3690 H   0  0  0  0  0  0
  -31.1017  -16.9839   21.4316 H   0  0  0  0  0  0
  -31.2570  -16.2769   23.0399 H   0  0  0  0  0  0
  -28.0807  -24.2512   21.2660 H   0  0  0  0  0  0
  -27.7837  -23.4459   22.7979 H   0  0  0  0  0  0
  -31.3571  -23.7370   24.0239 H   0  0  0  0  0  0
  -30.4505  -22.3232   23.5121 H   0  0  0  0  0  0
  -32.5335  -20.8081   16.7567 H   0  0  0  0  0  0
  -32.4840  -22.2770   17.7115 H   0  0  0  0  0  0
  -27.0106  -21.4739   21.8022 H   0  0  0  0  0  0
  -27.1749  -22.1143   20.1727 H   0  0  0  0  0  0
  -28.5997  -16.3370   23.0326 H   0  0  0  0  0  0
  -28.7789  -17.5397   21.7810 H   0  0  0  0  0  0
  -29.2023  -27.4707   18.3013 H   0  0  0  0  0  0
  -30.0799  -26.1896   19.0878 H   0  0  0  0  0  0
  -27.5911  -25.9753   17.3799 H   0  0  0  0  0  0
  -27.8820  -24.7257   18.5592 H   0  0  0  0  0  0
  -30.9213  -22.4220   25.9729 H   0  0  0  0  0  0
  -29.8025  -23.3865   26.9057 H   0  0  0  0  0  0
  -31.2207  -23.1184   15.8011 H   0  0  0  0  0  0
  -29.5305  -22.6897   15.8122 H   0  0  0  0  0  0
  -27.7335  -19.1183   23.4087 H   0  0  0  0  0  0
  -27.6291  -17.7091   24.4440 H   0  0  0  0  0  0
  -27.8953  -21.9112   26.2221 H   0  0  0  0  0  0
  -29.1434  -21.0858   27.1455 H   0  0  0  0  0  0
  -30.9857  -24.2526   17.9839 H   0  0  0  0  0  0
  -29.5566  -23.3147   18.3602 H   0  0  0  0  0  0
  -29.0605  -18.8430   26.1713 H   0  0  0  0  0  0
  -27.4950  -19.5691   25.8791 H   0  0  0  0  0  0
  -28.1673  -18.1492   18.9690 H   0  0  0  0  0  0
  -29.5625  -21.2634   19.4136 H   0  0  0  0  0  0
  -29.4241  -14.6442   22.1408 H   0  0  0  0  0  0
  1 25  1  0  0  0
  1 30  2  0  0  0
  1 94  1  0  0  0
  2  3  1  0  0  0
  2 25  1  0  0  0
  2101  1  0  0  0
  2102  1  0  0  0
  3  4  1  0  0  0
  3103  1  0  0  0
  3104  1  0  0  0
  4  5  1  0  0  0
  4105  1  0  0  0
  4106  1  0  0  0
  5  6  1  0  0  0
  5 26  1  0  0  0
  5107  1  0  0  0
  6 25  1  0  0  0
  6108  1  0  0  0
  6109  1  0  0  0
  7  8  2  0  0  0
  7 26  1  0  0  0
  7 29  1  0  0  0
  8  9  1  0  0  0
  8 22  1  0  0  0
  9 10  1  0  0  0
  9 27  2  0  0  0
 10 11  2  0  0  0
 10 15  1  0  0  0
 11 12  1  0  0  0
 11110  1  0  0  0
 12 13  2  0  0  0
 12111  1  0  0  0
 13 14  1  0  0  0
 13 31  1  0  0  0
 14 15  2  0  0  0
 14112  1  0  0  0
 15113  1  0  0  0
 16 17  2  0  0  0
 16 21  1  0  0  0
 16 31  1  0  0  0
 17 18  1  0  0  0
 17114  1  0  0  0
 18 19  2  0  0  0
 18115  1  0  0  0
 19 20  1  0  0  0
 19 24  1  0  0  0
 20 21  2  0  0  0
 20116  1  0  0  0
 21 23  1  0  0  0
 22 28  1  0  0  0
 22 32  2  0  0  0
 26 27  1  0  0  0
 28117  1  0  0  0
 28118  1  0  0  0
 29119  1  0  0  0
 29120  1  0  0  0
 33 34  1  0  0  0
 33 66  1  0  0  0
 33 70  2  0  0  0
 34 36  1  0  0  0
 34 59  1  0  0  0
 34121  1  0  0  0
 35 44  2  0  0  0
 35 45  1  0  0  0
 35 68  1  0  0  0
 36 56  1  0  0  0
 36122  1  0  0  0
 37 39  1  0  0  0
 37 47  1  0  0  0
 37 66  1  0  0  0
 37123  1  0  0  0
 38 43  2  0  0  0
 38 46  1  0  0  0
 38 47  1  0  0  0
 39 64  1  0  0  0
 39 67  2  0  0  0
 40 52  1  0  0  0
 40 53  2  0  0  0
 40 58  1  0  0  0
 41124  1  0  0  0
 41125  1  0  0  0
 41126  1  0  0  0
 41 48  1  0  0  0
 42 43  1  0  0  0
 42 66  1  0  0  0
 42127  1  0  0  0
 42128  1  0  0  0
 43 44  1  0  0  0
 44129  1  0  0  0
 45 46  2  0  0  0
 45130  1  0  0  0
 46131  1  0  0  0
 47132  1  0  0  0
 47133  1  0  0  0
 48 56  1  0  0  0
 48 65  1  0  0  0
 48134  1  0  0  0
 49 50  1  0  0  0
 49 53  1  0  0  0
 49 64  1  0  0  0
 49135  1  0  0  0
 50 51  1  0  0  0
 50136  1  0  0  0
 50137  1  0  0  0
 51 52  1  0  0  0
 51138  1  0  0  0
 51139  1  0  0  0
 52140  1  0  0  0
 52141  1  0  0  0
 53 54  1  0  0  0
 54 55  2  0  0  0
 54142  1  0  0  0
 55 57  1  0  0  0
 55143  1  0  0  0
 56 69  2  0  0  0
 57 58  2  0  0  0
 57144  1  0  0  0
 58145  1  0  0  0
 59 60  1  0  0  0
 59 61  1  0  0  0
 59 62  1  0  0  0
 60146  1  0  0  0
 60147  1  0  0  0
 60148  1  0  0  0
 61149  1  0  0  0
 61150  1  0  0  0
 61151  1  0  0  0
 62152  1  0  0  0
 62153  1  0  0  0
 62154  1  0  0  0
 63 65  1  0  0  0
 63155  1  0  0  0
 63156  1  0  0  0
 63157  1  0  0  0
 64158  1  0  0  0
 65159  1  0  0  0
 68 82  1  0  0  0
 71 90  3  0  0  0
 71 92  1  0  0  0
 72 91  2  0  0  0
 72 92  1  0  0  0
 72 93  1  0  0  0
 73 77  1  0  0  0
 73 78  1  0  0  0
 73160  1  0  0  0
 73161  1  0  0  0
 74 79  1  0  0  0
 74 91  1  0  0  0
 74162  1  0  0  0
 74163  1  0  0  0
 75 80  1  0  0  0
 75 93  1  0  0  0
 75164  1  0  0  0
 75165  1  0  0  0
 76 81  1  0  0  0
 76 94  1  0  0  0
 76166  1  0  0  0
 76167  1  0  0  0
 77 95  1  0  0  0
 77168  1  0  0  0
 77169  1  0  0  0
 78 96  1  0  0  0
 78170  1  0  0  0
 78171  1  0  0  0
 79 97  1  0  0  0
 79172  1  0  0  0
 79173  1  0  0  0
 80 95  1  0  0  0
 80174  1  0  0  0
 80175  1  0  0  0
 81 98  1  0  0  0
 81176  1  0  0  0
 81177  1  0  0  0
 82 83  1  0  0  0
 82178  1  0  0  0
 82179  1  0  0  0
 83 99  1  0  0  0
 83180  1  0  0  0
 83181  1  0  0  0
 84 87  1  0  0  0
 84 96  1  0  0  0
 84182  1  0  0  0
 84183  1  0  0  0
 85 88  1  0  0  0
 85 97  1  0  0  0
 85184  1  0  0  0
 85185  1  0  0  0
 86 89  1  0  0  0
 86 98  1  0  0  0
 86186  1  0  0  0
 86187  1  0  0  0
 87100  1  0  0  0
 87188  1  0  0  0
 87189  1  0  0  0
 88 99  1  0  0  0
 88190  1  0  0  0
 88191  1  0  0  0
 89100  1  0  0  0
 89192  1  0  0  0
 89193  1  0  0  0
 92194  1  0  0  0
 93195  1  0  0  0
 94196  1  0  0  0
M  ISO  4   1 100  68 101  82 101  94 100
M  END
> <chiral flag>
0

> <version>
0

> <s_m_source_file>
/data/baiqing/PycharmProjects/Reinvent-master-3.2/result/LINK_invent/BTK/process_docking_weight1_custom_product_contain_oxygen_bond_distance_aromatic_linkinvent_7_9_3/rearranged_h_0000.sdf

> <i_m_source_file_index>
67

> <r_mmod_Potential_Energy-OPLS-2005>
-278.299133300781

> <r_mmod_Stretch_Energy-OPLS-2005>
33.980110168457

> <r_mmod_Bend_Energy-OPLS-2005>
117.127738952637

> <r_mmod_Torsional_Energy-OPLS-2005>
270.49560546875

> <r_mmod_Improper_Torsional_Energy-OPLS-2005>
4.45332145690918

> <r_mmod_Van_der_Waal_Energy-OPLS-2005>
114.192642211914

> <r_mmod_Electrostatic_Energy-OPLS-2005>
-546.018249511719

> <r_mmod_Solvation_Energy-OPLS-2005>
-280.669952392578

> <b_mmod_Minimization_Converged-OPLS-2005>
0

> <r_mmod_RMS_Derivative-OPLS-2005>
3.17969441413879

$$$$
67
                    3D
 Structure written by MMmdl.
161169  0  0  1  0            999 V2000
  -30.7382  -14.3559   20.6630 C   0  0  0  0  0  0
  -30.4263  -12.2765   19.3813 C   0  0  0  0  0  0
  -29.4849  -12.5461   18.1887 C   0  0  0  0  0  0
  -28.0061  -12.4058   18.6021 C   0  0  0  0  0  0
  -27.6740  -13.1987   19.8933 C   0  0  2  0  0  0
  -28.7160  -12.8890   20.9938 C   0  0  0  0  0  0
  -25.2625  -13.8156   20.5690 C   0  0  0  0  0  0
  -24.1864  -13.0438   20.9179 C   0  0  0  0  0  0
  -24.6410  -11.6900   20.8748 C   0  0  0  0  0  0
  -23.9075  -10.4290   21.0411 C   0  0  0  0  0  0
  -24.3617   -9.4205   21.9189 C   0  0  0  0  0  0
  -23.6286   -8.2248   22.0757 C   0  0  0  0  0  0
  -22.4277   -8.0282   21.3536 C   0  0  0  0  0  0
  -21.9904   -9.0265   20.4650 C   0  0  0  0  0  0
  -22.7241  -10.2142   20.3061 C   0  0  0  0  0  0
  -21.6848   -6.0734   22.5277 C   0  0  0  0  0  0
  -21.4008   -6.5632   23.8211 C   0  0  0  0  0  0
  -21.3659   -5.6789   24.9170 C   0  0  0  0  0  0
  -21.6059   -4.3056   24.7231 C   0  0  0  0  0  0
  -21.8815   -3.8140   23.4347 C   0  0  0  0  0  0
  -21.9186   -4.6960   22.3405 C   0  0  0  0  0  0
  -22.7880  -13.5240   21.1834 C   0  0  0  0  0  0
  -22.1657   -4.2133   21.0985 F   0  0  0  0  0  0
  -21.5630   -3.4541   25.7746 F   0  0  0  0  0  0
  -30.0644  -13.1930   20.4680 N   0  0  0  0  0  0
  -26.3089  -12.9322   20.3467 N   0  0  0  0  0  0
  -25.9334  -11.6484   20.5790 N   0  0  0  0  0  0
  -22.0518  -12.8250   22.0405 N   0  0  0  0  0  0
  -25.4319  -15.1874   20.4051 N   0  0  0  0  0  0
  -31.7459  -14.6877   20.0306 O   0  0  0  0  0  0
  -21.6639   -6.8887   21.4241 O   0  0  0  0  0  0
  -22.3562  -14.5531   20.6657 O   0  0  0  0  0  0
  -24.6109  -31.8722   23.2142 C   0  0  0  0  0  0
  -25.9026  -32.4838   23.8414 C   0  0  1  0  0  0
  -27.2307  -27.4754   20.0817 C   0  0  0  0  0  0
  -25.5907  -33.8631   24.2351 N   0  0  0  0  0  0
  -23.3965  -30.4973   21.5559 C   0  0  2  0  0  0
  -24.8433  -28.9747   20.1090 C   0  0  0  0  0  0
  -22.7372  -29.4685   22.5011 C   0  0  0  0  0  0
  -18.0268  -28.1388   22.8466 C   0  0  0  0  0  0
  -24.1490  -36.7319   23.2636 C   0  0  0  0  0  0
  -25.9219  -30.8484   21.3616 C   0  0  0  0  0  0
  -26.0022  -29.4880   20.7065 C   0  0  0  0  0  0
  -27.2013  -28.7444   20.6951 C   0  0  0  0  0  0
  -26.0651  -26.9812   19.4538 C   0  0  0  0  0  0
  -24.8673  -27.7166   19.4807 C   0  0  0  0  0  0
  -23.6012  -29.8328   20.1687 C   0  0  0  0  0  0
  -25.4102  -36.3115   24.0344 C   0  0  1  0  0  0
  -20.5849  -28.3631   23.1295 C   0  0  2  0  0  0
  -20.6795  -26.9412   22.5282 C   0  0  0  0  0  0
  -19.5691  -26.6292   21.5213 C   0  0  0  0  0  0
  -18.1857  -26.7947   22.1576 C   0  0  0  0  0  0
  -19.1515  -28.8810   23.2917 C   0  0  0  0  0  0
  -18.9443  -30.1373   23.9017 C   0  0  0  0  0  0
  -17.6452  -30.6548   24.0618 C   0  0  0  0  0  0
  -25.9033  -34.9478   23.5136 C   0  0  0  0  0  0
  -16.5346  -29.9097   23.6297 C   0  0  0  0  0  0
  -16.7261  -28.6513   23.0326 C   0  0  0  0  0  0
  -26.4470  -31.6594   25.0713 C   0  0  0  0  0  0
  -25.3745  -31.3692   26.1464 C   0  0  0  0  0  0
  -27.0283  -30.3037   24.6055 C   0  0  0  0  0  0
  -27.6065  -32.4283   25.7476 C   0  0  0  0  0  0
  -27.5578  -37.1812   24.8461 C   0  0  0  0  0  0
  -21.4103  -29.3060   22.3761 N   0  0  0  0  0  0
  -26.4288  -37.3786   23.9408 N   0  0  0  0  0  0
  -24.6623  -31.0835   22.1039 N   0  0  0  0  0  0
  -23.4163  -28.8184   23.3003 O   0  0  0  0  0  0
  -28.3643  -26.6895   20.1276 O   0  0  0  0  0  0
  -26.5586  -34.8918   22.4693 O   0  0  0  0  0  0
  -23.5305  -32.1473   23.7554 O   0  0  0  0  0  0
  -23.9155  -24.2783   22.0328 C   0  0  0  0  0  0
  -24.0774  -22.8858   21.9379 C   0  0  0  0  0  0
  -25.0431  -25.1154   22.0291 C   0  0  0  0  0  0
  -26.5022  -23.1644   21.8343 C   0  0  0  0  0  0
  -25.3673  -22.3125   21.8548 C   0  0  0  0  0  0
  -26.3348  -24.5658   21.8943 C   0  0  0  0  0  0
  -25.4887  -20.8124   21.8285 C   0  0  0  0  0  0
  -28.3440  -25.4801   20.7888 C   0  0  0  0  0  0
  -28.4441  -18.5474   21.5091 C   0  0  0  0  0  0
  -28.6759  -17.0368   21.5944 C   0  0  0  0  0  0
  -26.9410  -18.8617   21.4833 C   0  0  0  0  0  0
  -30.1494  -16.6100   21.5214 C   0  0  0  0  0  0
  -27.4169  -25.4737   21.8289 N   0  0  0  0  0  0
  -26.6839  -20.2942   21.5255 N   0  0  0  0  0  0
  -30.1729  -15.1570   21.5667 N   0  0  0  0  0  0
  -24.5071  -20.1015   22.0593 O   0  0  0  0  0  0
  -29.1144  -24.5600   20.5123 O   0  0  0  0  0  0
  -31.4677  -12.3898   19.0736 H   0  0  0  0  0  0
  -30.3249  -11.2438   19.7191 H   0  0  0  0  0  0
  -29.7100  -11.8683   17.3631 H   0  0  0  0  0  0
  -29.6598  -13.5546   17.8129 H   0  0  0  0  0  0
  -27.7984  -11.3467   18.7497 H   0  0  0  0  0  0
  -27.3565  -12.7317   17.7892 H   0  0  0  0  0  0
  -27.7462  -14.2594   19.6539 H   0  0  0  0  0  0
  -28.6733  -11.8324   21.2606 H   0  0  0  0  0  0
  -28.4676  -13.4147   21.9154 H   0  0  0  0  0  0
  -25.2765   -9.5682   22.4752 H   0  0  0  0  0  0
  -23.9992   -7.4643   22.7468 H   0  0  0  0  0  0
  -21.0827   -8.8795   19.8963 H   0  0  0  0  0  0
  -22.3707  -10.9679   19.6164 H   0  0  0  0  0  0
  -21.2003   -7.6137   23.9710 H   0  0  0  0  0  0
  -21.1487   -6.0520   25.9078 H   0  0  0  0  0  0
  -22.0599   -2.7597   23.2861 H   0  0  0  0  0  0
  -22.4094  -11.9895   22.4802 H   0  0  0  0  0  0
  -21.1134  -13.1277   22.2597 H   0  0  0  0  0  0
  -24.6533  -15.8333   20.4804 H   0  0  0  0  0  0
  -26.2807  -15.6242   20.0704 H   0  0  0  0  0  0
  -26.7107  -32.5568   23.1193 H   0  0  0  0  0  0
  -25.0073  -33.9793   25.0505 H   0  0  0  0  0  0
  -22.6838  -31.3134   21.4200 H   0  0  0  0  0  0
  -23.3738  -35.9665   23.3314 H   0  0  0  0  0  0
  -24.3586  -36.8910   22.2044 H   0  0  0  0  0  0
  -23.7251  -37.6539   23.6631 H   0  0  0  0  0  0
  -26.0221  -31.6166   20.5949 H   0  0  0  0  0  0
  -26.8138  -30.9048   21.9738 H   0  0  0  0  0  0
  -28.0925  -29.1297   21.1721 H   0  0  0  0  0  0
  -26.0734  -26.0107   18.9775 H   0  0  0  0  0  0
  -23.9756  -27.3116   19.0206 H   0  0  0  0  0  0
  -23.7011  -30.6100   19.4104 H   0  0  0  0  0  0
  -22.7256  -29.2506   19.8752 H   0  0  0  0  0  0
  -25.1274  -36.1994   25.0834 H   0  0  0  0  0  0
  -20.9911  -28.3114   24.1415 H   0  0  0  0  0  0
  -20.6009  -26.2179   23.3400 H   0  0  0  0  0  0
  -21.6595  -26.7660   22.0830 H   0  0  0  0  0  0
  -19.6822  -25.6154   21.1357 H   0  0  0  0  0  0
  -19.6640  -27.2959   20.6646 H   0  0  0  0  0  0
  -17.4178  -26.6821   21.3917 H   0  0  0  0  0  0
  -18.0094  -26.0095   22.8931 H   0  0  0  0  0  0
  -19.7898  -30.7112   24.2551 H   0  0  0  0  0  0
  -17.5003  -31.6193   24.5287 H   0  0  0  0  0  0
  -15.5356  -30.3019   23.7584 H   0  0  0  0  0  0
  -15.8668  -28.0815   22.7058 H   0  0  0  0  0  0
  -24.5931  -30.7018   25.7815 H   0  0  0  0  0  0
  -24.8911  -32.2834   26.4917 H   0  0  0  0  0  0
  -25.8100  -30.8874   27.0226 H   0  0  0  0  0  0
  -26.2813  -29.6824   24.1096 H   0  0  0  0  0  0
  -27.4052  -29.7242   25.4498 H   0  0  0  0  0  0
  -27.8652  -30.4368   23.9191 H   0  0  0  0  0  0
  -27.2717  -33.3568   26.2110 H   0  0  0  0  0  0
  -28.3856  -32.6856   25.0291 H   0  0  0  0  0  0
  -28.0755  -31.8360   26.5347 H   0  0  0  0  0  0
  -28.2608  -38.0104   24.7492 H   0  0  0  0  0  0
  -28.1069  -36.2628   24.6307 H   0  0  0  0  0  0
  -27.2294  -37.1482   25.8867 H   0  0  0  0  0  0
  -20.9228  -29.8811   21.7028 H   0  0  0  0  0  0
  -26.0195  -38.2870   24.1402 H   0  0  0  0  0  0
  -22.9239  -24.7034   22.1047 H   0  0  0  0  0  0
  -23.1977  -22.2553   21.9405 H   0  0  0  0  0  0
  -24.8999  -26.1866   22.0986 H   0  0  0  0  0  0
  -27.5000  -22.7528   21.7752 H   0  0  0  0  0  0
  -28.9223  -18.9465   20.6137 H   0  0  0  0  0  0
  -28.9146  -19.0339   22.3637 H   0  0  0  0  0  0
  -28.1243  -16.5476   20.7900 H   0  0  0  0  0  0
  -28.2416  -16.6676   22.5253 H   0  0  0  0  0  0
  -26.4591  -18.3759   22.3357 H   0  0  0  0  0  0
  -26.4742  -18.4467   20.5881 H   0  0  0  0  0  0
  -30.7242  -17.0181   22.3542 H   0  0  0  0  0  0
  -30.6005  -16.9852   20.5996 H   0  0  0  0  0  0
  -27.1458  -26.4173   22.0638 H   0  0  0  0  0  0
  -27.4458  -20.9269   21.3293 H   0  0  0  0  0  0
  -29.4492  -14.7225   22.1206 H   0  0  0  0  0  0
  1 25  1  0  0  0
  1 30  2  0  0  0
  1 85  1  0  0  0
  2  3  1  0  0  0
  2 25  1  0  0  0
  2 88  1  0  0  0
  2 89  1  0  0  0
  3  4  1  0  0  0
  3 90  1  0  0  0
  3 91  1  0  0  0
  4  5  1  0  0  0
  4 92  1  0  0  0
  4 93  1  0  0  0
  5  6  1  0  0  0
  5 26  1  0  0  0
  5 94  1  0  0  0
  6 25  1  0  0  0
  6 95  1  0  0  0
  6 96  1  0  0  0
  7  8  2  0  0  0
  7 26  1  0  0  0
  7 29  1  0  0  0
  8  9  1  0  0  0
  8 22  1  0  0  0
  9 10  1  0  0  0
  9 27  2  0  0  0
 10 11  2  0  0  0
 10 15  1  0  0  0
 11 12  1  0  0  0
 11 97  1  0  0  0
 12 13  2  0  0  0
 12 98  1  0  0  0
 13 14  1  0  0  0
 13 31  1  0  0  0
 14 15  2  0  0  0
 14 99  1  0  0  0
 15100  1  0  0  0
 16 17  2  0  0  0
 16 21  1  0  0  0
 16 31  1  0  0  0
 17 18  1  0  0  0
 17101  1  0  0  0
 18 19  2  0  0  0
 18102  1  0  0  0
 19 20  1  0  0  0
 19 24  1  0  0  0
 20 21  2  0  0  0
 20103  1  0  0  0
 21 23  1  0  0  0
 22 28  1  0  0  0
 22 32  2  0  0  0
 26 27  1  0  0  0
 28104  1  0  0  0
 28105  1  0  0  0
 29106  1  0  0  0
 29107  1  0  0  0
 33 34  1  0  0  0
 33 66  1  0  0  0
 33 70  2  0  0  0
 34 36  1  0  0  0
 34 59  1  0  0  0
 34108  1  0  0  0
 35 44  2  0  0  0
 35 45  1  0  0  0
 35 68  1  0  0  0
 36 56  1  0  0  0
 36109  1  0  0  0
 37 39  1  0  0  0
 37 47  1  0  0  0
 37 66  1  0  0  0
 37110  1  0  0  0
 38 43  2  0  0  0
 38 46  1  0  0  0
 38 47  1  0  0  0
 39 64  1  0  0  0
 39 67  2  0  0  0
 40 52  1  0  0  0
 40 53  2  0  0  0
 40 58  1  0  0  0
 41111  1  0  0  0
 41112  1  0  0  0
 41113  1  0  0  0
 41 48  1  0  0  0
 42 43  1  0  0  0
 42 66  1  0  0  0
 42114  1  0  0  0
 42115  1  0  0  0
 43 44  1  0  0  0
 44116  1  0  0  0
 45 46  2  0  0  0
 45117  1  0  0  0
 46118  1  0  0  0
 47119  1  0  0  0
 47120  1  0  0  0
 48 56  1  0  0  0
 48 65  1  0  0  0
 48121  1  0  0  0
 49 50  1  0  0  0
 49 53  1  0  0  0
 49 64  1  0  0  0
 49122  1  0  0  0
 50 51  1  0  0  0
 50123  1  0  0  0
 50124  1  0  0  0
 51 52  1  0  0  0
 51125  1  0  0  0
 51126  1  0  0  0
 52127  1  0  0  0
 52128  1  0  0  0
 53 54  1  0  0  0
 54 55  2  0  0  0
 54129  1  0  0  0
 55 57  1  0  0  0
 55130  1  0  0  0
 56 69  2  0  0  0
 57 58  2  0  0  0
 57131  1  0  0  0
 58132  1  0  0  0
 59 60  1  0  0  0
 59 61  1  0  0  0
 59 62  1  0  0  0
 60133  1  0  0  0
 60134  1  0  0  0
 60135  1  0  0  0
 61136  1  0  0  0
 61137  1  0  0  0
 61138  1  0  0  0
 62139  1  0  0  0
 62140  1  0  0  0
 62141  1  0  0  0
 63 65  1  0  0  0
 63142  1  0  0  0
 63143  1  0  0  0
 63144  1  0  0  0
 64145  1  0  0  0
 65146  1  0  0  0
 68 78  1  0  0  0
 71 72  2  0  0  0
 71 73  1  0  0  0
 71147  1  0  0  0
 72 75  1  0  0  0
 72148  1  0  0  0
 73 76  2  0  0  0
 73149  1  0  0  0
 74 75  2  0  0  0
 74 76  1  0  0  0
 74150  1  0  0  0
 75 77  1  0  0  0
 76 83  1  0  0  0
 77 84  1  0  0  0
 77 86  2  0  0  0
 78 83  1  0  0  0
 78 87  2  0  0  0
 79 80  1  0  0  0
 79 81  1  0  0  0
 79151  1  0  0  0
 79152  1  0  0  0
 80 82  1  0  0  0
 80153  1  0  0  0
 80154  1  0  0  0
 81 84  1  0  0  0
 81155  1  0  0  0
 81156  1  0  0  0
 82 85  1  0  0  0
 82157  1  0  0  0
 82158  1  0  0  0
 83159  1  0  0  0
 84160  1  0  0  0
 85161  1  0  0  0
M  ISO  4   1 100  68 101  78 101  85 100
M  END
> <chiral flag>
0

> <version>
0

> <s_m_source_file>
/data/baiqing/PycharmProjects/Reinvent-master-3.2/result/LINK_invent/BTK/process_docking_weight1_custom_product_contain_oxygen_bond_distance_aromatic_linkinvent_7_9_3/rearranged_h_0000.sdf

> <i_m_source_file_index>
68

> <r_mmod_Potential_Energy-OPLS-2005>
-157.961929321289

> <r_mmod_Stretch_Energy-OPLS-2005>
33.9705200195312

> <r_mmod_Bend_Energy-OPLS-2005>
92.6346130371094

> <r_mmod_Torsional_Energy-OPLS-2005>
260.076690673828

> <r_mmod_Improper_Torsional_Energy-OPLS-2005>
8.08123397827148

> <r_mmod_Van_der_Waal_Energy-OPLS-2005>
154.879348754883

> <r_mmod_Electrostatic_Energy-OPLS-2005>
-473.902618408203

> <r_mmod_Solvation_Energy-OPLS-2005>
-242.864135742188

> <b_mmod_Minimization_Converged-OPLS-2005>
0

> <r_mmod_RMS_Derivative-OPLS-2005>
3.11879134178162

$$$$
68
                    3D
 Structure written by MMmdl.
166174  0  0  1  0            999 V2000
  -30.7726  -14.4606   20.5595 C   0  0  0  0  0  0
  -30.4061  -12.2881   19.4494 C   0  0  0  0  0  0
  -29.4995  -12.4548   18.2143 C   0  0  0  0  0  0
  -28.0156  -12.3646   18.6217 C   0  0  0  0  0  0
  -27.6578  -13.2187   19.8705 C   0  0  2  0  0  0
  -28.7031  -13.0565   20.9968 C   0  0  0  0  0  0
  -25.2567  -13.8165   20.5765 C   0  0  0  0  0  0
  -24.1836  -13.0417   20.9230 C   0  0  0  0  0  0
  -24.6409  -11.6898   20.8775 C   0  0  0  0  0  0
  -23.9059  -10.4274   21.0417 C   0  0  0  0  0  0
  -24.3605   -9.4195   21.9193 C   0  0  0  0  0  0
  -23.6280   -8.2232   22.0781 C   0  0  0  0  0  0
  -22.4264   -8.0260   21.3561 C   0  0  0  0  0  0
  -21.9890   -9.0227   20.4664 C   0  0  0  0  0  0
  -22.7220  -10.2111   20.3069 C   0  0  0  0  0  0
  -21.6840   -6.0717   22.5285 C   0  0  0  0  0  0
  -21.3978   -6.5633   23.8207 C   0  0  0  0  0  0
  -21.3678   -5.6806   24.9191 C   0  0  0  0  0  0
  -21.6068   -4.3064   24.7252 C   0  0  0  0  0  0
  -21.8799   -3.8135   23.4369 C   0  0  0  0  0  0
  -21.9174   -4.6942   22.3410 C   0  0  0  0  0  0
  -22.7849  -13.5200   21.1846 C   0  0  0  0  0  0
  -22.1650   -4.2127   21.0986 F   0  0  0  0  0  0
  -21.5667   -3.4553   25.7767 F   0  0  0  0  0  0
  -30.0297  -13.3252   20.4242 N   0  0  0  0  0  0
  -26.3018  -12.9383   20.3401 N   0  0  0  0  0  0
  -25.9352  -11.6527   20.5808 N   0  0  0  0  0  0
  -22.0456  -12.8224   22.0395 N   0  0  0  0  0  0
  -25.4232  -15.1881   20.4246 N   0  0  0  0  0  0
  -31.9087  -14.5652   20.1001 O   0  0  0  0  0  0
  -21.6627   -6.8862   21.4255 O   0  0  0  0  0  0
  -22.3527  -14.5488   20.6655 O   0  0  0  0  0  0
  -24.6126  -31.8689   23.2116 C   0  0  0  0  0  0
  -25.9030  -32.4825   23.8401 C   0  0  1  0  0  0
  -27.2373  -27.4560   20.0948 C   0  0  0  0  0  0
  -25.5896  -33.8626   24.2340 N   0  0  0  0  0  0
  -23.4012  -30.4925   21.5483 C   0  0  2  0  0  0
  -24.8505  -28.9589   20.1135 C   0  0  0  0  0  0
  -22.7403  -29.4668   22.4972 C   0  0  0  0  0  0
  -18.0275  -28.1385   22.8494 C   0  0  0  0  0  0
  -24.1480  -36.7322   23.2639 C   0  0  0  0  0  0
  -25.9278  -30.8409   21.3616 C   0  0  0  0  0  0
  -26.0084  -29.4766   20.7095 C   0  0  0  0  0  0
  -27.2066  -28.7300   20.7027 C   0  0  0  0  0  0
  -26.0703  -26.9448   19.4961 C   0  0  0  0  0  0
  -24.8745  -27.6903   19.5058 C   0  0  0  0  0  0
  -23.6102  -29.8224   20.1633 C   0  0  0  0  0  0
  -25.4102  -36.3111   24.0339 C   0  0  1  0  0  0
  -20.5869  -28.3668   23.1312 C   0  0  2  0  0  0
  -20.6765  -26.9400   22.5416 C   0  0  0  0  0  0
  -19.5741  -26.6383   21.5212 C   0  0  0  0  0  0
  -18.1920  -26.7930   22.1627 C   0  0  0  0  0  0
  -19.1527  -28.8841   23.2904 C   0  0  0  0  0  0
  -18.9457  -30.1443   23.8917 C   0  0  0  0  0  0
  -17.6462  -30.6582   24.0573 C   0  0  0  0  0  0
  -25.9025  -34.9474   23.5133 C   0  0  0  0  0  0
  -16.5353  -29.9094   23.6323 C   0  0  0  0  0  0
  -16.7268  -28.6517   23.0334 C   0  0  0  0  0  0
  -26.4470  -31.6603   25.0726 C   0  0  0  0  0  0
  -25.3762  -31.3714   26.1490 C   0  0  0  0  0  0
  -27.0296  -30.3041   24.6112 C   0  0  0  0  0  0
  -27.6044  -32.4325   25.7494 C   0  0  0  0  0  0
  -27.5576  -37.1812   24.8464 C   0  0  0  0  0  0
  -21.4137  -29.3044   22.3710 N   0  0  0  0  0  0
  -26.4288  -37.3796   23.9406 N   0  0  0  0  0  0
  -24.6647  -31.0825   22.0989 N   0  0  0  0  0  0
  -23.4185  -28.8195   23.2986 O   0  0  0  0  0  0
  -28.3777  -26.6906   20.1003 O   0  0  0  0  0  0
  -26.5589  -34.8919   22.4689 O   0  0  0  0  0  0
  -23.5329  -32.1432   23.7533 O   0  0  0  0  0  0
  -29.4283  -18.0724   24.4273 C   0  0  0  0  0  0
  -29.6300  -19.4400   24.1790 C   0  0  0  0  0  0
  -29.2916  -17.1727   23.3558 C   0  0  0  0  0  0
  -29.5429  -19.0148   21.7815 C   0  0  0  0  0  0
  -29.6767  -19.9273   22.8577 C   0  0  0  0  0  0
  -29.3614  -17.6168   22.0145 C   0  0  0  0  0  0
  -29.9182  -21.3977   22.6453 C   0  0  0  0  0  0
  -29.6979  -16.2513   18.2600 C   0  0  0  0  0  0
  -28.0439  -17.8890   19.1010 C   0  0  0  0  0  0
  -28.7515  -24.3824   20.9260 C   0  0  0  0  0  0
  -28.7254  -23.5230   22.2076 C   0  0  0  0  0  0
  -28.4915  -25.8674   21.2653 C   0  0  0  0  0  0
  -29.2930  -16.5427   20.8953 C   0  0  1  0  0  0
  -29.3676  -17.1703   19.4483 C   0  0  0  0  0  0
  -28.9589  -22.0832   22.0049 N   0  0  0  0  0  0
  -30.2835  -15.4996   21.2512 N   0  0  0  0  0  0
  -30.8979  -21.9392   23.1611 O   0  0  0  0  0  0
  -31.4596  -12.3303   19.1690 H   0  0  0  0  0  0
  -30.2653  -11.2986   19.8883 H   0  0  0  0  0  0
  -29.7250  -11.6817   17.4794 H   0  0  0  0  0  0
  -29.7107  -13.3985   17.7158 H   0  0  0  0  0  0
  -27.8025  -11.3124   18.8201 H   0  0  0  0  0  0
  -27.3767  -12.6490   17.7856 H   0  0  0  0  0  0
  -27.6792  -14.2587   19.5545 H   0  0  0  0  0  0
  -28.6755  -12.0459   21.4043 H   0  0  0  0  0  0
  -28.4815  -13.7188   21.8352 H   0  0  0  0  0  0
  -25.2743   -9.5660   22.4787 H   0  0  0  0  0  0
  -23.9978   -7.4613   22.7496 H   0  0  0  0  0  0
  -21.0828   -8.8712   19.8964 H   0  0  0  0  0  0
  -22.3654  -10.9640   19.6187 H   0  0  0  0  0  0
  -21.1945   -7.6133   23.9698 H   0  0  0  0  0  0
  -21.1543   -6.0551   25.9096 H   0  0  0  0  0  0
  -22.0559   -2.7588   23.2873 H   0  0  0  0  0  0
  -22.4044  -11.9931   22.4878 H   0  0  0  0  0  0
  -21.1069  -13.1276   22.2509 H   0  0  0  0  0  0
  -24.6579  -15.8384   20.5718 H   0  0  0  0  0  0
  -26.2762  -15.6363   20.1220 H   0  0  0  0  0  0
  -26.7112  -32.5547   23.1178 H   0  0  0  0  0  0
  -25.0048  -33.9794   25.0486 H   0  0  0  0  0  0
  -22.6901  -31.3087   21.4077 H   0  0  0  0  0  0
  -23.3732  -35.9663   23.3321 H   0  0  0  0  0  0
  -24.3575  -36.8928   22.2051 H   0  0  0  0  0  0
  -23.7246  -37.6539   23.6644 H   0  0  0  0  0  0
  -26.0399  -31.6098   20.5963 H   0  0  0  0  0  0
  -26.8159  -30.8958   21.9800 H   0  0  0  0  0  0
  -28.0993  -29.1242   21.1677 H   0  0  0  0  0  0
  -26.0848  -25.9665   19.0368 H   0  0  0  0  0  0
  -23.9835  -27.2860   19.0469 H   0  0  0  0  0  0
  -23.7158  -30.5965   19.4024 H   0  0  0  0  0  0
  -22.7364  -29.2390   19.8669 H   0  0  0  0  0  0
  -25.1276  -36.1982   25.0837 H   0  0  0  0  0  0
  -20.9969  -28.3232   24.1429 H   0  0  0  0  0  0
  -20.5659  -26.2278   23.3603 H   0  0  0  0  0  0
  -21.6635  -26.7426   22.1210 H   0  0  0  0  0  0
  -19.6897  -25.6296   21.1227 H   0  0  0  0  0  0
  -19.6682  -27.3207   20.6753 H   0  0  0  0  0  0
  -17.4189  -26.6687   21.4029 H   0  0  0  0  0  0
  -18.0320  -26.0065   22.9022 H   0  0  0  0  0  0
  -19.7934  -30.7250   24.2292 H   0  0  0  0  0  0
  -17.5022  -31.6257   24.5179 H   0  0  0  0  0  0
  -15.5359  -30.3005   23.7632 H   0  0  0  0  0  0
  -15.8670  -28.0849   22.7023 H   0  0  0  0  0  0
  -24.5901  -30.7095   25.7849 H   0  0  0  0  0  0
  -24.8987  -32.2873   26.4976 H   0  0  0  0  0  0
  -25.8121  -30.8858   27.0228 H   0  0  0  0  0  0
  -26.2845  -29.6813   24.1154 H   0  0  0  0  0  0
  -27.4048  -29.7267   25.4577 H   0  0  0  0  0  0
  -27.8681  -30.4356   23.9271 H   0  0  0  0  0  0
  -27.2645  -33.3597   26.2115 H   0  0  0  0  0  0
  -28.3823  -32.6945   25.0317 H   0  0  0  0  0  0
  -28.0739  -31.8437   26.5384 H   0  0  0  0  0  0
  -28.2596  -38.0104   24.7490 H   0  0  0  0  0  0
  -28.1062  -36.2635   24.6296 H   0  0  0  0  0  0
  -27.2296  -37.1477   25.8868 H   0  0  0  0  0  0
  -20.9280  -29.8793   21.6971 H   0  0  0  0  0  0
  -26.0180  -38.2874   24.1410 H   0  0  0  0  0  0
  -29.3954  -17.7140   25.4470 H   0  0  0  0  0  0
  -29.7389  -20.1238   25.0101 H   0  0  0  0  0  0
  -29.1536  -16.1216   23.5738 H   0  0  0  0  0  0
  -29.6113  -19.4231   20.7854 H   0  0  0  0  0  0
  -29.6177  -16.7926   17.3165 H   0  0  0  0  0  0
  -29.0085  -15.4136   18.1968 H   0  0  0  0  0  0
  -30.7221  -15.8861   18.2926 H   0  0  0  0  0  0
  -28.1333  -18.4585   18.1754 H   0  0  0  0  0  0
  -27.7209  -18.5871   19.8702 H   0  0  0  0  0  0
  -27.2344  -17.1707   18.9666 H   0  0  0  0  0  0
  -27.9927  -24.0282   20.2266 H   0  0  0  0  0  0
  -29.7158  -24.2868   20.4236 H   0  0  0  0  0  0
  -27.7472  -23.6219   22.6836 H   0  0  0  0  0  0
  -29.4372  -23.9410   22.9231 H   0  0  0  0  0  0
  -29.3044  -26.2543   21.8836 H   0  0  0  0  0  0
  -27.5938  -25.9271   21.8858 H   0  0  0  0  0  0
  -28.3183  -16.0620   20.9974 H   0  0  0  0  0  0
  -30.1770  -17.9007   19.4319 H   0  0  0  0  0  0
  -28.1989  -21.5382   21.6198 H   0  0  0  0  0  0
  -31.0564  -15.9610   21.7078 H   0  0  0  0  0  0
  1 25  1  0  0  0
  1 30  2  0  0  0
  1 86  1  0  0  0
  2  3  1  0  0  0
  2 25  1  0  0  0
  2 88  1  0  0  0
  2 89  1  0  0  0
  3  4  1  0  0  0
  3 90  1  0  0  0
  3 91  1  0  0  0
  4  5  1  0  0  0
  4 92  1  0  0  0
  4 93  1  0  0  0
  5  6  1  0  0  0
  5 26  1  0  0  0
  5 94  1  0  0  0
  6 25  1  0  0  0
  6 95  1  0  0  0
  6 96  1  0  0  0
  7  8  2  0  0  0
  7 26  1  0  0  0
  7 29  1  0  0  0
  8  9  1  0  0  0
  8 22  1  0  0  0
  9 10  1  0  0  0
  9 27  2  0  0  0
 10 11  2  0  0  0
 10 15  1  0  0  0
 11 12  1  0  0  0
 11 97  1  0  0  0
 12 13  2  0  0  0
 12 98  1  0  0  0
 13 14  1  0  0  0
 13 31  1  0  0  0
 14 15  2  0  0  0
 14 99  1  0  0  0
 15100  1  0  0  0
 16 17  2  0  0  0
 16 21  1  0  0  0
 16 31  1  0  0  0
 17 18  1  0  0  0
 17101  1  0  0  0
 18 19  2  0  0  0
 18102  1  0  0  0
 19 20  1  0  0  0
 19 24  1  0  0  0
 20 21  2  0  0  0
 20103  1  0  0  0
 21 23  1  0  0  0
 22 28  1  0  0  0
 22 32  2  0  0  0
 26 27  1  0  0  0
 28104  1  0  0  0
 28105  1  0  0  0
 29106  1  0  0  0
 29107  1  0  0  0
 33 34  1  0  0  0
 33 66  1  0  0  0
 33 70  2  0  0  0
 34 36  1  0  0  0
 34 59  1  0  0  0
 34108  1  0  0  0
 35 44  2  0  0  0
 35 45  1  0  0  0
 35 68  1  0  0  0
 36 56  1  0  0  0
 36109  1  0  0  0
 37 39  1  0  0  0
 37 47  1  0  0  0
 37 66  1  0  0  0
 37110  1  0  0  0
 38 43  2  0  0  0
 38 46  1  0  0  0
 38 47  1  0  0  0
 39 64  1  0  0  0
 39 67  2  0  0  0
 40 52  1  0  0  0
 40 53  2  0  0  0
 40 58  1  0  0  0
 41111  1  0  0  0
 41112  1  0  0  0
 41113  1  0  0  0
 41 48  1  0  0  0
 42 43  1  0  0  0
 42 66  1  0  0  0
 42114  1  0  0  0
 42115  1  0  0  0
 43 44  1  0  0  0
 44116  1  0  0  0
 45 46  2  0  0  0
 45117  1  0  0  0
 46118  1  0  0  0
 47119  1  0  0  0
 47120  1  0  0  0
 48 56  1  0  0  0
 48 65  1  0  0  0
 48121  1  0  0  0
 49 50  1  0  0  0
 49 53  1  0  0  0
 49 64  1  0  0  0
 49122  1  0  0  0
 50 51  1  0  0  0
 50123  1  0  0  0
 50124  1  0  0  0
 51 52  1  0  0  0
 51125  1  0  0  0
 51126  1  0  0  0
 52127  1  0  0  0
 52128  1  0  0  0
 53 54  1  0  0  0
 54 55  2  0  0  0
 54129  1  0  0  0
 55 57  1  0  0  0
 55130  1  0  0  0
 56 69  2  0  0  0
 57 58  2  0  0  0
 57131  1  0  0  0
 58132  1  0  0  0
 59 60  1  0  0  0
 59 61  1  0  0  0
 59 62  1  0  0  0
 60133  1  0  0  0
 60134  1  0  0  0
 60135  1  0  0  0
 61136  1  0  0  0
 61137  1  0  0  0
 61138  1  0  0  0
 62139  1  0  0  0
 62140  1  0  0  0
 62141  1  0  0  0
 63 65  1  0  0  0
 63142  1  0  0  0
 63143  1  0  0  0
 63144  1  0  0  0
 64145  1  0  0  0
 65146  1  0  0  0
 68 82  1  0  0  0
 71 72  2  0  0  0
 71 73  1  0  0  0
 71147  1  0  0  0
 72 75  1  0  0  0
 72148  1  0  0  0
 73 76  2  0  0  0
 73149  1  0  0  0
 74 75  2  0  0  0
 74 76  1  0  0  0
 74150  1  0  0  0
 75 77  1  0  0  0
 76 83  1  0  0  0
 77 85  1  0  0  0
 77 87  2  0  0  0
 78151  1  0  0  0
 78152  1  0  0  0
 78153  1  0  0  0
 78 84  1  0  0  0
 79 84  1  0  0  0
 79154  1  0  0  0
 79155  1  0  0  0
 79156  1  0  0  0
 80 81  1  0  0  0
 80 82  1  0  0  0
 80157  1  0  0  0
 80158  1  0  0  0
 81 85  1  0  0  0
 81159  1  0  0  0
 81160  1  0  0  0
 82161  1  0  0  0
 82162  1  0  0  0
 83 84  1  0  0  0
 83 86  1  0  0  0
 83163  1  0  0  0
 84164  1  0  0  0
 85165  1  0  0  0
 86166  1  0  0  0
M  ISO  4   1 100  68 101  82 101  86 100
M  END
> <chiral flag>
0

> <version>
0

> <s_m_source_file>
/data/baiqing/PycharmProjects/Reinvent-master-3.2/result/LINK_invent/BTK/process_docking_weight1_custom_product_contain_oxygen_bond_distance_aromatic_linkinvent_7_9_3/rearranged_h_0000.sdf

> <i_m_source_file_index>
69

> <r_mmod_Potential_Energy-OPLS-2005>
-21.6694087982178

> <r_mmod_Stretch_Energy-OPLS-2005>
41.9730224609375

> <r_mmod_Bend_Energy-OPLS-2005>
134.679733276367

> <r_mmod_Torsional_Energy-OPLS-2005>
318.951171875

> <r_mmod_Improper_Torsional_Energy-OPLS-2005>
8.20761966705322

> <r_mmod_Van_der_Waal_Energy-OPLS-2005>
151.632217407227

> <r_mmod_Electrostatic_Energy-OPLS-2005>
-473.850006103516

> <r_mmod_Solvation_Energy-OPLS-2005>
-219.547637939453

> <b_mmod_Minimization_Converged-OPLS-2005>
0

> <r_mmod_RMS_Derivative-OPLS-2005>
3.00854682922363

$$$$
69
                    3D
 Structure written by MMmdl.
172179  0  0  1  0            999 V2000
  -30.7075  -14.4201   20.6075 C   0  0  0  0  0  0
  -30.4264  -12.2844   19.4180 C   0  0  0  0  0  0
  -29.5037  -12.5189   18.2033 C   0  0  0  0  0  0
  -28.0186  -12.3910   18.6036 C   0  0  0  0  0  0
  -27.6675  -13.2032   19.8793 C   0  0  2  0  0  0
  -28.7031  -12.9413   20.9976 C   0  0  0  0  0  0
  -25.2600  -13.8151   20.5629 C   0  0  0  0  0  0
  -24.1844  -13.0433   20.9119 C   0  0  0  0  0  0
  -24.6389  -11.6908   20.8694 C   0  0  0  0  0  0
  -23.9064  -10.4286   21.0378 C   0  0  0  0  0  0
  -24.3607   -9.4212   21.9166 C   0  0  0  0  0  0
  -23.6287   -8.2258   22.0751 C   0  0  0  0  0  0
  -22.4268   -8.0283   21.3542 C   0  0  0  0  0  0
  -21.9899   -9.0261   20.4649 C   0  0  0  0  0  0
  -22.7232  -10.2131   20.3043 C   0  0  0  0  0  0
  -21.6864   -6.0740   22.5281 C   0  0  0  0  0  0
  -21.4028   -6.5634   23.8210 C   0  0  0  0  0  0
  -21.3649   -5.6787   24.9177 C   0  0  0  0  0  0
  -21.6045   -4.3057   24.7219 C   0  0  0  0  0  0
  -21.8822   -3.8134   23.4352 C   0  0  0  0  0  0
  -21.9193   -4.6966   22.3399 C   0  0  0  0  0  0
  -22.7865  -13.5257   21.1810 C   0  0  0  0  0  0
  -22.1662   -4.2140   21.0990 F   0  0  0  0  0  0
  -21.5618   -3.4535   25.7747 F   0  0  0  0  0  0
  -30.0463  -13.2406   20.4656 N   0  0  0  0  0  0
  -26.3038  -12.9315   20.3324 N   0  0  0  0  0  0
  -25.9307  -11.6471   20.5693 N   0  0  0  0  0  0
  -22.0506  -12.8256   22.0376 N   0  0  0  0  0  0
  -25.4329  -15.1890   20.4059 N   0  0  0  0  0  0
  -31.7895  -14.6684   20.0723 O   0  0  0  0  0  0
  -21.6643   -6.8882   21.4239 O   0  0  0  0  0  0
  -22.3550  -14.5550   20.6668 O   0  0  0  0  0  0
  -24.6092  -31.8693   23.2142 C   0  0  0  0  0  0
  -25.9017  -32.4814   23.8416 C   0  0  1  0  0  0
  -27.2440  -27.4779   20.0806 C   0  0  0  0  0  0
  -25.5939  -33.8622   24.2360 N   0  0  0  0  0  0
  -23.3995  -30.4868   21.5542 C   0  0  2  0  0  0
  -24.8493  -28.9583   20.1185 C   0  0  0  0  0  0
  -22.7383  -29.4619   22.5029 C   0  0  0  0  0  0
  -18.0266  -28.1342   22.8501 C   0  0  0  0  0  0
  -24.1492  -36.7299   23.2631 C   0  0  0  0  0  0
  -25.9215  -30.8455   21.3618 C   0  0  0  0  0  0
  -26.0036  -29.4784   20.7165 C   0  0  0  0  0  0
  -27.2054  -28.7408   20.7066 C   0  0  0  0  0  0
  -26.0811  -26.9611   19.4772 C   0  0  0  0  0  0
  -24.8790  -27.6952   19.5003 C   0  0  0  0  0  0
  -23.6089  -29.8213   20.1674 C   0  0  0  0  0  0
  -25.4106  -36.3113   24.0342 C   0  0  1  0  0  0
  -20.5861  -28.3645   23.1373 C   0  0  2  0  0  0
  -20.6809  -26.9368   22.5513 C   0  0  0  0  0  0
  -19.5778  -26.6219   21.5352 C   0  0  0  0  0  0
  -18.1935  -26.7850   22.1729 C   0  0  0  0  0  0
  -19.1504  -28.8817   23.2893 C   0  0  0  0  0  0
  -18.9442  -30.1458   23.8852 C   0  0  0  0  0  0
  -17.6429  -30.6572   24.0523 C   0  0  0  0  0  0
  -25.9036  -34.9483   23.5129 C   0  0  0  0  0  0
  -16.5327  -29.9074   23.6286 C   0  0  0  0  0  0
  -16.7261  -28.6500   23.0312 C   0  0  0  0  0  0
  -26.4484  -31.6580   25.0710 C   0  0  0  0  0  0
  -25.3771  -31.3688   26.1469 C   0  0  0  0  0  0
  -27.0282  -30.3036   24.6022 C   0  0  0  0  0  0
  -27.6076  -32.4269   25.7467 C   0  0  0  0  0  0
  -27.5574  -37.1801   24.8463 C   0  0  0  0  0  0
  -21.4119  -29.2995   22.3761 N   0  0  0  0  0  0
  -26.4298  -37.3783   23.9425 N   0  0  0  0  0  0
  -24.6612  -31.0823   22.1022 N   0  0  0  0  0  0
  -23.4187  -28.8140   23.3016 O   0  0  0  0  0  0
  -28.3955  -26.7408   20.0193 O   0  0  0  0  0  0
  -26.5574  -34.8936   22.4670 O   0  0  0  0  0  0
  -23.5304  -32.1441   23.7560 O   0  0  0  0  0  0
  -30.0902  -16.7995   20.9320 C   0  0  0  0  0  0
  -30.7378  -17.6444   22.0371 C   0  0  0  0  0  0
  -28.8595  -26.2437   21.2718 C   0  0  0  0  0  0
  -27.9962  -25.0556   21.7292 C   0  0  0  0  0  0
  -31.0454  -19.9436   22.6039 C   0  0  0  0  0  0
  -30.0824  -21.1279   22.7408 C   0  0  0  0  0  0
  -25.7318  -24.6120   22.2669 C   0  0  0  0  0  0
  -24.7110  -24.9202   23.3704 C   0  0  0  0  0  0
  -27.9187  -21.6892   23.4960 C   0  0  0  0  0  0
  -26.5869  -21.1179   24.0073 C   0  0  0  0  0  0
  -23.4210  -23.0843   24.2454 C   0  0  0  0  0  0
  -24.3242  -21.8633   23.9886 C   0  0  0  0  0  0
  -30.0100  -15.3719   21.2400 N   0  0  0  0  0  0
  -30.4601  -18.9994   21.7165 O   0  0  0  0  0  0
  -26.8204  -25.5147   22.3840 O   0  0  0  0  0  0
  -28.8962  -20.6679   23.3825 O   0  0  0  0  0  0
  -23.5552  -24.0957   23.2439 O   0  0  0  0  0  0
  -25.6859  -22.1993   24.2016 O   0  0  0  0  0  0
  -31.4734  -12.3821   19.1272 H   0  0  0  0  0  0
  -30.3144  -11.2654   19.7890 H   0  0  0  0  0  0
  -29.7427  -11.8095   17.4087 H   0  0  0  0  0  0
  -29.6886  -13.5118   17.7874 H   0  0  0  0  0  0
  -27.8092  -11.3337   18.7639 H   0  0  0  0  0  0
  -27.3828  -12.7021   17.7732 H   0  0  0  0  0  0
  -27.7255  -14.2585   19.6098 H   0  0  0  0  0  0
  -28.6617  -11.8959   21.3074 H   0  0  0  0  0  0
  -28.4571  -13.5126   21.8940 H   0  0  0  0  0  0
  -25.2766   -9.5702   22.4714 H   0  0  0  0  0  0
  -24.0008   -7.4657   22.7470 H   0  0  0  0  0  0
  -21.0824   -8.8776   19.8962 H   0  0  0  0  0  0
  -22.3696  -10.9656   19.6130 H   0  0  0  0  0  0
  -21.2039   -7.6150   23.9723 H   0  0  0  0  0  0
  -21.1460   -6.0517   25.9083 H   0  0  0  0  0  0
  -22.0607   -2.7599   23.2857 H   0  0  0  0  0  0
  -22.4112  -11.9944   22.4795 H   0  0  0  0  0  0
  -21.1120  -13.1278   22.2562 H   0  0  0  0  0  0
  -24.6656  -15.8447   20.5158 H   0  0  0  0  0  0
  -26.2936  -15.6288   20.1035 H   0  0  0  0  0  0
  -26.7083  -32.5552   23.1185 H   0  0  0  0  0  0
  -25.0169  -33.9791   25.0570 H   0  0  0  0  0  0
  -22.6869  -31.3009   21.4149 H   0  0  0  0  0  0
  -23.3756  -35.9617   23.3310 H   0  0  0  0  0  0
  -24.3566  -36.8888   22.2030 H   0  0  0  0  0  0
  -23.7254  -37.6522   23.6617 H   0  0  0  0  0  0
  -26.0179  -31.6132   20.5906 H   0  0  0  0  0  0
  -26.8144  -30.9086   21.9726 H   0  0  0  0  0  0
  -28.0986  -29.1463   21.1616 H   0  0  0  0  0  0
  -26.1114  -25.9921   18.9977 H   0  0  0  0  0  0
  -23.9910  -27.2878   19.0365 H   0  0  0  0  0  0
  -23.7176  -30.5993   19.4100 H   0  0  0  0  0  0
  -22.7377  -29.2349   19.8672 H   0  0  0  0  0  0
  -25.1277  -36.1959   25.0827 H   0  0  0  0  0  0
  -20.9893  -28.3233   24.1513 H   0  0  0  0  0  0
  -20.5753  -26.2269   23.3727 H   0  0  0  0  0  0
  -21.6697  -26.7418   22.1321 H   0  0  0  0  0  0
  -19.6920  -25.6036   21.1617 H   0  0  0  0  0  0
  -19.6761  -27.2833   20.6742 H   0  0  0  0  0  0
  -17.4187  -26.6492   21.4157 H   0  0  0  0  0  0
  -18.0382  -26.0083   22.9237 H   0  0  0  0  0  0
  -19.7905  -30.7305   24.2206 H   0  0  0  0  0  0
  -17.4967  -31.6254   24.5120 H   0  0  0  0  0  0
  -15.5313  -30.2972   23.7576 H   0  0  0  0  0  0
  -15.8678  -28.0792   22.7029 H   0  0  0  0  0  0
  -24.5941  -30.7024   25.7846 H   0  0  0  0  0  0
  -24.8946  -32.2826   26.4933 H   0  0  0  0  0  0
  -25.8136  -30.8867   27.0224 H   0  0  0  0  0  0
  -26.2799  -29.6813   24.1095 H   0  0  0  0  0  0
  -27.4126  -29.7240   25.4433 H   0  0  0  0  0  0
  -27.8603  -30.4393   23.9106 H   0  0  0  0  0  0
  -27.2731  -33.3565   26.2086 H   0  0  0  0  0  0
  -28.3867  -32.6829   25.0273 H   0  0  0  0  0  0
  -28.0758  -31.8351   26.5336 H   0  0  0  0  0  0
  -28.2608  -38.0096   24.7512 H   0  0  0  0  0  0
  -28.1083  -36.2625   24.6296 H   0  0  0  0  0  0
  -27.2295  -37.1452   25.8876 H   0  0  0  0  0  0
  -20.9249  -29.8767   21.7044 H   0  0  0  0  0  0
  -26.0187  -38.2855   24.1460 H   0  0  0  0  0  0
  -30.5994  -16.9803   19.9827 H   0  0  0  0  0  0
  -29.0656  -17.1428   20.7851 H   0  0  0  0  0  0
  -31.8133  -17.4684   22.0890 H   0  0  0  0  0  0
  -30.3065  -17.4046   23.0116 H   0  0  0  0  0  0
  -28.9196  -27.0165   22.0362 H   0  0  0  0  0  0
  -29.8749  -25.8849   21.1087 H   0  0  0  0  0  0
  -28.5553  -24.4550   22.4471 H   0  0  0  0  0  0
  -27.7778  -24.4153   20.8733 H   0  0  0  0  0  0
  -31.2477  -19.5226   23.5904 H   0  0  0  0  0  0
  -31.9984  -20.2734   22.1866 H   0  0  0  0  0  0
  -29.8598  -21.5490   21.7573 H   0  0  0  0  0  0
  -30.5392  -21.9193   23.3377 H   0  0  0  0  0  0
  -25.2804  -24.6993   21.2791 H   0  0  0  0  0  0
  -26.0769  -23.5865   22.3405 H   0  0  0  0  0  0
  -24.3944  -25.9598   23.2777 H   0  0  0  0  0  0
  -25.1764  -24.8362   24.3527 H   0  0  0  0  0  0
  -28.2771  -22.4738   24.1646 H   0  0  0  0  0  0
  -27.7567  -22.1351   22.5148 H   0  0  0  0  0  0
  -26.7205  -20.5968   24.9561 H   0  0  0  0  0  0
  -26.2086  -20.3947   23.2832 H   0  0  0  0  0  0
  -23.5620  -23.4968   25.2468 H   0  0  0  0  0  0
  -22.3842  -22.7448   24.2052 H   0  0  0  0  0  0
  -24.1678  -21.4936   22.9734 H   0  0  0  0  0  0
  -24.0577  -21.0609   24.6753 H   0  0  0  0  0  0
  -29.1710  -15.0633   21.7073 H   0  0  0  0  0  0
  1 25  1  0  0  0
  1 30  2  0  0  0
  1 83  1  0  0  0
  2  3  1  0  0  0
  2 25  1  0  0  0
  2 89  1  0  0  0
  2 90  1  0  0  0
  3  4  1  0  0  0
  3 91  1  0  0  0
  3 92  1  0  0  0
  4  5  1  0  0  0
  4 93  1  0  0  0
  4 94  1  0  0  0
  5  6  1  0  0  0
  5 26  1  0  0  0
  5 95  1  0  0  0
  6 25  1  0  0  0
  6 96  1  0  0  0
  6 97  1  0  0  0
  7  8  2  0  0  0
  7 26  1  0  0  0
  7 29  1  0  0  0
  8  9  1  0  0  0
  8 22  1  0  0  0
  9 10  1  0  0  0
  9 27  2  0  0  0
 10 11  2  0  0  0
 10 15  1  0  0  0
 11 12  1  0  0  0
 11 98  1  0  0  0
 12 13  2  0  0  0
 12 99  1  0  0  0
 13 14  1  0  0  0
 13 31  1  0  0  0
 14 15  2  0  0  0
 14100  1  0  0  0
 15101  1  0  0  0
 16 17  2  0  0  0
 16 21  1  0  0  0
 16 31  1  0  0  0
 17 18  1  0  0  0
 17102  1  0  0  0
 18 19  2  0  0  0
 18103  1  0  0  0
 19 20  1  0  0  0
 19 24  1  0  0  0
 20 21  2  0  0  0
 20104  1  0  0  0
 21 23  1  0  0  0
 22 28  1  0  0  0
 22 32  2  0  0  0
 26 27  1  0  0  0
 28105  1  0  0  0
 28106  1  0  0  0
 29107  1  0  0  0
 29108  1  0  0  0
 33 34  1  0  0  0
 33 66  1  0  0  0
 33 70  2  0  0  0
 34 36  1  0  0  0
 34 59  1  0  0  0
 34109  1  0  0  0
 35 44  2  0  0  0
 35 45  1  0  0  0
 35 68  1  0  0  0
 36 56  1  0  0  0
 36110  1  0  0  0
 37 39  1  0  0  0
 37 47  1  0  0  0
 37 66  1  0  0  0
 37111  1  0  0  0
 38 43  2  0  0  0
 38 46  1  0  0  0
 38 47  1  0  0  0
 39 64  1  0  0  0
 39 67  2  0  0  0
 40 52  1  0  0  0
 40 53  2  0  0  0
 40 58  1  0  0  0
 41112  1  0  0  0
 41113  1  0  0  0
 41114  1  0  0  0
 41 48  1  0  0  0
 42 43  1  0  0  0
 42 66  1  0  0  0
 42115  1  0  0  0
 42116  1  0  0  0
 43 44  1  0  0  0
 44117  1  0  0  0
 45 46  2  0  0  0
 45118  1  0  0  0
 46119  1  0  0  0
 47120  1  0  0  0
 47121  1  0  0  0
 48 56  1  0  0  0
 48 65  1  0  0  0
 48122  1  0  0  0
 49 50  1  0  0  0
 49 53  1  0  0  0
 49 64  1  0  0  0
 49123  1  0  0  0
 50 51  1  0  0  0
 50124  1  0  0  0
 50125  1  0  0  0
 51 52  1  0  0  0
 51126  1  0  0  0
 51127  1  0  0  0
 52128  1  0  0  0
 52129  1  0  0  0
 53 54  1  0  0  0
 54 55  2  0  0  0
 54130  1  0  0  0
 55 57  1  0  0  0
 55131  1  0  0  0
 56 69  2  0  0  0
 57 58  2  0  0  0
 57132  1  0  0  0
 58133  1  0  0  0
 59 60  1  0  0  0
 59 61  1  0  0  0
 59 62  1  0  0  0
 60134  1  0  0  0
 60135  1  0  0  0
 60136  1  0  0  0
 61137  1  0  0  0
 61138  1  0  0  0
 61139  1  0  0  0
 62140  1  0  0  0
 62141  1  0  0  0
 62142  1  0  0  0
 63 65  1  0  0  0
 63143  1  0  0  0
 63144  1  0  0  0
 63145  1  0  0  0
 64146  1  0  0  0
 65147  1  0  0  0
 68 73  1  0  0  0
 71 72  1  0  0  0
 71 83  1  0  0  0
 71148  1  0  0  0
 71149  1  0  0  0
 72 84  1  0  0  0
 72150  1  0  0  0
 72151  1  0  0  0
 73 74  1  0  0  0
 73152  1  0  0  0
 73153  1  0  0  0
 74 85  1  0  0  0
 74154  1  0  0  0
 74155  1  0  0  0
 75 76  1  0  0  0
 75 84  1  0  0  0
 75156  1  0  0  0
 75157  1  0  0  0
 76 86  1  0  0  0
 76158  1  0  0  0
 76159  1  0  0  0
 77 78  1  0  0  0
 77 85  1  0  0  0
 77160  1  0  0  0
 77161  1  0  0  0
 78 87  1  0  0  0
 78162  1  0  0  0
 78163  1  0  0  0
 79 80  1  0  0  0
 79 86  1  0  0  0
 79164  1  0  0  0
 79165  1  0  0  0
 80 88  1  0  0  0
 80166  1  0  0  0
 80167  1  0  0  0
 81 82  1  0  0  0
 81 87  1  0  0  0
 81168  1  0  0  0
 81169  1  0  0  0
 82 88  1  0  0  0
 82170  1  0  0  0
 82171  1  0  0  0
 83172  1  0  0  0
M  ISO  4   1 100  68 101  73 101  83 100
M  END
> <chiral flag>
0

> <version>
0

> <s_m_source_file>
/data/baiqing/PycharmProjects/Reinvent-master-3.2/result/LINK_invent/BTK/process_docking_weight1_custom_product_contain_oxygen_bond_distance_aromatic_linkinvent_7_9_3/rearranged_h_0000.sdf

> <i_m_source_file_index>
70

> <r_mmod_Potential_Energy-OPLS-2005>
-91.5160980224609

> <r_mmod_Stretch_Energy-OPLS-2005>
31.528736114502

> <r_mmod_Bend_Energy-OPLS-2005>
96.138313293457

> <r_mmod_Torsional_Energy-OPLS-2005>
236.498550415039

> <r_mmod_Improper_Torsional_Energy-OPLS-2005>
4.97384929656982

> <r_mmod_Van_der_Waal_Energy-OPLS-2005>
121.936805725098

> <r_mmod_Electrostatic_Energy-OPLS-2005>
-356.765014648438

> <r_mmod_Solvation_Energy-OPLS-2005>
-233.270050048828

> <b_mmod_Minimization_Converged-OPLS-2005>
0

> <r_mmod_RMS_Derivative-OPLS-2005>
4.21422338485718

$$$$
70
                    3D
 Structure written by MMmdl.
170177  0  0  1  0            999 V2000
  -30.7685  -14.3493   20.6491 C   0  0  0  0  0  0
  -30.4124  -12.2670   19.3807 C   0  0  0  0  0  0
  -29.4757  -12.5103   18.1826 C   0  0  0  0  0  0
  -27.9964  -12.3929   18.5980 C   0  0  0  0  0  0
  -27.6661  -13.1985   19.8802 C   0  0  2  0  0  0
  -28.7097  -12.9280   20.9883 C   0  0  0  0  0  0
  -25.2625  -13.8152   20.5688 C   0  0  0  0  0  0
  -24.1861  -13.0457   20.9173 C   0  0  0  0  0  0
  -24.6383  -11.6909   20.8742 C   0  0  0  0  0  0
  -23.9029  -10.4298   21.0398 C   0  0  0  0  0  0
  -24.3590   -9.4216   21.9181 C   0  0  0  0  0  0
  -23.6271   -8.2253   22.0755 C   0  0  0  0  0  0
  -22.4256   -8.0277   21.3543 C   0  0  0  0  0  0
  -21.9888   -9.0244   20.4650 C   0  0  0  0  0  0
  -22.7196  -10.2131   20.3053 C   0  0  0  0  0  0
  -21.6839   -6.0735   22.5272 C   0  0  0  0  0  0
  -21.4007   -6.5645   23.8207 C   0  0  0  0  0  0
  -21.3676   -5.6791   24.9161 C   0  0  0  0  0  0
  -21.6057   -4.3053   24.7223 C   0  0  0  0  0  0
  -21.8818   -3.8151   23.4340 C   0  0  0  0  0  0
  -21.9193   -4.6968   22.3391 C   0  0  0  0  0  0
  -22.7880  -13.5256   21.1821 C   0  0  0  0  0  0
  -22.1658   -4.2151   21.0969 F   0  0  0  0  0  0
  -21.5636   -3.4543   25.7744 F   0  0  0  0  0  0
  -30.0493  -13.2173   20.4398 N   0  0  0  0  0  0
  -26.3057  -12.9304   20.3406 N   0  0  0  0  0  0
  -25.9301  -11.6477   20.5755 N   0  0  0  0  0  0
  -22.0495  -12.8269   22.0381 N   0  0  0  0  0  0
  -25.4440  -15.1867   20.4084 N   0  0  0  0  0  0
  -31.8414  -14.5997   20.0962 O   0  0  0  0  0  0
  -21.6627   -6.8867   21.4230 O   0  0  0  0  0  0
  -22.3570  -14.5568   20.6646 O   0  0  0  0  0  0
  -24.6098  -31.8692   23.2151 C   0  0  0  0  0  0
  -25.9017  -32.4828   23.8403 C   0  0  1  0  0  0
  -27.2310  -27.4744   20.0857 C   0  0  0  0  0  0
  -25.5900  -33.8625   24.2354 N   0  0  0  0  0  0
  -23.3934  -30.4962   21.5527 C   0  0  2  0  0  0
  -24.8404  -28.9705   20.1098 C   0  0  0  0  0  0
  -22.7365  -29.4671   22.4989 C   0  0  0  0  0  0
  -18.0282  -28.1372   22.8518 C   0  0  0  0  0  0
  -24.1488  -36.7326   23.2638 C   0  0  0  0  0  0
  -25.9178  -30.8499   21.3604 C   0  0  0  0  0  0
  -25.9970  -29.4890   20.7053 C   0  0  0  0  0  0
  -27.1963  -28.7487   20.6889 C   0  0  0  0  0  0
  -26.0616  -26.9640   19.4799 C   0  0  0  0  0  0
  -24.8653  -27.7071   19.4937 C   0  0  0  0  0  0
  -23.6006  -29.8338   20.1646 C   0  0  0  0  0  0
  -25.4104  -36.3121   24.0344 C   0  0  1  0  0  0
  -20.5875  -28.3642   23.1347 C   0  0  2  0  0  0
  -20.6776  -26.9382   22.5439 C   0  0  0  0  0  0
  -19.5754  -26.6388   21.5226 C   0  0  0  0  0  0
  -18.1929  -26.7929   22.1639 C   0  0  0  0  0  0
  -19.1530  -28.8823   23.2940 C   0  0  0  0  0  0
  -18.9454  -30.1445   23.8922 C   0  0  0  0  0  0
  -17.6452  -30.6578   24.0575 C   0  0  0  0  0  0
  -25.9022  -34.9482   23.5139 C   0  0  0  0  0  0
  -16.5344  -29.9080   23.6331 C   0  0  0  0  0  0
  -16.7271  -28.6511   23.0330 C   0  0  0  0  0  0
  -26.4462  -31.6586   25.0701 C   0  0  0  0  0  0
  -25.3768  -31.3667   26.1471 C   0  0  0  0  0  0
  -27.0274  -30.3036   24.6026 C   0  0  0  0  0  0
  -27.6055  -32.4272   25.7462 C   0  0  0  0  0  0
  -27.5580  -37.1806   24.8449 C   0  0  0  0  0  0
  -21.4100  -29.3016   22.3747 N   0  0  0  0  0  0
  -26.4280  -37.3804   23.9423 N   0  0  0  0  0  0
  -24.6586  -31.0839   22.1027 N   0  0  0  0  0  0
  -23.4181  -28.8194   23.2983 O   0  0  0  0  0  0
  -28.4039  -26.7604   20.1200 O   0  0  0  0  0  0
  -26.5574  -34.8914   22.4690 O   0  0  0  0  0  0
  -23.5310  -32.1411   23.7586 O   0  0  0  0  0  0
  -30.6103  -21.9165   22.4747 C   0  0  0  0  0  0
  -29.7530  -20.7861   21.9080 C   0  0  0  0  0  0
  -30.3342  -20.1700   20.6239 C   0  0  0  0  0  0
  -29.6935  -18.8187   20.2744 C   0  0  0  0  0  0
  -30.2937  -17.6557   21.0761 C   0  0  0  0  0  0
  -29.4868  -16.3628   20.9209 C   0  0  0  0  0  0
  -31.1362  -23.1472   24.5574 C   0  0  0  0  0  0
  -29.9695  -24.1421   24.6341 C   0  0  0  0  0  0
  -28.2934  -25.3813   20.4786 C   0  0  0  0  0  0
  -27.5972  -25.1841   21.8424 C   0  0  0  0  0  0
  -27.5877  -24.0623   24.7502 C   0  0  0  0  0  0
  -27.0403  -23.4772   23.4312 C   0  0  0  0  0  0
  -30.7036  -21.9761   23.8061 N   0  0  0  0  0  0
  -30.2220  -15.2334   21.4829 N   0  0  0  0  0  0
  -31.1483  -22.7363   21.7276 O   0  0  0  0  0  0
  -28.8186  -23.4470   25.1074 O   0  0  0  0  0  0
  -27.7971  -23.8467   22.2813 O   0  0  0  0  0  0
  -31.4528  -12.3681   19.0692 H   0  0  0  0  0  0
  -30.3069  -11.2450   19.7479 H   0  0  0  0  0  0
  -29.6944  -11.7986   17.3867 H   0  0  0  0  0  0
  -29.6621  -13.5019   17.7680 H   0  0  0  0  0  0
  -27.7709  -11.3367   18.7518 H   0  0  0  0  0  0
  -27.3509  -12.7223   17.7819 H   0  0  0  0  0  0
  -27.7280  -14.2521   19.6163 H   0  0  0  0  0  0
  -28.6652  -11.8804   21.2915 H   0  0  0  0  0  0
  -28.4779  -13.5063   21.8840 H   0  0  0  0  0  0
  -25.2729   -9.5705   22.4754 H   0  0  0  0  0  0
  -23.9996   -7.4637   22.7462 H   0  0  0  0  0  0
  -21.0835   -8.8740   19.8934 H   0  0  0  0  0  0
  -22.3638  -10.9675   19.6166 H   0  0  0  0  0  0
  -21.1985   -7.6151   23.9711 H   0  0  0  0  0  0
  -21.1507   -6.0519   25.9065 H   0  0  0  0  0  0
  -22.0590   -2.7614   23.2828 H   0  0  0  0  0  0
  -22.4068  -11.9924   22.4779 H   0  0  0  0  0  0
  -21.1111  -13.1321   22.2563 H   0  0  0  0  0  0
  -24.6922  -15.8576   20.5195 H   0  0  0  0  0  0
  -26.3151  -15.6088   20.1123 H   0  0  0  0  0  0
  -26.7074  -32.5558   23.1160 H   0  0  0  0  0  0
  -25.0065  -33.9796   25.0506 H   0  0  0  0  0  0
  -22.6802  -31.3131   21.4196 H   0  0  0  0  0  0
  -23.3731  -35.9674   23.3295 H   0  0  0  0  0  0
  -24.3584  -36.8936   22.2050 H   0  0  0  0  0  0
  -23.7235  -37.6534   23.6637 H   0  0  0  0  0  0
  -26.0207  -31.6206   20.5947 H   0  0  0  0  0  0
  -26.8096  -30.9039   21.9729 H   0  0  0  0  0  0
  -28.0879  -29.1429   21.1554 H   0  0  0  0  0  0
  -26.0633  -26.0009   18.9914 H   0  0  0  0  0  0
  -23.9793  -27.3073   19.0214 H   0  0  0  0  0  0
  -23.7082  -30.6115   19.4070 H   0  0  0  0  0  0
  -22.7251  -29.2550   19.8663 H   0  0  0  0  0  0
  -25.1273  -36.1982   25.0832 H   0  0  0  0  0  0
  -20.9985  -28.3201   24.1459 H   0  0  0  0  0  0
  -20.5690  -26.2218   23.3610 H   0  0  0  0  0  0
  -21.6642  -26.7438   22.1214 H   0  0  0  0  0  0
  -19.6892  -25.6305   21.1234 H   0  0  0  0  0  0
  -19.6700  -27.3225   20.6780 H   0  0  0  0  0  0
  -17.4203  -26.6703   21.4038 H   0  0  0  0  0  0
  -18.0320  -26.0060   22.9025 H   0  0  0  0  0  0
  -19.7916  -30.7285   24.2268 H   0  0  0  0  0  0
  -17.4991  -31.6261   24.5176 H   0  0  0  0  0  0
  -15.5340  -30.2979   23.7634 H   0  0  0  0  0  0
  -15.8681  -28.0848   22.6975 H   0  0  0  0  0  0
  -24.5941  -30.7004   25.7819 H   0  0  0  0  0  0
  -24.8971  -32.2820   26.4949 H   0  0  0  0  0  0
  -25.8177  -30.8821   27.0196 H   0  0  0  0  0  0
  -26.2793  -29.6799   24.1110 H   0  0  0  0  0  0
  -27.4092  -29.7250   25.4447 H   0  0  0  0  0  0
  -27.8608  -30.4353   23.9120 H   0  0  0  0  0  0
  -27.2686  -33.3542   26.2101 H   0  0  0  0  0  0
  -28.3848  -32.6859   25.0286 H   0  0  0  0  0  0
  -28.0723  -31.8340   26.5328 H   0  0  0  0  0  0
  -28.2576  -38.0128   24.7547 H   0  0  0  0  0  0
  -28.1109  -36.2665   24.6220 H   0  0  0  0  0  0
  -27.2317  -37.1387   25.8856 H   0  0  0  0  0  0
  -20.9213  -29.8745   21.7016 H   0  0  0  0  0  0
  -26.0170  -38.2877   24.1455 H   0  0  0  0  0  0
  -28.7600  -21.1875   21.7054 H   0  0  0  0  0  0
  -29.6176  -20.0221   22.6729 H   0  0  0  0  0  0
  -31.4160  -20.0475   20.7138 H   0  0  0  0  0  0
  -30.1763  -20.8706   19.8037 H   0  0  0  0  0  0
  -29.8386  -18.6147   19.2137 H   0  0  0  0  0  0
  -28.6139  -18.8679   20.4286 H   0  0  0  0  0  0
  -30.3545  -17.9133   22.1348 H   0  0  0  0  0  0
  -31.3199  -17.4995   20.7398 H   0  0  0  0  0  0
  -28.5232  -16.4509   21.4264 H   0  0  0  0  0  0
  -29.2656  -16.1986   19.8637 H   0  0  0  0  0  0
  -31.4289  -22.8325   25.5591 H   0  0  0  0  0  0
  -32.0140  -23.6112   24.1035 H   0  0  0  0  0  0
  -29.8026  -24.5755   23.6493 H   0  0  0  0  0  0
  -30.1988  -24.9685   25.3053 H   0  0  0  0  0  0
  -27.8019  -24.7977   19.7005 H   0  0  0  0  0  0
  -29.3099  -24.9923   20.5434 H   0  0  0  0  0  0
  -26.5300  -25.3968   21.7602 H   0  0  0  0  0  0
  -28.0094  -25.8844   22.5685 H   0  0  0  0  0  0
  -26.8781  -23.8226   25.5428 H   0  0  0  0  0  0
  -27.6610  -25.1491   24.7361 H   0  0  0  0  0  0
  -25.9967  -23.7660   23.2945 H   0  0  0  0  0  0
  -27.0452  -22.3879   23.4943 H   0  0  0  0  0  0
  -30.2312  -21.2592   24.3403 H   0  0  0  0  0  0
  -30.9060  -15.5680   22.1450 H   0  0  0  0  0  0
  1 25  1  0  0  0
  1 30  2  0  0  0
  1 84  1  0  0  0
  2  3  1  0  0  0
  2 25  1  0  0  0
  2 88  1  0  0  0
  2 89  1  0  0  0
  3  4  1  0  0  0
  3 90  1  0  0  0
  3 91  1  0  0  0
  4  5  1  0  0  0
  4 92  1  0  0  0
  4 93  1  0  0  0
  5  6  1  0  0  0
  5 26  1  0  0  0
  5 94  1  0  0  0
  6 25  1  0  0  0
  6 95  1  0  0  0
  6 96  1  0  0  0
  7  8  2  0  0  0
  7 26  1  0  0  0
  7 29  1  0  0  0
  8  9  1  0  0  0
  8 22  1  0  0  0
  9 10  1  0  0  0
  9 27  2  0  0  0
 10 11  2  0  0  0
 10 15  1  0  0  0
 11 12  1  0  0  0
 11 97  1  0  0  0
 12 13  2  0  0  0
 12 98  1  0  0  0
 13 14  1  0  0  0
 13 31  1  0  0  0
 14 15  2  0  0  0
 14 99  1  0  0  0
 15100  1  0  0  0
 16 17  2  0  0  0
 16 21  1  0  0  0
 16 31  1  0  0  0
 17 18  1  0  0  0
 17101  1  0  0  0
 18 19  2  0  0  0
 18102  1  0  0  0
 19 20  1  0  0  0
 19 24  1  0  0  0
 20 21  2  0  0  0
 20103  1  0  0  0
 21 23  1  0  0  0
 22 28  1  0  0  0
 22 32  2  0  0  0
 26 27  1  0  0  0
 28104  1  0  0  0
 28105  1  0  0  0
 29106  1  0  0  0
 29107  1  0  0  0
 33 34  1  0  0  0
 33 66  1  0  0  0
 33 70  2  0  0  0
 34 36  1  0  0  0
 34 59  1  0  0  0
 34108  1  0  0  0
 35 44  2  0  0  0
 35 45  1  0  0  0
 35 68  1  0  0  0
 36 56  1  0  0  0
 36109  1  0  0  0
 37 39  1  0  0  0
 37 47  1  0  0  0
 37 66  1  0  0  0
 37110  1  0  0  0
 38 43  2  0  0  0
 38 46  1  0  0  0
 38 47  1  0  0  0
 39 64  1  0  0  0
 39 67  2  0  0  0
 40 52  1  0  0  0
 40 53  2  0  0  0
 40 58  1  0  0  0
 41111  1  0  0  0
 41112  1  0  0  0
 41113  1  0  0  0
 41 48  1  0  0  0
 42 43  1  0  0  0
 42 66  1  0  0  0
 42114  1  0  0  0
 42115  1  0  0  0
 43 44  1  0  0  0
 44116  1  0  0  0
 45 46  2  0  0  0
 45117  1  0  0  0
 46118  1  0  0  0
 47119  1  0  0  0
 47120  1  0  0  0
 48 56  1  0  0  0
 48 65  1  0  0  0
 48121  1  0  0  0
 49 50  1  0  0  0
 49 53  1  0  0  0
 49 64  1  0  0  0
 49122  1  0  0  0
 50 51  1  0  0  0
 50123  1  0  0  0
 50124  1  0  0  0
 51 52  1  0  0  0
 51125  1  0  0  0
 51126  1  0  0  0
 52127  1  0  0  0
 52128  1  0  0  0
 53 54  1  0  0  0
 54 55  2  0  0  0
 54129  1  0  0  0
 55 57  1  0  0  0
 55130  1  0  0  0
 56 69  2  0  0  0
 57 58  2  0  0  0
 57131  1  0  0  0
 58132  1  0  0  0
 59 60  1  0  0  0
 59 61  1  0  0  0
 59 62  1  0  0  0
 60133  1  0  0  0
 60134  1  0  0  0
 60135  1  0  0  0
 61136  1  0  0  0
 61137  1  0  0  0
 61138  1  0  0  0
 62139  1  0  0  0
 62140  1  0  0  0
 62141  1  0  0  0
 63 65  1  0  0  0
 63142  1  0  0  0
 63143  1  0  0  0
 63144  1  0  0  0
 64145  1  0  0  0
 65146  1  0  0  0
 68 79  1  0  0  0
 71 72  1  0  0  0
 71 83  1  0  0  0
 71 85  2  0  0  0
 72 73  1  0  0  0
 72147  1  0  0  0
 72148  1  0  0  0
 73 74  1  0  0  0
 73149  1  0  0  0
 73150  1  0  0  0
 74 75  1  0  0  0
 74151  1  0  0  0
 74152  1  0  0  0
 75 76  1  0  0  0
 75153  1  0  0  0
 75154  1  0  0  0
 76 84  1  0  0  0
 76155  1  0  0  0
 76156  1  0  0  0
 77 78  1  0  0  0
 77 83  1  0  0  0
 77157  1  0  0  0
 77158  1  0  0  0
 78 86  1  0  0  0
 78159  1  0  0  0
 78160  1  0  0  0
 79 80  1  0  0  0
 79161  1  0  0  0
 79162  1  0  0  0
 80 87  1  0  0  0
 80163  1  0  0  0
 80164  1  0  0  0
 81 82  1  0  0  0
 81 86  1  0  0  0
 81165  1  0  0  0
 81166  1  0  0  0
 82 87  1  0  0  0
 82167  1  0  0  0
 82168  1  0  0  0
 83169  1  0  0  0
 84170  1  0  0  0
M  ISO  4   1 100  68 101  79 101  84 100
M  END
> <chiral flag>
0

> <version>
0

> <s_m_source_file>
/data/baiqing/PycharmProjects/Reinvent-master-3.2/result/LINK_invent/BTK/process_docking_weight1_custom_product_contain_oxygen_bond_distance_aromatic_linkinvent_7_9_3/rearranged_h_0000.sdf

> <i_m_source_file_index>
71

> <r_mmod_Potential_Energy-OPLS-2005>
-120.080436706543

> <r_mmod_Stretch_Energy-OPLS-2005>
30.5149364471436

> <r_mmod_Bend_Energy-OPLS-2005>
100.32933807373

> <r_mmod_Torsional_Energy-OPLS-2005>
282.938201904297

> <r_mmod_Improper_Torsional_Energy-OPLS-2005>
7.68643999099731

> <r_mmod_Van_der_Waal_Energy-OPLS-2005>
129.41276550293

> <r_mmod_Electrostatic_Energy-OPLS-2005>
-439.362152099609

> <r_mmod_Solvation_Energy-OPLS-2005>
-240.330520629883

> <b_mmod_Minimization_Converged-OPLS-2005>
0

> <r_mmod_RMS_Derivative-OPLS-2005>
3.33579158782959

$$$$
71
                    3D
 Structure written by MMmdl.
164171  0  0  1  0            999 V2000
  -30.7116  -14.3916   20.6212 C   0  0  0  0  0  0
  -30.4175  -12.2774   19.3957 C   0  0  0  0  0  0
  -29.4831  -12.5282   18.1933 C   0  0  0  0  0  0
  -28.0031  -12.3935   18.6057 C   0  0  0  0  0  0
  -27.6638  -13.2003   19.8851 C   0  0  2  0  0  0
  -28.7036  -12.9206   20.9954 C   0  0  0  0  0  0
  -25.2552  -13.8129   20.5690 C   0  0  0  0  0  0
  -24.1793  -13.0423   20.9165 C   0  0  0  0  0  0
  -24.6345  -11.6899   20.8714 C   0  0  0  0  0  0
  -23.9012  -10.4297   21.0385 C   0  0  0  0  0  0
  -24.3586   -9.4230   21.9166 C   0  0  0  0  0  0
  -23.6282   -8.2264   22.0749 C   0  0  0  0  0  0
  -22.4257   -8.0290   21.3548 C   0  0  0  0  0  0
  -21.9868   -9.0243   20.4642 C   0  0  0  0  0  0
  -22.7183  -10.2128   20.3047 C   0  0  0  0  0  0
  -21.6820   -6.0756   22.5294 C   0  0  0  0  0  0
  -21.3995   -6.5656   23.8235 C   0  0  0  0  0  0
  -21.3670   -5.6807   24.9185 C   0  0  0  0  0  0
  -21.6054   -4.3070   24.7233 C   0  0  0  0  0  0
  -21.8815   -3.8166   23.4345 C   0  0  0  0  0  0
  -21.9177   -4.6986   22.3408 C   0  0  0  0  0  0
  -22.7830  -13.5229   21.1844 C   0  0  0  0  0  0
  -22.1637   -4.2187   21.0983 F   0  0  0  0  0  0
  -21.5654   -3.4561   25.7742 F   0  0  0  0  0  0
  -30.0464  -13.2183   20.4608 N   0  0  0  0  0  0
  -26.2995  -12.9316   20.3384 N   0  0  0  0  0  0
  -25.9266  -11.6469   20.5729 N   0  0  0  0  0  0
  -22.0478  -12.8249   22.0428 N   0  0  0  0  0  0
  -25.4249  -15.1843   20.4164 N   0  0  0  0  0  0
  -31.7869  -14.6535   20.0755 O   0  0  0  0  0  0
  -21.6594   -6.8909   21.4271 O   0  0  0  0  0  0
  -22.3518  -14.5519   20.6679 O   0  0  0  0  0  0
  -24.6106  -31.8719   23.2124 C   0  0  0  0  0  0
  -25.9016  -32.4846   23.8415 C   0  0  1  0  0  0
  -27.2369  -27.4802   20.0846 C   0  0  0  0  0  0
  -25.5888  -33.8643   24.2343 N   0  0  0  0  0  0
  -23.3955  -30.4964   21.5521 C   0  0  2  0  0  0
  -24.8416  -28.9630   20.1203 C   0  0  0  0  0  0
  -22.7383  -29.4682   22.4999 C   0  0  0  0  0  0
  -18.0260  -28.1377   22.8494 C   0  0  0  0  0  0
  -24.1490  -36.7334   23.2636 C   0  0  0  0  0  0
  -25.9187  -30.8521   21.3567 C   0  0  0  0  0  0
  -25.9991  -29.4876   20.7097 C   0  0  0  0  0  0
  -27.2022  -28.7528   20.6938 C   0  0  0  0  0  0
  -26.0625  -26.9476   19.5184 C   0  0  0  0  0  0
  -24.8648  -27.6885   19.5247 C   0  0  0  0  0  0
  -23.6028  -29.8282   20.1666 C   0  0  0  0  0  0
  -25.4109  -36.3130   24.0340 C   0  0  1  0  0  0
  -20.5850  -28.3659   23.1328 C   0  0  2  0  0  0
  -20.6754  -26.9401   22.5419 C   0  0  0  0  0  0
  -19.5735  -26.6385   21.5213 C   0  0  0  0  0  0
  -18.1908  -26.7926   22.1617 C   0  0  0  0  0  0
  -19.1510  -28.8831   23.2912 C   0  0  0  0  0  0
  -18.9443  -30.1437   23.8923 C   0  0  0  0  0  0
  -17.6449  -30.6589   24.0560 C   0  0  0  0  0  0
  -25.9030  -34.9492   23.5134 C   0  0  0  0  0  0
  -16.5336  -29.9094   23.6321 C   0  0  0  0  0  0
  -16.7250  -28.6507   23.0345 C   0  0  0  0  0  0
  -26.4454  -31.6609   25.0725 C   0  0  0  0  0  0
  -25.3728  -31.3719   26.1484 C   0  0  0  0  0  0
  -27.0264  -30.3054   24.6057 C   0  0  0  0  0  0
  -27.6047  -32.4308   25.7479 C   0  0  0  0  0  0
  -27.5586  -37.1821   24.8461 C   0  0  0  0  0  0
  -21.4114  -29.3042   22.3747 N   0  0  0  0  0  0
  -26.4302  -37.3806   23.9403 N   0  0  0  0  0  0
  -24.6600  -31.0865   22.0999 N   0  0  0  0  0  0
  -23.4171  -28.8219   23.3023 O   0  0  0  0  0  0
  -28.3852  -26.7364   20.0172 O   0  0  0  0  0  0
  -26.5590  -34.8932   22.4693 O   0  0  0  0  0  0
  -23.5316  -32.1451   23.7552 O   0  0  0  0  0  0
  -29.1103  -17.0592   19.8970 C   0  0  0  0  0  0
  -30.0836  -16.7461   21.0400 C   0  0  0  0  0  0
  -27.6279  -19.3155   18.0739 C   0  0  0  0  0  0
  -29.8776  -23.3897   16.8016 C   0  0  0  0  0  0
  -27.1209  -18.3650   19.1764 C   0  0  0  0  0  0
  -28.2490  -20.6082   18.6222 C   0  0  0  0  0  0
  -29.4175  -22.5478   17.9972 C   0  0  0  0  0  0
  -30.6781  -24.6229   17.2388 C   0  0  0  0  0  0
  -29.4698  -27.3906   19.3698 C   0  0  0  0  0  0
  -30.4557  -26.3251   18.8805 C   0  0  0  0  0  0
  -28.1693  -17.9803   20.1239 N   0  0  0  0  0  0
  -30.0320  -15.3132   21.3131 N   0  0  0  0  0  0
  -29.1939  -16.4517   18.8275 O   0  0  0  0  0  0
  -28.7013  -21.4101   17.5405 O   0  0  0  0  0  0
  -29.8027  -25.5157   17.9100 O   0  0  0  0  0  0
  -31.4603  -12.3800   19.0910 H   0  0  0  0  0  0
  -30.3088  -11.2515   19.7525 H   0  0  0  0  0  0
  -29.7100  -11.8336   17.3839 H   0  0  0  0  0  0
  -29.6606  -13.5280   17.7937 H   0  0  0  0  0  0
  -27.7959  -11.3360   18.7690 H   0  0  0  0  0  0
  -27.3521  -12.7068   17.7894 H   0  0  0  0  0  0
  -27.7214  -14.2565   19.6233 H   0  0  0  0  0  0
  -28.6618  -11.8735   21.2949 H   0  0  0  0  0  0
  -28.4638  -13.4777   21.9024 H   0  0  0  0  0  0
  -25.2763   -9.5714   22.4690 H   0  0  0  0  0  0
  -24.0019   -7.4662   22.7452 H   0  0  0  0  0  0
  -21.0803   -8.8712   19.8948 H   0  0  0  0  0  0
  -22.3618  -10.9642   19.6132 H   0  0  0  0  0  0
  -21.1964   -7.6159   23.9756 H   0  0  0  0  0  0
  -21.1511   -6.0524   25.9098 H   0  0  0  0  0  0
  -22.0586   -2.7635   23.2808 H   0  0  0  0  0  0
  -22.4050  -11.9886   22.4811 H   0  0  0  0  0  0
  -21.1105  -13.1287   22.2639 H   0  0  0  0  0  0
  -24.6580  -15.8335   20.5601 H   0  0  0  0  0  0
  -26.2785  -15.6331   20.1117 H   0  0  0  0  0  0
  -26.7089  -32.5576   23.1194 H   0  0  0  0  0  0
  -25.0050  -33.9813   25.0495 H   0  0  0  0  0  0
  -22.6826  -31.3121   21.4151 H   0  0  0  0  0  0
  -23.3744  -35.9678   23.3317 H   0  0  0  0  0  0
  -24.3584  -36.8928   22.2049 H   0  0  0  0  0  0
  -23.7253  -37.6550   23.6633 H   0  0  0  0  0  0
  -26.0179  -31.6162   20.5847 H   0  0  0  0  0  0
  -26.8120  -30.9134   21.9661 H   0  0  0  0  0  0
  -28.0943  -29.1604   21.1483 H   0  0  0  0  0  0
  -26.0830  -25.9701   19.0564 H   0  0  0  0  0  0
  -23.9725  -27.2761   19.0736 H   0  0  0  0  0  0
  -23.7121  -30.6041   19.4076 H   0  0  0  0  0  0
  -22.7271  -29.2489   19.8685 H   0  0  0  0  0  0
  -25.1285  -36.2004   25.0836 H   0  0  0  0  0  0
  -20.9939  -28.3217   24.1449 H   0  0  0  0  0  0
  -20.5651  -26.2267   23.3604 H   0  0  0  0  0  0
  -21.6625  -26.7452   22.1210 H   0  0  0  0  0  0
  -19.6895  -25.6296   21.1237 H   0  0  0  0  0  0
  -19.6679  -27.3198   20.6747 H   0  0  0  0  0  0
  -17.4186  -26.6685   21.4008 H   0  0  0  0  0  0
  -18.0298  -26.0059   22.9000 H   0  0  0  0  0  0
  -19.7923  -30.7239   24.2304 H   0  0  0  0  0  0
  -17.5011  -31.6275   24.5154 H   0  0  0  0  0  0
  -15.5339  -30.3010   23.7631 H   0  0  0  0  0  0
  -15.8645  -28.0838   22.7049 H   0  0  0  0  0  0
  -24.5885  -30.7081   25.7823 H   0  0  0  0  0  0
  -24.8944  -32.2888   26.4943 H   0  0  0  0  0  0
  -25.8092  -30.8877   27.0231 H   0  0  0  0  0  0
  -26.2790  -29.6840   24.1108 H   0  0  0  0  0  0
  -27.4043  -29.7260   25.4490 H   0  0  0  0  0  0
  -27.8622  -30.4378   23.9181 H   0  0  0  0  0  0
  -27.2681  -33.3604   26.2081 H   0  0  0  0  0  0
  -28.3849  -32.6870   25.0296 H   0  0  0  0  0  0
  -28.0717  -31.8409   26.5374 H   0  0  0  0  0  0
  -28.2616  -38.0106   24.7501 H   0  0  0  0  0  0
  -28.1070  -36.2642   24.6294 H   0  0  0  0  0  0
  -27.2307  -37.1481   25.8864 H   0  0  0  0  0  0
  -20.9253  -29.8795   21.7011 H   0  0  0  0  0  0
  -26.0201  -38.2893   24.1383 H   0  0  0  0  0  0
  -29.8174  -17.3021   21.9411 H   0  0  0  0  0  0
  -31.0868  -17.0656   20.7541 H   0  0  0  0  0  0
  -26.7963  -19.5629   17.4117 H   0  0  0  0  0  0
  -28.3596  -18.7926   17.4565 H   0  0  0  0  0  0
  -29.0155  -23.6939   16.2083 H   0  0  0  0  0  0
  -30.4994  -22.7752   16.1503 H   0  0  0  0  0  0
  -26.6882  -17.4701   18.7254 H   0  0  0  0  0  0
  -26.3130  -18.8417   19.7311 H   0  0  0  0  0  0
  -29.0911  -20.3677   19.2749 H   0  0  0  0  0  0
  -27.5175  -21.1571   19.2188 H   0  0  0  0  0  0
  -28.7878  -23.1486   18.6566 H   0  0  0  0  0  0
  -30.2853  -22.2298   18.5787 H   0  0  0  0  0  0
  -31.1070  -25.1324   16.3747 H   0  0  0  0  0  0
  -31.5090  -24.3114   17.8740 H   0  0  0  0  0  0
  -29.1216  -27.9818   18.5194 H   0  0  0  0  0  0
  -29.9646  -28.0701   20.0645 H   0  0  0  0  0  0
  -30.7958  -25.7111   19.7167 H   0  0  0  0  0  0
  -31.3319  -26.8084   18.4462 H   0  0  0  0  0  0
  -28.1580  -18.4289   21.0320 H   0  0  0  0  0  0
  -29.1823  -14.9826   21.7472 H   0  0  0  0  0  0
  1 25  1  0  0  0
  1 30  2  0  0  0
  1 82  1  0  0  0
  2  3  1  0  0  0
  2 25  1  0  0  0
  2 86  1  0  0  0
  2 87  1  0  0  0
  3  4  1  0  0  0
  3 88  1  0  0  0
  3 89  1  0  0  0
  4  5  1  0  0  0
  4 90  1  0  0  0
  4 91  1  0  0  0
  5  6  1  0  0  0
  5 26  1  0  0  0
  5 92  1  0  0  0
  6 25  1  0  0  0
  6 93  1  0  0  0
  6 94  1  0  0  0
  7  8  2  0  0  0
  7 26  1  0  0  0
  7 29  1  0  0  0
  8  9  1  0  0  0
  8 22  1  0  0  0
  9 10  1  0  0  0
  9 27  2  0  0  0
 10 11  2  0  0  0
 10 15  1  0  0  0
 11 12  1  0  0  0
 11 95  1  0  0  0
 12 13  2  0  0  0
 12 96  1  0  0  0
 13 14  1  0  0  0
 13 31  1  0  0  0
 14 15  2  0  0  0
 14 97  1  0  0  0
 15 98  1  0  0  0
 16 17  2  0  0  0
 16 21  1  0  0  0
 16 31  1  0  0  0
 17 18  1  0  0  0
 17 99  1  0  0  0
 18 19  2  0  0  0
 18100  1  0  0  0
 19 20  1  0  0  0
 19 24  1  0  0  0
 20 21  2  0  0  0
 20101  1  0  0  0
 21 23  1  0  0  0
 22 28  1  0  0  0
 22 32  2  0  0  0
 26 27  1  0  0  0
 28102  1  0  0  0
 28103  1  0  0  0
 29104  1  0  0  0
 29105  1  0  0  0
 33 34  1  0  0  0
 33 66  1  0  0  0
 33 70  2  0  0  0
 34 36  1  0  0  0
 34 59  1  0  0  0
 34106  1  0  0  0
 35 44  2  0  0  0
 35 45  1  0  0  0
 35 68  1  0  0  0
 36 56  1  0  0  0
 36107  1  0  0  0
 37 39  1  0  0  0
 37 47  1  0  0  0
 37 66  1  0  0  0
 37108  1  0  0  0
 38 43  2  0  0  0
 38 46  1  0  0  0
 38 47  1  0  0  0
 39 64  1  0  0  0
 39 67  2  0  0  0
 40 52  1  0  0  0
 40 53  2  0  0  0
 40 58  1  0  0  0
 41109  1  0  0  0
 41110  1  0  0  0
 41111  1  0  0  0
 41 48  1  0  0  0
 42 43  1  0  0  0
 42 66  1  0  0  0
 42112  1  0  0  0
 42113  1  0  0  0
 43 44  1  0  0  0
 44114  1  0  0  0
 45 46  2  0  0  0
 45115  1  0  0  0
 46116  1  0  0  0
 47117  1  0  0  0
 47118  1  0  0  0
 48 56  1  0  0  0
 48 65  1  0  0  0
 48119  1  0  0  0
 49 50  1  0  0  0
 49 53  1  0  0  0
 49 64  1  0  0  0
 49120  1  0  0  0
 50 51  1  0  0  0
 50121  1  0  0  0
 50122  1  0  0  0
 51 52  1  0  0  0
 51123  1  0  0  0
 51124  1  0  0  0
 52125  1  0  0  0
 52126  1  0  0  0
 53 54  1  0  0  0
 54 55  2  0  0  0
 54127  1  0  0  0
 55 57  1  0  0  0
 55128  1  0  0  0
 56 69  2  0  0  0
 57 58  2  0  0  0
 57129  1  0  0  0
 58130  1  0  0  0
 59 60  1  0  0  0
 59 61  1  0  0  0
 59 62  1  0  0  0
 60131  1  0  0  0
 60132  1  0  0  0
 60133  1  0  0  0
 61134  1  0  0  0
 61135  1  0  0  0
 61136  1  0  0  0
 62137  1  0  0  0
 62138  1  0  0  0
 62139  1  0  0  0
 63 65  1  0  0  0
 63140  1  0  0  0
 63141  1  0  0  0
 63142  1  0  0  0
 64143  1  0  0  0
 65144  1  0  0  0
 68 79  1  0  0  0
 71 72  1  0  0  0
 71 81  1  0  0  0
 71 83  2  0  0  0
 72 82  1  0  0  0
 72145  1  0  0  0
 72146  1  0  0  0
 73 75  1  0  0  0
 73 76  1  0  0  0
 73147  1  0  0  0
 73148  1  0  0  0
 74 77  1  0  0  0
 74 78  1  0  0  0
 74149  1  0  0  0
 74150  1  0  0  0
 75 81  1  0  0  0
 75151  1  0  0  0
 75152  1  0  0  0
 76 84  1  0  0  0
 76153  1  0  0  0
 76154  1  0  0  0
 77 84  1  0  0  0
 77155  1  0  0  0
 77156  1  0  0  0
 78 85  1  0  0  0
 78157  1  0  0  0
 78158  1  0  0  0
 79 80  1  0  0  0
 79159  1  0  0  0
 79160  1  0  0  0
 80 85  1  0  0  0
 80161  1  0  0  0
 80162  1  0  0  0
 81163  1  0  0  0
 82164  1  0  0  0
M  ISO  4   1 100  68 101  79 101  82 100
M  END
> <chiral flag>
0

> <version>
0

> <s_m_source_file>
/data/baiqing/PycharmProjects/Reinvent-master-3.2/result/LINK_invent/BTK/process_docking_weight1_custom_product_contain_oxygen_bond_distance_aromatic_linkinvent_7_9_3/rearranged_h_0000.sdf

> <i_m_source_file_index>
72

> <r_mmod_Potential_Energy-OPLS-2005>
-265.100891113281

> <r_mmod_Stretch_Energy-OPLS-2005>
29.9027938842773

> <r_mmod_Bend_Energy-OPLS-2005>
84.2066192626953

> <r_mmod_Torsional_Energy-OPLS-2005>
223.132843017578

> <r_mmod_Improper_Torsional_Energy-OPLS-2005>
4.9437141418457

> <r_mmod_Van_der_Waal_Energy-OPLS-2005>
131.210891723633

> <r_mmod_Electrostatic_Energy-OPLS-2005>
-486.857177734375

> <r_mmod_Solvation_Energy-OPLS-2005>
-258.238403320312

> <b_mmod_Minimization_Converged-OPLS-2005>
0

> <r_mmod_RMS_Derivative-OPLS-2005>
2.60037779808044

$$$$
72
                    3D
 Structure written by MMmdl.
177185  0  0  1  0            999 V2000
  -30.8083  -14.3458   20.7171 C   0  0  0  0  0  0
  -30.4113  -12.2995   19.4042 C   0  0  0  0  0  0
  -29.4854  -12.5523   18.1994 C   0  0  0  0  0  0
  -28.0070  -12.4039   18.6017 C   0  0  0  0  0  0
  -27.6688  -13.1996   19.8883 C   0  0  2  0  0  0
  -28.7027  -12.8895   20.9901 C   0  0  0  0  0  0
  -25.2606  -13.8160   20.5670 C   0  0  0  0  0  0
  -24.1852  -13.0456   20.9175 C   0  0  0  0  0  0
  -24.6373  -11.6912   20.8730 C   0  0  0  0  0  0
  -23.9035  -10.4297   21.0395 C   0  0  0  0  0  0
  -24.3605   -9.4210   21.9170 C   0  0  0  0  0  0
  -23.6290   -8.2248   22.0752 C   0  0  0  0  0  0
  -22.4259   -8.0286   21.3560 C   0  0  0  0  0  0
  -21.9864   -9.0257   20.4689 C   0  0  0  0  0  0
  -22.7188  -10.2135   20.3085 C   0  0  0  0  0  0
  -21.6848   -6.0737   22.5295 C   0  0  0  0  0  0
  -21.4006   -6.5644   23.8225 C   0  0  0  0  0  0
  -21.3665   -5.6800   24.9190 C   0  0  0  0  0  0
  -21.6045   -4.3058   24.7244 C   0  0  0  0  0  0
  -21.8808   -3.8152   23.4361 C   0  0  0  0  0  0
  -21.9192   -4.6966   22.3412 C   0  0  0  0  0  0
  -22.7890  -13.5283   21.1856 C   0  0  0  0  0  0
  -22.1657   -4.2150   21.0984 F   0  0  0  0  0  0
  -21.5612   -3.4535   25.7752 F   0  0  0  0  0  0
  -30.0505  -13.2283   20.4925 N   0  0  0  0  0  0
  -26.3051  -12.9313   20.3414 N   0  0  0  0  0  0
  -25.9288  -11.6477   20.5749 N   0  0  0  0  0  0
  -22.0518  -12.8269   22.0395 N   0  0  0  0  0  0
  -25.4294  -15.1871   20.4048 N   0  0  0  0  0  0
  -31.7533  -14.6529   19.9864 O   0  0  0  0  0  0
  -21.6643   -6.8875   21.4251 O   0  0  0  0  0  0
  -22.3600  -14.5611   20.6729 O   0  0  0  0  0  0
  -24.6116  -31.8705   23.2123 C   0  0  0  0  0  0
  -25.9030  -32.4840   23.8405 C   0  0  1  0  0  0
  -27.2319  -27.4668   20.0757 C   0  0  0  0  0  0
  -25.5903  -33.8633   24.2349 N   0  0  0  0  0  0
  -23.3961  -30.4947   21.5536 C   0  0  2  0  0  0
  -24.8404  -28.9681   20.1138 C   0  0  0  0  0  0
  -22.7384  -29.4668   22.5007 C   0  0  0  0  0  0
  -18.0269  -28.1353   22.8491 C   0  0  0  0  0  0
  -24.1487  -36.7312   23.2634 C   0  0  0  0  0  0
  -25.9232  -30.8443   21.3623 C   0  0  0  0  0  0
  -26.0009  -29.4844   20.7039 C   0  0  0  0  0  0
  -27.2014  -28.7428   20.6767 C   0  0  0  0  0  0
  -26.0522  -26.9604   19.4814 C   0  0  0  0  0  0
  -24.8592  -27.7038   19.5019 C   0  0  0  0  0  0
  -23.6010  -29.8301   20.1668 C   0  0  0  0  0  0
  -25.4108  -36.3120   24.0344 C   0  0  1  0  0  0
  -20.5854  -28.3649   23.1327 C   0  0  2  0  0  0
  -20.6771  -26.9388   22.5407 C   0  0  0  0  0  0
  -19.5753  -26.6370   21.5198 C   0  0  0  0  0  0
  -18.1932  -26.7898   22.1621 C   0  0  0  0  0  0
  -19.1510  -28.8820   23.2906 C   0  0  0  0  0  0
  -18.9440  -30.1421   23.8924 C   0  0  0  0  0  0
  -17.6441  -30.6562   24.0559 C   0  0  0  0  0  0
  -25.9038  -34.9485   23.5142 C   0  0  0  0  0  0
  -16.5336  -29.9061   23.6308 C   0  0  0  0  0  0
  -16.7256  -28.6471   23.0348 C   0  0  0  0  0  0
  -26.4461  -31.6602   25.0724 C   0  0  0  0  0  0
  -25.3755  -31.3711   26.1503 C   0  0  0  0  0  0
  -27.0268  -30.3046   24.6078 C   0  0  0  0  0  0
  -27.6060  -32.4291   25.7472 C   0  0  0  0  0  0
  -27.5580  -37.1809   24.8469 C   0  0  0  0  0  0
  -21.4118  -29.3028   22.3746 N   0  0  0  0  0  0
  -26.4289  -37.3808   23.9418 N   0  0  0  0  0  0
  -24.6618  -31.0824   22.1020 N   0  0  0  0  0  0
  -23.4174  -28.8227   23.3043 O   0  0  0  0  0  0
  -28.4092  -26.7490   20.0984 O   0  0  0  0  0  0
  -26.5580  -34.8935   22.4690 O   0  0  0  0  0  0
  -23.5317  -32.1442   23.7542 O   0  0  0  0  0  0
  -28.4889  -16.0925   22.3152 C   0  0  0  0  0  0
  -29.6105  -14.7242   23.9965 C   0  0  0  0  0  0
  -27.4261  -16.3160   23.2106 C   0  0  0  0  0  0
  -28.5400  -14.9417   24.8829 C   0  0  0  0  0  0
  -29.5742  -15.2813   22.7030 C   0  0  0  0  0  0
  -27.4369  -15.7318   24.5025 C   0  0  0  0  0  0
  -27.7658  -25.0401   21.7358 C   0  0  0  0  0  0
  -27.2296  -23.6083   21.9367 C   0  0  0  0  0  0
  -23.5932  -20.8465   23.5624 C   0  0  0  0  0  0
  -22.5140  -20.1216   22.7408 C   0  0  0  0  0  0
  -24.2846  -15.9303   24.2500 C   0  0  0  0  0  0
  -28.3024  -25.3388   20.3179 C   0  0  0  0  0  0
  -25.7504  -23.6018   22.3532 C   0  0  0  0  0  0
  -23.9518  -22.2275   22.9953 C   0  0  0  0  0  0
  -22.1028  -18.7796   23.3562 C   0  0  0  0  0  0
  -25.2979  -16.6810   25.1339 C   0  0  0  0  0  0
  -22.9729  -16.7031   24.0719 C   0  0  0  0  0  0
  -30.6634  -15.0776   21.8366 N   0  0  0  0  0  0
  -26.4364  -15.8800   25.4389 O   0  0  0  0  0  0
  -25.3409  -22.2865   22.6979 O   0  0  0  0  0  0
  -23.2370  -17.9271   23.4034 O   0  0  0  0  0  0
  -31.4553  -12.3908   19.0989 H   0  0  0  0  0  0
  -30.3098  -11.2688   19.7470 H   0  0  0  0  0  0
  -29.7262  -11.8599   17.3913 H   0  0  0  0  0  0
  -29.6573  -13.5555   17.8049 H   0  0  0  0  0  0
  -27.8065  -11.3436   18.7571 H   0  0  0  0  0  0
  -27.3606  -12.7216   17.7840 H   0  0  0  0  0  0
  -27.7390  -14.2612   19.6514 H   0  0  0  0  0  0
  -28.6751  -11.8241   21.2265 H   0  0  0  0  0  0
  -28.4062  -13.3519   21.9205 H   0  0  0  0  0  0
  -25.2739   -9.5683   22.4758 H   0  0  0  0  0  0
  -24.0013   -7.4645   22.7478 H   0  0  0  0  0  0
  -21.0781   -8.8777   19.9025 H   0  0  0  0  0  0
  -22.3603  -10.9675   19.6231 H   0  0  0  0  0  0
  -21.1980   -7.6152   23.9709 H   0  0  0  0  0  0
  -21.1498   -6.0526   25.9095 H   0  0  0  0  0  0
  -22.0563   -2.7615   23.2849 H   0  0  0  0  0  0
  -22.4090  -11.9886   22.4736 H   0  0  0  0  0  0
  -21.1115  -13.1283   22.2525 H   0  0  0  0  0  0
  -24.6654  -15.8412   20.5245 H   0  0  0  0  0  0
  -26.2898  -15.6285   20.1108 H   0  0  0  0  0  0
  -26.7108  -32.5584   23.1176 H   0  0  0  0  0  0
  -25.0103  -33.9796   25.0524 H   0  0  0  0  0  0
  -22.6843  -31.3118   21.4177 H   0  0  0  0  0  0
  -23.3758  -35.9638   23.3306 H   0  0  0  0  0  0
  -24.3580  -36.8910   22.2047 H   0  0  0  0  0  0
  -23.7223  -37.6516   23.6630 H   0  0  0  0  0  0
  -26.0356  -31.6166   20.5997 H   0  0  0  0  0  0
  -26.8105  -30.8928   21.9811 H   0  0  0  0  0  0
  -28.1009  -29.1389   21.1289 H   0  0  0  0  0  0
  -26.0345  -26.0011   18.9878 H   0  0  0  0  0  0
  -23.9674  -27.3013   19.0418 H   0  0  0  0  0  0
  -23.7075  -30.6073   19.4080 H   0  0  0  0  0  0
  -22.7256  -29.2486   19.8703 H   0  0  0  0  0  0
  -25.1274  -36.1989   25.0834 H   0  0  0  0  0  0
  -20.9941  -28.3227   24.1452 H   0  0  0  0  0  0
  -20.5677  -26.2256   23.3591 H   0  0  0  0  0  0
  -21.6653  -26.7431   22.1215 H   0  0  0  0  0  0
  -19.6912  -25.6282   21.1225 H   0  0  0  0  0  0
  -19.6680  -27.3189   20.6733 H   0  0  0  0  0  0
  -17.4193  -26.6614   21.4028 H   0  0  0  0  0  0
  -18.0371  -26.0030   22.9018 H   0  0  0  0  0  0
  -19.7915  -30.7214   24.2321 H   0  0  0  0  0  0
  -17.4991  -31.6244   24.5161 H   0  0  0  0  0  0
  -15.5335  -30.2968   23.7594 H   0  0  0  0  0  0
  -15.8655  -28.0784   22.7080 H   0  0  0  0  0  0
  -24.5887  -30.7101   25.7841 H   0  0  0  0  0  0
  -24.9006  -32.2887   26.4998 H   0  0  0  0  0  0
  -25.8131  -30.8833   27.0231 H   0  0  0  0  0  0
  -26.2796  -29.6842   24.1128 H   0  0  0  0  0  0
  -27.4032  -29.7245   25.4510 H   0  0  0  0  0  0
  -27.8639  -30.4343   23.9217 H   0  0  0  0  0  0
  -27.2703  -33.3581   26.2088 H   0  0  0  0  0  0
  -28.3856  -32.6865   25.0288 H   0  0  0  0  0  0
  -28.0758  -31.8399   26.5359 H   0  0  0  0  0  0
  -28.2608  -38.0093   24.7517 H   0  0  0  0  0  0
  -28.1059  -36.2630   24.6289 H   0  0  0  0  0  0
  -27.2305  -37.1471   25.8871 H   0  0  0  0  0  0
  -20.9253  -29.8776   21.7010 H   0  0  0  0  0  0
  -26.0190  -38.2886   24.1422 H   0  0  0  0  0  0
  -28.4626  -16.5421   21.3331 H   0  0  0  0  0  0
  -30.4537  -14.1208   24.3058 H   0  0  0  0  0  0
  -26.6100  -16.9372   22.8729 H   0  0  0  0  0  0
  -28.5684  -14.4984   25.8689 H   0  0  0  0  0  0
  -28.5585  -25.2370   22.4580 H   0  0  0  0  0  0
  -26.9748  -25.7451   21.9925 H   0  0  0  0  0  0
  -27.8216  -23.1115   22.7062 H   0  0  0  0  0  0
  -27.3571  -23.0141   21.0318 H   0  0  0  0  0  0
  -24.4842  -20.2215   23.6219 H   0  0  0  0  0  0
  -23.2458  -20.9593   24.5904 H   0  0  0  0  0  0
  -22.8706  -19.9684   21.7216 H   0  0  0  0  0  0
  -21.6315  -20.7578   22.6644 H   0  0  0  0  0  0
  -24.0638  -14.9683   24.7126 H   0  0  0  0  0  0
  -24.7068  -15.7040   23.2720 H   0  0  0  0  0  0
  -27.7085  -24.8553   19.5445 H   0  0  0  0  0  0
  -29.2982  -24.9080   20.2132 H   0  0  0  0  0  0
  -25.1355  -23.9897   21.5383 H   0  0  0  0  0  0
  -25.6041  -24.2595   23.2134 H   0  0  0  0  0  0
  -23.6824  -22.9968   23.7218 H   0  0  0  0  0  0
  -23.3807  -22.4384   22.0890 H   0  0  0  0  0  0
  -21.3129  -18.3182   22.7619 H   0  0  0  0  0  0
  -21.7021  -18.9429   24.3584 H   0  0  0  0  0  0
  -24.8219  -16.9214   26.0855 H   0  0  0  0  0  0
  -25.5871  -17.6409   24.7060 H   0  0  0  0  0  0
  -22.5215  -16.8858   25.0490 H   0  0  0  0  0  0
  -22.2628  -16.1095   23.4929 H   0  0  0  0  0  0
  -31.4004  -15.7602   21.9373 H   0  0  0  0  0  0
  1 25  1  0  0  0
  1 30  2  0  0  0
  1 88  1  0  0  0
  2  3  1  0  0  0
  2 25  1  0  0  0
  2 92  1  0  0  0
  2 93  1  0  0  0
  3  4  1  0  0  0
  3 94  1  0  0  0
  3 95  1  0  0  0
  4  5  1  0  0  0
  4 96  1  0  0  0
  4 97  1  0  0  0
  5  6  1  0  0  0
  5 26  1  0  0  0
  5 98  1  0  0  0
  6 25  1  0  0  0
  6 99  1  0  0  0
  6100  1  0  0  0
  7  8  2  0  0  0
  7 26  1  0  0  0
  7 29  1  0  0  0
  8  9  1  0  0  0
  8 22  1  0  0  0
  9 10  1  0  0  0
  9 27  2  0  0  0
 10 11  2  0  0  0
 10 15  1  0  0  0
 11 12  1  0  0  0
 11101  1  0  0  0
 12 13  2  0  0  0
 12102  1  0  0  0
 13 14  1  0  0  0
 13 31  1  0  0  0
 14 15  2  0  0  0
 14103  1  0  0  0
 15104  1  0  0  0
 16 17  2  0  0  0
 16 21  1  0  0  0
 16 31  1  0  0  0
 17 18  1  0  0  0
 17105  1  0  0  0
 18 19  2  0  0  0
 18106  1  0  0  0
 19 20  1  0  0  0
 19 24  1  0  0  0
 20 21  2  0  0  0
 20107  1  0  0  0
 21 23  1  0  0  0
 22 28  1  0  0  0
 22 32  2  0  0  0
 26 27  1  0  0  0
 28108  1  0  0  0
 28109  1  0  0  0
 29110  1  0  0  0
 29111  1  0  0  0
 33 34  1  0  0  0
 33 66  1  0  0  0
 33 70  2  0  0  0
 34 36  1  0  0  0
 34 59  1  0  0  0
 34112  1  0  0  0
 35 44  2  0  0  0
 35 45  1  0  0  0
 35 68  1  0  0  0
 36 56  1  0  0  0
 36113  1  0  0  0
 37 39  1  0  0  0
 37 47  1  0  0  0
 37 66  1  0  0  0
 37114  1  0  0  0
 38 43  2  0  0  0
 38 46  1  0  0  0
 38 47  1  0  0  0
 39 64  1  0  0  0
 39 67  2  0  0  0
 40 52  1  0  0  0
 40 53  2  0  0  0
 40 58  1  0  0  0
 41115  1  0  0  0
 41116  1  0  0  0
 41117  1  0  0  0
 41 48  1  0  0  0
 42 43  1  0  0  0
 42 66  1  0  0  0
 42118  1  0  0  0
 42119  1  0  0  0
 43 44  1  0  0  0
 44120  1  0  0  0
 45 46  2  0  0  0
 45121  1  0  0  0
 46122  1  0  0  0
 47123  1  0  0  0
 47124  1  0  0  0
 48 56  1  0  0  0
 48 65  1  0  0  0
 48125  1  0  0  0
 49 50  1  0  0  0
 49 53  1  0  0  0
 49 64  1  0  0  0
 49126  1  0  0  0
 50 51  1  0  0  0
 50127  1  0  0  0
 50128  1  0  0  0
 51 52  1  0  0  0
 51129  1  0  0  0
 51130  1  0  0  0
 52131  1  0  0  0
 52132  1  0  0  0
 53 54  1  0  0  0
 54 55  2  0  0  0
 54133  1  0  0  0
 55 57  1  0  0  0
 55134  1  0  0  0
 56 69  2  0  0  0
 57 58  2  0  0  0
 57135  1  0  0  0
 58136  1  0  0  0
 59 60  1  0  0  0
 59 61  1  0  0  0
 59 62  1  0  0  0
 60137  1  0  0  0
 60138  1  0  0  0
 60139  1  0  0  0
 61140  1  0  0  0
 61141  1  0  0  0
 61142  1  0  0  0
 62143  1  0  0  0
 62144  1  0  0  0
 62145  1  0  0  0
 63 65  1  0  0  0
 63146  1  0  0  0
 63147  1  0  0  0
 63148  1  0  0  0
 64149  1  0  0  0
 65150  1  0  0  0
 68 82  1  0  0  0
 71 73  2  0  0  0
 71 75  1  0  0  0
 71151  1  0  0  0
 72 74  1  0  0  0
 72 75  2  0  0  0
 72152  1  0  0  0
 73 76  1  0  0  0
 73153  1  0  0  0
 74 76  2  0  0  0
 74154  1  0  0  0
 75 88  1  0  0  0
 76 89  1  0  0  0
 77 78  1  0  0  0
 77 82  1  0  0  0
 77155  1  0  0  0
 77156  1  0  0  0
 78 83  1  0  0  0
 78157  1  0  0  0
 78158  1  0  0  0
 79 80  1  0  0  0
 79 84  1  0  0  0
 79159  1  0  0  0
 79160  1  0  0  0
 80 85  1  0  0  0
 80161  1  0  0  0
 80162  1  0  0  0
 81 86  1  0  0  0
 81 87  1  0  0  0
 81163  1  0  0  0
 81164  1  0  0  0
 82165  1  0  0  0
 82166  1  0  0  0
 83 90  1  0  0  0
 83167  1  0  0  0
 83168  1  0  0  0
 84 90  1  0  0  0
 84169  1  0  0  0
 84170  1  0  0  0
 85 91  1  0  0  0
 85171  1  0  0  0
 85172  1  0  0  0
 86 89  1  0  0  0
 86173  1  0  0  0
 86174  1  0  0  0
 87 91  1  0  0  0
 87175  1  0  0  0
 87176  1  0  0  0
 88177  1  0  0  0
M  ISO  4   1 100  68 101  82 101  88 100
M  END
> <chiral flag>
0

> <version>
0

> <s_m_source_file>
/data/baiqing/PycharmProjects/Reinvent-master-3.2/result/LINK_invent/BTK/process_docking_weight1_custom_product_contain_oxygen_bond_distance_aromatic_linkinvent_7_9_3/rearranged_h_0000.sdf

> <i_m_source_file_index>
73

> <r_mmod_Potential_Energy-OPLS-2005>
-37.9258460998535

> <r_mmod_Stretch_Energy-OPLS-2005>
34.6328544616699

> <r_mmod_Bend_Energy-OPLS-2005>
131.96826171875

> <r_mmod_Torsional_Energy-OPLS-2005>
266.508209228516

> <r_mmod_Improper_Torsional_Energy-OPLS-2005>
3.98514842987061

> <r_mmod_Van_der_Waal_Energy-OPLS-2005>
147.849182128906

> <r_mmod_Electrostatic_Energy-OPLS-2005>
-426.315155029297

> <r_mmod_Solvation_Energy-OPLS-2005>
-206.080581665039

> <b_mmod_Minimization_Converged-OPLS-2005>
0

> <r_mmod_RMS_Derivative-OPLS-2005>
2.29271030426025

$$$$
73
                    3D
 Structure written by MMmdl.
158166  0  0  1  0            999 V2000
  -29.9634  -14.4974   19.4545 C   0  0  0  0  0  0
  -30.7297  -12.2774   19.3611 C   0  0  0  0  0  0
  -29.5979  -11.8757   18.4253 C   0  0  0  0  0  0
  -28.3913  -11.7272   19.3774 C   0  0  0  0  0  0
  -28.2295  -12.8527   20.6027 C   0  0  2  0  0  0
  -29.4374  -13.0137   21.3343 C   0  0  0  0  0  0
  -25.3726  -14.7616   20.2598 C   0  0  0  0  0  0
  -23.9098  -13.5707   20.3772 C   0  0  0  0  0  0
  -24.4773  -11.8616   20.9636 C   0  0  0  0  0  0
  -23.7968  -10.5454   21.0946 C   0  0  0  0  0  0
  -24.3004   -9.5186   21.9379 C   0  0  0  0  0  0
  -23.6201   -8.2847   22.0710 C   0  0  0  0  0  0
  -22.4266   -8.0513   21.3475 C   0  0  0  0  0  0
  -21.9662   -9.0439   20.4624 C   0  0  0  0  0  0
  -22.6487  -10.2676   20.3295 C   0  0  0  0  0  0
  -21.7010   -6.0802   22.5231 C   0  0  0  0  0  0
  -21.4159   -6.5720   23.8150 C   0  0  0  0  0  0
  -21.3674   -5.6877   24.9116 C   0  0  0  0  0  0
  -21.6003   -4.3118   24.7219 C   0  0  0  0  0  0
  -21.8787   -3.8188   23.4359 C   0  0  0  0  0  0
  -21.9241   -4.6999   22.3398 C   0  0  0  0  0  0
  -22.5483  -13.8866   20.8451 C   0  0  0  0  0  0
  -22.1695   -4.2153   21.0986 F   0  0  0  0  0  0
  -21.5537   -3.4601   25.7723 F   0  0  0  0  0  0
  -30.2197  -13.3753   20.1658 N   0  0  0  0  0  0
  -27.0671  -13.4451   20.9772 N   0  0  0  0  0  0
  -26.2107  -11.7799   21.2987 N   0  0  0  0  0  0
  -21.9703  -13.0572   21.7285 N   0  0  0  0  0  0
  -25.5152  -16.0139   19.8129 N   0  0  0  0  0  0
  -30.9691  -15.2325   19.4731 O   0  0  0  0  0  0
  -21.6909   -6.8922   21.4142 O   0  0  0  0  0  0
  -22.0449  -14.9302   20.5067 O   0  0  0  0  0  0
  -24.6578  -31.8310   23.1884 C   0  0  0  0  0  0
  -25.9310  -32.4593   23.8323 C   0  0  1  0  0  0
  -26.9787  -26.8571   20.3311 C   0  0  0  0  0  0
  -25.5988  -33.8440   24.2139 N   0  0  0  0  0  0
  -23.4644  -30.4592   21.5313 C   0  0  2  0  0  0
  -24.8883  -28.8785   20.0909 C   0  0  0  0  0  0
  -22.7590  -29.4456   22.4727 C   0  0  0  0  0  0
  -18.0263  -28.1414   22.8441 C   0  0  0  0  0  0
  -24.1445  -36.7141   23.2647 C   0  0  0  0  0  0
  -26.0335  -30.6221   21.4422 C   0  0  0  0  0  0
  -26.0604  -29.2202   20.7764 C   0  0  0  0  0  0
  -27.1223  -28.2225   20.8780 C   0  0  0  0  0  0
  -25.8651  -26.7161   19.4887 C   0  0  0  0  0  0
  -24.8316  -27.6677   19.3915 C   0  0  0  0  0  0
  -23.7026  -29.8307   20.1325 C   0  0  0  0  0  0
  -25.4103  -36.2965   24.0296 C   0  0  1  0  0  0
  -20.5887  -28.3746   23.1157 C   0  0  2  0  0  0
  -20.6767  -26.9431   22.5396 C   0  0  0  0  0  0
  -19.5772  -26.6348   21.5194 C   0  0  0  0  0  0
  -18.1925  -26.7931   22.1586 C   0  0  0  0  0  0
  -19.1532  -28.8890   23.2793 C   0  0  0  0  0  0
  -18.9481  -30.1478   23.8827 C   0  0  0  0  0  0
  -17.6501  -30.6626   24.0529 C   0  0  0  0  0  0
  -25.9101  -34.9345   23.5021 C   0  0  0  0  0  0
  -16.5367  -29.9119   23.6382 C   0  0  0  0  0  0
  -16.7247  -28.6531   23.0390 C   0  0  0  0  0  0
  -26.4555  -31.6617   25.0907 C   0  0  0  0  0  0
  -25.3685  -31.3966   26.1574 C   0  0  0  0  0  0
  -27.0517  -30.2937   24.6863 C   0  0  0  0  0  0
  -27.5961  -32.4542   25.7702 C   0  0  0  0  0  0
  -27.5559  -37.1695   24.8443 C   0  0  0  0  0  0
  -21.4257  -29.3042   22.3485 N   0  0  0  0  0  0
  -26.4216  -37.3741   23.9461 N   0  0  0  0  0  0
  -24.7386  -30.9980   22.1057 N   0  0  0  0  0  0
  -23.4128  -28.7988   23.2952 O   0  0  0  0  0  0
  -27.7053  -25.5991   20.6161 O   0  0  0  0  0  0
  -26.5730  -34.8851   22.4629 O   0  0  0  0  0  0
  -23.5647  -32.1351   23.6920 O   0  0  0  0  0  0
  -28.4637  -17.9820   22.7444 C   0  0  0  0  0  0
  -27.6391  -16.8208   22.7892 C   0  0  0  0  0  0
  -28.0494  -19.2648   22.2837 C   0  0  0  0  0  0
  -25.8911  -18.2386   21.9316 C   0  0  0  0  0  0
  -26.2743  -16.8022   22.4096 C   0  0  0  0  0  0
  -26.7389  -19.5411   21.8306 C   0  0  0  0  0  0
  -25.8160  -12.8209   19.2397 C   0  0  0  0  0  0
  -25.3995  -15.2735   22.7423 C   0  0  0  0  0  0
  -27.1169  -13.8178   18.3511 C   0  0  0  0  0  0
  -26.9897  -24.0802   20.6487 C   0  0  0  0  0  0
  -27.2410  -22.4280   21.4030 C   0  0  0  0  0  0
  -25.2786  -13.6503   22.0832 N   0  0  0  0  0  0
  -28.6498  -14.6029   18.6867 N   0  0  0  0  0  0
  -25.3079  -11.9205   18.5408 O   0  0  0  0  0  0
  -26.4329  -20.9763   21.3494 O   0  0  0  0  0  0
  -31.6167  -12.5666   18.7970 H   0  0  0  0  0  0
  -31.0230  -11.4418   19.9977 H   0  0  0  0  0  0
  -29.8220  -10.9063   17.9699 H   0  0  0  0  0  0
  -29.4553  -12.5491   17.5811 H   0  0  0  0  0  0
  -28.6418  -10.8413   19.9681 H   0  0  0  0  0  0
  -27.5813  -11.2754   18.8155 H   0  0  0  0  0  0
  -28.0932  -13.9160   20.6222 H   0  0  0  0  0  0
  -29.7549  -12.0754   21.7894 H   0  0  0  0  0  0
  -29.4332  -13.7968   22.0991 H   0  0  0  0  0  0
  -25.2010   -9.6863   22.5129 H   0  0  0  0  0  0
  -24.0194   -7.5323   22.7347 H   0  0  0  0  0  0
  -21.0694   -8.8675   19.8825 H   0  0  0  0  0  0
  -22.2678  -11.0166   19.6480 H   0  0  0  0  0  0
  -21.2263   -7.6244   23.9693 H   0  0  0  0  0  0
  -21.1483   -6.0602   25.9015 H   0  0  0  0  0  0
  -22.0534   -2.7645   23.2851 H   0  0  0  0  0  0
  -22.3958  -12.1869   21.9998 H   0  0  0  0  0  0
  -21.0638  -13.2956   22.1085 H   0  0  0  0  0  0
  -24.7484  -16.6066   19.5219 H   0  0  0  0  0  0
  -26.3973  -16.5129   19.8620 H   0  0  0  0  0  0
  -26.7380  -32.5055   23.1033 H   0  0  0  0  0  0
  -25.0082  -33.9626   25.0237 H   0  0  0  0  0  0
  -22.7739  -31.2916   21.3889 H   0  0  0  0  0  0
  -23.3774  -35.9407   23.3252 H   0  0  0  0  0  0
  -24.3509  -36.8862   22.2077 H   0  0  0  0  0  0
  -23.7117  -37.6243   23.6776 H   0  0  0  0  0  0
  -26.2654  -31.3755   20.6889 H   0  0  0  0  0  0
  -26.8721  -30.6297   22.1252 H   0  0  0  0  0  0
  -27.9730  -28.4497   21.5073 H   0  0  0  0  0  0
  -25.7094  -25.7810   18.9702 H   0  0  0  0  0  0
  -23.9613  -27.4309   18.7916 H   0  0  0  0  0  0
  -23.8816  -30.6309   19.4101 H   0  0  0  0  0  0
  -22.8069  -29.3137   19.7835 H   0  0  0  0  0  0
  -25.1294  -36.1740   25.0788 H   0  0  0  0  0  0
  -20.9973  -28.3375   24.1276 H   0  0  0  0  0  0
  -20.5619  -26.2386   23.3638 H   0  0  0  0  0  0
  -21.6643  -26.7415   22.1228 H   0  0  0  0  0  0
  -19.6975  -25.6224   21.1323 H   0  0  0  0  0  0
  -19.6749  -27.3058   20.6646 H   0  0  0  0  0  0
  -17.4195  -26.6576   21.3993 H   0  0  0  0  0  0
  -18.0371  -26.0093   22.9021 H   0  0  0  0  0  0
  -19.7975  -30.7279   24.2147 H   0  0  0  0  0  0
  -17.5089  -31.6308   24.5141 H   0  0  0  0  0  0
  -15.5387  -30.3047   23.7784 H   0  0  0  0  0  0
  -15.8591  -28.0854   22.7222 H   0  0  0  0  0  0
  -24.5797  -30.7388   25.7932 H   0  0  0  0  0  0
  -24.8986  -32.3235   26.4871 H   0  0  0  0  0  0
  -25.7897  -30.9220   27.0455 H   0  0  0  0  0  0
  -26.3251  -29.6408   24.2002 H   0  0  0  0  0  0
  -27.4028  -29.7579   25.5705 H   0  0  0  0  0  0
  -27.9210  -30.3996   24.0371 H   0  0  0  0  0  0
  -27.2379  -33.3805   26.2214 H   0  0  0  0  0  0
  -28.3763  -32.7201   25.0571 H   0  0  0  0  0  0
  -28.0666  -31.8827   26.5709 H   0  0  0  0  0  0
  -28.2462  -38.0105   24.7654 H   0  0  0  0  0  0
  -28.1162  -36.2634   24.6045 H   0  0  0  0  0  0
  -27.2310  -37.1062   25.8847 H   0  0  0  0  0  0
  -20.9450  -29.8703   21.6614 H   0  0  0  0  0  0
  -26.0017  -38.2736   24.1661 H   0  0  0  0  0  0
  -29.4857  -17.8870   23.1002 H   0  0  0  0  0  0
  -28.0810  -15.9133   23.1803 H   0  0  0  0  0  0
  -28.7917  -20.0496   22.2872 H   0  0  0  0  0  0
  -24.8634  -18.3589   21.6146 H   0  0  0  0  0  0
  -24.3650  -15.6138   22.6844 H   0  0  0  0  0  0
  -25.5344  -15.1221   23.8098 H   0  0  0  0  0  0
  -26.5459  -14.6035   17.8580 H   0  0  0  0  0  0
  -27.3443  -13.1976   17.4829 H   0  0  0  0  0  0
  -25.9636  -24.3128   20.9355 H   0  0  0  0  0  0
  -26.9290  -23.8500   19.5849 H   0  0  0  0  0  0
  -27.2477  -22.6454   22.4724 H   0  0  0  0  0  0
  -28.2752  -22.1600   21.1930 H   0  0  0  0  0  0
  -24.8199  -12.9841   22.6852 H   0  0  0  0  0  0
  -28.6612  -15.4925   18.2081 H   0  0  0  0  0  0
  1 25  1  0  0  0
  1 30  2  0  0  0
  1 83  1  0  0  0
  2  3  1  0  0  0
  2 25  1  0  0  0
  2 86  1  0  0  0
  2 87  1  0  0  0
  3  4  1  0  0  0
  3 88  1  0  0  0
  3 89  1  0  0  0
  4  5  1  0  0  0
  4 90  1  0  0  0
  4 91  1  0  0  0
  5  6  1  0  0  0
  5 26  1  0  0  0
  5 92  1  0  0  0
  6 25  1  0  0  0
  6 93  1  0  0  0
  6 94  1  0  0  0
  7  8  2  0  0  0
  7 26  1  0  0  0
  7 29  1  0  0  0
  8  9  1  0  0  0
  8 22  1  0  0  0
  9 10  1  0  0  0
  9 27  2  0  0  0
 10 11  2  0  0  0
 10 15  1  0  0  0
 11 12  1  0  0  0
 11 95  1  0  0  0
 12 13  2  0  0  0
 12 96  1  0  0  0
 13 14  1  0  0  0
 13 31  1  0  0  0
 14 15  2  0  0  0
 14 97  1  0  0  0
 15 98  1  0  0  0
 16 17  2  0  0  0
 16 21  1  0  0  0
 16 31  1  0  0  0
 17 18  1  0  0  0
 17 99  1  0  0  0
 18 19  2  0  0  0
 18100  1  0  0  0
 19 20  1  0  0  0
 19 24  1  0  0  0
 20 21  2  0  0  0
 20101  1  0  0  0
 21 23  1  0  0  0
 22 28  1  0  0  0
 22 32  2  0  0  0
 26 27  1  0  0  0
 28102  1  0  0  0
 28103  1  0  0  0
 29104  1  0  0  0
 29105  1  0  0  0
 33 34  1  0  0  0
 33 66  1  0  0  0
 33 70  2  0  0  0
 34 36  1  0  0  0
 34 59  1  0  0  0
 34106  1  0  0  0
 35 44  2  0  0  0
 35 45  1  0  0  0
 35 68  1  0  0  0
 36 56  1  0  0  0
 36107  1  0  0  0
 37 39  1  0  0  0
 37 47  1  0  0  0
 37 66  1  0  0  0
 37108  1  0  0  0
 38 43  2  0  0  0
 38 46  1  0  0  0
 38 47  1  0  0  0
 39 64  1  0  0  0
 39 67  2  0  0  0
 40 52  1  0  0  0
 40 53  2  0  0  0
 40 58  1  0  0  0
 41109  1  0  0  0
 41110  1  0  0  0
 41111  1  0  0  0
 41 48  1  0  0  0
 42 43  1  0  0  0
 42 66  1  0  0  0
 42112  1  0  0  0
 42113  1  0  0  0
 43 44  1  0  0  0
 44114  1  0  0  0
 45 46  2  0  0  0
 45115  1  0  0  0
 46116  1  0  0  0
 47117  1  0  0  0
 47118  1  0  0  0
 48 56  1  0  0  0
 48 65  1  0  0  0
 48119  1  0  0  0
 49 50  1  0  0  0
 49 53  1  0  0  0
 49 64  1  0  0  0
 49120  1  0  0  0
 50 51  1  0  0  0
 50121  1  0  0  0
 50122  1  0  0  0
 51 52  1  0  0  0
 51123  1  0  0  0
 51124  1  0  0  0
 52125  1  0  0  0
 52126  1  0  0  0
 53 54  1  0  0  0
 54 55  2  0  0  0
 54127  1  0  0  0
 55 57  1  0  0  0
 55128  1  0  0  0
 56 69  2  0  0  0
 57 58  2  0  0  0
 57129  1  0  0  0
 58130  1  0  0  0
 59 60  1  0  0  0
 59 61  1  0  0  0
 59 62  1  0  0  0
 60131  1  0  0  0
 60132  1  0  0  0
 60133  1  0  0  0
 61134  1  0  0  0
 61135  1  0  0  0
 61136  1  0  0  0
 62137  1  0  0  0
 62138  1  0  0  0
 62139  1  0  0  0
 63 65  1  0  0  0
 63140  1  0  0  0
 63141  1  0  0  0
 63142  1  0  0  0
 64143  1  0  0  0
 65144  1  0  0  0
 68 80  1  0  0  0
 71 72  2  0  0  0
 71 73  1  0  0  0
 71145  1  0  0  0
 72 75  1  0  0  0
 72146  1  0  0  0
 73 76  2  0  0  0
 73147  1  0  0  0
 74 75  2  0  0  0
 74 76  1  0  0  0
 74148  1  0  0  0
 75 78  1  0  0  0
 76 85  1  0  0  0
 77 79  1  0  0  0
 77 82  1  0  0  0
 77 84  2  0  0  0
 78 82  1  0  0  0
 78149  1  0  0  0
 78150  1  0  0  0
 79 83  1  0  0  0
 79151  1  0  0  0
 79152  1  0  0  0
 80 81  1  0  0  0
 80153  1  0  0  0
 80154  1  0  0  0
 81 85  1  0  0  0
 81155  1  0  0  0
 81156  1  0  0  0
 82157  1  0  0  0
 83158  1  0  0  0
M  ISO  4   1 100  68 101  80 101  83 100
M  END
> <chiral flag>
0

> <version>
0

> <s_m_source_file>
/data/baiqing/PycharmProjects/Reinvent-master-3.2/result/LINK_invent/BTK/process_docking_weight1_custom_product_contain_oxygen_bond_distance_aromatic_linkinvent_7_9_3/rearranged_h_0000.sdf

> <i_m_source_file_index>
74

> <r_mmod_Potential_Energy-OPLS-2005>
16530.546875

> <r_mmod_Stretch_Energy-OPLS-2005>
10240.4267578125

> <r_mmod_Bend_Energy-OPLS-2005>
1054.05810546875

> <r_mmod_Torsional_Energy-OPLS-2005>
436.854278564453

> <r_mmod_Improper_Torsional_Energy-OPLS-2005>
31.3361988067627

> <r_mmod_Van_der_Waal_Energy-OPLS-2005>
3908.51391601562

> <r_mmod_Electrostatic_Energy-OPLS-2005>
-490.565734863281

> <r_mmod_Solvation_Energy-OPLS-2005>
-243.437942504883

> <b_mmod_Minimization_Converged-OPLS-2005>
0

> <r_mmod_RMS_Derivative-OPLS-2005>
11.8733921051025

$$$$
74
                    3D
 Structure written by MMmdl.
150158  0  0  1  0            999 V2000
  -30.2803  -15.7748   20.3080 C   0  0  0  0  0  0
  -30.4106  -13.1756   19.5620 C   0  0  0  0  0  0
  -29.5564  -12.7321   18.3366 C   0  0  0  0  0  0
  -28.1432  -12.3251   18.7758 C   0  0  0  0  0  0
  -27.5977  -13.3253   19.8148 C   0  0  2  0  0  0
  -28.5988  -13.7305   20.9296 C   0  0  0  0  0  0
  -25.2331  -13.8323   20.5781 C   0  0  0  0  0  0
  -24.1724  -13.0421   20.9186 C   0  0  0  0  0  0
  -24.6470  -11.6954   20.8656 C   0  0  0  0  0  0
  -23.9186  -10.4276   21.0332 C   0  0  0  0  0  0
  -24.3714   -9.4168   21.9112 C   0  0  0  0  0  0
  -23.6382   -8.2224   22.0709 C   0  0  0  0  0  0
  -22.4331   -8.0288   21.3534 C   0  0  0  0  0  0
  -21.9998   -9.0230   20.4585 C   0  0  0  0  0  0
  -22.7348  -10.2089   20.2990 C   0  0  0  0  0  0
  -21.6906   -6.0748   22.5294 C   0  0  0  0  0  0
  -21.4011   -6.5638   23.8233 C   0  0  0  0  0  0
  -21.3683   -5.6773   24.9178 C   0  0  0  0  0  0
  -21.6089   -4.3037   24.7251 C   0  0  0  0  0  0
  -21.8824   -3.8158   23.4336 C   0  0  0  0  0  0
  -21.9194   -4.6984   22.3399 C   0  0  0  0  0  0
  -22.7729  -13.5098   21.1908 C   0  0  0  0  0  0
  -22.1650   -4.2166   21.0980 F   0  0  0  0  0  0
  -21.5658   -3.4513   25.7746 F   0  0  0  0  0  0
  -29.7685  -14.3827   20.2839 N   0  0  0  0  0  0
  -26.2800  -12.9685   20.3267 N   0  0  0  0  0  0
  -25.9445  -11.6707   20.5686 N   0  0  0  0  0  0
  -22.0425  -12.8034   22.0460 N   0  0  0  0  0  0
  -25.3944  -15.2068   20.4199 N   0  0  0  0  0  0
  -31.5100  -15.6835   20.0997 O   0  0  0  0  0  0
  -21.6694   -6.8889   21.4254 O   0  0  0  0  0  0
  -22.3384  -14.5405   20.6787 O   0  0  0  0  0  0
  -24.6964  -31.7929   23.1468 C   0  0  0  0  0  0
  -25.9522  -32.4413   23.8035 C   0  0  1  0  0  0
  -27.2236  -26.6193   20.2255 C   0  0  0  0  0  0
  -25.6108  -33.8252   24.1963 N   0  0  0  0  0  0
  -23.5228  -30.3972   21.5025 C   0  0  2  0  0  0
  -24.9809  -28.7191   20.1247 C   0  0  0  0  0  0
  -22.7823  -29.4316   22.4669 C   0  0  0  0  0  0
  -18.0383  -28.1464   22.8494 C   0  0  0  0  0  0
  -24.1460  -36.7059   23.2652 C   0  0  0  0  0  0
  -26.1076  -30.4928   21.4282 C   0  0  0  0  0  0
  -26.1715  -29.0502   20.7791 C   0  0  0  0  0  0
  -27.2745  -28.0336   20.7972 C   0  0  0  0  0  0
  -25.9943  -26.5191   19.5160 C   0  0  0  0  0  0
  -24.9354  -27.4783   19.4704 C   0  0  0  0  0  0
  -23.7849  -29.6903   20.1395 C   0  0  0  0  0  0
  -25.4121  -36.2854   24.0302 C   0  0  1  0  0  0
  -20.6016  -28.3814   23.1120 C   0  0  2  0  0  0
  -20.6842  -26.9455   22.5408 C   0  0  0  0  0  0
  -19.5808  -26.6404   21.5246 C   0  0  0  0  0  0
  -18.1981  -26.7998   22.1620 C   0  0  0  0  0  0
  -19.1636  -28.8977   23.2774 C   0  0  0  0  0  0
  -18.9530  -30.1574   23.8819 C   0  0  0  0  0  0
  -17.6514  -30.6625   24.0598 C   0  0  0  0  0  0
  -25.9141  -34.9266   23.4955 C   0  0  0  0  0  0
  -16.5427  -29.9098   23.6405 C   0  0  0  0  0  0
  -16.7347  -28.6528   23.0396 C   0  0  0  0  0  0
  -26.4677  -31.6470   25.0690 C   0  0  0  0  0  0
  -25.3736  -31.3837   26.1294 C   0  0  0  0  0  0
  -27.0664  -30.2815   24.6662 C   0  0  0  0  0  0
  -27.6128  -32.4348   25.7483 C   0  0  0  0  0  0
  -27.5551  -37.1667   24.8462 C   0  0  0  0  0  0
  -21.4470  -29.3020   22.3414 N   0  0  0  0  0  0
  -26.4203  -37.3658   23.9489 N   0  0  0  0  0  0
  -24.7989  -30.9293   22.0766 N   0  0  0  0  0  0
  -23.4254  -28.7893   23.3020 O   0  0  0  0  0  0
  -28.1634  -25.3509   20.2303 O   0  0  0  0  0  0
  -26.5711  -34.8868   22.4522 O   0  0  0  0  0  0
  -23.5972  -32.1082   23.6373 O   0  0  0  0  0  0
  -30.1228  -21.9566   19.5574 C   0  0  0  0  0  0
  -30.7910  -19.4709   19.6270 C   0  0  0  0  0  0
  -28.6955  -20.2592   20.4558 C   0  0  0  0  0  0
  -31.0309  -20.8655   19.2936 C   0  0  0  0  0  0
  -28.8627  -21.8605   20.1831 C   0  0  0  0  0  0
  -29.6071  -18.9297   20.2124 C   0  0  0  0  0  0
  -32.3429  -21.2620   18.6503 C   0  0  0  0  0  0
  -27.9039  -23.4601   20.3703 C   0  0  0  0  0  0
  -33.9836  -20.7539   16.8477 C   0  0  0  0  0  0
  -29.5283  -17.1754   20.4218 N   0  0  0  0  0  0
  -32.8742  -20.4226   17.7498 N   0  0  0  0  0  0
  -32.8433  -22.3661   18.8771 O   0  0  0  0  0  0
  -26.7346  -23.2106   20.6787 O   0  0  0  0  0  0
  -31.4143  -13.4169   19.2178 H   0  0  0  0  0  0
  -30.5532  -12.3354   20.2405 H   0  0  0  0  0  0
  -30.0358  -11.9117   17.7986 H   0  0  0  0  0  0
  -29.4910  -13.5744   17.6457 H   0  0  0  0  0  0
  -28.1975  -11.3253   19.2096 H   0  0  0  0  0  0
  -27.4798  -12.2676   17.9087 H   0  0  0  0  0  0
  -27.4364  -14.2258   19.2236 H   0  0  0  0  0  0
  -28.8808  -12.8784   21.5504 H   0  0  0  0  0  0
  -28.1305  -14.4481   21.6029 H   0  0  0  0  0  0
  -25.2834   -9.5677   22.4711 H   0  0  0  0  0  0
  -24.0091   -7.4640   22.7436 H   0  0  0  0  0  0
  -21.0947   -8.8731   19.8883 H   0  0  0  0  0  0
  -22.3789  -10.9625   19.6101 H   0  0  0  0  0  0
  -21.1960   -7.6137   23.9750 H   0  0  0  0  0  0
  -21.1523   -6.0489   25.9104 H   0  0  0  0  0  0
  -22.0587   -2.7625   23.2854 H   0  0  0  0  0  0
  -22.4116  -11.9722   22.4796 H   0  0  0  0  0  0
  -21.1016  -13.0999   22.2664 H   0  0  0  0  0  0
  -24.6133  -15.8539   20.4587 H   0  0  0  0  0  0
  -26.2575  -15.6509   20.1361 H   0  0  0  0  0  0
  -26.7597  -32.4869   23.0736 H   0  0  0  0  0  0
  -25.0408  -33.9296   25.0237 H   0  0  0  0  0  0
  -22.8552  -31.2396   21.3057 H   0  0  0  0  0  0
  -23.3815  -35.9278   23.3173 H   0  0  0  0  0  0
  -24.3551  -36.8854   22.2095 H   0  0  0  0  0  0
  -23.7079  -37.6143   23.6793 H   0  0  0  0  0  0
  -26.3338  -31.2128   20.6418 H   0  0  0  0  0  0
  -26.9482  -30.5535   22.1045 H   0  0  0  0  0  0
  -28.1658  -28.3070   21.3426 H   0  0  0  0  0  0
  -25.8126  -25.5943   18.9914 H   0  0  0  0  0  0
  -24.0433  -27.2192   18.9223 H   0  0  0  0  0  0
  -23.9824  -30.4520   19.3837 H   0  0  0  0  0  0
  -22.8841  -29.1761   19.7936 H   0  0  0  0  0  0
  -25.1304  -36.1570   25.0771 H   0  0  0  0  0  0
  -21.0149  -28.3447   24.1227 H   0  0  0  0  0  0
  -20.5766  -26.2438   23.3692 H   0  0  0  0  0  0
  -21.6681  -26.7410   22.1189 H   0  0  0  0  0  0
  -19.6958  -25.6291   21.1321 H   0  0  0  0  0  0
  -19.6756  -27.3216   20.6761 H   0  0  0  0  0  0
  -17.4285  -26.6848   21.3974 H   0  0  0  0  0  0
  -18.0273  -26.0109   22.8959 H   0  0  0  0  0  0
  -19.7980  -30.7454   24.2089 H   0  0  0  0  0  0
  -17.5038  -31.6293   24.5236 H   0  0  0  0  0  0
  -15.5399  -30.2973   23.7784 H   0  0  0  0  0  0
  -15.8745  -28.0856   22.7107 H   0  0  0  0  0  0
  -24.5998  -30.7057   25.7645 H   0  0  0  0  0  0
  -24.8866  -32.3082   26.4397 H   0  0  0  0  0  0
  -25.7958  -30.9277   27.0258 H   0  0  0  0  0  0
  -26.3461  -29.6361   24.1615 H   0  0  0  0  0  0
  -27.4033  -29.7282   25.5438 H   0  0  0  0  0  0
  -27.9435  -30.3940   24.0289 H   0  0  0  0  0  0
  -27.2696  -33.3764   26.1741 H   0  0  0  0  0  0
  -28.4090  -32.6677   25.0410 H   0  0  0  0  0  0
  -28.0578  -31.8666   26.5651 H   0  0  0  0  0  0
  -28.2447  -38.0083   24.7664 H   0  0  0  0  0  0
  -28.1164  -36.2628   24.6054 H   0  0  0  0  0  0
  -27.2319  -37.1009   25.8866 H   0  0  0  0  0  0
  -20.9824  -29.8627   21.6402 H   0  0  0  0  0  0
  -26.0003  -38.2647   24.1660 H   0  0  0  0  0  0
  -30.4112  -22.9529   19.2437 H   0  0  0  0  0  0
  -31.5810  -18.7704   19.3993 H   0  0  0  0  0  0
  -27.7420  -20.0265   20.9094 H   0  0  0  0  0  0
  -33.7610  -20.3796   15.8484 H   0  0  0  0  0  0
  -34.9228  -20.2995   17.1672 H   0  0  0  0  0  0
  -34.1539  -21.8283   16.7518 H   0  0  0  0  0  0
  -28.5966  -16.9285   20.7290 H   0  0  0  0  0  0
  -32.4159  -19.5319   17.6125 H   0  0  0  0  0  0
  1 25  1  0  0  0
  1 30  2  0  0  0
  1 80  1  0  0  0
  2  3  1  0  0  0
  2 25  1  0  0  0
  2 84  1  0  0  0
  2 85  1  0  0  0
  3  4  1  0  0  0
  3 86  1  0  0  0
  3 87  1  0  0  0
  4  5  1  0  0  0
  4 88  1  0  0  0
  4 89  1  0  0  0
  5  6  1  0  0  0
  5 26  1  0  0  0
  5 90  1  0  0  0
  6 25  1  0  0  0
  6 91  1  0  0  0
  6 92  1  0  0  0
  7  8  2  0  0  0
  7 26  1  0  0  0
  7 29  1  0  0  0
  8  9  1  0  0  0
  8 22  1  0  0  0
  9 10  1  0  0  0
  9 27  2  0  0  0
 10 11  2  0  0  0
 10 15  1  0  0  0
 11 12  1  0  0  0
 11 93  1  0  0  0
 12 13  2  0  0  0
 12 94  1  0  0  0
 13 14  1  0  0  0
 13 31  1  0  0  0
 14 15  2  0  0  0
 14 95  1  0  0  0
 15 96  1  0  0  0
 16 17  2  0  0  0
 16 21  1  0  0  0
 16 31  1  0  0  0
 17 18  1  0  0  0
 17 97  1  0  0  0
 18 19  2  0  0  0
 18 98  1  0  0  0
 19 20  1  0  0  0
 19 24  1  0  0  0
 20 21  2  0  0  0
 20 99  1  0  0  0
 21 23  1  0  0  0
 22 28  1  0  0  0
 22 32  2  0  0  0
 26 27  1  0  0  0
 28100  1  0  0  0
 28101  1  0  0  0
 29102  1  0  0  0
 29103  1  0  0  0
 33 34  1  0  0  0
 33 66  1  0  0  0
 33 70  2  0  0  0
 34 36  1  0  0  0
 34 59  1  0  0  0
 34104  1  0  0  0
 35 44  2  0  0  0
 35 45  1  0  0  0
 35 68  1  0  0  0
 36 56  1  0  0  0
 36105  1  0  0  0
 37 39  1  0  0  0
 37 47  1  0  0  0
 37 66  1  0  0  0
 37106  1  0  0  0
 38 43  2  0  0  0
 38 46  1  0  0  0
 38 47  1  0  0  0
 39 64  1  0  0  0
 39 67  2  0  0  0
 40 52  1  0  0  0
 40 53  2  0  0  0
 40 58  1  0  0  0
 41107  1  0  0  0
 41108  1  0  0  0
 41109  1  0  0  0
 41 48  1  0  0  0
 42 43  1  0  0  0
 42 66  1  0  0  0
 42110  1  0  0  0
 42111  1  0  0  0
 43 44  1  0  0  0
 44112  1  0  0  0
 45 46  2  0  0  0
 45113  1  0  0  0
 46114  1  0  0  0
 47115  1  0  0  0
 47116  1  0  0  0
 48 56  1  0  0  0
 48 65  1  0  0  0
 48117  1  0  0  0
 49 50  1  0  0  0
 49 53  1  0  0  0
 49 64  1  0  0  0
 49118  1  0  0  0
 50 51  1  0  0  0
 50119  1  0  0  0
 50120  1  0  0  0
 51 52  1  0  0  0
 51121  1  0  0  0
 51122  1  0  0  0
 52123  1  0  0  0
 52124  1  0  0  0
 53 54  1  0  0  0
 54 55  2  0  0  0
 54125  1  0  0  0
 55 57  1  0  0  0
 55126  1  0  0  0
 56 69  2  0  0  0
 57 58  2  0  0  0
 57127  1  0  0  0
 58128  1  0  0  0
 59 60  1  0  0  0
 59 61  1  0  0  0
 59 62  1  0  0  0
 60129  1  0  0  0
 60130  1  0  0  0
 60131  1  0  0  0
 61132  1  0  0  0
 61133  1  0  0  0
 61134  1  0  0  0
 62135  1  0  0  0
 62136  1  0  0  0
 62137  1  0  0  0
 63 65  1  0  0  0
 63138  1  0  0  0
 63139  1  0  0  0
 63140  1  0  0  0
 64141  1  0  0  0
 65142  1  0  0  0
 68 78  1  0  0  0
 71 74  2  0  0  0
 71 75  1  0  0  0
 71143  1  0  0  0
 72 74  1  0  0  0
 72 76  2  0  0  0
 72144  1  0  0  0
 73 75  2  0  0  0
 73 76  1  0  0  0
 73145  1  0  0  0
 74 77  1  0  0  0
 75 78  1  0  0  0
 76 80  1  0  0  0
 77 81  1  0  0  0
 77 82  2  0  0  0
 78 83  2  0  0  0
 79 81  1  0  0  0
 79146  1  0  0  0
 79147  1  0  0  0
 79148  1  0  0  0
 80149  1  0  0  0
 81150  1  0  0  0
M  ISO  4   1 100  68 101  78 101  80 100
M  END
> <chiral flag>
0

> <version>
0

> <s_m_source_file>
/data/baiqing/PycharmProjects/Reinvent-master-3.2/result/LINK_invent/BTK/process_docking_weight1_custom_product_contain_oxygen_bond_distance_aromatic_linkinvent_7_9_3/rearranged_h_0000.sdf

> <i_m_source_file_index>
75

> <r_mmod_Potential_Energy-OPLS-2005>
2768.8408203125

> <r_mmod_Stretch_Energy-OPLS-2005>
1328.52575683594

> <r_mmod_Bend_Energy-OPLS-2005>
642.709655761719

> <r_mmod_Torsional_Energy-OPLS-2005>
226.426849365234

> <r_mmod_Improper_Torsional_Energy-OPLS-2005>
3.6491904258728

> <r_mmod_Van_der_Waal_Energy-OPLS-2005>
131.027481079102

> <r_mmod_Electrostatic_Energy-OPLS-2005>
-413.917144775391

> <r_mmod_Solvation_Energy-OPLS-2005>
-250.952911376953

> <b_mmod_Minimization_Converged-OPLS-2005>
0

> <r_mmod_RMS_Derivative-OPLS-2005>
6.95798444747925

$$$$
75
                    3D
 Structure written by MMmdl.
151158  0  0  1  0            999 V2000
  -30.6553  -14.5615   20.5164 C   0  0  0  0  0  0
  -30.4343  -12.3448   19.4472 C   0  0  0  0  0  0
  -29.5058  -12.5000   18.2222 C   0  0  0  0  0  0
  -28.0269  -12.3522   18.6318 C   0  0  0  0  0  0
  -27.6599  -13.2100   19.8722 C   0  0  2  0  0  0
  -28.7030  -13.0341   21.0011 C   0  0  0  0  0  0
  -25.2584  -13.8162   20.5687 C   0  0  0  0  0  0
  -24.1839  -13.0436   20.9184 C   0  0  0  0  0  0
  -24.6399  -11.6904   20.8735 C   0  0  0  0  0  0
  -23.9065  -10.4291   21.0404 C   0  0  0  0  0  0
  -24.3613   -9.4209   21.9185 C   0  0  0  0  0  0
  -23.6290   -8.2244   22.0754 C   0  0  0  0  0  0
  -22.4274   -8.0280   21.3544 C   0  0  0  0  0  0
  -21.9908   -9.0255   20.4647 C   0  0  0  0  0  0
  -22.7234  -10.2136   20.3058 C   0  0  0  0  0  0
  -21.6852   -6.0737   22.5281 C   0  0  0  0  0  0
  -21.4013   -6.5642   23.8214 C   0  0  0  0  0  0
  -21.3659   -5.6793   24.9176 C   0  0  0  0  0  0
  -21.6042   -4.3056   24.7226 C   0  0  0  0  0  0
  -21.8819   -3.8149   23.4347 C   0  0  0  0  0  0
  -21.9193   -4.6966   22.3403 C   0  0  0  0  0  0
  -22.7864  -13.5235   21.1847 C   0  0  0  0  0  0
  -22.1662   -4.2151   21.0980 F   0  0  0  0  0  0
  -21.5628   -3.4539   25.7739 F   0  0  0  0  0  0
  -30.0293  -13.3503   20.4461 N   0  0  0  0  0  0
  -26.3021  -12.9338   20.3357 N   0  0  0  0  0  0
  -25.9330  -11.6495   20.5769 N   0  0  0  0  0  0
  -22.0500  -12.8230   22.0403 N   0  0  0  0  0  0
  -25.4306  -15.1882   20.4098 N   0  0  0  0  0  0
  -31.7943  -14.7459   20.0817 O   0  0  0  0  0  0
  -21.6637   -6.8878   21.4242 O   0  0  0  0  0  0
  -22.3554  -14.5544   20.6697 O   0  0  0  0  0  0
  -24.6214  -31.8639   23.2075 C   0  0  0  0  0  0
  -25.9085  -32.4801   23.8384 C   0  0  1  0  0  0
  -27.2255  -27.3712   20.1033 C   0  0  0  0  0  0
  -25.5919  -33.8602   24.2308 N   0  0  0  0  0  0
  -23.4114  -30.4896   21.5492 C   0  0  2  0  0  0
  -24.8565  -28.9542   20.1093 C   0  0  0  0  0  0
  -22.7445  -29.4644   22.4958 C   0  0  0  0  0  0
  -18.0278  -28.1380   22.8491 C   0  0  0  0  0  0
  -24.1487  -36.7311   23.2637 C   0  0  0  0  0  0
  -25.9475  -30.8102   21.3710 C   0  0  0  0  0  0
  -26.0215  -29.4415   20.7145 C   0  0  0  0  0  0
  -27.2071  -28.6586   20.7081 C   0  0  0  0  0  0
  -26.0402  -26.9304   19.4662 C   0  0  0  0  0  0
  -24.8648  -27.7015   19.4786 C   0  0  0  0  0  0
  -23.6224  -29.8285   20.1616 C   0  0  0  0  0  0
  -25.4106  -36.3097   24.0333 C   0  0  1  0  0  0
  -20.5876  -28.3678   23.1297 C   0  0  2  0  0  0
  -20.6771  -26.9407   22.5414 C   0  0  0  0  0  0
  -19.5748  -26.6385   21.5213 C   0  0  0  0  0  0
  -18.1926  -26.7925   22.1623 C   0  0  0  0  0  0
  -19.1531  -28.8844   23.2893 C   0  0  0  0  0  0
  -18.9454  -30.1447   23.8907 C   0  0  0  0  0  0
  -17.6457  -30.6586   24.0563 C   0  0  0  0  0  0
  -25.9042  -34.9465   23.5117 C   0  0  0  0  0  0
  -16.5347  -29.9089   23.6325 C   0  0  0  0  0  0
  -16.7266  -28.6504   23.0347 C   0  0  0  0  0  0
  -26.4492  -31.6591   25.0732 C   0  0  0  0  0  0
  -25.3750  -31.3715   26.1476 C   0  0  0  0  0  0
  -27.0327  -30.3021   24.6144 C   0  0  0  0  0  0
  -27.6054  -32.4318   25.7506 C   0  0  0  0  0  0
  -27.5575  -37.1810   24.8463 C   0  0  0  0  0  0
  -21.4166  -29.3041   22.3700 N   0  0  0  0  0  0
  -26.4286  -37.3783   23.9409 N   0  0  0  0  0  0
  -24.6785  -31.0701   22.1001 N   0  0  0  0  0  0
  -23.4196  -28.8175   23.3006 O   0  0  0  0  0  0
  -28.3648  -26.5671   20.1596 O   0  0  0  0  0  0
  -26.5600  -34.8920   22.4678 O   0  0  0  0  0  0
  -23.5393  -32.1416   23.7435 O   0  0  0  0  0  0
  -29.9427  -17.0084   20.3659 C   0  0  0  0  0  0
  -30.2398  -18.1042   21.4380 C   0  0  0  0  0  0
  -28.2075  -25.1343   19.9110 C   0  0  0  0  0  0
  -29.2662  -24.1793   20.5573 C   0  0  0  0  0  0
  -29.9175  -20.3642   20.4052 C   0  0  0  0  0  0
  -29.8174  -21.8260   20.9840 C   0  0  0  0  0  0
  -29.8654  -15.6054   20.8638 N   0  0  0  0  0  0
  -29.4912  -19.3441   21.3363 O   0  0  0  0  0  0
  -29.0968  -22.7873   20.1739 O   0  0  0  0  0  0
  -31.4781  -12.4560   19.1472 H   0  0  0  0  0  0
  -30.3514  -11.3425   19.8699 H   0  0  0  0  0  0
  -29.7587  -11.7587   17.4631 H   0  0  0  0  0  0
  -29.6633  -13.4758   17.7598 H   0  0  0  0  0  0
  -27.8494  -11.2980   18.8472 H   0  0  0  0  0  0
  -27.3765  -12.6041   17.7933 H   0  0  0  0  0  0
  -27.6900  -14.2503   19.5482 H   0  0  0  0  0  0
  -28.6939  -12.0094   21.3754 H   0  0  0  0  0  0
  -28.4608  -13.6637   21.8586 H   0  0  0  0  0  0
  -25.2760   -9.5685   22.4755 H   0  0  0  0  0  0
  -24.0002   -7.4637   22.7472 H   0  0  0  0  0  0
  -21.0840   -8.8774   19.8954 H   0  0  0  0  0  0
  -22.3696  -10.9673   19.6164 H   0  0  0  0  0  0
  -21.2005   -7.6149   23.9717 H   0  0  0  0  0  0
  -21.1480   -6.0523   25.9077 H   0  0  0  0  0  0
  -22.0598   -2.7611   23.2847 H   0  0  0  0  0  0
  -22.4113  -11.9886   22.4785 H   0  0  0  0  0  0
  -21.1121  -13.1263   22.2609 H   0  0  0  0  0  0
  -24.6640  -15.8434   20.5187 H   0  0  0  0  0  0
  -26.2817  -15.6270   20.0812 H   0  0  0  0  0  0
  -26.7157  -32.5488   23.1142 H   0  0  0  0  0  0
  -25.0089  -33.9756   25.0468 H   0  0  0  0  0  0
  -22.7027  -31.3087   21.4110 H   0  0  0  0  0  0
  -23.3738  -35.9655   23.3305 H   0  0  0  0  0  0
  -24.3581  -36.8924   22.2051 H   0  0  0  0  0  0
  -23.7254  -37.6523   23.6652 H   0  0  0  0  0  0
  -26.0704  -31.5737   20.6015 H   0  0  0  0  0  0
  -26.8328  -30.8610   21.9934 H   0  0  0  0  0  0
  -28.1002  -29.0266   21.1935 H   0  0  0  0  0  0
  -25.9945  -25.9816   18.9532 H   0  0  0  0  0  0
  -23.9737  -27.3260   18.9946 H   0  0  0  0  0  0
  -23.7382  -30.6078   19.4073 H   0  0  0  0  0  0
  -22.7435  -29.2556   19.8597 H   0  0  0  0  0  0
  -25.1283  -36.1955   25.0825 H   0  0  0  0  0  0
  -20.9968  -28.3250   24.1416 H   0  0  0  0  0  0
  -20.5675  -26.2286   23.3609 H   0  0  0  0  0  0
  -21.6641  -26.7445   22.1203 H   0  0  0  0  0  0
  -19.6911  -25.6300   21.1234 H   0  0  0  0  0  0
  -19.6685  -27.3205   20.6752 H   0  0  0  0  0  0
  -17.4196  -26.6671   21.4025 H   0  0  0  0  0  0
  -18.0322  -26.0066   22.9016 H   0  0  0  0  0  0
  -19.7933  -30.7257   24.2281 H   0  0  0  0  0  0
  -17.5015  -31.6265   24.5168 H   0  0  0  0  0  0
  -15.5351  -30.2995   23.7644 H   0  0  0  0  0  0
  -15.8663  -28.0830   22.7056 H   0  0  0  0  0  0
  -24.5923  -30.7058   25.7824 H   0  0  0  0  0  0
  -24.8950  -32.2878   26.4917 H   0  0  0  0  0  0
  -25.8105  -30.8896   27.0238 H   0  0  0  0  0  0
  -26.2885  -29.6782   24.1174 H   0  0  0  0  0  0
  -27.4053  -29.7258   25.4624 H   0  0  0  0  0  0
  -27.8744  -30.4323   23.9335 H   0  0  0  0  0  0
  -27.2656  -33.3602   26.2106 H   0  0  0  0  0  0
  -28.3859  -32.6902   25.0339 H   0  0  0  0  0  0
  -28.0726  -31.8432   26.5410 H   0  0  0  0  0  0
  -28.2595  -38.0105   24.7496 H   0  0  0  0  0  0
  -28.1067  -36.2633   24.6297 H   0  0  0  0  0  0
  -27.2294  -37.1473   25.8868 H   0  0  0  0  0  0
  -20.9327  -29.8783   21.6941 H   0  0  0  0  0  0
  -26.0170  -38.2861   24.1406 H   0  0  0  0  0  0
  -30.6541  -17.0949   19.5428 H   0  0  0  0  0  0
  -28.9678  -17.2228   19.9266 H   0  0  0  0  0  0
  -31.3103  -18.3080   21.4926 H   0  0  0  0  0  0
  -29.9771  -17.6939   22.4136 H   0  0  0  0  0  0
  -27.2444  -24.7911   20.2910 H   0  0  0  0  0  0
  -28.1973  -24.9789   18.8314 H   0  0  0  0  0  0
  -29.1932  -24.2677   21.6418 H   0  0  0  0  0  0
  -30.2711  -24.5014   20.2815 H   0  0  0  0  0  0
  -30.9434  -20.1789   20.0829 H   0  0  0  0  0  0
  -29.3018  -20.2769   19.5094 H   0  0  0  0  0  0
  -30.8295  -22.1951   21.1586 H   0  0  0  0  0  0
  -29.3415  -21.7928   21.9649 H   0  0  0  0  0  0
  -28.9732  -15.3399   21.2544 H   0  0  0  0  0  0
  1 25  1  0  0  0
  1 30  2  0  0  0
  1 77  1  0  0  0
  2  3  1  0  0  0
  2 25  1  0  0  0
  2 80  1  0  0  0
  2 81  1  0  0  0
  3  4  1  0  0  0
  3 82  1  0  0  0
  3 83  1  0  0  0
  4  5  1  0  0  0
  4 84  1  0  0  0
  4 85  1  0  0  0
  5  6  1  0  0  0
  5 26  1  0  0  0
  5 86  1  0  0  0
  6 25  1  0  0  0
  6 87  1  0  0  0
  6 88  1  0  0  0
  7  8  2  0  0  0
  7 26  1  0  0  0
  7 29  1  0  0  0
  8  9  1  0  0  0
  8 22  1  0  0  0
  9 10  1  0  0  0
  9 27  2  0  0  0
 10 11  2  0  0  0
 10 15  1  0  0  0
 11 12  1  0  0  0
 11 89  1  0  0  0
 12 13  2  0  0  0
 12 90  1  0  0  0
 13 14  1  0  0  0
 13 31  1  0  0  0
 14 15  2  0  0  0
 14 91  1  0  0  0
 15 92  1  0  0  0
 16 17  2  0  0  0
 16 21  1  0  0  0
 16 31  1  0  0  0
 17 18  1  0  0  0
 17 93  1  0  0  0
 18 19  2  0  0  0
 18 94  1  0  0  0
 19 20  1  0  0  0
 19 24  1  0  0  0
 20 21  2  0  0  0
 20 95  1  0  0  0
 21 23  1  0  0  0
 22 28  1  0  0  0
 22 32  2  0  0  0
 26 27  1  0  0  0
 28 96  1  0  0  0
 28 97  1  0  0  0
 29 98  1  0  0  0
 29 99  1  0  0  0
 33 34  1  0  0  0
 33 66  1  0  0  0
 33 70  2  0  0  0
 34 36  1  0  0  0
 34 59  1  0  0  0
 34100  1  0  0  0
 35 44  2  0  0  0
 35 45  1  0  0  0
 35 68  1  0  0  0
 36 56  1  0  0  0
 36101  1  0  0  0
 37 39  1  0  0  0
 37 47  1  0  0  0
 37 66  1  0  0  0
 37102  1  0  0  0
 38 43  2  0  0  0
 38 46  1  0  0  0
 38 47  1  0  0  0
 39 64  1  0  0  0
 39 67  2  0  0  0
 40 52  1  0  0  0
 40 53  2  0  0  0
 40 58  1  0  0  0
 41103  1  0  0  0
 41104  1  0  0  0
 41105  1  0  0  0
 41 48  1  0  0  0
 42 43  1  0  0  0
 42 66  1  0  0  0
 42106  1  0  0  0
 42107  1  0  0  0
 43 44  1  0  0  0
 44108  1  0  0  0
 45 46  2  0  0  0
 45109  1  0  0  0
 46110  1  0  0  0
 47111  1  0  0  0
 47112  1  0  0  0
 48 56  1  0  0  0
 48 65  1  0  0  0
 48113  1  0  0  0
 49 50  1  0  0  0
 49 53  1  0  0  0
 49 64  1  0  0  0
 49114  1  0  0  0
 50 51  1  0  0  0
 50115  1  0  0  0
 50116  1  0  0  0
 51 52  1  0  0  0
 51117  1  0  0  0
 51118  1  0  0  0
 52119  1  0  0  0
 52120  1  0  0  0
 53 54  1  0  0  0
 54 55  2  0  0  0
 54121  1  0  0  0
 55 57  1  0  0  0
 55122  1  0  0  0
 56 69  2  0  0  0
 57 58  2  0  0  0
 57123  1  0  0  0
 58124  1  0  0  0
 59 60  1  0  0  0
 59 61  1  0  0  0
 59 62  1  0  0  0
 60125  1  0  0  0
 60126  1  0  0  0
 60127  1  0  0  0
 61128  1  0  0  0
 61129  1  0  0  0
 61130  1  0  0  0
 62131  1  0  0  0
 62132  1  0  0  0
 62133  1  0  0  0
 63 65  1  0  0  0
 63134  1  0  0  0
 63135  1  0  0  0
 63136  1  0  0  0
 64137  1  0  0  0
 65138  1  0  0  0
 68 73  1  0  0  0
 71 72  1  0  0  0
 71 77  1  0  0  0
 71139  1  0  0  0
 71140  1  0  0  0
 72 78  1  0  0  0
 72141  1  0  0  0
 72142  1  0  0  0
 73 74  1  0  0  0
 73143  1  0  0  0
 73144  1  0  0  0
 74 79  1  0  0  0
 74145  1  0  0  0
 74146  1  0  0  0
 75 76  1  0  0  0
 75 78  1  0  0  0
 75147  1  0  0  0
 75148  1  0  0  0
 76 79  1  0  0  0
 76149  1  0  0  0
 76150  1  0  0  0
 77151  1  0  0  0
M  ISO  4   1 100  68 101  73 101  77 100
M  END
> <chiral flag>
0

> <version>
0

> <s_m_source_file>
/data/baiqing/PycharmProjects/Reinvent-master-3.2/result/LINK_invent/BTK/process_docking_weight1_custom_product_contain_oxygen_bond_distance_aromatic_linkinvent_7_9_3/rearranged_h_0000.sdf

> <i_m_source_file_index>
76

> <r_mmod_Potential_Energy-OPLS-2005>
-33.6661491394043

> <r_mmod_Stretch_Energy-OPLS-2005>
54.1415176391602

> <r_mmod_Bend_Energy-OPLS-2005>
117.664672851562

> <r_mmod_Torsional_Energy-OPLS-2005>
224.785095214844

> <r_mmod_Improper_Torsional_Energy-OPLS-2005>
6.75608205795288

> <r_mmod_Van_der_Waal_Energy-OPLS-2005>
133.051956176758

> <r_mmod_Electrostatic_Energy-OPLS-2005>
-384.544891357422

> <r_mmod_Solvation_Energy-OPLS-2005>
-214.149185180664

> <b_mmod_Minimization_Converged-OPLS-2005>
0

> <r_mmod_RMS_Derivative-OPLS-2005>
0.78693014383316

$$$$
76
                    3D
 Structure written by MMmdl.
199207  0  0  1  0            999 V2000
  -30.7701  -14.4051   20.6490 C   0  0  0  0  0  0
  -30.3803  -12.2711   19.4196 C   0  0  0  0  0  0
  -29.4749  -12.5286   18.2086 C   0  0  0  0  0  0
  -27.9994  -12.3724   18.6054 C   0  0  0  0  0  0
  -27.6529  -13.1725   19.8933 C   0  0  2  0  0  0
  -28.6911  -12.9580   21.0258 C   0  0  0  0  0  0
  -25.2605  -13.8059   20.5607 C   0  0  0  0  0  0
  -24.1802  -13.0399   20.9126 C   0  0  0  0  0  0
  -24.6255  -11.6858   20.8658 C   0  0  0  0  0  0
  -23.8853  -10.4323   21.0329 C   0  0  0  0  0  0
  -24.3503   -9.4317   21.9108 C   0  0  0  0  0  0
  -23.6266   -8.2317   22.0757 C   0  0  0  0  0  0
  -22.4258   -8.0255   21.3544 C   0  0  0  0  0  0
  -21.9804   -9.0161   20.4619 C   0  0  0  0  0  0
  -22.7024  -10.2115   20.2984 C   0  0  0  0  0  0
  -21.6918   -6.0669   22.5227 C   0  0  0  0  0  0
  -21.4055   -6.5602   23.8127 C   0  0  0  0  0  0
  -21.3664   -5.6794   24.9111 C   0  0  0  0  0  0
  -21.6070   -4.3046   24.7231 C   0  0  0  0  0  0
  -21.8843   -3.8095   23.4374 C   0  0  0  0  0  0
  -21.9249   -4.6885   22.3403 C   0  0  0  0  0  0
  -22.7881  -13.5263   21.1802 C   0  0  0  0  0  0
  -22.1697   -4.2029   21.0995 F   0  0  0  0  0  0
  -21.5643   -3.4575   25.7780 F   0  0  0  0  0  0
  -30.0187  -13.2324   20.4631 N   0  0  0  0  0  0
  -26.2950  -12.9108   20.3401 N   0  0  0  0  0  0
  -25.9182  -11.6305   20.5711 N   0  0  0  0  0  0
  -22.0582  -12.8166   22.0343 N   0  0  0  0  0  0
  -25.4462  -15.1725   20.3909 N   0  0  0  0  0  0
  -31.8038  -14.6936   20.0455 O   0  0  0  0  0  0
  -21.6717   -6.8802   21.4200 O   0  0  0  0  0  0
  -22.3549  -14.5544   20.6680 O   0  0  0  0  0  0
  -24.6051  -31.8716   23.2127 C   0  0  0  0  0  0
  -25.8981  -32.4837   23.8406 C   0  0  1  0  0  0
  -27.2700  -27.4923   20.1090 C   0  0  0  0  0  0
  -25.5876  -33.8637   24.2343 N   0  0  0  0  0  0
  -23.3908  -30.4896   21.5498 C   0  0  2  0  0  0
  -24.8462  -28.9584   20.1160 C   0  0  0  0  0  0
  -22.7351  -29.4655   22.5020 C   0  0  0  0  0  0
  -18.0257  -28.1356   22.8493 C   0  0  0  0  0  0
  -24.1481  -36.7314   23.2633 C   0  0  0  0  0  0
  -25.9073  -30.8582   21.3536 C   0  0  0  0  0  0
  -25.9914  -29.4905   20.7160 C   0  0  0  0  0  0
  -27.1948  -28.7635   20.7252 C   0  0  0  0  0  0
  -26.1052  -26.9640   19.5096 C   0  0  0  0  0  0
  -24.8944  -27.6880   19.5119 C   0  0  0  0  0  0
  -23.6001  -29.8139   20.1644 C   0  0  0  0  0  0
  -25.4093  -36.3112   24.0342 C   0  0  1  0  0  0
  -20.5836  -28.3630   23.1350 C   0  0  2  0  0  0
  -20.6742  -26.9377   22.5427 C   0  0  0  0  0  0
  -19.5741  -26.6381   21.5205 C   0  0  0  0  0  0
  -18.1909  -26.7910   22.1608 C   0  0  0  0  0  0
  -19.1499  -28.8810   23.2917 C   0  0  0  0  0  0
  -18.9440  -30.1415   23.8923 C   0  0  0  0  0  0
  -17.6451  -30.6572   24.0562 C   0  0  0  0  0  0
  -25.9026  -34.9480   23.5139 C   0  0  0  0  0  0
  -16.5342  -29.9080   23.6320 C   0  0  0  0  0  0
  -16.7252  -28.6493   23.0349 C   0  0  0  0  0  0
  -26.4453  -31.6594   25.0700 C   0  0  0  0  0  0
  -25.3751  -31.3676   26.1470 C   0  0  0  0  0  0
  -27.0272  -30.3054   24.5996 C   0  0  0  0  0  0
  -27.6041  -32.4297   25.7457 C   0  0  0  0  0  0
  -27.5590  -37.1779   24.8446 C   0  0  0  0  0  0
  -21.4086  -29.3005   22.3758 N   0  0  0  0  0  0
  -26.4270  -37.3805   23.9441 N   0  0  0  0  0  0
  -24.6519  -31.0865   22.0992 N   0  0  0  0  0  0
  -23.4142  -28.8208   23.3054 O   0  0  0  0  0  0
  -28.4259  -26.7394   20.0501 O   0  0  0  0  0  0
  -26.5585  -34.8927   22.4696 O   0  0  0  0  0  0
  -23.5266  -32.1441   23.7559 O   0  0  0  0  0  0
  -33.7082  -24.1685   18.0859 C   0  0  0  0  0  0
  -33.3372  -23.8506   16.7632 C   0  0  0  0  0  0
  -32.9581  -25.1029   18.8285 C   0  0  0  0  0  0
  -31.5006  -25.4439   16.9120 C   0  0  0  0  0  0
  -32.2176  -24.4766   16.1740 C   0  0  0  0  0  0
  -31.8425  -25.7412   18.2406 C   0  0  0  0  0  0
  -31.7903  -24.1407   14.7769 C   0  0  0  0  0  0
  -29.7391  -23.9474   13.3647 C   0  0  0  0  0  0
  -28.3363  -24.5366   13.5582 C   0  0  0  0  0  0
  -30.8307  -26.4499   20.2734 C   0  0  0  0  0  0
  -29.6029  -27.2762   20.6633 C   0  0  0  0  0  0
  -29.2809  -16.1825   21.4342 C   0  0  0  0  0  0
  -29.0587  -16.7584   20.0194 C   0  0  0  0  0  0
  -26.4858  -24.4398   15.0439 C   0  0  0  0  0  0
  -25.7681  -23.4570   15.9778 C   0  0  0  0  0  0
  -29.8733  -18.0354   18.2393 C   0  0  0  0  0  0
  -31.1138  -18.5308   17.4753 C   0  0  0  0  0  0
  -26.0618  -22.3218   18.0403 C   0  0  0  0  0  0
  -26.6409  -22.4792   19.4539 C   0  0  0  0  0  0
  -32.2408  -19.8717   19.1090 C   0  0  0  0  0  0
  -31.9669  -21.2341   19.7564 C   0  0  0  0  0  0
  -28.6774  -22.6735   20.6597 C   0  0  0  0  0  0
  -30.1997  -22.6197   20.4772 C   0  0  0  0  0  0
  -30.4677  -24.1098   14.6094 N   0  0  0  0  0  0
  -32.6028  -23.8888   13.8858 O   0  0  0  0  0  0
  -31.0575  -26.6601   18.8876 O   0  0  0  0  0  0
  -30.2929  -15.1878   21.6326 O   0  0  0  0  0  0
  -27.7118  -23.8479   14.6332 O   0  0  0  0  0  0
  -30.1967  -17.4261   19.4886 O   0  0  0  0  0  0
  -26.4254  -23.4418   17.2407 O   0  0  0  0  0  0
  -31.5077  -19.8298   17.8931 O   0  0  0  0  0  0
  -28.0610  -22.4573   19.3950 O   0  0  0  0  0  0
  -30.5860  -21.3094   20.0906 O   0  0  0  0  0  0
  -31.4327  -12.3387   19.1442 H   0  0  0  0  0  0
  -30.2217  -11.2556   19.7890 H   0  0  0  0  0  0
  -29.7216  -11.8250   17.4147 H   0  0  0  0  0  0
  -29.6459  -13.5331   17.8154 H   0  0  0  0  0  0
  -27.7928  -11.3068   18.7335 H   0  0  0  0  0  0
  -27.3607  -12.7041   17.7839 H   0  0  0  0  0  0
  -27.6953  -14.2167   19.6095 H   0  0  0  0  0  0
  -28.6572  -11.9297   21.3882 H   0  0  0  0  0  0
  -28.4583  -13.5652   21.8995 H   0  0  0  0  0  0
  -25.2711   -9.5915   22.4540 H   0  0  0  0  0  0
  -24.0088   -7.4778   22.7503 H   0  0  0  0  0  0
  -21.0747   -8.8521   19.8912 H   0  0  0  0  0  0
  -22.3378  -10.9573   19.6028 H   0  0  0  0  0  0
  -21.2007   -7.6110   23.9553 H   0  0  0  0  0  0
  -21.1457   -6.0570   25.8980 H   0  0  0  0  0  0
  -22.0614   -2.7563   23.2917 H   0  0  0  0  0  0
  -22.4396  -11.9857   22.4606 H   0  0  0  0  0  0
  -21.1142  -13.1028   22.2506 H   0  0  0  0  0  0
  -24.6789  -15.8341   20.4444 H   0  0  0  0  0  0
  -26.2528  -15.5473   19.9110 H   0  0  0  0  0  0
  -26.7065  -32.5599   23.1199 H   0  0  0  0  0  0
  -25.0055  -33.9820   25.0506 H   0  0  0  0  0  0
  -22.6760  -31.3021   21.4088 H   0  0  0  0  0  0
  -23.3753  -35.9637   23.3251 H   0  0  0  0  0  0
  -24.3603  -36.8968   22.2060 H   0  0  0  0  0  0
  -23.7211  -37.6498   23.6669 H   0  0  0  0  0  0
  -25.9975  -31.6190   20.5764 H   0  0  0  0  0  0
  -26.8014  -30.9313   21.9593 H   0  0  0  0  0  0
  -28.0489  -29.2112   21.2111 H   0  0  0  0  0  0
  -26.1404  -25.9925   19.0372 H   0  0  0  0  0  0
  -24.0141  -27.2676   19.0449 H   0  0  0  0  0  0
  -23.6945  -30.5858   19.4012 H   0  0  0  0  0  0
  -22.7301  -29.2205   19.8764 H   0  0  0  0  0  0
  -25.1258  -36.1966   25.0834 H   0  0  0  0  0  0
  -20.9925  -28.3196   24.1468 H   0  0  0  0  0  0
  -20.5644  -26.2238   23.3597 H   0  0  0  0  0  0
  -21.6623  -26.7433   22.1228 H   0  0  0  0  0  0
  -19.6910  -25.6300   21.1211 H   0  0  0  0  0  0
  -19.6690  -27.3206   20.6748 H   0  0  0  0  0  0
  -17.4186  -26.6670   21.3999 H   0  0  0  0  0  0
  -18.0303  -26.0030   22.8984 H   0  0  0  0  0  0
  -19.7922  -30.7208   24.2312 H   0  0  0  0  0  0
  -17.5016  -31.6262   24.5152 H   0  0  0  0  0  0
  -15.5343  -30.2999   23.7625 H   0  0  0  0  0  0
  -15.8646  -28.0821   22.7060 H   0  0  0  0  0  0
  -24.5927  -30.7014   25.7819 H   0  0  0  0  0  0
  -24.8943  -32.2831   26.4934 H   0  0  0  0  0  0
  -25.8138  -30.8848   27.0214 H   0  0  0  0  0  0
  -26.2787  -29.6823   24.1096 H   0  0  0  0  0  0
  -27.4138  -29.7270   25.4401 H   0  0  0  0  0  0
  -27.8575  -30.4402   23.9055 H   0  0  0  0  0  0
  -27.2670  -33.3588   26.2061 H   0  0  0  0  0  0
  -28.3842  -32.6865   25.0278 H   0  0  0  0  0  0
  -28.0716  -31.8399   26.5353 H   0  0  0  0  0  0
  -28.2522  -38.0158   24.7616 H   0  0  0  0  0  0
  -28.1163  -36.2701   24.6094 H   0  0  0  0  0  0
  -27.2341  -37.1224   25.8849 H   0  0  0  0  0  0
  -20.9220  -29.8719   21.6986 H   0  0  0  0  0  0
  -26.0149  -38.2858   24.1531 H   0  0  0  0  0  0
  -34.5636  -23.6854   18.5362 H   0  0  0  0  0  0
  -33.9042  -23.1172   16.2052 H   0  0  0  0  0  0
  -33.2586  -25.3301   19.8406 H   0  0  0  0  0  0
  -30.6582  -25.9545   16.4663 H   0  0  0  0  0  0
  -30.2510  -24.4571   12.5472 H   0  0  0  0  0  0
  -29.6825  -22.8883   13.1106 H   0  0  0  0  0  0
  -27.7465  -24.4296   12.6470 H   0  0  0  0  0  0
  -28.4079  -25.6033   13.7799 H   0  0  0  0  0  0
  -30.6626  -25.4014   20.5091 H   0  0  0  0  0  0
  -31.7035  -26.7808   20.8413 H   0  0  0  0  0  0
  -29.7871  -28.3056   20.3530 H   0  0  0  0  0  0
  -29.4795  -27.2650   21.7470 H   0  0  0  0  0  0
  -28.3338  -15.7594   21.7705 H   0  0  0  0  0  0
  -29.4828  -17.0021   22.1228 H   0  0  0  0  0  0
  -28.2348  -17.4717   20.0894 H   0  0  0  0  0  0
  -28.7395  -15.9872   19.3232 H   0  0  0  0  0  0
  -26.6652  -25.3928   15.5450 H   0  0  0  0  0  0
  -25.8603  -24.6431   14.1737 H   0  0  0  0  0  0
  -25.7484  -22.4676   15.5160 H   0  0  0  0  0  0
  -24.7304  -23.7640   16.1168 H   0  0  0  0  0  0
  -29.3826  -17.2986   17.6038 H   0  0  0  0  0  0
  -29.1557  -18.8430   18.3955 H   0  0  0  0  0  0
  -30.8314  -18.6335   16.4265 H   0  0  0  0  0  0
  -31.9354  -17.8132   17.5054 H   0  0  0  0  0  0
  -24.9747  -22.2515   18.1043 H   0  0  0  0  0  0
  -26.4195  -21.3982   17.5809 H   0  0  0  0  0  0
  -26.2934  -21.6538   20.0776 H   0  0  0  0  0  0
  -26.2778  -23.4037   19.9069 H   0  0  0  0  0  0
  -31.9669  -19.0837   19.8084 H   0  0  0  0  0  0
  -33.3003  -19.7352   18.8801 H   0  0  0  0  0  0
  -32.2450  -22.0264   19.0621 H   0  0  0  0  0  0
  -32.5654  -21.3596   20.6597 H   0  0  0  0  0  0
  -28.3934  -23.6564   21.0422 H   0  0  0  0  0  0
  -28.3585  -21.9353   21.3944 H   0  0  0  0  0  0
  -30.7045  -22.8919   21.4055 H   0  0  0  0  0  0
  -30.5009  -23.3394   19.7155 H   0  0  0  0  0  0
  -29.9000  -24.2625   15.4318 H   0  0  0  0  0  0
  1 25  1  0  0  0
  1 30  2  0  0  0
  1 97  1  0  0  0
  2  3  1  0  0  0
  2 25  1  0  0  0
  2104  1  0  0  0
  2105  1  0  0  0
  3  4  1  0  0  0
  3106  1  0  0  0
  3107  1  0  0  0
  4  5  1  0  0  0
  4108  1  0  0  0
  4109  1  0  0  0
  5  6  1  0  0  0
  5 26  1  0  0  0
  5110  1  0  0  0
  6 25  1  0  0  0
  6111  1  0  0  0
  6112  1  0  0  0
  7  8  2  0  0  0
  7 26  1  0  0  0
  7 29  1  0  0  0
  8  9  1  0  0  0
  8 22  1  0  0  0
  9 10  1  0  0  0
  9 27  2  0  0  0
 10 11  2  0  0  0
 10 15  1  0  0  0
 11 12  1  0  0  0
 11113  1  0  0  0
 12 13  2  0  0  0
 12114  1  0  0  0
 13 14  1  0  0  0
 13 31  1  0  0  0
 14 15  2  0  0  0
 14115  1  0  0  0
 15116  1  0  0  0
 16 17  2  0  0  0
 16 21  1  0  0  0
 16 31  1  0  0  0
 17 18  1  0  0  0
 17117  1  0  0  0
 18 19  2  0  0  0
 18118  1  0  0  0
 19 20  1  0  0  0
 19 24  1  0  0  0
 20 21  2  0  0  0
 20119  1  0  0  0
 21 23  1  0  0  0
 22 28  1  0  0  0
 22 32  2  0  0  0
 26 27  1  0  0  0
 28120  1  0  0  0
 28121  1  0  0  0
 29122  1  0  0  0
 29123  1  0  0  0
 33 34  1  0  0  0
 33 66  1  0  0  0
 33 70  2  0  0  0
 34 36  1  0  0  0
 34 59  1  0  0  0
 34124  1  0  0  0
 35 44  2  0  0  0
 35 45  1  0  0  0
 35 68  1  0  0  0
 36 56  1  0  0  0
 36125  1  0  0  0
 37 39  1  0  0  0
 37 47  1  0  0  0
 37 66  1  0  0  0
 37126  1  0  0  0
 38 43  2  0  0  0
 38 46  1  0  0  0
 38 47  1  0  0  0
 39 64  1  0  0  0
 39 67  2  0  0  0
 40 52  1  0  0  0
 40 53  2  0  0  0
 40 58  1  0  0  0
 41127  1  0  0  0
 41128  1  0  0  0
 41129  1  0  0  0
 41 48  1  0  0  0
 42 43  1  0  0  0
 42 66  1  0  0  0
 42130  1  0  0  0
 42131  1  0  0  0
 43 44  1  0  0  0
 44132  1  0  0  0
 45 46  2  0  0  0
 45133  1  0  0  0
 46134  1  0  0  0
 47135  1  0  0  0
 47136  1  0  0  0
 48 56  1  0  0  0
 48 65  1  0  0  0
 48137  1  0  0  0
 49 50  1  0  0  0
 49 53  1  0  0  0
 49 64  1  0  0  0
 49138  1  0  0  0
 50 51  1  0  0  0
 50139  1  0  0  0
 50140  1  0  0  0
 51 52  1  0  0  0
 51141  1  0  0  0
 51142  1  0  0  0
 52143  1  0  0  0
 52144  1  0  0  0
 53 54  1  0  0  0
 54 55  2  0  0  0
 54145  1  0  0  0
 55 57  1  0  0  0
 55146  1  0  0  0
 56 69  2  0  0  0
 57 58  2  0  0  0
 57147  1  0  0  0
 58148  1  0  0  0
 59 60  1  0  0  0
 59 61  1  0  0  0
 59 62  1  0  0  0
 60149  1  0  0  0
 60150  1  0  0  0
 60151  1  0  0  0
 61152  1  0  0  0
 61153  1  0  0  0
 61154  1  0  0  0
 62155  1  0  0  0
 62156  1  0  0  0
 62157  1  0  0  0
 63 65  1  0  0  0
 63158  1  0  0  0
 63159  1  0  0  0
 63160  1  0  0  0
 64161  1  0  0  0
 65162  1  0  0  0
 68 81  1  0  0  0
 71 72  2  0  0  0
 71 73  1  0  0  0
 71163  1  0  0  0
 72 75  1  0  0  0
 72164  1  0  0  0
 73 76  2  0  0  0
 73165  1  0  0  0
 74 75  2  0  0  0
 74 76  1  0  0  0
 74166  1  0  0  0
 75 77  1  0  0  0
 76 96  1  0  0  0
 77 94  1  0  0  0
 77 95  2  0  0  0
 78 79  1  0  0  0
 78 94  1  0  0  0
 78167  1  0  0  0
 78168  1  0  0  0
 79 98  1  0  0  0
 79169  1  0  0  0
 79170  1  0  0  0
 80 81  1  0  0  0
 80 96  1  0  0  0
 80171  1  0  0  0
 80172  1  0  0  0
 81173  1  0  0  0
 81174  1  0  0  0
 82 83  1  0  0  0
 82 97  1  0  0  0
 82175  1  0  0  0
 82176  1  0  0  0
 83 99  1  0  0  0
 83177  1  0  0  0
 83178  1  0  0  0
 84 85  1  0  0  0
 84 98  1  0  0  0
 84179  1  0  0  0
 84180  1  0  0  0
 85100  1  0  0  0
 85181  1  0  0  0
 85182  1  0  0  0
 86 87  1  0  0  0
 86 99  1  0  0  0
 86183  1  0  0  0
 86184  1  0  0  0
 87101  1  0  0  0
 87185  1  0  0  0
 87186  1  0  0  0
 88 89  1  0  0  0
 88100  1  0  0  0
 88187  1  0  0  0
 88188  1  0  0  0
 89102  1  0  0  0
 89189  1  0  0  0
 89190  1  0  0  0
 90 91  1  0  0  0
 90101  1  0  0  0
 90191  1  0  0  0
 90192  1  0  0  0
 91103  1  0  0  0
 91193  1  0  0  0
 91194  1  0  0  0
 92 93  1  0  0  0
 92102  1  0  0  0
 92195  1  0  0  0
 92196  1  0  0  0
 93103  1  0  0  0
 93197  1  0  0  0
 93198  1  0  0  0
 94199  1  0  0  0
M  ISO  4   1 100  68 101  81 101  97 100
M  END
> <chiral flag>
0

> <version>
0

> <s_m_source_file>
/data/baiqing/PycharmProjects/Reinvent-master-3.2/result/LINK_invent/BTK/process_docking_weight1_custom_product_contain_oxygen_bond_distance_aromatic_linkinvent_7_9_3/rearranged_h_0000.sdf

> <i_m_source_file_index>
77

> <r_mmod_Potential_Energy-OPLS-2005>
-148.927001953125

> <r_mmod_Stretch_Energy-OPLS-2005>
33.9799652099609

> <r_mmod_Bend_Energy-OPLS-2005>
123.102821350098

> <r_mmod_Torsional_Energy-OPLS-2005>
215.107086181641

> <r_mmod_Improper_Torsional_Energy-OPLS-2005>
3.08561301231384

> <r_mmod_Van_der_Waal_Energy-OPLS-2005>
137.515426635742

> <r_mmod_Electrostatic_Energy-OPLS-2005>
-378.584167480469

> <r_mmod_Solvation_Energy-OPLS-2005>
-289.799102783203

> <b_mmod_Minimization_Converged-OPLS-2005>
0

> <r_mmod_RMS_Derivative-OPLS-2005>
5.02978086471558

$$$$
77
                    3D
 Structure written by MMmdl.
137144  0  0  1  0            999 V2000
  -29.9622  -16.5635   20.2664 C   0  0  0  0  0  0
  -30.3146  -13.7964   19.5233 C   0  0  0  0  0  0
  -29.5702  -12.9451   18.4142 C   0  0  0  0  0  0
  -28.2376  -12.3814   18.9086 C   0  0  0  0  0  0
  -27.5746  -13.4257   19.8177 C   0  0  2  0  0  0
  -28.5152  -14.1357   20.8613 C   0  0  0  0  0  0
  -25.2174  -13.8479   20.5951 C   0  0  0  0  0  0
  -24.1675  -13.0467   20.9341 C   0  0  0  0  0  0
  -24.6541  -11.7031   20.8745 C   0  0  0  0  0  0
  -23.9255  -10.4321   21.0342 C   0  0  0  0  0  0
  -24.3739   -9.4228   21.9149 C   0  0  0  0  0  0
  -23.6364   -8.2283   22.0747 C   0  0  0  0  0  0
  -22.4340   -8.0323   21.3544 C   0  0  0  0  0  0
  -22.0014   -9.0304   20.4634 C   0  0  0  0  0  0
  -22.7395  -10.2158   20.3018 C   0  0  0  0  0  0
  -21.6878   -6.0765   22.5277 C   0  0  0  0  0  0
  -21.4033   -6.5657   23.8214 C   0  0  0  0  0  0
  -21.3665   -5.6802   24.9171 C   0  0  0  0  0  0
  -21.6043   -4.3064   24.7217 C   0  0  0  0  0  0
  -21.8816   -3.8163   23.4335 C   0  0  0  0  0  0
  -21.9200   -4.6987   22.3396 C   0  0  0  0  0  0
  -22.7650  -13.5092   21.1938 C   0  0  0  0  0  0
  -22.1663   -4.2170   21.0973 F   0  0  0  0  0  0
  -21.5624   -3.4543   25.7727 F   0  0  0  0  0  0
  -29.5188  -15.0444   20.1465 N   0  0  0  0  0  0
  -26.2805  -13.0063   20.3476 N   0  0  0  0  0  0
  -25.9548  -11.6990   20.5678 N   0  0  0  0  0  0
  -22.0351  -12.8040   22.0489 N   0  0  0  0  0  0
  -25.3555  -15.2242   20.4383 N   0  0  0  0  0  0
  -31.2063  -16.3142   20.2293 O   0  0  0  0  0  0
  -21.6677   -6.8928   21.4248 O   0  0  0  0  0  0
  -22.3283  -14.5375   20.6771 O   0  0  0  0  0  0
  -24.7449  -31.7216   23.0979 C   0  0  0  0  0  0
  -25.9712  -32.4091   23.7768 C   0  0  1  0  0  0
  -27.2626  -26.0606   20.2671 C   0  0  0  0  0  0
  -25.6018  -33.7953   24.1581 N   0  0  0  0  0  0
  -23.5996  -30.2922   21.4680 C   0  0  2  0  0  0
  -25.0624  -28.4936   20.1392 C   0  0  0  0  0  0
  -22.8035  -29.3895   22.4550 C   0  0  0  0  0  0
  -18.0376  -28.1454   22.8421 C   0  0  0  0  0  0
  -24.1496  -36.6992   23.2671 C   0  0  0  0  0  0
  -26.1999  -30.2411   21.4589 C   0  0  0  0  0  0
  -26.2597  -28.7329   20.8212 C   0  0  0  0  0  0
  -27.3097  -27.5690   20.8335 C   0  0  0  0  0  0
  -26.0272  -26.1946   19.5192 C   0  0  0  0  0  0
  -25.0234  -27.2541   19.4619 C   0  0  0  0  0  0
  -23.8874  -29.5253   20.1333 C   0  0  0  0  0  0
  -25.4170  -36.2677   24.0236 C   0  0  1  0  0  0
  -20.6038  -28.3836   23.1031 C   0  0  2  0  0  0
  -20.6806  -26.9436   22.5420 C   0  0  0  0  0  0
  -19.5796  -26.6348   21.5224 C   0  0  0  0  0  0
  -18.1977  -26.7969   22.1607 C   0  0  0  0  0  0
  -19.1657  -28.8984   23.2686 C   0  0  0  0  0  0
  -18.9553  -30.1552   23.8759 C   0  0  0  0  0  0
  -17.6536  -30.6619   24.0537 C   0  0  0  0  0  0
  -25.9187  -34.9084   23.4798 C   0  0  0  0  0  0
  -16.5422  -29.9090   23.6366 C   0  0  0  0  0  0
  -16.7352  -28.6518   23.0376 C   0  0  0  0  0  0
  -26.4693  -31.6408   25.0652 C   0  0  0  0  0  0
  -25.3596  -31.3898   26.1149 C   0  0  0  0  0  0
  -27.0730  -30.2690   24.7003 C   0  0  0  0  0  0
  -27.6017  -32.4426   25.7501 C   0  0  0  0  0  0
  -27.5543  -37.1648   24.8466 C   0  0  0  0  0  0
  -21.4628  -29.2949   22.3282 N   0  0  0  0  0  0
  -26.4242  -37.3509   23.9408 N   0  0  0  0  0  0
  -24.8802  -30.8007   22.0600 N   0  0  0  0  0  0
  -23.4175  -28.7613   23.3197 O   0  0  0  0  0  0
  -28.1668  -24.5661   20.3212 O   0  0  0  0  0  0
  -26.5925  -34.8791   22.4483 O   0  0  0  0  0  0
  -23.6336  -32.0588   23.5524 O   0  0  0  0  0  0
  -29.2006  -20.3375   20.3201 C   0  0  0  0  0  0
  -28.2004  -22.4649   20.2188 C   0  0  0  0  0  0
  -29.3170  -18.2279   20.2702 N   0  0  0  0  0  0
  -31.2155  -14.1817   19.0448 H   0  0  0  0  0  0
  -30.7050  -13.1434   20.3066 H   0  0  0  0  0  0
  -30.2109  -12.1390   18.0541 H   0  0  0  0  0  0
  -29.3823  -13.5901   17.5547 H   0  0  0  0  0  0
  -28.4305  -11.4738   19.4819 H   0  0  0  0  0  0
  -27.5913  -12.1016   18.0755 H   0  0  0  0  0  0
  -27.3204  -14.2160   19.1091 H   0  0  0  0  0  0
  -28.9720  -13.4238   21.5512 H   0  0  0  0  0  0
  -27.9168  -14.7884   21.4973 H   0  0  0  0  0  0
  -25.2871   -9.5690   22.4748 H   0  0  0  0  0  0
  -24.0047   -7.4683   22.7489 H   0  0  0  0  0  0
  -21.0938   -8.8851   19.8945 H   0  0  0  0  0  0
  -22.3854  -10.9697   19.6127 H   0  0  0  0  0  0
  -21.2035   -7.6165   23.9725 H   0  0  0  0  0  0
  -21.1486   -6.0529   25.9075 H   0  0  0  0  0  0
  -22.0587   -2.7625   23.2829 H   0  0  0  0  0  0
  -22.4039  -11.9742   22.4895 H   0  0  0  0  0  0
  -21.0937  -13.0980   22.2674 H   0  0  0  0  0  0
  -24.5768  -15.8638   20.5540 H   0  0  0  0  0  0
  -26.2060  -15.6839   20.1380 H   0  0  0  0  0  0
  -26.7876  -32.4443   23.0543 H   0  0  0  0  0  0
  -24.9961  -33.8879   24.9601 H   0  0  0  0  0  0
  -22.9629  -31.1444   21.2211 H   0  0  0  0  0  0
  -23.3792  -35.9283   23.3224 H   0  0  0  0  0  0
  -24.3542  -36.8804   22.2107 H   0  0  0  0  0  0
  -23.7229  -37.6104   23.6874 H   0  0  0  0  0  0
  -26.4659  -30.9211   20.6487 H   0  0  0  0  0  0
  -27.0298  -30.3291   22.1459 H   0  0  0  0  0  0
  -28.1985  -27.7908   21.4071 H   0  0  0  0  0  0
  -25.7596  -25.3099   18.9588 H   0  0  0  0  0  0
  -24.1415  -27.0455   18.8719 H   0  0  0  0  0  0
  -24.1127  -30.2559   19.3556 H   0  0  0  0  0  0
  -22.9802  -29.0216   19.7958 H   0  0  0  0  0  0
  -25.1411  -36.1346   25.0723 H   0  0  0  0  0  0
  -21.0093  -28.3507   24.1170 H   0  0  0  0  0  0
  -20.5606  -26.2478   23.3738 H   0  0  0  0  0  0
  -21.6663  -26.7276   22.1281 H   0  0  0  0  0  0
  -19.6940  -25.6222   21.1342 H   0  0  0  0  0  0
  -19.6763  -27.3084   20.6699 H   0  0  0  0  0  0
  -17.4253  -26.6718   21.4002 H   0  0  0  0  0  0
  -18.0338  -26.0144   22.9029 H   0  0  0  0  0  0
  -19.8031  -30.7398   24.2071 H   0  0  0  0  0  0
  -17.5087  -31.6284   24.5168 H   0  0  0  0  0  0
  -15.5417  -30.2952   23.7771 H   0  0  0  0  0  0
  -15.8752  -28.0794   22.7169 H   0  0  0  0  0  0
  -24.5845  -30.7190   25.7424 H   0  0  0  0  0  0
  -24.8725  -32.3171   26.4173 H   0  0  0  0  0  0
  -25.7627  -30.9316   27.0189 H   0  0  0  0  0  0
  -26.3552  -29.6093   24.2123 H   0  0  0  0  0  0
  -27.4038  -29.7408   25.5956 H   0  0  0  0  0  0
  -27.9570  -30.3690   24.0706 H   0  0  0  0  0  0
  -27.2476  -33.3875   26.1635 H   0  0  0  0  0  0
  -28.4042  -32.6752   25.0488 H   0  0  0  0  0  0
  -28.0450  -31.8868   26.5774 H   0  0  0  0  0  0
  -28.2488  -38.0006   24.7515 H   0  0  0  0  0  0
  -28.1107  -36.2518   24.6291 H   0  0  0  0  0  0
  -27.2256  -37.1265   25.8866 H   0  0  0  0  0  0
  -21.0089  -29.8498   21.6159 H   0  0  0  0  0  0
  -26.0011  -38.2526   24.1435 H   0  0  0  0  0  0
  -30.0015  -20.5173   19.6027 H   0  0  0  0  0  0
  -29.6902  -20.4553   21.2869 H   0  0  0  0  0  0
  -27.7199  -22.3753   19.2446 H   0  0  0  0  0  0
  -27.3860  -22.2933   20.9225 H   0  0  0  0  0  0
  -30.3181  -18.3884   20.2986 H   0  0  0  0  0  0
  1 25  1  0  0  0
  1 30  2  0  0  0
  1 73  1  0  0  0
  2  3  1  0  0  0
  2 25  1  0  0  0
  2 74  1  0  0  0
  2 75  1  0  0  0
  3  4  1  0  0  0
  3 76  1  0  0  0
  3 77  1  0  0  0
  4  5  1  0  0  0
  4 78  1  0  0  0
  4 79  1  0  0  0
  5  6  1  0  0  0
  5 26  1  0  0  0
  5 80  1  0  0  0
  6 25  1  0  0  0
  6 81  1  0  0  0
  6 82  1  0  0  0
  7  8  2  0  0  0
  7 26  1  0  0  0
  7 29  1  0  0  0
  8  9  1  0  0  0
  8 22  1  0  0  0
  9 10  1  0  0  0
  9 27  2  0  0  0
 10 11  2  0  0  0
 10 15  1  0  0  0
 11 12  1  0  0  0
 11 83  1  0  0  0
 12 13  2  0  0  0
 12 84  1  0  0  0
 13 14  1  0  0  0
 13 31  1  0  0  0
 14 15  2  0  0  0
 14 85  1  0  0  0
 15 86  1  0  0  0
 16 17  2  0  0  0
 16 21  1  0  0  0
 16 31  1  0  0  0
 17 18  1  0  0  0
 17 87  1  0  0  0
 18 19  2  0  0  0
 18 88  1  0  0  0
 19 20  1  0  0  0
 19 24  1  0  0  0
 20 21  2  0  0  0
 20 89  1  0  0  0
 21 23  1  0  0  0
 22 28  1  0  0  0
 22 32  2  0  0  0
 26 27  1  0  0  0
 28 90  1  0  0  0
 28 91  1  0  0  0
 29 92  1  0  0  0
 29 93  1  0  0  0
 33 34  1  0  0  0
 33 66  1  0  0  0
 33 70  2  0  0  0
 34 36  1  0  0  0
 34 59  1  0  0  0
 34 94  1  0  0  0
 35 44  2  0  0  0
 35 45  1  0  0  0
 35 68  1  0  0  0
 36 56  1  0  0  0
 36 95  1  0  0  0
 37 39  1  0  0  0
 37 47  1  0  0  0
 37 66  1  0  0  0
 37 96  1  0  0  0
 38 43  2  0  0  0
 38 46  1  0  0  0
 38 47  1  0  0  0
 39 64  1  0  0  0
 39 67  2  0  0  0
 40 52  1  0  0  0
 40 53  2  0  0  0
 40 58  1  0  0  0
 41 97  1  0  0  0
 41 98  1  0  0  0
 41 99  1  0  0  0
 41 48  1  0  0  0
 42 43  1  0  0  0
 42 66  1  0  0  0
 42100  1  0  0  0
 42101  1  0  0  0
 43 44  1  0  0  0
 44102  1  0  0  0
 45 46  2  0  0  0
 45103  1  0  0  0
 46104  1  0  0  0
 47105  1  0  0  0
 47106  1  0  0  0
 48 56  1  0  0  0
 48 65  1  0  0  0
 48107  1  0  0  0
 49 50  1  0  0  0
 49 53  1  0  0  0
 49 64  1  0  0  0
 49108  1  0  0  0
 50 51  1  0  0  0
 50109  1  0  0  0
 50110  1  0  0  0
 51 52  1  0  0  0
 51111  1  0  0  0
 51112  1  0  0  0
 52113  1  0  0  0
 52114  1  0  0  0
 53 54  1  0  0  0
 54 55  2  0  0  0
 54115  1  0  0  0
 55 57  1  0  0  0
 55116  1  0  0  0
 56 69  2  0  0  0
 57 58  2  0  0  0
 57117  1  0  0  0
 58118  1  0  0  0
 59 60  1  0  0  0
 59 61  1  0  0  0
 59 62  1  0  0  0
 60119  1  0  0  0
 60120  1  0  0  0
 60121  1  0  0  0
 61122  1  0  0  0
 61123  1  0  0  0
 61124  1  0  0  0
 62125  1  0  0  0
 62126  1  0  0  0
 62127  1  0  0  0
 63 65  1  0  0  0
 63128  1  0  0  0
 63129  1  0  0  0
 63130  1  0  0  0
 64131  1  0  0  0
 65132  1  0  0  0
 68 72  1  0  0  0
 71 72  1  0  0  0
 71 73  1  0  0  0
 71133  1  0  0  0
 71134  1  0  0  0
 72135  1  0  0  0
 72136  1  0  0  0
 73137  1  0  0  0
M  ISO  4   1 100  68 101  72 101  73 100
M  END
> <chiral flag>
0

> <version>
0

> <s_m_source_file>
/data/baiqing/PycharmProjects/Reinvent-master-3.2/result/LINK_invent/BTK/process_docking_weight1_custom_product_contain_oxygen_bond_distance_aromatic_linkinvent_7_9_3/rearranged_h_0000.sdf

> <i_m_source_file_index>
78

> <r_mmod_Potential_Energy-OPLS-2005>
6948.9697265625

> <r_mmod_Stretch_Energy-OPLS-2005>
3136.46411132812

> <r_mmod_Bend_Energy-OPLS-2005>
1268.50207519531

> <r_mmod_Torsional_Energy-OPLS-2005>
217.324829101562

> <r_mmod_Improper_Torsional_Energy-OPLS-2005>
4.82364273071289

> <r_mmod_Van_der_Waal_Energy-OPLS-2005>
120.95548248291

> <r_mmod_Electrostatic_Energy-OPLS-2005>
-391.247985839844

> <r_mmod_Solvation_Energy-OPLS-2005>
-221.174652099609

> <b_mmod_Minimization_Converged-OPLS-2005>
1

> <r_mmod_RMS_Derivative-OPLS-2005>
0.042349461466074

$$$$
78
                    3D
 Structure written by MMmdl.
165172  0  0  1  0            999 V2000
  -30.7713  -14.3629   20.6786 C   0  0  0  0  0  0
  -30.4130  -12.2834   19.4051 C   0  0  0  0  0  0
  -29.4837  -12.5268   18.2003 C   0  0  0  0  0  0
  -28.0071  -12.3831   18.6117 C   0  0  0  0  0  0
  -27.6652  -13.2037   19.8816 C   0  0  2  0  0  0
  -28.6997  -12.9458   20.9982 C   0  0  0  0  0  0
  -25.2571  -13.8161   20.5645 C   0  0  0  0  0  0
  -24.1828  -13.0444   20.9192 C   0  0  0  0  0  0
  -24.6375  -11.6909   20.8753 C   0  0  0  0  0  0
  -23.9040  -10.4300   21.0424 C   0  0  0  0  0  0
  -24.3590   -9.4203   21.9195 C   0  0  0  0  0  0
  -23.6269   -8.2239   22.0755 C   0  0  0  0  0  0
  -22.4257   -8.0276   21.3544 C   0  0  0  0  0  0
  -21.9895   -9.0249   20.4650 C   0  0  0  0  0  0
  -22.7225  -10.2133   20.3061 C   0  0  0  0  0  0
  -21.6850   -6.0721   22.5282 C   0  0  0  0  0  0
  -21.4015   -6.5631   23.8213 C   0  0  0  0  0  0
  -21.3660   -5.6789   24.9187 C   0  0  0  0  0  0
  -21.6049   -4.3047   24.7243 C   0  0  0  0  0  0
  -21.8815   -3.8137   23.4370 C   0  0  0  0  0  0
  -21.9191   -4.6947   22.3417 C   0  0  0  0  0  0
  -22.7845  -13.5245   21.1871 C   0  0  0  0  0  0
  -22.1665   -4.2132   21.0996 F   0  0  0  0  0  0
  -21.5621   -3.4527   25.7754 F   0  0  0  0  0  0
  -30.0490  -13.2297   20.4710 N   0  0  0  0  0  0
  -26.3024  -12.9342   20.3386 N   0  0  0  0  0  0
  -25.9305  -11.6501   20.5797 N   0  0  0  0  0  0
  -22.0466  -12.8225   22.0410 N   0  0  0  0  0  0
  -25.4245  -15.1871   20.3951 N   0  0  0  0  0  0
  -31.7807  -14.6573   20.0354 O   0  0  0  0  0  0
  -21.6637   -6.8861   21.4240 O   0  0  0  0  0  0
  -22.3540  -14.5545   20.6712 O   0  0  0  0  0  0
  -24.6124  -31.8681   23.2098 C   0  0  0  0  0  0
  -25.9028  -32.4819   23.8381 C   0  0  1  0  0  0
  -27.2422  -27.4703   20.1009 C   0  0  0  0  0  0
  -25.5901  -33.8609   24.2329 N   0  0  0  0  0  0
  -23.4001  -30.4897   21.5474 C   0  0  2  0  0  0
  -24.8486  -28.9537   20.1162 C   0  0  0  0  0  0
  -22.7388  -29.4665   22.4982 C   0  0  0  0  0  0
  -18.0266  -28.1378   22.8507 C   0  0  0  0  0  0
  -24.1486  -36.7316   23.2636 C   0  0  0  0  0  0
  -25.9219  -30.8480   21.3545 C   0  0  0  0  0  0
  -26.0032  -29.4815   20.7086 C   0  0  0  0  0  0
  -27.2045  -28.7448   20.6989 C   0  0  0  0  0  0
  -26.0767  -26.9424   19.5085 C   0  0  0  0  0  0
  -24.8772  -27.6813   19.5142 C   0  0  0  0  0  0
  -23.6090  -29.8156   20.1634 C   0  0  0  0  0  0
  -25.4097  -36.3110   24.0344 C   0  0  1  0  0  0
  -20.5858  -28.3661   23.1318 C   0  0  2  0  0  0
  -20.6765  -26.9401   22.5418 C   0  0  0  0  0  0
  -19.5746  -26.6395   21.5212 C   0  0  0  0  0  0
  -18.1920  -26.7931   22.1625 C   0  0  0  0  0  0
  -19.1519  -28.8834   23.2917 C   0  0  0  0  0  0
  -18.9455  -30.1447   23.8924 C   0  0  0  0  0  0
  -17.6457  -30.6588   24.0571 C   0  0  0  0  0  0
  -25.9022  -34.9471   23.5128 C   0  0  0  0  0  0
  -16.5346  -29.9102   23.6315 C   0  0  0  0  0  0
  -16.7257  -28.6513   23.0346 C   0  0  0  0  0  0
  -26.4476  -31.6586   25.0696 C   0  0  0  0  0  0
  -25.3773  -31.3671   26.1460 C   0  0  0  0  0  0
  -27.0282  -30.3037   24.6012 C   0  0  0  0  0  0
  -27.6058  -32.4296   25.7458 C   0  0  0  0  0  0
  -27.5575  -37.1805   24.8464 C   0  0  0  0  0  0
  -21.4114  -29.3042   22.3722 N   0  0  0  0  0  0
  -26.4287  -37.3793   23.9406 N   0  0  0  0  0  0
  -24.6628  -31.0817   22.0974 N   0  0  0  0  0  0
  -23.4163  -28.8198   23.3016 O   0  0  0  0  0  0
  -28.4207  -26.7712   20.0839 O   0  0  0  0  0  0
  -26.5574  -34.8934   22.4683 O   0  0  0  0  0  0
  -23.5323  -32.1411   23.7512 O   0  0  0  0  0  0
  -27.2366  -22.2658   20.9464 C   0  0  0  0  0  0
  -25.2862  -18.7830   23.6418 C   0  0  0  0  0  0
  -25.9012  -21.6292   21.3561 C   0  0  0  0  0  0
  -24.9399  -19.9322   22.6935 C   0  0  0  0  0  0
  -28.3289  -24.3286   20.0563 C   0  0  0  0  0  0
  -26.1133  -16.4489   23.8103 C   0  0  0  0  0  0
  -30.4426  -15.0605   22.9979 C   0  0  0  0  0  0
  -28.4337  -25.6075   20.9063 C   0  0  0  0  0  0
  -27.5323  -16.4507   24.3914 C   0  0  0  0  0  0
  -29.8143  -16.2431   23.7457 C   0  0  0  0  0  0
  -27.1850  -23.5105   20.4577 N   0  0  0  0  0  0
  -25.8180  -17.6854   23.0922 N   0  0  0  0  0  0
  -30.2820  -15.2363   21.5568 N   0  0  0  0  0  0
  -28.2958  -21.6455   21.0791 O   0  0  0  0  0  0
  -25.0648  -18.8843   24.8504 O   0  0  0  0  0  0
  -26.1426  -20.5151   22.2101 O   0  0  0  0  0  0
  -28.4610  -16.3695   23.3215 O   0  0  0  0  0  0
  -31.4579  -12.3808   19.1024 H   0  0  0  0  0  0
  -30.3060  -11.2611   19.7698 H   0  0  0  0  0  0
  -29.7158  -11.8250   17.3980 H   0  0  0  0  0  0
  -29.6573  -13.5257   17.7983 H   0  0  0  0  0  0
  -27.8140  -11.3256   18.7901 H   0  0  0  0  0  0
  -27.3546  -12.6769   17.7890 H   0  0  0  0  0  0
  -27.7271  -14.2577   19.6117 H   0  0  0  0  0  0
  -28.6537  -11.9067   21.3290 H   0  0  0  0  0  0
  -28.4361  -13.5414   21.8698 H   0  0  0  0  0  0
  -25.2732   -9.5678   22.4774 H   0  0  0  0  0  0
  -23.9984   -7.4626   22.7460 H   0  0  0  0  0  0
  -21.0832   -8.8769   19.8956 H   0  0  0  0  0  0
  -22.3694  -10.9664   19.6162 H   0  0  0  0  0  0
  -21.1999   -7.6133   23.9716 H   0  0  0  0  0  0
  -21.1493   -6.0518   25.9089 H   0  0  0  0  0  0
  -22.0588   -2.7593   23.2884 H   0  0  0  0  0  0
  -22.4092  -11.9889   22.4799 H   0  0  0  0  0  0
  -21.1084  -13.1265   22.2611 H   0  0  0  0  0  0
  -24.6415  -15.8283   20.4475 H   0  0  0  0  0  0
  -26.2737  -15.6146   20.0470 H   0  0  0  0  0  0
  -26.7107  -32.5567   23.1163 H   0  0  0  0  0  0
  -25.0142  -33.9774   25.0536 H   0  0  0  0  0  0
  -22.6899  -31.3056   21.4036 H   0  0  0  0  0  0
  -23.3749  -35.9657   23.3312 H   0  0  0  0  0  0
  -24.3588  -36.8910   22.2054 H   0  0  0  0  0  0
  -23.7249  -37.6532   23.6627 H   0  0  0  0  0  0
  -26.0242  -31.6133   20.5836 H   0  0  0  0  0  0
  -26.8137  -30.9094   21.9663 H   0  0  0  0  0  0
  -28.0979  -29.1491   21.1560 H   0  0  0  0  0  0
  -26.1003  -25.9717   19.0333 H   0  0  0  0  0  0
  -23.9893  -27.2707   19.0511 H   0  0  0  0  0  0
  -23.7190  -30.5881   19.4016 H   0  0  0  0  0  0
  -22.7354  -29.2335   19.8658 H   0  0  0  0  0  0
  -25.1286  -36.1969   25.0843 H   0  0  0  0  0  0
  -20.9963  -28.3248   24.1429 H   0  0  0  0  0  0
  -20.5678  -26.2272   23.3605 H   0  0  0  0  0  0
  -21.6634  -26.7454   22.1204 H   0  0  0  0  0  0
  -19.6916  -25.6317   21.1225 H   0  0  0  0  0  0
  -19.6689  -27.3217   20.6755 H   0  0  0  0  0  0
  -17.4189  -26.6694   21.4027 H   0  0  0  0  0  0
  -18.0322  -26.0064   22.9011 H   0  0  0  0  0  0
  -19.7934  -30.7256   24.2302 H   0  0  0  0  0  0
  -17.5012  -31.6261   24.5185 H   0  0  0  0  0  0
  -15.5351  -30.3013   23.7610 H   0  0  0  0  0  0
  -15.8661  -28.0831   22.7041 H   0  0  0  0  0  0
  -24.5946  -30.7002   25.7822 H   0  0  0  0  0  0
  -24.8973  -32.2822   26.4939 H   0  0  0  0  0  0
  -25.8183  -30.8842   27.0189 H   0  0  0  0  0  0
  -26.2784  -29.6801   24.1121 H   0  0  0  0  0  0
  -27.4144  -29.7245   25.4412 H   0  0  0  0  0  0
  -27.8586  -30.4382   23.9074 H   0  0  0  0  0  0
  -27.2670  -33.3571   26.2078 H   0  0  0  0  0  0
  -28.3855  -32.6874   25.0284 H   0  0  0  0  0  0
  -28.0734  -31.8392   26.5352 H   0  0  0  0  0  0
  -28.2600  -38.0095   24.7496 H   0  0  0  0  0  0
  -28.1060  -36.2623   24.6302 H   0  0  0  0  0  0
  -27.2285  -37.1472   25.8866 H   0  0  0  0  0  0
  -20.9256  -29.8760   21.6952 H   0  0  0  0  0  0
  -26.0181  -38.2872   24.1410 H   0  0  0  0  0  0
  -25.3573  -21.3200   20.4611 H   0  0  0  0  0  0
  -25.2924  -22.3726   21.8740 H   0  0  0  0  0  0
  -24.3442  -20.6715   23.2313 H   0  0  0  0  0  0
  -24.3339  -19.5550   21.8684 H   0  0  0  0  0  0
  -29.2653  -23.7753   20.1381 H   0  0  0  0  0  0
  -28.2282  -24.5795   18.9998 H   0  0  0  0  0  0
  -25.3880  -16.2957   24.6111 H   0  0  0  0  0  0
  -25.9924  -15.6021   23.1332 H   0  0  0  0  0  0
  -29.9903  -14.1283   23.3346 H   0  0  0  0  0  0
  -31.5041  -14.9949   23.2448 H   0  0  0  0  0  0
  -29.3824  -25.6059   21.4452 H   0  0  0  0  0  0
  -27.6623  -25.6479   21.6782 H   0  0  0  0  0  0
  -27.6481  -15.5811   25.0399 H   0  0  0  0  0  0
  -27.7140  -17.3408   24.9968 H   0  0  0  0  0  0
  -30.3448  -17.1682   23.5191 H   0  0  0  0  0  0
  -29.9118  -16.0908   24.8232 H   0  0  0  0  0  0
  -26.2717  -23.9370   20.3853 H   0  0  0  0  0  0
  -26.0081  -17.7029   22.0983 H   0  0  0  0  0  0
  -30.4962  -16.1856   21.2900 H   0  0  0  0  0  0
  1 25  1  0  0  0
  1 30  2  0  0  0
  1 83  1  0  0  0
  2  3  1  0  0  0
  2 25  1  0  0  0
  2 88  1  0  0  0
  2 89  1  0  0  0
  3  4  1  0  0  0
  3 90  1  0  0  0
  3 91  1  0  0  0
  4  5  1  0  0  0
  4 92  1  0  0  0
  4 93  1  0  0  0
  5  6  1  0  0  0
  5 26  1  0  0  0
  5 94  1  0  0  0
  6 25  1  0  0  0
  6 95  1  0  0  0
  6 96  1  0  0  0
  7  8  2  0  0  0
  7 26  1  0  0  0
  7 29  1  0  0  0
  8  9  1  0  0  0
  8 22  1  0  0  0
  9 10  1  0  0  0
  9 27  2  0  0  0
 10 11  2  0  0  0
 10 15  1  0  0  0
 11 12  1  0  0  0
 11 97  1  0  0  0
 12 13  2  0  0  0
 12 98  1  0  0  0
 13 14  1  0  0  0
 13 31  1  0  0  0
 14 15  2  0  0  0
 14 99  1  0  0  0
 15100  1  0  0  0
 16 17  2  0  0  0
 16 21  1  0  0  0
 16 31  1  0  0  0
 17 18  1  0  0  0
 17101  1  0  0  0
 18 19  2  0  0  0
 18102  1  0  0  0
 19 20  1  0  0  0
 19 24  1  0  0  0
 20 21  2  0  0  0
 20103  1  0  0  0
 21 23  1  0  0  0
 22 28  1  0  0  0
 22 32  2  0  0  0
 26 27  1  0  0  0
 28104  1  0  0  0
 28105  1  0  0  0
 29106  1  0  0  0
 29107  1  0  0  0
 33 34  1  0  0  0
 33 66  1  0  0  0
 33 70  2  0  0  0
 34 36  1  0  0  0
 34 59  1  0  0  0
 34108  1  0  0  0
 35 44  2  0  0  0
 35 45  1  0  0  0
 35 68  1  0  0  0
 36 56  1  0  0  0
 36109  1  0  0  0
 37 39  1  0  0  0
 37 47  1  0  0  0
 37 66  1  0  0  0
 37110  1  0  0  0
 38 43  2  0  0  0
 38 46  1  0  0  0
 38 47  1  0  0  0
 39 64  1  0  0  0
 39 67  2  0  0  0
 40 52  1  0  0  0
 40 53  2  0  0  0
 40 58  1  0  0  0
 41111  1  0  0  0
 41112  1  0  0  0
 41113  1  0  0  0
 41 48  1  0  0  0
 42 43  1  0  0  0
 42 66  1  0  0  0
 42114  1  0  0  0
 42115  1  0  0  0
 43 44  1  0  0  0
 44116  1  0  0  0
 45 46  2  0  0  0
 45117  1  0  0  0
 46118  1  0  0  0
 47119  1  0  0  0
 47120  1  0  0  0
 48 56  1  0  0  0
 48 65  1  0  0  0
 48121  1  0  0  0
 49 50  1  0  0  0
 49 53  1  0  0  0
 49 64  1  0  0  0
 49122  1  0  0  0
 50 51  1  0  0  0
 50123  1  0  0  0
 50124  1  0  0  0
 51 52  1  0  0  0
 51125  1  0  0  0
 51126  1  0  0  0
 52127  1  0  0  0
 52128  1  0  0  0
 53 54  1  0  0  0
 54 55  2  0  0  0
 54129  1  0  0  0
 55 57  1  0  0  0
 55130  1  0  0  0
 56 69  2  0  0  0
 57 58  2  0  0  0
 57131  1  0  0  0
 58132  1  0  0  0
 59 60  1  0  0  0
 59 61  1  0  0  0
 59 62  1  0  0  0
 60133  1  0  0  0
 60134  1  0  0  0
 60135  1  0  0  0
 61136  1  0  0  0
 61137  1  0  0  0
 61138  1  0  0  0
 62139  1  0  0  0
 62140  1  0  0  0
 62141  1  0  0  0
 63 65  1  0  0  0
 63142  1  0  0  0
 63143  1  0  0  0
 63144  1  0  0  0
 64145  1  0  0  0
 65146  1  0  0  0
 68 78  1  0  0  0
 71 73  1  0  0  0
 71 81  1  0  0  0
 71 84  2  0  0  0
 72 74  1  0  0  0
 72 82  1  0  0  0
 72 85  2  0  0  0
 73 86  1  0  0  0
 73147  1  0  0  0
 73148  1  0  0  0
 74 86  1  0  0  0
 74149  1  0  0  0
 74150  1  0  0  0
 75 78  1  0  0  0
 75 81  1  0  0  0
 75151  1  0  0  0
 75152  1  0  0  0
 76 79  1  0  0  0
 76 82  1  0  0  0
 76153  1  0  0  0
 76154  1  0  0  0
 77 80  1  0  0  0
 77 83  1  0  0  0
 77155  1  0  0  0
 77156  1  0  0  0
 78157  1  0  0  0
 78158  1  0  0  0
 79 87  1  0  0  0
 79159  1  0  0  0
 79160  1  0  0  0
 80 87  1  0  0  0
 80161  1  0  0  0
 80162  1  0  0  0
 81163  1  0  0  0
 82164  1  0  0  0
 83165  1  0  0  0
M  ISO  4   1 100  68 101  78 101  83 100
M  END
> <chiral flag>
0

> <version>
0

> <s_m_source_file>
/data/baiqing/PycharmProjects/Reinvent-master-3.2/result/LINK_invent/BTK/process_docking_weight1_custom_product_contain_oxygen_bond_distance_aromatic_linkinvent_7_9_3/rearranged_h_0000.sdf

> <i_m_source_file_index>
79

> <r_mmod_Potential_Energy-OPLS-2005>
-207.193496704102

> <r_mmod_Stretch_Energy-OPLS-2005>
30.9048709869385

> <r_mmod_Bend_Energy-OPLS-2005>
93.8047332763672

> <r_mmod_Torsional_Energy-OPLS-2005>
302.860107421875

> <r_mmod_Improper_Torsional_Energy-OPLS-2005>
7.16753005981445

> <r_mmod_Van_der_Waal_Energy-OPLS-2005>
125.780502319336

> <r_mmod_Electrostatic_Energy-OPLS-2005>
-503.716583251953

> <r_mmod_Solvation_Energy-OPLS-2005>
-270.682769775391

> <b_mmod_Minimization_Converged-OPLS-2005>
0

> <r_mmod_RMS_Derivative-OPLS-2005>
2.25032663345337

$$$$
79
                    3D
 Structure written by MMmdl.
147155  0  0  1  0            999 V2000
  -30.5809  -14.9515   20.3953 C   0  0  0  0  0  0
  -30.4232  -12.5831   19.5101 C   0  0  0  0  0  0
  -29.5146  -12.5205   18.2622 C   0  0  0  0  0  0
  -28.0506  -12.3096   18.6832 C   0  0  0  0  0  0
  -27.6246  -13.2552   19.8368 C   0  0  2  0  0  0
  -28.6656  -13.3129   20.9763 C   0  0  0  0  0  0
  -25.2433  -13.8236   20.5724 C   0  0  0  0  0  0
  -24.1755  -13.0449   20.9239 C   0  0  0  0  0  0
  -24.6380  -11.6935   20.8762 C   0  0  0  0  0  0
  -23.9073  -10.4301   21.0417 C   0  0  0  0  0  0
  -24.3622   -9.4210   21.9194 C   0  0  0  0  0  0
  -23.6296   -8.2247   22.0756 C   0  0  0  0  0  0
  -22.4281   -8.0284   21.3544 C   0  0  0  0  0  0
  -21.9920   -9.0260   20.4652 C   0  0  0  0  0  0
  -22.7245  -10.2139   20.3069 C   0  0  0  0  0  0
  -21.6855   -6.0733   22.5280 C   0  0  0  0  0  0
  -21.4010   -6.5639   23.8208 C   0  0  0  0  0  0
  -21.3658   -5.6791   24.9174 C   0  0  0  0  0  0
  -21.6046   -4.3055   24.7225 C   0  0  0  0  0  0
  -21.8819   -3.8143   23.4346 C   0  0  0  0  0  0
  -21.9193   -4.6961   22.3399 C   0  0  0  0  0  0
  -22.7781  -13.5209   21.1898 C   0  0  0  0  0  0
  -22.1663   -4.2148   21.0978 F   0  0  0  0  0  0
  -21.5629   -3.4537   25.7737 F   0  0  0  0  0  0
  -29.9439  -13.7074   20.3719 N   0  0  0  0  0  0
  -26.2861  -12.9483   20.3262 N   0  0  0  0  0  0
  -25.9317  -11.6606   20.5760 N   0  0  0  0  0  0
  -22.0436  -12.8193   22.0450 N   0  0  0  0  0  0
  -25.4118  -15.1962   20.4129 N   0  0  0  0  0  0
  -31.7897  -14.9178   20.1386 O   0  0  0  0  0  0
  -21.6641   -6.8882   21.4241 O   0  0  0  0  0  0
  -22.3469  -14.5522   20.6752 O   0  0  0  0  0  0
  -24.6464  -31.8426   23.1881 C   0  0  0  0  0  0
  -25.9235  -32.4677   23.8263 C   0  0  1  0  0  0
  -27.2054  -27.1070   20.1381 C   0  0  0  0  0  0
  -25.5980  -33.8487   24.2176 N   0  0  0  0  0  0
  -23.4496  -30.4652   21.5343 C   0  0  2  0  0  0
  -24.8970  -28.8976   20.1021 C   0  0  0  0  0  0
  -22.7583  -29.4540   22.4838 C   0  0  0  0  0  0
  -18.0313  -28.1403   22.8476 C   0  0  0  0  0  0
  -24.1486  -36.7229   23.2639 C   0  0  0  0  0  0
  -26.0102  -30.7035   21.3956 C   0  0  0  0  0  0
  -26.0766  -29.3172   20.7284 C   0  0  0  0  0  0
  -27.2271  -28.4368   20.7360 C   0  0  0  0  0  0
  -25.9940  -26.8050   19.4715 C   0  0  0  0  0  0
  -24.8710  -27.6557   19.4578 C   0  0  0  0  0  0
  -23.6760  -29.8024   20.1503 C   0  0  0  0  0  0
  -25.4123  -36.3017   24.0313 C   0  0  1  0  0  0
  -20.5925  -28.3730   23.1226 C   0  0  2  0  0  0
  -20.6794  -26.9429   22.5405 C   0  0  0  0  0  0
  -19.5765  -26.6387   21.5216 C   0  0  0  0  0  0
  -18.1943  -26.7939   22.1622 C   0  0  0  0  0  0
  -19.1567  -28.8890   23.2840 C   0  0  0  0  0  0
  -18.9488  -30.1486   23.8869 C   0  0  0  0  0  0
  -17.6482  -30.6601   24.0561 C   0  0  0  0  0  0
  -25.9088  -34.9399   23.5052 C   0  0  0  0  0  0
  -16.5375  -29.9088   23.6346 C   0  0  0  0  0  0
  -16.7298  -28.6507   23.0368 C   0  0  0  0  0  0
  -26.4544  -31.6568   25.0723 C   0  0  0  0  0  0
  -25.3717  -31.3770   26.1413 C   0  0  0  0  0  0
  -27.0413  -30.2953   24.6353 C   0  0  0  0  0  0
  -27.6073  -32.4357   25.7492 C   0  0  0  0  0  0
  -27.5584  -37.1757   24.8457 C   0  0  0  0  0  0
  -21.4276  -29.3047   22.3594 N   0  0  0  0  0  0
  -26.4272  -37.3749   23.9436 N   0  0  0  0  0  0
  -24.7220  -31.0253   22.0935 N   0  0  0  0  0  0
  -23.4224  -28.8080   23.2984 O   0  0  0  0  0  0
  -28.2184  -26.0749   20.2869 O   0  0  0  0  0  0
  -26.5661  -34.8906   22.4624 O   0  0  0  0  0  0
  -23.5582  -32.1328   23.7088 O   0  0  0  0  0  0
  -29.2113  -19.7736   19.2402 C   0  0  0  0  0  0
  -29.6005  -19.7484   21.5553 C   0  0  0  0  0  0
  -28.8935  -21.2010   19.2914 C   0  0  0  0  0  0
  -29.3054  -21.1769   21.6039 C   0  0  0  0  0  0
  -29.5902  -18.9473   20.3634 C   0  0  0  0  0  0
  -28.9529  -22.0096   20.4797 C   0  0  0  0  0  0
  -30.3236  -17.5180   20.2128 C   0  0  0  0  0  0
  -28.1431  -24.5880   19.7979 C   0  0  0  0  0  0
  -28.7793  -23.5397   20.6090 N   0  0  0  0  0  0
  -29.8741  -16.1947   20.5086 N   0  0  0  0  0  0
  -31.4548  -17.6582   19.7391 O   0  0  0  0  0  0
  -27.5609  -24.2913   18.7538 O   0  0  0  0  0  0
  -31.4619  -12.7040   19.1989 H   0  0  0  0  0  0
  -30.3912  -11.6390   20.0563 H   0  0  0  0  0  0
  -29.8336  -11.7152   17.5985 H   0  0  0  0  0  0
  -29.6048  -13.4459   17.6912 H   0  0  0  0  0  0
  -27.9521  -11.2718   19.0052 H   0  0  0  0  0  0
  -27.3861  -12.4269   17.8266 H   0  0  0  0  0  0
  -27.5829  -14.2512   19.3953 H   0  0  0  0  0  0
  -28.7476  -12.3504   21.4834 H   0  0  0  0  0  0
  -28.3655  -14.0384   21.7329 H   0  0  0  0  0  0
  -25.2768   -9.5682   22.4771 H   0  0  0  0  0  0
  -24.0005   -7.4638   22.7471 H   0  0  0  0  0  0
  -21.0853   -8.8785   19.8958 H   0  0  0  0  0  0
  -22.3708  -10.9684   19.6183 H   0  0  0  0  0  0
  -21.2001   -7.6145   23.9712 H   0  0  0  0  0  0
  -21.1479   -6.0520   25.9072 H   0  0  0  0  0  0
  -22.0596   -2.7609   23.2847 H   0  0  0  0  0  0
  -22.4060  -11.9844   22.4820 H   0  0  0  0  0  0
  -21.1058  -13.1220   22.2675 H   0  0  0  0  0  0
  -24.6417  -15.8489   20.5141 H   0  0  0  0  0  0
  -26.2527  -15.6308   20.0566 H   0  0  0  0  0  0
  -26.7295  -32.5257   23.0979 H   0  0  0  0  0  0
  -25.0134  -33.9588   25.0333 H   0  0  0  0  0  0
  -22.7537  -31.2932   21.3830 H   0  0  0  0  0  0
  -23.3780  -35.9524   23.3254 H   0  0  0  0  0  0
  -24.3577  -36.8912   22.2064 H   0  0  0  0  0  0
  -23.7201  -37.6397   23.6704 H   0  0  0  0  0  0
  -26.1806  -31.4612   20.6295 H   0  0  0  0  0  0
  -26.8755  -30.7435   22.0448 H   0  0  0  0  0  0
  -28.1171  -28.7446   21.2665 H   0  0  0  0  0  0
  -25.8437  -25.8554   18.9873 H   0  0  0  0  0  0
  -23.9693  -27.3267   18.9595 H   0  0  0  0  0  0
  -23.8147  -30.5824   19.4003 H   0  0  0  0  0  0
  -22.7888  -29.2494   19.8356 H   0  0  0  0  0  0
  -25.1301  -36.1824   25.0798 H   0  0  0  0  0  0
  -21.0014  -28.3330   24.1350 H   0  0  0  0  0  0
  -20.5708  -26.2339   23.3625 H   0  0  0  0  0  0
  -21.6656  -26.7436   22.1192 H   0  0  0  0  0  0
  -19.6920  -25.6291   21.1261 H   0  0  0  0  0  0
  -19.6704  -27.3190   20.6738 H   0  0  0  0  0  0
  -17.4212  -26.6708   21.4018 H   0  0  0  0  0  0
  -18.0332  -26.0083   22.9018 H   0  0  0  0  0  0
  -19.7968  -30.7315   24.2217 H   0  0  0  0  0  0
  -17.5037  -31.6277   24.5172 H   0  0  0  0  0  0
  -15.5373  -30.2977   23.7698 H   0  0  0  0  0  0
  -15.8696  -28.0818   22.7096 H   0  0  0  0  0  0
  -24.5929  -30.7069   25.7756 H   0  0  0  0  0  0
  -24.8856  -32.2941   26.4750 H   0  0  0  0  0  0
  -25.8001  -30.9032   27.0252 H   0  0  0  0  0  0
  -26.3044  -29.6672   24.1335 H   0  0  0  0  0  0
  -27.3971  -29.7269   25.4958 H   0  0  0  0  0  0
  -27.8973  -30.4176   23.9714 H   0  0  0  0  0  0
  -27.2679  -33.3705   26.1967 H   0  0  0  0  0  0
  -28.3916  -32.6857   25.0330 H   0  0  0  0  0  0
  -28.0697  -31.8550   26.5485 H   0  0  0  0  0  0
  -28.2547  -38.0113   24.7594 H   0  0  0  0  0  0
  -28.1135  -36.2648   24.6158 H   0  0  0  0  0  0
  -27.2310  -37.1250   25.8859 H   0  0  0  0  0  0
  -20.9497  -29.8760   21.6768 H   0  0  0  0  0  0
  -26.0124  -38.2793   24.1527 H   0  0  0  0  0  0
  -29.2276  -19.3085   18.2643 H   0  0  0  0  0  0
  -29.9329  -19.2749   22.4686 H   0  0  0  0  0  0
  -28.6562  -21.6928   18.3582 H   0  0  0  0  0  0
  -29.4006  -21.6580   22.5676 H   0  0  0  0  0  0
  -29.1539  -23.9259   21.4655 H   0  0  0  0  0  0
  -28.9113  -16.1296   20.7931 H   0  0  0  0  0  0
  1 25  1  0  0  0
  1 30  2  0  0  0
  1 80  1  0  0  0
  2  3  1  0  0  0
  2 25  1  0  0  0
  2 83  1  0  0  0
  2 84  1  0  0  0
  3  4  1  0  0  0
  3 85  1  0  0  0
  3 86  1  0  0  0
  4  5  1  0  0  0
  4 87  1  0  0  0
  4 88  1  0  0  0
  5  6  1  0  0  0
  5 26  1  0  0  0
  5 89  1  0  0  0
  6 25  1  0  0  0
  6 90  1  0  0  0
  6 91  1  0  0  0
  7  8  2  0  0  0
  7 26  1  0  0  0
  7 29  1  0  0  0
  8  9  1  0  0  0
  8 22  1  0  0  0
  9 10  1  0  0  0
  9 27  2  0  0  0
 10 11  2  0  0  0
 10 15  1  0  0  0
 11 12  1  0  0  0
 11 92  1  0  0  0
 12 13  2  0  0  0
 12 93  1  0  0  0
 13 14  1  0  0  0
 13 31  1  0  0  0
 14 15  2  0  0  0
 14 94  1  0  0  0
 15 95  1  0  0  0
 16 17  2  0  0  0
 16 21  1  0  0  0
 16 31  1  0  0  0
 17 18  1  0  0  0
 17 96  1  0  0  0
 18 19  2  0  0  0
 18 97  1  0  0  0
 19 20  1  0  0  0
 19 24  1  0  0  0
 20 21  2  0  0  0
 20 98  1  0  0  0
 21 23  1  0  0  0
 22 28  1  0  0  0
 22 32  2  0  0  0
 26 27  1  0  0  0
 28 99  1  0  0  0
 28100  1  0  0  0
 29101  1  0  0  0
 29102  1  0  0  0
 33 34  1  0  0  0
 33 66  1  0  0  0
 33 70  2  0  0  0
 34 36  1  0  0  0
 34 59  1  0  0  0
 34103  1  0  0  0
 35 44  2  0  0  0
 35 45  1  0  0  0
 35 68  1  0  0  0
 36 56  1  0  0  0
 36104  1  0  0  0
 37 39  1  0  0  0
 37 47  1  0  0  0
 37 66  1  0  0  0
 37105  1  0  0  0
 38 43  2  0  0  0
 38 46  1  0  0  0
 38 47  1  0  0  0
 39 64  1  0  0  0
 39 67  2  0  0  0
 40 52  1  0  0  0
 40 53  2  0  0  0
 40 58  1  0  0  0
 41106  1  0  0  0
 41107  1  0  0  0
 41108  1  0  0  0
 41 48  1  0  0  0
 42 43  1  0  0  0
 42 66  1  0  0  0
 42109  1  0  0  0
 42110  1  0  0  0
 43 44  1  0  0  0
 44111  1  0  0  0
 45 46  2  0  0  0
 45112  1  0  0  0
 46113  1  0  0  0
 47114  1  0  0  0
 47115  1  0  0  0
 48 56  1  0  0  0
 48 65  1  0  0  0
 48116  1  0  0  0
 49 50  1  0  0  0
 49 53  1  0  0  0
 49 64  1  0  0  0
 49117  1  0  0  0
 50 51  1  0  0  0
 50118  1  0  0  0
 50119  1  0  0  0
 51 52  1  0  0  0
 51120  1  0  0  0
 51121  1  0  0  0
 52122  1  0  0  0
 52123  1  0  0  0
 53 54  1  0  0  0
 54 55  2  0  0  0
 54124  1  0  0  0
 55 57  1  0  0  0
 55125  1  0  0  0
 56 69  2  0  0  0
 57 58  2  0  0  0
 57126  1  0  0  0
 58127  1  0  0  0
 59 60  1  0  0  0
 59 61  1  0  0  0
 59 62  1  0  0  0
 60128  1  0  0  0
 60129  1  0  0  0
 60130  1  0  0  0
 61131  1  0  0  0
 61132  1  0  0  0
 61133  1  0  0  0
 62134  1  0  0  0
 62135  1  0  0  0
 62136  1  0  0  0
 63 65  1  0  0  0
 63137  1  0  0  0
 63138  1  0  0  0
 63139  1  0  0  0
 64140  1  0  0  0
 65141  1  0  0  0
 68 78  1  0  0  0
 71 73  2  0  0  0
 71 75  1  0  0  0
 71142  1  0  0  0
 72 74  1  0  0  0
 72 75  2  0  0  0
 72143  1  0  0  0
 73 76  1  0  0  0
 73144  1  0  0  0
 74 76  2  0  0  0
 74145  1  0  0  0
 75 77  1  0  0  0
 76 79  1  0  0  0
 77 80  1  0  0  0
 77 81  2  0  0  0
 78 79  1  0  0  0
 78 82  2  0  0  0
 79146  1  0  0  0
 80147  1  0  0  0
M  ISO  4   1 100  68 101  78 101  80 100
M  END
> <chiral flag>
0

> <version>
0

> <s_m_source_file>
/data/baiqing/PycharmProjects/Reinvent-master-3.2/result/LINK_invent/BTK/process_docking_weight1_custom_product_contain_oxygen_bond_distance_aromatic_linkinvent_7_9_3/rearranged_h_0000.sdf

> <i_m_source_file_index>
80

> <r_mmod_Potential_Energy-OPLS-2005>
458.350830078125

> <r_mmod_Stretch_Energy-OPLS-2005>
256.508911132812

> <r_mmod_Bend_Energy-OPLS-2005>
259.154602050781

> <r_mmod_Torsional_Energy-OPLS-2005>
261.859252929688

> <r_mmod_Improper_Torsional_Energy-OPLS-2005>
9.0424633026123

> <r_mmod_Van_der_Waal_Energy-OPLS-2005>
142.38005065918

> <r_mmod_Electrostatic_Energy-OPLS-2005>
-440.642700195312

> <r_mmod_Solvation_Energy-OPLS-2005>
-242.126968383789

> <b_mmod_Minimization_Converged-OPLS-2005>
0

> <r_mmod_RMS_Derivative-OPLS-2005>
1.32545185089111

$$$$
80
                    3D
 Structure written by MMmdl.
158166  0  0  1  0            999 V2000
  -30.8542  -14.2823   20.7132 C   0  0  0  0  0  0
  -30.3879  -12.2644   19.3428 C   0  0  0  0  0  0
  -29.4500  -12.5275   18.1586 C   0  0  0  0  0  0
  -27.9848  -12.3796   18.6016 C   0  0  0  0  0  0
  -27.6577  -13.2042   19.8781 C   0  0  2  0  0  0
  -28.7021  -12.9479   20.9898 C   0  0  0  0  0  0
  -25.2538  -13.8157   20.5701 C   0  0  0  0  0  0
  -24.1791  -13.0409   20.9161 C   0  0  0  0  0  0
  -24.6355  -11.6900   20.8731 C   0  0  0  0  0  0
  -23.9028  -10.4290   21.0404 C   0  0  0  0  0  0
  -24.3589   -9.4220   21.9183 C   0  0  0  0  0  0
  -23.6285   -8.2241   22.0756 C   0  0  0  0  0  0
  -22.4265   -8.0272   21.3539 C   0  0  0  0  0  0
  -21.9883   -9.0244   20.4642 C   0  0  0  0  0  0
  -22.7197  -10.2137   20.3060 C   0  0  0  0  0  0
  -21.6856   -6.0731   22.5299 C   0  0  0  0  0  0
  -21.4019   -6.5652   23.8226 C   0  0  0  0  0  0
  -21.3659   -5.6806   24.9186 C   0  0  0  0  0  0
  -21.6041   -4.3060   24.7243 C   0  0  0  0  0  0
  -21.8818   -3.8152   23.4365 C   0  0  0  0  0  0
  -21.9191   -4.6962   22.3421 C   0  0  0  0  0  0
  -22.7825  -13.5236   21.1849 C   0  0  0  0  0  0
  -22.1650   -4.2160   21.0994 F   0  0  0  0  0  0
  -21.5627   -3.4521   25.7745 F   0  0  0  0  0  0
  -30.0354  -13.1909   20.4181 N   0  0  0  0  0  0
  -26.2985  -12.9335   20.3420 N   0  0  0  0  0  0
  -25.9281  -11.6488   20.5803 N   0  0  0  0  0  0
  -22.0450  -12.8245   22.0414 N   0  0  0  0  0  0
  -25.4240  -15.1868   20.4153 N   0  0  0  0  0  0
  -31.8362  -14.6394   20.0581 O   0  0  0  0  0  0
  -21.6641   -6.8863   21.4255 O   0  0  0  0  0  0
  -22.3539  -14.5554   20.6717 O   0  0  0  0  0  0
  -24.6129  -31.8699   23.2136 C   0  0  0  0  0  0
  -25.9036  -32.4835   23.8424 C   0  0  1  0  0  0
  -27.2351  -27.4682   20.0896 C   0  0  0  0  0  0
  -25.5901  -33.8633   24.2346 N   0  0  0  0  0  0
  -23.3997  -30.4943   21.5533 C   0  0  2  0  0  0
  -24.8488  -28.9680   20.1140 C   0  0  0  0  0  0
  -22.7397  -29.4670   22.5004 C   0  0  0  0  0  0
  -18.0267  -28.1377   22.8498 C   0  0  0  0  0  0
  -24.1489  -36.7320   23.2638 C   0  0  0  0  0  0
  -25.9266  -30.8456   21.3634 C   0  0  0  0  0  0
  -26.0080  -29.4840   20.7101 C   0  0  0  0  0  0
  -27.2103  -28.7427   20.6949 C   0  0  0  0  0  0
  -26.0647  -26.9642   19.4828 C   0  0  0  0  0  0
  -24.8703  -27.7053   19.4968 C   0  0  0  0  0  0
  -23.6076  -29.8283   20.1671 C   0  0  0  0  0  0
  -25.4107  -36.3118   24.0338 C   0  0  1  0  0  0
  -20.5857  -28.3660   23.1326 C   0  0  2  0  0  0
  -20.6762  -26.9402   22.5415 C   0  0  0  0  0  0
  -19.5743  -26.6387   21.5210 C   0  0  0  0  0  0
  -18.1915  -26.7923   22.1622 C   0  0  0  0  0  0
  -19.1516  -28.8832   23.2909 C   0  0  0  0  0  0
  -18.9445  -30.1441   23.8921 C   0  0  0  0  0  0
  -17.6448  -30.6584   24.0562 C   0  0  0  0  0  0
  -25.9034  -34.9484   23.5138 C   0  0  0  0  0  0
  -16.5340  -29.9086   23.6328 C   0  0  0  0  0  0
  -16.7256  -28.6502   23.0348 C   0  0  0  0  0  0
  -26.4465  -31.6604   25.0739 C   0  0  0  0  0  0
  -25.3736  -31.3704   26.1492 C   0  0  0  0  0  0
  -27.0283  -30.3053   24.6084 C   0  0  0  0  0  0
  -27.6055  -32.4312   25.7486 C   0  0  0  0  0  0
  -27.5577  -37.1814   24.8464 C   0  0  0  0  0  0
  -21.4125  -29.3033   22.3743 N   0  0  0  0  0  0
  -26.4293  -37.3799   23.9408 N   0  0  0  0  0  0
  -24.6646  -31.0829   22.1026 N   0  0  0  0  0  0
  -23.4176  -28.8207   23.3036 O   0  0  0  0  0  0
  -28.3702  -26.6944   20.0683 O   0  0  0  0  0  0
  -26.5583  -34.8928   22.4693 O   0  0  0  0  0  0
  -23.5329  -32.1442   23.7545 O   0  0  0  0  0  0
  -29.6645  -22.2167   20.4133 C   0  0  0  0  0  0
  -27.4369  -22.8510   21.1812 C   0  0  0  0  0  0
  -29.3750  -20.8665   20.7062 C   0  0  0  0  0  0
  -27.1442  -21.5053   21.4586 C   0  0  0  0  0  0
  -28.7050  -23.2212   20.6689 C   0  0  0  0  0  0
  -28.1150  -20.5162   21.2322 C   0  0  0  0  0  0
  -28.4197  -25.6756   20.9512 C   0  0  0  0  0  0
  -31.4985  -15.5444   22.6309 C   0  0  0  0  0  0
  -31.6453  -16.9981   22.1377 C   0  0  0  0  0  0
  -29.6179  -17.6123   23.2970 C   0  0  0  0  0  0
  -28.4993  -18.6583   23.2948 C   0  0  0  0  0  0
  -29.0108  -24.5732   20.3555 N   0  0  0  0  0  0
  -27.9438  -25.7125   22.0903 O   0  0  0  0  0  0
  -30.5262  -14.8109   21.8953 O   0  0  0  0  0  0
  -30.4316  -17.7465   22.1350 O   0  0  0  0  0  0
  -27.7415  -18.8483   21.6536 S   0  0  0  0  0  0
  -31.4314  -12.3540   19.0361 H   0  0  0  0  0  0
  -30.2653  -11.2388   19.6960 H   0  0  0  0  0  0
  -29.6650  -11.8297   17.3475 H   0  0  0  0  0  0
  -29.6171  -13.5288   17.7578 H   0  0  0  0  0  0
  -27.8022  -11.3215   18.7937 H   0  0  0  0  0  0
  -27.3149  -12.6610   17.7879 H   0  0  0  0  0  0
  -27.7133  -14.2592   19.6081 H   0  0  0  0  0  0
  -28.6455  -11.9138   21.3355 H   0  0  0  0  0  0
  -28.4766  -13.5686   21.8572 H   0  0  0  0  0  0
  -25.2731   -9.5731   22.4755 H   0  0  0  0  0  0
  -24.0008   -7.4655   22.7496 H   0  0  0  0  0  0
  -21.0798   -8.8763   19.8969 H   0  0  0  0  0  0
  -22.3631  -10.9680   19.6181 H   0  0  0  0  0  0
  -21.2021   -7.6158   23.9737 H   0  0  0  0  0  0
  -21.1468   -6.0524   25.9084 H   0  0  0  0  0  0
  -22.0594   -2.7616   23.2868 H   0  0  0  0  0  0
  -22.4001  -11.9899   22.4833 H   0  0  0  0  0  0
  -21.1087  -13.1322   22.2615 H   0  0  0  0  0  0
  -24.6616  -15.8453   20.5349 H   0  0  0  0  0  0
  -26.2946  -15.6302   20.1485 H   0  0  0  0  0  0
  -26.7110  -32.5572   23.1200 H   0  0  0  0  0  0
  -25.0081  -33.9802   25.0508 H   0  0  0  0  0  0
  -22.6880  -31.3113   21.4142 H   0  0  0  0  0  0
  -23.3744  -35.9661   23.3319 H   0  0  0  0  0  0
  -24.3584  -36.8912   22.2048 H   0  0  0  0  0  0
  -23.7249  -37.6536   23.6638 H   0  0  0  0  0  0
  -26.0340  -31.6117   20.5950 H   0  0  0  0  0  0
  -26.8164  -30.9001   21.9788 H   0  0  0  0  0  0
  -28.1055  -29.1326   21.1595 H   0  0  0  0  0  0
  -26.0787  -25.9925   19.0095 H   0  0  0  0  0  0
  -23.9811  -27.3031   19.0304 H   0  0  0  0  0  0
  -23.7135  -30.6037   19.4070 H   0  0  0  0  0  0
  -22.7337  -29.2441   19.8738 H   0  0  0  0  0  0
  -25.1283  -36.1982   25.0827 H   0  0  0  0  0  0
  -20.9945  -28.3215   24.1447 H   0  0  0  0  0  0
  -20.5671  -26.2262   23.3593 H   0  0  0  0  0  0
  -21.6629  -26.7450   22.1202 H   0  0  0  0  0  0
  -19.6908  -25.6299   21.1230 H   0  0  0  0  0  0
  -19.6686  -27.3205   20.6747 H   0  0  0  0  0  0
  -17.4185  -26.6674   21.4020 H   0  0  0  0  0  0
  -18.0319  -26.0050   22.9011 H   0  0  0  0  0  0
  -19.7925  -30.7243   24.2307 H   0  0  0  0  0  0
  -17.5011  -31.6273   24.5153 H   0  0  0  0  0  0
  -15.5346  -30.3000   23.7647 H   0  0  0  0  0  0
  -15.8651  -28.0836   22.7057 H   0  0  0  0  0  0
  -24.5891  -30.7075   25.7824 H   0  0  0  0  0  0
  -24.8951  -32.2861   26.4974 H   0  0  0  0  0  0
  -25.8089  -30.8840   27.0228 H   0  0  0  0  0  0
  -26.2820  -29.6832   24.1137 H   0  0  0  0  0  0
  -27.4062  -29.7268   25.4519 H   0  0  0  0  0  0
  -27.8647  -30.4384   23.9221 H   0  0  0  0  0  0
  -27.2695  -33.3608   26.2088 H   0  0  0  0  0  0
  -28.3847  -32.6871   25.0295 H   0  0  0  0  0  0
  -28.0740  -31.8418   26.5376 H   0  0  0  0  0  0
  -28.2606  -38.0100   24.7500 H   0  0  0  0  0  0
  -28.1057  -36.2631   24.6302 H   0  0  0  0  0  0
  -27.2296  -37.1480   25.8868 H   0  0  0  0  0  0
  -20.9280  -29.8764   21.6977 H   0  0  0  0  0  0
  -26.0184  -38.2878   24.1402 H   0  0  0  0  0  0
  -30.6346  -22.4734   20.0118 H   0  0  0  0  0  0
  -26.6672  -23.5868   21.3658 H   0  0  0  0  0  0
  -30.1215  -20.1036   20.5338 H   0  0  0  0  0  0
  -26.1754  -21.2362   21.8546 H   0  0  0  0  0  0
  -31.2167  -15.5370   23.6841 H   0  0  0  0  0  0
  -32.4617  -15.0337   22.5830 H   0  0  0  0  0  0
  -32.0529  -17.0214   21.1269 H   0  0  0  0  0  0
  -32.3759  -17.5058   22.7672 H   0  0  0  0  0  0
  -29.1604  -16.6236   23.3062 H   0  0  0  0  0  0
  -30.2165  -17.7135   24.2036 H   0  0  0  0  0  0
  -28.8833  -19.6236   23.6277 H   0  0  0  0  0  0
  -27.7314  -18.3695   24.0128 H   0  0  0  0  0  0
  -29.5198  -24.7613   19.5014 H   0  0  0  0  0  0
  1 25  1  0  0  0
  1 30  2  0  0  0
  1 84  1  0  0  0
  2  3  1  0  0  0
  2 25  1  0  0  0
  2 87  1  0  0  0
  2 88  1  0  0  0
  3  4  1  0  0  0
  3 89  1  0  0  0
  3 90  1  0  0  0
  4  5  1  0  0  0
  4 91  1  0  0  0
  4 92  1  0  0  0
  5  6  1  0  0  0
  5 26  1  0  0  0
  5 93  1  0  0  0
  6 25  1  0  0  0
  6 94  1  0  0  0
  6 95  1  0  0  0
  7  8  2  0  0  0
  7 26  1  0  0  0
  7 29  1  0  0  0
  8  9  1  0  0  0
  8 22  1  0  0  0
  9 10  1  0  0  0
  9 27  2  0  0  0
 10 11  2  0  0  0
 10 15  1  0  0  0
 11 12  1  0  0  0
 11 96  1  0  0  0
 12 13  2  0  0  0
 12 97  1  0  0  0
 13 14  1  0  0  0
 13 31  1  0  0  0
 14 15  2  0  0  0
 14 98  1  0  0  0
 15 99  1  0  0  0
 16 17  2  0  0  0
 16 21  1  0  0  0
 16 31  1  0  0  0
 17 18  1  0  0  0
 17100  1  0  0  0
 18 19  2  0  0  0
 18101  1  0  0  0
 19 20  1  0  0  0
 19 24  1  0  0  0
 20 21  2  0  0  0
 20102  1  0  0  0
 21 23  1  0  0  0
 22 28  1  0  0  0
 22 32  2  0  0  0
 26 27  1  0  0  0
 28103  1  0  0  0
 28104  1  0  0  0
 29105  1  0  0  0
 29106  1  0  0  0
 33 34  1  0  0  0
 33 66  1  0  0  0
 33 70  2  0  0  0
 34 36  1  0  0  0
 34 59  1  0  0  0
 34107  1  0  0  0
 35 44  2  0  0  0
 35 45  1  0  0  0
 35 68  1  0  0  0
 36 56  1  0  0  0
 36108  1  0  0  0
 37 39  1  0  0  0
 37 47  1  0  0  0
 37 66  1  0  0  0
 37109  1  0  0  0
 38 43  2  0  0  0
 38 46  1  0  0  0
 38 47  1  0  0  0
 39 64  1  0  0  0
 39 67  2  0  0  0
 40 52  1  0  0  0
 40 53  2  0  0  0
 40 58  1  0  0  0
 41110  1  0  0  0
 41111  1  0  0  0
 41112  1  0  0  0
 41 48  1  0  0  0
 42 43  1  0  0  0
 42 66  1  0  0  0
 42113  1  0  0  0
 42114  1  0  0  0
 43 44  1  0  0  0
 44115  1  0  0  0
 45 46  2  0  0  0
 45116  1  0  0  0
 46117  1  0  0  0
 47118  1  0  0  0
 47119  1  0  0  0
 48 56  1  0  0  0
 48 65  1  0  0  0
 48120  1  0  0  0
 49 50  1  0  0  0
 49 53  1  0  0  0
 49 64  1  0  0  0
 49121  1  0  0  0
 50 51  1  0  0  0
 50122  1  0  0  0
 50123  1  0  0  0
 51 52  1  0  0  0
 51124  1  0  0  0
 51125  1  0  0  0
 52126  1  0  0  0
 52127  1  0  0  0
 53 54  1  0  0  0
 54 55  2  0  0  0
 54128  1  0  0  0
 55 57  1  0  0  0
 55129  1  0  0  0
 56 69  2  0  0  0
 57 58  2  0  0  0
 57130  1  0  0  0
 58131  1  0  0  0
 59 60  1  0  0  0
 59 61  1  0  0  0
 59 62  1  0  0  0
 60132  1  0  0  0
 60133  1  0  0  0
 60134  1  0  0  0
 61135  1  0  0  0
 61136  1  0  0  0
 61137  1  0  0  0
 62138  1  0  0  0
 62139  1  0  0  0
 62140  1  0  0  0
 63 65  1  0  0  0
 63141  1  0  0  0
 63142  1  0  0  0
 63143  1  0  0  0
 64144  1  0  0  0
 65145  1  0  0  0
 68 77  1  0  0  0
 71 73  2  0  0  0
 71 75  1  0  0  0
 71146  1  0  0  0
 72 74  1  0  0  0
 72 75  2  0  0  0
 72147  1  0  0  0
 73 76  1  0  0  0
 73148  1  0  0  0
 74 76  2  0  0  0
 74149  1  0  0  0
 75 82  1  0  0  0
 76 86  1  0  0  0
 77 82  1  0  0  0
 77 83  2  0  0  0
 78 79  1  0  0  0
 78 84  1  0  0  0
 78150  1  0  0  0
 78151  1  0  0  0
 79 85  1  0  0  0
 79152  1  0  0  0
 79153  1  0  0  0
 80 81  1  0  0  0
 80 85  1  0  0  0
 80154  1  0  0  0
 80155  1  0  0  0
 81 86  1  0  0  0
 81156  1  0  0  0
 81157  1  0  0  0
 82158  1  0  0  0
M  ISO  4   1 100  68 101  77 101  84 100
M  END
> <chiral flag>
0

> <version>
0

> <s_m_source_file>
/data/baiqing/PycharmProjects/Reinvent-master-3.2/result/LINK_invent/BTK/process_docking_weight1_custom_product_contain_oxygen_bond_distance_aromatic_linkinvent_7_9_3/rearranged_h_0000.sdf

> <i_m_source_file_index>
81

> <r_mmod_Potential_Energy-OPLS-2005>
-106.03784942627

> <r_mmod_Stretch_Energy-OPLS-2005>
30.5794582366943

> <r_mmod_Bend_Energy-OPLS-2005>
85.2042465209961

> <r_mmod_Torsional_Energy-OPLS-2005>
226.981521606445

> <r_mmod_Improper_Torsional_Energy-OPLS-2005>
3.47934651374817

> <r_mmod_Van_der_Waal_Energy-OPLS-2005>
154.667251586914

> <r_mmod_Electrostatic_Energy-OPLS-2005>
-403.221252441406

> <r_mmod_Solvation_Energy-OPLS-2005>
-212.976760864258

> <b_mmod_Minimization_Converged-OPLS-2005>
0

> <r_mmod_RMS_Derivative-OPLS-2005>
2.72013902664185

$$$$
81
                    3D
 Structure written by MMmdl.
202210  0  0  1  0            999 V2000
  -30.7465  -14.3647   20.7090 C   0  0  0  0  0  0
  -30.4200  -12.2835   19.4162 C   0  0  0  0  0  0
  -29.4957  -12.5252   18.2050 C   0  0  0  0  0  0
  -28.0106  -12.3938   18.6026 C   0  0  0  0  0  0
  -27.6648  -13.2008   19.8801 C   0  0  2  0  0  0
  -28.6943  -12.9068   20.9884 C   0  0  0  0  0  0
  -25.2564  -13.8142   20.5668 C   0  0  0  0  0  0
  -24.1823  -13.0412   20.9154 C   0  0  0  0  0  0
  -24.6388  -11.6892   20.8739 C   0  0  0  0  0  0
  -23.9079  -10.4271   21.0430 C   0  0  0  0  0  0
  -24.3622   -9.4186   21.9212 C   0  0  0  0  0  0
  -23.6306   -8.2214   22.0758 C   0  0  0  0  0  0
  -22.4282   -8.0273   21.3548 C   0  0  0  0  0  0
  -21.9926   -9.0254   20.4655 C   0  0  0  0  0  0
  -22.7258  -10.2128   20.3071 C   0  0  0  0  0  0
  -21.6855   -6.0753   22.5299 C   0  0  0  0  0  0
  -21.4017   -6.5653   23.8237 C   0  0  0  0  0  0
  -21.3679   -5.6790   24.9191 C   0  0  0  0  0  0
  -21.6047   -4.3054   24.7227 C   0  0  0  0  0  0
  -21.8819   -3.8161   23.4340 C   0  0  0  0  0  0
  -21.9182   -4.6989   22.3407 C   0  0  0  0  0  0
  -22.7827  -13.5185   21.1796 C   0  0  0  0  0  0
  -22.1655   -4.2179   21.0990 F   0  0  0  0  0  0
  -21.5619   -3.4532   25.7733 F   0  0  0  0  0  0
  -30.0426  -13.2217   20.4836 N   0  0  0  0  0  0
  -26.3023  -12.9314   20.3364 N   0  0  0  0  0  0
  -25.9306  -11.6472   20.5730 N   0  0  0  0  0  0
  -22.0420  -12.8104   22.0269 N   0  0  0  0  0  0
  -25.4242  -15.1856   20.4115 N   0  0  0  0  0  0
  -31.7488  -14.6783   20.0611 O   0  0  0  0  0  0
  -21.6635   -6.8886   21.4257 O   0  0  0  0  0  0
  -22.3500  -14.5457   20.6596 O   0  0  0  0  0  0
  -24.6114  -31.8702   23.2127 C   0  0  0  0  0  0
  -25.9021  -32.4835   23.8411 C   0  0  1  0  0  0
  -27.2378  -27.4742   20.0730 C   0  0  0  0  0  0
  -25.5893  -33.8628   24.2347 N   0  0  0  0  0  0
  -23.3974  -30.4939   21.5523 C   0  0  2  0  0  0
  -24.8440  -28.9652   20.1125 C   0  0  0  0  0  0
  -22.7394  -29.4666   22.5007 C   0  0  0  0  0  0
  -18.0261  -28.1381   22.8493 C   0  0  0  0  0  0
  -24.1483  -36.7312   23.2639 C   0  0  0  0  0  0
  -25.9225  -30.8445   21.3620 C   0  0  0  0  0  0
  -26.0006  -29.4811   20.7100 C   0  0  0  0  0  0
  -27.1982  -28.7356   20.7008 C   0  0  0  0  0  0
  -26.0623  -26.9550   19.4917 C   0  0  0  0  0  0
  -24.8668  -27.6973   19.5057 C   0  0  0  0  0  0
  -23.6035  -29.8271   20.1655 C   0  0  0  0  0  0
  -25.4105  -36.3117   24.0343 C   0  0  1  0  0  0
  -20.5853  -28.3655   23.1332 C   0  0  2  0  0  0
  -20.6758  -26.9396   22.5421 C   0  0  0  0  0  0
  -19.5739  -26.6387   21.5214 C   0  0  0  0  0  0
  -18.1917  -26.7926   22.1624 C   0  0  0  0  0  0
  -19.1513  -28.8828   23.2907 C   0  0  0  0  0  0
  -18.9447  -30.1441   23.8910 C   0  0  0  0  0  0
  -17.6454  -30.6583   24.0567 C   0  0  0  0  0  0
  -25.9025  -34.9479   23.5140 C   0  0  0  0  0  0
  -16.5339  -29.9089   23.6334 C   0  0  0  0  0  0
  -16.7255  -28.6510   23.0338 C   0  0  0  0  0  0
  -26.4465  -31.6603   25.0721 C   0  0  0  0  0  0
  -25.3751  -31.3691   26.1483 C   0  0  0  0  0  0
  -27.0298  -30.3058   24.6065 C   0  0  0  0  0  0
  -27.6045  -32.4323   25.7478 C   0  0  0  0  0  0
  -27.5581  -37.1812   24.8470 C   0  0  0  0  0  0
  -21.4124  -29.3025   22.3739 N   0  0  0  0  0  0
  -26.4298  -37.3801   23.9407 N   0  0  0  0  0  0
  -24.6613  -31.0834   22.1016 N   0  0  0  0  0  0
  -23.4179  -28.8208   23.3032 O   0  0  0  0  0  0
  -28.4017  -26.7490   20.0975 O   0  0  0  0  0  0
  -26.5588  -34.8931   22.4697 O   0  0  0  0  0  0
  -23.5312  -32.1435   23.7547 O   0  0  0  0  0  0
  -28.3581  -20.0352   21.3916 C   0  0  0  0  0  0
  -26.2520  -21.2506   21.5060 C   0  0  0  0  0  0
  -28.9708  -21.1498   20.7869 C   0  0  0  0  0  0
  -26.8657  -22.3678   20.9023 C   0  0  0  0  0  0
  -26.9927  -20.0697   21.7483 C   0  0  0  0  0  0
  -28.2259  -22.3174   20.5140 C   0  0  0  0  0  0
  -26.3384  -18.8331   22.2989 C   0  0  0  0  0  0
  -28.8849  -23.4815   19.8262 C   0  0  0  0  0  0
  -22.3863  -16.5277   23.4002 C   0  0  0  0  0  0
  -23.2907  -17.6101   22.8032 C   0  0  0  0  0  0
  -28.8879  -15.4668   23.7191 C   0  0  0  0  0  0
  -24.4932  -17.9501   23.7099 C   0  0  0  0  0  0
  -30.1860  -14.9456   23.0555 C   0  0  0  0  0  0
  -28.5035  -25.2532   18.0978 C   0  0  0  0  0  0
  -20.0505  -15.7303   23.6981 C   0  0  0  0  0  0
  -28.8592  -15.1522   25.2239 C   0  0  0  0  0  0
  -29.0354  -26.4957   18.8449 C   0  0  0  0  0  0
  -19.4557  -16.2165   25.0299 C   0  0  0  0  0  0
  -27.5259  -14.9608   27.1599 C   0  0  0  0  0  0
  -20.0530  -16.7045   27.2774 C   0  0  0  0  0  0
  -26.1563  -14.4889   27.6730 C   0  0  0  0  0  0
  -21.2478  -17.1744   28.1156 C   0  0  0  0  0  0
  -24.3672  -15.3557   28.9544 C   0  0  0  0  0  0
  -23.3034  -16.4593   29.0359 C   0  0  0  0  0  0
  -25.3099  -19.0202   23.1352 N   0  0  0  0  0  0
  -28.1014  -24.1584   18.9803 N   0  0  0  0  0  0
  -21.0688  -16.6490   23.1912 N   0  0  0  0  0  0
  -30.2510  -15.2227   21.6162 N   0  0  0  0  0  0
  -26.7639  -17.7171   22.0003 O   0  0  0  0  0  0
  -30.0841  -23.7214   19.9815 O   0  0  0  0  0  0
  -22.8766  -15.5919   24.0336 O   0  0  0  0  0  0
  -27.5357  -15.2145   25.7542 O   0  0  0  0  0  0
  -20.5046  -16.4676   25.9533 O   0  0  0  0  0  0
  -25.2625  -15.5820   27.8681 O   0  0  0  0  0  0
  -22.2220  -16.1395   28.1718 O   0  0  0  0  0  0
  -31.4667  -12.3851   19.1251 H   0  0  0  0  0  0
  -30.3163  -11.2599   19.7796 H   0  0  0  0  0  0
  -29.7296  -11.8181   17.4075 H   0  0  0  0  0  0
  -29.6805  -13.5220   17.7987 H   0  0  0  0  0  0
  -27.8026  -11.3365   18.7653 H   0  0  0  0  0  0
  -27.3665  -12.7062   17.7798 H   0  0  0  0  0  0
  -27.7305  -14.2596   19.6316 H   0  0  0  0  0  0
  -28.6506  -11.8548   21.2746 H   0  0  0  0  0  0
  -28.4219  -13.4446   21.8862 H   0  0  0  0  0  0
  -25.2779   -9.5648   22.4770 H   0  0  0  0  0  0
  -24.0033   -7.4593   22.7457 H   0  0  0  0  0  0
  -21.0867   -8.8775   19.8947 H   0  0  0  0  0  0
  -22.3758  -10.9664   19.6161 H   0  0  0  0  0  0
  -21.2013   -7.6159   23.9761 H   0  0  0  0  0  0
  -21.1507   -6.0512   25.9104 H   0  0  0  0  0  0
  -22.0577   -2.7625   23.2823 H   0  0  0  0  0  0
  -22.4061  -11.9809   22.4704 H   0  0  0  0  0  0
  -21.0981  -13.1028   22.2296 H   0  0  0  0  0  0
  -24.6736  -15.8367   20.6036 H   0  0  0  0  0  0
  -26.3181  -15.6446   20.2840 H   0  0  0  0  0  0
  -26.7088  -32.5559   23.1175 H   0  0  0  0  0  0
  -25.0078  -33.9795   25.0517 H   0  0  0  0  0  0
  -22.6845  -31.3093   21.4161 H   0  0  0  0  0  0
  -23.3747  -35.9647   23.3326 H   0  0  0  0  0  0
  -24.3579  -36.8894   22.2050 H   0  0  0  0  0  0
  -23.7235  -37.6525   23.6629 H   0  0  0  0  0  0
  -26.0300  -31.6121   20.5942 H   0  0  0  0  0  0
  -26.8129  -30.8991   21.9771 H   0  0  0  0  0  0
  -28.0911  -29.1277   21.1676 H   0  0  0  0  0  0
  -26.0521  -25.9736   19.0456 H   0  0  0  0  0  0
  -23.9740  -27.2863   19.0557 H   0  0  0  0  0  0
  -23.7060  -30.6016   19.4050 H   0  0  0  0  0  0
  -22.7291  -29.2425   19.8736 H   0  0  0  0  0  0
  -25.1280  -36.1994   25.0841 H   0  0  0  0  0  0
  -20.9942  -28.3218   24.1456 H   0  0  0  0  0  0
  -20.5675  -26.2258   23.3602 H   0  0  0  0  0  0
  -21.6631  -26.7459   22.1207 H   0  0  0  0  0  0
  -19.6903  -25.6305   21.1227 H   0  0  0  0  0  0
  -19.6682  -27.3211   20.6758 H   0  0  0  0  0  0
  -17.4193  -26.6674   21.4023 H   0  0  0  0  0  0
  -18.0315  -26.0064   22.9018 H   0  0  0  0  0  0
  -19.7921  -30.7253   24.2284 H   0  0  0  0  0  0
  -17.5006  -31.6266   24.5172 H   0  0  0  0  0  0
  -15.5338  -30.2995   23.7647 H   0  0  0  0  0  0
  -15.8657  -28.0839   22.7038 H   0  0  0  0  0  0
  -24.5909  -30.7055   25.7821 H   0  0  0  0  0  0
  -24.8964  -32.2846   26.4975 H   0  0  0  0  0  0
  -25.8127  -30.8828   27.0213 H   0  0  0  0  0  0
  -26.2829  -29.6816   24.1146 H   0  0  0  0  0  0
  -27.4120  -29.7289   25.4497 H   0  0  0  0  0  0
  -27.8639  -30.4394   23.9171 H   0  0  0  0  0  0
  -27.2657  -33.3605   26.2095 H   0  0  0  0  0  0
  -28.3833  -32.6914   25.0291 H   0  0  0  0  0  0
  -28.0741  -31.8429   26.5365 H   0  0  0  0  0  0
  -28.2615  -38.0093   24.7510 H   0  0  0  0  0  0
  -28.1055  -36.2627   24.6304 H   0  0  0  0  0  0
  -27.2298  -37.1480   25.8873 H   0  0  0  0  0  0
  -20.9279  -29.8740   21.6965 H   0  0  0  0  0  0
  -26.0189  -38.2884   24.1402 H   0  0  0  0  0  0
  -28.9381  -19.1386   21.5639 H   0  0  0  0  0  0
  -25.2016  -21.3036   21.7571 H   0  0  0  0  0  0
  -30.0143  -21.0958   20.5056 H   0  0  0  0  0  0
  -26.2769  -23.2576   20.7257 H   0  0  0  0  0  0
  -22.7057  -18.5115   22.6147 H   0  0  0  0  0  0
  -23.6420  -17.2569   21.8330 H   0  0  0  0  0  0
  -28.0068  -15.0261   23.2543 H   0  0  0  0  0  0
  -28.7914  -16.5432   23.5707 H   0  0  0  0  0  0
  -25.1030  -17.0605   23.8844 H   0  0  0  0  0  0
  -24.1387  -18.2708   24.6908 H   0  0  0  0  0  0
  -30.3002  -13.8766   23.2482 H   0  0  0  0  0  0
  -31.0462  -15.4247   23.5276 H   0  0  0  0  0  0
  -29.2544  -24.8970   17.3906 H   0  0  0  0  0  0
  -27.6411  -25.5302   17.4928 H   0  0  0  0  0  0
  -19.2593  -15.6377   22.9531 H   0  0  0  0  0  0
  -20.4659  -14.7288   23.8220 H   0  0  0  0  0  0
  -29.5222  -15.8383   25.7557 H   0  0  0  0  0  0
  -29.2474  -14.1438   25.3824 H   0  0  0  0  0  0
  -28.9865  -27.3748   18.2002 H   0  0  0  0  0  0
  -30.0949  -26.3493   19.0578 H   0  0  0  0  0  0
  -18.7782  -15.4552   25.4200 H   0  0  0  0  0  0
  -18.8725  -17.1257   24.8805 H   0  0  0  0  0  0
  -28.2327  -14.1606   27.3858 H   0  0  0  0  0  0
  -27.8617  -15.8397   27.7111 H   0  0  0  0  0  0
  -19.2807  -17.4754   27.2820 H   0  0  0  0  0  0
  -19.6145  -15.7989   27.7010 H   0  0  0  0  0  0
  -26.3359  -13.9847   28.6252 H   0  0  0  0  0  0
  -25.7134  -13.7433   27.0124 H   0  0  0  0  0  0
  -20.9090  -17.4285   29.1218 H   0  0  0  0  0  0
  -21.6819  -18.0755   27.6800 H   0  0  0  0  0  0
  -23.8910  -14.3763   28.8828 H   0  0  0  0  0  0
  -24.9488  -15.3616   29.8774 H   0  0  0  0  0  0
  -23.7370  -17.4325   28.7997 H   0  0  0  0  0  0
  -22.9213  -16.5142   30.0576 H   0  0  0  0  0  0
  -25.0696  -19.9739   23.3685 H   0  0  0  0  0  0
  -27.1479  -23.8356   18.9032 H   0  0  0  0  0  0
  -20.7448  -17.4342   22.6428 H   0  0  0  0  0  0
  -30.5744  -16.1603   21.4318 H   0  0  0  0  0  0
  1 25  1  0  0  0
  1 30  2  0  0  0
  1 98  1  0  0  0
  2  3  1  0  0  0
  2 25  1  0  0  0
  2106  1  0  0  0
  2107  1  0  0  0
  3  4  1  0  0  0
  3108  1  0  0  0
  3109  1  0  0  0
  4  5  1  0  0  0
  4110  1  0  0  0
  4111  1  0  0  0
  5  6  1  0  0  0
  5 26  1  0  0  0
  5112  1  0  0  0
  6 25  1  0  0  0
  6113  1  0  0  0
  6114  1  0  0  0
  7  8  2  0  0  0
  7 26  1  0  0  0
  7 29  1  0  0  0
  8  9  1  0  0  0
  8 22  1  0  0  0
  9 10  1  0  0  0
  9 27  2  0  0  0
 10 11  2  0  0  0
 10 15  1  0  0  0
 11 12  1  0  0  0
 11115  1  0  0  0
 12 13  2  0  0  0
 12116  1  0  0  0
 13 14  1  0  0  0
 13 31  1  0  0  0
 14 15  2  0  0  0
 14117  1  0  0  0
 15118  1  0  0  0
 16 17  2  0  0  0
 16 21  1  0  0  0
 16 31  1  0  0  0
 17 18  1  0  0  0
 17119  1  0  0  0
 18 19  2  0  0  0
 18120  1  0  0  0
 19 20  1  0  0  0
 19 24  1  0  0  0
 20 21  2  0  0  0
 20121  1  0  0  0
 21 23  1  0  0  0
 22 28  1  0  0  0
 22 32  2  0  0  0
 26 27  1  0  0  0
 28122  1  0  0  0
 28123  1  0  0  0
 29124  1  0  0  0
 29125  1  0  0  0
 33 34  1  0  0  0
 33 66  1  0  0  0
 33 70  2  0  0  0
 34 36  1  0  0  0
 34 59  1  0  0  0
 34126  1  0  0  0
 35 44  2  0  0  0
 35 45  1  0  0  0
 35 68  1  0  0  0
 36 56  1  0  0  0
 36127  1  0  0  0
 37 39  1  0  0  0
 37 47  1  0  0  0
 37 66  1  0  0  0
 37128  1  0  0  0
 38 43  2  0  0  0
 38 46  1  0  0  0
 38 47  1  0  0  0
 39 64  1  0  0  0
 39 67  2  0  0  0
 40 52  1  0  0  0
 40 53  2  0  0  0
 40 58  1  0  0  0
 41129  1  0  0  0
 41130  1  0  0  0
 41131  1  0  0  0
 41 48  1  0  0  0
 42 43  1  0  0  0
 42 66  1  0  0  0
 42132  1  0  0  0
 42133  1  0  0  0
 43 44  1  0  0  0
 44134  1  0  0  0
 45 46  2  0  0  0
 45135  1  0  0  0
 46136  1  0  0  0
 47137  1  0  0  0
 47138  1  0  0  0
 48 56  1  0  0  0
 48 65  1  0  0  0
 48139  1  0  0  0
 49 50  1  0  0  0
 49 53  1  0  0  0
 49 64  1  0  0  0
 49140  1  0  0  0
 50 51  1  0  0  0
 50141  1  0  0  0
 50142  1  0  0  0
 51 52  1  0  0  0
 51143  1  0  0  0
 51144  1  0  0  0
 52145  1  0  0  0
 52146  1  0  0  0
 53 54  1  0  0  0
 54 55  2  0  0  0
 54147  1  0  0  0
 55 57  1  0  0  0
 55148  1  0  0  0
 56 69  2  0  0  0
 57 58  2  0  0  0
 57149  1  0  0  0
 58150  1  0  0  0
 59 60  1  0  0  0
 59 61  1  0  0  0
 59 62  1  0  0  0
 60151  1  0  0  0
 60152  1  0  0  0
 60153  1  0  0  0
 61154  1  0  0  0
 61155  1  0  0  0
 61156  1  0  0  0
 62157  1  0  0  0
 62158  1  0  0  0
 62159  1  0  0  0
 63 65  1  0  0  0
 63160  1  0  0  0
 63161  1  0  0  0
 63162  1  0  0  0
 64163  1  0  0  0
 65164  1  0  0  0
 68 87  1  0  0  0
 71 73  2  0  0  0
 71 75  1  0  0  0
 71165  1  0  0  0
 72 74  1  0  0  0
 72 75  2  0  0  0
 72166  1  0  0  0
 73 76  1  0  0  0
 73167  1  0  0  0
 74 76  2  0  0  0
 74168  1  0  0  0
 75 77  1  0  0  0
 76 78  1  0  0  0
 77 95  1  0  0  0
 77 99  2  0  0  0
 78 96  1  0  0  0
 78100  2  0  0  0
 79 80  1  0  0  0
 79 97  1  0  0  0
 79101  2  0  0  0
 80 82  1  0  0  0
 80169  1  0  0  0
 80170  1  0  0  0
 81 83  1  0  0  0
 81 86  1  0  0  0
 81171  1  0  0  0
 81172  1  0  0  0
 82 95  1  0  0  0
 82173  1  0  0  0
 82174  1  0  0  0
 83 98  1  0  0  0
 83175  1  0  0  0
 83176  1  0  0  0
 84 87  1  0  0  0
 84 96  1  0  0  0
 84177  1  0  0  0
 84178  1  0  0  0
 85 88  1  0  0  0
 85 97  1  0  0  0
 85179  1  0  0  0
 85180  1  0  0  0
 86102  1  0  0  0
 86181  1  0  0  0
 86182  1  0  0  0
 87183  1  0  0  0
 87184  1  0  0  0
 88103  1  0  0  0
 88185  1  0  0  0
 88186  1  0  0  0
 89 91  1  0  0  0
 89102  1  0  0  0
 89187  1  0  0  0
 89188  1  0  0  0
 90 92  1  0  0  0
 90103  1  0  0  0
 90189  1  0  0  0
 90190  1  0  0  0
 91104  1  0  0  0
 91191  1  0  0  0
 91192  1  0  0  0
 92105  1  0  0  0
 92193  1  0  0  0
 92194  1  0  0  0
 93 94  1  0  0  0
 93104  1  0  0  0
 93195  1  0  0  0
 93196  1  0  0  0
 94105  1  0  0  0
 94197  1  0  0  0
 94198  1  0  0  0
 95199  1  0  0  0
 96200  1  0  0  0
 97201  1  0  0  0
 98202  1  0  0  0
M  ISO  4   1 100  68 101  87 101  98 100
M  END
> <chiral flag>
0

> <version>
0

> <s_m_source_file>
/data/baiqing/PycharmProjects/Reinvent-master-3.2/result/LINK_invent/BTK/process_docking_weight1_custom_product_contain_oxygen_bond_distance_aromatic_linkinvent_7_9_3/rearranged_h_0000.sdf

> <i_m_source_file_index>
82

> <r_mmod_Potential_Energy-OPLS-2005>
-224.070755004883

> <r_mmod_Stretch_Energy-OPLS-2005>
36.1704940795898

> <r_mmod_Bend_Energy-OPLS-2005>
109.695182800293

> <r_mmod_Torsional_Energy-OPLS-2005>
303.044616699219

> <r_mmod_Improper_Torsional_Energy-OPLS-2005>
7.49410057067871

> <r_mmod_Van_der_Waal_Energy-OPLS-2005>
131.541000366211

> <r_mmod_Electrostatic_Energy-OPLS-2005>
-485.263916015625

> <r_mmod_Solvation_Energy-OPLS-2005>
-334.424774169922

> <b_mmod_Minimization_Converged-OPLS-2005>
0

> <r_mmod_RMS_Derivative-OPLS-2005>
2.22883892059326

$$$$
82
                    3D
 Structure written by MMmdl.
164172  0  0  1  0            999 V2000
  -30.6569  -14.5729   20.5472 C   0  0  0  0  0  0
  -30.4329  -12.3617   19.4439 C   0  0  0  0  0  0
  -29.5040  -12.5067   18.2190 C   0  0  0  0  0  0
  -28.0256  -12.3529   18.6300 C   0  0  0  0  0  0
  -27.6564  -13.2129   19.8687 C   0  0  2  0  0  0
  -28.6988  -13.0402   20.9962 C   0  0  0  0  0  0
  -25.2572  -13.8160   20.5681 C   0  0  0  0  0  0
  -24.1834  -13.0433   20.9189 C   0  0  0  0  0  0
  -24.6403  -11.6901   20.8742 C   0  0  0  0  0  0
  -23.9070  -10.4284   21.0406 C   0  0  0  0  0  0
  -24.3621   -9.4203   21.9191 C   0  0  0  0  0  0
  -23.6297   -8.2239   22.0764 C   0  0  0  0  0  0
  -22.4278   -8.0280   21.3549 C   0  0  0  0  0  0
  -21.9910   -9.0253   20.4655 C   0  0  0  0  0  0
  -22.7241  -10.2131   20.3060 C   0  0  0  0  0  0
  -21.6853   -6.0738   22.5285 C   0  0  0  0  0  0
  -21.4012   -6.5643   23.8217 C   0  0  0  0  0  0
  -21.3657   -5.6799   24.9179 C   0  0  0  0  0  0
  -21.6041   -4.3058   24.7228 C   0  0  0  0  0  0
  -21.8819   -3.8149   23.4351 C   0  0  0  0  0  0
  -21.9193   -4.6967   22.3407 C   0  0  0  0  0  0
  -22.7859  -13.5228   21.1852 C   0  0  0  0  0  0
  -22.1662   -4.2149   21.0984 F   0  0  0  0  0  0
  -21.5626   -3.4544   25.7742 F   0  0  0  0  0  0
  -30.0191  -13.3693   20.4382 N   0  0  0  0  0  0
  -26.3006  -12.9340   20.3341 N   0  0  0  0  0  0
  -25.9328  -11.6498   20.5768 N   0  0  0  0  0  0
  -22.0507  -12.8208   22.0408 N   0  0  0  0  0  0
  -25.4289  -15.1884   20.4072 N   0  0  0  0  0  0
  -31.8036  -14.7471   20.1274 O   0  0  0  0  0  0
  -21.6643   -6.8880   21.4244 O   0  0  0  0  0  0
  -22.3544  -14.5539   20.6716 O   0  0  0  0  0  0
  -24.6221  -31.8618   23.2056 C   0  0  0  0  0  0
  -25.9083  -32.4795   23.8366 C   0  0  1  0  0  0
  -27.2256  -27.3607   20.1278 C   0  0  0  0  0  0
  -25.5907  -33.8592   24.2289 N   0  0  0  0  0  0
  -23.4138  -30.4865   21.5459 C   0  0  2  0  0  0
  -24.8632  -28.9430   20.1167 C   0  0  0  0  0  0
  -22.7446  -29.4647   22.4952 C   0  0  0  0  0  0
  -18.0291  -28.1379   22.8493 C   0  0  0  0  0  0
  -24.1494  -36.7300   23.2640 C   0  0  0  0  0  0
  -25.9515  -30.8066   21.3710 C   0  0  0  0  0  0
  -26.0288  -29.4353   20.7208 C   0  0  0  0  0  0
  -27.2185  -28.6542   20.7212 C   0  0  0  0  0  0
  -26.0466  -26.9108   19.4986 C   0  0  0  0  0  0
  -24.8703  -27.6822   19.4994 C   0  0  0  0  0  0
  -23.6280  -29.8170   20.1622 C   0  0  0  0  0  0
  -25.4108  -36.3090   24.0335 C   0  0  1  0  0  0
  -20.5886  -28.3676   23.1293 C   0  0  2  0  0  0
  -20.6781  -26.9402   22.5411 C   0  0  0  0  0  0
  -19.5754  -26.6376   21.5218 C   0  0  0  0  0  0
  -18.1933  -26.7928   22.1619 C   0  0  0  0  0  0
  -19.1541  -28.8842   23.2897 C   0  0  0  0  0  0
  -18.9461  -30.1454   23.8901 C   0  0  0  0  0  0
  -17.6461  -30.6584   24.0570 C   0  0  0  0  0  0
  -25.9038  -34.9456   23.5107 C   0  0  0  0  0  0
  -16.5354  -29.9080   23.6337 C   0  0  0  0  0  0
  -16.7280  -28.6500   23.0354 C   0  0  0  0  0  0
  -26.4483  -31.6592   25.0714 C   0  0  0  0  0  0
  -25.3738  -31.3712   26.1457 C   0  0  0  0  0  0
  -27.0316  -30.3026   24.6127 C   0  0  0  0  0  0
  -27.6049  -32.4325   25.7485 C   0  0  0  0  0  0
  -27.5578  -37.1802   24.8462 C   0  0  0  0  0  0
  -21.4169  -29.3043   22.3688 N   0  0  0  0  0  0
  -26.4286  -37.3781   23.9407 N   0  0  0  0  0  0
  -24.6808  -31.0673   22.0981 N   0  0  0  0  0  0
  -23.4200  -28.8188   23.2999 O   0  0  0  0  0  0
  -28.3265  -26.5129   20.0840 O   0  0  0  0  0  0
  -26.5604  -34.8924   22.4675 O   0  0  0  0  0  0
  -23.5392  -32.1377   23.7418 O   0  0  0  0  0  0
  -29.0930  -22.7972   20.9792 C   0  0  0  0  0  0
  -28.8442  -23.8422   19.0197 C   0  0  0  0  0  0
  -28.7776  -24.0706   20.3674 C   0  0  0  0  0  0
  -29.3585  -21.8466   20.0089 C   0  0  0  0  0  0
  -28.3787  -25.4155   20.9567 C   0  0  0  0  0  0
  -29.8229  -20.3918   20.0409 C   0  0  0  0  0  0
  -27.3249  -17.9781   15.1930 C   0  0  0  0  0  0
  -28.0059  -21.0254   17.1624 C   0  0  0  0  0  0
  -29.2289  -21.9201   17.4473 C   0  0  0  0  0  0
  -29.1051  -18.0046   20.4945 C   0  0  0  0  0  0
  -30.2389  -17.0686   21.0501 C   0  0  0  0  0  0
  -28.2859  -19.9231   16.1345 C   0  0  0  0  0  0
  -29.1616  -22.5055   18.7856 N   0  0  0  0  0  0
  -29.1668  -19.4716   20.7824 N   0  0  0  0  0  0
  -29.8999  -15.6136   20.9869 N   0  0  0  0  0  0
  -28.0669  -25.4999   22.1480 O   0  0  0  0  0  0
  -30.7337  -20.0270   19.2957 O   0  0  0  0  0  0
  -27.1121  -19.1357   15.9886 O   0  0  0  0  0  0
  -31.4761  -12.4765   19.1443 H   0  0  0  0  0  0
  -30.3553  -11.3604   19.8691 H   0  0  0  0  0  0
  -29.7599  -11.7635   17.4624 H   0  0  0  0  0  0
  -29.6555  -13.4831   17.7563 H   0  0  0  0  0  0
  -27.8513  -11.2977   18.8472 H   0  0  0  0  0  0
  -27.3733  -12.6000   17.7915 H   0  0  0  0  0  0
  -27.6847  -14.2532   19.5452 H   0  0  0  0  0  0
  -28.6968  -12.0127   21.3624 H   0  0  0  0  0  0
  -28.4506  -13.6601   21.8586 H   0  0  0  0  0  0
  -25.2769   -9.5678   22.4767 H   0  0  0  0  0  0
  -24.0009   -7.4624   22.7476 H   0  0  0  0  0  0
  -21.0847   -8.8769   19.8952 H   0  0  0  0  0  0
  -22.3709  -10.9670   19.6169 H   0  0  0  0  0  0
  -21.2003   -7.6153   23.9719 H   0  0  0  0  0  0
  -21.1478   -6.0531   25.9082 H   0  0  0  0  0  0
  -22.0599   -2.7611   23.2854 H   0  0  0  0  0  0
  -22.4129  -11.9858   22.4765 H   0  0  0  0  0  0
  -21.1133  -13.1229   22.2630 H   0  0  0  0  0  0
  -24.6568  -15.8395   20.5003 H   0  0  0  0  0  0
  -26.2704  -15.6210   20.0492 H   0  0  0  0  0  0
  -26.7147  -32.5486   23.1116 H   0  0  0  0  0  0
  -25.0093  -33.9742   25.0461 H   0  0  0  0  0  0
  -22.7073  -31.3073   21.4005 H   0  0  0  0  0  0
  -23.3757  -35.9634   23.3300 H   0  0  0  0  0  0
  -24.3590  -36.8918   22.2055 H   0  0  0  0  0  0
  -23.7251  -37.6502   23.6658 H   0  0  0  0  0  0
  -26.0756  -31.5692   20.6010 H   0  0  0  0  0  0
  -26.8351  -30.8588   21.9948 H   0  0  0  0  0  0
  -28.1168  -29.0281   21.1922 H   0  0  0  0  0  0
  -26.0337  -25.9421   19.0200 H   0  0  0  0  0  0
  -23.9771  -27.2972   19.0264 H   0  0  0  0  0  0
  -23.7428  -30.5894   19.4012 H   0  0  0  0  0  0
  -22.7508  -29.2397   19.8631 H   0  0  0  0  0  0
  -25.1300  -36.1938   25.0828 H   0  0  0  0  0  0
  -20.9988  -28.3246   24.1408 H   0  0  0  0  0  0
  -20.5693  -26.2281   23.3611 H   0  0  0  0  0  0
  -21.6648  -26.7444   22.1188 H   0  0  0  0  0  0
  -19.6916  -25.6289   21.1239 H   0  0  0  0  0  0
  -19.6694  -27.3200   20.6763 H   0  0  0  0  0  0
  -17.4205  -26.6700   21.4018 H   0  0  0  0  0  0
  -18.0319  -26.0065   22.9005 H   0  0  0  0  0  0
  -19.7943  -30.7274   24.2255 H   0  0  0  0  0  0
  -17.5018  -31.6271   24.5161 H   0  0  0  0  0  0
  -15.5353  -30.2985   23.7659 H   0  0  0  0  0  0
  -15.8683  -28.0826   22.7059 H   0  0  0  0  0  0
  -24.5917  -30.7054   25.7796 H   0  0  0  0  0  0
  -24.8936  -32.2878   26.4897 H   0  0  0  0  0  0
  -25.8089  -30.8887   27.0222 H   0  0  0  0  0  0
  -26.2865  -29.6783   24.1178 H   0  0  0  0  0  0
  -27.4068  -29.7268   25.4600 H   0  0  0  0  0  0
  -27.8719  -30.4332   23.9303 H   0  0  0  0  0  0
  -27.2651  -33.3630   26.2044 H   0  0  0  0  0  0
  -28.3866  -32.6866   25.0315 H   0  0  0  0  0  0
  -28.0696  -31.8455   26.5417 H   0  0  0  0  0  0
  -28.2592  -38.0104   24.7509 H   0  0  0  0  0  0
  -28.1084  -36.2633   24.6289 H   0  0  0  0  0  0
  -27.2299  -37.1444   25.8868 H   0  0  0  0  0  0
  -20.9327  -29.8768   21.6915 H   0  0  0  0  0  0
  -26.0176  -38.2861   24.1404 H   0  0  0  0  0  0
  -29.1397  -22.6068   22.0425 H   0  0  0  0  0  0
  -28.6605  -24.5158   18.1918 H   0  0  0  0  0  0
  -26.3976  -17.4100   15.1111 H   0  0  0  0  0  0
  -28.0740  -17.3227   15.6393 H   0  0  0  0  0  0
  -27.6472  -18.2391   14.1847 H   0  0  0  0  0  0
  -27.1751  -21.6479   16.8283 H   0  0  0  0  0  0
  -27.6672  -20.5459   18.0811 H   0  0  0  0  0  0
  -29.2823  -22.7186   16.7063 H   0  0  0  0  0  0
  -30.1629  -21.3704   17.3387 H   0  0  0  0  0  0
  -28.1502  -17.6632   20.8962 H   0  0  0  0  0  0
  -29.0272  -17.8619   19.4144 H   0  0  0  0  0  0
  -30.4284  -17.3129   22.0964 H   0  0  0  0  0  0
  -31.1708  -17.2692   20.5195 H   0  0  0  0  0  0
  -29.1112  -19.2997   16.4835 H   0  0  0  0  0  0
  -28.5766  -20.3514   15.1740 H   0  0  0  0  0  0
  -28.4505  -19.8356   21.3969 H   0  0  0  0  0  0
  -28.9717  -15.3614   21.2905 H   0  0  0  0  0  0
  1 25  1  0  0  0
  1 30  2  0  0  0
  1 85  1  0  0  0
  2  3  1  0  0  0
  2 25  1  0  0  0
  2 89  1  0  0  0
  2 90  1  0  0  0
  3  4  1  0  0  0
  3 91  1  0  0  0
  3 92  1  0  0  0
  4  5  1  0  0  0
  4 93  1  0  0  0
  4 94  1  0  0  0
  5  6  1  0  0  0
  5 26  1  0  0  0
  5 95  1  0  0  0
  6 25  1  0  0  0
  6 96  1  0  0  0
  6 97  1  0  0  0
  7  8  2  0  0  0
  7 26  1  0  0  0
  7 29  1  0  0  0
  8  9  1  0  0  0
  8 22  1  0  0  0
  9 10  1  0  0  0
  9 27  2  0  0  0
 10 11  2  0  0  0
 10 15  1  0  0  0
 11 12  1  0  0  0
 11 98  1  0  0  0
 12 13  2  0  0  0
 12 99  1  0  0  0
 13 14  1  0  0  0
 13 31  1  0  0  0
 14 15  2  0  0  0
 14100  1  0  0  0
 15101  1  0  0  0
 16 17  2  0  0  0
 16 21  1  0  0  0
 16 31  1  0  0  0
 17 18  1  0  0  0
 17102  1  0  0  0
 18 19  2  0  0  0
 18103  1  0  0  0
 19 20  1  0  0  0
 19 24  1  0  0  0
 20 21  2  0  0  0
 20104  1  0  0  0
 21 23  1  0  0  0
 22 28  1  0  0  0
 22 32  2  0  0  0
 26 27  1  0  0  0
 28105  1  0  0  0
 28106  1  0  0  0
 29107  1  0  0  0
 29108  1  0  0  0
 33 34  1  0  0  0
 33 66  1  0  0  0
 33 70  2  0  0  0
 34 36  1  0  0  0
 34 59  1  0  0  0
 34109  1  0  0  0
 35 44  2  0  0  0
 35 45  1  0  0  0
 35 68  1  0  0  0
 36 56  1  0  0  0
 36110  1  0  0  0
 37 39  1  0  0  0
 37 47  1  0  0  0
 37 66  1  0  0  0
 37111  1  0  0  0
 38 43  2  0  0  0
 38 46  1  0  0  0
 38 47  1  0  0  0
 39 64  1  0  0  0
 39 67  2  0  0  0
 40 52  1  0  0  0
 40 53  2  0  0  0
 40 58  1  0  0  0
 41112  1  0  0  0
 41113  1  0  0  0
 41114  1  0  0  0
 41 48  1  0  0  0
 42 43  1  0  0  0
 42 66  1  0  0  0
 42115  1  0  0  0
 42116  1  0  0  0
 43 44  1  0  0  0
 44117  1  0  0  0
 45 46  2  0  0  0
 45118  1  0  0  0
 46119  1  0  0  0
 47120  1  0  0  0
 47121  1  0  0  0
 48 56  1  0  0  0
 48 65  1  0  0  0
 48122  1  0  0  0
 49 50  1  0  0  0
 49 53  1  0  0  0
 49 64  1  0  0  0
 49123  1  0  0  0
 50 51  1  0  0  0
 50124  1  0  0  0
 50125  1  0  0  0
 51 52  1  0  0  0
 51126  1  0  0  0
 51127  1  0  0  0
 52128  1  0  0  0
 52129  1  0  0  0
 53 54  1  0  0  0
 54 55  2  0  0  0
 54130  1  0  0  0
 55 57  1  0  0  0
 55131  1  0  0  0
 56 69  2  0  0  0
 57 58  2  0  0  0
 57132  1  0  0  0
 58133  1  0  0  0
 59 60  1  0  0  0
 59 61  1  0  0  0
 59 62  1  0  0  0
 60134  1  0  0  0
 60135  1  0  0  0
 60136  1  0  0  0
 61137  1  0  0  0
 61138  1  0  0  0
 61139  1  0  0  0
 62140  1  0  0  0
 62141  1  0  0  0
 62142  1  0  0  0
 63 65  1  0  0  0
 63143  1  0  0  0
 63144  1  0  0  0
 63145  1  0  0  0
 64146  1  0  0  0
 65147  1  0  0  0
 68 75  1  0  0  0
 71 73  1  0  0  0
 71 74  2  0  0  0
 71148  1  0  0  0
 72 73  2  0  0  0
 72 83  1  0  0  0
 72149  1  0  0  0
 73 75  1  0  0  0
 74 76  1  0  0  0
 74 83  1  0  0  0
 75 86  2  0  0  0
 76 84  1  0  0  0
 76 87  2  0  0  0
 77 88  1  0  0  0
 77150  1  0  0  0
 77151  1  0  0  0
 77152  1  0  0  0
 78 79  1  0  0  0
 78 82  1  0  0  0
 78153  1  0  0  0
 78154  1  0  0  0
 79 83  1  0  0  0
 79155  1  0  0  0
 79156  1  0  0  0
 80 81  1  0  0  0
 80 84  1  0  0  0
 80157  1  0  0  0
 80158  1  0  0  0
 81 85  1  0  0  0
 81159  1  0  0  0
 81160  1  0  0  0
 82 88  1  0  0  0
 82161  1  0  0  0
 82162  1  0  0  0
 84163  1  0  0  0
 85164  1  0  0  0
M  ISO  4   1 100  68 101  75 101  85 100
M  END
> <chiral flag>
0

> <version>
0

> <s_m_source_file>
/data/baiqing/PycharmProjects/Reinvent-master-3.2/result/LINK_invent/BTK/process_docking_weight1_custom_product_contain_oxygen_bond_distance_aromatic_linkinvent_7_9_3/rearranged_h_0000.sdf

> <i_m_source_file_index>
83

> <r_mmod_Potential_Energy-OPLS-2005>
-71.1573791503906

> <r_mmod_Stretch_Energy-OPLS-2005>
61.4947509765625

> <r_mmod_Bend_Energy-OPLS-2005>
113.093406677246

> <r_mmod_Torsional_Energy-OPLS-2005>
264.146789550781

> <r_mmod_Improper_Torsional_Energy-OPLS-2005>
6.16975927352905

> <r_mmod_Van_der_Waal_Energy-OPLS-2005>
118.131072998047

> <r_mmod_Electrostatic_Energy-OPLS-2005>
-406.268280029297

> <r_mmod_Solvation_Energy-OPLS-2005>
-258.829711914062

> <b_mmod_Minimization_Converged-OPLS-2005>
0

> <r_mmod_RMS_Derivative-OPLS-2005>
1.6584769487381

$$$$
83
                    3D
 Structure written by MMmdl.
181188  0  0  1  0            999 V2000
  -30.7713  -14.3459   20.6968 C   0  0  0  0  0  0
  -30.4152  -12.2868   19.3853 C   0  0  0  0  0  0
  -29.4787  -12.5301   18.1872 C   0  0  0  0  0  0
  -28.0042  -12.3837   18.6060 C   0  0  0  0  0  0
  -27.6659  -13.2004   19.8803 C   0  0  2  0  0  0
  -28.7039  -12.9321   20.9918 C   0  0  0  0  0  0
  -25.2613  -13.8125   20.5677 C   0  0  0  0  0  0
  -24.1839  -13.0422   20.9147 C   0  0  0  0  0  0
  -24.6383  -11.6883   20.8704 C   0  0  0  0  0  0
  -23.9042  -10.4285   21.0390 C   0  0  0  0  0  0
  -24.3602   -9.4208   21.9176 C   0  0  0  0  0  0
  -23.6286   -8.2243   22.0753 C   0  0  0  0  0  0
  -22.4274   -8.0275   21.3539 C   0  0  0  0  0  0
  -21.9897   -9.0238   20.4640 C   0  0  0  0  0  0
  -22.7213  -10.2121   20.3047 C   0  0  0  0  0  0
  -21.6849   -6.0730   22.5276 C   0  0  0  0  0  0
  -21.4013   -6.5634   23.8209 C   0  0  0  0  0  0
  -21.3655   -5.6789   24.9171 C   0  0  0  0  0  0
  -21.6051   -4.3057   24.7224 C   0  0  0  0  0  0
  -21.8815   -3.8145   23.4348 C   0  0  0  0  0  0
  -21.9192   -4.6959   22.3408 C   0  0  0  0  0  0
  -22.7876  -13.5244   21.1831 C   0  0  0  0  0  0
  -22.1661   -4.2150   21.0987 F   0  0  0  0  0  0
  -21.5628   -3.4547   25.7735 F   0  0  0  0  0  0
  -30.0487  -13.2224   20.4578 N   0  0  0  0  0  0
  -26.3045  -12.9294   20.3387 N   0  0  0  0  0  0
  -25.9314  -11.6454   20.5747 N   0  0  0  0  0  0
  -22.0506  -12.8235   22.0375 N   0  0  0  0  0  0
  -25.4358  -15.1830   20.4111 N   0  0  0  0  0  0
  -31.7782  -14.6607   20.0578 O   0  0  0  0  0  0
  -21.6635   -6.8877   21.4243 O   0  0  0  0  0  0
  -22.3566  -14.5563   20.6698 O   0  0  0  0  0  0
  -24.6084  -31.8703   23.2097 C   0  0  0  0  0  0
  -25.9003  -32.4830   23.8376 C   0  0  1  0  0  0
  -27.2452  -27.4687   20.0947 C   0  0  0  0  0  0
  -25.5887  -33.8634   24.2307 N   0  0  0  0  0  0
  -23.3923  -30.4924   21.5511 C   0  0  2  0  0  0
  -24.8402  -28.9599   20.1117 C   0  0  0  0  0  0
  -22.7376  -29.4667   22.5019 C   0  0  0  0  0  0
  -18.0294  -28.1325   22.8468 C   0  0  0  0  0  0
  -24.1512  -36.7292   23.2646 C   0  0  0  0  0  0
  -25.9159  -30.8489   21.3567 C   0  0  0  0  0  0
  -25.9972  -29.4866   20.7012 C   0  0  0  0  0  0
  -27.1987  -28.7500   20.6828 C   0  0  0  0  0  0
  -26.0707  -26.9448   19.5046 C   0  0  0  0  0  0
  -24.8729  -27.6867   19.5108 C   0  0  0  0  0  0
  -23.5947  -29.8185   20.1658 C   0  0  0  0  0  0
  -25.4127  -36.3104   24.0354 C   0  0  1  0  0  0
  -20.5877  -28.3605   23.1329 C   0  0  2  0  0  0
  -20.6785  -26.9352   22.5413 C   0  0  0  0  0  0
  -19.5766  -26.6348   21.5196 C   0  0  0  0  0  0
  -18.1933  -26.7861   22.1608 C   0  0  0  0  0  0
  -19.1544  -28.8778   23.2888 C   0  0  0  0  0  0
  -18.9473  -30.1393   23.8890 C   0  0  0  0  0  0
  -17.6472  -30.6540   24.0542 C   0  0  0  0  0  0
  -25.9054  -34.9488   23.5120 C   0  0  0  0  0  0
  -16.5368  -29.9028   23.6324 C   0  0  0  0  0  0
  -16.7284  -28.6461   23.0310 C   0  0  0  0  0  0
  -26.4434  -31.6609   25.0697 C   0  0  0  0  0  0
  -25.3702  -31.3737   26.1451 C   0  0  0  0  0  0
  -27.0248  -30.3065   24.6022 C   0  0  0  0  0  0
  -27.5988  -32.4330   25.7470 C   0  0  0  0  0  0
  -27.5597  -37.1796   24.8465 C   0  0  0  0  0  0
  -21.4123  -29.2984   22.3743 N   0  0  0  0  0  0
  -26.4319  -37.3772   23.9415 N   0  0  0  0  0  0
  -24.6576  -31.0834   22.0989 N   0  0  0  0  0  0
  -23.4178  -28.8251   23.3054 O   0  0  0  0  0  0
  -28.4452  -26.7936   20.1198 O   0  0  0  0  0  0
  -26.5612  -34.8936   22.4678 O   0  0  0  0  0  0
  -23.5290  -32.1462   23.7531 O   0  0  0  0  0  0
  -30.9350  -16.3370   22.1856 C   0  0  0  0  0  0
  -28.5742  -19.5404   24.8289 C   0  0  0  0  0  0
  -26.1577  -19.1469   25.3142 C   0  0  0  0  0  0
  -30.6228  -17.4982   21.2278 C   0  0  0  0  0  0
  -29.5138  -20.4440   24.0215 C   0  0  0  0  0  0
  -24.7583  -19.2610   24.6984 C   0  0  0  0  0  0
  -28.4415  -25.3662   20.1445 C   0  0  0  0  0  0
  -27.6913  -24.7835   21.3638 C   0  0  0  0  0  0
  -28.8277  -18.6373   20.1860 C   0  0  0  0  0  0
  -29.9133  -22.7174   23.5182 C   0  0  0  0  0  0
  -24.5804  -19.5761   22.3370 C   0  0  0  0  0  0
  -27.3035  -18.6154   20.0180 C   0  0  0  0  0  0
  -29.1838  -23.9828   23.0472 C   0  0  0  0  0  0
  -25.2338  -19.0126   21.0710 C   0  0  0  0  0  0
  -30.3428  -15.0823   21.7257 N   0  0  0  0  0  0
  -27.1700  -19.7770   24.4355 N   0  3  0  0  0  0
  -29.2123  -17.6128   21.0937 O   0  0  0  0  0  0
  -28.9823  -21.7652   24.0251 O   0  0  0  0  0  0
  -24.8444  -18.6748   23.4043 O   0  0  0  0  0  0
  -28.3681  -23.6603   21.9257 O   0  0  0  0  0  0
  -26.6528  -19.0993   21.1909 O   0  0  0  0  0  0
  -31.4566  -12.3926   19.0770 H   0  0  0  0  0  0
  -30.3159  -11.2602   19.7417 H   0  0  0  0  0  0
  -29.7070  -11.8318   17.3803 H   0  0  0  0  0  0
  -29.6479  -13.5301   17.7839 H   0  0  0  0  0  0
  -27.8085  -11.3248   18.7795 H   0  0  0  0  0  0
  -27.3502  -12.6827   17.7856 H   0  0  0  0  0  0
  -27.7273  -14.2559   19.6149 H   0  0  0  0  0  0
  -28.6612  -11.8859   21.2983 H   0  0  0  0  0  0
  -28.4486  -13.5020   21.8855 H   0  0  0  0  0  0
  -25.2747   -9.5687   22.4743 H   0  0  0  0  0  0
  -23.9994   -7.4639   22.7473 H   0  0  0  0  0  0
  -21.0834   -8.8752   19.8944 H   0  0  0  0  0  0
  -22.3676  -10.9657   19.6156 H   0  0  0  0  0  0
  -21.2003   -7.6136   23.9710 H   0  0  0  0  0  0
  -21.1484   -6.0522   25.9072 H   0  0  0  0  0  0
  -22.0598   -2.7609   23.2849 H   0  0  0  0  0  0
  -22.4099  -11.9874   22.4743 H   0  0  0  0  0  0
  -21.1130  -13.1266   22.2592 H   0  0  0  0  0  0
  -24.6764  -15.8410   20.5363 H   0  0  0  0  0  0
  -26.3127  -15.6171   20.1558 H   0  0  0  0  0  0
  -26.7071  -32.5574   23.1157 H   0  0  0  0  0  0
  -25.0023  -33.9784   25.0432 H   0  0  0  0  0  0
  -22.6807  -31.3099   21.4132 H   0  0  0  0  0  0
  -23.3783  -35.9613   23.3316 H   0  0  0  0  0  0
  -24.3614  -36.8902   22.2055 H   0  0  0  0  0  0
  -23.7254  -37.6507   23.6649 H   0  0  0  0  0  0
  -26.0224  -31.6262   20.5998 H   0  0  0  0  0  0
  -26.8053  -30.8962   21.9741 H   0  0  0  0  0  0
  -28.0917  -29.1549   21.1375 H   0  0  0  0  0  0
  -26.0739  -25.9750   19.0326 H   0  0  0  0  0  0
  -23.9874  -27.2705   19.0494 H   0  0  0  0  0  0
  -23.6819  -30.5953   19.4035 H   0  0  0  0  0  0
  -22.7192  -29.2305   19.8806 H   0  0  0  0  0  0
  -25.1304  -36.1977   25.0850 H   0  0  0  0  0  0
  -20.9969  -28.3175   24.1456 H   0  0  0  0  0  0
  -20.5707  -26.2211   23.3595 H   0  0  0  0  0  0
  -21.6646  -26.7419   22.1197 H   0  0  0  0  0  0
  -19.6951  -25.6267   21.1204 H   0  0  0  0  0  0
  -19.6716  -27.3190   20.6742 H   0  0  0  0  0  0
  -17.4213  -26.6644   21.4000 H   0  0  0  0  0  0
  -18.0325  -26.0001   22.9000 H   0  0  0  0  0  0
  -19.7970  -30.7175   24.2289 H   0  0  0  0  0  0
  -17.5045  -31.6245   24.5077 H   0  0  0  0  0  0
  -15.5357  -30.2885   23.7667 H   0  0  0  0  0  0
  -15.8709  -28.0779   22.6957 H   0  0  0  0  0  0
  -24.5865  -30.7085   25.7820 H   0  0  0  0  0  0
  -24.8883  -32.2899   26.4876 H   0  0  0  0  0  0
  -25.8038  -30.8943   27.0223 H   0  0  0  0  0  0
  -26.2780  -29.6879   24.1041 H   0  0  0  0  0  0
  -27.4014  -29.7254   25.4439 H   0  0  0  0  0  0
  -27.8608  -30.4420   23.9155 H   0  0  0  0  0  0
  -27.2595  -33.3639   26.2030 H   0  0  0  0  0  0
  -28.3809  -32.6895   25.0310 H   0  0  0  0  0  0
  -28.0625  -31.8465   26.5411 H   0  0  0  0  0  0
  -28.2589  -38.0111   24.7513 H   0  0  0  0  0  0
  -28.1119  -36.2642   24.6287 H   0  0  0  0  0  0
  -27.2306  -37.1424   25.8863 H   0  0  0  0  0  0
  -20.9270  -29.8675   21.6956 H   0  0  0  0  0  0
  -26.0231  -38.2871   24.1371 H   0  0  0  0  0  0
  -30.5376  -16.5624   23.1757 H   0  0  0  0  0  0
  -32.0144  -16.2233   22.3035 H   0  0  0  0  0  0
  -28.7034  -19.7418   25.8929 H   0  0  0  0  0  0
  -28.8310  -18.4920   24.6651 H   0  0  0  0  0  0
  -26.4041  -18.0937   25.4525 H   0  0  0  0  0  0
  -26.1707  -19.6078   26.3016 H   0  0  0  0  0  0
  -31.0911  -17.3258   20.2570 H   0  0  0  0  0  0
  -31.0391  -18.4266   21.6230 H   0  0  0  0  0  0
  -29.5940  -20.0889   22.9935 H   0  0  0  0  0  0
  -30.5140  -20.4105   24.4567 H   0  0  0  0  0  0
  -24.4129  -20.2970   24.6795 H   0  0  0  0  0  0
  -24.0383  -18.7040   25.2971 H   0  0  0  0  0  0
  -28.0786  -24.9464   19.2079 H   0  0  0  0  0  0
  -29.4912  -25.0783   20.2052 H   0  0  0  0  0  0
  -26.7025  -24.4612   21.0405 H   0  0  0  0  0  0
  -27.5204  -25.5490   22.1234 H   0  0  0  0  0  0
  -29.1707  -19.6161   20.5242 H   0  0  0  0  0  0
  -29.2913  -18.4523   19.2152 H   0  0  0  0  0  0
  -30.6098  -22.9672   24.3201 H   0  0  0  0  0  0
  -30.4998  -22.3097   22.6922 H   0  0  0  0  0  0
  -23.5010  -19.6694   22.2061 H   0  0  0  0  0  0
  -24.9732  -20.5758   22.5319 H   0  0  0  0  0  0
  -26.9785  -17.6011   19.7841 H   0  0  0  0  0  0
  -27.0285  -19.2419   19.1684 H   0  0  0  0  0  0
  -29.9163  -24.7423   22.7664 H   0  0  0  0  0  0
  -28.5828  -24.3955   23.8569 H   0  0  0  0  0  0
  -24.8972  -19.5850   20.2050 H   0  0  0  0  0  0
  -24.9206  -17.9786   20.9194 H   0  0  0  0  0  0
  -29.5217  -14.7537   22.2102 H   0  0  0  0  0  0
  -27.0282  -19.4319   23.4949 H   0  0  0  0  0  0
  -27.0317  -20.7789   24.4146 H   0  0  0  0  0  0
  1 25  1  0  0  0
  1 30  2  0  0  0
  1 85  1  0  0  0
  2  3  1  0  0  0
  2 25  1  0  0  0
  2 92  1  0  0  0
  2 93  1  0  0  0
  3  4  1  0  0  0
  3 94  1  0  0  0
  3 95  1  0  0  0
  4  5  1  0  0  0
  4 96  1  0  0  0
  4 97  1  0  0  0
  5  6  1  0  0  0
  5 26  1  0  0  0
  5 98  1  0  0  0
  6 25  1  0  0  0
  6 99  1  0  0  0
  6100  1  0  0  0
  7  8  2  0  0  0
  7 26  1  0  0  0
  7 29  1  0  0  0
  8  9  1  0  0  0
  8 22  1  0  0  0
  9 10  1  0  0  0
  9 27  2  0  0  0
 10 11  2  0  0  0
 10 15  1  0  0  0
 11 12  1  0  0  0
 11101  1  0  0  0
 12 13  2  0  0  0
 12102  1  0  0  0
 13 14  1  0  0  0
 13 31  1  0  0  0
 14 15  2  0  0  0
 14103  1  0  0  0
 15104  1  0  0  0
 16 17  2  0  0  0
 16 21  1  0  0  0
 16 31  1  0  0  0
 17 18  1  0  0  0
 17105  1  0  0  0
 18 19  2  0  0  0
 18106  1  0  0  0
 19 20  1  0  0  0
 19 24  1  0  0  0
 20 21  2  0  0  0
 20107  1  0  0  0
 21 23  1  0  0  0
 22 28  1  0  0  0
 22 32  2  0  0  0
 26 27  1  0  0  0
 28108  1  0  0  0
 28109  1  0  0  0
 29110  1  0  0  0
 29111  1  0  0  0
 33 34  1  0  0  0
 33 66  1  0  0  0
 33 70  2  0  0  0
 34 36  1  0  0  0
 34 59  1  0  0  0
 34112  1  0  0  0
 35 44  2  0  0  0
 35 45  1  0  0  0
 35 68  1  0  0  0
 36 56  1  0  0  0
 36113  1  0  0  0
 37 39  1  0  0  0
 37 47  1  0  0  0
 37 66  1  0  0  0
 37114  1  0  0  0
 38 43  2  0  0  0
 38 46  1  0  0  0
 38 47  1  0  0  0
 39 64  1  0  0  0
 39 67  2  0  0  0
 40 52  1  0  0  0
 40 53  2  0  0  0
 40 58  1  0  0  0
 41115  1  0  0  0
 41116  1  0  0  0
 41117  1  0  0  0
 41 48  1  0  0  0
 42 43  1  0  0  0
 42 66  1  0  0  0
 42118  1  0  0  0
 42119  1  0  0  0
 43 44  1  0  0  0
 44120  1  0  0  0
 45 46  2  0  0  0
 45121  1  0  0  0
 46122  1  0  0  0
 47123  1  0  0  0
 47124  1  0  0  0
 48 56  1  0  0  0
 48 65  1  0  0  0
 48125  1  0  0  0
 49 50  1  0  0  0
 49 53  1  0  0  0
 49 64  1  0  0  0
 49126  1  0  0  0
 50 51  1  0  0  0
 50127  1  0  0  0
 50128  1  0  0  0
 51 52  1  0  0  0
 51129  1  0  0  0
 51130  1  0  0  0
 52131  1  0  0  0
 52132  1  0  0  0
 53 54  1  0  0  0
 54 55  2  0  0  0
 54133  1  0  0  0
 55 57  1  0  0  0
 55134  1  0  0  0
 56 69  2  0  0  0
 57 58  2  0  0  0
 57135  1  0  0  0
 58136  1  0  0  0
 59 60  1  0  0  0
 59 61  1  0  0  0
 59 62  1  0  0  0
 60137  1  0  0  0
 60138  1  0  0  0
 60139  1  0  0  0
 61140  1  0  0  0
 61141  1  0  0  0
 61142  1  0  0  0
 62143  1  0  0  0
 62144  1  0  0  0
 62145  1  0  0  0
 63 65  1  0  0  0
 63146  1  0  0  0
 63147  1  0  0  0
 63148  1  0  0  0
 64149  1  0  0  0
 65150  1  0  0  0
 68 77  1  0  0  0
 71 74  1  0  0  0
 71 85  1  0  0  0
 71151  1  0  0  0
 71152  1  0  0  0
 72 75  1  0  0  0
 72 86  1  0  0  0
 72153  1  0  0  0
 72154  1  0  0  0
 73 76  1  0  0  0
 73 86  1  0  0  0
 73155  1  0  0  0
 73156  1  0  0  0
 74 87  1  0  0  0
 74157  1  0  0  0
 74158  1  0  0  0
 75 88  1  0  0  0
 75159  1  0  0  0
 75160  1  0  0  0
 76 89  1  0  0  0
 76161  1  0  0  0
 76162  1  0  0  0
 77 78  1  0  0  0
 77163  1  0  0  0
 77164  1  0  0  0
 78 90  1  0  0  0
 78165  1  0  0  0
 78166  1  0  0  0
 79 82  1  0  0  0
 79 87  1  0  0  0
 79167  1  0  0  0
 79168  1  0  0  0
 80 83  1  0  0  0
 80 88  1  0  0  0
 80169  1  0  0  0
 80170  1  0  0  0
 81 84  1  0  0  0
 81 89  1  0  0  0
 81171  1  0  0  0
 81172  1  0  0  0
 82 91  1  0  0  0
 82173  1  0  0  0
 82174  1  0  0  0
 83 90  1  0  0  0
 83175  1  0  0  0
 83176  1  0  0  0
 84 91  1  0  0  0
 84177  1  0  0  0
 84178  1  0  0  0
 85179  1  0  0  0
 86180  1  0  0  0
 86181  1  0  0  0
M  CHG  1  86   1
M  ISO  4   1 100  68 101  77 101  85 100
M  END
> <chiral flag>
0

> <version>
0

> <s_m_source_file>
/data/baiqing/PycharmProjects/Reinvent-master-3.2/result/LINK_invent/BTK/process_docking_weight1_custom_product_contain_oxygen_bond_distance_aromatic_linkinvent_7_9_3/rearranged_h_0000.sdf

> <i_m_source_file_index>
84

> <r_mmod_Potential_Energy-OPLS-2005>
-275.236602783203

> <r_mmod_Stretch_Energy-OPLS-2005>
32.3227615356445

> <r_mmod_Bend_Energy-OPLS-2005>
98.5624008178711

> <r_mmod_Torsional_Energy-OPLS-2005>
228.409286499023

> <r_mmod_Improper_Torsional_Energy-OPLS-2005>
1.6891998052597

> <r_mmod_Van_der_Waal_Energy-OPLS-2005>
122.385116577148

> <r_mmod_Electrostatic_Energy-OPLS-2005>
-369.146423339844

> <r_mmod_Solvation_Energy-OPLS-2005>
-397.497528076172

> <b_mmod_Minimization_Converged-OPLS-2005>
0

> <r_mmod_RMS_Derivative-OPLS-2005>
3.6202700138092

$$$$
84
                    3D
 Structure written by MMmdl.
163171  0  0  1  0            999 V2000
  -30.7699  -14.3883   20.6489 C   0  0  0  0  0  0
  -30.4141  -12.2764   19.3841 C   0  0  0  0  0  0
  -29.4774  -12.5190   18.1870 C   0  0  0  0  0  0
  -28.0026  -12.3790   18.6111 C   0  0  0  0  0  0
  -27.6624  -13.2037   19.8813 C   0  0  2  0  0  0
  -28.6988  -12.9510   20.9977 C   0  0  0  0  0  0
  -25.2587  -13.8168   20.5713 C   0  0  0  0  0  0
  -24.1824  -13.0455   20.9179 C   0  0  0  0  0  0
  -24.6364  -11.6914   20.8736 C   0  0  0  0  0  0
  -23.9029  -10.4303   21.0410 C   0  0  0  0  0  0
  -24.3587   -9.4218   21.9188 C   0  0  0  0  0  0
  -23.6275   -8.2245   22.0755 C   0  0  0  0  0  0
  -22.4258   -8.0279   21.3545 C   0  0  0  0  0  0
  -21.9885   -9.0253   20.4649 C   0  0  0  0  0  0
  -22.7203  -10.2135   20.3063 C   0  0  0  0  0  0
  -21.6853   -6.0726   22.5273 C   0  0  0  0  0  0
  -21.4015   -6.5634   23.8209 C   0  0  0  0  0  0
  -21.3665   -5.6789   24.9169 C   0  0  0  0  0  0
  -21.6047   -4.3052   24.7219 C   0  0  0  0  0  0
  -21.8821   -3.8138   23.4343 C   0  0  0  0  0  0
  -21.9193   -4.6953   22.3397 C   0  0  0  0  0  0
  -22.7841  -13.5259   21.1839 C   0  0  0  0  0  0
  -22.1661   -4.2136   21.0974 F   0  0  0  0  0  0
  -21.5626   -3.4542   25.7737 F   0  0  0  0  0  0
  -30.0342  -13.2156   20.4419 N   0  0  0  0  0  0
  -26.3017  -12.9334   20.3405 N   0  0  0  0  0  0
  -25.9284  -11.6487   20.5756 N   0  0  0  0  0  0
  -22.0462  -12.8273   22.0391 N   0  0  0  0  0  0
  -25.4340  -15.1883   20.4153 N   0  0  0  0  0  0
  -31.8310  -14.6720   20.0877 O   0  0  0  0  0  0
  -21.6631   -6.8870   21.4237 O   0  0  0  0  0  0
  -22.3526  -14.5563   20.6680 O   0  0  0  0  0  0
  -24.6125  -31.8693   23.2119 C   0  0  0  0  0  0
  -25.9029  -32.4827   23.8398 C   0  0  1  0  0  0
  -27.2355  -27.4594   20.0803 C   0  0  0  0  0  0
  -25.5893  -33.8624   24.2337 N   0  0  0  0  0  0
  -23.3968  -30.4945   21.5530 C   0  0  2  0  0  0
  -24.8407  -28.9611   20.1157 C   0  0  0  0  0  0
  -22.7380  -29.4680   22.5017 C   0  0  0  0  0  0
  -18.0266  -28.1359   22.8496 C   0  0  0  0  0  0
  -24.1489  -36.7318   23.2633 C   0  0  0  0  0  0
  -25.9229  -30.8403   21.3609 C   0  0  0  0  0  0
  -25.9988  -29.4770   20.7082 C   0  0  0  0  0  0
  -27.1966  -28.7326   20.6884 C   0  0  0  0  0  0
  -26.0568  -26.9503   19.4866 C   0  0  0  0  0  0
  -24.8625  -27.6950   19.5055 C   0  0  0  0  0  0
  -23.6022  -29.8253   20.1679 C   0  0  0  0  0  0
  -25.4109  -36.3116   24.0336 C   0  0  1  0  0  0
  -20.5851  -28.3668   23.1327 C   0  0  2  0  0  0
  -20.6773  -26.9397   22.5465 C   0  0  0  0  0  0
  -19.5771  -26.6352   21.5254 C   0  0  0  0  0  0
  -18.1938  -26.7897   22.1646 C   0  0  0  0  0  0
  -19.1509  -28.8835   23.2893 C   0  0  0  0  0  0
  -18.9438  -30.1443   23.8898 C   0  0  0  0  0  0
  -17.6445  -30.6585   24.0546 C   0  0  0  0  0  0
  -25.9029  -34.9477   23.5133 C   0  0  0  0  0  0
  -16.5337  -29.9086   23.6307 C   0  0  0  0  0  0
  -16.7254  -28.6490   23.0343 C   0  0  0  0  0  0
  -26.4464  -31.6596   25.0714 C   0  0  0  0  0  0
  -25.3740  -31.3707   26.1475 C   0  0  0  0  0  0
  -27.0292  -30.3043   24.6060 C   0  0  0  0  0  0
  -27.6049  -32.4319   25.7464 C   0  0  0  0  0  0
  -27.5582  -37.1811   24.8459 C   0  0  0  0  0  0
  -21.4116  -29.3026   22.3726 N   0  0  0  0  0  0
  -26.4294  -37.3799   23.9401 N   0  0  0  0  0  0
  -24.6624  -31.0811   22.1012 N   0  0  0  0  0  0
  -23.4159  -28.8240   23.3066 O   0  0  0  0  0  0
  -28.4367  -26.7862   20.0802 O   0  0  0  0  0  0
  -26.5587  -34.8920   22.4694 O   0  0  0  0  0  0
  -23.5327  -32.1443   23.7526 O   0  0  0  0  0  0
  -26.5222  -20.0517   18.9084 C   0  0  0  0  0  0
  -27.1372  -19.1458   19.7962 C   0  0  0  0  0  0
  -25.7827  -21.1415   19.4075 C   0  0  0  0  0  0
  -26.2538  -20.4096   21.6832 C   0  0  0  0  0  0
  -27.0177  -19.3270   21.1937 C   0  0  0  0  0  0
  -25.6477  -21.3257   20.7987 C   0  0  0  0  0  0
  -27.6828  -18.3931   22.1653 C   0  0  0  0  0  0
  -24.8896  -22.5208   21.3554 C   0  0  0  0  0  0
  -29.8266  -17.2786   22.7085 C   0  0  0  0  0  0
  -25.8398  -23.6281   21.8350 C   0  0  0  0  0  0
  -30.8094  -16.3946   21.9370 C   0  0  0  0  0  0
  -28.4634  -25.3756   19.8629 C   0  0  0  0  0  0
  -27.8617  -24.5935   21.0457 C   0  0  0  0  0  0
  -28.8944  -17.9545   21.8099 N   0  0  0  0  0  0
  -27.1741  -18.1476   23.2609 O   0  0  0  0  0  0
  -30.1608  -15.1990   21.5284 O   0  0  0  0  0  0
  -26.5526  -24.1484   20.7205 O   0  0  0  0  0  0
  -31.4569  -12.3905   19.0801 H   0  0  0  0  0  0
  -30.3168  -11.2522   19.7473 H   0  0  0  0  0  0
  -29.7034  -11.8169   17.3834 H   0  0  0  0  0  0
  -29.6469  -13.5174   17.7809 H   0  0  0  0  0  0
  -27.8083  -11.3216   18.7934 H   0  0  0  0  0  0
  -27.3443  -12.6690   17.7913 H   0  0  0  0  0  0
  -27.7209  -14.2572   19.6060 H   0  0  0  0  0  0
  -28.6512  -11.9137   21.3315 H   0  0  0  0  0  0
  -28.4676  -13.5500   21.8787 H   0  0  0  0  0  0
  -25.2727   -9.5695   22.4769 H   0  0  0  0  0  0
  -23.9982   -7.4630   22.7475 H   0  0  0  0  0  0
  -21.0818   -8.8767   19.8958 H   0  0  0  0  0  0
  -22.3658  -10.9671   19.6176 H   0  0  0  0  0  0
  -21.2008   -7.6143   23.9713 H   0  0  0  0  0  0
  -21.1489   -6.0511   25.9074 H   0  0  0  0  0  0
  -22.0598   -2.7599   23.2834 H   0  0  0  0  0  0
  -22.4041  -11.9939   22.4820 H   0  0  0  0  0  0
  -21.1091  -13.1341   22.2586 H   0  0  0  0  0  0
  -24.6784  -15.8525   20.5411 H   0  0  0  0  0  0
  -26.3052  -15.6217   20.1383 H   0  0  0  0  0  0
  -26.7096  -32.5545   23.1158 H   0  0  0  0  0  0
  -25.0073  -33.9793   25.0498 H   0  0  0  0  0  0
  -22.6844  -31.3111   21.4149 H   0  0  0  0  0  0
  -23.3745  -35.9658   23.3314 H   0  0  0  0  0  0
  -24.3576  -36.8918   22.2045 H   0  0  0  0  0  0
  -23.7246  -37.6530   23.6635 H   0  0  0  0  0  0
  -26.0290  -31.6062   20.5915 H   0  0  0  0  0  0
  -26.8140  -30.8952   21.9749 H   0  0  0  0  0  0
  -28.0925  -29.1313   21.1429 H   0  0  0  0  0  0
  -26.0405  -25.9875   18.9991 H   0  0  0  0  0  0
  -23.9715  -27.2929   19.0433 H   0  0  0  0  0  0
  -23.7058  -30.5992   19.4056 H   0  0  0  0  0  0
  -22.7265  -29.2419   19.8780 H   0  0  0  0  0  0
  -25.1289  -36.1991   25.0829 H   0  0  0  0  0  0
  -20.9927  -28.3269   24.1449 H   0  0  0  0  0  0
  -20.5667  -26.2300   23.3680 H   0  0  0  0  0  0
  -21.6656  -26.7447   22.1266 H   0  0  0  0  0  0
  -19.6726  -27.3177   20.6798 H   0  0  0  0  0  0
  -19.6958  -25.6263   21.1287 H   0  0  0  0  0  0
  -17.4202  -26.6585   21.4063 H   0  0  0  0  0  0
  -18.0352  -26.0056   22.9056 H   0  0  0  0  0  0
  -19.7918  -30.7258   24.2258 H   0  0  0  0  0  0
  -17.5002  -31.6270   24.5135 H   0  0  0  0  0  0
  -15.5338  -30.2998   23.7616 H   0  0  0  0  0  0
  -15.8646  -28.0815   22.7067 H   0  0  0  0  0  0
  -24.5890  -30.7076   25.7810 H   0  0  0  0  0  0
  -24.8953  -32.2875   26.4935 H   0  0  0  0  0  0
  -25.8097  -30.8860   27.0219 H   0  0  0  0  0  0
  -26.2829  -29.6800   24.1129 H   0  0  0  0  0  0
  -27.4101  -29.7274   25.4494 H   0  0  0  0  0  0
  -27.8642  -30.4372   23.9176 H   0  0  0  0  0  0
  -27.2667  -33.3600   26.2082 H   0  0  0  0  0  0
  -28.3824  -32.6917   25.0268 H   0  0  0  0  0  0
  -28.0745  -31.8419   26.5343 H   0  0  0  0  0  0
  -28.2614  -38.0097   24.7506 H   0  0  0  0  0  0
  -28.1071  -36.2632   24.6299 H   0  0  0  0  0  0
  -27.2290  -37.1477   25.8858 H   0  0  0  0  0  0
  -20.9279  -29.8707   21.6916 H   0  0  0  0  0  0
  -26.0193  -38.2880   24.1406 H   0  0  0  0  0  0
  -26.6240  -19.9156   17.8404 H   0  0  0  0  0  0
  -27.7018  -18.3162   19.3933 H   0  0  0  0  0  0
  -25.3301  -21.8421   18.7194 H   0  0  0  0  0  0
  -26.1576  -20.5556   22.7506 H   0  0  0  0  0  0
  -24.2671  -22.1864   22.1863 H   0  0  0  0  0  0
  -24.2056  -22.9145   20.6023 H   0  0  0  0  0  0
  -30.3849  -18.0468   23.2451 H   0  0  0  0  0  0
  -29.3093  -16.6870   23.4655 H   0  0  0  0  0  0
  -26.5164  -23.2172   22.5878 H   0  0  0  0  0  0
  -25.2863  -24.4380   22.3122 H   0  0  0  0  0  0
  -31.6472  -16.1297   22.5823 H   0  0  0  0  0  0
  -31.2196  -16.9393   21.0848 H   0  0  0  0  0  0
  -28.0314  -25.0841   18.9051 H   0  0  0  0  0  0
  -29.5188  -25.1125   19.7903 H   0  0  0  0  0  0
  -27.8662  -25.2051   21.9502 H   0  0  0  0  0  0
  -28.4762  -23.7152   21.2511 H   0  0  0  0  0  0
  -29.2392  -18.2403   20.9045 H   0  0  0  0  0  0
  1 25  1  0  0  0
  1 30  2  0  0  0
  1 86  1  0  0  0
  2  3  1  0  0  0
  2 25  1  0  0  0
  2 88  1  0  0  0
  2 89  1  0  0  0
  3  4  1  0  0  0
  3 90  1  0  0  0
  3 91  1  0  0  0
  4  5  1  0  0  0
  4 92  1  0  0  0
  4 93  1  0  0  0
  5  6  1  0  0  0
  5 26  1  0  0  0
  5 94  1  0  0  0
  6 25  1  0  0  0
  6 95  1  0  0  0
  6 96  1  0  0  0
  7  8  2  0  0  0
  7 26  1  0  0  0
  7 29  1  0  0  0
  8  9  1  0  0  0
  8 22  1  0  0  0
  9 10  1  0  0  0
  9 27  2  0  0  0
 10 11  2  0  0  0
 10 15  1  0  0  0
 11 12  1  0  0  0
 11 97  1  0  0  0
 12 13  2  0  0  0
 12 98  1  0  0  0
 13 14  1  0  0  0
 13 31  1  0  0  0
 14 15  2  0  0  0
 14 99  1  0  0  0
 15100  1  0  0  0
 16 17  2  0  0  0
 16 21  1  0  0  0
 16 31  1  0  0  0
 17 18  1  0  0  0
 17101  1  0  0  0
 18 19  2  0  0  0
 18102  1  0  0  0
 19 20  1  0  0  0
 19 24  1  0  0  0
 20 21  2  0  0  0
 20103  1  0  0  0
 21 23  1  0  0  0
 22 28  1  0  0  0
 22 32  2  0  0  0
 26 27  1  0  0  0
 28104  1  0  0  0
 28105  1  0  0  0
 29106  1  0  0  0
 29107  1  0  0  0
 33 34  1  0  0  0
 33 66  1  0  0  0
 33 70  2  0  0  0
 34 36  1  0  0  0
 34 59  1  0  0  0
 34108  1  0  0  0
 35 44  2  0  0  0
 35 45  1  0  0  0
 35 68  1  0  0  0
 36 56  1  0  0  0
 36109  1  0  0  0
 37 39  1  0  0  0
 37 47  1  0  0  0
 37 66  1  0  0  0
 37110  1  0  0  0
 38 43  2  0  0  0
 38 46  1  0  0  0
 38 47  1  0  0  0
 39 64  1  0  0  0
 39 67  2  0  0  0
 40 52  1  0  0  0
 40 53  2  0  0  0
 40 58  1  0  0  0
 41111  1  0  0  0
 41112  1  0  0  0
 41113  1  0  0  0
 41 48  1  0  0  0
 42 43  1  0  0  0
 42 66  1  0  0  0
 42114  1  0  0  0
 42115  1  0  0  0
 43 44  1  0  0  0
 44116  1  0  0  0
 45 46  2  0  0  0
 45117  1  0  0  0
 46118  1  0  0  0
 47119  1  0  0  0
 47120  1  0  0  0
 48 56  1  0  0  0
 48 65  1  0  0  0
 48121  1  0  0  0
 49 50  1  0  0  0
 49 53  1  0  0  0
 49 64  1  0  0  0
 49122  1  0  0  0
 50 51  1  0  0  0
 50123  1  0  0  0
 50124  1  0  0  0
 51 52  1  0  0  0
 51125  1  0  0  0
 51126  1  0  0  0
 52127  1  0  0  0
 52128  1  0  0  0
 53 54  1  0  0  0
 54 55  2  0  0  0
 54129  1  0  0  0
 55 57  1  0  0  0
 55130  1  0  0  0
 56 69  2  0  0  0
 57 58  2  0  0  0
 57131  1  0  0  0
 58132  1  0  0  0
 59 60  1  0  0  0
 59 61  1  0  0  0
 59 62  1  0  0  0
 60133  1  0  0  0
 60134  1  0  0  0
 60135  1  0  0  0
 61136  1  0  0  0
 61137  1  0  0  0
 61138  1  0  0  0
 62139  1  0  0  0
 62140  1  0  0  0
 62141  1  0  0  0
 63 65  1  0  0  0
 63142  1  0  0  0
 63143  1  0  0  0
 63144  1  0  0  0
 64145  1  0  0  0
 65146  1  0  0  0
 68 82  1  0  0  0
 71 72  2  0  0  0
 71 73  1  0  0  0
 71147  1  0  0  0
 72 75  1  0  0  0
 72148  1  0  0  0
 73 76  2  0  0  0
 73149  1  0  0  0
 74 75  2  0  0  0
 74 76  1  0  0  0
 74150  1  0  0  0
 75 77  1  0  0  0
 76 78  1  0  0  0
 77 84  1  0  0  0
 77 85  2  0  0  0
 78 80  1  0  0  0
 78151  1  0  0  0
 78152  1  0  0  0
 79 81  1  0  0  0
 79 84  1  0  0  0
 79153  1  0  0  0
 79154  1  0  0  0
 80 87  1  0  0  0
 80155  1  0  0  0
 80156  1  0  0  0
 81 86  1  0  0  0
 81157  1  0  0  0
 81158  1  0  0  0
 82 83  1  0  0  0
 82159  1  0  0  0
 82160  1  0  0  0
 83 87  1  0  0  0
 83161  1  0  0  0
 83162  1  0  0  0
 84163  1  0  0  0
M  ISO  4   1 100  68 101  82 101  86 100
M  END
> <chiral flag>
0

> <version>
0

> <s_m_source_file>
/data/baiqing/PycharmProjects/Reinvent-master-3.2/result/LINK_invent/BTK/process_docking_weight1_custom_product_contain_oxygen_bond_distance_aromatic_linkinvent_7_9_3/rearranged_h_0000.sdf

> <i_m_source_file_index>
85

> <r_mmod_Potential_Energy-OPLS-2005>
-179.433609008789

> <r_mmod_Stretch_Energy-OPLS-2005>
30.9696063995361

> <r_mmod_Bend_Energy-OPLS-2005>
92.1687774658203

> <r_mmod_Torsional_Energy-OPLS-2005>
164.954559326172

> <r_mmod_Improper_Torsional_Energy-OPLS-2005>
2.84167432785034

> <r_mmod_Van_der_Waal_Energy-OPLS-2005>
148.280197143555

> <r_mmod_Electrostatic_Energy-OPLS-2005>
-406.442260742188

> <r_mmod_Solvation_Energy-OPLS-2005>
-219.943588256836

> <b_mmod_Minimization_Converged-OPLS-2005>
0

> <r_mmod_RMS_Derivative-OPLS-2005>
1.49086058139801

$$$$
85
                    3D
 Structure written by MMmdl.
159167  0  0  1  0            999 V2000
  -30.6205  -14.4861   20.6786 C   0  0  0  0  0  0
  -30.4558  -12.3539   19.3717 C   0  0  0  0  0  0
  -29.4895  -12.5416   18.1820 C   0  0  0  0  0  0
  -28.0144  -12.3644   18.6089 C   0  0  0  0  0  0
  -27.6649  -13.1775   19.8802 C   0  0  2  0  0  0
  -28.6989  -12.8676   20.9791 C   0  0  0  0  0  0
  -25.2603  -13.8133   20.5583 C   0  0  0  0  0  0
  -24.1823  -13.0432   20.9108 C   0  0  0  0  0  0
  -24.6284  -11.6898   20.8738 C   0  0  0  0  0  0
  -23.8930  -10.4271   21.0493 C   0  0  0  0  0  0
  -24.3573   -9.4194   21.9214 C   0  0  0  0  0  0
  -23.6340   -8.2179   22.0763 C   0  0  0  0  0  0
  -22.4319   -8.0253   21.3578 C   0  0  0  0  0  0
  -21.9893   -9.0189   20.4715 C   0  0  0  0  0  0
  -22.7092  -10.2121   20.3137 C   0  0  0  0  0  0
  -21.6818   -6.0773   22.5308 C   0  0  0  0  0  0
  -21.3964   -6.5685   23.8242 C   0  0  0  0  0  0
  -21.3662   -5.6826   24.9205 C   0  0  0  0  0  0
  -21.6051   -4.3076   24.7256 C   0  0  0  0  0  0
  -21.8791   -3.8200   23.4343 C   0  0  0  0  0  0
  -21.9157   -4.7013   22.3415 C   0  0  0  0  0  0
  -22.7874  -13.5337   21.1740 C   0  0  0  0  0  0
  -22.1672   -4.2241   21.0976 F   0  0  0  0  0  0
  -21.5639   -3.4510   25.7731 F   0  0  0  0  0  0
  -30.0159  -13.2420   20.4509 N   0  0  0  0  0  0
  -26.2976  -12.9159   20.3287 N   0  0  0  0  0  0
  -25.9176  -11.6367   20.5735 N   0  0  0  0  0  0
  -22.0439  -12.8453   22.0341 N   0  0  0  0  0  0
  -25.4313  -15.1813   20.3891 N   0  0  0  0  0  0
  -31.6986  -14.8535   20.1969 O   0  0  0  0  0  0
  -21.6614   -6.8882   21.4265 O   0  0  0  0  0  0
  -22.3622  -14.5640   20.6568 O   0  0  0  0  0  0
  -24.6116  -31.8741   23.2130 C   0  0  0  0  0  0
  -25.9042  -32.4839   23.8415 C   0  0  1  0  0  0
  -27.2218  -27.4799   20.0829 C   0  0  0  0  0  0
  -25.5909  -33.8631   24.2335 N   0  0  0  0  0  0
  -23.3881  -30.4999   21.5552 C   0  0  2  0  0  0
  -24.8341  -28.9728   20.1145 C   0  0  0  0  0  0
  -22.7376  -29.4658   22.5028 C   0  0  0  0  0  0
  -18.0283  -28.1346   22.8531 C   0  0  0  0  0  0
  -24.1458  -36.7285   23.2631 C   0  0  0  0  0  0
  -25.9137  -30.8540   21.3549 C   0  0  0  0  0  0
  -25.9918  -29.4890   20.7085 C   0  0  0  0  0  0
  -27.1926  -28.7502   20.6952 C   0  0  0  0  0  0
  -26.0637  -26.9891   19.4415 C   0  0  0  0  0  0
  -24.8625  -27.7166   19.4827 C   0  0  0  0  0  0
  -23.5910  -29.8312   20.1698 C   0  0  0  0  0  0
  -25.4084  -36.3134   24.0349 C   0  0  1  0  0  0
  -20.5836  -28.3591   23.1320 C   0  0  2  0  0  0
  -20.6721  -26.9326   22.5402 C   0  0  0  0  0  0
  -19.5718  -26.6356   21.5184 C   0  0  0  0  0  0
  -18.1898  -26.7883   22.1626 C   0  0  0  0  0  0
  -19.1529  -28.8807   23.2912 C   0  0  0  0  0  0
  -18.9464  -30.1399   23.8919 C   0  0  0  0  0  0
  -17.6461  -30.6569   24.0548 C   0  0  0  0  0  0
  -25.9032  -34.9492   23.5136 C   0  0  0  0  0  0
  -16.5357  -29.9049   23.6343 C   0  0  0  0  0  0
  -16.7246  -28.6463   23.0376 C   0  0  0  0  0  0
  -26.4477  -31.6559   25.0705 C   0  0  0  0  0  0
  -25.3773  -31.3634   26.1458 C   0  0  0  0  0  0
  -27.0217  -30.3021   24.5956 C   0  0  0  0  0  0
  -27.6102  -32.4228   25.7429 C   0  0  0  0  0  0
  -27.5556  -37.1793   24.8491 C   0  0  0  0  0  0
  -21.4118  -29.2992   22.3778 N   0  0  0  0  0  0
  -26.4272  -37.3842   23.9446 N   0  0  0  0  0  0
  -24.6562  -31.0876   22.0998 N   0  0  0  0  0  0
  -23.4192  -28.8214   23.3058 O   0  0  0  0  0  0
  -28.3802  -26.7484   20.0690 O   0  0  0  0  0  0
  -26.5588  -34.8953   22.4692 O   0  0  0  0  0  0
  -23.5337  -32.1432   23.7582 O   0  0  0  0  0  0
  -29.3678  -20.1804   20.9863 C   0  0  0  0  0  0
  -28.2973  -18.7328   19.3613 C   0  0  0  0  0  0
  -29.8437  -19.0522   21.6868 C   0  0  0  0  0  0
  -28.7887  -17.5998   20.0464 C   0  0  0  0  0  0
  -28.5821  -20.0310   19.8228 C   0  0  0  0  0  0
  -29.5728  -17.7462   21.2162 C   0  0  0  0  0  0
  -26.3861  -22.2413   20.7013 C   0  0  0  0  0  0
  -28.4807  -25.5453   20.7103 C   0  0  0  0  0  0
  -28.0015  -21.2477   19.1017 C   0  0  0  0  0  0
  -30.0944  -16.5376   22.0087 C   0  0  0  0  0  0
  -26.4234  -22.9031   22.0850 C   0  0  0  0  0  0
  -27.2581  -25.0748   21.5354 C   0  0  0  0  0  0
  -27.5596  -22.2402   20.0601 N   0  0  0  0  0  0
  -25.3693  -21.6906   20.2746 O   0  0  0  0  0  0
  -29.4884  -24.8378   20.6248 O   0  0  0  0  0  0
  -29.7859  -15.2513   21.4626 O   0  0  0  0  0  0
  -27.5214  -23.8198   22.1594 O   0  0  0  0  0  0
  -31.4769  -12.5841   19.0584 H   0  0  0  0  0  0
  -30.4667  -11.3175   19.7079 H   0  0  0  0  0  0
  -29.7353  -11.8411   17.3786 H   0  0  0  0  0  0
  -29.6084  -13.5449   17.7680 H   0  0  0  0  0  0
  -27.8540  -11.3030   18.7951 H   0  0  0  0  0  0
  -27.3541  -12.6465   17.7858 H   0  0  0  0  0  0
  -27.7387  -14.2376   19.6366 H   0  0  0  0  0  0
  -28.6812  -11.7949   21.1828 H   0  0  0  0  0  0
  -28.4555  -13.3420   21.9275 H   0  0  0  0  0  0
  -25.2713   -9.5686   22.4783 H   0  0  0  0  0  0
  -24.0149   -7.4512   22.7423 H   0  0  0  0  0  0
  -21.0807   -8.8531   19.9078 H   0  0  0  0  0  0
  -22.3441  -10.9579   19.6251 H   0  0  0  0  0  0
  -21.1928   -7.6176   23.9718 H   0  0  0  0  0  0
  -21.1544   -6.0621   25.9086 H   0  0  0  0  0  0
  -22.0575   -2.7662   23.2799 H   0  0  0  0  0  0
  -22.3859  -11.9953   22.4527 H   0  0  0  0  0  0
  -21.1144  -13.1640   22.2648 H   0  0  0  0  0  0
  -24.6698  -15.8358   20.5087 H   0  0  0  0  0  0
  -26.2589  -15.6078   19.9983 H   0  0  0  0  0  0
  -26.7093  -32.5589   23.1176 H   0  0  0  0  0  0
  -25.0189  -33.9790   25.0555 H   0  0  0  0  0  0
  -22.6791  -31.3176   21.4182 H   0  0  0  0  0  0
  -23.3775  -35.9571   23.3330 H   0  0  0  0  0  0
  -24.3592  -36.8861   22.2054 H   0  0  0  0  0  0
  -23.7133  -37.6470   23.6600 H   0  0  0  0  0  0
  -26.0131  -31.6181   20.5819 H   0  0  0  0  0  0
  -26.8096  -30.9148   21.9569 H   0  0  0  0  0  0
  -28.0909  -29.1540   21.1375 H   0  0  0  0  0  0
  -26.0879  -26.0418   18.9195 H   0  0  0  0  0  0
  -23.9747  -27.3190   19.0132 H   0  0  0  0  0  0
  -23.6900  -30.6000   19.4050 H   0  0  0  0  0  0
  -22.7176  -29.2443   19.8823 H   0  0  0  0  0  0
  -25.1248  -36.2024   25.0851 H   0  0  0  0  0  0
  -20.9978  -28.3129   24.1407 H   0  0  0  0  0  0
  -20.5547  -26.2239   23.3590 H   0  0  0  0  0  0
  -21.6596  -26.7306   22.1243 H   0  0  0  0  0  0
  -19.6859  -25.6280   21.1172 H   0  0  0  0  0  0
  -19.6624  -27.3203   20.6733 H   0  0  0  0  0  0
  -17.4142  -26.6665   21.4015 H   0  0  0  0  0  0
  -18.0313  -25.9953   22.8973 H   0  0  0  0  0  0
  -19.7930  -30.7211   24.2294 H   0  0  0  0  0  0
  -17.5008  -31.6256   24.5110 H   0  0  0  0  0  0
  -15.5353  -30.2967   23.7602 H   0  0  0  0  0  0
  -15.8640  -28.0748   22.7105 H   0  0  0  0  0  0
  -24.6092  -30.6794   25.7853 H   0  0  0  0  0  0
  -24.8791  -32.2743   26.4791 H   0  0  0  0  0  0
  -25.8202  -30.8985   27.0269 H   0  0  0  0  0  0
  -26.2685  -29.6915   24.0984 H   0  0  0  0  0  0
  -27.3992  -29.7143   25.4322 H   0  0  0  0  0  0
  -27.8538  -30.4375   23.9043 H   0  0  0  0  0  0
  -27.2809  -33.3596   26.1937 H   0  0  0  0  0  0
  -28.3943  -32.6654   25.0236 H   0  0  0  0  0  0
  -28.0710  -31.8363   26.5387 H   0  0  0  0  0  0
  -28.2615  -38.0044   24.7563 H   0  0  0  0  0  0
  -28.0984  -36.2604   24.6274 H   0  0  0  0  0  0
  -27.2299  -37.1422   25.8895 H   0  0  0  0  0  0
  -20.9286  -29.8758   21.7001 H   0  0  0  0  0  0
  -26.0166  -38.2915   24.1514 H   0  0  0  0  0  0
  -29.5941  -21.1686   21.3573 H   0  0  0  0  0  0
  -27.6790  -18.5971   18.4857 H   0  0  0  0  0  0
  -30.4204  -19.1983   22.5868 H   0  0  0  0  0  0
  -28.5367  -16.6170   19.6759 H   0  0  0  0  0  0
  -27.1809  -20.9722   18.4331 H   0  0  0  0  0  0
  -28.7705  -21.6983   18.4713 H   0  0  0  0  0  0
  -29.5696  -16.5730   22.9651 H   0  0  0  0  0  0
  -31.1551  -16.6410   22.2523 H   0  0  0  0  0  0
  -26.5949  -22.1086   22.8114 H   0  0  0  0  0  0
  -25.4724  -23.3763   22.3420 H   0  0  0  0  0  0
  -26.3932  -24.9809   20.8815 H   0  0  0  0  0  0
  -27.0122  -25.8000   22.3132 H   0  0  0  0  0  0
  -28.2881  -22.7609   20.5291 H   0  0  0  0  0  0
  1 25  1  0  0  0
  1 30  2  0  0  0
  1 86  1  0  0  0
  2  3  1  0  0  0
  2 25  1  0  0  0
  2 88  1  0  0  0
  2 89  1  0  0  0
  3  4  1  0  0  0
  3 90  1  0  0  0
  3 91  1  0  0  0
  4  5  1  0  0  0
  4 92  1  0  0  0
  4 93  1  0  0  0
  5  6  1  0  0  0
  5 26  1  0  0  0
  5 94  1  0  0  0
  6 25  1  0  0  0
  6 95  1  0  0  0
  6 96  1  0  0  0
  7  8  2  0  0  0
  7 26  1  0  0  0
  7 29  1  0  0  0
  8  9  1  0  0  0
  8 22  1  0  0  0
  9 10  1  0  0  0
  9 27  2  0  0  0
 10 11  2  0  0  0
 10 15  1  0  0  0
 11 12  1  0  0  0
 11 97  1  0  0  0
 12 13  2  0  0  0
 12 98  1  0  0  0
 13 14  1  0  0  0
 13 31  1  0  0  0
 14 15  2  0  0  0
 14 99  1  0  0  0
 15100  1  0  0  0
 16 17  2  0  0  0
 16 21  1  0  0  0
 16 31  1  0  0  0
 17 18  1  0  0  0
 17101  1  0  0  0
 18 19  2  0  0  0
 18102  1  0  0  0
 19 20  1  0  0  0
 19 24  1  0  0  0
 20 21  2  0  0  0
 20103  1  0  0  0
 21 23  1  0  0  0
 22 28  1  0  0  0
 22 32  2  0  0  0
 26 27  1  0  0  0
 28104  1  0  0  0
 28105  1  0  0  0
 29106  1  0  0  0
 29107  1  0  0  0
 33 34  1  0  0  0
 33 66  1  0  0  0
 33 70  2  0  0  0
 34 36  1  0  0  0
 34 59  1  0  0  0
 34108  1  0  0  0
 35 44  2  0  0  0
 35 45  1  0  0  0
 35 68  1  0  0  0
 36 56  1  0  0  0
 36109  1  0  0  0
 37 39  1  0  0  0
 37 47  1  0  0  0
 37 66  1  0  0  0
 37110  1  0  0  0
 38 43  2  0  0  0
 38 46  1  0  0  0
 38 47  1  0  0  0
 39 64  1  0  0  0
 39 67  2  0  0  0
 40 52  1  0  0  0
 40 53  2  0  0  0
 40 58  1  0  0  0
 41111  1  0  0  0
 41112  1  0  0  0
 41113  1  0  0  0
 41 48  1  0  0  0
 42 43  1  0  0  0
 42 66  1  0  0  0
 42114  1  0  0  0
 42115  1  0  0  0
 43 44  1  0  0  0
 44116  1  0  0  0
 45 46  2  0  0  0
 45117  1  0  0  0
 46118  1  0  0  0
 47119  1  0  0  0
 47120  1  0  0  0
 48 56  1  0  0  0
 48 65  1  0  0  0
 48121  1  0  0  0
 49 50  1  0  0  0
 49 53  1  0  0  0
 49 64  1  0  0  0
 49122  1  0  0  0
 50 51  1  0  0  0
 50123  1  0  0  0
 50124  1  0  0  0
 51 52  1  0  0  0
 51125  1  0  0  0
 51126  1  0  0  0
 52127  1  0  0  0
 52128  1  0  0  0
 53 54  1  0  0  0
 54 55  2  0  0  0
 54129  1  0  0  0
 55 57  1  0  0  0
 55130  1  0  0  0
 56 69  2  0  0  0
 57 58  2  0  0  0
 57131  1  0  0  0
 58132  1  0  0  0
 59 60  1  0  0  0
 59 61  1  0  0  0
 59 62  1  0  0  0
 60133  1  0  0  0
 60134  1  0  0  0
 60135  1  0  0  0
 61136  1  0  0  0
 61137  1  0  0  0
 61138  1  0  0  0
 62139  1  0  0  0
 62140  1  0  0  0
 62141  1  0  0  0
 63 65  1  0  0  0
 63142  1  0  0  0
 63143  1  0  0  0
 63144  1  0  0  0
 64145  1  0  0  0
 65146  1  0  0  0
 68 78  1  0  0  0
 71 73  2  0  0  0
 71 75  1  0  0  0
 71147  1  0  0  0
 72 74  1  0  0  0
 72 75  2  0  0  0
 72148  1  0  0  0
 73 76  1  0  0  0
 73149  1  0  0  0
 74 76  2  0  0  0
 74150  1  0  0  0
 75 79  1  0  0  0
 76 80  1  0  0  0
 77 81  1  0  0  0
 77 83  1  0  0  0
 77 84  2  0  0  0
 78 82  1  0  0  0
 78 85  2  0  0  0
 79 83  1  0  0  0
 79151  1  0  0  0
 79152  1  0  0  0
 80 86  1  0  0  0
 80153  1  0  0  0
 80154  1  0  0  0
 81 87  1  0  0  0
 81155  1  0  0  0
 81156  1  0  0  0
 82 87  1  0  0  0
 82157  1  0  0  0
 82158  1  0  0  0
 83159  1  0  0  0
M  ISO  4   1 100  68 101  78 101  86 100
M  END
> <chiral flag>
0

> <version>
0

> <s_m_source_file>
/data/baiqing/PycharmProjects/Reinvent-master-3.2/result/LINK_invent/BTK/process_docking_weight1_custom_product_contain_oxygen_bond_distance_aromatic_linkinvent_7_9_3/rearranged_h_0000.sdf

> <i_m_source_file_index>
86

> <r_mmod_Potential_Energy-OPLS-2005>
-73.926155090332

> <r_mmod_Stretch_Energy-OPLS-2005>
37.3976440429688

> <r_mmod_Bend_Energy-OPLS-2005>
104.712387084961

> <r_mmod_Torsional_Energy-OPLS-2005>
182.168029785156

> <r_mmod_Improper_Torsional_Energy-OPLS-2005>
4.4192795753479

> <r_mmod_Van_der_Waal_Energy-OPLS-2005>
157.794784545898

> <r_mmod_Electrostatic_Energy-OPLS-2005>
-363.083068847656

> <r_mmod_Solvation_Energy-OPLS-2005>
-216.718246459961

> <b_mmod_Minimization_Converged-OPLS-2005>
0

> <r_mmod_RMS_Derivative-OPLS-2005>
9.21690654754639

$$$$
86
                    3D
 Structure written by MMmdl.
165172  0  0  1  0            999 V2000
  -30.7299  -14.3479   20.7028 C   0  0  0  0  0  0
  -30.4295  -12.2794   19.3894 C   0  0  0  0  0  0
  -29.4879  -12.5170   18.1910 C   0  0  0  0  0  0
  -28.0100  -12.3728   18.6080 C   0  0  0  0  0  0
  -27.6692  -13.1920   19.8792 C   0  0  2  0  0  0
  -28.7005  -12.8911   20.9895 C   0  0  0  0  0  0
  -25.2627  -13.8152   20.5622 C   0  0  0  0  0  0
  -24.1869  -13.0449   20.9142 C   0  0  0  0  0  0
  -24.6394  -11.6913   20.8689 C   0  0  0  0  0  0
  -23.9042  -10.4311   21.0375 C   0  0  0  0  0  0
  -24.3598   -9.4240   21.9152 C   0  0  0  0  0  0
  -23.6296   -8.2263   22.0718 C   0  0  0  0  0  0
  -22.4264   -8.0294   21.3523 C   0  0  0  0  0  0
  -21.9896   -9.0256   20.4609 C   0  0  0  0  0  0
  -22.7212  -10.2145   20.3022 C   0  0  0  0  0  0
  -21.6855   -6.0769   22.5293 C   0  0  0  0  0  0
  -21.4017   -6.5648   23.8231 C   0  0  0  0  0  0
  -21.3661   -5.6779   24.9179 C   0  0  0  0  0  0
  -21.6032   -4.3046   24.7227 C   0  0  0  0  0  0
  -21.8825   -3.8168   23.4329 C   0  0  0  0  0  0
  -21.9189   -4.6996   22.3407 C   0  0  0  0  0  0
  -22.7904  -13.5243   21.1842 C   0  0  0  0  0  0
  -22.1645   -4.2192   21.0975 F   0  0  0  0  0  0
  -21.5630   -3.4515   25.7723 F   0  0  0  0  0  0
  -30.0515  -13.1958   20.4738 N   0  0  0  0  0  0
  -26.3056  -12.9298   20.3328 N   0  0  0  0  0  0
  -25.9314  -11.6475   20.5751 N   0  0  0  0  0  0
  -22.0528  -12.8245   22.0405 N   0  0  0  0  0  0
  -25.4375  -15.1869   20.3983 N   0  0  0  0  0  0
  -31.7234  -14.7055   20.0651 O   0  0  0  0  0  0
  -21.6623   -6.8899   21.4246 O   0  0  0  0  0  0
  -22.3596  -14.5568   20.6717 O   0  0  0  0  0  0
  -24.6135  -31.8698   23.2124 C   0  0  0  0  0  0
  -25.9036  -32.4823   23.8418 C   0  0  1  0  0  0
  -27.2335  -27.4498   20.0928 C   0  0  0  0  0  0
  -25.5897  -33.8623   24.2343 N   0  0  0  0  0  0
  -23.4007  -30.4940   21.5521 C   0  0  2  0  0  0
  -24.8437  -28.9601   20.1177 C   0  0  0  0  0  0
  -22.7407  -29.4664   22.4994 C   0  0  0  0  0  0
  -18.0280  -28.1366   22.8497 C   0  0  0  0  0  0
  -24.1489  -36.7317   23.2642 C   0  0  0  0  0  0
  -25.9284  -30.8376   21.3656 C   0  0  0  0  0  0
  -26.0037  -29.4745   20.7101 C   0  0  0  0  0  0
  -27.1999  -28.7280   20.6910 C   0  0  0  0  0  0
  -26.0522  -26.9415   19.5043 C   0  0  0  0  0  0
  -24.8614  -27.6916   19.5151 C   0  0  0  0  0  0
  -23.6082  -29.8266   20.1663 C   0  0  0  0  0  0
  -25.4106  -36.3119   24.0347 C   0  0  1  0  0  0
  -20.5875  -28.3653   23.1318 C   0  0  2  0  0  0
  -20.6769  -26.9390   22.5414 C   0  0  0  0  0  0
  -19.5738  -26.6383   21.5212 C   0  0  0  0  0  0
  -18.1923  -26.7920   22.1624 C   0  0  0  0  0  0
  -19.1530  -28.8827   23.2904 C   0  0  0  0  0  0
  -18.9457  -30.1443   23.8908 C   0  0  0  0  0  0
  -17.6455  -30.6574   24.0573 C   0  0  0  0  0  0
  -25.9033  -34.9479   23.5143 C   0  0  0  0  0  0
  -16.5350  -29.9077   23.6328 C   0  0  0  0  0  0
  -16.7268  -28.6495   23.0346 C   0  0  0  0  0  0
  -26.4469  -31.6612   25.0748 C   0  0  0  0  0  0
  -25.3742  -31.3714   26.1502 C   0  0  0  0  0  0
  -27.0314  -30.3058   24.6135 C   0  0  0  0  0  0
  -27.6057  -32.4335   25.7485 C   0  0  0  0  0  0
  -27.5582  -37.1813   24.8463 C   0  0  0  0  0  0
  -21.4144  -29.3032   22.3730 N   0  0  0  0  0  0
  -26.4295  -37.3797   23.9407 N   0  0  0  0  0  0
  -24.6656  -31.0811   22.1018 N   0  0  0  0  0  0
  -23.4193  -28.8201   23.3019 O   0  0  0  0  0  0
  -28.4309  -26.7688   20.0780 O   0  0  0  0  0  0
  -26.5582  -34.8923   22.4699 O   0  0  0  0  0  0
  -23.5331  -32.1445   23.7520 O   0  0  0  0  0  0
  -30.2804  -16.5388   21.8064 C   0  0  0  0  0  0
  -28.8853  -17.1149   21.5177 C   0  0  0  0  0  0
  -28.4233  -25.3391   20.1229 C   0  0  0  0  0  0
  -28.0994  -24.8309   21.5388 C   0  0  0  0  0  0
  -27.6376  -19.1061   21.1721 C   0  0  0  0  0  0
  -26.5880  -19.1081   22.3040 C   0  0  0  0  0  0
  -26.3204  -24.7739   23.1021 C   0  0  0  0  0  0
  -24.9186  -24.1606   23.2620 C   0  0  0  0  0  0
  -25.4972  -20.5381   23.8530 C   0  0  0  0  0  0
  -25.3863  -22.0205   24.2268 C   0  0  0  0  0  0
  -30.2068  -15.0894   21.6822 N   0  0  0  0  0  0
  -28.8879  -18.5361   21.5630 O   0  0  0  0  0  0
  -26.6930  -24.7460   21.7301 O   0  0  0  0  0  0
  -26.5917  -20.3704   22.9577 O   0  0  0  0  0  0
  -24.9529  -22.7472   23.0794 O   0  0  0  0  0  0
  -31.4677  -12.4045   19.0812 H   0  0  0  0  0  0
  -30.3526  -11.2467   19.7345 H   0  0  0  0  0  0
  -29.7200  -11.8154   17.3886 H   0  0  0  0  0  0
  -29.6550  -13.5141   17.7797 H   0  0  0  0  0  0
  -27.8151  -11.3152   18.7912 H   0  0  0  0  0  0
  -27.3552  -12.6580   17.7846 H   0  0  0  0  0  0
  -27.7387  -14.2504   19.6224 H   0  0  0  0  0  0
  -28.6619  -11.8329   21.2560 H   0  0  0  0  0  0
  -28.4336  -13.4202   21.9069 H   0  0  0  0  0  0
  -25.2733   -9.5761   22.4744 H   0  0  0  0  0  0
  -24.0055   -7.4669   22.7416 H   0  0  0  0  0  0
  -21.0840   -8.8750   19.8901 H   0  0  0  0  0  0
  -22.3636  -10.9680   19.6141 H   0  0  0  0  0  0
  -21.2001   -7.6154   23.9754 H   0  0  0  0  0  0
  -21.1458   -6.0493   25.9078 H   0  0  0  0  0  0
  -22.0600   -2.7639   23.2812 H   0  0  0  0  0  0
  -22.4085  -11.9892   22.4825 H   0  0  0  0  0  0
  -21.1137  -13.1277   22.2552 H   0  0  0  0  0  0
  -24.6578  -15.8310   20.4706 H   0  0  0  0  0  0
  -26.2702  -15.6097   20.0114 H   0  0  0  0  0  0
  -26.7106  -32.5537   23.1187 H   0  0  0  0  0  0
  -25.0090  -33.9801   25.0514 H   0  0  0  0  0  0
  -22.6897  -31.3108   21.4130 H   0  0  0  0  0  0
  -23.3752  -35.9650   23.3319 H   0  0  0  0  0  0
  -24.3585  -36.8913   22.2053 H   0  0  0  0  0  0
  -23.7236  -37.6529   23.6638 H   0  0  0  0  0  0
  -26.0476  -31.6066   20.6013 H   0  0  0  0  0  0
  -26.8150  -30.8832   21.9879 H   0  0  0  0  0  0
  -28.0992  -29.1266   21.1414 H   0  0  0  0  0  0
  -26.0298  -25.9758   19.0235 H   0  0  0  0  0  0
  -23.9705  -27.2907   19.0524 H   0  0  0  0  0  0
  -23.7169  -30.6014   19.4055 H   0  0  0  0  0  0
  -22.7324  -29.2461   19.8707 H   0  0  0  0  0  0
  -25.1281  -36.2000   25.0840 H   0  0  0  0  0  0
  -20.9970  -28.3210   24.1433 H   0  0  0  0  0  0
  -20.5667  -26.2262   23.3597 H   0  0  0  0  0  0
  -21.6639  -26.7424   22.1203 H   0  0  0  0  0  0
  -19.6897  -25.6301   21.1221 H   0  0  0  0  0  0
  -19.6677  -27.3212   20.6755 H   0  0  0  0  0  0
  -17.4197  -26.6693   21.4022 H   0  0  0  0  0  0
  -18.0313  -26.0052   22.9005 H   0  0  0  0  0  0
  -19.7937  -30.7264   24.2268 H   0  0  0  0  0  0
  -17.5011  -31.6253   24.5178 H   0  0  0  0  0  0
  -15.5351  -30.2974   23.7647 H   0  0  0  0  0  0
  -15.8674  -28.0819   22.7032 H   0  0  0  0  0  0
  -24.5879  -30.7105   25.7831 H   0  0  0  0  0  0
  -24.8979  -32.2877   26.5003 H   0  0  0  0  0  0
  -25.8095  -30.8829   27.0231 H   0  0  0  0  0  0
  -26.2868  -29.6789   24.1211 H   0  0  0  0  0  0
  -27.4117  -29.7317   25.4599 H   0  0  0  0  0  0
  -27.8688  -30.4388   23.9278 H   0  0  0  0  0  0
  -27.2684  -33.3614   26.2108 H   0  0  0  0  0  0
  -28.3820  -32.6929   25.0275 H   0  0  0  0  0  0
  -28.0781  -31.8443   26.5351 H   0  0  0  0  0  0
  -28.2613  -38.0100   24.7506 H   0  0  0  0  0  0
  -28.1070  -36.2636   24.6296 H   0  0  0  0  0  0
  -27.2306  -37.1472   25.8869 H   0  0  0  0  0  0
  -20.9295  -29.8776   21.6983 H   0  0  0  0  0  0
  -26.0199  -38.2888   24.1389 H   0  0  0  0  0  0
  -30.5970  -16.7970   22.8178 H   0  0  0  0  0  0
  -31.0162  -16.9644   21.1210 H   0  0  0  0  0  0
  -28.1696  -16.7179   22.2386 H   0  0  0  0  0  0
  -28.5609  -16.7743   20.5330 H   0  0  0  0  0  0
  -27.7986  -24.8703   19.3648 H   0  0  0  0  0  0
  -29.4403  -25.0300   19.8793 H   0  0  0  0  0  0
  -28.5849  -25.4711   22.2791 H   0  0  0  0  0  0
  -28.5102  -23.8286   21.6743 H   0  0  0  0  0  0
  -27.8079  -20.1312   20.8410 H   0  0  0  0  0  0
  -27.2452  -18.5850   20.2959 H   0  0  0  0  0  0
  -26.7408  -18.2991   23.0220 H   0  0  0  0  0  0
  -25.6062  -18.9474   21.8570 H   0  0  0  0  0  0
  -27.0491  -24.2537   23.7249 H   0  0  0  0  0  0
  -26.3099  -25.8138   23.4285 H   0  0  0  0  0  0
  -24.2466  -24.5980   22.5239 H   0  0  0  0  0  0
  -24.4947  -24.4050   24.2366 H   0  0  0  0  0  0
  -24.5562  -20.2186   23.4033 H   0  0  0  0  0  0
  -25.6589  -19.9313   24.7458 H   0  0  0  0  0  0
  -26.3451  -22.3744   24.6047 H   0  0  0  0  0  0
  -24.6570  -22.1469   25.0300 H   0  0  0  0  0  0
  -29.4792  -14.6360   22.2158 H   0  0  0  0  0  0
  1 25  1  0  0  0
  1 30  2  0  0  0
  1 81  1  0  0  0
  2  3  1  0  0  0
  2 25  1  0  0  0
  2 86  1  0  0  0
  2 87  1  0  0  0
  3  4  1  0  0  0
  3 88  1  0  0  0
  3 89  1  0  0  0
  4  5  1  0  0  0
  4 90  1  0  0  0
  4 91  1  0  0  0
  5  6  1  0  0  0
  5 26  1  0  0  0
  5 92  1  0  0  0
  6 25  1  0  0  0
  6 93  1  0  0  0
  6 94  1  0  0  0
  7  8  2  0  0  0
  7 26  1  0  0  0
  7 29  1  0  0  0
  8  9  1  0  0  0
  8 22  1  0  0  0
  9 10  1  0  0  0
  9 27  2  0  0  0
 10 11  2  0  0  0
 10 15  1  0  0  0
 11 12  1  0  0  0
 11 95  1  0  0  0
 12 13  2  0  0  0
 12 96  1  0  0  0
 13 14  1  0  0  0
 13 31  1  0  0  0
 14 15  2  0  0  0
 14 97  1  0  0  0
 15 98  1  0  0  0
 16 17  2  0  0  0
 16 21  1  0  0  0
 16 31  1  0  0  0
 17 18  1  0  0  0
 17 99  1  0  0  0
 18 19  2  0  0  0
 18100  1  0  0  0
 19 20  1  0  0  0
 19 24  1  0  0  0
 20 21  2  0  0  0
 20101  1  0  0  0
 21 23  1  0  0  0
 22 28  1  0  0  0
 22 32  2  0  0  0
 26 27  1  0  0  0
 28102  1  0  0  0
 28103  1  0  0  0
 29104  1  0  0  0
 29105  1  0  0  0
 33 34  1  0  0  0
 33 66  1  0  0  0
 33 70  2  0  0  0
 34 36  1  0  0  0
 34 59  1  0  0  0
 34106  1  0  0  0
 35 44  2  0  0  0
 35 45  1  0  0  0
 35 68  1  0  0  0
 36 56  1  0  0  0
 36107  1  0  0  0
 37 39  1  0  0  0
 37 47  1  0  0  0
 37 66  1  0  0  0
 37108  1  0  0  0
 38 43  2  0  0  0
 38 46  1  0  0  0
 38 47  1  0  0  0
 39 64  1  0  0  0
 39 67  2  0  0  0
 40 52  1  0  0  0
 40 53  2  0  0  0
 40 58  1  0  0  0
 41109  1  0  0  0
 41110  1  0  0  0
 41111  1  0  0  0
 41 48  1  0  0  0
 42 43  1  0  0  0
 42 66  1  0  0  0
 42112  1  0  0  0
 42113  1  0  0  0
 43 44  1  0  0  0
 44114  1  0  0  0
 45 46  2  0  0  0
 45115  1  0  0  0
 46116  1  0  0  0
 47117  1  0  0  0
 47118  1  0  0  0
 48 56  1  0  0  0
 48 65  1  0  0  0
 48119  1  0  0  0
 49 50  1  0  0  0
 49 53  1  0  0  0
 49 64  1  0  0  0
 49120  1  0  0  0
 50 51  1  0  0  0
 50121  1  0  0  0
 50122  1  0  0  0
 51 52  1  0  0  0
 51123  1  0  0  0
 51124  1  0  0  0
 52125  1  0  0  0
 52126  1  0  0  0
 53 54  1  0  0  0
 54 55  2  0  0  0
 54127  1  0  0  0
 55 57  1  0  0  0
 55128  1  0  0  0
 56 69  2  0  0  0
 57 58  2  0  0  0
 57129  1  0  0  0
 58130  1  0  0  0
 59 60  1  0  0  0
 59 61  1  0  0  0
 59 62  1  0  0  0
 60131  1  0  0  0
 60132  1  0  0  0
 60133  1  0  0  0
 61134  1  0  0  0
 61135  1  0  0  0
 61136  1  0  0  0
 62137  1  0  0  0
 62138  1  0  0  0
 62139  1  0  0  0
 63 65  1  0  0  0
 63140  1  0  0  0
 63141  1  0  0  0
 63142  1  0  0  0
 64143  1  0  0  0
 65144  1  0  0  0
 68 73  1  0  0  0
 71 72  1  0  0  0
 71 81  1  0  0  0
 71145  1  0  0  0
 71146  1  0  0  0
 72 82  1  0  0  0
 72147  1  0  0  0
 72148  1  0  0  0
 73 74  1  0  0  0
 73149  1  0  0  0
 73150  1  0  0  0
 74 83  1  0  0  0
 74151  1  0  0  0
 74152  1  0  0  0
 75 76  1  0  0  0
 75 82  1  0  0  0
 75153  1  0  0  0
 75154  1  0  0  0
 76 84  1  0  0  0
 76155  1  0  0  0
 76156  1  0  0  0
 77 78  1  0  0  0
 77 83  1  0  0  0
 77157  1  0  0  0
 77158  1  0  0  0
 78 85  1  0  0  0
 78159  1  0  0  0
 78160  1  0  0  0
 79 80  1  0  0  0
 79 84  1  0  0  0
 79161  1  0  0  0
 79162  1  0  0  0
 80 85  1  0  0  0
 80163  1  0  0  0
 80164  1  0  0  0
 81165  1  0  0  0
M  ISO  4   1 100  68 101  73 101  81 100
M  END
> <chiral flag>
0

> <version>
0

> <s_m_source_file>
/data/baiqing/PycharmProjects/Reinvent-master-3.2/result/LINK_invent/BTK/process_docking_weight1_custom_product_contain_oxygen_bond_distance_aromatic_linkinvent_7_9_3/rearranged_h_0000.sdf

> <i_m_source_file_index>
87

> <r_mmod_Potential_Energy-OPLS-2005>
-122.28645324707

> <r_mmod_Stretch_Energy-OPLS-2005>
32.0088500976562

> <r_mmod_Bend_Energy-OPLS-2005>
97.7230072021484

> <r_mmod_Torsional_Energy-OPLS-2005>
201.062683105469

> <r_mmod_Improper_Torsional_Energy-OPLS-2005>
3.23831534385681

> <r_mmod_Van_der_Waal_Energy-OPLS-2005>
131.441696166992

> <r_mmod_Electrostatic_Energy-OPLS-2005>
-358.040924072266

> <r_mmod_Solvation_Energy-OPLS-2005>
-238.455581665039

> <b_mmod_Minimization_Converged-OPLS-2005>
0

> <r_mmod_RMS_Derivative-OPLS-2005>
2.76533460617065

$$$$
87
                    3D
 Structure written by MMmdl.
147155  0  0  1  0            999 V2000
  -30.5311  -15.0481   20.3939 C   0  0  0  0  0  0
  -30.4416  -12.6534   19.5121 C   0  0  0  0  0  0
  -29.5278  -12.5380   18.2684 C   0  0  0  0  0  0
  -28.0651  -12.3035   18.6882 C   0  0  0  0  0  0
  -27.6248  -13.2578   19.8282 C   0  0  2  0  0  0
  -28.6659  -13.3489   20.9663 C   0  0  0  0  0  0
  -25.2453  -13.8241   20.5673 C   0  0  0  0  0  0
  -24.1781  -13.0448   20.9214 C   0  0  0  0  0  0
  -24.6411  -11.6947   20.8733 C   0  0  0  0  0  0
  -23.9094  -10.4311   21.0398 C   0  0  0  0  0  0
  -24.3641   -9.4229   21.9186 C   0  0  0  0  0  0
  -23.6316   -8.2261   22.0767 C   0  0  0  0  0  0
  -22.4311   -8.0280   21.3549 C   0  0  0  0  0  0
  -21.9938   -9.0257   20.4664 C   0  0  0  0  0  0
  -22.7260  -10.2135   20.3067 C   0  0  0  0  0  0
  -21.6857   -6.0741   22.5283 C   0  0  0  0  0  0
  -21.4019   -6.5648   23.8212 C   0  0  0  0  0  0
  -21.3660   -5.6793   24.9176 C   0  0  0  0  0  0
  -21.6038   -4.3058   24.7218 C   0  0  0  0  0  0
  -21.8822   -3.8149   23.4345 C   0  0  0  0  0  0
  -21.9198   -4.6974   22.3401 C   0  0  0  0  0  0
  -22.7790  -13.5215   21.1872 C   0  0  0  0  0  0
  -22.1656   -4.2161   21.0977 F   0  0  0  0  0  0
  -21.5633   -3.4543   25.7736 F   0  0  0  0  0  0
  -29.9320  -13.7791   20.3589 N   0  0  0  0  0  0
  -26.2880  -12.9482   20.3215 N   0  0  0  0  0  0
  -25.9352  -11.6610   20.5738 N   0  0  0  0  0  0
  -22.0446  -12.8210   22.0434 N   0  0  0  0  0  0
  -25.4077  -15.1973   20.4088 N   0  0  0  0  0  0
  -31.7435  -15.0590   20.1521 O   0  0  0  0  0  0
  -21.6658   -6.8892   21.4254 O   0  0  0  0  0  0
  -22.3477  -14.5512   20.6703 O   0  0  0  0  0  0
  -24.6499  -31.8413   23.1814 C   0  0  0  0  0  0
  -25.9240  -32.4673   23.8258 C   0  0  1  0  0  0
  -27.2188  -27.0659   20.1571 C   0  0  0  0  0  0
  -25.5970  -33.8480   24.2169 N   0  0  0  0  0  0
  -23.4566  -30.4563   21.5321 C   0  0  2  0  0  0
  -24.9072  -28.8712   20.1120 C   0  0  0  0  0  0
  -22.7602  -29.4532   22.4868 C   0  0  0  0  0  0
  -18.0296  -28.1404   22.8468 C   0  0  0  0  0  0
  -24.1492  -36.7232   23.2643 C   0  0  0  0  0  0
  -26.0185  -30.6895   21.3922 C   0  0  0  0  0  0
  -26.0885  -29.2915   20.7382 C   0  0  0  0  0  0
  -27.2420  -28.4051   20.7472 C   0  0  0  0  0  0
  -26.0129  -26.7756   19.4784 C   0  0  0  0  0  0
  -24.8859  -27.6259   19.4690 C   0  0  0  0  0  0
  -23.6848  -29.7803   20.1556 C   0  0  0  0  0  0
  -25.4128  -36.3010   24.0311 C   0  0  1  0  0  0
  -20.5916  -28.3740   23.1228 C   0  0  2  0  0  0
  -20.6793  -26.9445   22.5406 C   0  0  0  0  0  0
  -19.5768  -26.6388   21.5216 C   0  0  0  0  0  0
  -18.1939  -26.7943   22.1618 C   0  0  0  0  0  0
  -19.1556  -28.8894   23.2832 C   0  0  0  0  0  0
  -18.9474  -30.1480   23.8867 C   0  0  0  0  0  0
  -17.6476  -30.6606   24.0556 C   0  0  0  0  0  0
  -25.9085  -34.9395   23.5049 C   0  0  0  0  0  0
  -16.5363  -29.9096   23.6338 C   0  0  0  0  0  0
  -16.7282  -28.6508   23.0370 C   0  0  0  0  0  0
  -26.4532  -31.6547   25.0709 C   0  0  0  0  0  0
  -25.3702  -31.3757   26.1396 C   0  0  0  0  0  0
  -27.0386  -30.2924   24.6323 C   0  0  0  0  0  0
  -27.6046  -32.4334   25.7499 C   0  0  0  0  0  0
  -27.5571  -37.1773   24.8472 C   0  0  0  0  0  0
  -21.4290  -29.3051   22.3596 N   0  0  0  0  0  0
  -26.4287  -37.3725   23.9405 N   0  0  0  0  0  0
  -24.7289  -31.0187   22.0890 N   0  0  0  0  0  0
  -23.4206  -28.8097   23.3059 O   0  0  0  0  0  0
  -28.2373  -26.0164   20.2010 O   0  0  0  0  0  0
  -26.5691  -34.8904   22.4636 O   0  0  0  0  0  0
  -23.5600  -32.1341   23.6979 O   0  0  0  0  0  0
  -31.7218  -19.5213   19.6329 C   0  0  0  0  0  0
  -31.3510  -18.1726   19.8647 C   0  0  0  0  0  0
  -30.8503  -20.6217   19.8273 C   0  0  0  0  0  0
  -29.1706  -19.0068   20.4873 C   0  0  0  0  0  0
  -30.0610  -17.8001   20.3081 C   0  0  0  0  0  0
  -29.5175  -20.4612   20.2619 C   0  0  0  0  0  0
  -27.9496  -24.4467   20.3621 C   0  0  0  0  0  0
  -29.0753  -23.1990   20.2248 C   0  0  0  0  0  0
  -29.7697  -16.2730   20.5128 N   0  0  0  0  0  0
  -26.8032  -24.0692   20.6160 O   0  0  0  0  0  0
  -28.6729  -21.6767   20.4195 O   0  0  0  0  0  0
  -31.4703  -12.8193   19.1900 H   0  0  0  0  0  0
  -30.4556  -11.7223   20.0797 H   0  0  0  0  0  0
  -29.8697  -11.7294   17.6213 H   0  0  0  0  0  0
  -29.5952  -13.4518   17.6749 H   0  0  0  0  0  0
  -27.9783  -11.2675   19.0174 H   0  0  0  0  0  0
  -27.4050  -12.4033   17.8274 H   0  0  0  0  0  0
  -27.5682  -14.2448   19.3674 H   0  0  0  0  0  0
  -28.7800  -12.3966   21.4864 H   0  0  0  0  0  0
  -28.3457  -14.0783   21.7120 H   0  0  0  0  0  0
  -25.2796   -9.5697   22.4751 H   0  0  0  0  0  0
  -24.0018   -7.4668   22.7504 H   0  0  0  0  0  0
  -21.0861   -8.8794   19.8976 H   0  0  0  0  0  0
  -22.3738  -10.9673   19.6168 H   0  0  0  0  0  0
  -21.2010   -7.6155   23.9719 H   0  0  0  0  0  0
  -21.1475   -6.0525   25.9075 H   0  0  0  0  0  0
  -22.0602   -2.7615   23.2842 H   0  0  0  0  0  0
  -22.4051  -11.9869   22.4805 H   0  0  0  0  0  0
  -21.1063  -13.1239   22.2639 H   0  0  0  0  0  0
  -24.6303  -15.8439   20.5095 H   0  0  0  0  0  0
  -26.2434  -15.6439   20.0535 H   0  0  0  0  0  0
  -26.7315  -32.5258   23.1001 H   0  0  0  0  0  0
  -25.0058  -33.9610   25.0273 H   0  0  0  0  0  0
  -22.7601  -31.2817   21.3719 H   0  0  0  0  0  0
  -23.3764  -35.9554   23.3292 H   0  0  0  0  0  0
  -24.3582  -36.8881   22.2062 H   0  0  0  0  0  0
  -23.7240  -37.6416   23.6696 H   0  0  0  0  0  0
  -26.1834  -31.4360   20.6144 H   0  0  0  0  0  0
  -26.8867  -30.7469   22.0364 H   0  0  0  0  0  0
  -28.1387  -28.7227   21.2596 H   0  0  0  0  0  0
  -25.9098  -25.8311   18.9641 H   0  0  0  0  0  0
  -23.9879  -27.2934   18.9665 H   0  0  0  0  0  0
  -23.8206  -30.5530   19.3990 H   0  0  0  0  0  0
  -22.7965  -29.2272   19.8457 H   0  0  0  0  0  0
  -25.1307  -36.1846   25.0804 H   0  0  0  0  0  0
  -20.9988  -28.3339   24.1359 H   0  0  0  0  0  0
  -20.5693  -26.2357   23.3627 H   0  0  0  0  0  0
  -21.6653  -26.7456   22.1195 H   0  0  0  0  0  0
  -19.6946  -25.6289   21.1263 H   0  0  0  0  0  0
  -19.6719  -27.3175   20.6724 H   0  0  0  0  0  0
  -17.4214  -26.6667   21.4019 H   0  0  0  0  0  0
  -18.0352  -26.0103   22.9032 H   0  0  0  0  0  0
  -19.7949  -30.7297   24.2231 H   0  0  0  0  0  0
  -17.5028  -31.6284   24.5166 H   0  0  0  0  0  0
  -15.5359  -30.3004   23.7684 H   0  0  0  0  0  0
  -15.8663  -28.0814   22.7138 H   0  0  0  0  0  0
  -24.5915  -30.7059   25.7732 H   0  0  0  0  0  0
  -24.8857  -32.2938   26.4731 H   0  0  0  0  0  0
  -25.7991  -30.9014   27.0230 H   0  0  0  0  0  0
  -26.3002  -29.6656   24.1306 H   0  0  0  0  0  0
  -27.3940  -29.7224   25.4918 H   0  0  0  0  0  0
  -27.8944  -30.4122   23.9674 H   0  0  0  0  0  0
  -27.2619  -33.3678   26.1963 H   0  0  0  0  0  0
  -28.3906  -32.6839   25.0354 H   0  0  0  0  0  0
  -28.0651  -31.8542   26.5515 H   0  0  0  0  0  0
  -28.2572  -38.0078   24.7497 H   0  0  0  0  0  0
  -28.1086  -36.2611   24.6318 H   0  0  0  0  0  0
  -27.2295  -37.1413   25.8876 H   0  0  0  0  0  0
  -20.9530  -29.8730   21.6727 H   0  0  0  0  0  0
  -26.0154  -38.2789   24.1419 H   0  0  0  0  0  0
  -32.7265  -19.7197   19.2838 H   0  0  0  0  0  0
  -32.0992  -17.4187   19.6790 H   0  0  0  0  0  0
  -31.2371  -21.6106   19.6207 H   0  0  0  0  0  0
  -28.1591  -18.8088   20.8119 H   0  0  0  0  0  0
  -29.8711  -23.4178   20.9367 H   0  0  0  0  0  0
  -29.5313  -23.2941   19.2395 H   0  0  0  0  0  0
  -28.8049  -16.0765   20.7358 H   0  0  0  0  0  0
  1 25  1  0  0  0
  1 30  2  0  0  0
  1 79  1  0  0  0
  2  3  1  0  0  0
  2 25  1  0  0  0
  2 82  1  0  0  0
  2 83  1  0  0  0
  3  4  1  0  0  0
  3 84  1  0  0  0
  3 85  1  0  0  0
  4  5  1  0  0  0
  4 86  1  0  0  0
  4 87  1  0  0  0
  5  6  1  0  0  0
  5 26  1  0  0  0
  5 88  1  0  0  0
  6 25  1  0  0  0
  6 89  1  0  0  0
  6 90  1  0  0  0
  7  8  2  0  0  0
  7 26  1  0  0  0
  7 29  1  0  0  0
  8  9  1  0  0  0
  8 22  1  0  0  0
  9 10  1  0  0  0
  9 27  2  0  0  0
 10 11  2  0  0  0
 10 15  1  0  0  0
 11 12  1  0  0  0
 11 91  1  0  0  0
 12 13  2  0  0  0
 12 92  1  0  0  0
 13 14  1  0  0  0
 13 31  1  0  0  0
 14 15  2  0  0  0
 14 93  1  0  0  0
 15 94  1  0  0  0
 16 17  2  0  0  0
 16 21  1  0  0  0
 16 31  1  0  0  0
 17 18  1  0  0  0
 17 95  1  0  0  0
 18 19  2  0  0  0
 18 96  1  0  0  0
 19 20  1  0  0  0
 19 24  1  0  0  0
 20 21  2  0  0  0
 20 97  1  0  0  0
 21 23  1  0  0  0
 22 28  1  0  0  0
 22 32  2  0  0  0
 26 27  1  0  0  0
 28 98  1  0  0  0
 28 99  1  0  0  0
 29100  1  0  0  0
 29101  1  0  0  0
 33 34  1  0  0  0
 33 66  1  0  0  0
 33 70  2  0  0  0
 34 36  1  0  0  0
 34 59  1  0  0  0
 34102  1  0  0  0
 35 44  2  0  0  0
 35 45  1  0  0  0
 35 68  1  0  0  0
 36 56  1  0  0  0
 36103  1  0  0  0
 37 39  1  0  0  0
 37 47  1  0  0  0
 37 66  1  0  0  0
 37104  1  0  0  0
 38 43  2  0  0  0
 38 46  1  0  0  0
 38 47  1  0  0  0
 39 64  1  0  0  0
 39 67  2  0  0  0
 40 52  1  0  0  0
 40 53  2  0  0  0
 40 58  1  0  0  0
 41105  1  0  0  0
 41106  1  0  0  0
 41107  1  0  0  0
 41 48  1  0  0  0
 42 43  1  0  0  0
 42 66  1  0  0  0
 42108  1  0  0  0
 42109  1  0  0  0
 43 44  1  0  0  0
 44110  1  0  0  0
 45 46  2  0  0  0
 45111  1  0  0  0
 46112  1  0  0  0
 47113  1  0  0  0
 47114  1  0  0  0
 48 56  1  0  0  0
 48 65  1  0  0  0
 48115  1  0  0  0
 49 50  1  0  0  0
 49 53  1  0  0  0
 49 64  1  0  0  0
 49116  1  0  0  0
 50 51  1  0  0  0
 50117  1  0  0  0
 50118  1  0  0  0
 51 52  1  0  0  0
 51119  1  0  0  0
 51120  1  0  0  0
 52121  1  0  0  0
 52122  1  0  0  0
 53 54  1  0  0  0
 54 55  2  0  0  0
 54123  1  0  0  0
 55 57  1  0  0  0
 55124  1  0  0  0
 56 69  2  0  0  0
 57 58  2  0  0  0
 57125  1  0  0  0
 58126  1  0  0  0
 59 60  1  0  0  0
 59 61  1  0  0  0
 59 62  1  0  0  0
 60127  1  0  0  0
 60128  1  0  0  0
 60129  1  0  0  0
 61130  1  0  0  0
 61131  1  0  0  0
 61132  1  0  0  0
 62133  1  0  0  0
 62134  1  0  0  0
 62135  1  0  0  0
 63 65  1  0  0  0
 63136  1  0  0  0
 63137  1  0  0  0
 63138  1  0  0  0
 64139  1  0  0  0
 65140  1  0  0  0
 68 77  1  0  0  0
 71 72  2  0  0  0
 71 73  1  0  0  0
 71141  1  0  0  0
 72 75  1  0  0  0
 72142  1  0  0  0
 73 76  2  0  0  0
 73143  1  0  0  0
 74 75  2  0  0  0
 74 76  1  0  0  0
 74144  1  0  0  0
 75 79  1  0  0  0
 76 81  1  0  0  0
 77 78  1  0  0  0
 77 80  2  0  0  0
 78 81  1  0  0  0
 78145  1  0  0  0
 78146  1  0  0  0
 79147  1  0  0  0
M  ISO  4   1 100  68 101  77 101  79 100
M  END
> <chiral flag>
0

> <version>
0

> <s_m_source_file>
/data/baiqing/PycharmProjects/Reinvent-master-3.2/result/LINK_invent/BTK/process_docking_weight1_custom_product_contain_oxygen_bond_distance_aromatic_linkinvent_7_9_3/rearranged_h_0000.sdf

> <i_m_source_file_index>
88

> <r_mmod_Potential_Energy-OPLS-2005>
702.54345703125

> <r_mmod_Stretch_Energy-OPLS-2005>
369.446868896484

> <r_mmod_Bend_Energy-OPLS-2005>
273.729644775391

> <r_mmod_Torsional_Energy-OPLS-2005>
207.29133605957

> <r_mmod_Improper_Torsional_Energy-OPLS-2005>
3.76115345954895

> <r_mmod_Van_der_Waal_Energy-OPLS-2005>
132.625640869141

> <r_mmod_Electrostatic_Energy-OPLS-2005>
-323.328735351562

> <r_mmod_Solvation_Energy-OPLS-2005>
-226.943069458008

> <b_mmod_Minimization_Converged-OPLS-2005>
0

> <r_mmod_RMS_Derivative-OPLS-2005>
3.03872990608215

$$$$
88
                    3D
 Structure written by MMmdl.
181189  0  0  1  0            999 V2000
  -30.7188  -14.4109   20.5848 C   0  0  0  0  0  0
  -30.4150  -12.2659   19.4230 C   0  0  0  0  0  0
  -29.4979  -12.5126   18.2091 C   0  0  0  0  0  0
  -28.0127  -12.4037   18.6105 C   0  0  0  0  0  0
  -27.6725  -13.2085   19.8942 C   0  0  2  0  0  0
  -28.7108  -12.9444   21.0095 C   0  0  0  0  0  0
  -25.2610  -13.8182   20.5698 C   0  0  0  0  0  0
  -24.1864  -13.0443   20.9151 C   0  0  0  0  0  0
  -24.6426  -11.6913   20.8722 C   0  0  0  0  0  0
  -23.9086  -10.4297   21.0388 C   0  0  0  0  0  0
  -24.3630   -9.4220   21.9175 C   0  0  0  0  0  0
  -23.6311   -8.2242   22.0748 C   0  0  0  0  0  0
  -22.4297   -8.0272   21.3531 C   0  0  0  0  0  0
  -21.9931   -9.0250   20.4637 C   0  0  0  0  0  0
  -22.7250  -10.2137   20.3052 C   0  0  0  0  0  0
  -21.6868   -6.0735   22.5291 C   0  0  0  0  0  0
  -21.4012   -6.5642   23.8218 C   0  0  0  0  0  0
  -21.3671   -5.6801   24.9180 C   0  0  0  0  0  0
  -21.6047   -4.3058   24.7230 C   0  0  0  0  0  0
  -21.8822   -3.8147   23.4347 C   0  0  0  0  0  0
  -21.9192   -4.6960   22.3406 C   0  0  0  0  0  0
  -22.7877  -13.5219   21.1806 C   0  0  0  0  0  0
  -22.1659   -4.2137   21.0986 F   0  0  0  0  0  0
  -21.5631   -3.4540   25.7732 F   0  0  0  0  0  0
  -30.0539  -13.2331   20.4702 N   0  0  0  0  0  0
  -26.3088  -12.9360   20.3451 N   0  0  0  0  0  0
  -25.9355  -11.6510   20.5789 N   0  0  0  0  0  0
  -22.0532  -12.8211   22.0379 N   0  0  0  0  0  0
  -25.4310  -15.1900   20.4109 N   0  0  0  0  0  0
  -31.7858  -14.6409   20.0122 O   0  0  0  0  0  0
  -21.6647   -6.8882   21.4251 O   0  0  0  0  0  0
  -22.3557  -14.5528   20.6667 O   0  0  0  0  0  0
  -24.6107  -31.8722   23.2140 C   0  0  0  0  0  0
  -25.9040  -32.4814   23.8402 C   0  0  1  0  0  0
  -27.2149  -27.4685   20.0783 C   0  0  0  0  0  0
  -25.5924  -33.8611   24.2356 N   0  0  0  0  0  0
  -23.3950  -30.5010   21.5500 C   0  0  2  0  0  0
  -24.8361  -28.9722   20.1154 C   0  0  0  0  0  0
  -22.7384  -29.4706   22.4950 C   0  0  0  0  0  0
  -18.0276  -28.1373   22.8484 C   0  0  0  0  0  0
  -24.1488  -36.7276   23.2643 C   0  0  0  0  0  0
  -25.9224  -30.8443   21.3676 C   0  0  0  0  0  0
  -25.9940  -29.4826   20.7143 C   0  0  0  0  0  0
  -27.1895  -28.7337   20.7027 C   0  0  0  0  0  0
  -26.0476  -26.9757   19.4617 C   0  0  0  0  0  0
  -24.8532  -27.7143   19.4907 C   0  0  0  0  0  0
  -23.6031  -29.8421   20.1607 C   0  0  0  0  0  0
  -25.4117  -36.3095   24.0341 C   0  0  1  0  0  0
  -20.5866  -28.3675   23.1281 C   0  0  2  0  0  0
  -20.6768  -26.9405   22.5405 C   0  0  0  0  0  0
  -19.5747  -26.6391   21.5196 C   0  0  0  0  0  0
  -18.1929  -26.7927   22.1610 C   0  0  0  0  0  0
  -19.1528  -28.8842   23.2880 C   0  0  0  0  0  0
  -18.9470  -30.1442   23.8891 C   0  0  0  0  0  0
  -17.6477  -30.6582   24.0571 C   0  0  0  0  0  0
  -25.9042  -34.9455   23.5138 C   0  0  0  0  0  0
  -16.5361  -29.9093   23.6328 C   0  0  0  0  0  0
  -16.7271  -28.6506   23.0359 C   0  0  0  0  0  0
  -26.4519  -31.6533   25.0669 C   0  0  0  0  0  0
  -25.3832  -31.3565   26.1428 C   0  0  0  0  0  0
  -27.0349  -30.2985   24.5980 C   0  0  0  0  0  0
  -27.6116  -32.4232   25.7432 C   0  0  0  0  0  0
  -27.5571  -37.1801   24.8478 C   0  0  0  0  0  0
  -21.4131  -29.3020   22.3658 N   0  0  0  0  0  0
  -26.4292  -37.3790   23.9412 N   0  0  0  0  0  0
  -24.6595  -31.0878   22.1009 N   0  0  0  0  0  0
  -23.4175  -28.8265   23.3005 O   0  0  0  0  0  0
  -28.3657  -26.7245   20.0396 O   0  0  0  0  0  0
  -26.5593  -34.8906   22.4692 O   0  0  0  0  0  0
  -23.5317  -32.1464   23.7573 O   0  0  0  0  0  0
  -27.0598  -22.6798   20.2498 C   0  0  0  0  0  0
  -27.5402  -23.9966   20.1672 C   0  0  0  0  0  0
  -27.1426  -22.0079   21.4763 C   0  0  0  0  0  0
  -28.0774  -24.6106   21.3171 C   0  0  0  0  0  0
  -28.1328  -23.8439   22.5078 C   0  0  0  0  0  0
  -28.6484  -26.0294   21.2514 C   0  0  0  0  0  0
  -28.6914  -24.3901   23.8227 C   0  0  0  0  0  0
  -29.9563  -16.7705   20.8056 C   0  0  0  0  0  0
  -31.2811  -17.5764   20.7555 C   0  0  0  0  0  0
  -31.0364  -23.8502   23.8594 C   0  0  0  0  0  0
  -31.4161  -22.8681   22.7404 C   0  0  0  0  0  0
  -31.2733  -18.0641   18.3930 C   0  0  0  0  0  0
  -31.8294  -19.1004   17.4057 C   0  0  0  0  0  0
  -31.3405  -22.4953   20.4114 C   0  0  0  0  0  0
  -30.5928  -22.8950   19.1314 C   0  0  0  0  0  0
  -31.4896  -21.2395   16.4644 C   0  0  0  0  0  0
  -30.9412  -22.6334   16.7935 C   0  0  0  0  0  0
  -27.6696  -22.5725   22.5799 N   0  0  0  0  0  0
  -30.0522  -15.3710   21.2371 N   0  0  0  0  0  0
  -29.7357  -23.5978   24.3858 O   0  0  0  0  0  0
  -31.2820  -18.5735   19.7309 O   0  0  0  0  0  0
  -30.9555  -23.3450   21.4850 O   0  0  0  0  0  0
  -31.0376  -20.2836   17.4175 O   0  0  0  0  0  0
  -31.4908  -23.0532   18.0391 O   0  0  0  0  0  0
  -31.4630  -12.3401   19.1275 H   0  0  0  0  0  0
  -30.2839  -11.2488   19.7946 H   0  0  0  0  0  0
  -29.7230  -11.8009   17.4129 H   0  0  0  0  0  0
  -29.6978  -13.5027   17.7981 H   0  0  0  0  0  0
  -27.7808  -11.3488   18.7571 H   0  0  0  0  0  0
  -27.3814  -12.7395   17.7869 H   0  0  0  0  0  0
  -27.7319  -14.2670   19.6388 H   0  0  0  0  0  0
  -28.6654  -11.9014   21.3243 H   0  0  0  0  0  0
  -28.4757  -13.5250   21.9030 H   0  0  0  0  0  0
  -25.2771   -9.5697   22.4754 H   0  0  0  0  0  0
  -24.0015   -7.4651   22.7486 H   0  0  0  0  0  0
  -21.0849   -8.8780   19.8959 H   0  0  0  0  0  0
  -22.3705  -10.9676   19.6164 H   0  0  0  0  0  0
  -21.2000   -7.6151   23.9713 H   0  0  0  0  0  0
  -21.1497   -6.0527   25.9084 H   0  0  0  0  0  0
  -22.0587   -2.7606   23.2857 H   0  0  0  0  0  0
  -22.4150  -11.9864   22.4750 H   0  0  0  0  0  0
  -21.1165  -13.1257   22.2620 H   0  0  0  0  0  0
  -24.6565  -15.8403   20.4932 H   0  0  0  0  0  0
  -26.2888  -15.6334   20.1066 H   0  0  0  0  0  0
  -26.7102  -32.5549   23.1160 H   0  0  0  0  0  0
  -25.0134  -33.9772   25.0543 H   0  0  0  0  0  0
  -22.6822  -31.3173   21.4182 H   0  0  0  0  0  0
  -23.3738  -35.9617   23.3346 H   0  0  0  0  0  0
  -24.3582  -36.8842   22.2047 H   0  0  0  0  0  0
  -23.7257  -37.6501   23.6632 H   0  0  0  0  0  0
  -26.0505  -31.6146   20.6054 H   0  0  0  0  0  0
  -26.8060  -30.8840   21.9911 H   0  0  0  0  0  0
  -28.0860  -29.1286   21.1582 H   0  0  0  0  0  0
  -26.0455  -26.0269   18.9493 H   0  0  0  0  0  0
  -23.9627  -27.3229   19.0164 H   0  0  0  0  0  0
  -23.7297  -30.6239   19.4106 H   0  0  0  0  0  0
  -22.7240  -29.2734   19.8508 H   0  0  0  0  0  0
  -25.1311  -36.1957   25.0837 H   0  0  0  0  0  0
  -20.9990  -28.3271   24.1393 H   0  0  0  0  0  0
  -20.5675  -26.2297   23.3608 H   0  0  0  0  0  0
  -21.6642  -26.7444   22.1205 H   0  0  0  0  0  0
  -19.6905  -25.6314   21.1195 H   0  0  0  0  0  0
  -19.6674  -27.3220   20.6738 H   0  0  0  0  0  0
  -17.4212  -26.6675   21.3999 H   0  0  0  0  0  0
  -18.0323  -26.0058   22.8991 H   0  0  0  0  0  0
  -19.7953  -30.7258   24.2237 H   0  0  0  0  0  0
  -17.5045  -31.6255   24.5188 H   0  0  0  0  0  0
  -15.5366  -30.3022   23.7632 H   0  0  0  0  0  0
  -15.8667  -28.0827   22.7085 H   0  0  0  0  0  0
  -24.6075  -30.6832   25.7758 H   0  0  0  0  0  0
  -24.8944  -32.2675   26.4878 H   0  0  0  0  0  0
  -25.8242  -30.8762   27.0171 H   0  0  0  0  0  0
  -26.2825  -29.6693   24.1202 H   0  0  0  0  0  0
  -27.4345  -29.7249   25.4356 H   0  0  0  0  0  0
  -27.8581  -30.4309   23.8952 H   0  0  0  0  0  0
  -27.2756  -33.3546   26.1997 H   0  0  0  0  0  0
  -28.3928  -32.6744   25.0243 H   0  0  0  0  0  0
  -28.0776  -31.8350   26.5352 H   0  0  0  0  0  0
  -28.2633  -38.0059   24.7514 H   0  0  0  0  0  0
  -28.1022  -36.2598   24.6337 H   0  0  0  0  0  0
  -27.2276  -37.1479   25.8878 H   0  0  0  0  0  0
  -20.9286  -29.8698   21.6842 H   0  0  0  0  0  0
  -26.0161  -38.2855   24.1442 H   0  0  0  0  0  0
  -26.6414  -22.1878   19.3847 H   0  0  0  0  0  0
  -27.5171  -24.5041   19.2161 H   0  0  0  0  0  0
  -26.7795  -20.9948   21.5708 H   0  0  0  0  0  0
  -29.7310  -25.9631   21.3488 H   0  0  0  0  0  0
  -28.2913  -26.6134   22.1007 H   0  0  0  0  0  0
  -27.8650  -24.3771   24.5340 H   0  0  0  0  0  0
  -29.0000  -25.4323   23.7666 H   0  0  0  0  0  0
  -29.4729  -16.7493   19.8304 H   0  0  0  0  0  0
  -29.2533  -17.2908   21.4560 H   0  0  0  0  0  0
  -32.1694  -16.9585   20.6411 H   0  0  0  0  0  0
  -31.4121  -18.0838   21.7123 H   0  0  0  0  0  0
  -31.1823  -24.8883   23.5541 H   0  0  0  0  0  0
  -31.7268  -23.6828   24.6870 H   0  0  0  0  0  0
  -31.0134  -21.8765   22.9578 H   0  0  0  0  0  0
  -32.5026  -22.7739   22.7014 H   0  0  0  0  0  0
  -31.8794  -17.1580   18.3281 H   0  0  0  0  0  0
  -30.2621  -17.7940   18.0897 H   0  0  0  0  0  0
  -31.8276  -18.6705   16.4020 H   0  0  0  0  0  0
  -32.8670  -19.3328   17.6506 H   0  0  0  0  0  0
  -32.4189  -22.5667   20.2679 H   0  0  0  0  0  0
  -31.1184  -21.4521   20.6451 H   0  0  0  0  0  0
  -30.0887  -23.8527   19.2625 H   0  0  0  0  0  0
  -29.8186  -22.1509   18.9389 H   0  0  0  0  0  0
  -32.5791  -21.2935   16.4445 H   0  0  0  0  0  0
  -31.1657  -20.9363   15.4679 H   0  0  0  0  0  0
  -29.8507  -22.6693   16.7675 H   0  0  0  0  0  0
  -31.2781  -23.3275   16.0232 H   0  0  0  0  0  0
  -29.2658  -15.0306   21.7725 H   0  0  0  0  0  0
  1 25  1  0  0  0
  1 30  2  0  0  0
  1 89  1  0  0  0
  2  3  1  0  0  0
  2 25  1  0  0  0
  2 95  1  0  0  0
  2 96  1  0  0  0
  3  4  1  0  0  0
  3 97  1  0  0  0
  3 98  1  0  0  0
  4  5  1  0  0  0
  4 99  1  0  0  0
  4100  1  0  0  0
  5  6  1  0  0  0
  5 26  1  0  0  0
  5101  1  0  0  0
  6 25  1  0  0  0
  6102  1  0  0  0
  6103  1  0  0  0
  7  8  2  0  0  0
  7 26  1  0  0  0
  7 29  1  0  0  0
  8  9  1  0  0  0
  8 22  1  0  0  0
  9 10  1  0  0  0
  9 27  2  0  0  0
 10 11  2  0  0  0
 10 15  1  0  0  0
 11 12  1  0  0  0
 11104  1  0  0  0
 12 13  2  0  0  0
 12105  1  0  0  0
 13 14  1  0  0  0
 13 31  1  0  0  0
 14 15  2  0  0  0
 14106  1  0  0  0
 15107  1  0  0  0
 16 17  2  0  0  0
 16 21  1  0  0  0
 16 31  1  0  0  0
 17 18  1  0  0  0
 17108  1  0  0  0
 18 19  2  0  0  0
 18109  1  0  0  0
 19 20  1  0  0  0
 19 24  1  0  0  0
 20 21  2  0  0  0
 20110  1  0  0  0
 21 23  1  0  0  0
 22 28  1  0  0  0
 22 32  2  0  0  0
 26 27  1  0  0  0
 28111  1  0  0  0
 28112  1  0  0  0
 29113  1  0  0  0
 29114  1  0  0  0
 33 34  1  0  0  0
 33 66  1  0  0  0
 33 70  2  0  0  0
 34 36  1  0  0  0
 34 59  1  0  0  0
 34115  1  0  0  0
 35 44  2  0  0  0
 35 45  1  0  0  0
 35 68  1  0  0  0
 36 56  1  0  0  0
 36116  1  0  0  0
 37 39  1  0  0  0
 37 47  1  0  0  0
 37 66  1  0  0  0
 37117  1  0  0  0
 38 43  2  0  0  0
 38 46  1  0  0  0
 38 47  1  0  0  0
 39 64  1  0  0  0
 39 67  2  0  0  0
 40 52  1  0  0  0
 40 53  2  0  0  0
 40 58  1  0  0  0
 41118  1  0  0  0
 41119  1  0  0  0
 41120  1  0  0  0
 41 48  1  0  0  0
 42 43  1  0  0  0
 42 66  1  0  0  0
 42121  1  0  0  0
 42122  1  0  0  0
 43 44  1  0  0  0
 44123  1  0  0  0
 45 46  2  0  0  0
 45124  1  0  0  0
 46125  1  0  0  0
 47126  1  0  0  0
 47127  1  0  0  0
 48 56  1  0  0  0
 48 65  1  0  0  0
 48128  1  0  0  0
 49 50  1  0  0  0
 49 53  1  0  0  0
 49 64  1  0  0  0
 49129  1  0  0  0
 50 51  1  0  0  0
 50130  1  0  0  0
 50131  1  0  0  0
 51 52  1  0  0  0
 51132  1  0  0  0
 51133  1  0  0  0
 52134  1  0  0  0
 52135  1  0  0  0
 53 54  1  0  0  0
 54 55  2  0  0  0
 54136  1  0  0  0
 55 57  1  0  0  0
 55137  1  0  0  0
 56 69  2  0  0  0
 57 58  2  0  0  0
 57138  1  0  0  0
 58139  1  0  0  0
 59 60  1  0  0  0
 59 61  1  0  0  0
 59 62  1  0  0  0
 60140  1  0  0  0
 60141  1  0  0  0
 60142  1  0  0  0
 61143  1  0  0  0
 61144  1  0  0  0
 61145  1  0  0  0
 62146  1  0  0  0
 62147  1  0  0  0
 62148  1  0  0  0
 63 65  1  0  0  0
 63149  1  0  0  0
 63150  1  0  0  0
 63151  1  0  0  0
 64152  1  0  0  0
 65153  1  0  0  0
 68 76  1  0  0  0
 71 72  2  0  0  0
 71 73  1  0  0  0
 71154  1  0  0  0
 72 74  1  0  0  0
 72155  1  0  0  0
 73 88  2  0  0  0
 73156  1  0  0  0
 74 75  2  0  0  0
 74 76  1  0  0  0
 75 77  1  0  0  0
 75 88  1  0  0  0
 76157  1  0  0  0
 76158  1  0  0  0
 77 90  1  0  0  0
 77159  1  0  0  0
 77160  1  0  0  0
 78 79  1  0  0  0
 78 89  1  0  0  0
 78161  1  0  0  0
 78162  1  0  0  0
 79 91  1  0  0  0
 79163  1  0  0  0
 79164  1  0  0  0
 80 81  1  0  0  0
 80 90  1  0  0  0
 80165  1  0  0  0
 80166  1  0  0  0
 81 92  1  0  0  0
 81167  1  0  0  0
 81168  1  0  0  0
 82 83  1  0  0  0
 82 91  1  0  0  0
 82169  1  0  0  0
 82170  1  0  0  0
 83 93  1  0  0  0
 83171  1  0  0  0
 83172  1  0  0  0
 84 85  1  0  0  0
 84 92  1  0  0  0
 84173  1  0  0  0
 84174  1  0  0  0
 85 94  1  0  0  0
 85175  1  0  0  0
 85176  1  0  0  0
 86 87  1  0  0  0
 86 93  1  0  0  0
 86177  1  0  0  0
 86178  1  0  0  0
 87 94  1  0  0  0
 87179  1  0  0  0
 87180  1  0  0  0
 89181  1  0  0  0
M  ISO  4   1 100  68 101  76 101  89 100
M  END
> <chiral flag>
0

> <version>
0

> <s_m_source_file>
/data/baiqing/PycharmProjects/Reinvent-master-3.2/result/LINK_invent/BTK/process_docking_weight1_custom_product_contain_oxygen_bond_distance_aromatic_linkinvent_7_9_3/rearranged_h_0000.sdf

> <i_m_source_file_index>
89

> <r_mmod_Potential_Energy-OPLS-2005>
-172.839416503906

> <r_mmod_Stretch_Energy-OPLS-2005>
35.5549736022949

> <r_mmod_Bend_Energy-OPLS-2005>
105.39427947998

> <r_mmod_Torsional_Energy-OPLS-2005>
272.616851806641

> <r_mmod_Improper_Torsional_Energy-OPLS-2005>
5.86506509780884

> <r_mmod_Van_der_Waal_Energy-OPLS-2005>
149.885498046875

> <r_mmod_Electrostatic_Energy-OPLS-2005>
-494.864990234375

> <r_mmod_Solvation_Energy-OPLS-2005>
-255.962615966797

> <b_mmod_Minimization_Converged-OPLS-2005>
0

> <r_mmod_RMS_Derivative-OPLS-2005>
3.14316701889038

$$$$
89
                    3D
 Structure written by MMmdl.
150157  0  0  1  0            999 V2000
  -30.6623  -14.5678   20.5389 C   0  0  0  0  0  0
  -30.4350  -12.3358   19.4355 C   0  0  0  0  0  0
  -29.5045  -12.5042   18.2151 C   0  0  0  0  0  0
  -28.0242  -12.3551   18.6246 C   0  0  0  0  0  0
  -27.6553  -13.2127   19.8658 C   0  0  2  0  0  0
  -28.6896  -13.0276   20.9947 C   0  0  0  0  0  0
  -25.2564  -13.8171   20.5672 C   0  0  0  0  0  0
  -24.1822  -13.0438   20.9165 C   0  0  0  0  0  0
  -24.6384  -11.6906   20.8716 C   0  0  0  0  0  0
  -23.9054  -10.4293   21.0397 C   0  0  0  0  0  0
  -24.3613   -9.4212   21.9179 C   0  0  0  0  0  0
  -23.6292   -8.2244   22.0753 C   0  0  0  0  0  0
  -22.4273   -8.0281   21.3544 C   0  0  0  0  0  0
  -21.9903   -9.0249   20.4647 C   0  0  0  0  0  0
  -22.7225  -10.2130   20.3050 C   0  0  0  0  0  0
  -21.6854   -6.0736   22.5277 C   0  0  0  0  0  0
  -21.4014   -6.5641   23.8209 C   0  0  0  0  0  0
  -21.3658   -5.6795   24.9174 C   0  0  0  0  0  0
  -21.6045   -4.3056   24.7227 C   0  0  0  0  0  0
  -21.8818   -3.8148   23.4347 C   0  0  0  0  0  0
  -21.9194   -4.6964   22.3403 C   0  0  0  0  0  0
  -22.7848  -13.5231   21.1849 C   0  0  0  0  0  0
  -22.1662   -4.2148   21.0980 F   0  0  0  0  0  0
  -21.5630   -3.4539   25.7740 F   0  0  0  0  0  0
  -30.0167  -13.3202   20.4419 N   0  0  0  0  0  0
  -26.2986  -12.9346   20.3304 N   0  0  0  0  0  0
  -25.9306  -11.6499   20.5725 N   0  0  0  0  0  0
  -22.0507  -12.8213   22.0411 N   0  0  0  0  0  0
  -25.4301  -15.1894   20.4127 N   0  0  0  0  0  0
  -31.7993  -14.7981   20.1220 O   0  0  0  0  0  0
  -21.6643   -6.8875   21.4237 O   0  0  0  0  0  0
  -22.3524  -14.5537   20.6710 O   0  0  0  0  0  0
  -24.6196  -31.8641   23.2038 C   0  0  0  0  0  0
  -25.9069  -32.4800   23.8355 C   0  0  1  0  0  0
  -27.2335  -27.3805   20.1159 C   0  0  0  0  0  0
  -25.5913  -33.8600   24.2296 N   0  0  0  0  0  0
  -23.4102  -30.4847   21.5456 C   0  0  2  0  0  0
  -24.8576  -28.9363   20.1192 C   0  0  0  0  0  0
  -22.7435  -29.4644   22.4971 C   0  0  0  0  0  0
  -18.0279  -28.1374   22.8493 C   0  0  0  0  0  0
  -24.1490  -36.7307   23.2641 C   0  0  0  0  0  0
  -25.9429  -30.8139   21.3626 C   0  0  0  0  0  0
  -26.0207  -29.4416   20.7140 C   0  0  0  0  0  0
  -27.2143  -28.6747   20.7000 C   0  0  0  0  0  0
  -26.0526  -26.8966   19.5178 C   0  0  0  0  0  0
  -24.8712  -27.6658   19.5151 C   0  0  0  0  0  0
  -23.6221  -29.8102   20.1634 C   0  0  0  0  0  0
  -25.4113  -36.3099   24.0333 C   0  0  1  0  0  0
  -20.5874  -28.3672   23.1306 C   0  0  2  0  0  0
  -20.6772  -26.9404   22.5416 C   0  0  0  0  0  0
  -19.5750  -26.6383   21.5214 C   0  0  0  0  0  0
  -18.1927  -26.7921   22.1624 C   0  0  0  0  0  0
  -19.1528  -28.8839   23.2897 C   0  0  0  0  0  0
  -18.9457  -30.1446   23.8908 C   0  0  0  0  0  0
  -17.6460  -30.6583   24.0563 C   0  0  0  0  0  0
  -25.9047  -34.9466   23.5115 C   0  0  0  0  0  0
  -16.5351  -29.9083   23.6325 C   0  0  0  0  0  0
  -16.7267  -28.6497   23.0349 C   0  0  0  0  0  0
  -26.4478  -31.6584   25.0699 C   0  0  0  0  0  0
  -25.3731  -31.3693   26.1437 C   0  0  0  0  0  0
  -27.0314  -30.3025   24.6095 C   0  0  0  0  0  0
  -27.6055  -32.4297   25.7465 C   0  0  0  0  0  0
  -27.5577  -37.1809   24.8465 C   0  0  0  0  0  0
  -21.4159  -29.3038   22.3710 N   0  0  0  0  0  0
  -26.4292  -37.3789   23.9407 N   0  0  0  0  0  0
  -24.6760  -31.0702   22.0954 N   0  0  0  0  0  0
  -23.4185  -28.8195   23.3037 O   0  0  0  0  0  0
  -28.3900  -26.6187   20.0764 O   0  0  0  0  0  0
  -26.5609  -34.8926   22.4679 O   0  0  0  0  0  0
  -23.5377  -32.1411   23.7408 O   0  0  0  0  0  0
  -28.3956  -25.3422   20.7774 C   0  0  0  0  0  0
  -30.2206  -16.9199   21.2653 C   0  0  0  0  0  0
  -28.1547  -24.0250   19.9564 C   0  0  0  0  0  0
  -29.7994  -17.9943   20.1999 C   0  0  0  0  0  0
  -28.3761  -21.5706   20.0436 C   0  0  0  0  0  0
  -29.4044  -20.3949   19.8226 C   0  0  0  0  0  0
  -29.8140  -15.5466   21.0316 O   0  0  0  0  0  0
  -28.9132  -22.8682   20.4184 O   0  0  0  0  0  0
  -29.3562  -19.2724   20.7454 O   0  0  0  0  0  0
  -31.4780  -12.4671   19.1420 H   0  0  0  0  0  0
  -30.3582  -11.3276   19.8447 H   0  0  0  0  0  0
  -29.7545  -11.7712   17.4468 H   0  0  0  0  0  0
  -29.6620  -13.4856   17.7644 H   0  0  0  0  0  0
  -27.8459  -11.3006   18.8383 H   0  0  0  0  0  0
  -27.3742  -12.6084   17.7862 H   0  0  0  0  0  0
  -27.6910  -14.2561   19.5511 H   0  0  0  0  0  0
  -28.6684  -12.0027   21.3675 H   0  0  0  0  0  0
  -28.4502  -13.6602   21.8509 H   0  0  0  0  0  0
  -25.2760   -9.5695   22.4749 H   0  0  0  0  0  0
  -24.0008   -7.4637   22.7470 H   0  0  0  0  0  0
  -21.0834   -8.8759   19.8953 H   0  0  0  0  0  0
  -22.3677  -10.9667   19.6156 H   0  0  0  0  0  0
  -21.2001   -7.6148   23.9709 H   0  0  0  0  0  0
  -21.1483   -6.0529   25.9075 H   0  0  0  0  0  0
  -22.0599   -2.7610   23.2849 H   0  0  0  0  0  0
  -22.4133  -11.9863   22.4772 H   0  0  0  0  0  0
  -21.1129  -13.1233   22.2644 H   0  0  0  0  0  0
  -24.6714  -15.8514   20.5348 H   0  0  0  0  0  0
  -26.2984  -15.6278   20.1313 H   0  0  0  0  0  0
  -26.7140  -32.5497   23.1114 H   0  0  0  0  0  0
  -25.0073  -33.9747   25.0447 H   0  0  0  0  0  0
  -22.7016  -31.3029   21.4010 H   0  0  0  0  0  0
  -23.3746  -35.9646   23.3312 H   0  0  0  0  0  0
  -24.3580  -36.8914   22.2053 H   0  0  0  0  0  0
  -23.7247  -37.6519   23.6648 H   0  0  0  0  0  0
  -26.0593  -31.5749   20.5892 H   0  0  0  0  0  0
  -26.8295  -30.8706   21.9826 H   0  0  0  0  0  0
  -28.1163  -29.0660   21.1500 H   0  0  0  0  0  0
  -26.0464  -25.9255   19.0441 H   0  0  0  0  0  0
  -23.9780  -27.2726   19.0493 H   0  0  0  0  0  0
  -23.7343  -30.5818   19.4011 H   0  0  0  0  0  0
  -22.7442  -29.2328   19.8671 H   0  0  0  0  0  0
  -25.1288  -36.1964   25.0825 H   0  0  0  0  0  0
  -20.9966  -28.3243   24.1425 H   0  0  0  0  0  0
  -20.5682  -26.2279   23.3608 H   0  0  0  0  0  0
  -21.6642  -26.7447   22.1204 H   0  0  0  0  0  0
  -19.6919  -25.6298   21.1232 H   0  0  0  0  0  0
  -19.6688  -27.3206   20.6754 H   0  0  0  0  0  0
  -17.4201  -26.6673   21.4022 H   0  0  0  0  0  0
  -18.0327  -26.0053   22.9009 H   0  0  0  0  0  0
  -19.7936  -30.7257   24.2280 H   0  0  0  0  0  0
  -17.5015  -31.6264   24.5164 H   0  0  0  0  0  0
  -15.5351  -30.2991   23.7641 H   0  0  0  0  0  0
  -15.8665  -28.0821   22.7058 H   0  0  0  0  0  0
  -24.5915  -30.7032   25.7759 H   0  0  0  0  0  0
  -24.8904  -32.2846   26.4878 H   0  0  0  0  0  0
  -25.8071  -30.8861   27.0199 H   0  0  0  0  0  0
  -26.2862  -29.6782   24.1152 H   0  0  0  0  0  0
  -27.4082  -29.7267   25.4559 H   0  0  0  0  0  0
  -27.8695  -30.4332   23.9243 H   0  0  0  0  0  0
  -27.2686  -33.3594   26.2060 H   0  0  0  0  0  0
  -28.3858  -32.6862   25.0286 H   0  0  0  0  0  0
  -28.0730  -31.8404   26.5364 H   0  0  0  0  0  0
  -28.2608  -38.0096   24.7507 H   0  0  0  0  0  0
  -28.1058  -36.2628   24.6294 H   0  0  0  0  0  0
  -27.2289  -37.1463   25.8866 H   0  0  0  0  0  0
  -20.9330  -29.8751   21.6917 H   0  0  0  0  0  0
  -26.0182  -38.2870   24.1397 H   0  0  0  0  0  0
  -29.3934  -25.2724   21.2103 H   0  0  0  0  0  0
  -27.7208  -25.3738   21.6343 H   0  0  0  0  0  0
  -29.7504  -17.1971   22.2086 H   0  0  0  0  0  0
  -31.2937  -16.9791   21.4540 H   0  0  0  0  0  0
  -28.4258  -24.1942   18.9136 H   0  0  0  0  0  0
  -27.0859  -23.8055   19.9637 H   0  0  0  0  0  0
  -28.9845  -17.5999   19.5914 H   0  0  0  0  0  0
  -30.6403  -18.1471   19.5217 H   0  0  0  0  0  0
  -27.6201  -21.2774   20.7721 H   0  0  0  0  0  0
  -27.8354  -21.6928   19.1032 H   0  0  0  0  0  0
  -30.4213  -20.7873   19.7924 H   0  0  0  0  0  0
  -29.2173  -20.0058   18.8199 H   0  0  0  0  0  0
  1 25  1  0  0  0
  1 30  2  0  0  0
  1 77  1  0  0  0
  2  3  1  0  0  0
  2 25  1  0  0  0
  2 80  1  0  0  0
  2 81  1  0  0  0
  3  4  1  0  0  0
  3 82  1  0  0  0
  3 83  1  0  0  0
  4  5  1  0  0  0
  4 84  1  0  0  0
  4 85  1  0  0  0
  5  6  1  0  0  0
  5 26  1  0  0  0
  5 86  1  0  0  0
  6 25  1  0  0  0
  6 87  1  0  0  0
  6 88  1  0  0  0
  7  8  2  0  0  0
  7 26  1  0  0  0
  7 29  1  0  0  0
  8  9  1  0  0  0
  8 22  1  0  0  0
  9 10  1  0  0  0
  9 27  2  0  0  0
 10 11  2  0  0  0
 10 15  1  0  0  0
 11 12  1  0  0  0
 11 89  1  0  0  0
 12 13  2  0  0  0
 12 90  1  0  0  0
 13 14  1  0  0  0
 13 31  1  0  0  0
 14 15  2  0  0  0
 14 91  1  0  0  0
 15 92  1  0  0  0
 16 17  2  0  0  0
 16 21  1  0  0  0
 16 31  1  0  0  0
 17 18  1  0  0  0
 17 93  1  0  0  0
 18 19  2  0  0  0
 18 94  1  0  0  0
 19 20  1  0  0  0
 19 24  1  0  0  0
 20 21  2  0  0  0
 20 95  1  0  0  0
 21 23  1  0  0  0
 22 28  1  0  0  0
 22 32  2  0  0  0
 26 27  1  0  0  0
 28 96  1  0  0  0
 28 97  1  0  0  0
 29 98  1  0  0  0
 29 99  1  0  0  0
 33 34  1  0  0  0
 33 66  1  0  0  0
 33 70  2  0  0  0
 34 36  1  0  0  0
 34 59  1  0  0  0
 34100  1  0  0  0
 35 44  2  0  0  0
 35 45  1  0  0  0
 35 68  1  0  0  0
 36 56  1  0  0  0
 36101  1  0  0  0
 37 39  1  0  0  0
 37 47  1  0  0  0
 37 66  1  0  0  0
 37102  1  0  0  0
 38 43  2  0  0  0
 38 46  1  0  0  0
 38 47  1  0  0  0
 39 64  1  0  0  0
 39 67  2  0  0  0
 40 52  1  0  0  0
 40 53  2  0  0  0
 40 58  1  0  0  0
 41103  1  0  0  0
 41104  1  0  0  0
 41105  1  0  0  0
 41 48  1  0  0  0
 42 43  1  0  0  0
 42 66  1  0  0  0
 42106  1  0  0  0
 42107  1  0  0  0
 43 44  1  0  0  0
 44108  1  0  0  0
 45 46  2  0  0  0
 45109  1  0  0  0
 46110  1  0  0  0
 47111  1  0  0  0
 47112  1  0  0  0
 48 56  1  0  0  0
 48 65  1  0  0  0
 48113  1  0  0  0
 49 50  1  0  0  0
 49 53  1  0  0  0
 49 64  1  0  0  0
 49114  1  0  0  0
 50 51  1  0  0  0
 50115  1  0  0  0
 50116  1  0  0  0
 51 52  1  0  0  0
 51117  1  0  0  0
 51118  1  0  0  0
 52119  1  0  0  0
 52120  1  0  0  0
 53 54  1  0  0  0
 54 55  2  0  0  0
 54121  1  0  0  0
 55 57  1  0  0  0
 55122  1  0  0  0
 56 69  2  0  0  0
 57 58  2  0  0  0
 57123  1  0  0  0
 58124  1  0  0  0
 59 60  1  0  0  0
 59 61  1  0  0  0
 59 62  1  0  0  0
 60125  1  0  0  0
 60126  1  0  0  0
 60127  1  0  0  0
 61128  1  0  0  0
 61129  1  0  0  0
 61130  1  0  0  0
 62131  1  0  0  0
 62132  1  0  0  0
 62133  1  0  0  0
 63 65  1  0  0  0
 63134  1  0  0  0
 63135  1  0  0  0
 63136  1  0  0  0
 64137  1  0  0  0
 65138  1  0  0  0
 68 71  1  0  0  0
 71 73  1  0  0  0
 71139  1  0  0  0
 71140  1  0  0  0
 72 74  1  0  0  0
 72 77  1  0  0  0
 72141  1  0  0  0
 72142  1  0  0  0
 73 78  1  0  0  0
 73143  1  0  0  0
 73144  1  0  0  0
 74 79  1  0  0  0
 74145  1  0  0  0
 74146  1  0  0  0
 75 76  1  0  0  0
 75 78  1  0  0  0
 75147  1  0  0  0
 75148  1  0  0  0
 76 79  1  0  0  0
 76149  1  0  0  0
 76150  1  0  0  0
M  ISO  4   1 100  68 101  71 101  77 100
M  END
> <chiral flag>
0

> <version>
0

> <s_m_source_file>
/data/baiqing/PycharmProjects/Reinvent-master-3.2/result/LINK_invent/BTK/process_docking_weight1_custom_product_contain_oxygen_bond_distance_aromatic_linkinvent_7_9_3/rearranged_h_0000.sdf

> <i_m_source_file_index>
90

> <r_mmod_Potential_Energy-OPLS-2005>
4.52846193313599

> <r_mmod_Stretch_Energy-OPLS-2005>
57.1656455993652

> <r_mmod_Bend_Energy-OPLS-2005>
120.624153137207

> <r_mmod_Torsional_Energy-OPLS-2005>
194.531997680664

> <r_mmod_Improper_Torsional_Energy-OPLS-2005>
3.09483981132507

> <r_mmod_Van_der_Waal_Energy-OPLS-2005>
123.415977478027

> <r_mmod_Electrostatic_Energy-OPLS-2005>
-319.977447509766

> <r_mmod_Solvation_Energy-OPLS-2005>
-198.287109375

> <b_mmod_Minimization_Converged-OPLS-2005>
0

> <r_mmod_RMS_Derivative-OPLS-2005>
0.775499224662781

$$$$
90
                    3D
 Structure written by MMmdl.
170177  0  0  1  0            999 V2000
  -30.7055  -14.4455   20.6240 C   0  0  0  0  0  0
  -30.4249  -12.3171   19.4080 C   0  0  0  0  0  0
  -29.4855  -12.5087   18.2005 C   0  0  0  0  0  0
  -28.0083  -12.3668   18.6174 C   0  0  0  0  0  0
  -27.6582  -13.2018   19.8766 C   0  0  2  0  0  0
  -28.6972  -12.9707   20.9961 C   0  0  0  0  0  0
  -25.2581  -13.8179   20.5738 C   0  0  0  0  0  0
  -24.1809  -13.0478   20.9173 C   0  0  0  0  0  0
  -24.6329  -11.6931   20.8734 C   0  0  0  0  0  0
  -23.8985  -10.4332   21.0417 C   0  0  0  0  0  0
  -24.3562   -9.4227   21.9175 C   0  0  0  0  0  0
  -23.6270   -8.2246   22.0730 C   0  0  0  0  0  0
  -22.4243   -8.0284   21.3555 C   0  0  0  0  0  0
  -21.9862   -9.0244   20.4659 C   0  0  0  0  0  0
  -22.7165  -10.2147   20.3061 C   0  0  0  0  0  0
  -21.6834   -6.0736   22.5283 C   0  0  0  0  0  0
  -21.4000   -6.5642   23.8211 C   0  0  0  0  0  0
  -21.3653   -5.6795   24.9184 C   0  0  0  0  0  0
  -21.6042   -4.3052   24.7210 C   0  0  0  0  0  0
  -21.8809   -3.8154   23.4336 C   0  0  0  0  0  0
  -21.9191   -4.6978   22.3389 C   0  0  0  0  0  0
  -22.7823  -13.5272   21.1832 C   0  0  0  0  0  0
  -22.1682   -4.2194   21.0970 F   0  0  0  0  0  0
  -21.5611   -3.4514   25.7708 F   0  0  0  0  0  0
  -30.0283  -13.2806   20.4451 N   0  0  0  0  0  0
  -26.2994  -12.9323   20.3384 N   0  0  0  0  0  0
  -25.9250  -11.6491   20.5782 N   0  0  0  0  0  0
  -22.0464  -12.8308   22.0424 N   0  0  0  0  0  0
  -25.4344  -15.1891   20.4222 N   0  0  0  0  0  0
  -31.8084  -14.6700   20.1200 O   0  0  0  0  0  0
  -21.6639   -6.8862   21.4224 O   0  0  0  0  0  0
  -22.3530  -14.5563   20.6636 O   0  0  0  0  0  0
  -24.6130  -31.8673   23.2149 C   0  0  0  0  0  0
  -25.9035  -32.4843   23.8430 C   0  0  1  0  0  0
  -27.2206  -27.4461   20.1007 C   0  0  0  0  0  0
  -25.5897  -33.8639   24.2361 N   0  0  0  0  0  0
  -23.4011  -30.4958   21.5538 C   0  0  2  0  0  0
  -24.8430  -28.9671   20.1239 C   0  0  0  0  0  0
  -22.7380  -29.4638   22.4953 C   0  0  0  0  0  0
  -18.0309  -28.1365   22.8373 C   0  0  0  0  0  0
  -24.1492  -36.7338   23.2620 C   0  0  0  0  0  0
  -25.9329  -30.8412   21.3658 C   0  0  0  0  0  0
  -26.0078  -29.4784   20.7098 C   0  0  0  0  0  0
  -27.2063  -28.7296   20.6863 C   0  0  0  0  0  0
  -26.0349  -26.9412   19.5264 C   0  0  0  0  0  0
  -24.8501  -27.6952   19.5293 C   0  0  0  0  0  0
  -23.6116  -29.8392   20.1666 C   0  0  0  0  0  0
  -25.4111  -36.3126   24.0314 C   0  0  1  0  0  0
  -20.5874  -28.3670   23.1309 C   0  0  2  0  0  0
  -20.6814  -26.9396   22.5414 C   0  0  0  0  0  0
  -19.5878  -26.6404   21.5125 C   0  0  0  0  0  0
  -18.1987  -26.7964   22.1400 C   0  0  0  0  0  0
  -19.1532  -28.8812   23.2877 C   0  0  0  0  0  0
  -18.9441  -30.1362   23.8965 C   0  0  0  0  0  0
  -17.6434  -30.6494   24.0591 C   0  0  0  0  0  0
  -25.9031  -34.9488   23.5122 C   0  0  0  0  0  0
  -16.5349  -29.9018   23.6245 C   0  0  0  0  0  0
  -16.7292  -28.6473   23.0200 C   0  0  0  0  0  0
  -26.4484  -31.6606   25.0733 C   0  0  0  0  0  0
  -25.3755  -31.3729   26.1501 C   0  0  0  0  0  0
  -27.0289  -30.3027   24.6108 C   0  0  0  0  0  0
  -27.6066  -32.4320   25.7491 C   0  0  0  0  0  0
  -27.5587  -37.1837   24.8450 C   0  0  0  0  0  0
  -21.4102  -29.3063   22.3715 N   0  0  0  0  0  0
  -26.4307  -37.3815   23.9387 N   0  0  0  0  0  0
  -24.6688  -31.0782   22.1051 N   0  0  0  0  0  0
  -23.4154  -28.8127   23.2969 O   0  0  0  0  0  0
  -28.3844  -26.7153   20.0607 O   0  0  0  0  0  0
  -26.5605  -34.8929   22.4698 O   0  0  0  0  0  0
  -23.5321  -32.1419   23.7541 O   0  0  0  0  0  0
  -27.5868  -23.7828   18.8148 C   0  0  0  0  0  0
  -29.9405  -24.7197   18.7864 C   0  0  0  0  0  0
  -27.2361  -22.9715   22.9410 C   0  0  0  0  0  0
  -30.4982  -16.7493   21.5996 C   0  0  0  0  0  0
  -26.9530  -21.5807   23.5350 C   0  0  0  0  0  0
  -28.6782  -23.4628   23.1368 C   0  0  0  0  0  0
  -29.3244  -17.7406   21.5273 C   0  0  0  0  0  0
  -27.0086  -19.2499   23.2780 C   0  0  0  0  0  0
  -27.0914  -18.0470   22.3146 C   0  0  0  0  0  0
  -29.2842  -25.4532   21.9061 C   0  0  0  0  0  0
  -28.7522  -24.3052   19.6709 C   0  0  0  0  0  0
  -28.3450  -25.4169   20.6752 C   0  0  2  0  0  0
  -30.0425  -15.3866   21.3108 N   0  0  0  0  0  0
  -27.3571  -20.5025   22.6877 O   0  0  0  0  0  0
  -28.7075  -24.8866   23.0761 O   0  0  0  0  0  0
  -28.3056  -17.3091   22.4190 O   0  0  0  0  0  0
  -31.4642  -12.4382   19.0986 H   0  0  0  0  0  0
  -30.3494  -11.3017   19.7962 H   0  0  0  0  0  0
  -29.7169  -11.7786   17.4241 H   0  0  0  0  0  0
  -29.6490  -13.4932   17.7590 H   0  0  0  0  0  0
  -27.8213  -11.3101   18.8078 H   0  0  0  0  0  0
  -27.3531  -12.6479   17.7912 H   0  0  0  0  0  0
  -27.7109  -14.2504   19.5802 H   0  0  0  0  0  0
  -28.6778  -11.9342   21.3370 H   0  0  0  0  0  0
  -28.4442  -13.5640   21.8768 H   0  0  0  0  0  0
  -25.2705   -9.5725   22.4753 H   0  0  0  0  0  0
  -24.0035   -7.4600   22.7375 H   0  0  0  0  0  0
  -21.0805   -8.8721   19.8935 H   0  0  0  0  0  0
  -22.3591  -10.9681   19.6180 H   0  0  0  0  0  0
  -21.1991   -7.6165   23.9744 H   0  0  0  0  0  0
  -21.1496   -6.0529   25.9098 H   0  0  0  0  0  0
  -22.0598   -2.7626   23.2816 H   0  0  0  0  0  0
  -22.4096  -11.9989   22.4833 H   0  0  0  0  0  0
  -21.1064  -13.1258   22.2616 H   0  0  0  0  0  0
  -24.6594  -15.8356   20.5101 H   0  0  0  0  0  0
  -26.2906  -15.6295   20.1132 H   0  0  0  0  0  0
  -26.7091  -32.5554   23.1178 H   0  0  0  0  0  0
  -25.0071  -33.9829   25.0526 H   0  0  0  0  0  0
  -22.6905  -31.3138   21.4218 H   0  0  0  0  0  0
  -23.3749  -35.9678   23.3309 H   0  0  0  0  0  0
  -24.3577  -36.8939   22.2032 H   0  0  0  0  0  0
  -23.7256  -37.6548   23.6634 H   0  0  0  0  0  0
  -26.0446  -31.6144   20.6033 H   0  0  0  0  0  0
  -26.8192  -30.8896   21.9874 H   0  0  0  0  0  0
  -28.1147  -29.1260   21.1189 H   0  0  0  0  0  0
  -26.0173  -25.9675   19.0677 H   0  0  0  0  0  0
  -23.9548  -27.2921   19.0767 H   0  0  0  0  0  0
  -23.7413  -30.6220   19.4167 H   0  0  0  0  0  0
  -22.7325  -29.2704   19.8574 H   0  0  0  0  0  0
  -25.1293  -36.2009   25.0801 H   0  0  0  0  0  0
  -20.9959  -28.3227   24.1427 H   0  0  0  0  0  0
  -20.5668  -26.2245   23.3576 H   0  0  0  0  0  0
  -21.6715  -26.7413   22.1287 H   0  0  0  0  0  0
  -19.7084  -25.6290   21.1215 H   0  0  0  0  0  0
  -19.7000  -27.3165   20.6635 H   0  0  0  0  0  0
  -17.4384  -26.6862   21.3645 H   0  0  0  0  0  0
  -18.0297  -26.0040   22.8697 H   0  0  0  0  0  0
  -19.7929  -30.7098   24.2453 H   0  0  0  0  0  0
  -17.4964  -31.6130   24.5279 H   0  0  0  0  0  0
  -15.5319  -30.2916   23.7504 H   0  0  0  0  0  0
  -15.8712  -28.0814   22.6812 H   0  0  0  0  0  0
  -24.5919  -30.7075   25.7882 H   0  0  0  0  0  0
  -24.8959  -32.2890   26.4952 H   0  0  0  0  0  0
  -25.8095  -30.8919   27.0269 H   0  0  0  0  0  0
  -26.2831  -29.6836   24.1113 H   0  0  0  0  0  0
  -27.3988  -29.7213   25.4568 H   0  0  0  0  0  0
  -27.8698  -30.4329   23.9287 H   0  0  0  0  0  0
  -27.2686  -33.3598   26.2124 H   0  0  0  0  0  0
  -28.3845  -32.6926   25.0300 H   0  0  0  0  0  0
  -28.0779  -31.8414   26.5366 H   0  0  0  0  0  0
  -28.2630  -38.0123   24.7504 H   0  0  0  0  0  0
  -28.1056  -36.2655   24.6272 H   0  0  0  0  0  0
  -27.2284  -37.1485   25.8847 H   0  0  0  0  0  0
  -20.9232  -29.8810   21.6960 H   0  0  0  0  0  0
  -26.0197  -38.2872   24.1435 H   0  0  0  0  0  0
  -27.2453  -24.5245   18.0953 H   0  0  0  0  0  0
  -26.7382  -23.4791   19.4281 H   0  0  0  0  0  0
  -27.8887  -22.9041   18.2461 H   0  0  0  0  0  0
  -30.3084  -23.8701   18.2133 H   0  0  0  0  0  0
  -30.7738  -25.1031   19.3768 H   0  0  0  0  0  0
  -29.6517  -25.4955   18.0747 H   0  0  0  0  0  0
  -26.5935  -23.6708   23.4766 H   0  0  0  0  0  0
  -26.9244  -23.0241   21.8982 H   0  0  0  0  0  0
  -30.9364  -16.7692   22.5986 H   0  0  0  0  0  0
  -31.2785  -17.0627   20.9033 H   0  0  0  0  0  0
  -25.8774  -21.5166   23.7057 H   0  0  0  0  0  0
  -27.4183  -21.4920   24.5185 H   0  0  0  0  0  0
  -29.3765  -22.9766   22.4527 H   0  0  0  0  0  0
  -29.0052  -23.2048   24.1448 H   0  0  0  0  0  0
  -28.9436  -17.7804   20.5039 H   0  0  0  0  0  0
  -29.6552  -18.7462   21.7906 H   0  0  0  0  0  0
  -27.6135  -19.0831   24.1708 H   0  0  0  0  0  0
  -25.9707  -19.3032   23.6111 H   0  0  0  0  0  0
  -26.8434  -18.3135   21.2864 H   0  0  0  0  0  0
  -26.3145  -17.3461   22.6225 H   0  0  0  0  0  0
  -29.4803  -26.4930   22.1675 H   0  0  0  0  0  0
  -30.2603  -25.0133   21.6995 H   0  0  0  0  0  0
  -29.0762  -23.4445   20.2568 H   0  0  0  0  0  0
  -27.3415  -25.2036   21.0488 H   0  0  0  0  0  0
  -29.1131  -15.1569   21.6354 H   0  0  0  0  0  0
  1 25  1  0  0  0
  1 30  2  0  0  0
  1 83  1  0  0  0
  2  3  1  0  0  0
  2 25  1  0  0  0
  2 87  1  0  0  0
  2 88  1  0  0  0
  3  4  1  0  0  0
  3 89  1  0  0  0
  3 90  1  0  0  0
  4  5  1  0  0  0
  4 91  1  0  0  0
  4 92  1  0  0  0
  5  6  1  0  0  0
  5 26  1  0  0  0
  5 93  1  0  0  0
  6 25  1  0  0  0
  6 94  1  0  0  0
  6 95  1  0  0  0
  7  8  2  0  0  0
  7 26  1  0  0  0
  7 29  1  0  0  0
  8  9  1  0  0  0
  8 22  1  0  0  0
  9 10  1  0  0  0
  9 27  2  0  0  0
 10 11  2  0  0  0
 10 15  1  0  0  0
 11 12  1  0  0  0
 11 96  1  0  0  0
 12 13  2  0  0  0
 12 97  1  0  0  0
 13 14  1  0  0  0
 13 31  1  0  0  0
 14 15  2  0  0  0
 14 98  1  0  0  0
 15 99  1  0  0  0
 16 17  2  0  0  0
 16 21  1  0  0  0
 16 31  1  0  0  0
 17 18  1  0  0  0
 17100  1  0  0  0
 18 19  2  0  0  0
 18101  1  0  0  0
 19 20  1  0  0  0
 19 24  1  0  0  0
 20 21  2  0  0  0
 20102  1  0  0  0
 21 23  1  0  0  0
 22 28  1  0  0  0
 22 32  2  0  0  0
 26 27  1  0  0  0
 28103  1  0  0  0
 28104  1  0  0  0
 29105  1  0  0  0
 29106  1  0  0  0
 33 34  1  0  0  0
 33 66  1  0  0  0
 33 70  2  0  0  0
 34 36  1  0  0  0
 34 59  1  0  0  0
 34107  1  0  0  0
 35 44  2  0  0  0
 35 45  1  0  0  0
 35 68  1  0  0  0
 36 56  1  0  0  0
 36108  1  0  0  0
 37 39  1  0  0  0
 37 47  1  0  0  0
 37 66  1  0  0  0
 37109  1  0  0  0
 38 43  2  0  0  0
 38 46  1  0  0  0
 38 47  1  0  0  0
 39 64  1  0  0  0
 39 67  2  0  0  0
 40 52  1  0  0  0
 40 53  2  0  0  0
 40 58  1  0  0  0
 41110  1  0  0  0
 41111  1  0  0  0
 41112  1  0  0  0
 41 48  1  0  0  0
 42 43  1  0  0  0
 42 66  1  0  0  0
 42113  1  0  0  0
 42114  1  0  0  0
 43 44  1  0  0  0
 44115  1  0  0  0
 45 46  2  0  0  0
 45116  1  0  0  0
 46117  1  0  0  0
 47118  1  0  0  0
 47119  1  0  0  0
 48 56  1  0  0  0
 48 65  1  0  0  0
 48120  1  0  0  0
 49 50  1  0  0  0
 49 53  1  0  0  0
 49 64  1  0  0  0
 49121  1  0  0  0
 50 51  1  0  0  0
 50122  1  0  0  0
 50123  1  0  0  0
 51 52  1  0  0  0
 51124  1  0  0  0
 51125  1  0  0  0
 52126  1  0  0  0
 52127  1  0  0  0
 53 54  1  0  0  0
 54 55  2  0  0  0
 54128  1  0  0  0
 55 57  1  0  0  0
 55129  1  0  0  0
 56 69  2  0  0  0
 57 58  2  0  0  0
 57130  1  0  0  0
 58131  1  0  0  0
 59 60  1  0  0  0
 59 61  1  0  0  0
 59 62  1  0  0  0
 60132  1  0  0  0
 60133  1  0  0  0
 60134  1  0  0  0
 61135  1  0  0  0
 61136  1  0  0  0
 61137  1  0  0  0
 62138  1  0  0  0
 62139  1  0  0  0
 62140  1  0  0  0
 63 65  1  0  0  0
 63141  1  0  0  0
 63142  1  0  0  0
 63143  1  0  0  0
 64144  1  0  0  0
 65145  1  0  0  0
 68 82  1  0  0  0
 71146  1  0  0  0
 71147  1  0  0  0
 71148  1  0  0  0
 71 81  1  0  0  0
 72 81  1  0  0  0
 72149  1  0  0  0
 72150  1  0  0  0
 72151  1  0  0  0
 73 75  1  0  0  0
 73 76  1  0  0  0
 73152  1  0  0  0
 73153  1  0  0  0
 74 77  1  0  0  0
 74 83  1  0  0  0
 74154  1  0  0  0
 74155  1  0  0  0
 75 84  1  0  0  0
 75156  1  0  0  0
 75157  1  0  0  0
 76 85  1  0  0  0
 76158  1  0  0  0
 76159  1  0  0  0
 77 86  1  0  0  0
 77160  1  0  0  0
 77161  1  0  0  0
 78 79  1  0  0  0
 78 84  1  0  0  0
 78162  1  0  0  0
 78163  1  0  0  0
 79 86  1  0  0  0
 79164  1  0  0  0
 79165  1  0  0  0
 80 85  1  0  0  0
 80166  1  0  0  0
 80167  1  0  0  0
 80 82  1  0  0  0
 81 82  1  0  0  0
 81168  1  0  0  0
 82169  1  0  0  0
 83170  1  0  0  0
M  ISO  4   1 100  68 101  82 101  83 100
M  END
> <chiral flag>
0

> <version>
0

> <s_m_source_file>
/data/baiqing/PycharmProjects/Reinvent-master-3.2/result/LINK_invent/BTK/process_docking_weight1_custom_product_contain_oxygen_bond_distance_aromatic_linkinvent_7_9_3/rearranged_h_0000.sdf

> <i_m_source_file_index>
91

> <r_mmod_Potential_Energy-OPLS-2005>
-78.2227935791016

> <r_mmod_Stretch_Energy-OPLS-2005>
33.8505554199219

> <r_mmod_Bend_Energy-OPLS-2005>
105.357620239258

> <r_mmod_Torsional_Energy-OPLS-2005>
245.893417358398

> <r_mmod_Improper_Torsional_Energy-OPLS-2005>
2.41502285003662

> <r_mmod_Van_der_Waal_Energy-OPLS-2005>
130.346328735352

> <r_mmod_Electrostatic_Energy-OPLS-2005>
-400.703918457031

> <r_mmod_Solvation_Energy-OPLS-2005>
-206.047653198242

> <b_mmod_Minimization_Converged-OPLS-2005>
0

> <r_mmod_RMS_Derivative-OPLS-2005>
4.33223247528076

$$$$
91
                    3D
 Structure written by MMmdl.
142149  0  0  1  0            999 V2000
  -30.3890  -15.5111   20.3278 C   0  0  0  0  0  0
  -30.4294  -12.9525   19.5664 C   0  0  0  0  0  0
  -29.5540  -12.6186   18.3269 C   0  0  0  0  0  0
  -28.1112  -12.2983   18.7499 C   0  0  0  0  0  0
  -27.5911  -13.3031   19.8058 C   0  0  2  0  0  0
  -28.5907  -13.5968   20.9421 C   0  0  0  0  0  0
  -25.2302  -13.8294   20.5752 C   0  0  0  0  0  0
  -24.1689  -13.0445   20.9254 C   0  0  0  0  0  0
  -24.6383  -11.6952   20.8738 C   0  0  0  0  0  0
  -23.9097  -10.4298   21.0392 C   0  0  0  0  0  0
  -24.3643   -9.4215   21.9175 C   0  0  0  0  0  0
  -23.6311   -8.2252   22.0752 C   0  0  0  0  0  0
  -22.4290   -8.0287   21.3545 C   0  0  0  0  0  0
  -21.9930   -9.0258   20.4644 C   0  0  0  0  0  0
  -22.7264  -10.2133   20.3047 C   0  0  0  0  0  0
  -21.6860   -6.0740   22.5280 C   0  0  0  0  0  0
  -21.4020   -6.5642   23.8213 C   0  0  0  0  0  0
  -21.3661   -5.6794   24.9174 C   0  0  0  0  0  0
  -21.6044   -4.3056   24.7224 C   0  0  0  0  0  0
  -21.8818   -3.8149   23.4345 C   0  0  0  0  0  0
  -21.9195   -4.6966   22.3402 C   0  0  0  0  0  0
  -22.7710  -13.5177   21.1919 C   0  0  0  0  0  0
  -22.1662   -4.2152   21.0980 F   0  0  0  0  0  0
  -21.5627   -3.4539   25.7737 F   0  0  0  0  0  0
  -29.8170  -14.1204   20.3229 N   0  0  0  0  0  0
  -26.2712  -12.9607   20.3126 N   0  0  0  0  0  0
  -25.9313  -11.6686   20.5642 N   0  0  0  0  0  0
  -22.0389  -12.8147   22.0478 N   0  0  0  0  0  0
  -25.3953  -15.2038   20.4268 N   0  0  0  0  0  0
  -31.6119  -15.4976   20.1176 O   0  0  0  0  0  0
  -21.6650   -6.8885   21.4243 O   0  0  0  0  0  0
  -22.3379  -14.5477   20.6766 O   0  0  0  0  0  0
  -24.6773  -31.8071   23.1569 C   0  0  0  0  0  0
  -25.9385  -32.4503   23.8091 C   0  0  1  0  0  0
  -27.2217  -26.7704   20.2102 C   0  0  0  0  0  0
  -25.5990  -33.8325   24.1984 N   0  0  0  0  0  0
  -23.4998  -30.4118   21.5095 C   0  0  2  0  0  0
  -24.9554  -28.7652   20.1175 C   0  0  0  0  0  0
  -22.7736  -29.4354   22.4734 C   0  0  0  0  0  0
  -18.0333  -28.1417   22.8459 C   0  0  0  0  0  0
  -24.1495  -36.7169   23.2651 C   0  0  0  0  0  0
  -26.0770  -30.5630   21.4101 C   0  0  0  0  0  0
  -26.1433  -29.1350   20.7595 C   0  0  0  0  0  0
  -27.2655  -28.1641   20.7729 C   0  0  0  0  0  0
  -26.0014  -26.5905   19.5149 C   0  0  0  0  0  0
  -24.9193  -27.5174   19.4719 C   0  0  0  0  0  0
  -23.7493  -29.7132   20.1425 C   0  0  0  0  0  0
  -25.4142  -36.2916   24.0287 C   0  0  1  0  0  0
  -20.5966  -28.3773   23.1157 C   0  0  2  0  0  0
  -20.6803  -26.9439   22.5403 C   0  0  0  0  0  0
  -19.5778  -26.6373   21.5215 C   0  0  0  0  0  0
  -18.1961  -26.7946   22.1620 C   0  0  0  0  0  0
  -19.1598  -28.8918   23.2790 C   0  0  0  0  0  0
  -18.9505  -30.1504   23.8833 C   0  0  0  0  0  0
  -17.6496  -30.6602   24.0551 C   0  0  0  0  0  0
  -25.9118  -34.9304   23.4968 C   0  0  0  0  0  0
  -16.5386  -29.9085   23.6348 C   0  0  0  0  0  0
  -16.7314  -28.6507   23.0366 C   0  0  0  0  0  0
  -26.4585  -31.6511   25.0686 C   0  0  0  0  0  0
  -25.3668  -31.3807   26.1313 C   0  0  0  0  0  0
  -27.0509  -30.2858   24.6536 C   0  0  0  0  0  0
  -27.6044  -32.4358   25.7503 C   0  0  0  0  0  0
  -27.5567  -37.1740   24.8465 C   0  0  0  0  0  0
  -21.4390  -29.3033   22.3486 N   0  0  0  0  0  0
  -26.4273  -37.3671   23.9409 N   0  0  0  0  0  0
  -24.7742  -30.9585   22.0784 N   0  0  0  0  0  0
  -23.4211  -28.7947   23.3048 O   0  0  0  0  0  0
  -28.2032  -25.5924   20.2788 O   0  0  0  0  0  0
  -26.5751  -34.8870   22.4580 O   0  0  0  0  0  0
  -23.5809  -32.1112   23.6567 O   0  0  0  0  0  0
  -28.9804  -22.2543   20.3095 C   0  0  0  0  0  0
  -28.7124  -20.3669   20.3176 C   0  0  0  0  0  0
  -27.9862  -23.8779   20.2114 C   0  0  0  0  0  0
  -29.7030  -18.7369   20.3494 C   0  0  0  0  0  0
  -29.4448  -17.0336   20.4354 O   0  0  0  0  0  0
  -31.4423  -13.1868   19.2368 H   0  0  0  0  0  0
  -30.5280  -12.0812   20.2161 H   0  0  0  0  0  0
  -29.9794  -11.7813   17.7721 H   0  0  0  0  0  0
  -29.5533  -13.4711   17.6460 H   0  0  0  0  0  0
  -28.1061  -11.2920   19.1704 H   0  0  0  0  0  0
  -27.4516  -12.2728   17.8817 H   0  0  0  0  0  0
  -27.4720  -14.2369   19.2543 H   0  0  0  0  0  0
  -28.7869  -12.7077   21.5432 H   0  0  0  0  0  0
  -28.1843  -14.3500   21.6190 H   0  0  0  0  0  0
  -25.2784   -9.5695   22.4755 H   0  0  0  0  0  0
  -24.0016   -7.4647   22.7476 H   0  0  0  0  0  0
  -21.0859   -8.8779   19.8952 H   0  0  0  0  0  0
  -22.3718  -10.9671   19.6157 H   0  0  0  0  0  0
  -21.2015   -7.6151   23.9717 H   0  0  0  0  0  0
  -21.1482   -6.0524   25.9077 H   0  0  0  0  0  0
  -22.0596   -2.7611   23.2845 H   0  0  0  0  0  0
  -22.4038  -11.9819   22.4860 H   0  0  0  0  0  0
  -21.0999  -13.1141   22.2696 H   0  0  0  0  0  0
  -24.6350  -15.8612   20.5631 H   0  0  0  0  0  0
  -26.2583  -15.6491   20.1391 H   0  0  0  0  0  0
  -26.7462  -32.4995   23.0804 H   0  0  0  0  0  0
  -25.0059  -33.9375   25.0084 H   0  0  0  0  0  0
  -22.8214  -31.2473   21.3250 H   0  0  0  0  0  0
  -23.3775  -35.9479   23.3262 H   0  0  0  0  0  0
  -24.3566  -36.8878   22.2075 H   0  0  0  0  0  0
  -23.7234  -37.6328   23.6755 H   0  0  0  0  0  0
  -26.2728  -31.2927   20.6233 H   0  0  0  0  0  0
  -26.9307  -30.6278   22.0725 H   0  0  0  0  0  0
  -28.1626  -28.4519   21.3027 H   0  0  0  0  0  0
  -25.8474  -25.6424   19.0201 H   0  0  0  0  0  0
  -24.0205  -27.2264   18.9456 H   0  0  0  0  0  0
  -23.9193  -30.4751   19.3809 H   0  0  0  0  0  0
  -22.8553  -29.1764   19.8205 H   0  0  0  0  0  0
  -25.1348  -36.1687   25.0776 H   0  0  0  0  0  0
  -21.0049  -28.3392   24.1282 H   0  0  0  0  0  0
  -20.5671  -26.2395   23.3658 H   0  0  0  0  0  0
  -21.6665  -26.7391   22.1218 H   0  0  0  0  0  0
  -19.6936  -25.6266   21.1288 H   0  0  0  0  0  0
  -19.6720  -27.3147   20.6717 H   0  0  0  0  0  0
  -17.4230  -26.6688   21.4024 H   0  0  0  0  0  0
  -18.0352  -26.0104   22.9031 H   0  0  0  0  0  0
  -19.7980  -30.7337   24.2174 H   0  0  0  0  0  0
  -17.5046  -31.6275   24.5166 H   0  0  0  0  0  0
  -15.5383  -30.2966   23.7709 H   0  0  0  0  0  0
  -15.8715  -28.0803   22.7118 H   0  0  0  0  0  0
  -24.5876  -30.7133   25.7615 H   0  0  0  0  0  0
  -24.8832  -32.3022   26.4562 H   0  0  0  0  0  0
  -25.7862  -30.9087   27.0207 H   0  0  0  0  0  0
  -26.3212  -29.6489   24.1526 H   0  0  0  0  0  0
  -27.3961  -29.7282   25.5252 H   0  0  0  0  0  0
  -27.9182  -30.4001   24.0032 H   0  0  0  0  0  0
  -27.2589  -33.3722   26.1897 H   0  0  0  0  0  0
  -28.3949  -32.6820   25.0402 H   0  0  0  0  0  0
  -28.0607  -31.8610   26.5571 H   0  0  0  0  0  0
  -28.2550  -38.0067   24.7521 H   0  0  0  0  0  0
  -28.1097  -36.2591   24.6282 H   0  0  0  0  0  0
  -27.2283  -37.1363   25.8867 H   0  0  0  0  0  0
  -20.9680  -29.8698   21.6568 H   0  0  0  0  0  0
  -26.0105  -38.2720   24.1427 H   0  0  0  0  0  0
  -29.7065  -22.3819   19.5066 H   0  0  0  0  0  0
  -29.5752  -22.4043   21.2106 H   0  0  0  0  0  0
  -28.0645  -20.2219   19.4532 H   0  0  0  0  0  0
  -28.0354  -20.2373   21.1620 H   0  0  0  0  0  0
  -27.2217  -23.7361   20.9754 H   0  0  0  0  0  0
  -27.4341  -23.7657   19.2783 H   0  0  0  0  0  0
  -30.3406  -18.8160   19.4689 H   0  0  0  0  0  0
  -30.3964  -18.8875   21.1767 H   0  0  0  0  0  0
  1 25  1  0  0  0
  1 30  2  0  0  0
  1 75  1  0  0  0
  2  3  1  0  0  0
  2 25  1  0  0  0
  2 76  1  0  0  0
  2 77  1  0  0  0
  3  4  1  0  0  0
  3 78  1  0  0  0
  3 79  1  0  0  0
  4  5  1  0  0  0
  4 80  1  0  0  0
  4 81  1  0  0  0
  5  6  1  0  0  0
  5 26  1  0  0  0
  5 82  1  0  0  0
  6 25  1  0  0  0
  6 83  1  0  0  0
  6 84  1  0  0  0
  7  8  2  0  0  0
  7 26  1  0  0  0
  7 29  1  0  0  0
  8  9  1  0  0  0
  8 22  1  0  0  0
  9 10  1  0  0  0
  9 27  2  0  0  0
 10 11  2  0  0  0
 10 15  1  0  0  0
 11 12  1  0  0  0
 11 85  1  0  0  0
 12 13  2  0  0  0
 12 86  1  0  0  0
 13 14  1  0  0  0
 13 31  1  0  0  0
 14 15  2  0  0  0
 14 87  1  0  0  0
 15 88  1  0  0  0
 16 17  2  0  0  0
 16 21  1  0  0  0
 16 31  1  0  0  0
 17 18  1  0  0  0
 17 89  1  0  0  0
 18 19  2  0  0  0
 18 90  1  0  0  0
 19 20  1  0  0  0
 19 24  1  0  0  0
 20 21  2  0  0  0
 20 91  1  0  0  0
 21 23  1  0  0  0
 22 28  1  0  0  0
 22 32  2  0  0  0
 26 27  1  0  0  0
 28 92  1  0  0  0
 28 93  1  0  0  0
 29 94  1  0  0  0
 29 95  1  0  0  0
 33 34  1  0  0  0
 33 66  1  0  0  0
 33 70  2  0  0  0
 34 36  1  0  0  0
 34 59  1  0  0  0
 34 96  1  0  0  0
 35 44  2  0  0  0
 35 45  1  0  0  0
 35 68  1  0  0  0
 36 56  1  0  0  0
 36 97  1  0  0  0
 37 39  1  0  0  0
 37 47  1  0  0  0
 37 66  1  0  0  0
 37 98  1  0  0  0
 38 43  2  0  0  0
 38 46  1  0  0  0
 38 47  1  0  0  0
 39 64  1  0  0  0
 39 67  2  0  0  0
 40 52  1  0  0  0
 40 53  2  0  0  0
 40 58  1  0  0  0
 41 99  1  0  0  0
 41100  1  0  0  0
 41101  1  0  0  0
 41 48  1  0  0  0
 42 43  1  0  0  0
 42 66  1  0  0  0
 42102  1  0  0  0
 42103  1  0  0  0
 43 44  1  0  0  0
 44104  1  0  0  0
 45 46  2  0  0  0
 45105  1  0  0  0
 46106  1  0  0  0
 47107  1  0  0  0
 47108  1  0  0  0
 48 56  1  0  0  0
 48 65  1  0  0  0
 48109  1  0  0  0
 49 50  1  0  0  0
 49 53  1  0  0  0
 49 64  1  0  0  0
 49110  1  0  0  0
 50 51  1  0  0  0
 50111  1  0  0  0
 50112  1  0  0  0
 51 52  1  0  0  0
 51113  1  0  0  0
 51114  1  0  0  0
 52115  1  0  0  0
 52116  1  0  0  0
 53 54  1  0  0  0
 54 55  2  0  0  0
 54117  1  0  0  0
 55 57  1  0  0  0
 55118  1  0  0  0
 56 69  2  0  0  0
 57 58  2  0  0  0
 57119  1  0  0  0
 58120  1  0  0  0
 59 60  1  0  0  0
 59 61  1  0  0  0
 59 62  1  0  0  0
 60121  1  0  0  0
 60122  1  0  0  0
 60123  1  0  0  0
 61124  1  0  0  0
 61125  1  0  0  0
 61126  1  0  0  0
 62127  1  0  0  0
 62128  1  0  0  0
 62129  1  0  0  0
 63 65  1  0  0  0
 63130  1  0  0  0
 63131  1  0  0  0
 63132  1  0  0  0
 64133  1  0  0  0
 65134  1  0  0  0
 68 73  1  0  0  0
 71 72  1  0  0  0
 71 73  1  0  0  0
 71135  1  0  0  0
 71136  1  0  0  0
 72 74  1  0  0  0
 72137  1  0  0  0
 72138  1  0  0  0
 73139  1  0  0  0
 73140  1  0  0  0
 74 75  1  0  0  0
 74141  1  0  0  0
 74142  1  0  0  0
M  ISO  4   1 100  68 101  73 101  75 100
M  END
> <chiral flag>
0

> <version>
0

> <s_m_source_file>
/data/baiqing/PycharmProjects/Reinvent-master-3.2/result/LINK_invent/BTK/process_docking_weight1_custom_product_contain_oxygen_bond_distance_aromatic_linkinvent_7_9_3/rearranged_h_0000.sdf

> <i_m_source_file_index>
92

> <r_mmod_Potential_Energy-OPLS-2005>
2205.33056640625

> <r_mmod_Stretch_Energy-OPLS-2005>
1112.28552246094

> <r_mmod_Bend_Energy-OPLS-2005>
588.332763671875

> <r_mmod_Torsional_Energy-OPLS-2005>
175.097625732422

> <r_mmod_Improper_Torsional_Energy-OPLS-2005>
2.61027979850769

> <r_mmod_Van_der_Waal_Energy-OPLS-2005>
109.182518005371

> <r_mmod_Electrostatic_Energy-OPLS-2005>
-319.815063476562

> <r_mmod_Solvation_Energy-OPLS-2005>
-193.124298095703

> <b_mmod_Minimization_Converged-OPLS-2005>
1

> <r_mmod_RMS_Derivative-OPLS-2005>
0.0338250584900379

$$$$
