0
     RDKit          3D

162170  0  0  0  0  0  0  0  0999 V2000
  -30.7652  -14.3608   20.6636 C   0  0  0  0  0  0  0  0  0100  0  0
  -30.4392  -12.2669   19.3775 C   0  0  0  0  0  0  0  0  0101  0  0
  -29.4791  -12.5281   18.1977 C   0  0  0  0  0  0  0  0  0102  0  0
  -27.9985  -12.3963   18.6038 C   0  0  0  0  0  0  0  0  0103  0  0
  -27.6639  -13.2170   19.8820 C   0  0  2  0  0  0  0  0  0104  0  0
  -28.6795  -12.9602   21.0279 C   0  0  0  0  0  0  0  0  0105  0  0
  -25.2633  -13.8245   20.5754 C   0  0  0  0  0  0  0  0  0106  0  0
  -24.1645  -13.0409   20.9408 C   0  0  0  0  0  0  0  0  0107  0  0
  -24.6400  -11.7009   20.8697 C   0  0  0  0  0  0  0  0  0108  0  0
  -23.9005  -10.4085   21.0420 C   0  0  0  0  0  0  0  0  0109  0  0
  -24.3588   -9.4123   21.9123 C   0  0  0  0  0  0  0  0  0110  0  0
  -23.6296   -8.2350   22.0803 C   0  0  0  0  0  0  0  0  0111  0  0
  -22.4385   -8.0419   21.3657 C   0  0  0  0  0  0  0  0  0112  0  0
  -22.0103   -9.0167   20.4678 C   0  0  0  0  0  0  0  0  0113  0  0
  -22.7317  -10.1925   20.3102 C   0  0  0  0  0  0  0  0  0114  0  0
  -21.6857   -6.0709   22.5391 C   0  0  0  0  0  0  0  0  0115  0  0
  -21.4064   -6.5490   23.8264 C   0  0  0  0  0  0  0  0  0116  0  0
  -21.3635   -5.6677   24.9085 C   0  0  0  0  0  0  0  0  0117  0  0
  -21.5973   -4.3067   24.7088 C   0  0  0  0  0  0  0  0  0118  0  0
  -21.8700   -3.8284   23.4282 C   0  0  0  0  0  0  0  0  0119  0  0
  -21.9144   -4.7056   22.3460 C   0  0  0  0  0  0  0  0  0120  0  0
  -22.8194  -13.5263   21.1763 C   0  0  0  0  0  0  0  0  0121  0  0
  -22.1559   -4.2206   21.1063 F   0  0  0  0  0  0  0  0  0122  0  0
  -21.5628   -3.4510   25.7555 F   0  0  0  0  0  0  0  0  0123  0  0
  -30.0261  -13.1803   20.4553 N   0  0  0  0  0  0  0  0  0124  0  0
  -26.2911  -12.9356   20.3443 N   0  0  0  0  0  0  0  0  0125  0  0
  -25.9236  -11.6675   20.5847 N   0  0  0  0  0  0  0  0  0126  0  0
  -22.0708  -12.7905   22.0005 N   0  0  0  0  0  0  0  0  0127  0  0
  -25.4117  -15.1773   20.4097 N   0  0  0  0  0  0  0  0  0128  0  0
  -31.7916  -14.6724   20.0536 O   0  0  0  0  0  0  0  0  0129  0  0
  -21.6670   -6.9022   21.4423 O   0  0  0  0  0  0  0  0  0130  0  0
  -22.3946  -14.5564   20.6568 O   0  0  0  0  0  0  0  0  0131  0  0
  -24.6048  -31.8614   23.2223 C   0  0  0  0  0  0  0  0  0100  0  0
  -25.8822  -32.4841   23.8616 C   0  0  1  0  0  0  0  0  0101  0  0
  -27.2536  -27.5042   20.1156 C   0  0  0  0  0  0  0  0  0102  0  0
  -25.5726  -33.8762   24.2210 N   0  0  0  0  0  0  0  0  0103  0  0
  -23.4066  -30.4859   21.5461 C   0  0  2  0  0  0  0  0  0104  0  0
  -24.8467  -28.9636   20.1247 C   0  0  0  0  0  0  0  0  0105  0  0
  -22.7412  -29.4652   22.5052 C   0  0  0  0  0  0  0  0  0106  0  0
  -18.0167  -28.1302   22.8626 C   0  0  0  0  0  0  0  0  0107  0  0
  -24.1342  -36.7390   23.2568 C   0  0  0  0  0  0  0  0  0108  0  0
  -25.9141  -30.8882   21.3456 C   0  0  0  0  0  0  0  0  0109  0  0
  -25.9930  -29.5029   20.7208 C   0  0  0  0  0  0  0  0  0110  0  0
  -27.1758  -28.7612   20.7331 C   0  0  0  0  0  0  0  0  0111  0  0
  -26.1032  -26.9836   19.5230 C   0  0  0  0  0  0  0  0  0112  0  0
  -24.9097  -27.7011   19.5331 C   0  0  0  0  0  0  0  0  0113  0  0
  -23.5715  -29.7899   20.1582 C   0  0  0  0  0  0  0  0  0114  0  0
  -25.3990  -36.3212   24.0232 C   0  0  1  0  0  0  0  0  0115  0  0
  -20.5793  -28.3813   23.1004 C   0  0  2  0  0  0  0  0  0116  0  0
  -20.6548  -26.9392   22.5411 C   0  0  0  0  0  0  0  0  0117  0  0
  -19.5615  -26.6407   21.5143 C   0  0  0  0  0  0  0  0  0118  0  0
  -18.1797  -26.7818   22.1673 C   0  0  0  0  0  0  0  0  0119  0  0
  -19.1385  -28.8769   23.2988 C   0  0  0  0  0  0  0  0  0120  0  0
  -18.9183  -30.1286   23.8878 C   0  0  0  0  0  0  0  0  0121  0  0
  -17.6396  -30.6493   24.0352 C   0  0  0  0  0  0  0  0  0122  0  0
  -25.9153  -34.9582   23.4993 C   0  0  0  0  0  0  0  0  0123  0  0
  -16.5415  -29.9068   23.6254 C   0  0  0  0  0  0  0  0  0124  0  0
  -16.7331  -28.6521   23.0586 C   0  0  0  0  0  0  0  0  0125  0  0
  -26.4583  -31.6439   25.0683 C   0  0  0  0  0  0  0  0  0126  0  0
  -25.3807  -31.3179   26.1374 C   0  0  0  0  0  0  0  0  0127  0  0
  -27.0530  -30.3024   24.5680 C   0  0  0  0  0  0  0  0  0128  0  0
  -27.6014  -32.4281   25.7651 C   0  0  0  0  0  0  0  0  0129  0  0
  -27.5629  -37.2220   24.8621 C   0  0  0  0  0  0  0  0  0130  0  0
  -21.4133  -29.3375   22.3735 N   0  0  0  0  0  0  0  0  0131  0  0
  -26.4706  -37.3372   23.9061 N   0  0  0  0  0  0  0  0  0132  0  0
  -24.6674  -31.0544   22.1178 N   0  0  0  0  0  0  0  0  0133  0  0
  -23.4259  -28.8150   23.2971 O   0  0  0  0  0  0  0  0  0134  0  0
  -28.3948  -26.7345   20.0089 O   0  0  0  0  0  0  0  0  0135  0  0
  -26.5870  -34.9065   22.4671 O   0  0  0  0  0  0  0  0  0136  0  0
  -23.5365  -32.1254   23.7833 O   0  0  0  0  0  0  0  0  0137  0  0
  -32.6420  -17.4891   23.5199 C   0  0  0  0  0  0  0  0  0  0  0  0
  -32.0362  -16.6304   22.6027 C   0  0  0  0  0  0  0  0  0  0  0  0
  -30.4707  -18.3230   24.1734 C   0  0  0  0  0  0  0  0  0  0  0  0
  -31.8593  -18.3354   24.3053 C   0  0  0  0  0  0  0  0  0  0  0  0
  -29.8649  -17.4644   23.2562 C   0  0  0  0  0  0  0  0  0  0  0  0
  -30.6476  -16.6181   22.4708 C   0  0  0  0  0  0  0  0  0  0  0  0
  -28.3755  -17.4745   23.1339 C   0  0  0  0  0  0  0  0  0  0  0  0
  -34.9001  -21.0410   26.0959 C   0  0  0  0  0  0  0  0  0  0  0  0
  -32.7022  -22.0416   26.7708 C   0  0  0  0  0  0  0  0  0  0  0  0
  -32.5153  -19.2665   25.2963 C   0  0  0  0  0  0  0  0  0  0  0  0
  -32.8449  -20.6221   24.6560 C   0  0  0  0  0  0  0  0  0  0  0  0
  -33.8905  -22.9205   24.7584 C   0  0  0  0  0  0  0  0  0  1  0  0
  -33.5813  -21.6402   25.5730 C   0  0  0  0  0  0  0  0  0  0  0  0
  -30.0513  -15.7386   21.5334 N   0  0  0  0  0  0  0  0  0  0  0  0
  -31.4485  -12.4701   19.0860 H   0  0  0  0  0  0  0  0  0  0  0  0
  -30.3970  -11.2460   19.6950 H   0  0  0  0  0  0  0  0  0  0  0  0
  -29.6870  -11.8204   17.4226 H   0  0  0  0  0  0  0  0  0  0  0  0
  -29.6375  -13.5326   17.8649 H   0  0  0  0  0  0  0  0  0  0  0  0
  -27.7830  -11.3650   18.7904 H   0  0  0  0  0  0  0  0  0  0  0  0
  -27.4028  -12.7801   17.8021 H   0  0  0  0  0  0  0  0  0  0  0  0
  -27.7353  -14.2503   19.6136 H   0  0  0  0  0  0  0  0  0  0  0  0
  -28.5890  -11.9550   21.3832 H   0  0  0  0  0  0  0  0  0  0  0  0
  -28.5005  -13.6134   21.8562 H   0  0  0  0  0  0  0  0  0  0  0  0
  -25.2399   -9.5495   22.4318 H   0  0  0  0  0  0  0  0  0  0  0  0
  -23.9663   -7.5070   22.7297 H   0  0  0  0  0  0  0  0  0  0  0  0
  -21.1515   -8.8641   19.9162 H   0  0  0  0  0  0  0  0  0  0  0  0
  -22.4016  -10.9115   19.6476 H   0  0  0  0  0  0  0  0  0  0  0  0
  -21.2319   -7.5552   23.9750 H   0  0  0  0  0  0  0  0  0  0  0  0
  -21.1589   -6.0228   25.8556 H   0  0  0  0  0  0  0  0  0  0  0  0
  -22.0396   -2.8212   23.2809 H   0  0  0  0  0  0  0  0  0  0  0  0
  -22.4401  -11.9703   22.4008 H   0  0  0  0  0  0  0  0  0  0  0  0
  -21.1493  -13.0679   22.2082 H   0  0  0  0  0  0  0  0  0  0  0  0
  -24.6538  -15.7807   20.5848 H   0  0  0  0  0  0  0  0  0  0  0  0
  -26.2762  -15.5453   20.1156 H   0  0  0  0  0  0  0  0  0  0  0  0
  -26.6778  -32.4663   23.1464 H   0  0  0  0  0  0  0  0  0  0  0  0
  -25.0747  -34.0282   25.0566 H   0  0  0  0  0  0  0  0  0  0  0  0
  -22.7881  -31.3489   21.4131 H   0  0  0  0  0  0  0  0  0  0  0  0
  -23.3854  -35.9823   23.3648 H   0  0  0  0  0  0  0  0  0  0  0  0
  -24.3696  -36.8624   22.2204 H   0  0  0  0  0  0  0  0  0  0  0  0
  -23.7669  -37.6632   23.6516 H   0  0  0  0  0  0  0  0  0  0  0  0
  -25.9445  -31.6237   20.5691 H   0  0  0  0  0  0  0  0  0  0  0  0
  -26.7436  -31.0079   22.0108 H   0  0  0  0  0  0  0  0  0  0  0  0
  -28.0090  -29.1452   21.2057 H   0  0  0  0  0  0  0  0  0  0  0  0
  -26.1369  -26.0560   19.0719 H   0  0  0  0  0  0  0  0  0  0  0  0
  -24.0652  -27.2961   19.0997 H   0  0  0  0  0  0  0  0  0  0  0  0
  -23.6156  -30.5365   19.3930 H   0  0  0  0  0  0  0  0  0  0  0  0
  -22.7355  -29.1425   19.9945 H   0  0  0  0  0  0  0  0  0  0  0  0
  -25.1353  -36.2335   25.0565 H   0  0  0  0  0  0  0  0  0  0  0  0
  -21.0070  -28.3206   24.0793 H   0  0  0  0  0  0  0  0  0  0  0  0
  -20.5555  -26.2518   23.3550 H   0  0  0  0  0  0  0  0  0  0  0  0
  -21.5974  -26.8362   22.0454 H   0  0  0  0  0  0  0  0  0  0  0  0
  -19.6810  -25.6422   21.1488 H   0  0  0  0  0  0  0  0  0  0  0  0
  -19.6406  -27.3343   20.7034 H   0  0  0  0  0  0  0  0  0  0  0  0
  -17.4282  -26.6888   21.4113 H   0  0  0  0  0  0  0  0  0  0  0  0
  -18.0803  -26.0130   22.9049 H   0  0  0  0  0  0  0  0  0  0  0  0
  -19.7265  -30.6774   24.2204 H   0  0  0  0  0  0  0  0  0  0  0  0
  -17.5064  -31.5856   24.4483 H   0  0  0  0  0  0  0  0  0  0  0  0
  -15.5878  -30.2839   23.7407 H   0  0  0  0  0  0  0  0  0  0  0  0
  -15.9120  -28.0941   22.7766 H   0  0  0  0  0  0  0  0  0  0  0  0
  -24.5787  -30.7757   25.6817 H   0  0  0  0  0  0  0  0  0  0  0  0
  -25.0041  -32.2289   26.5536 H   0  0  0  0  0  0  0  0  0  0  0  0
  -25.8166  -30.7245   26.9138 H   0  0  0  0  0  0  0  0  0  0  0  0
  -26.2892  -29.7335   24.0803 H   0  0  0  0  0  0  0  0  0  0  0  0
  -27.4336  -29.7484   25.4006 H   0  0  0  0  0  0  0  0  0  0  0  0
  -27.8466  -30.4994   23.8779 H   0  0  0  0  0  0  0  0  0  0  0  0
  -27.2251  -33.3632   26.1242 H   0  0  0  0  0  0  0  0  0  0  0  0
  -28.3902  -32.6065   25.0645 H   0  0  0  0  0  0  0  0  0  0  0  0
  -27.9772  -31.8555   26.5872 H   0  0  0  0  0  0  0  0  0  0  0  0
  -28.2744  -38.0016   24.6863 H   0  0  0  0  0  0  0  0  0  0  0  0
  -28.0396  -36.2711   24.7461 H   0  0  0  0  0  0  0  0  0  0  0  0
  -27.1773  -37.3087   25.8564 H   0  0  0  0  0  0  0  0  0  0  0  0
  -20.9627  -29.9365   21.7352 H   0  0  0  0  0  0  0  0  0  0  0  0
  -26.0447  -38.2561   24.0273 H   0  0  0  0  0  0  0  0  0  0  0  0
  -33.6693  -17.4983   23.6174 H   0  0  0  0  0  0  0  0  0  0  0  0
  -32.6153  -16.0042   22.0217 H   0  0  0  0  0  0  0  0  0  0  0  0
  -29.8916  -18.9491   24.7545 H   0  0  0  0  0  0  0  0  0  0  0  0
  -27.9663  -18.1880   23.8183 H   0  0  0  0  0  0  0  0  0  0  0  0
  -27.9924  -16.5017   23.3613 H   0  0  0  0  0  0  0  0  0  0  0  0
  -28.1015  -17.7411   22.1345 H   0  0  0  0  0  0  0  0  0  0  0  0
  -34.6909  -20.1559   26.6595 H   0  0  0  0  0  0  0  0  0  0  0  0
  -35.3925  -21.7549   26.7227 H   0  0  0  0  0  0  0  0  0  0  0  0
  -35.5332  -20.7959   25.2688 H   0  0  0  0  0  0  0  0  0  0  0  0
  -32.4732  -21.1730   27.3521 H   0  0  0  0  0  0  0  0  0  0  0  0
  -31.7943  -22.4823   26.4151 H   0  0  0  0  0  0  0  0  0  0  0  0
  -33.2279  -22.7487   27.3779 H   0  0  0  0  0  0  0  0  0  0  0  0
  -33.4208  -18.8183   25.6487 H   0  0  0  0  0  0  0  0  0  0  0  0
  -31.8345  -19.4322   26.1050 H   0  0  0  0  0  0  0  0  0  0  0  0
  -31.9252  -21.0690   24.3407 H   0  0  0  0  0  0  0  0  0  0  0  0
  -33.5212  -20.4093   23.8546 H   0  0  0  0  0  0  0  0  0  0  0  0
  -34.7058  -22.6660   24.1139 H   0  0  0  0  0  0  0  0  0  0  0  0
  -34.0191  -23.6377   25.5420 H   0  0  0  0  0  0  0  0  0  0  0  0
  -29.1036  -15.9159   21.3344 H   0  0  0  0  0  0  0  0  0  0  0  0
  1 25  1  0
  1 30  2  0
  1 84  1  0
  2  3  1  0
  2 25  1  0
  2 85  1  0
  2 86  1  0
  3  4  1  0
  3 87  1  0
  3 88  1  0
  4  5  1  0
  4 89  1  0
  4 90  1  0
  5  6  1  0
  5 26  1  0
  5 91  1  6
  6 25  1  0
  6 92  1  0
  6 93  1  0
  7  8  2  0
  7 26  1  0
  7 29  1  0
  8  9  1  0
  8 22  1  0
  9 10  1  0
  9 27  2  0
 10 11  2  0
 10 15  1  0
 11 12  1  0
 11 94  1  0
 12 13  2  0
 12 95  1  0
 13 14  1  0
 13 31  1  0
 14 15  2  0
 14 96  1  0
 15 97  1  0
 16 17  2  0
 16 21  1  0
 16 31  1  0
 17 18  1  0
 17 98  1  0
 18 19  2  0
 18 99  1  0
 19 20  1  0
 19 24  1  0
 20 21  2  0
 20100  1  0
 21 23  1  0
 22 28  1  0
 22 32  2  0
 26 27  1  0
 28101  1  0
 28102  1  0
 29103  1  0
 29104  1  0
 33 34  1  0
 33 66  1  0
 33 70  2  0
 34 36  1  0
 34 59  1  0
 34105  1  6
 35 44  2  0
 35 45  1  0
 35 68  1  0
 36 56  1  0
 36106  1  0
 37 39  1  0
 37 47  1  0
 37 66  1  0
 37107  1  6
 38 43  2  0
 38 46  1  0
 38 47  1  0
 39 64  1  0
 39 67  2  0
 40 52  1  0
 40 53  2  0
 40 58  1  0
 41108  1  0
 41109  1  0
 41110  1  0
 42 43  1  0
 42 66  1  0
 42111  1  0
 42112  1  0
 43 44  1  0
 44113  1  0
 45 46  2  0
 45114  1  0
 46115  1  0
 47116  1  0
 47117  1  0
 48 41  1  0
 48 56  1  0
 48 65  1  0
 48118  1  1
 49 50  1  0
 49 53  1  0
 49 64  1  0
 49119  1  1
 50 51  1  0
 50120  1  0
 50121  1  0
 51 52  1  0
 51122  1  0
 51123  1  0
 52124  1  0
 52125  1  0
 53 54  1  0
 54 55  2  0
 54126  1  0
 55 57  1  0
 55127  1  0
 56 69  2  0
 57 58  2  0
 57128  1  0
 58129  1  0
 59 60  1  0
 59 61  1  0
 59 62  1  0
 60130  1  0
 60131  1  0
 60132  1  0
 61133  1  0
 61134  1  0
 61135  1  0
 62136  1  0
 62137  1  0
 62138  1  0
 63 65  1  0
 63139  1  0
 63140  1  0
 63141  1  0
 64142  1  0
 65143  1  0
 68 82  1  0
 71 72  2  0
 71 74  1  0
 71144  1  0
 72 76  1  0
 72145  1  0
 73 74  2  0
 73 75  1  0
 73146  1  0
 74 80  1  0
 75 76  2  0
 75 77  1  0
 76 84  1  0
 77147  1  0
 77148  1  0
 77149  1  0
 78150  1  0
 78151  1  0
 78152  1  0
 79 83  1  0
 79153  1  0
 79154  1  0
 79155  1  0
 80 81  1  0
 80156  1  0
 80157  1  0
 81 83  1  0
 81158  1  0
 81159  1  0
 82 83  1  0
 82160  1  0
 82161  1  0
 83 78  1  0
 84162  1  0
M  ISO  4   1 100  68 101  82 101  84 100
M  END
$$$$
1
     RDKit          3D

152160  0  0  0  0  0  0  0  0999 V2000
  -30.7652  -14.3608   20.6636 C   0  0  0  0  0  0  0  0  0100  0  0
  -30.4392  -12.2669   19.3775 C   0  0  0  0  0  0  0  0  0101  0  0
  -29.4791  -12.5281   18.1977 C   0  0  0  0  0  0  0  0  0102  0  0
  -27.9985  -12.3963   18.6038 C   0  0  0  0  0  0  0  0  0103  0  0
  -27.6639  -13.2170   19.8820 C   0  0  2  0  0  0  0  0  0104  0  0
  -28.6795  -12.9602   21.0279 C   0  0  0  0  0  0  0  0  0105  0  0
  -25.2633  -13.8245   20.5754 C   0  0  0  0  0  0  0  0  0106  0  0
  -24.1645  -13.0409   20.9408 C   0  0  0  0  0  0  0  0  0107  0  0
  -24.6400  -11.7009   20.8697 C   0  0  0  0  0  0  0  0  0108  0  0
  -23.9005  -10.4085   21.0420 C   0  0  0  0  0  0  0  0  0109  0  0
  -24.3588   -9.4123   21.9123 C   0  0  0  0  0  0  0  0  0110  0  0
  -23.6296   -8.2350   22.0803 C   0  0  0  0  0  0  0  0  0111  0  0
  -22.4385   -8.0419   21.3657 C   0  0  0  0  0  0  0  0  0112  0  0
  -22.0103   -9.0167   20.4678 C   0  0  0  0  0  0  0  0  0113  0  0
  -22.7317  -10.1925   20.3102 C   0  0  0  0  0  0  0  0  0114  0  0
  -21.6857   -6.0709   22.5391 C   0  0  0  0  0  0  0  0  0115  0  0
  -21.4064   -6.5490   23.8264 C   0  0  0  0  0  0  0  0  0116  0  0
  -21.3635   -5.6677   24.9085 C   0  0  0  0  0  0  0  0  0117  0  0
  -21.5973   -4.3067   24.7088 C   0  0  0  0  0  0  0  0  0118  0  0
  -21.8700   -3.8284   23.4282 C   0  0  0  0  0  0  0  0  0119  0  0
  -21.9144   -4.7056   22.3460 C   0  0  0  0  0  0  0  0  0120  0  0
  -22.8194  -13.5263   21.1763 C   0  0  0  0  0  0  0  0  0121  0  0
  -22.1559   -4.2206   21.1063 F   0  0  0  0  0  0  0  0  0122  0  0
  -21.5628   -3.4510   25.7555 F   0  0  0  0  0  0  0  0  0123  0  0
  -30.0261  -13.1803   20.4553 N   0  0  0  0  0  0  0  0  0124  0  0
  -26.2911  -12.9356   20.3443 N   0  0  0  0  0  0  0  0  0125  0  0
  -25.9236  -11.6675   20.5847 N   0  0  0  0  0  0  0  0  0126  0  0
  -22.0708  -12.7905   22.0005 N   0  0  0  0  0  0  0  0  0127  0  0
  -25.4117  -15.1773   20.4097 N   0  0  0  0  0  0  0  0  0128  0  0
  -31.7916  -14.6724   20.0536 O   0  0  0  0  0  0  0  0  0129  0  0
  -21.6670   -6.9022   21.4423 O   0  0  0  0  0  0  0  0  0130  0  0
  -22.3946  -14.5564   20.6568 O   0  0  0  0  0  0  0  0  0131  0  0
  -24.6048  -31.8614   23.2223 C   0  0  0  0  0  0  0  0  0100  0  0
  -25.8822  -32.4841   23.8616 C   0  0  1  0  0  0  0  0  0101  0  0
  -27.2536  -27.5042   20.1156 C   0  0  0  0  0  0  0  0  0102  0  0
  -25.5726  -33.8762   24.2210 N   0  0  0  0  0  0  0  0  0103  0  0
  -23.4066  -30.4859   21.5461 C   0  0  2  0  0  0  0  0  0104  0  0
  -24.8467  -28.9636   20.1247 C   0  0  0  0  0  0  0  0  0105  0  0
  -22.7412  -29.4652   22.5052 C   0  0  0  0  0  0  0  0  0106  0  0
  -18.0167  -28.1302   22.8626 C   0  0  0  0  0  0  0  0  0107  0  0
  -24.1342  -36.7390   23.2568 C   0  0  0  0  0  0  0  0  0108  0  0
  -25.9141  -30.8882   21.3456 C   0  0  0  0  0  0  0  0  0109  0  0
  -25.9930  -29.5029   20.7208 C   0  0  0  0  0  0  0  0  0110  0  0
  -27.1758  -28.7612   20.7331 C   0  0  0  0  0  0  0  0  0111  0  0
  -26.1032  -26.9836   19.5230 C   0  0  0  0  0  0  0  0  0112  0  0
  -24.9097  -27.7011   19.5331 C   0  0  0  0  0  0  0  0  0113  0  0
  -23.5715  -29.7899   20.1582 C   0  0  0  0  0  0  0  0  0114  0  0
  -25.3990  -36.3212   24.0232 C   0  0  1  0  0  0  0  0  0115  0  0
  -20.5793  -28.3813   23.1004 C   0  0  2  0  0  0  0  0  0116  0  0
  -20.6548  -26.9392   22.5411 C   0  0  0  0  0  0  0  0  0117  0  0
  -19.5615  -26.6407   21.5143 C   0  0  0  0  0  0  0  0  0118  0  0
  -18.1797  -26.7818   22.1673 C   0  0  0  0  0  0  0  0  0119  0  0
  -19.1385  -28.8769   23.2988 C   0  0  0  0  0  0  0  0  0120  0  0
  -18.9183  -30.1286   23.8878 C   0  0  0  0  0  0  0  0  0121  0  0
  -17.6396  -30.6493   24.0352 C   0  0  0  0  0  0  0  0  0122  0  0
  -25.9153  -34.9582   23.4993 C   0  0  0  0  0  0  0  0  0123  0  0
  -16.5415  -29.9068   23.6254 C   0  0  0  0  0  0  0  0  0124  0  0
  -16.7331  -28.6521   23.0586 C   0  0  0  0  0  0  0  0  0125  0  0
  -26.4583  -31.6439   25.0683 C   0  0  0  0  0  0  0  0  0126  0  0
  -25.3807  -31.3179   26.1374 C   0  0  0  0  0  0  0  0  0127  0  0
  -27.0530  -30.3024   24.5680 C   0  0  0  0  0  0  0  0  0128  0  0
  -27.6014  -32.4281   25.7651 C   0  0  0  0  0  0  0  0  0129  0  0
  -27.5629  -37.2220   24.8621 C   0  0  0  0  0  0  0  0  0130  0  0
  -21.4133  -29.3375   22.3735 N   0  0  0  0  0  0  0  0  0131  0  0
  -26.4706  -37.3372   23.9061 N   0  0  0  0  0  0  0  0  0132  0  0
  -24.6674  -31.0544   22.1178 N   0  0  0  0  0  0  0  0  0133  0  0
  -23.4259  -28.8150   23.2971 O   0  0  0  0  0  0  0  0  0134  0  0
  -28.3948  -26.7345   20.0089 O   0  0  0  0  0  0  0  0  0135  0  0
  -26.5870  -34.9065   22.4671 O   0  0  0  0  0  0  0  0  0136  0  0
  -23.5365  -32.1254   23.7833 O   0  0  0  0  0  0  0  0  0137  0  0
  -31.1348  -19.1386   18.2440 C   0  0  0  0  0  0  0  0  0  0  0  0
  -31.2307  -17.8044   18.7348 C   0  0  0  0  0  0  0  0  0  0  0  0
  -29.8264  -19.5359   18.0774 C   0  0  0  0  0  0  0  0  0  0  0  0
  -29.9917  -17.2328   18.9248 C   0  0  0  0  0  0  0  0  0  0  0  0
  -28.8326  -24.3489   19.2283 C   0  0  0  0  0  0  0  0  0  0  0  0
  -29.3037  -20.8600   17.5820 C   0  0  0  0  0  0  0  0  0  0  0  0
  -28.8118  -23.2653   18.1631 C   0  0  0  0  0  0  0  0  0  0  0  0
  -28.2495  -25.6862   18.8158 C   0  0  0  0  0  0  0  0  0  1  0  0
  -29.3818  -21.9398   18.6628 C   0  0  0  0  0  0  0  0  0  0  0  0
  -29.6265  -15.9458   19.3916 N   0  0  0  0  0  0  0  0  0  0  0  0
  -29.2927  -24.1622   20.3537 O   0  0  0  0  0  0  0  0  0  0  0  0
  -28.7203  -18.3030   18.5119 S   0  0  0  0  0  0  0  0  0  0  0  0
  -31.4485  -12.4701   19.0860 H   0  0  0  0  0  0  0  0  0  0  0  0
  -30.3970  -11.2460   19.6950 H   0  0  0  0  0  0  0  0  0  0  0  0
  -29.6870  -11.8204   17.4226 H   0  0  0  0  0  0  0  0  0  0  0  0
  -29.6375  -13.5326   17.8649 H   0  0  0  0  0  0  0  0  0  0  0  0
  -27.7830  -11.3650   18.7904 H   0  0  0  0  0  0  0  0  0  0  0  0
  -27.4028  -12.7801   17.8021 H   0  0  0  0  0  0  0  0  0  0  0  0
  -27.7353  -14.2503   19.6136 H   0  0  0  0  0  0  0  0  0  0  0  0
  -28.5890  -11.9550   21.3832 H   0  0  0  0  0  0  0  0  0  0  0  0
  -28.5005  -13.6134   21.8562 H   0  0  0  0  0  0  0  0  0  0  0  0
  -25.2399   -9.5495   22.4318 H   0  0  0  0  0  0  0  0  0  0  0  0
  -23.9663   -7.5070   22.7297 H   0  0  0  0  0  0  0  0  0  0  0  0
  -21.1515   -8.8641   19.9162 H   0  0  0  0  0  0  0  0  0  0  0  0
  -22.4016  -10.9115   19.6476 H   0  0  0  0  0  0  0  0  0  0  0  0
  -21.2319   -7.5552   23.9750 H   0  0  0  0  0  0  0  0  0  0  0  0
  -21.1589   -6.0228   25.8556 H   0  0  0  0  0  0  0  0  0  0  0  0
  -22.0396   -2.8212   23.2809 H   0  0  0  0  0  0  0  0  0  0  0  0
  -22.4401  -11.9703   22.4008 H   0  0  0  0  0  0  0  0  0  0  0  0
  -21.1493  -13.0679   22.2082 H   0  0  0  0  0  0  0  0  0  0  0  0
  -24.6538  -15.7807   20.5848 H   0  0  0  0  0  0  0  0  0  0  0  0
  -26.2762  -15.5453   20.1156 H   0  0  0  0  0  0  0  0  0  0  0  0
  -26.6778  -32.4663   23.1464 H   0  0  0  0  0  0  0  0  0  0  0  0
  -25.0747  -34.0282   25.0566 H   0  0  0  0  0  0  0  0  0  0  0  0
  -22.7881  -31.3489   21.4131 H   0  0  0  0  0  0  0  0  0  0  0  0
  -23.3854  -35.9823   23.3648 H   0  0  0  0  0  0  0  0  0  0  0  0
  -24.3696  -36.8624   22.2204 H   0  0  0  0  0  0  0  0  0  0  0  0
  -23.7669  -37.6632   23.6516 H   0  0  0  0  0  0  0  0  0  0  0  0
  -25.9445  -31.6237   20.5691 H   0  0  0  0  0  0  0  0  0  0  0  0
  -26.7436  -31.0079   22.0108 H   0  0  0  0  0  0  0  0  0  0  0  0
  -28.0090  -29.1452   21.2057 H   0  0  0  0  0  0  0  0  0  0  0  0
  -26.1369  -26.0560   19.0719 H   0  0  0  0  0  0  0  0  0  0  0  0
  -24.0652  -27.2961   19.0997 H   0  0  0  0  0  0  0  0  0  0  0  0
  -23.6156  -30.5365   19.3930 H   0  0  0  0  0  0  0  0  0  0  0  0
  -22.7355  -29.1425   19.9945 H   0  0  0  0  0  0  0  0  0  0  0  0
  -25.1353  -36.2335   25.0565 H   0  0  0  0  0  0  0  0  0  0  0  0
  -21.0070  -28.3206   24.0793 H   0  0  0  0  0  0  0  0  0  0  0  0
  -20.5555  -26.2518   23.3550 H   0  0  0  0  0  0  0  0  0  0  0  0
  -21.5974  -26.8362   22.0454 H   0  0  0  0  0  0  0  0  0  0  0  0
  -19.6810  -25.6422   21.1488 H   0  0  0  0  0  0  0  0  0  0  0  0
  -19.6406  -27.3343   20.7034 H   0  0  0  0  0  0  0  0  0  0  0  0
  -17.4282  -26.6888   21.4113 H   0  0  0  0  0  0  0  0  0  0  0  0
  -18.0803  -26.0130   22.9049 H   0  0  0  0  0  0  0  0  0  0  0  0
  -19.7265  -30.6774   24.2204 H   0  0  0  0  0  0  0  0  0  0  0  0
  -17.5064  -31.5856   24.4483 H   0  0  0  0  0  0  0  0  0  0  0  0
  -15.5878  -30.2839   23.7407 H   0  0  0  0  0  0  0  0  0  0  0  0
  -15.9120  -28.0941   22.7766 H   0  0  0  0  0  0  0  0  0  0  0  0
  -24.5787  -30.7757   25.6817 H   0  0  0  0  0  0  0  0  0  0  0  0
  -25.0041  -32.2289   26.5536 H   0  0  0  0  0  0  0  0  0  0  0  0
  -25.8166  -30.7245   26.9138 H   0  0  0  0  0  0  0  0  0  0  0  0
  -26.2892  -29.7335   24.0803 H   0  0  0  0  0  0  0  0  0  0  0  0
  -27.4336  -29.7484   25.4006 H   0  0  0  0  0  0  0  0  0  0  0  0
  -27.8466  -30.4994   23.8779 H   0  0  0  0  0  0  0  0  0  0  0  0
  -27.2251  -33.3632   26.1242 H   0  0  0  0  0  0  0  0  0  0  0  0
  -28.3902  -32.6065   25.0645 H   0  0  0  0  0  0  0  0  0  0  0  0
  -27.9772  -31.8555   26.5872 H   0  0  0  0  0  0  0  0  0  0  0  0
  -28.2744  -38.0016   24.6863 H   0  0  0  0  0  0  0  0  0  0  0  0
  -28.0396  -36.2711   24.7461 H   0  0  0  0  0  0  0  0  0  0  0  0
  -27.1773  -37.3087   25.8564 H   0  0  0  0  0  0  0  0  0  0  0  0
  -20.9627  -29.9365   21.7352 H   0  0  0  0  0  0  0  0  0  0  0  0
  -26.0447  -38.2561   24.0273 H   0  0  0  0  0  0  0  0  0  0  0  0
  -31.9498  -19.7370   18.0376 H   0  0  0  0  0  0  0  0  0  0  0  0
  -32.1233  -17.3229   18.9255 H   0  0  0  0  0  0  0  0  0  0  0  0
  -28.2828  -20.7404   17.2846 H   0  0  0  0  0  0  0  0  0  0  0  0
  -29.9100  -21.1700   16.7566 H   0  0  0  0  0  0  0  0  0  0  0  0
  -29.3931  -23.5950   17.3274 H   0  0  0  0  0  0  0  0  0  0  0  0
  -27.7905  -23.0972   17.8917 H   0  0  0  0  0  0  0  0  0  0  0  0
  -27.2140  -25.5628   18.5764 H   0  0  0  0  0  0  0  0  0  0  0  0
  -28.7781  -26.0515   17.9602 H   0  0  0  0  0  0  0  0  0  0  0  0
  -30.4054  -22.0826   18.9398 H   0  0  0  0  0  0  0  0  0  0  0  0
  -28.8039  -21.6188   19.5041 H   0  0  0  0  0  0  0  0  0  0  0  0
  -28.7192  -15.6688   19.1284 H   0  0  0  0  0  0  0  0  0  0  0  0
  1 25  1  0
  1 30  2  0
  1 80  1  0
  2  3  1  0
  2 25  1  0
  2 83  1  0
  2 84  1  0
  3  4  1  0
  3 85  1  0
  3 86  1  0
  4  5  1  0
  4 87  1  0
  4 88  1  0
  5  6  1  0
  5 26  1  0
  5 89  1  6
  6 25  1  0
  6 90  1  0
  6 91  1  0
  7  8  2  0
  7 26  1  0
  7 29  1  0
  8  9  1  0
  8 22  1  0
  9 10  1  0
  9 27  2  0
 10 11  2  0
 10 15  1  0
 11 12  1  0
 11 92  1  0
 12 13  2  0
 12 93  1  0
 13 14  1  0
 13 31  1  0
 14 15  2  0
 14 94  1  0
 15 95  1  0
 16 17  2  0
 16 21  1  0
 16 31  1  0
 17 18  1  0
 17 96  1  0
 18 19  2  0
 18 97  1  0
 19 20  1  0
 19 24  1  0
 20 21  2  0
 20 98  1  0
 21 23  1  0
 22 28  1  0
 22 32  2  0
 26 27  1  0
 28 99  1  0
 28100  1  0
 29101  1  0
 29102  1  0
 33 34  1  0
 33 66  1  0
 33 70  2  0
 34 36  1  0
 34 59  1  0
 34103  1  6
 35 44  2  0
 35 45  1  0
 35 68  1  0
 36 56  1  0
 36104  1  0
 37 39  1  0
 37 47  1  0
 37 66  1  0
 37105  1  6
 38 43  2  0
 38 46  1  0
 38 47  1  0
 39 64  1  0
 39 67  2  0
 40 52  1  0
 40 53  2  0
 40 58  1  0
 41106  1  0
 41107  1  0
 41108  1  0
 42 43  1  0
 42 66  1  0
 42109  1  0
 42110  1  0
 43 44  1  0
 44111  1  0
 45 46  2  0
 45112  1  0
 46113  1  0
 47114  1  0
 47115  1  0
 48 41  1  0
 48 56  1  0
 48 65  1  0
 48116  1  1
 49 50  1  0
 49 53  1  0
 49 64  1  0
 49117  1  1
 50 51  1  0
 50118  1  0
 50119  1  0
 51 52  1  0
 51120  1  0
 51121  1  0
 52122  1  0
 52123  1  0
 53 54  1  0
 54 55  2  0
 54124  1  0
 55 57  1  0
 55125  1  0
 56 69  2  0
 57 58  2  0
 57126  1  0
 58127  1  0
 59 60  1  0
 59 61  1  0
 59 62  1  0
 60128  1  0
 60129  1  0
 60130  1  0
 61131  1  0
 61132  1  0
 61133  1  0
 62134  1  0
 62135  1  0
 62136  1  0
 63 65  1  0
 63137  1  0
 63138  1  0
 63139  1  0
 64140  1  0
 65141  1  0
 68 78  1  0
 71 72  1  0
 71 73  2  0
 71142  1  0
 72 74  2  0
 72143  1  0
 73 76  1  0
 73 82  1  0
 74 80  1  0
 74 82  1  0
 75 77  1  0
 75 78  1  0
 75 81  2  0
 76 79  1  0
 76144  1  0
 76145  1  0
 77 79  1  0
 77146  1  0
 77147  1  0
 78148  1  0
 78149  1  0
 79150  1  0
 79151  1  0
 80152  1  0
M  ISO  4   1 100  68 101  78 101  80 100
M  END
$$$$
2
     RDKit          3D

167175  0  0  0  0  0  0  0  0999 V2000
  -30.7652  -14.3608   20.6636 C   0  0  0  0  0  0  0  0  0100  0  0
  -30.4392  -12.2669   19.3775 C   0  0  0  0  0  0  0  0  0101  0  0
  -29.4791  -12.5281   18.1977 C   0  0  0  0  0  0  0  0  0102  0  0
  -27.9985  -12.3963   18.6038 C   0  0  0  0  0  0  0  0  0103  0  0
  -27.6639  -13.2170   19.8820 C   0  0  2  0  0  0  0  0  0104  0  0
  -28.6795  -12.9602   21.0279 C   0  0  0  0  0  0  0  0  0105  0  0
  -25.2633  -13.8245   20.5754 C   0  0  0  0  0  0  0  0  0106  0  0
  -24.1645  -13.0409   20.9408 C   0  0  0  0  0  0  0  0  0107  0  0
  -24.6400  -11.7009   20.8697 C   0  0  0  0  0  0  0  0  0108  0  0
  -23.9005  -10.4085   21.0420 C   0  0  0  0  0  0  0  0  0109  0  0
  -24.3588   -9.4123   21.9123 C   0  0  0  0  0  0  0  0  0110  0  0
  -23.6296   -8.2350   22.0803 C   0  0  0  0  0  0  0  0  0111  0  0
  -22.4385   -8.0419   21.3657 C   0  0  0  0  0  0  0  0  0112  0  0
  -22.0103   -9.0167   20.4678 C   0  0  0  0  0  0  0  0  0113  0  0
  -22.7317  -10.1925   20.3102 C   0  0  0  0  0  0  0  0  0114  0  0
  -21.6857   -6.0709   22.5391 C   0  0  0  0  0  0  0  0  0115  0  0
  -21.4064   -6.5490   23.8264 C   0  0  0  0  0  0  0  0  0116  0  0
  -21.3635   -5.6677   24.9085 C   0  0  0  0  0  0  0  0  0117  0  0
  -21.5973   -4.3067   24.7088 C   0  0  0  0  0  0  0  0  0118  0  0
  -21.8700   -3.8284   23.4282 C   0  0  0  0  0  0  0  0  0119  0  0
  -21.9144   -4.7056   22.3460 C   0  0  0  0  0  0  0  0  0120  0  0
  -22.8194  -13.5263   21.1763 C   0  0  0  0  0  0  0  0  0121  0  0
  -22.1559   -4.2206   21.1063 F   0  0  0  0  0  0  0  0  0122  0  0
  -21.5628   -3.4510   25.7555 F   0  0  0  0  0  0  0  0  0123  0  0
  -30.0261  -13.1803   20.4553 N   0  0  0  0  0  0  0  0  0124  0  0
  -26.2911  -12.9356   20.3443 N   0  0  0  0  0  0  0  0  0125  0  0
  -25.9236  -11.6675   20.5847 N   0  0  0  0  0  0  0  0  0126  0  0
  -22.0708  -12.7905   22.0005 N   0  0  0  0  0  0  0  0  0127  0  0
  -25.4117  -15.1773   20.4097 N   0  0  0  0  0  0  0  0  0128  0  0
  -31.7916  -14.6724   20.0536 O   0  0  0  0  0  0  0  0  0129  0  0
  -21.6670   -6.9022   21.4423 O   0  0  0  0  0  0  0  0  0130  0  0
  -22.3946  -14.5564   20.6568 O   0  0  0  0  0  0  0  0  0131  0  0
  -24.6048  -31.8614   23.2223 C   0  0  0  0  0  0  0  0  0100  0  0
  -25.8822  -32.4841   23.8616 C   0  0  1  0  0  0  0  0  0101  0  0
  -27.2536  -27.5042   20.1156 C   0  0  0  0  0  0  0  0  0102  0  0
  -25.5726  -33.8762   24.2210 N   0  0  0  0  0  0  0  0  0103  0  0
  -23.4066  -30.4859   21.5461 C   0  0  2  0  0  0  0  0  0104  0  0
  -24.8467  -28.9636   20.1247 C   0  0  0  0  0  0  0  0  0105  0  0
  -22.7412  -29.4652   22.5052 C   0  0  0  0  0  0  0  0  0106  0  0
  -18.0167  -28.1302   22.8626 C   0  0  0  0  0  0  0  0  0107  0  0
  -24.1342  -36.7390   23.2568 C   0  0  0  0  0  0  0  0  0108  0  0
  -25.9141  -30.8882   21.3456 C   0  0  0  0  0  0  0  0  0109  0  0
  -25.9930  -29.5029   20.7208 C   0  0  0  0  0  0  0  0  0110  0  0
  -27.1758  -28.7612   20.7331 C   0  0  0  0  0  0  0  0  0111  0  0
  -26.1032  -26.9836   19.5230 C   0  0  0  0  0  0  0  0  0112  0  0
  -24.9097  -27.7011   19.5331 C   0  0  0  0  0  0  0  0  0113  0  0
  -23.5715  -29.7899   20.1582 C   0  0  0  0  0  0  0  0  0114  0  0
  -25.3990  -36.3212   24.0232 C   0  0  1  0  0  0  0  0  0115  0  0
  -20.5793  -28.3813   23.1004 C   0  0  2  0  0  0  0  0  0116  0  0
  -20.6548  -26.9392   22.5411 C   0  0  0  0  0  0  0  0  0117  0  0
  -19.5615  -26.6407   21.5143 C   0  0  0  0  0  0  0  0  0118  0  0
  -18.1797  -26.7818   22.1673 C   0  0  0  0  0  0  0  0  0119  0  0
  -19.1385  -28.8769   23.2988 C   0  0  0  0  0  0  0  0  0120  0  0
  -18.9183  -30.1286   23.8878 C   0  0  0  0  0  0  0  0  0121  0  0
  -17.6396  -30.6493   24.0352 C   0  0  0  0  0  0  0  0  0122  0  0
  -25.9153  -34.9582   23.4993 C   0  0  0  0  0  0  0  0  0123  0  0
  -16.5415  -29.9068   23.6254 C   0  0  0  0  0  0  0  0  0124  0  0
  -16.7331  -28.6521   23.0586 C   0  0  0  0  0  0  0  0  0125  0  0
  -26.4583  -31.6439   25.0683 C   0  0  0  0  0  0  0  0  0126  0  0
  -25.3807  -31.3179   26.1374 C   0  0  0  0  0  0  0  0  0127  0  0
  -27.0530  -30.3024   24.5680 C   0  0  0  0  0  0  0  0  0128  0  0
  -27.6014  -32.4281   25.7651 C   0  0  0  0  0  0  0  0  0129  0  0
  -27.5629  -37.2220   24.8621 C   0  0  0  0  0  0  0  0  0130  0  0
  -21.4133  -29.3375   22.3735 N   0  0  0  0  0  0  0  0  0131  0  0
  -26.4706  -37.3372   23.9061 N   0  0  0  0  0  0  0  0  0132  0  0
  -24.6674  -31.0544   22.1178 N   0  0  0  0  0  0  0  0  0133  0  0
  -23.4259  -28.8150   23.2971 O   0  0  0  0  0  0  0  0  0134  0  0
  -28.3948  -26.7345   20.0089 O   0  0  0  0  0  0  0  0  0135  0  0
  -26.5870  -34.9065   22.4671 O   0  0  0  0  0  0  0  0  0136  0  0
  -23.5365  -32.1254   23.7833 O   0  0  0  0  0  0  0  0  0137  0  0
  -22.9835  -23.3472   22.8121 C   0  0  0  0  0  0  0  0  0  0  0  0
  -25.4591  -23.0590   24.0654 C   0  0  0  0  0  0  0  0  0  0  0  0
  -23.2920  -24.1187   23.9324 C   0  0  0  0  0  0  0  0  0  0  0  0
  -23.9128  -22.4315   22.3184 C   0  0  0  0  0  0  0  0  0  0  0  0
  -25.1506  -22.2875   22.9450 C   0  0  0  0  0  0  0  0  0  0  0  0
  -24.5298  -23.9746   24.5591 C   0  0  0  0  0  0  0  0  0  0  0  0
  -22.2936  -25.0945   24.4611 C   0  0  0  0  0  0  0  0  0  0  0  0
  -23.8979  -21.2931   18.6293 C   0  0  0  0  0  0  0  0  0  0  0  0
  -19.7995  -29.3468   23.2397 C   0  0  0  0  0  0  0  0  0  0  0  0
  -18.4920  -27.2067   23.2788 C   0  0  0  0  0  0  0  0  0  0  0  0
  -23.5552  -21.6181   21.1169 C   0  0  0  0  0  0  0  0  0  0  0  0
  -21.3190  -25.7426   23.4872 C   0  0  0  0  0  0  0  0  0  0  0  0
  -24.2362  -22.1419   19.8446 C   0  0  0  0  0  0  0  0  0  0  0  0
  -20.9183  -27.1569   23.9280 C   0  0  0  0  0  0  0  0  0  0  0  0
  -19.8671  -27.8332   23.0251 C   0  0  0  0  0  0  0  0  0  1  0  0
  -26.1076  -21.3615   22.4606 N   0  0  0  0  0  0  0  0  0  0  0  0
  -22.2856  -25.3527   25.6625 O   0  0  0  0  0  0  0  0  0  0  0  0
  -24.8350  -24.7088   25.6385 F   0  0  0  0  0  0  0  0  0  0  0  0
  -31.4485  -12.4701   19.0860 H   0  0  0  0  0  0  0  0  0  0  0  0
  -30.3970  -11.2460   19.6950 H   0  0  0  0  0  0  0  0  0  0  0  0
  -29.6870  -11.8204   17.4226 H   0  0  0  0  0  0  0  0  0  0  0  0
  -29.6375  -13.5326   17.8649 H   0  0  0  0  0  0  0  0  0  0  0  0
  -27.7830  -11.3650   18.7904 H   0  0  0  0  0  0  0  0  0  0  0  0
  -27.4028  -12.7801   17.8021 H   0  0  0  0  0  0  0  0  0  0  0  0
  -27.7353  -14.2503   19.6136 H   0  0  0  0  0  0  0  0  0  0  0  0
  -28.5890  -11.9550   21.3832 H   0  0  0  0  0  0  0  0  0  0  0  0
  -28.5005  -13.6134   21.8562 H   0  0  0  0  0  0  0  0  0  0  0  0
  -25.2399   -9.5495   22.4318 H   0  0  0  0  0  0  0  0  0  0  0  0
  -23.9663   -7.5070   22.7297 H   0  0  0  0  0  0  0  0  0  0  0  0
  -21.1515   -8.8641   19.9162 H   0  0  0  0  0  0  0  0  0  0  0  0
  -22.4016  -10.9115   19.6476 H   0  0  0  0  0  0  0  0  0  0  0  0
  -21.2319   -7.5552   23.9750 H   0  0  0  0  0  0  0  0  0  0  0  0
  -21.1589   -6.0228   25.8556 H   0  0  0  0  0  0  0  0  0  0  0  0
  -22.0396   -2.8212   23.2809 H   0  0  0  0  0  0  0  0  0  0  0  0
  -22.4401  -11.9703   22.4008 H   0  0  0  0  0  0  0  0  0  0  0  0
  -21.1493  -13.0679   22.2082 H   0  0  0  0  0  0  0  0  0  0  0  0
  -24.6538  -15.7807   20.5848 H   0  0  0  0  0  0  0  0  0  0  0  0
  -26.2762  -15.5453   20.1156 H   0  0  0  0  0  0  0  0  0  0  0  0
  -26.6778  -32.4663   23.1464 H   0  0  0  0  0  0  0  0  0  0  0  0
  -25.0747  -34.0282   25.0566 H   0  0  0  0  0  0  0  0  0  0  0  0
  -22.7881  -31.3489   21.4131 H   0  0  0  0  0  0  0  0  0  0  0  0
  -23.3854  -35.9823   23.3648 H   0  0  0  0  0  0  0  0  0  0  0  0
  -24.3696  -36.8624   22.2204 H   0  0  0  0  0  0  0  0  0  0  0  0
  -23.7669  -37.6632   23.6516 H   0  0  0  0  0  0  0  0  0  0  0  0
  -25.9445  -31.6237   20.5691 H   0  0  0  0  0  0  0  0  0  0  0  0
  -26.7436  -31.0079   22.0108 H   0  0  0  0  0  0  0  0  0  0  0  0
  -28.0090  -29.1452   21.2057 H   0  0  0  0  0  0  0  0  0  0  0  0
  -26.1369  -26.0560   19.0719 H   0  0  0  0  0  0  0  0  0  0  0  0
  -24.0652  -27.2961   19.0997 H   0  0  0  0  0  0  0  0  0  0  0  0
  -23.6156  -30.5365   19.3930 H   0  0  0  0  0  0  0  0  0  0  0  0
  -22.7355  -29.1425   19.9945 H   0  0  0  0  0  0  0  0  0  0  0  0
  -25.1353  -36.2335   25.0565 H   0  0  0  0  0  0  0  0  0  0  0  0
  -21.0070  -28.3206   24.0793 H   0  0  0  0  0  0  0  0  0  0  0  0
  -20.5555  -26.2518   23.3550 H   0  0  0  0  0  0  0  0  0  0  0  0
  -21.5974  -26.8362   22.0454 H   0  0  0  0  0  0  0  0  0  0  0  0
  -19.6810  -25.6422   21.1488 H   0  0  0  0  0  0  0  0  0  0  0  0
  -19.6406  -27.3343   20.7034 H   0  0  0  0  0  0  0  0  0  0  0  0
  -17.4282  -26.6888   21.4113 H   0  0  0  0  0  0  0  0  0  0  0  0
  -18.0803  -26.0130   22.9049 H   0  0  0  0  0  0  0  0  0  0  0  0
  -19.7265  -30.6774   24.2204 H   0  0  0  0  0  0  0  0  0  0  0  0
  -17.5064  -31.5856   24.4483 H   0  0  0  0  0  0  0  0  0  0  0  0
  -15.5878  -30.2839   23.7407 H   0  0  0  0  0  0  0  0  0  0  0  0
  -15.9120  -28.0941   22.7766 H   0  0  0  0  0  0  0  0  0  0  0  0
  -24.5787  -30.7757   25.6817 H   0  0  0  0  0  0  0  0  0  0  0  0
  -25.0041  -32.2289   26.5536 H   0  0  0  0  0  0  0  0  0  0  0  0
  -25.8166  -30.7245   26.9138 H   0  0  0  0  0  0  0  0  0  0  0  0
  -26.2892  -29.7335   24.0803 H   0  0  0  0  0  0  0  0  0  0  0  0
  -27.4336  -29.7484   25.4006 H   0  0  0  0  0  0  0  0  0  0  0  0
  -27.8466  -30.4994   23.8779 H   0  0  0  0  0  0  0  0  0  0  0  0
  -27.2251  -33.3632   26.1242 H   0  0  0  0  0  0  0  0  0  0  0  0
  -28.3902  -32.6065   25.0645 H   0  0  0  0  0  0  0  0  0  0  0  0
  -27.9772  -31.8555   26.5872 H   0  0  0  0  0  0  0  0  0  0  0  0
  -28.2744  -38.0016   24.6863 H   0  0  0  0  0  0  0  0  0  0  0  0
  -28.0396  -36.2711   24.7461 H   0  0  0  0  0  0  0  0  0  0  0  0
  -27.1773  -37.3087   25.8564 H   0  0  0  0  0  0  0  0  0  0  0  0
  -20.9627  -29.9365   21.7352 H   0  0  0  0  0  0  0  0  0  0  0  0
  -26.0447  -38.2561   24.0273 H   0  0  0  0  0  0  0  0  0  0  0  0
  -22.0677  -23.4538   22.3484 H   0  0  0  0  0  0  0  0  0  0  0  0
  -26.3749  -22.9524   24.5291 H   0  0  0  0  0  0  0  0  0  0  0  0
  -24.3912  -21.6916   17.7675 H   0  0  0  0  0  0  0  0  0  0  0  0
  -22.8397  -21.3027   18.4709 H   0  0  0  0  0  0  0  0  0  0  0  0
  -24.2247  -20.2877   18.7943 H   0  0  0  0  0  0  0  0  0  0  0  0
  -18.8281  -29.6128   23.6011 H   0  0  0  0  0  0  0  0  0  0  0  0
  -19.9843  -29.8472   22.3121 H   0  0  0  0  0  0  0  0  0  0  0  0
  -20.5388  -29.6389   23.9559 H   0  0  0  0  0  0  0  0  0  0  0  0
  -17.8373  -27.9415   23.6987 H   0  0  0  0  0  0  0  0  0  0  0  0
  -18.5933  -26.3881   23.9604 H   0  0  0  0  0  0  0  0  0  0  0  0
  -18.0852  -26.8530   22.3545 H   0  0  0  0  0  0  0  0  0  0  0  0
  -22.4945  -21.6519   20.9800 H   0  0  0  0  0  0  0  0  0  0  0  0
  -23.8921  -20.6163   21.2837 H   0  0  0  0  0  0  0  0  0  0  0  0
  -20.4385  -25.1377   23.4261 H   0  0  0  0  0  0  0  0  0  0  0  0
  -21.8042  -25.8185   22.5365 H   0  0  0  0  0  0  0  0  0  0  0  0
  -23.9112  -23.1457   19.6666 H   0  0  0  0  0  0  0  0  0  0  0  0
  -25.2949  -22.0996   19.9940 H   0  0  0  0  0  0  0  0  0  0  0  0
  -21.7972  -27.7672   23.9330 H   0  0  0  0  0  0  0  0  0  0  0  0
  -20.4717  -27.0595   24.8955 H   0  0  0  0  0  0  0  0  0  0  0  0
  -26.6389  -22.0003   21.9325 H   0  0  0  0  0  0  0  0  0  0  0  0
  1 25  1  0
  1 30  2  0
  1 86  1  0
  2  3  1  0
  2 25  1  0
  2 89  1  0
  2 90  1  0
  3  4  1  0
  3 91  1  0
  3 92  1  0
  4  5  1  0
  4 93  1  0
  4 94  1  0
  5  6  1  0
  5 26  1  0
  5 95  1  6
  6 25  1  0
  6 96  1  0
  6 97  1  0
  7  8  2  0
  7 26  1  0
  7 29  1  0
  8  9  1  0
  8 22  1  0
  9 10  1  0
  9 27  2  0
 10 11  2  0
 10 15  1  0
 11 12  1  0
 11 98  1  0
 12 13  2  0
 12 99  1  0
 13 14  1  0
 13 31  1  0
 14 15  2  0
 14100  1  0
 15101  1  0
 16 17  2  0
 16 21  1  0
 16 31  1  0
 17 18  1  0
 17102  1  0
 18 19  2  0
 18103  1  0
 19 20  1  0
 19 24  1  0
 20 21  2  0
 20104  1  0
 21 23  1  0
 22 28  1  0
 22 32  2  0
 26 27  1  0
 28105  1  0
 28106  1  0
 29107  1  0
 29108  1  0
 33 34  1  0
 33 66  1  0
 33 70  2  0
 34 36  1  0
 34 59  1  0
 34109  1  6
 35 44  2  0
 35 45  1  0
 35 68  1  0
 36 56  1  0
 36110  1  0
 37 39  1  0
 37 47  1  0
 37 66  1  0
 37111  1  6
 38 43  2  0
 38 46  1  0
 38 47  1  0
 39 64  1  0
 39 67  2  0
 40 52  1  0
 40 53  2  0
 40 58  1  0
 41112  1  0
 41113  1  0
 41114  1  0
 42 43  1  0
 42 66  1  0
 42115  1  0
 42116  1  0
 43 44  1  0
 44117  1  0
 45 46  2  0
 45118  1  0
 46119  1  0
 47120  1  0
 47121  1  0
 48 41  1  0
 48 56  1  0
 48 65  1  0
 48122  1  1
 49 50  1  0
 49 53  1  0
 49 64  1  0
 49123  1  1
 50 51  1  0
 50124  1  0
 50125  1  0
 51 52  1  0
 51126  1  0
 51127  1  0
 52128  1  0
 52129  1  0
 53 54  1  0
 54 55  2  0
 54130  1  0
 55 57  1  0
 55131  1  0
 56 69  2  0
 57 58  2  0
 57132  1  0
 58133  1  0
 59 60  1  0
 59 61  1  0
 59 62  1  0
 60134  1  0
 60135  1  0
 60136  1  0
 61137  1  0
 61138  1  0
 61139  1  0
 62140  1  0
 62141  1  0
 62142  1  0
 63 65  1  0
 63143  1  0
 63144  1  0
 63145  1  0
 64146  1  0
 65147  1  0
 68 85  1  0
 71 73  2  0
 71 74  1  0
 71148  1  0
 72 75  1  0
 72 76  2  0
 72149  1  0
 73 76  1  0
 73 77  1  0
 74 75  2  0
 74 81  1  0
 75 86  1  0
 76 88  1  0
 77 82  1  0
 77 87  2  0
 78 83  1  0
 78150  1  0
 78151  1  0
 78152  1  0
 79153  1  0
 79154  1  0
 79155  1  0
 80 85  1  0
 80156  1  0
 80157  1  0
 80158  1  0
 81 83  1  0
 81159  1  0
 81160  1  0
 82 84  1  0
 82161  1  0
 82162  1  0
 83163  1  0
 83164  1  0
 84 85  1  0
 84165  1  0
 84166  1  0
 85 79  1  0
 86167  1  0
M  ISO  4   1 100  68 101  85 101  86 100
M  END
$$$$
3
     RDKit          3D

156164  0  0  0  0  0  0  0  0999 V2000
  -30.7652  -14.3608   20.6636 C   0  0  0  0  0  0  0  0  0100  0  0
  -30.4392  -12.2669   19.3775 C   0  0  0  0  0  0  0  0  0101  0  0
  -29.4791  -12.5281   18.1977 C   0  0  0  0  0  0  0  0  0102  0  0
  -27.9985  -12.3963   18.6038 C   0  0  0  0  0  0  0  0  0103  0  0
  -27.6639  -13.2170   19.8820 C   0  0  2  0  0  0  0  0  0104  0  0
  -28.6795  -12.9602   21.0279 C   0  0  0  0  0  0  0  0  0105  0  0
  -25.2633  -13.8245   20.5754 C   0  0  0  0  0  0  0  0  0106  0  0
  -24.1645  -13.0409   20.9408 C   0  0  0  0  0  0  0  0  0107  0  0
  -24.6400  -11.7009   20.8697 C   0  0  0  0  0  0  0  0  0108  0  0
  -23.9005  -10.4085   21.0420 C   0  0  0  0  0  0  0  0  0109  0  0
  -24.3588   -9.4123   21.9123 C   0  0  0  0  0  0  0  0  0110  0  0
  -23.6296   -8.2350   22.0803 C   0  0  0  0  0  0  0  0  0111  0  0
  -22.4385   -8.0419   21.3657 C   0  0  0  0  0  0  0  0  0112  0  0
  -22.0103   -9.0167   20.4678 C   0  0  0  0  0  0  0  0  0113  0  0
  -22.7317  -10.1925   20.3102 C   0  0  0  0  0  0  0  0  0114  0  0
  -21.6857   -6.0709   22.5391 C   0  0  0  0  0  0  0  0  0115  0  0
  -21.4064   -6.5490   23.8264 C   0  0  0  0  0  0  0  0  0116  0  0
  -21.3635   -5.6677   24.9085 C   0  0  0  0  0  0  0  0  0117  0  0
  -21.5973   -4.3067   24.7088 C   0  0  0  0  0  0  0  0  0118  0  0
  -21.8700   -3.8284   23.4282 C   0  0  0  0  0  0  0  0  0119  0  0
  -21.9144   -4.7056   22.3460 C   0  0  0  0  0  0  0  0  0120  0  0
  -22.8194  -13.5263   21.1763 C   0  0  0  0  0  0  0  0  0121  0  0
  -22.1559   -4.2206   21.1063 F   0  0  0  0  0  0  0  0  0122  0  0
  -21.5628   -3.4510   25.7555 F   0  0  0  0  0  0  0  0  0123  0  0
  -30.0261  -13.1803   20.4553 N   0  0  0  0  0  0  0  0  0124  0  0
  -26.2911  -12.9356   20.3443 N   0  0  0  0  0  0  0  0  0125  0  0
  -25.9236  -11.6675   20.5847 N   0  0  0  0  0  0  0  0  0126  0  0
  -22.0708  -12.7905   22.0005 N   0  0  0  0  0  0  0  0  0127  0  0
  -25.4117  -15.1773   20.4097 N   0  0  0  0  0  0  0  0  0128  0  0
  -31.7916  -14.6724   20.0536 O   0  0  0  0  0  0  0  0  0129  0  0
  -21.6670   -6.9022   21.4423 O   0  0  0  0  0  0  0  0  0130  0  0
  -22.3946  -14.5564   20.6568 O   0  0  0  0  0  0  0  0  0131  0  0
  -24.6048  -31.8614   23.2223 C   0  0  0  0  0  0  0  0  0100  0  0
  -25.8822  -32.4841   23.8616 C   0  0  1  0  0  0  0  0  0101  0  0
  -27.2536  -27.5042   20.1156 C   0  0  0  0  0  0  0  0  0102  0  0
  -25.5726  -33.8762   24.2210 N   0  0  0  0  0  0  0  0  0103  0  0
  -23.4066  -30.4859   21.5461 C   0  0  2  0  0  0  0  0  0104  0  0
  -24.8467  -28.9636   20.1247 C   0  0  0  0  0  0  0  0  0105  0  0
  -22.7412  -29.4652   22.5052 C   0  0  0  0  0  0  0  0  0106  0  0
  -18.0167  -28.1302   22.8626 C   0  0  0  0  0  0  0  0  0107  0  0
  -24.1342  -36.7390   23.2568 C   0  0  0  0  0  0  0  0  0108  0  0
  -25.9141  -30.8882   21.3456 C   0  0  0  0  0  0  0  0  0109  0  0
  -25.9930  -29.5029   20.7208 C   0  0  0  0  0  0  0  0  0110  0  0
  -27.1758  -28.7612   20.7331 C   0  0  0  0  0  0  0  0  0111  0  0
  -26.1032  -26.9836   19.5230 C   0  0  0  0  0  0  0  0  0112  0  0
  -24.9097  -27.7011   19.5331 C   0  0  0  0  0  0  0  0  0113  0  0
  -23.5715  -29.7899   20.1582 C   0  0  0  0  0  0  0  0  0114  0  0
  -25.3990  -36.3212   24.0232 C   0  0  1  0  0  0  0  0  0115  0  0
  -20.5793  -28.3813   23.1004 C   0  0  2  0  0  0  0  0  0116  0  0
  -20.6548  -26.9392   22.5411 C   0  0  0  0  0  0  0  0  0117  0  0
  -19.5615  -26.6407   21.5143 C   0  0  0  0  0  0  0  0  0118  0  0
  -18.1797  -26.7818   22.1673 C   0  0  0  0  0  0  0  0  0119  0  0
  -19.1385  -28.8769   23.2988 C   0  0  0  0  0  0  0  0  0120  0  0
  -18.9183  -30.1286   23.8878 C   0  0  0  0  0  0  0  0  0121  0  0
  -17.6396  -30.6493   24.0352 C   0  0  0  0  0  0  0  0  0122  0  0
  -25.9153  -34.9582   23.4993 C   0  0  0  0  0  0  0  0  0123  0  0
  -16.5415  -29.9068   23.6254 C   0  0  0  0  0  0  0  0  0124  0  0
  -16.7331  -28.6521   23.0586 C   0  0  0  0  0  0  0  0  0125  0  0
  -26.4583  -31.6439   25.0683 C   0  0  0  0  0  0  0  0  0126  0  0
  -25.3807  -31.3179   26.1374 C   0  0  0  0  0  0  0  0  0127  0  0
  -27.0530  -30.3024   24.5680 C   0  0  0  0  0  0  0  0  0128  0  0
  -27.6014  -32.4281   25.7651 C   0  0  0  0  0  0  0  0  0129  0  0
  -27.5629  -37.2220   24.8621 C   0  0  0  0  0  0  0  0  0130  0  0
  -21.4133  -29.3375   22.3735 N   0  0  0  0  0  0  0  0  0131  0  0
  -26.4706  -37.3372   23.9061 N   0  0  0  0  0  0  0  0  0132  0  0
  -24.6674  -31.0544   22.1178 N   0  0  0  0  0  0  0  0  0133  0  0
  -23.4259  -28.8150   23.2971 O   0  0  0  0  0  0  0  0  0134  0  0
  -28.3948  -26.7345   20.0089 O   0  0  0  0  0  0  0  0  0135  0  0
  -26.5870  -34.9065   22.4671 O   0  0  0  0  0  0  0  0  0136  0  0
  -23.5365  -32.1254   23.7833 O   0  0  0  0  0  0  0  0  0137  0  0
  -16.6351  -28.1823   21.0771 C   0  0  0  0  0  0  0  0  0  0  0  0
  -16.7358  -27.2651   22.1232 C   0  0  0  0  0  0  0  0  0  0  0  0
  -17.7644  -28.5125   20.3278 C   0  0  0  0  0  0  0  0  0  0  0  0
  -19.0952  -27.0084   21.6709 C   0  0  0  0  0  0  0  0  0  0  0  0
  -17.9659  -26.6782   22.4201 C   0  0  0  0  0  0  0  0  0  0  0  0
  -18.9945  -27.9256   20.6248 C   0  0  0  0  0  0  0  0  0  0  0  0
  -18.0720  -25.6984   23.5381 C   0  0  0  0  0  0  0  0  0  0  0  0
  -19.4079  -25.0525   23.8705 C   0  0  0  0  0  0  0  0  0  0  0  0
  -19.5529  -23.7113   23.1531 C   0  0  0  0  0  0  0  0  0  0  0  0
  -20.8718  -23.0260   23.5193 C   0  0  0  0  0  0  0  0  0  0  0  0
  -21.0546  -21.7010   22.7894 C   0  0  0  0  0  0  0  0  0  1  0  0
  -17.0239  -25.3859   24.2335 N   0  0  0  0  0  0  0  0  0  0  0  0
  -20.1414  -28.2609   19.8633 N   0  0  0  0  0  0  0  0  0  0  0  0
  -31.4485  -12.4701   19.0860 H   0  0  0  0  0  0  0  0  0  0  0  0
  -30.3970  -11.2460   19.6950 H   0  0  0  0  0  0  0  0  0  0  0  0
  -29.6870  -11.8204   17.4226 H   0  0  0  0  0  0  0  0  0  0  0  0
  -29.6375  -13.5326   17.8649 H   0  0  0  0  0  0  0  0  0  0  0  0
  -27.7830  -11.3650   18.7904 H   0  0  0  0  0  0  0  0  0  0  0  0
  -27.4028  -12.7801   17.8021 H   0  0  0  0  0  0  0  0  0  0  0  0
  -27.7353  -14.2503   19.6136 H   0  0  0  0  0  0  0  0  0  0  0  0
  -28.5890  -11.9550   21.3832 H   0  0  0  0  0  0  0  0  0  0  0  0
  -28.5005  -13.6134   21.8562 H   0  0  0  0  0  0  0  0  0  0  0  0
  -25.2399   -9.5495   22.4318 H   0  0  0  0  0  0  0  0  0  0  0  0
  -23.9663   -7.5070   22.7297 H   0  0  0  0  0  0  0  0  0  0  0  0
  -21.1515   -8.8641   19.9162 H   0  0  0  0  0  0  0  0  0  0  0  0
  -22.4016  -10.9115   19.6476 H   0  0  0  0  0  0  0  0  0  0  0  0
  -21.2319   -7.5552   23.9750 H   0  0  0  0  0  0  0  0  0  0  0  0
  -21.1589   -6.0228   25.8556 H   0  0  0  0  0  0  0  0  0  0  0  0
  -22.0396   -2.8212   23.2809 H   0  0  0  0  0  0  0  0  0  0  0  0
  -22.4401  -11.9703   22.4008 H   0  0  0  0  0  0  0  0  0  0  0  0
  -21.1493  -13.0679   22.2082 H   0  0  0  0  0  0  0  0  0  0  0  0
  -24.6538  -15.7807   20.5848 H   0  0  0  0  0  0  0  0  0  0  0  0
  -26.2762  -15.5453   20.1156 H   0  0  0  0  0  0  0  0  0  0  0  0
  -26.6778  -32.4663   23.1464 H   0  0  0  0  0  0  0  0  0  0  0  0
  -25.0747  -34.0282   25.0566 H   0  0  0  0  0  0  0  0  0  0  0  0
  -22.7881  -31.3489   21.4131 H   0  0  0  0  0  0  0  0  0  0  0  0
  -23.3854  -35.9823   23.3648 H   0  0  0  0  0  0  0  0  0  0  0  0
  -24.3696  -36.8624   22.2204 H   0  0  0  0  0  0  0  0  0  0  0  0
  -23.7669  -37.6632   23.6516 H   0  0  0  0  0  0  0  0  0  0  0  0
  -25.9445  -31.6237   20.5691 H   0  0  0  0  0  0  0  0  0  0  0  0
  -26.7436  -31.0079   22.0108 H   0  0  0  0  0  0  0  0  0  0  0  0
  -28.0090  -29.1452   21.2057 H   0  0  0  0  0  0  0  0  0  0  0  0
  -26.1369  -26.0560   19.0719 H   0  0  0  0  0  0  0  0  0  0  0  0
  -24.0652  -27.2961   19.0997 H   0  0  0  0  0  0  0  0  0  0  0  0
  -23.6156  -30.5365   19.3930 H   0  0  0  0  0  0  0  0  0  0  0  0
  -22.7355  -29.1425   19.9945 H   0  0  0  0  0  0  0  0  0  0  0  0
  -25.1353  -36.2335   25.0565 H   0  0  0  0  0  0  0  0  0  0  0  0
  -21.0070  -28.3206   24.0793 H   0  0  0  0  0  0  0  0  0  0  0  0
  -20.5555  -26.2518   23.3550 H   0  0  0  0  0  0  0  0  0  0  0  0
  -21.5974  -26.8362   22.0454 H   0  0  0  0  0  0  0  0  0  0  0  0
  -19.6810  -25.6422   21.1488 H   0  0  0  0  0  0  0  0  0  0  0  0
  -19.6406  -27.3343   20.7034 H   0  0  0  0  0  0  0  0  0  0  0  0
  -17.4282  -26.6888   21.4113 H   0  0  0  0  0  0  0  0  0  0  0  0
  -18.0803  -26.0130   22.9049 H   0  0  0  0  0  0  0  0  0  0  0  0
  -19.7265  -30.6774   24.2204 H   0  0  0  0  0  0  0  0  0  0  0  0
  -17.5064  -31.5856   24.4483 H   0  0  0  0  0  0  0  0  0  0  0  0
  -15.5878  -30.2839   23.7407 H   0  0  0  0  0  0  0  0  0  0  0  0
  -15.9120  -28.0941   22.7766 H   0  0  0  0  0  0  0  0  0  0  0  0
  -24.5787  -30.7757   25.6817 H   0  0  0  0  0  0  0  0  0  0  0  0
  -25.0041  -32.2289   26.5536 H   0  0  0  0  0  0  0  0  0  0  0  0
  -25.8166  -30.7245   26.9138 H   0  0  0  0  0  0  0  0  0  0  0  0
  -26.2892  -29.7335   24.0803 H   0  0  0  0  0  0  0  0  0  0  0  0
  -27.4336  -29.7484   25.4006 H   0  0  0  0  0  0  0  0  0  0  0  0
  -27.8466  -30.4994   23.8779 H   0  0  0  0  0  0  0  0  0  0  0  0
  -27.2251  -33.3632   26.1242 H   0  0  0  0  0  0  0  0  0  0  0  0
  -28.3902  -32.6065   25.0645 H   0  0  0  0  0  0  0  0  0  0  0  0
  -27.9772  -31.8555   26.5872 H   0  0  0  0  0  0  0  0  0  0  0  0
  -28.2744  -38.0016   24.6863 H   0  0  0  0  0  0  0  0  0  0  0  0
  -28.0396  -36.2711   24.7461 H   0  0  0  0  0  0  0  0  0  0  0  0
  -27.1773  -37.3087   25.8564 H   0  0  0  0  0  0  0  0  0  0  0  0
  -20.9627  -29.9365   21.7352 H   0  0  0  0  0  0  0  0  0  0  0  0
  -26.0447  -38.2561   24.0273 H   0  0  0  0  0  0  0  0  0  0  0  0
  -15.7251  -28.6166   20.8575 H   0  0  0  0  0  0  0  0  0  0  0  0
  -15.9003  -27.0207   22.6775 H   0  0  0  0  0  0  0  0  0  0  0  0
  -17.6898  -29.1910   19.5538 H   0  0  0  0  0  0  0  0  0  0  0  0
  -20.0052  -26.5741   21.8906 H   0  0  0  0  0  0  0  0  0  0  0  0
  -19.4682  -24.8940   24.9270 H   0  0  0  0  0  0  0  0  0  0  0  0
  -20.1940  -25.7023   23.5470 H   0  0  0  0  0  0  0  0  0  0  0  0
  -19.5273  -23.8765   22.0962 H   0  0  0  0  0  0  0  0  0  0  0  0
  -18.7464  -23.0767   23.4560 H   0  0  0  0  0  0  0  0  0  0  0  0
  -20.8839  -22.8431   24.5735 H   0  0  0  0  0  0  0  0  0  0  0  0
  -21.6710  -23.6747   23.2271 H   0  0  0  0  0  0  0  0  0  0  0  0
  -20.3269  -21.4529   22.0452 H   0  0  0  0  0  0  0  0  0  0  0  0
  -21.0653  -20.7206   23.2179 H   0  0  0  0  0  0  0  0  0  0  0  0
  -16.1545  -25.7986   24.0261 H   0  0  0  0  0  0  0  0  0  0  0  0
  -20.3076  -29.1054   19.3853 H   0  0  0  0  0  0  0  0  0  0  0  0
  1 25  1  0
  1 30  2  0
  1 83  1  0
  2  3  1  0
  2 25  1  0
  2 84  1  0
  2 85  1  0
  3  4  1  0
  3 86  1  0
  3 87  1  0
  4  5  1  0
  4 88  1  0
  4 89  1  0
  5  6  1  0
  5 26  1  0
  5 90  1  6
  6 25  1  0
  6 91  1  0
  6 92  1  0
  7  8  2  0
  7 26  1  0
  7 29  1  0
  8  9  1  0
  8 22  1  0
  9 10  1  0
  9 27  2  0
 10 11  2  0
 10 15  1  0
 11 12  1  0
 11 93  1  0
 12 13  2  0
 12 94  1  0
 13 14  1  0
 13 31  1  0
 14 15  2  0
 14 95  1  0
 15 96  1  0
 16 17  2  0
 16 21  1  0
 16 31  1  0
 17 18  1  0
 17 97  1  0
 18 19  2  0
 18 98  1  0
 19 20  1  0
 19 24  1  0
 20 21  2  0
 20 99  1  0
 21 23  1  0
 22 28  1  0
 22 32  2  0
 26 27  1  0
 28100  1  0
 28101  1  0
 29102  1  0
 29103  1  0
 33 34  1  0
 33 66  1  0
 33 70  2  0
 34 36  1  0
 34 59  1  0
 34104  1  6
 35 44  2  0
 35 45  1  0
 35 68  1  0
 36 56  1  0
 36105  1  0
 37 39  1  0
 37 47  1  0
 37 66  1  0
 37106  1  6
 38 43  2  0
 38 46  1  0
 38 47  1  0
 39 64  1  0
 39 67  2  0
 40 52  1  0
 40 53  2  0
 40 58  1  0
 41107  1  0
 41108  1  0
 41109  1  0
 42 43  1  0
 42 66  1  0
 42110  1  0
 42111  1  0
 43 44  1  0
 44112  1  0
 45 46  2  0
 45113  1  0
 46114  1  0
 47115  1  0
 47116  1  0
 48 41  1  0
 48 56  1  0
 48 65  1  0
 48117  1  1
 49 50  1  0
 49 53  1  0
 49 64  1  0
 49118  1  1
 50 51  1  0
 50119  1  0
 50120  1  0
 51 52  1  0
 51121  1  0
 51122  1  0
 52123  1  0
 52124  1  0
 53 54  1  0
 54 55  2  0
 54125  1  0
 55 57  1  0
 55126  1  0
 56 69  2  0
 57 58  2  0
 57127  1  0
 58128  1  0
 59 60  1  0
 59 61  1  0
 59 62  1  0
 60129  1  0
 60130  1  0
 60131  1  0
 61132  1  0
 61133  1  0
 61134  1  0
 62135  1  0
 62136  1  0
 62137  1  0
 63 65  1  0
 63138  1  0
 63139  1  0
 63140  1  0
 64141  1  0
 65142  1  0
 68 81  1  0
 71 72  2  0
 71 73  1  0
 71143  1  0
 72 75  1  0
 72144  1  0
 73 76  2  0
 73145  1  0
 74 75  2  0
 74 76  1  0
 74146  1  0
 75 77  1  0
 76 83  1  0
 77 78  1  0
 77 82  2  0
 78 79  1  0
 78147  1  0
 78148  1  0
 79 80  1  0
 79149  1  0
 79150  1  0
 80 81  1  0
 80151  1  0
 80152  1  0
 81153  1  0
 81154  1  0
 82155  1  0
 83156  1  0
M  ISO  4   1 100  68 101  81 101  83 100
M  END
$$$$
4
     RDKit          3D

174182  0  0  0  0  0  0  0  0999 V2000
  -30.7652  -14.3608   20.6636 C   0  0  0  0  0  0  0  0  0100  0  0
  -30.4392  -12.2669   19.3775 C   0  0  0  0  0  0  0  0  0101  0  0
  -29.4791  -12.5281   18.1977 C   0  0  0  0  0  0  0  0  0102  0  0
  -27.9985  -12.3963   18.6038 C   0  0  0  0  0  0  0  0  0103  0  0
  -27.6639  -13.2170   19.8820 C   0  0  2  0  0  0  0  0  0104  0  0
  -28.6795  -12.9602   21.0279 C   0  0  0  0  0  0  0  0  0105  0  0
  -25.2633  -13.8245   20.5754 C   0  0  0  0  0  0  0  0  0106  0  0
  -24.1645  -13.0409   20.9408 C   0  0  0  0  0  0  0  0  0107  0  0
  -24.6400  -11.7009   20.8697 C   0  0  0  0  0  0  0  0  0108  0  0
  -23.9005  -10.4085   21.0420 C   0  0  0  0  0  0  0  0  0109  0  0
  -24.3588   -9.4123   21.9123 C   0  0  0  0  0  0  0  0  0110  0  0
  -23.6296   -8.2350   22.0803 C   0  0  0  0  0  0  0  0  0111  0  0
  -22.4385   -8.0419   21.3657 C   0  0  0  0  0  0  0  0  0112  0  0
  -22.0103   -9.0167   20.4678 C   0  0  0  0  0  0  0  0  0113  0  0
  -22.7317  -10.1925   20.3102 C   0  0  0  0  0  0  0  0  0114  0  0
  -21.6857   -6.0709   22.5391 C   0  0  0  0  0  0  0  0  0115  0  0
  -21.4064   -6.5490   23.8264 C   0  0  0  0  0  0  0  0  0116  0  0
  -21.3635   -5.6677   24.9085 C   0  0  0  0  0  0  0  0  0117  0  0
  -21.5973   -4.3067   24.7088 C   0  0  0  0  0  0  0  0  0118  0  0
  -21.8700   -3.8284   23.4282 C   0  0  0  0  0  0  0  0  0119  0  0
  -21.9144   -4.7056   22.3460 C   0  0  0  0  0  0  0  0  0120  0  0
  -22.8194  -13.5263   21.1763 C   0  0  0  0  0  0  0  0  0121  0  0
  -22.1559   -4.2206   21.1063 F   0  0  0  0  0  0  0  0  0122  0  0
  -21.5628   -3.4510   25.7555 F   0  0  0  0  0  0  0  0  0123  0  0
  -30.0261  -13.1803   20.4553 N   0  0  0  0  0  0  0  0  0124  0  0
  -26.2911  -12.9356   20.3443 N   0  0  0  0  0  0  0  0  0125  0  0
  -25.9236  -11.6675   20.5847 N   0  0  0  0  0  0  0  0  0126  0  0
  -22.0708  -12.7905   22.0005 N   0  0  0  0  0  0  0  0  0127  0  0
  -25.4117  -15.1773   20.4097 N   0  0  0  0  0  0  0  0  0128  0  0
  -31.7916  -14.6724   20.0536 O   0  0  0  0  0  0  0  0  0129  0  0
  -21.6670   -6.9022   21.4423 O   0  0  0  0  0  0  0  0  0130  0  0
  -22.3946  -14.5564   20.6568 O   0  0  0  0  0  0  0  0  0131  0  0
  -24.6048  -31.8614   23.2223 C   0  0  0  0  0  0  0  0  0100  0  0
  -25.8822  -32.4841   23.8616 C   0  0  1  0  0  0  0  0  0101  0  0
  -27.2536  -27.5042   20.1156 C   0  0  0  0  0  0  0  0  0102  0  0
  -25.5726  -33.8762   24.2210 N   0  0  0  0  0  0  0  0  0103  0  0
  -23.4066  -30.4859   21.5461 C   0  0  2  0  0  0  0  0  0104  0  0
  -24.8467  -28.9636   20.1247 C   0  0  0  0  0  0  0  0  0105  0  0
  -22.7412  -29.4652   22.5052 C   0  0  0  0  0  0  0  0  0106  0  0
  -18.0167  -28.1302   22.8626 C   0  0  0  0  0  0  0  0  0107  0  0
  -24.1342  -36.7390   23.2568 C   0  0  0  0  0  0  0  0  0108  0  0
  -25.9141  -30.8882   21.3456 C   0  0  0  0  0  0  0  0  0109  0  0
  -25.9930  -29.5029   20.7208 C   0  0  0  0  0  0  0  0  0110  0  0
  -27.1758  -28.7612   20.7331 C   0  0  0  0  0  0  0  0  0111  0  0
  -26.1032  -26.9836   19.5230 C   0  0  0  0  0  0  0  0  0112  0  0
  -24.9097  -27.7011   19.5331 C   0  0  0  0  0  0  0  0  0113  0  0
  -23.5715  -29.7899   20.1582 C   0  0  0  0  0  0  0  0  0114  0  0
  -25.3990  -36.3212   24.0232 C   0  0  1  0  0  0  0  0  0115  0  0
  -20.5793  -28.3813   23.1004 C   0  0  2  0  0  0  0  0  0116  0  0
  -20.6548  -26.9392   22.5411 C   0  0  0  0  0  0  0  0  0117  0  0
  -19.5615  -26.6407   21.5143 C   0  0  0  0  0  0  0  0  0118  0  0
  -18.1797  -26.7818   22.1673 C   0  0  0  0  0  0  0  0  0119  0  0
  -19.1385  -28.8769   23.2988 C   0  0  0  0  0  0  0  0  0120  0  0
  -18.9183  -30.1286   23.8878 C   0  0  0  0  0  0  0  0  0121  0  0
  -17.6396  -30.6493   24.0352 C   0  0  0  0  0  0  0  0  0122  0  0
  -25.9153  -34.9582   23.4993 C   0  0  0  0  0  0  0  0  0123  0  0
  -16.5415  -29.9068   23.6254 C   0  0  0  0  0  0  0  0  0124  0  0
  -16.7331  -28.6521   23.0586 C   0  0  0  0  0  0  0  0  0125  0  0
  -26.4583  -31.6439   25.0683 C   0  0  0  0  0  0  0  0  0126  0  0
  -25.3807  -31.3179   26.1374 C   0  0  0  0  0  0  0  0  0127  0  0
  -27.0530  -30.3024   24.5680 C   0  0  0  0  0  0  0  0  0128  0  0
  -27.6014  -32.4281   25.7651 C   0  0  0  0  0  0  0  0  0129  0  0
  -27.5629  -37.2220   24.8621 C   0  0  0  0  0  0  0  0  0130  0  0
  -21.4133  -29.3375   22.3735 N   0  0  0  0  0  0  0  0  0131  0  0
  -26.4706  -37.3372   23.9061 N   0  0  0  0  0  0  0  0  0132  0  0
  -24.6674  -31.0544   22.1178 N   0  0  0  0  0  0  0  0  0133  0  0
  -23.4259  -28.8150   23.2971 O   0  0  0  0  0  0  0  0  0134  0  0
  -28.3948  -26.7345   20.0089 O   0  0  0  0  0  0  0  0  0135  0  0
  -26.5870  -34.9065   22.4671 O   0  0  0  0  0  0  0  0  0136  0  0
  -23.5365  -32.1254   23.7833 O   0  0  0  0  0  0  0  0  0137  0  0
  -31.5509  -21.6537   20.6937 C   0  0  0  0  0  0  0  0  0  0  0  0
  -31.0743  -22.9181   20.3479 C   0  0  0  0  0  0  0  0  0  0  0  0
  -29.3112  -20.9725   21.2909 C   0  0  0  0  0  0  0  0  0  0  0  0
  -30.6694  -20.6808   21.1651 C   0  0  0  0  0  0  0  0  0  0  0  0
  -28.8345  -22.2370   20.9451 C   0  0  0  0  0  0  0  0  0  0  0  0
  -29.7160  -23.2098   20.4737 C   0  0  0  0  0  0  0  0  0  0  0  0
  -29.7480  -17.9827   19.9598 C   0  0  0  0  0  0  0  0  0  0  0  0
  -31.9879  -18.7492   19.1734 C   0  0  0  0  0  0  0  0  0  0  0  0
  -31.8098  -16.9295   20.8891 C   0  0  0  0  0  0  0  0  0  0  0  0
  -24.9717  -24.5040   21.4949 C   0  0  0  0  0  0  0  0  0  0  0  0
  -25.4146  -24.4305   23.9619 C   0  0  0  0  0  0  0  0  0  0  0  0
  -31.1797  -19.3295   21.5370 C   0  0  0  0  0  0  0  0  0  0  0  0
  -27.3601  -22.5255   21.0944 C   0  0  0  0  0  0  0  0  0  0  0  0
  -27.0786  -23.3626   22.3499 C   0  0  0  0  0  0  0  0  0  0  0  0
  -24.8080  -22.3304   22.7556 C   0  0  0  0  0  0  0  0  0  1  0  0
  -31.2018  -18.2556   20.4004 C   0  0  0  0  0  0  0  0  0  0  0  0
  -25.5802  -23.6673   22.6358 C   0  0  0  0  0  0  0  0  0  0  0  0
  -29.2514  -24.5001   20.1173 N   0  0  0  0  0  0  0  0  0  0  0  0
  -31.4485  -12.4701   19.0860 H   0  0  0  0  0  0  0  0  0  0  0  0
  -30.3970  -11.2460   19.6950 H   0  0  0  0  0  0  0  0  0  0  0  0
  -29.6870  -11.8204   17.4226 H   0  0  0  0  0  0  0  0  0  0  0  0
  -29.6375  -13.5326   17.8649 H   0  0  0  0  0  0  0  0  0  0  0  0
  -27.7830  -11.3650   18.7904 H   0  0  0  0  0  0  0  0  0  0  0  0
  -27.4028  -12.7801   17.8021 H   0  0  0  0  0  0  0  0  0  0  0  0
  -27.7353  -14.2503   19.6136 H   0  0  0  0  0  0  0  0  0  0  0  0
  -28.5890  -11.9550   21.3832 H   0  0  0  0  0  0  0  0  0  0  0  0
  -28.5005  -13.6134   21.8562 H   0  0  0  0  0  0  0  0  0  0  0  0
  -25.2399   -9.5495   22.4318 H   0  0  0  0  0  0  0  0  0  0  0  0
  -23.9663   -7.5070   22.7297 H   0  0  0  0  0  0  0  0  0  0  0  0
  -21.1515   -8.8641   19.9162 H   0  0  0  0  0  0  0  0  0  0  0  0
  -22.4016  -10.9115   19.6476 H   0  0  0  0  0  0  0  0  0  0  0  0
  -21.2319   -7.5552   23.9750 H   0  0  0  0  0  0  0  0  0  0  0  0
  -21.1589   -6.0228   25.8556 H   0  0  0  0  0  0  0  0  0  0  0  0
  -22.0396   -2.8212   23.2809 H   0  0  0  0  0  0  0  0  0  0  0  0
  -22.4401  -11.9703   22.4008 H   0  0  0  0  0  0  0  0  0  0  0  0
  -21.1493  -13.0679   22.2082 H   0  0  0  0  0  0  0  0  0  0  0  0
  -24.6538  -15.7807   20.5848 H   0  0  0  0  0  0  0  0  0  0  0  0
  -26.2762  -15.5453   20.1156 H   0  0  0  0  0  0  0  0  0  0  0  0
  -26.6778  -32.4663   23.1464 H   0  0  0  0  0  0  0  0  0  0  0  0
  -25.0747  -34.0282   25.0566 H   0  0  0  0  0  0  0  0  0  0  0  0
  -22.7881  -31.3489   21.4131 H   0  0  0  0  0  0  0  0  0  0  0  0
  -23.3854  -35.9823   23.3648 H   0  0  0  0  0  0  0  0  0  0  0  0
  -24.3696  -36.8624   22.2204 H   0  0  0  0  0  0  0  0  0  0  0  0
  -23.7669  -37.6632   23.6516 H   0  0  0  0  0  0  0  0  0  0  0  0
  -25.9445  -31.6237   20.5691 H   0  0  0  0  0  0  0  0  0  0  0  0
  -26.7436  -31.0079   22.0108 H   0  0  0  0  0  0  0  0  0  0  0  0
  -28.0090  -29.1452   21.2057 H   0  0  0  0  0  0  0  0  0  0  0  0
  -26.1369  -26.0560   19.0719 H   0  0  0  0  0  0  0  0  0  0  0  0
  -24.0652  -27.2961   19.0997 H   0  0  0  0  0  0  0  0  0  0  0  0
  -23.6156  -30.5365   19.3930 H   0  0  0  0  0  0  0  0  0  0  0  0
  -22.7355  -29.1425   19.9945 H   0  0  0  0  0  0  0  0  0  0  0  0
  -25.1353  -36.2335   25.0565 H   0  0  0  0  0  0  0  0  0  0  0  0
  -21.0070  -28.3206   24.0793 H   0  0  0  0  0  0  0  0  0  0  0  0
  -20.5555  -26.2518   23.3550 H   0  0  0  0  0  0  0  0  0  0  0  0
  -21.5974  -26.8362   22.0454 H   0  0  0  0  0  0  0  0  0  0  0  0
  -19.6810  -25.6422   21.1488 H   0  0  0  0  0  0  0  0  0  0  0  0
  -19.6406  -27.3343   20.7034 H   0  0  0  0  0  0  0  0  0  0  0  0
  -17.4282  -26.6888   21.4113 H   0  0  0  0  0  0  0  0  0  0  0  0
  -18.0803  -26.0130   22.9049 H   0  0  0  0  0  0  0  0  0  0  0  0
  -19.7265  -30.6774   24.2204 H   0  0  0  0  0  0  0  0  0  0  0  0
  -17.5064  -31.5856   24.4483 H   0  0  0  0  0  0  0  0  0  0  0  0
  -15.5878  -30.2839   23.7407 H   0  0  0  0  0  0  0  0  0  0  0  0
  -15.9120  -28.0941   22.7766 H   0  0  0  0  0  0  0  0  0  0  0  0
  -24.5787  -30.7757   25.6817 H   0  0  0  0  0  0  0  0  0  0  0  0
  -25.0041  -32.2289   26.5536 H   0  0  0  0  0  0  0  0  0  0  0  0
  -25.8166  -30.7245   26.9138 H   0  0  0  0  0  0  0  0  0  0  0  0
  -26.2892  -29.7335   24.0803 H   0  0  0  0  0  0  0  0  0  0  0  0
  -27.4336  -29.7484   25.4006 H   0  0  0  0  0  0  0  0  0  0  0  0
  -27.8466  -30.4994   23.8779 H   0  0  0  0  0  0  0  0  0  0  0  0
  -27.2251  -33.3632   26.1242 H   0  0  0  0  0  0  0  0  0  0  0  0
  -28.3902  -32.6065   25.0645 H   0  0  0  0  0  0  0  0  0  0  0  0
  -27.9772  -31.8555   26.5872 H   0  0  0  0  0  0  0  0  0  0  0  0
  -28.2744  -38.0016   24.6863 H   0  0  0  0  0  0  0  0  0  0  0  0
  -28.0396  -36.2711   24.7461 H   0  0  0  0  0  0  0  0  0  0  0  0
  -27.1773  -37.3087   25.8564 H   0  0  0  0  0  0  0  0  0  0  0  0
  -20.9627  -29.9365   21.7352 H   0  0  0  0  0  0  0  0  0  0  0  0
  -26.0447  -38.2561   24.0273 H   0  0  0  0  0  0  0  0  0  0  0  0
  -32.5558  -21.4379   20.6008 H   0  0  0  0  0  0  0  0  0  0  0  0
  -31.7265  -23.6378   19.9990 H   0  0  0  0  0  0  0  0  0  0  0  0
  -28.6590  -20.2528   21.6398 H   0  0  0  0  0  0  0  0  0  0  0  0
  -29.7431  -17.2489   19.1811 H   0  0  0  0  0  0  0  0  0  0  0  0
  -29.3087  -18.8890   19.5986 H   0  0  0  0  0  0  0  0  0  0  0  0
  -29.1843  -17.6210   20.7943 H   0  0  0  0  0  0  0  0  0  0  0  0
  -31.9824  -17.9916   18.4179 H   0  0  0  0  0  0  0  0  0  0  0  0
  -32.9972  -18.9615   19.4582 H   0  0  0  0  0  0  0  0  0  0  0  0
  -31.5308  -19.6378   18.7908 H   0  0  0  0  0  0  0  0  0  0  0  0
  -31.8090  -16.2201   20.0880 H   0  0  0  0  0  0  0  0  0  0  0  0
  -31.2285  -16.5491   21.7030 H   0  0  0  0  0  0  0  0  0  0  0  0
  -32.8147  -17.0970   21.2162 H   0  0  0  0  0  0  0  0  0  0  0  0
  -25.5026  -25.4290   21.4087 H   0  0  0  0  0  0  0  0  0  0  0  0
  -23.9420  -24.7022   21.7080 H   0  0  0  0  0  0  0  0  0  0  0  0
  -25.0477  -23.9621   20.5754 H   0  0  0  0  0  0  0  0  0  0  0  0
  -25.9401  -25.3609   23.9060 H   0  0  0  0  0  0  0  0  0  0  0  0
  -25.8126  -23.8437   24.7632 H   0  0  0  0  0  0  0  0  0  0  0  0
  -24.3760  -24.6175   24.1385 H   0  0  0  0  0  0  0  0  0  0  0  0
  -30.5624  -18.9547   22.3266 H   0  0  0  0  0  0  0  0  0  0  0  0
  -32.2044  -19.4778   21.8068 H   0  0  0  0  0  0  0  0  0  0  0  0
  -26.8295  -21.5992   21.1672 H   0  0  0  0  0  0  0  0  0  0  0  0
  -27.0370  -23.0813   20.2391 H   0  0  0  0  0  0  0  0  0  0  0  0
  -27.5895  -24.2967   22.2435 H   0  0  0  0  0  0  0  0  0  0  0  0
  -27.4190  -22.7733   23.1756 H   0  0  0  0  0  0  0  0  0  0  0  0
  -23.7549  -22.2236   22.5994 H   0  0  0  0  0  0  0  0  0  0  0  0
  -24.7527  -21.3562   23.1946 H   0  0  0  0  0  0  0  0  0  0  0  0
  -29.0151  -25.4437   19.9658 H   0  0  0  0  0  0  0  0  0  0  0  0
  1 25  1  0
  1 30  2  0
  1 88  1  0
  2  3  1  0
  2 25  1  0
  2 89  1  0
  2 90  1  0
  3  4  1  0
  3 91  1  0
  3 92  1  0
  4  5  1  0
  4 93  1  0
  4 94  1  0
  5  6  1  0
  5 26  1  0
  5 95  1  6
  6 25  1  0
  6 96  1  0
  6 97  1  0
  7  8  2  0
  7 26  1  0
  7 29  1  0
  8  9  1  0
  8 22  1  0
  9 10  1  0
  9 27  2  0
 10 11  2  0
 10 15  1  0
 11 12  1  0
 11 98  1  0
 12 13  2  0
 12 99  1  0
 13 14  1  0
 13 31  1  0
 14 15  2  0
 14100  1  0
 15101  1  0
 16 17  2  0
 16 21  1  0
 16 31  1  0
 17 18  1  0
 17102  1  0
 18 19  2  0
 18103  1  0
 19 20  1  0
 19 24  1  0
 20 21  2  0
 20104  1  0
 21 23  1  0
 22 28  1  0
 22 32  2  0
 26 27  1  0
 28105  1  0
 28106  1  0
 29107  1  0
 29108  1  0
 33 34  1  0
 33 66  1  0
 33 70  2  0
 34 36  1  0
 34 59  1  0
 34109  1  6
 35 44  2  0
 35 45  1  0
 35 68  1  0
 36 56  1  0
 36110  1  0
 37 39  1  0
 37 47  1  0
 37 66  1  0
 37111  1  6
 38 43  2  0
 38 46  1  0
 38 47  1  0
 39 64  1  0
 39 67  2  0
 40 52  1  0
 40 53  2  0
 40 58  1  0
 41112  1  0
 41113  1  0
 41114  1  0
 42 43  1  0
 42 66  1  0
 42115  1  0
 42116  1  0
 43 44  1  0
 44117  1  0
 45 46  2  0
 45118  1  0
 46119  1  0
 47120  1  0
 47121  1  0
 48 41  1  0
 48 56  1  0
 48 65  1  0
 48122  1  1
 49 50  1  0
 49 53  1  0
 49 64  1  0
 49123  1  1
 50 51  1  0
 50124  1  0
 50125  1  0
 51 52  1  0
 51126  1  0
 51127  1  0
 52128  1  0
 52129  1  0
 53 54  1  0
 54 55  2  0
 54130  1  0
 55 57  1  0
 55131  1  0
 56 69  2  0
 57 58  2  0
 57132  1  0
 58133  1  0
 59 60  1  0
 59 61  1  0
 59 62  1  0
 60134  1  0
 60135  1  0
 60136  1  0
 61137  1  0
 61138  1  0
 61139  1  0
 62140  1  0
 62141  1  0
 62142  1  0
 63 65  1  0
 63143  1  0
 63144  1  0
 63145  1  0
 64146  1  0
 65147  1  0
 68 85  1  0
 71 72  2  0
 71 74  1  0
 71148  1  0
 72 76  1  0
 72149  1  0
 73 74  2  0
 73 75  1  0
 73150  1  0
 74 82  1  0
 75 76  2  0
 75 83  1  0
 76 88  1  0
 77151  1  0
 77152  1  0
 77153  1  0
 78 86  1  0
 78154  1  0
 78155  1  0
 78156  1  0
 79 86  1  0
 79157  1  0
 79158  1  0
 79159  1  0
 80160  1  0
 80161  1  0
 80162  1  0
 81 87  1  0
 81163  1  0
 81164  1  0
 81165  1  0
 82 86  1  0
 82166  1  0
 82167  1  0
 83 84  1  0
 83168  1  0
 83169  1  0
 84 87  1  0
 84170  1  0
 84171  1  0
 85 87  1  0
 85172  1  0
 85173  1  0
 86 77  1  0
 87 80  1  0
 88174  1  0
M  ISO  4   1 100  68 101  85 101  88 100
M  END
$$$$
5
     RDKit          3D

154162  0  0  0  0  0  0  0  0999 V2000
  -30.7652  -14.3608   20.6636 C   0  0  0  0  0  0  0  0  0100  0  0
  -30.4392  -12.2669   19.3775 C   0  0  0  0  0  0  0  0  0101  0  0
  -29.4791  -12.5281   18.1977 C   0  0  0  0  0  0  0  0  0102  0  0
  -27.9985  -12.3963   18.6038 C   0  0  0  0  0  0  0  0  0103  0  0
  -27.6639  -13.2170   19.8820 C   0  0  2  0  0  0  0  0  0104  0  0
  -28.6795  -12.9602   21.0279 C   0  0  0  0  0  0  0  0  0105  0  0
  -25.2633  -13.8245   20.5754 C   0  0  0  0  0  0  0  0  0106  0  0
  -24.1645  -13.0409   20.9408 C   0  0  0  0  0  0  0  0  0107  0  0
  -24.6400  -11.7009   20.8697 C   0  0  0  0  0  0  0  0  0108  0  0
  -23.9005  -10.4085   21.0420 C   0  0  0  0  0  0  0  0  0109  0  0
  -24.3588   -9.4123   21.9123 C   0  0  0  0  0  0  0  0  0110  0  0
  -23.6296   -8.2350   22.0803 C   0  0  0  0  0  0  0  0  0111  0  0
  -22.4385   -8.0419   21.3657 C   0  0  0  0  0  0  0  0  0112  0  0
  -22.0103   -9.0167   20.4678 C   0  0  0  0  0  0  0  0  0113  0  0
  -22.7317  -10.1925   20.3102 C   0  0  0  0  0  0  0  0  0114  0  0
  -21.6857   -6.0709   22.5391 C   0  0  0  0  0  0  0  0  0115  0  0
  -21.4064   -6.5490   23.8264 C   0  0  0  0  0  0  0  0  0116  0  0
  -21.3635   -5.6677   24.9085 C   0  0  0  0  0  0  0  0  0117  0  0
  -21.5973   -4.3067   24.7088 C   0  0  0  0  0  0  0  0  0118  0  0
  -21.8700   -3.8284   23.4282 C   0  0  0  0  0  0  0  0  0119  0  0
  -21.9144   -4.7056   22.3460 C   0  0  0  0  0  0  0  0  0120  0  0
  -22.8194  -13.5263   21.1763 C   0  0  0  0  0  0  0  0  0121  0  0
  -22.1559   -4.2206   21.1063 F   0  0  0  0  0  0  0  0  0122  0  0
  -21.5628   -3.4510   25.7555 F   0  0  0  0  0  0  0  0  0123  0  0
  -30.0261  -13.1803   20.4553 N   0  0  0  0  0  0  0  0  0124  0  0
  -26.2911  -12.9356   20.3443 N   0  0  0  0  0  0  0  0  0125  0  0
  -25.9236  -11.6675   20.5847 N   0  0  0  0  0  0  0  0  0126  0  0
  -22.0708  -12.7905   22.0005 N   0  0  0  0  0  0  0  0  0127  0  0
  -25.4117  -15.1773   20.4097 N   0  0  0  0  0  0  0  0  0128  0  0
  -31.7916  -14.6724   20.0536 O   0  0  0  0  0  0  0  0  0129  0  0
  -21.6670   -6.9022   21.4423 O   0  0  0  0  0  0  0  0  0130  0  0
  -22.3946  -14.5564   20.6568 O   0  0  0  0  0  0  0  0  0131  0  0
  -24.6048  -31.8614   23.2223 C   0  0  0  0  0  0  0  0  0100  0  0
  -25.8822  -32.4841   23.8616 C   0  0  1  0  0  0  0  0  0101  0  0
  -27.2536  -27.5042   20.1156 C   0  0  0  0  0  0  0  0  0102  0  0
  -25.5726  -33.8762   24.2210 N   0  0  0  0  0  0  0  0  0103  0  0
  -23.4066  -30.4859   21.5461 C   0  0  2  0  0  0  0  0  0104  0  0
  -24.8467  -28.9636   20.1247 C   0  0  0  0  0  0  0  0  0105  0  0
  -22.7412  -29.4652   22.5052 C   0  0  0  0  0  0  0  0  0106  0  0
  -18.0167  -28.1302   22.8626 C   0  0  0  0  0  0  0  0  0107  0  0
  -24.1342  -36.7390   23.2568 C   0  0  0  0  0  0  0  0  0108  0  0
  -25.9141  -30.8882   21.3456 C   0  0  0  0  0  0  0  0  0109  0  0
  -25.9930  -29.5029   20.7208 C   0  0  0  0  0  0  0  0  0110  0  0
  -27.1758  -28.7612   20.7331 C   0  0  0  0  0  0  0  0  0111  0  0
  -26.1032  -26.9836   19.5230 C   0  0  0  0  0  0  0  0  0112  0  0
  -24.9097  -27.7011   19.5331 C   0  0  0  0  0  0  0  0  0113  0  0
  -23.5715  -29.7899   20.1582 C   0  0  0  0  0  0  0  0  0114  0  0
  -25.3990  -36.3212   24.0232 C   0  0  1  0  0  0  0  0  0115  0  0
  -20.5793  -28.3813   23.1004 C   0  0  2  0  0  0  0  0  0116  0  0
  -20.6548  -26.9392   22.5411 C   0  0  0  0  0  0  0  0  0117  0  0
  -19.5615  -26.6407   21.5143 C   0  0  0  0  0  0  0  0  0118  0  0
  -18.1797  -26.7818   22.1673 C   0  0  0  0  0  0  0  0  0119  0  0
  -19.1385  -28.8769   23.2988 C   0  0  0  0  0  0  0  0  0120  0  0
  -18.9183  -30.1286   23.8878 C   0  0  0  0  0  0  0  0  0121  0  0
  -17.6396  -30.6493   24.0352 C   0  0  0  0  0  0  0  0  0122  0  0
  -25.9153  -34.9582   23.4993 C   0  0  0  0  0  0  0  0  0123  0  0
  -16.5415  -29.9068   23.6254 C   0  0  0  0  0  0  0  0  0124  0  0
  -16.7331  -28.6521   23.0586 C   0  0  0  0  0  0  0  0  0125  0  0
  -26.4583  -31.6439   25.0683 C   0  0  0  0  0  0  0  0  0126  0  0
  -25.3807  -31.3179   26.1374 C   0  0  0  0  0  0  0  0  0127  0  0
  -27.0530  -30.3024   24.5680 C   0  0  0  0  0  0  0  0  0128  0  0
  -27.6014  -32.4281   25.7651 C   0  0  0  0  0  0  0  0  0129  0  0
  -27.5629  -37.2220   24.8621 C   0  0  0  0  0  0  0  0  0130  0  0
  -21.4133  -29.3375   22.3735 N   0  0  0  0  0  0  0  0  0131  0  0
  -26.4706  -37.3372   23.9061 N   0  0  0  0  0  0  0  0  0132  0  0
  -24.6674  -31.0544   22.1178 N   0  0  0  0  0  0  0  0  0133  0  0
  -23.4259  -28.8150   23.2971 O   0  0  0  0  0  0  0  0  0134  0  0
  -28.3948  -26.7345   20.0089 O   0  0  0  0  0  0  0  0  0135  0  0
  -26.5870  -34.9065   22.4671 O   0  0  0  0  0  0  0  0  0136  0  0
  -23.5365  -32.1254   23.7833 O   0  0  0  0  0  0  0  0  0137  0  0
  -31.8883  -18.3172   24.1964 C   0  0  0  0  0  0  0  0  0  0  0  0
  -30.5024  -18.3084   24.0392 C   0  0  0  0  0  0  0  0  0  0  0  0
  -32.0867  -16.5638   22.5462 C   0  0  0  0  0  0  0  0  0  0  0  0
  -30.7007  -16.5549   22.3890 C   0  0  0  0  0  0  0  0  0  0  0  0
  -32.6805  -17.4450   23.4498 C   0  0  0  0  0  0  0  0  0  0  0  0
  -29.9086  -17.4272   23.1356 C   0  0  0  0  0  0  0  0  0  0  0  0
  -36.9525  -17.3829   23.7929 C   0  0  0  0  0  0  0  0  0  0  0  0
  -36.0119  -19.3080   22.4523 C   0  0  0  0  0  0  0  0  0  1  0  0
  -34.8186  -17.0970   22.4684 C   0  0  0  0  0  0  0  0  0  0  0  0
  -36.1838  -17.7883   22.5295 C   0  0  2  0  0  0  0  0  0  0  0  0
  -30.1002  -15.6581   21.4710 N   0  0  0  0  0  0  0  0  0  0  0  0
  -34.0422  -17.4539   23.6044 O   0  0  0  0  0  0  0  0  0  0  0  0
  -28.5755  -17.4270   22.9933 F   0  0  0  0  0  0  0  0  0  0  0  0
  -31.4485  -12.4701   19.0860 H   0  0  0  0  0  0  0  0  0  0  0  0
  -30.3970  -11.2460   19.6950 H   0  0  0  0  0  0  0  0  0  0  0  0
  -29.6870  -11.8204   17.4226 H   0  0  0  0  0  0  0  0  0  0  0  0
  -29.6375  -13.5326   17.8649 H   0  0  0  0  0  0  0  0  0  0  0  0
  -27.7830  -11.3650   18.7904 H   0  0  0  0  0  0  0  0  0  0  0  0
  -27.4028  -12.7801   17.8021 H   0  0  0  0  0  0  0  0  0  0  0  0
  -27.7353  -14.2503   19.6136 H   0  0  0  0  0  0  0  0  0  0  0  0
  -28.5890  -11.9550   21.3832 H   0  0  0  0  0  0  0  0  0  0  0  0
  -28.5005  -13.6134   21.8562 H   0  0  0  0  0  0  0  0  0  0  0  0
  -25.2399   -9.5495   22.4318 H   0  0  0  0  0  0  0  0  0  0  0  0
  -23.9663   -7.5070   22.7297 H   0  0  0  0  0  0  0  0  0  0  0  0
  -21.1515   -8.8641   19.9162 H   0  0  0  0  0  0  0  0  0  0  0  0
  -22.4016  -10.9115   19.6476 H   0  0  0  0  0  0  0  0  0  0  0  0
  -21.2319   -7.5552   23.9750 H   0  0  0  0  0  0  0  0  0  0  0  0
  -21.1589   -6.0228   25.8556 H   0  0  0  0  0  0  0  0  0  0  0  0
  -22.0396   -2.8212   23.2809 H   0  0  0  0  0  0  0  0  0  0  0  0
  -22.4401  -11.9703   22.4008 H   0  0  0  0  0  0  0  0  0  0  0  0
  -21.1493  -13.0679   22.2082 H   0  0  0  0  0  0  0  0  0  0  0  0
  -24.6538  -15.7807   20.5848 H   0  0  0  0  0  0  0  0  0  0  0  0
  -26.2762  -15.5453   20.1156 H   0  0  0  0  0  0  0  0  0  0  0  0
  -26.6778  -32.4663   23.1464 H   0  0  0  0  0  0  0  0  0  0  0  0
  -25.0747  -34.0282   25.0566 H   0  0  0  0  0  0  0  0  0  0  0  0
  -22.7881  -31.3489   21.4131 H   0  0  0  0  0  0  0  0  0  0  0  0
  -23.3854  -35.9823   23.3648 H   0  0  0  0  0  0  0  0  0  0  0  0
  -24.3696  -36.8624   22.2204 H   0  0  0  0  0  0  0  0  0  0  0  0
  -23.7669  -37.6632   23.6516 H   0  0  0  0  0  0  0  0  0  0  0  0
  -25.9445  -31.6237   20.5691 H   0  0  0  0  0  0  0  0  0  0  0  0
  -26.7436  -31.0079   22.0108 H   0  0  0  0  0  0  0  0  0  0  0  0
  -28.0090  -29.1452   21.2057 H   0  0  0  0  0  0  0  0  0  0  0  0
  -26.1369  -26.0560   19.0719 H   0  0  0  0  0  0  0  0  0  0  0  0
  -24.0652  -27.2961   19.0997 H   0  0  0  0  0  0  0  0  0  0  0  0
  -23.6156  -30.5365   19.3930 H   0  0  0  0  0  0  0  0  0  0  0  0
  -22.7355  -29.1425   19.9945 H   0  0  0  0  0  0  0  0  0  0  0  0
  -25.1353  -36.2335   25.0565 H   0  0  0  0  0  0  0  0  0  0  0  0
  -21.0070  -28.3206   24.0793 H   0  0  0  0  0  0  0  0  0  0  0  0
  -20.5555  -26.2518   23.3550 H   0  0  0  0  0  0  0  0  0  0  0  0
  -21.5974  -26.8362   22.0454 H   0  0  0  0  0  0  0  0  0  0  0  0
  -19.6810  -25.6422   21.1488 H   0  0  0  0  0  0  0  0  0  0  0  0
  -19.6406  -27.3343   20.7034 H   0  0  0  0  0  0  0  0  0  0  0  0
  -17.4282  -26.6888   21.4113 H   0  0  0  0  0  0  0  0  0  0  0  0
  -18.0803  -26.0130   22.9049 H   0  0  0  0  0  0  0  0  0  0  0  0
  -19.7265  -30.6774   24.2204 H   0  0  0  0  0  0  0  0  0  0  0  0
  -17.5064  -31.5856   24.4483 H   0  0  0  0  0  0  0  0  0  0  0  0
  -15.5878  -30.2839   23.7407 H   0  0  0  0  0  0  0  0  0  0  0  0
  -15.9120  -28.0941   22.7766 H   0  0  0  0  0  0  0  0  0  0  0  0
  -24.5787  -30.7757   25.6817 H   0  0  0  0  0  0  0  0  0  0  0  0
  -25.0041  -32.2289   26.5536 H   0  0  0  0  0  0  0  0  0  0  0  0
  -25.8166  -30.7245   26.9138 H   0  0  0  0  0  0  0  0  0  0  0  0
  -26.2892  -29.7335   24.0803 H   0  0  0  0  0  0  0  0  0  0  0  0
  -27.4336  -29.7484   25.4006 H   0  0  0  0  0  0  0  0  0  0  0  0
  -27.8466  -30.4994   23.8779 H   0  0  0  0  0  0  0  0  0  0  0  0
  -27.2251  -33.3632   26.1242 H   0  0  0  0  0  0  0  0  0  0  0  0
  -28.3902  -32.6065   25.0645 H   0  0  0  0  0  0  0  0  0  0  0  0
  -27.9772  -31.8555   26.5872 H   0  0  0  0  0  0  0  0  0  0  0  0
  -28.2744  -38.0016   24.6863 H   0  0  0  0  0  0  0  0  0  0  0  0
  -28.0396  -36.2711   24.7461 H   0  0  0  0  0  0  0  0  0  0  0  0
  -27.1773  -37.3087   25.8564 H   0  0  0  0  0  0  0  0  0  0  0  0
  -20.9627  -29.9365   21.7352 H   0  0  0  0  0  0  0  0  0  0  0  0
  -26.0447  -38.2561   24.0273 H   0  0  0  0  0  0  0  0  0  0  0  0
  -32.3276  -18.9690   24.8651 H   0  0  0  0  0  0  0  0  0  0  0  0
  -29.9163  -18.9538   24.5914 H   0  0  0  0  0  0  0  0  0  0  0  0
  -32.6728  -15.9184   21.9939 H   0  0  0  0  0  0  0  0  0  0  0  0
  -37.9000  -17.8798   23.8088 H   0  0  0  0  0  0  0  0  0  0  0  0
  -37.1052  -16.3238   23.7931 H   0  0  0  0  0  0  0  0  0  0  0  0
  -36.3888  -17.6621   24.6584 H   0  0  0  0  0  0  0  0  0  0  0  0
  -36.7941  -19.5754   21.7730 H   0  0  0  0  0  0  0  0  0  0  0  0
  -35.8229  -19.3887   23.5024 H   0  0  0  0  0  0  0  0  0  0  0  0
  -34.9588  -16.0363   22.4539 H   0  0  0  0  0  0  0  0  0  0  0  0
  -34.3069  -17.4073   21.5814 H   0  0  0  0  0  0  0  0  0  0  0  0
  -36.7611  -17.4704   21.6865 H   0  0  0  0  0  0  0  0  0  0  0  0
  -29.1488  -15.8264   21.2821 H   0  0  0  0  0  0  0  0  0  0  0  0
  1 25  1  0
  1 30  2  0
  1 81  1  0
  2  3  1  0
  2 25  1  0
  2 84  1  0
  2 85  1  0
  3  4  1  0
  3 86  1  0
  3 87  1  0
  4  5  1  0
  4 88  1  0
  4 89  1  0
  5  6  1  0
  5 26  1  0
  5 90  1  6
  6 25  1  0
  6 91  1  0
  6 92  1  0
  7  8  2  0
  7 26  1  0
  7 29  1  0
  8  9  1  0
  8 22  1  0
  9 10  1  0
  9 27  2  0
 10 11  2  0
 10 15  1  0
 11 12  1  0
 11 93  1  0
 12 13  2  0
 12 94  1  0
 13 14  1  0
 13 31  1  0
 14 15  2  0
 14 95  1  0
 15 96  1  0
 16 17  2  0
 16 21  1  0
 16 31  1  0
 17 18  1  0
 17 97  1  0
 18 19  2  0
 18 98  1  0
 19 20  1  0
 19 24  1  0
 20 21  2  0
 20 99  1  0
 21 23  1  0
 22 28  1  0
 22 32  2  0
 26 27  1  0
 28100  1  0
 28101  1  0
 29102  1  0
 29103  1  0
 33 34  1  0
 33 66  1  0
 33 70  2  0
 34 36  1  0
 34 59  1  0
 34104  1  6
 35 44  2  0
 35 45  1  0
 35 68  1  0
 36 56  1  0
 36105  1  0
 37 39  1  0
 37 47  1  0
 37 66  1  0
 37106  1  6
 38 43  2  0
 38 46  1  0
 38 47  1  0
 39 64  1  0
 39 67  2  0
 40 52  1  0
 40 53  2  0
 40 58  1  0
 41107  1  0
 41108  1  0
 41109  1  0
 42 43  1  0
 42 66  1  0
 42110  1  0
 42111  1  0
 43 44  1  0
 44112  1  0
 45 46  2  0
 45113  1  0
 46114  1  0
 47115  1  0
 47116  1  0
 48 41  1  0
 48 56  1  0
 48 65  1  0
 48117  1  1
 49 50  1  0
 49 53  1  0
 49 64  1  0
 49118  1  1
 50 51  1  0
 50119  1  0
 50120  1  0
 51 52  1  0
 51121  1  0
 51122  1  0
 52123  1  0
 52124  1  0
 53 54  1  0
 54 55  2  0
 54125  1  0
 55 57  1  0
 55126  1  0
 56 69  2  0
 57 58  2  0
 57127  1  0
 58128  1  0
 59 60  1  0
 59 61  1  0
 59 62  1  0
 60129  1  0
 60130  1  0
 60131  1  0
 61132  1  0
 61133  1  0
 61134  1  0
 62135  1  0
 62136  1  0
 62137  1  0
 63 65  1  0
 63138  1  0
 63139  1  0
 63140  1  0
 64141  1  0
 65142  1  0
 68 78  1  0
 71 72  2  0
 71 75  1  0
 71143  1  0
 72 76  1  0
 72144  1  0
 73 74  1  0
 73 75  2  0
 73145  1  0
 74 76  2  0
 74 81  1  0
 75 82  1  0
 76 83  1  0
 77146  1  0
 77147  1  0
 77148  1  0
 78 80  1  0
 78149  1  0
 78150  1  0
 79 80  1  0
 79 82  1  0
 79151  1  0
 79152  1  0
 80 77  1  0
 80153  1  6
 81154  1  0
M  ISO  4   1 100  68 101  78 101  81 100
M  END
$$$$
6
     RDKit          3D

156164  0  0  0  0  0  0  0  0999 V2000
  -30.7652  -14.3608   20.6636 C   0  0  0  0  0  0  0  0  0100  0  0
  -30.4392  -12.2669   19.3775 C   0  0  0  0  0  0  0  0  0101  0  0
  -29.4791  -12.5281   18.1977 C   0  0  0  0  0  0  0  0  0102  0  0
  -27.9985  -12.3963   18.6038 C   0  0  0  0  0  0  0  0  0103  0  0
  -27.6639  -13.2170   19.8820 C   0  0  2  0  0  0  0  0  0104  0  0
  -28.6795  -12.9602   21.0279 C   0  0  0  0  0  0  0  0  0105  0  0
  -25.2633  -13.8245   20.5754 C   0  0  0  0  0  0  0  0  0106  0  0
  -24.1645  -13.0409   20.9408 C   0  0  0  0  0  0  0  0  0107  0  0
  -24.6400  -11.7009   20.8697 C   0  0  0  0  0  0  0  0  0108  0  0
  -23.9005  -10.4085   21.0420 C   0  0  0  0  0  0  0  0  0109  0  0
  -24.3588   -9.4123   21.9123 C   0  0  0  0  0  0  0  0  0110  0  0
  -23.6296   -8.2350   22.0803 C   0  0  0  0  0  0  0  0  0111  0  0
  -22.4385   -8.0419   21.3657 C   0  0  0  0  0  0  0  0  0112  0  0
  -22.0103   -9.0167   20.4678 C   0  0  0  0  0  0  0  0  0113  0  0
  -22.7317  -10.1925   20.3102 C   0  0  0  0  0  0  0  0  0114  0  0
  -21.6857   -6.0709   22.5391 C   0  0  0  0  0  0  0  0  0115  0  0
  -21.4064   -6.5490   23.8264 C   0  0  0  0  0  0  0  0  0116  0  0
  -21.3635   -5.6677   24.9085 C   0  0  0  0  0  0  0  0  0117  0  0
  -21.5973   -4.3067   24.7088 C   0  0  0  0  0  0  0  0  0118  0  0
  -21.8700   -3.8284   23.4282 C   0  0  0  0  0  0  0  0  0119  0  0
  -21.9144   -4.7056   22.3460 C   0  0  0  0  0  0  0  0  0120  0  0
  -22.8194  -13.5263   21.1763 C   0  0  0  0  0  0  0  0  0121  0  0
  -22.1559   -4.2206   21.1063 F   0  0  0  0  0  0  0  0  0122  0  0
  -21.5628   -3.4510   25.7555 F   0  0  0  0  0  0  0  0  0123  0  0
  -30.0261  -13.1803   20.4553 N   0  0  0  0  0  0  0  0  0124  0  0
  -26.2911  -12.9356   20.3443 N   0  0  0  0  0  0  0  0  0125  0  0
  -25.9236  -11.6675   20.5847 N   0  0  0  0  0  0  0  0  0126  0  0
  -22.0708  -12.7905   22.0005 N   0  0  0  0  0  0  0  0  0127  0  0
  -25.4117  -15.1773   20.4097 N   0  0  0  0  0  0  0  0  0128  0  0
  -31.7916  -14.6724   20.0536 O   0  0  0  0  0  0  0  0  0129  0  0
  -21.6670   -6.9022   21.4423 O   0  0  0  0  0  0  0  0  0130  0  0
  -22.3946  -14.5564   20.6568 O   0  0  0  0  0  0  0  0  0131  0  0
  -24.6048  -31.8614   23.2223 C   0  0  0  0  0  0  0  0  0100  0  0
  -25.8822  -32.4841   23.8616 C   0  0  1  0  0  0  0  0  0101  0  0
  -27.2536  -27.5042   20.1156 C   0  0  0  0  0  0  0  0  0102  0  0
  -25.5726  -33.8762   24.2210 N   0  0  0  0  0  0  0  0  0103  0  0
  -23.4066  -30.4859   21.5461 C   0  0  2  0  0  0  0  0  0104  0  0
  -24.8467  -28.9636   20.1247 C   0  0  0  0  0  0  0  0  0105  0  0
  -22.7412  -29.4652   22.5052 C   0  0  0  0  0  0  0  0  0106  0  0
  -18.0167  -28.1302   22.8626 C   0  0  0  0  0  0  0  0  0107  0  0
  -24.1342  -36.7390   23.2568 C   0  0  0  0  0  0  0  0  0108  0  0
  -25.9141  -30.8882   21.3456 C   0  0  0  0  0  0  0  0  0109  0  0
  -25.9930  -29.5029   20.7208 C   0  0  0  0  0  0  0  0  0110  0  0
  -27.1758  -28.7612   20.7331 C   0  0  0  0  0  0  0  0  0111  0  0
  -26.1032  -26.9836   19.5230 C   0  0  0  0  0  0  0  0  0112  0  0
  -24.9097  -27.7011   19.5331 C   0  0  0  0  0  0  0  0  0113  0  0
  -23.5715  -29.7899   20.1582 C   0  0  0  0  0  0  0  0  0114  0  0
  -25.3990  -36.3212   24.0232 C   0  0  1  0  0  0  0  0  0115  0  0
  -20.5793  -28.3813   23.1004 C   0  0  2  0  0  0  0  0  0116  0  0
  -20.6548  -26.9392   22.5411 C   0  0  0  0  0  0  0  0  0117  0  0
  -19.5615  -26.6407   21.5143 C   0  0  0  0  0  0  0  0  0118  0  0
  -18.1797  -26.7818   22.1673 C   0  0  0  0  0  0  0  0  0119  0  0
  -19.1385  -28.8769   23.2988 C   0  0  0  0  0  0  0  0  0120  0  0
  -18.9183  -30.1286   23.8878 C   0  0  0  0  0  0  0  0  0121  0  0
  -17.6396  -30.6493   24.0352 C   0  0  0  0  0  0  0  0  0122  0  0
  -25.9153  -34.9582   23.4993 C   0  0  0  0  0  0  0  0  0123  0  0
  -16.5415  -29.9068   23.6254 C   0  0  0  0  0  0  0  0  0124  0  0
  -16.7331  -28.6521   23.0586 C   0  0  0  0  0  0  0  0  0125  0  0
  -26.4583  -31.6439   25.0683 C   0  0  0  0  0  0  0  0  0126  0  0
  -25.3807  -31.3179   26.1374 C   0  0  0  0  0  0  0  0  0127  0  0
  -27.0530  -30.3024   24.5680 C   0  0  0  0  0  0  0  0  0128  0  0
  -27.6014  -32.4281   25.7651 C   0  0  0  0  0  0  0  0  0129  0  0
  -27.5629  -37.2220   24.8621 C   0  0  0  0  0  0  0  0  0130  0  0
  -21.4133  -29.3375   22.3735 N   0  0  0  0  0  0  0  0  0131  0  0
  -26.4706  -37.3372   23.9061 N   0  0  0  0  0  0  0  0  0132  0  0
  -24.6674  -31.0544   22.1178 N   0  0  0  0  0  0  0  0  0133  0  0
  -23.4259  -28.8150   23.2971 O   0  0  0  0  0  0  0  0  0134  0  0
  -28.3948  -26.7345   20.0089 O   0  0  0  0  0  0  0  0  0135  0  0
  -26.5870  -34.9065   22.4671 O   0  0  0  0  0  0  0  0  0136  0  0
  -23.5365  -32.1254   23.7833 O   0  0  0  0  0  0  0  0  0137  0  0
  -30.4798  -18.2782   24.1100 C   0  0  0  0  0  0  0  0  0  0  0  0
  -31.8654  -18.2896   24.2696 C   0  0  0  0  0  0  0  0  0  0  0  0
  -29.8901  -17.4044   23.1965 C   0  0  0  0  0  0  0  0  0  0  0  0
  -32.0717  -16.5535   22.6021 C   0  0  0  0  0  0  0  0  0  0  0  0
  -32.6614  -17.4273   23.5156 C   0  0  0  0  0  0  0  0  0  0  0  0
  -30.6860  -16.5421   22.4425 C   0  0  0  0  0  0  0  0  0  0  0  0
  -36.7467  -18.9543   24.3369 C   0  0  0  0  0  0  0  0  0  0  0  0
  -37.0298  -17.2459   22.5229 C   0  0  0  0  0  0  0  0  0  0  0  0
  -34.1603  -17.4400   23.6886 C   0  0  0  0  0  0  0  0  0  0  0  0
  -34.8283  -18.4382   22.7323 C   0  0  0  0  0  0  0  0  0  0  0  0
  -36.3549  -18.5661   22.9096 C   0  0  0  0  0  0  0  0  0  1  0  0
  -30.0866  -15.6541   21.5152 N   0  0  0  0  0  0  0  0  0  0  0  0
  -31.4485  -12.4701   19.0860 H   0  0  0  0  0  0  0  0  0  0  0  0
  -30.3970  -11.2460   19.6950 H   0  0  0  0  0  0  0  0  0  0  0  0
  -29.6870  -11.8204   17.4226 H   0  0  0  0  0  0  0  0  0  0  0  0
  -29.6375  -13.5326   17.8649 H   0  0  0  0  0  0  0  0  0  0  0  0
  -27.7830  -11.3650   18.7904 H   0  0  0  0  0  0  0  0  0  0  0  0
  -27.4028  -12.7801   17.8021 H   0  0  0  0  0  0  0  0  0  0  0  0
  -27.7353  -14.2503   19.6136 H   0  0  0  0  0  0  0  0  0  0  0  0
  -28.5890  -11.9550   21.3832 H   0  0  0  0  0  0  0  0  0  0  0  0
  -28.5005  -13.6134   21.8562 H   0  0  0  0  0  0  0  0  0  0  0  0
  -25.2399   -9.5495   22.4318 H   0  0  0  0  0  0  0  0  0  0  0  0
  -23.9663   -7.5070   22.7297 H   0  0  0  0  0  0  0  0  0  0  0  0
  -21.1515   -8.8641   19.9162 H   0  0  0  0  0  0  0  0  0  0  0  0
  -22.4016  -10.9115   19.6476 H   0  0  0  0  0  0  0  0  0  0  0  0
  -21.2319   -7.5552   23.9750 H   0  0  0  0  0  0  0  0  0  0  0  0
  -21.1589   -6.0228   25.8556 H   0  0  0  0  0  0  0  0  0  0  0  0
  -22.0396   -2.8212   23.2809 H   0  0  0  0  0  0  0  0  0  0  0  0
  -22.4401  -11.9703   22.4008 H   0  0  0  0  0  0  0  0  0  0  0  0
  -21.1493  -13.0679   22.2082 H   0  0  0  0  0  0  0  0  0  0  0  0
  -24.6538  -15.7807   20.5848 H   0  0  0  0  0  0  0  0  0  0  0  0
  -26.2762  -15.5453   20.1156 H   0  0  0  0  0  0  0  0  0  0  0  0
  -26.6778  -32.4663   23.1464 H   0  0  0  0  0  0  0  0  0  0  0  0
  -25.0747  -34.0282   25.0566 H   0  0  0  0  0  0  0  0  0  0  0  0
  -22.7881  -31.3489   21.4131 H   0  0  0  0  0  0  0  0  0  0  0  0
  -23.3854  -35.9823   23.3648 H   0  0  0  0  0  0  0  0  0  0  0  0
  -24.3696  -36.8624   22.2204 H   0  0  0  0  0  0  0  0  0  0  0  0
  -23.7669  -37.6632   23.6516 H   0  0  0  0  0  0  0  0  0  0  0  0
  -25.9445  -31.6237   20.5691 H   0  0  0  0  0  0  0  0  0  0  0  0
  -26.7436  -31.0079   22.0108 H   0  0  0  0  0  0  0  0  0  0  0  0
  -28.0090  -29.1452   21.2057 H   0  0  0  0  0  0  0  0  0  0  0  0
  -26.1369  -26.0560   19.0719 H   0  0  0  0  0  0  0  0  0  0  0  0
  -24.0652  -27.2961   19.0997 H   0  0  0  0  0  0  0  0  0  0  0  0
  -23.6156  -30.5365   19.3930 H   0  0  0  0  0  0  0  0  0  0  0  0
  -22.7355  -29.1425   19.9945 H   0  0  0  0  0  0  0  0  0  0  0  0
  -25.1353  -36.2335   25.0565 H   0  0  0  0  0  0  0  0  0  0  0  0
  -21.0070  -28.3206   24.0793 H   0  0  0  0  0  0  0  0  0  0  0  0
  -20.5555  -26.2518   23.3550 H   0  0  0  0  0  0  0  0  0  0  0  0
  -21.5974  -26.8362   22.0454 H   0  0  0  0  0  0  0  0  0  0  0  0
  -19.6810  -25.6422   21.1488 H   0  0  0  0  0  0  0  0  0  0  0  0
  -19.6406  -27.3343   20.7034 H   0  0  0  0  0  0  0  0  0  0  0  0
  -17.4282  -26.6888   21.4113 H   0  0  0  0  0  0  0  0  0  0  0  0
  -18.0803  -26.0130   22.9049 H   0  0  0  0  0  0  0  0  0  0  0  0
  -19.7265  -30.6774   24.2204 H   0  0  0  0  0  0  0  0  0  0  0  0
  -17.5064  -31.5856   24.4483 H   0  0  0  0  0  0  0  0  0  0  0  0
  -15.5878  -30.2839   23.7407 H   0  0  0  0  0  0  0  0  0  0  0  0
  -15.9120  -28.0941   22.7766 H   0  0  0  0  0  0  0  0  0  0  0  0
  -24.5787  -30.7757   25.6817 H   0  0  0  0  0  0  0  0  0  0  0  0
  -25.0041  -32.2289   26.5536 H   0  0  0  0  0  0  0  0  0  0  0  0
  -25.8166  -30.7245   26.9138 H   0  0  0  0  0  0  0  0  0  0  0  0
  -26.2892  -29.7335   24.0803 H   0  0  0  0  0  0  0  0  0  0  0  0
  -27.4336  -29.7484   25.4006 H   0  0  0  0  0  0  0  0  0  0  0  0
  -27.8466  -30.4994   23.8779 H   0  0  0  0  0  0  0  0  0  0  0  0
  -27.2251  -33.3632   26.1242 H   0  0  0  0  0  0  0  0  0  0  0  0
  -28.3902  -32.6065   25.0645 H   0  0  0  0  0  0  0  0  0  0  0  0
  -27.9772  -31.8555   26.5872 H   0  0  0  0  0  0  0  0  0  0  0  0
  -28.2744  -38.0016   24.6863 H   0  0  0  0  0  0  0  0  0  0  0  0
  -28.0396  -36.2711   24.7461 H   0  0  0  0  0  0  0  0  0  0  0  0
  -27.1773  -37.3087   25.8564 H   0  0  0  0  0  0  0  0  0  0  0  0
  -20.9627  -29.9365   21.7352 H   0  0  0  0  0  0  0  0  0  0  0  0
  -26.0447  -38.2561   24.0273 H   0  0  0  0  0  0  0  0  0  0  0  0
  -29.8909  -18.9162   24.6678 H   0  0  0  0  0  0  0  0  0  0  0  0
  -32.3017  -18.9360   24.9455 H   0  0  0  0  0  0  0  0  0  0  0  0
  -28.8649  -17.3959   23.0785 H   0  0  0  0  0  0  0  0  0  0  0  0
  -32.6606  -15.9155   22.0443 H   0  0  0  0  0  0  0  0  0  0  0  0
  -37.4784  -18.2662   24.7056 H   0  0  0  0  0  0  0  0  0  0  0  0
  -35.8809  -18.9247   24.9650 H   0  0  0  0  0  0  0  0  0  0  0  0
  -37.1547  -19.9435   24.3382 H   0  0  0  0  0  0  0  0  0  0  0  0
  -37.7517  -16.9829   23.2676 H   0  0  0  0  0  0  0  0  0  0  0  0
  -37.5176  -17.3583   21.5772 H   0  0  0  0  0  0  0  0  0  0  0  0
  -36.2914  -16.4746   22.4539 H   0  0  0  0  0  0  0  0  0  0  0  0
  -34.5416  -16.4601   23.4903 H   0  0  0  0  0  0  0  0  0  0  0  0
  -34.3800  -17.7381   24.6925 H   0  0  0  0  0  0  0  0  0  0  0  0
  -34.3907  -19.4011   22.8944 H   0  0  0  0  0  0  0  0  0  0  0  0
  -34.6659  -18.0677   21.7417 H   0  0  0  0  0  0  0  0  0  0  0  0
  -29.1311  -15.8144   21.3405 H   0  0  0  0  0  0  0  0  0  0  0  0
  1 25  1  0
  1 30  2  0
  1 82  1  0
  2  3  1  0
  2 25  1  0
  2 83  1  0
  2 84  1  0
  3  4  1  0
  3 85  1  0
  3 86  1  0
  4  5  1  0
  4 87  1  0
  4 88  1  0
  5  6  1  0
  5 26  1  0
  5 89  1  6
  6 25  1  0
  6 90  1  0
  6 91  1  0
  7  8  2  0
  7 26  1  0
  7 29  1  0
  8  9  1  0
  8 22  1  0
  9 10  1  0
  9 27  2  0
 10 11  2  0
 10 15  1  0
 11 12  1  0
 11 92  1  0
 12 13  2  0
 12 93  1  0
 13 14  1  0
 13 31  1  0
 14 15  2  0
 14 94  1  0
 15 95  1  0
 16 17  2  0
 16 21  1  0
 16 31  1  0
 17 18  1  0
 17 96  1  0
 18 19  2  0
 18 97  1  0
 19 20  1  0
 19 24  1  0
 20 21  2  0
 20 98  1  0
 21 23  1  0
 22 28  1  0
 22 32  2  0
 26 27  1  0
 28 99  1  0
 28100  1  0
 29101  1  0
 29102  1  0
 33 34  1  0
 33 66  1  0
 33 70  2  0
 34 36  1  0
 34 59  1  0
 34103  1  6
 35 44  2  0
 35 45  1  0
 35 68  1  0
 36 56  1  0
 36104  1  0
 37 39  1  0
 37 47  1  0
 37 66  1  0
 37105  1  6
 38 43  2  0
 38 46  1  0
 38 47  1  0
 39 64  1  0
 39 67  2  0
 40 52  1  0
 40 53  2  0
 40 58  1  0
 41106  1  0
 41107  1  0
 41108  1  0
 42 43  1  0
 42 66  1  0
 42109  1  0
 42110  1  0
 43 44  1  0
 44111  1  0
 45 46  2  0
 45112  1  0
 46113  1  0
 47114  1  0
 47115  1  0
 48 41  1  0
 48 56  1  0
 48 65  1  0
 48116  1  1
 49 50  1  0
 49 53  1  0
 49 64  1  0
 49117  1  1
 50 51  1  0
 50118  1  0
 50119  1  0
 51 52  1  0
 51120  1  0
 51121  1  0
 52122  1  0
 52123  1  0
 53 54  1  0
 54 55  2  0
 54124  1  0
 55 57  1  0
 55125  1  0
 56 69  2  0
 57 58  2  0
 57126  1  0
 58127  1  0
 59 60  1  0
 59 61  1  0
 59 62  1  0
 60128  1  0
 60129  1  0
 60130  1  0
 61131  1  0
 61132  1  0
 61133  1  0
 62134  1  0
 62135  1  0
 62136  1  0
 63 65  1  0
 63137  1  0
 63138  1  0
 63139  1  0
 64140  1  0
 65141  1  0
 68 81  1  0
 71 72  2  0
 71 73  1  0
 71142  1  0
 72 75  1  0
 72143  1  0
 73 76  2  0
 73144  1  0
 74 75  2  0
 74 76  1  0
 74145  1  0
 75 79  1  0
 76 82  1  0
 77146  1  0
 77147  1  0
 77148  1  0
 78 81  1  0
 78149  1  0
 78150  1  0
 78151  1  0
 79 80  1  0
 79152  1  0
 79153  1  0
 80 81  1  0
 80154  1  0
 80155  1  0
 81 77  1  0
 82156  1  0
M  ISO  4   1 100  68 101  81 101  82 100
M  END
$$$$
7
     RDKit          3D

165174  0  0  0  0  0  0  0  0999 V2000
  -30.7652  -14.3608   20.6636 C   0  0  0  0  0  0  0  0  0100  0  0
  -30.4392  -12.2669   19.3775 C   0  0  0  0  0  0  0  0  0101  0  0
  -29.4791  -12.5281   18.1977 C   0  0  0  0  0  0  0  0  0102  0  0
  -27.9985  -12.3963   18.6038 C   0  0  0  0  0  0  0  0  0103  0  0
  -27.6639  -13.2170   19.8820 C   0  0  2  0  0  0  0  0  0104  0  0
  -28.6795  -12.9602   21.0279 C   0  0  0  0  0  0  0  0  0105  0  0
  -25.2633  -13.8245   20.5754 C   0  0  0  0  0  0  0  0  0106  0  0
  -24.1645  -13.0409   20.9408 C   0  0  0  0  0  0  0  0  0107  0  0
  -24.6400  -11.7009   20.8697 C   0  0  0  0  0  0  0  0  0108  0  0
  -23.9005  -10.4085   21.0420 C   0  0  0  0  0  0  0  0  0109  0  0
  -24.3588   -9.4123   21.9123 C   0  0  0  0  0  0  0  0  0110  0  0
  -23.6296   -8.2350   22.0803 C   0  0  0  0  0  0  0  0  0111  0  0
  -22.4385   -8.0419   21.3657 C   0  0  0  0  0  0  0  0  0112  0  0
  -22.0103   -9.0167   20.4678 C   0  0  0  0  0  0  0  0  0113  0  0
  -22.7317  -10.1925   20.3102 C   0  0  0  0  0  0  0  0  0114  0  0
  -21.6857   -6.0709   22.5391 C   0  0  0  0  0  0  0  0  0115  0  0
  -21.4064   -6.5490   23.8264 C   0  0  0  0  0  0  0  0  0116  0  0
  -21.3635   -5.6677   24.9085 C   0  0  0  0  0  0  0  0  0117  0  0
  -21.5973   -4.3067   24.7088 C   0  0  0  0  0  0  0  0  0118  0  0
  -21.8700   -3.8284   23.4282 C   0  0  0  0  0  0  0  0  0119  0  0
  -21.9144   -4.7056   22.3460 C   0  0  0  0  0  0  0  0  0120  0  0
  -22.8194  -13.5263   21.1763 C   0  0  0  0  0  0  0  0  0121  0  0
  -22.1559   -4.2206   21.1063 F   0  0  0  0  0  0  0  0  0122  0  0
  -21.5628   -3.4510   25.7555 F   0  0  0  0  0  0  0  0  0123  0  0
  -30.0261  -13.1803   20.4553 N   0  0  0  0  0  0  0  0  0124  0  0
  -26.2911  -12.9356   20.3443 N   0  0  0  0  0  0  0  0  0125  0  0
  -25.9236  -11.6675   20.5847 N   0  0  0  0  0  0  0  0  0126  0  0
  -22.0708  -12.7905   22.0005 N   0  0  0  0  0  0  0  0  0127  0  0
  -25.4117  -15.1773   20.4097 N   0  0  0  0  0  0  0  0  0128  0  0
  -31.7916  -14.6724   20.0536 O   0  0  0  0  0  0  0  0  0129  0  0
  -21.6670   -6.9022   21.4423 O   0  0  0  0  0  0  0  0  0130  0  0
  -22.3946  -14.5564   20.6568 O   0  0  0  0  0  0  0  0  0131  0  0
  -24.6048  -31.8614   23.2223 C   0  0  0  0  0  0  0  0  0100  0  0
  -25.8822  -32.4841   23.8616 C   0  0  1  0  0  0  0  0  0101  0  0
  -27.2536  -27.5042   20.1156 C   0  0  0  0  0  0  0  0  0102  0  0
  -25.5726  -33.8762   24.2210 N   0  0  0  0  0  0  0  0  0103  0  0
  -23.4066  -30.4859   21.5461 C   0  0  2  0  0  0  0  0  0104  0  0
  -24.8467  -28.9636   20.1247 C   0  0  0  0  0  0  0  0  0105  0  0
  -22.7412  -29.4652   22.5052 C   0  0  0  0  0  0  0  0  0106  0  0
  -18.0167  -28.1302   22.8626 C   0  0  0  0  0  0  0  0  0107  0  0
  -24.1342  -36.7390   23.2568 C   0  0  0  0  0  0  0  0  0108  0  0
  -25.9141  -30.8882   21.3456 C   0  0  0  0  0  0  0  0  0109  0  0
  -25.9930  -29.5029   20.7208 C   0  0  0  0  0  0  0  0  0110  0  0
  -27.1758  -28.7612   20.7331 C   0  0  0  0  0  0  0  0  0111  0  0
  -26.1032  -26.9836   19.5230 C   0  0  0  0  0  0  0  0  0112  0  0
  -24.9097  -27.7011   19.5331 C   0  0  0  0  0  0  0  0  0113  0  0
  -23.5715  -29.7899   20.1582 C   0  0  0  0  0  0  0  0  0114  0  0
  -25.3990  -36.3212   24.0232 C   0  0  1  0  0  0  0  0  0115  0  0
  -20.5793  -28.3813   23.1004 C   0  0  2  0  0  0  0  0  0116  0  0
  -20.6548  -26.9392   22.5411 C   0  0  0  0  0  0  0  0  0117  0  0
  -19.5615  -26.6407   21.5143 C   0  0  0  0  0  0  0  0  0118  0  0
  -18.1797  -26.7818   22.1673 C   0  0  0  0  0  0  0  0  0119  0  0
  -19.1385  -28.8769   23.2988 C   0  0  0  0  0  0  0  0  0120  0  0
  -18.9183  -30.1286   23.8878 C   0  0  0  0  0  0  0  0  0121  0  0
  -17.6396  -30.6493   24.0352 C   0  0  0  0  0  0  0  0  0122  0  0
  -25.9153  -34.9582   23.4993 C   0  0  0  0  0  0  0  0  0123  0  0
  -16.5415  -29.9068   23.6254 C   0  0  0  0  0  0  0  0  0124  0  0
  -16.7331  -28.6521   23.0586 C   0  0  0  0  0  0  0  0  0125  0  0
  -26.4583  -31.6439   25.0683 C   0  0  0  0  0  0  0  0  0126  0  0
  -25.3807  -31.3179   26.1374 C   0  0  0  0  0  0  0  0  0127  0  0
  -27.0530  -30.3024   24.5680 C   0  0  0  0  0  0  0  0  0128  0  0
  -27.6014  -32.4281   25.7651 C   0  0  0  0  0  0  0  0  0129  0  0
  -27.5629  -37.2220   24.8621 C   0  0  0  0  0  0  0  0  0130  0  0
  -21.4133  -29.3375   22.3735 N   0  0  0  0  0  0  0  0  0131  0  0
  -26.4706  -37.3372   23.9061 N   0  0  0  0  0  0  0  0  0132  0  0
  -24.6674  -31.0544   22.1178 N   0  0  0  0  0  0  0  0  0133  0  0
  -23.4259  -28.8150   23.2971 O   0  0  0  0  0  0  0  0  0134  0  0
  -28.3948  -26.7345   20.0089 O   0  0  0  0  0  0  0  0  0135  0  0
  -26.5870  -34.9065   22.4671 O   0  0  0  0  0  0  0  0  0136  0  0
  -23.5365  -32.1254   23.7833 O   0  0  0  0  0  0  0  0  0137  0  0
  -25.8512  -18.3751   18.5404 C   0  0  0  0  0  0  0  0  0  0  0  0
  -27.5318  -19.3764   19.9582 C   0  0  0  0  0  0  0  0  0  0  0  0
  -25.2007  -19.6051   18.4429 C   0  0  0  0  0  0  0  0  0  0  0  0
  -26.8813  -20.6064   19.8607 C   0  0  0  0  0  0  0  0  0  0  0  0
  -25.7157  -20.7207   19.1030 C   0  0  0  0  0  0  0  0  0  0  0  0
  -27.0168  -18.2607   19.2981 C   0  0  0  0  0  0  0  0  0  0  0  0
  -28.1819  -22.7637   19.6672 C   0  0  0  0  0  0  0  0  0  0  0  0
  -30.8054  -24.7716   20.8451 C   0  0  0  0  0  0  0  0  0  0  0  0
  -29.9314  -23.6453   21.4231 C   0  0  0  0  0  0  0  0  0  0  0  0
  -29.9910  -24.6699   19.5441 C   0  0  0  0  0  0  0  0  0  0  0  0
  -28.8434  -23.9917   20.3577 C   0  0  0  0  0  0  0  0  0  0  0  0
  -23.9539  -19.7008   17.6259 C   0  0  0  0  0  0  0  0  0  0  0  0
  -25.0183  -22.0397   18.9979 C   0  0  0  0  0  0  0  0  0  0  0  0
  -27.4582  -21.7952   20.5829 C   0  0  0  0  0  0  0  0  0  0  0  0
  -27.8050  -24.9753   20.8611 C   0  0  0  0  0  0  0  0  0  1  0  0
  -27.6785  -17.0116   19.3965 N   0  0  0  0  0  0  0  0  0  0  0  0
  -28.2554  -22.6094   18.4487 O   0  0  0  0  0  0  0  0  0  0  0  0
  -31.4485  -12.4701   19.0860 H   0  0  0  0  0  0  0  0  0  0  0  0
  -30.3970  -11.2460   19.6950 H   0  0  0  0  0  0  0  0  0  0  0  0
  -29.6870  -11.8204   17.4226 H   0  0  0  0  0  0  0  0  0  0  0  0
  -29.6375  -13.5326   17.8649 H   0  0  0  0  0  0  0  0  0  0  0  0
  -27.7830  -11.3650   18.7904 H   0  0  0  0  0  0  0  0  0  0  0  0
  -27.4028  -12.7801   17.8021 H   0  0  0  0  0  0  0  0  0  0  0  0
  -27.7353  -14.2503   19.6136 H   0  0  0  0  0  0  0  0  0  0  0  0
  -28.5890  -11.9550   21.3832 H   0  0  0  0  0  0  0  0  0  0  0  0
  -28.5005  -13.6134   21.8562 H   0  0  0  0  0  0  0  0  0  0  0  0
  -25.2399   -9.5495   22.4318 H   0  0  0  0  0  0  0  0  0  0  0  0
  -23.9663   -7.5070   22.7297 H   0  0  0  0  0  0  0  0  0  0  0  0
  -21.1515   -8.8641   19.9162 H   0  0  0  0  0  0  0  0  0  0  0  0
  -22.4016  -10.9115   19.6476 H   0  0  0  0  0  0  0  0  0  0  0  0
  -21.2319   -7.5552   23.9750 H   0  0  0  0  0  0  0  0  0  0  0  0
  -21.1589   -6.0228   25.8556 H   0  0  0  0  0  0  0  0  0  0  0  0
  -22.0396   -2.8212   23.2809 H   0  0  0  0  0  0  0  0  0  0  0  0
  -22.4401  -11.9703   22.4008 H   0  0  0  0  0  0  0  0  0  0  0  0
  -21.1493  -13.0679   22.2082 H   0  0  0  0  0  0  0  0  0  0  0  0
  -24.6538  -15.7807   20.5848 H   0  0  0  0  0  0  0  0  0  0  0  0
  -26.2762  -15.5453   20.1156 H   0  0  0  0  0  0  0  0  0  0  0  0
  -26.6778  -32.4663   23.1464 H   0  0  0  0  0  0  0  0  0  0  0  0
  -25.0747  -34.0282   25.0566 H   0  0  0  0  0  0  0  0  0  0  0  0
  -22.7881  -31.3489   21.4131 H   0  0  0  0  0  0  0  0  0  0  0  0
  -23.3854  -35.9823   23.3648 H   0  0  0  0  0  0  0  0  0  0  0  0
  -24.3696  -36.8624   22.2204 H   0  0  0  0  0  0  0  0  0  0  0  0
  -23.7669  -37.6632   23.6516 H   0  0  0  0  0  0  0  0  0  0  0  0
  -25.9445  -31.6237   20.5691 H   0  0  0  0  0  0  0  0  0  0  0  0
  -26.7436  -31.0079   22.0108 H   0  0  0  0  0  0  0  0  0  0  0  0
  -28.0090  -29.1452   21.2057 H   0  0  0  0  0  0  0  0  0  0  0  0
  -26.1369  -26.0560   19.0719 H   0  0  0  0  0  0  0  0  0  0  0  0
  -24.0652  -27.2961   19.0997 H   0  0  0  0  0  0  0  0  0  0  0  0
  -23.6156  -30.5365   19.3930 H   0  0  0  0  0  0  0  0  0  0  0  0
  -22.7355  -29.1425   19.9945 H   0  0  0  0  0  0  0  0  0  0  0  0
  -25.1353  -36.2335   25.0565 H   0  0  0  0  0  0  0  0  0  0  0  0
  -21.0070  -28.3206   24.0793 H   0  0  0  0  0  0  0  0  0  0  0  0
  -20.5555  -26.2518   23.3550 H   0  0  0  0  0  0  0  0  0  0  0  0
  -21.5974  -26.8362   22.0454 H   0  0  0  0  0  0  0  0  0  0  0  0
  -19.6810  -25.6422   21.1488 H   0  0  0  0  0  0  0  0  0  0  0  0
  -19.6406  -27.3343   20.7034 H   0  0  0  0  0  0  0  0  0  0  0  0
  -17.4282  -26.6888   21.4113 H   0  0  0  0  0  0  0  0  0  0  0  0
  -18.0803  -26.0130   22.9049 H   0  0  0  0  0  0  0  0  0  0  0  0
  -19.7265  -30.6774   24.2204 H   0  0  0  0  0  0  0  0  0  0  0  0
  -17.5064  -31.5856   24.4483 H   0  0  0  0  0  0  0  0  0  0  0  0
  -15.5878  -30.2839   23.7407 H   0  0  0  0  0  0  0  0  0  0  0  0
  -15.9120  -28.0941   22.7766 H   0  0  0  0  0  0  0  0  0  0  0  0
  -24.5787  -30.7757   25.6817 H   0  0  0  0  0  0  0  0  0  0  0  0
  -25.0041  -32.2289   26.5536 H   0  0  0  0  0  0  0  0  0  0  0  0
  -25.8166  -30.7245   26.9138 H   0  0  0  0  0  0  0  0  0  0  0  0
  -26.2892  -29.7335   24.0803 H   0  0  0  0  0  0  0  0  0  0  0  0
  -27.4336  -29.7484   25.4006 H   0  0  0  0  0  0  0  0  0  0  0  0
  -27.8466  -30.4994   23.8779 H   0  0  0  0  0  0  0  0  0  0  0  0
  -27.2251  -33.3632   26.1242 H   0  0  0  0  0  0  0  0  0  0  0  0
  -28.3902  -32.6065   25.0645 H   0  0  0  0  0  0  0  0  0  0  0  0
  -27.9772  -31.8555   26.5872 H   0  0  0  0  0  0  0  0  0  0  0  0
  -28.2744  -38.0016   24.6863 H   0  0  0  0  0  0  0  0  0  0  0  0
  -28.0396  -36.2711   24.7461 H   0  0  0  0  0  0  0  0  0  0  0  0
  -27.1773  -37.3087   25.8564 H   0  0  0  0  0  0  0  0  0  0  0  0
  -20.9627  -29.9365   21.7352 H   0  0  0  0  0  0  0  0  0  0  0  0
  -26.0447  -38.2561   24.0273 H   0  0  0  0  0  0  0  0  0  0  0  0
  -25.4702  -17.5497   18.0520 H   0  0  0  0  0  0  0  0  0  0  0  0
  -28.3942  -19.2918   20.5187 H   0  0  0  0  0  0  0  0  0  0  0  0
  -31.8405  -24.5211   20.7413 H   0  0  0  0  0  0  0  0  0  0  0  0
  -30.9230  -25.7038   21.3571 H   0  0  0  0  0  0  0  0  0  0  0  0
  -29.6233  -23.8007   22.4359 H   0  0  0  0  0  0  0  0  0  0  0  0
  -30.3089  -22.6492   21.5240 H   0  0  0  0  0  0  0  0  0  0  0  0
  -30.4308  -24.0448   18.7953 H   0  0  0  0  0  0  0  0  0  0  0  0
  -29.8047  -25.5330   18.9397 H   0  0  0  0  0  0  0  0  0  0  0  0
  -23.7284  -18.7429   17.2058 H   0  0  0  0  0  0  0  0  0  0  0  0
  -24.0971  -20.4109   16.8384 H   0  0  0  0  0  0  0  0  0  0  0  0
  -23.1430  -20.0171   18.2483 H   0  0  0  0  0  0  0  0  0  0  0  0
  -24.1502  -21.9360   18.3810 H   0  0  0  0  0  0  0  0  0  0  0  0
  -25.6803  -22.7596   18.5639 H   0  0  0  0  0  0  0  0  0  0  0  0
  -24.7255  -22.3671   19.9736 H   0  0  0  0  0  0  0  0  0  0  0  0
  -28.1506  -21.4420   21.3182 H   0  0  0  0  0  0  0  0  0  0  0  0
  -26.6392  -22.3267   21.0206 H   0  0  0  0  0  0  0  0  0  0  0  0
  -27.8216  -25.0400   21.9290 H   0  0  0  0  0  0  0  0  0  0  0  0
  -26.8027  -24.6983   20.6091 H   0  0  0  0  0  0  0  0  0  0  0  0
  -27.0903  -16.4184   18.8756 H   0  0  0  0  0  0  0  0  0  0  0  0
  1 25  1  0
  1 30  2  0
  1 86  1  0
  2  3  1  0
  2 25  1  0
  2 88  1  0
  2 89  1  0
  3  4  1  0
  3 90  1  0
  3 91  1  0
  4  5  1  0
  4 92  1  0
  4 93  1  0
  5  6  1  0
  5 26  1  0
  5 94  1  6
  6 25  1  0
  6 95  1  0
  6 96  1  0
  7  8  2  0
  7 26  1  0
  7 29  1  0
  8  9  1  0
  8 22  1  0
  9 10  1  0
  9 27  2  0
 10 11  2  0
 10 15  1  0
 11 12  1  0
 11 97  1  0
 12 13  2  0
 12 98  1  0
 13 14  1  0
 13 31  1  0
 14 15  2  0
 14 99  1  0
 15100  1  0
 16 17  2  0
 16 21  1  0
 16 31  1  0
 17 18  1  0
 17101  1  0
 18 19  2  0
 18102  1  0
 19 20  1  0
 19 24  1  0
 20 21  2  0
 20103  1  0
 21 23  1  0
 22 28  1  0
 22 32  2  0
 26 27  1  0
 28104  1  0
 28105  1  0
 29106  1  0
 29107  1  0
 33 34  1  0
 33 66  1  0
 33 70  2  0
 34 36  1  0
 34 59  1  0
 34108  1  6
 35 44  2  0
 35 45  1  0
 35 68  1  0
 36 56  1  0
 36109  1  0
 37 39  1  0
 37 47  1  0
 37 66  1  0
 37110  1  6
 38 43  2  0
 38 46  1  0
 38 47  1  0
 39 64  1  0
 39 67  2  0
 40 52  1  0
 40 53  2  0
 40 58  1  0
 41111  1  0
 41112  1  0
 41113  1  0
 42 43  1  0
 42 66  1  0
 42114  1  0
 42115  1  0
 43 44  1  0
 44116  1  0
 45 46  2  0
 45117  1  0
 46118  1  0
 47119  1  0
 47120  1  0
 48 41  1  0
 48 56  1  0
 48 65  1  0
 48121  1  1
 49 50  1  0
 49 53  1  0
 49 64  1  0
 49122  1  1
 50 51  1  0
 50123  1  0
 50124  1  0
 51 52  1  0
 51125  1  0
 51126  1  0
 52127  1  0
 52128  1  0
 53 54  1  0
 54 55  2  0
 54129  1  0
 55 57  1  0
 55130  1  0
 56 69  2  0
 57 58  2  0
 57131  1  0
 58132  1  0
 59 60  1  0
 59 61  1  0
 59 62  1  0
 60133  1  0
 60134  1  0
 60135  1  0
 61136  1  0
 61137  1  0
 61138  1  0
 62139  1  0
 62140  1  0
 62141  1  0
 63 65  1  0
 63142  1  0
 63143  1  0
 63144  1  0
 64145  1  0
 65146  1  0
 68 85  1  0
 71 73  2  0
 71 76  1  0
 71147  1  0
 72 74  1  0
 72 76  2  0
 72148  1  0
 73 75  1  0
 73 82  1  0
 74 75  2  0
 74 84  1  0
 75 83  1  0
 76 86  1  0
 77 81  1  0
 77 84  1  0
 77 87  2  0
 78 79  1  0
 78 80  1  0
 78149  1  0
 78150  1  0
 79 81  1  0
 79151  1  0
 79152  1  0
 80 81  1  0
 80153  1  0
 80154  1  0
 81 85  1  0
 82155  1  0
 82156  1  0
 82157  1  0
 83158  1  0
 83159  1  0
 83160  1  0
 84161  1  0
 84162  1  0
 85163  1  0
 85164  1  0
 86165  1  0
M  ISO  4   1 100  68 101  85 101  86 100
M  END
$$$$
8
     RDKit          3D

164172  0  0  0  0  0  0  0  0999 V2000
  -30.7652  -14.3608   20.6636 C   0  0  0  0  0  0  0  0  0100  0  0
  -30.4392  -12.2669   19.3775 C   0  0  0  0  0  0  0  0  0101  0  0
  -29.4791  -12.5281   18.1977 C   0  0  0  0  0  0  0  0  0102  0  0
  -27.9985  -12.3963   18.6038 C   0  0  0  0  0  0  0  0  0103  0  0
  -27.6639  -13.2170   19.8820 C   0  0  2  0  0  0  0  0  0104  0  0
  -28.6795  -12.9602   21.0279 C   0  0  0  0  0  0  0  0  0105  0  0
  -25.2633  -13.8245   20.5754 C   0  0  0  0  0  0  0  0  0106  0  0
  -24.1645  -13.0409   20.9408 C   0  0  0  0  0  0  0  0  0107  0  0
  -24.6400  -11.7009   20.8697 C   0  0  0  0  0  0  0  0  0108  0  0
  -23.9005  -10.4085   21.0420 C   0  0  0  0  0  0  0  0  0109  0  0
  -24.3588   -9.4123   21.9123 C   0  0  0  0  0  0  0  0  0110  0  0
  -23.6296   -8.2350   22.0803 C   0  0  0  0  0  0  0  0  0111  0  0
  -22.4385   -8.0419   21.3657 C   0  0  0  0  0  0  0  0  0112  0  0
  -22.0103   -9.0167   20.4678 C   0  0  0  0  0  0  0  0  0113  0  0
  -22.7317  -10.1925   20.3102 C   0  0  0  0  0  0  0  0  0114  0  0
  -21.6857   -6.0709   22.5391 C   0  0  0  0  0  0  0  0  0115  0  0
  -21.4064   -6.5490   23.8264 C   0  0  0  0  0  0  0  0  0116  0  0
  -21.3635   -5.6677   24.9085 C   0  0  0  0  0  0  0  0  0117  0  0
  -21.5973   -4.3067   24.7088 C   0  0  0  0  0  0  0  0  0118  0  0
  -21.8700   -3.8284   23.4282 C   0  0  0  0  0  0  0  0  0119  0  0
  -21.9144   -4.7056   22.3460 C   0  0  0  0  0  0  0  0  0120  0  0
  -22.8194  -13.5263   21.1763 C   0  0  0  0  0  0  0  0  0121  0  0
  -22.1559   -4.2206   21.1063 F   0  0  0  0  0  0  0  0  0122  0  0
  -21.5628   -3.4510   25.7555 F   0  0  0  0  0  0  0  0  0123  0  0
  -30.0261  -13.1803   20.4553 N   0  0  0  0  0  0  0  0  0124  0  0
  -26.2911  -12.9356   20.3443 N   0  0  0  0  0  0  0  0  0125  0  0
  -25.9236  -11.6675   20.5847 N   0  0  0  0  0  0  0  0  0126  0  0
  -22.0708  -12.7905   22.0005 N   0  0  0  0  0  0  0  0  0127  0  0
  -25.4117  -15.1773   20.4097 N   0  0  0  0  0  0  0  0  0128  0  0
  -31.7916  -14.6724   20.0536 O   0  0  0  0  0  0  0  0  0129  0  0
  -21.6670   -6.9022   21.4423 O   0  0  0  0  0  0  0  0  0130  0  0
  -22.3946  -14.5564   20.6568 O   0  0  0  0  0  0  0  0  0131  0  0
  -24.6048  -31.8614   23.2223 C   0  0  0  0  0  0  0  0  0100  0  0
  -25.8822  -32.4841   23.8616 C   0  0  1  0  0  0  0  0  0101  0  0
  -27.2536  -27.5042   20.1156 C   0  0  0  0  0  0  0  0  0102  0  0
  -25.5726  -33.8762   24.2210 N   0  0  0  0  0  0  0  0  0103  0  0
  -23.4066  -30.4859   21.5461 C   0  0  2  0  0  0  0  0  0104  0  0
  -24.8467  -28.9636   20.1247 C   0  0  0  0  0  0  0  0  0105  0  0
  -22.7412  -29.4652   22.5052 C   0  0  0  0  0  0  0  0  0106  0  0
  -18.0167  -28.1302   22.8626 C   0  0  0  0  0  0  0  0  0107  0  0
  -24.1342  -36.7390   23.2568 C   0  0  0  0  0  0  0  0  0108  0  0
  -25.9141  -30.8882   21.3456 C   0  0  0  0  0  0  0  0  0109  0  0
  -25.9930  -29.5029   20.7208 C   0  0  0  0  0  0  0  0  0110  0  0
  -27.1758  -28.7612   20.7331 C   0  0  0  0  0  0  0  0  0111  0  0
  -26.1032  -26.9836   19.5230 C   0  0  0  0  0  0  0  0  0112  0  0
  -24.9097  -27.7011   19.5331 C   0  0  0  0  0  0  0  0  0113  0  0
  -23.5715  -29.7899   20.1582 C   0  0  0  0  0  0  0  0  0114  0  0
  -25.3990  -36.3212   24.0232 C   0  0  1  0  0  0  0  0  0115  0  0
  -20.5793  -28.3813   23.1004 C   0  0  2  0  0  0  0  0  0116  0  0
  -20.6548  -26.9392   22.5411 C   0  0  0  0  0  0  0  0  0117  0  0
  -19.5615  -26.6407   21.5143 C   0  0  0  0  0  0  0  0  0118  0  0
  -18.1797  -26.7818   22.1673 C   0  0  0  0  0  0  0  0  0119  0  0
  -19.1385  -28.8769   23.2988 C   0  0  0  0  0  0  0  0  0120  0  0
  -18.9183  -30.1286   23.8878 C   0  0  0  0  0  0  0  0  0121  0  0
  -17.6396  -30.6493   24.0352 C   0  0  0  0  0  0  0  0  0122  0  0
  -25.9153  -34.9582   23.4993 C   0  0  0  0  0  0  0  0  0123  0  0
  -16.5415  -29.9068   23.6254 C   0  0  0  0  0  0  0  0  0124  0  0
  -16.7331  -28.6521   23.0586 C   0  0  0  0  0  0  0  0  0125  0  0
  -26.4583  -31.6439   25.0683 C   0  0  0  0  0  0  0  0  0126  0  0
  -25.3807  -31.3179   26.1374 C   0  0  0  0  0  0  0  0  0127  0  0
  -27.0530  -30.3024   24.5680 C   0  0  0  0  0  0  0  0  0128  0  0
  -27.6014  -32.4281   25.7651 C   0  0  0  0  0  0  0  0  0129  0  0
  -27.5629  -37.2220   24.8621 C   0  0  0  0  0  0  0  0  0130  0  0
  -21.4133  -29.3375   22.3735 N   0  0  0  0  0  0  0  0  0131  0  0
  -26.4706  -37.3372   23.9061 N   0  0  0  0  0  0  0  0  0132  0  0
  -24.6674  -31.0544   22.1178 N   0  0  0  0  0  0  0  0  0133  0  0
  -23.4259  -28.8150   23.2971 O   0  0  0  0  0  0  0  0  0134  0  0
  -28.3948  -26.7345   20.0089 O   0  0  0  0  0  0  0  0  0135  0  0
  -26.5870  -34.9065   22.4671 O   0  0  0  0  0  0  0  0  0136  0  0
  -23.5365  -32.1254   23.7833 O   0  0  0  0  0  0  0  0  0137  0  0
  -30.2574  -22.6089   21.4092 C   0  0  0  0  0  0  0  0  0  0  0  0
  -30.6112  -23.5151   20.4096 C   0  0  0  0  0  0  0  0  0  0  0  0
  -28.9372  -22.1721   21.5192 C   0  0  0  0  0  0  0  0  0  0  0  0
  -28.3247  -23.5479   19.6300 C   0  0  0  0  0  0  0  0  0  0  0  0
  -29.6449  -23.9846   19.5200 C   0  0  0  0  0  0  0  0  0  0  0  0
  -27.9709  -22.6417   20.6296 C   0  0  0  0  0  0  0  0  0  0  0  0
  -29.5828  -27.0548   19.8461 C   0  0  0  0  0  0  0  0  0  0  0  0
  -31.0337  -24.3442   17.4558 C   0  0  0  0  0  0  0  0  0  0  0  0
  -30.8329  -27.4686   22.5559 C   0  0  0  0  0  0  0  0  0  0  0  0
  -30.3133  -29.9176   22.4221 C   0  0  0  0  0  0  0  0  0  0  0  0
  -30.5923  -26.2871   19.0033 C   0  0  0  0  0  0  0  0  0  0  0  0
  -30.0160  -28.4087   20.3845 C   0  0  0  0  0  0  0  0  0  0  0  0
  -30.0312  -24.9725   18.4305 C   0  0  2  0  0  0  0  0  0  0  0  0
  -29.9281  -28.5263   21.9140 C   0  0  0  0  0  0  0  0  0  1  0  0
  -26.6301  -22.1973   20.7411 N   0  0  0  0  0  0  0  0  0  0  0  0
  -28.4481  -26.6273   20.0616 O   0  0  0  0  0  0  0  0  0  0  0  0
  -31.4485  -12.4701   19.0860 H   0  0  0  0  0  0  0  0  0  0  0  0
  -30.3970  -11.2460   19.6950 H   0  0  0  0  0  0  0  0  0  0  0  0
  -29.6870  -11.8204   17.4226 H   0  0  0  0  0  0  0  0  0  0  0  0
  -29.6375  -13.5326   17.8649 H   0  0  0  0  0  0  0  0  0  0  0  0
  -27.7830  -11.3650   18.7904 H   0  0  0  0  0  0  0  0  0  0  0  0
  -27.4028  -12.7801   17.8021 H   0  0  0  0  0  0  0  0  0  0  0  0
  -27.7353  -14.2503   19.6136 H   0  0  0  0  0  0  0  0  0  0  0  0
  -28.5890  -11.9550   21.3832 H   0  0  0  0  0  0  0  0  0  0  0  0
  -28.5005  -13.6134   21.8562 H   0  0  0  0  0  0  0  0  0  0  0  0
  -25.2399   -9.5495   22.4318 H   0  0  0  0  0  0  0  0  0  0  0  0
  -23.9663   -7.5070   22.7297 H   0  0  0  0  0  0  0  0  0  0  0  0
  -21.1515   -8.8641   19.9162 H   0  0  0  0  0  0  0  0  0  0  0  0
  -22.4016  -10.9115   19.6476 H   0  0  0  0  0  0  0  0  0  0  0  0
  -21.2319   -7.5552   23.9750 H   0  0  0  0  0  0  0  0  0  0  0  0
  -21.1589   -6.0228   25.8556 H   0  0  0  0  0  0  0  0  0  0  0  0
  -22.0396   -2.8212   23.2809 H   0  0  0  0  0  0  0  0  0  0  0  0
  -22.4401  -11.9703   22.4008 H   0  0  0  0  0  0  0  0  0  0  0  0
  -21.1493  -13.0679   22.2082 H   0  0  0  0  0  0  0  0  0  0  0  0
  -24.6538  -15.7807   20.5848 H   0  0  0  0  0  0  0  0  0  0  0  0
  -26.2762  -15.5453   20.1156 H   0  0  0  0  0  0  0  0  0  0  0  0
  -26.6778  -32.4663   23.1464 H   0  0  0  0  0  0  0  0  0  0  0  0
  -25.0747  -34.0282   25.0566 H   0  0  0  0  0  0  0  0  0  0  0  0
  -22.7881  -31.3489   21.4131 H   0  0  0  0  0  0  0  0  0  0  0  0
  -23.3854  -35.9823   23.3648 H   0  0  0  0  0  0  0  0  0  0  0  0
  -24.3696  -36.8624   22.2204 H   0  0  0  0  0  0  0  0  0  0  0  0
  -23.7669  -37.6632   23.6516 H   0  0  0  0  0  0  0  0  0  0  0  0
  -25.9445  -31.6237   20.5691 H   0  0  0  0  0  0  0  0  0  0  0  0
  -26.7436  -31.0079   22.0108 H   0  0  0  0  0  0  0  0  0  0  0  0
  -28.0090  -29.1452   21.2057 H   0  0  0  0  0  0  0  0  0  0  0  0
  -26.1369  -26.0560   19.0719 H   0  0  0  0  0  0  0  0  0  0  0  0
  -24.0652  -27.2961   19.0997 H   0  0  0  0  0  0  0  0  0  0  0  0
  -23.6156  -30.5365   19.3930 H   0  0  0  0  0  0  0  0  0  0  0  0
  -22.7355  -29.1425   19.9945 H   0  0  0  0  0  0  0  0  0  0  0  0
  -25.1353  -36.2335   25.0565 H   0  0  0  0  0  0  0  0  0  0  0  0
  -21.0070  -28.3206   24.0793 H   0  0  0  0  0  0  0  0  0  0  0  0
  -20.5555  -26.2518   23.3550 H   0  0  0  0  0  0  0  0  0  0  0  0
  -21.5974  -26.8362   22.0454 H   0  0  0  0  0  0  0  0  0  0  0  0
  -19.6810  -25.6422   21.1488 H   0  0  0  0  0  0  0  0  0  0  0  0
  -19.6406  -27.3343   20.7034 H   0  0  0  0  0  0  0  0  0  0  0  0
  -17.4282  -26.6888   21.4113 H   0  0  0  0  0  0  0  0  0  0  0  0
  -18.0803  -26.0130   22.9049 H   0  0  0  0  0  0  0  0  0  0  0  0
  -19.7265  -30.6774   24.2204 H   0  0  0  0  0  0  0  0  0  0  0  0
  -17.5064  -31.5856   24.4483 H   0  0  0  0  0  0  0  0  0  0  0  0
  -15.5878  -30.2839   23.7407 H   0  0  0  0  0  0  0  0  0  0  0  0
  -15.9120  -28.0941   22.7766 H   0  0  0  0  0  0  0  0  0  0  0  0
  -24.5787  -30.7757   25.6817 H   0  0  0  0  0  0  0  0  0  0  0  0
  -25.0041  -32.2289   26.5536 H   0  0  0  0  0  0  0  0  0  0  0  0
  -25.8166  -30.7245   26.9138 H   0  0  0  0  0  0  0  0  0  0  0  0
  -26.2892  -29.7335   24.0803 H   0  0  0  0  0  0  0  0  0  0  0  0
  -27.4336  -29.7484   25.4006 H   0  0  0  0  0  0  0  0  0  0  0  0
  -27.8466  -30.4994   23.8779 H   0  0  0  0  0  0  0  0  0  0  0  0
  -27.2251  -33.3632   26.1242 H   0  0  0  0  0  0  0  0  0  0  0  0
  -28.3902  -32.6065   25.0645 H   0  0  0  0  0  0  0  0  0  0  0  0
  -27.9772  -31.8555   26.5872 H   0  0  0  0  0  0  0  0  0  0  0  0
  -28.2744  -38.0016   24.6863 H   0  0  0  0  0  0  0  0  0  0  0  0
  -28.0396  -36.2711   24.7461 H   0  0  0  0  0  0  0  0  0  0  0  0
  -27.1773  -37.3087   25.8564 H   0  0  0  0  0  0  0  0  0  0  0  0
  -20.9627  -29.9365   21.7352 H   0  0  0  0  0  0  0  0  0  0  0  0
  -26.0447  -38.2561   24.0273 H   0  0  0  0  0  0  0  0  0  0  0  0
  -30.9724  -22.2616   22.0674 H   0  0  0  0  0  0  0  0  0  0  0  0
  -31.5879  -23.8382   20.3282 H   0  0  0  0  0  0  0  0  0  0  0  0
  -28.6754  -21.5016   22.2587 H   0  0  0  0  0  0  0  0  0  0  0  0
  -27.6097  -23.8953   18.9718 H   0  0  0  0  0  0  0  0  0  0  0  0
  -30.6298  -23.4329   17.0669 H   0  0  0  0  0  0  0  0  0  0  0  0
  -31.9493  -24.1379   17.9696 H   0  0  0  0  0  0  0  0  0  0  0  0
  -31.2217  -25.0232   16.6505 H   0  0  0  0  0  0  0  0  0  0  0  0
  -31.4671  -27.9343   23.2811 H   0  0  0  0  0  0  0  0  0  0  0  0
  -31.4339  -27.0073   21.8003 H   0  0  0  0  0  0  0  0  0  0  0  0
  -30.2294  -26.7259   23.0344 H   0  0  0  0  0  0  0  0  0  0  0  0
  -30.9951  -29.8220   23.2412 H   0  0  0  0  0  0  0  0  0  0  0  0
  -29.4347  -30.4343   22.7477 H   0  0  0  0  0  0  0  0  0  0  0  0
  -30.7794  -30.4692   21.6326 H   0  0  0  0  0  0  0  0  0  0  0  0
  -31.4401  -26.0571   19.6142 H   0  0  0  0  0  0  0  0  0  0  0  0
  -30.8516  -26.9101   18.1729 H   0  0  0  0  0  0  0  0  0  0  0  0
  -29.3886  -29.1599   19.9520 H   0  0  0  0  0  0  0  0  0  0  0  0
  -31.0457  -28.5330   20.1216 H   0  0  0  0  0  0  0  0  0  0  0  0
  -29.1343  -25.2140   17.8994 H   0  0  0  0  0  0  0  0  0  0  0  0
  -25.7188  -22.5654   20.7975 H   0  0  0  0  0  0  0  0  0  0  0  0
  1 25  1  0
  1 30  2  0
  1 85  1  0
  2  3  1  0
  2 25  1  0
  2 87  1  0
  2 88  1  0
  3  4  1  0
  3 89  1  0
  3 90  1  0
  4  5  1  0
  4 91  1  0
  4 92  1  0
  5  6  1  0
  5 26  1  0
  5 93  1  6
  6 25  1  0
  6 94  1  0
  6 95  1  0
  7  8  2  0
  7 26  1  0
  7 29  1  0
  8  9  1  0
  8 22  1  0
  9 10  1  0
  9 27  2  0
 10 11  2  0
 10 15  1  0
 11 12  1  0
 11 96  1  0
 12 13  2  0
 12 97  1  0
 13 14  1  0
 13 31  1  0
 14 15  2  0
 14 98  1  0
 15 99  1  0
 16 17  2  0
 16 21  1  0
 16 31  1  0
 17 18  1  0
 17100  1  0
 18 19  2  0
 18101  1  0
 19 20  1  0
 19 24  1  0
 20 21  2  0
 20102  1  0
 21 23  1  0
 22 28  1  0
 22 32  2  0
 26 27  1  0
 28103  1  0
 28104  1  0
 29105  1  0
 29106  1  0
 33 34  1  0
 33 66  1  0
 33 70  2  0
 34 36  1  0
 34 59  1  0
 34107  1  6
 35 44  2  0
 35 45  1  0
 35 68  1  0
 36 56  1  0
 36108  1  0
 37 39  1  0
 37 47  1  0
 37 66  1  0
 37109  1  6
 38 43  2  0
 38 46  1  0
 38 47  1  0
 39 64  1  0
 39 67  2  0
 40 52  1  0
 40 53  2  0
 40 58  1  0
 41110  1  0
 41111  1  0
 41112  1  0
 42 43  1  0
 42 66  1  0
 42113  1  0
 42114  1  0
 43 44  1  0
 44115  1  0
 45 46  2  0
 45116  1  0
 46117  1  0
 47118  1  0
 47119  1  0
 48 41  1  0
 48 56  1  0
 48 65  1  0
 48120  1  1
 49 50  1  0
 49 53  1  0
 49 64  1  0
 49121  1  1
 50 51  1  0
 50122  1  0
 50123  1  0
 51 52  1  0
 51124  1  0
 51125  1  0
 52126  1  0
 52127  1  0
 53 54  1  0
 54 55  2  0
 54128  1  0
 55 57  1  0
 55129  1  0
 56 69  2  0
 57 58  2  0
 57130  1  0
 58131  1  0
 59 60  1  0
 59 61  1  0
 59 62  1  0
 60132  1  0
 60133  1  0
 60134  1  0
 61135  1  0
 61136  1  0
 61137  1  0
 62138  1  0
 62139  1  0
 62140  1  0
 63 65  1  0
 63141  1  0
 63142  1  0
 63143  1  0
 64144  1  0
 65145  1  0
 68 84  1  0
 71 72  2  0
 71 73  1  0
 71146  1  0
 72 75  1  0
 72147  1  0
 73 76  2  0
 73148  1  0
 74 75  2  0
 74 76  1  0
 74149  1  0
 75 83  1  0
 76 85  1  0
 77 81  1  0
 77 82  1  0
 77 86  2  0
 78150  1  0
 78151  1  0
 78152  1  0
 79153  1  0
 79154  1  0
 79155  1  0
 80 84  1  0
 80156  1  0
 80157  1  0
 80158  1  0
 81 83  1  0
 81159  1  0
 81160  1  0
 82 84  1  0
 82161  1  0
 82162  1  0
 83 78  1  0
 83163  1  6
 84 79  1  0
 85164  1  0
M  ISO  4   1 100  68 101  84 101  85 100
M  END
$$$$
9
     RDKit          3D

167176  0  0  0  0  0  0  0  0999 V2000
  -30.7652  -14.3608   20.6636 C   0  0  0  0  0  0  0  0  0100  0  0
  -30.4392  -12.2669   19.3775 C   0  0  0  0  0  0  0  0  0101  0  0
  -29.4791  -12.5281   18.1977 C   0  0  0  0  0  0  0  0  0102  0  0
  -27.9985  -12.3963   18.6038 C   0  0  0  0  0  0  0  0  0103  0  0
  -27.6639  -13.2170   19.8820 C   0  0  2  0  0  0  0  0  0104  0  0
  -28.6795  -12.9602   21.0279 C   0  0  0  0  0  0  0  0  0105  0  0
  -25.2633  -13.8245   20.5754 C   0  0  0  0  0  0  0  0  0106  0  0
  -24.1645  -13.0409   20.9408 C   0  0  0  0  0  0  0  0  0107  0  0
  -24.6400  -11.7009   20.8697 C   0  0  0  0  0  0  0  0  0108  0  0
  -23.9005  -10.4085   21.0420 C   0  0  0  0  0  0  0  0  0109  0  0
  -24.3588   -9.4123   21.9123 C   0  0  0  0  0  0  0  0  0110  0  0
  -23.6296   -8.2350   22.0803 C   0  0  0  0  0  0  0  0  0111  0  0
  -22.4385   -8.0419   21.3657 C   0  0  0  0  0  0  0  0  0112  0  0
  -22.0103   -9.0167   20.4678 C   0  0  0  0  0  0  0  0  0113  0  0
  -22.7317  -10.1925   20.3102 C   0  0  0  0  0  0  0  0  0114  0  0
  -21.6857   -6.0709   22.5391 C   0  0  0  0  0  0  0  0  0115  0  0
  -21.4064   -6.5490   23.8264 C   0  0  0  0  0  0  0  0  0116  0  0
  -21.3635   -5.6677   24.9085 C   0  0  0  0  0  0  0  0  0117  0  0
  -21.5973   -4.3067   24.7088 C   0  0  0  0  0  0  0  0  0118  0  0
  -21.8700   -3.8284   23.4282 C   0  0  0  0  0  0  0  0  0119  0  0
  -21.9144   -4.7056   22.3460 C   0  0  0  0  0  0  0  0  0120  0  0
  -22.8194  -13.5263   21.1763 C   0  0  0  0  0  0  0  0  0121  0  0
  -22.1559   -4.2206   21.1063 F   0  0  0  0  0  0  0  0  0122  0  0
  -21.5628   -3.4510   25.7555 F   0  0  0  0  0  0  0  0  0123  0  0
  -30.0261  -13.1803   20.4553 N   0  0  0  0  0  0  0  0  0124  0  0
  -26.2911  -12.9356   20.3443 N   0  0  0  0  0  0  0  0  0125  0  0
  -25.9236  -11.6675   20.5847 N   0  0  0  0  0  0  0  0  0126  0  0
  -22.0708  -12.7905   22.0005 N   0  0  0  0  0  0  0  0  0127  0  0
  -25.4117  -15.1773   20.4097 N   0  0  0  0  0  0  0  0  0128  0  0
  -31.7916  -14.6724   20.0536 O   0  0  0  0  0  0  0  0  0129  0  0
  -21.6670   -6.9022   21.4423 O   0  0  0  0  0  0  0  0  0130  0  0
  -22.3946  -14.5564   20.6568 O   0  0  0  0  0  0  0  0  0131  0  0
  -24.6048  -31.8614   23.2223 C   0  0  0  0  0  0  0  0  0100  0  0
  -25.8822  -32.4841   23.8616 C   0  0  1  0  0  0  0  0  0101  0  0
  -27.2536  -27.5042   20.1156 C   0  0  0  0  0  0  0  0  0102  0  0
  -25.5726  -33.8762   24.2210 N   0  0  0  0  0  0  0  0  0103  0  0
  -23.4066  -30.4859   21.5461 C   0  0  2  0  0  0  0  0  0104  0  0
  -24.8467  -28.9636   20.1247 C   0  0  0  0  0  0  0  0  0105  0  0
  -22.7412  -29.4652   22.5052 C   0  0  0  0  0  0  0  0  0106  0  0
  -18.0167  -28.1302   22.8626 C   0  0  0  0  0  0  0  0  0107  0  0
  -24.1342  -36.7390   23.2568 C   0  0  0  0  0  0  0  0  0108  0  0
  -25.9141  -30.8882   21.3456 C   0  0  0  0  0  0  0  0  0109  0  0
  -25.9930  -29.5029   20.7208 C   0  0  0  0  0  0  0  0  0110  0  0
  -27.1758  -28.7612   20.7331 C   0  0  0  0  0  0  0  0  0111  0  0
  -26.1032  -26.9836   19.5230 C   0  0  0  0  0  0  0  0  0112  0  0
  -24.9097  -27.7011   19.5331 C   0  0  0  0  0  0  0  0  0113  0  0
  -23.5715  -29.7899   20.1582 C   0  0  0  0  0  0  0  0  0114  0  0
  -25.3990  -36.3212   24.0232 C   0  0  1  0  0  0  0  0  0115  0  0
  -20.5793  -28.3813   23.1004 C   0  0  2  0  0  0  0  0  0116  0  0
  -20.6548  -26.9392   22.5411 C   0  0  0  0  0  0  0  0  0117  0  0
  -19.5615  -26.6407   21.5143 C   0  0  0  0  0  0  0  0  0118  0  0
  -18.1797  -26.7818   22.1673 C   0  0  0  0  0  0  0  0  0119  0  0
  -19.1385  -28.8769   23.2988 C   0  0  0  0  0  0  0  0  0120  0  0
  -18.9183  -30.1286   23.8878 C   0  0  0  0  0  0  0  0  0121  0  0
  -17.6396  -30.6493   24.0352 C   0  0  0  0  0  0  0  0  0122  0  0
  -25.9153  -34.9582   23.4993 C   0  0  0  0  0  0  0  0  0123  0  0
  -16.5415  -29.9068   23.6254 C   0  0  0  0  0  0  0  0  0124  0  0
  -16.7331  -28.6521   23.0586 C   0  0  0  0  0  0  0  0  0125  0  0
  -26.4583  -31.6439   25.0683 C   0  0  0  0  0  0  0  0  0126  0  0
  -25.3807  -31.3179   26.1374 C   0  0  0  0  0  0  0  0  0127  0  0
  -27.0530  -30.3024   24.5680 C   0  0  0  0  0  0  0  0  0128  0  0
  -27.6014  -32.4281   25.7651 C   0  0  0  0  0  0  0  0  0129  0  0
  -27.5629  -37.2220   24.8621 C   0  0  0  0  0  0  0  0  0130  0  0
  -21.4133  -29.3375   22.3735 N   0  0  0  0  0  0  0  0  0131  0  0
  -26.4706  -37.3372   23.9061 N   0  0  0  0  0  0  0  0  0132  0  0
  -24.6674  -31.0544   22.1178 N   0  0  0  0  0  0  0  0  0133  0  0
  -23.4259  -28.8150   23.2971 O   0  0  0  0  0  0  0  0  0134  0  0
  -28.3948  -26.7345   20.0089 O   0  0  0  0  0  0  0  0  0135  0  0
  -26.5870  -34.9065   22.4671 O   0  0  0  0  0  0  0  0  0136  0  0
  -23.5365  -32.1254   23.7833 O   0  0  0  0  0  0  0  0  0137  0  0
  -17.3025  -29.0203   22.1462 C   0  0  0  0  0  0  0  0  0  0  0  0
  -18.5341  -30.0223   23.9673 C   0  0  0  0  0  0  0  0  0  0  0  0
  -20.9787  -25.4098   20.7867 C   0  0  0  0  0  0  0  0  0  0  0  0
  -17.8356  -27.7731   22.4719 C   0  0  0  0  0  0  0  0  0  0  0  0
  -19.0671  -28.7751   24.2930 C   0  0  0  0  0  0  0  0  0  0  0  0
  -20.5043  -26.2050   21.8298 C   0  0  0  0  0  0  0  0  0  0  0  0
  -19.3867  -24.2872   22.7836 C   0  0  0  0  0  0  0  0  0  0  0  0
  -17.6518  -30.1449   22.8939 C   0  0  0  0  0  0  0  0  0  0  0  0
  -20.6570  -24.0532   20.7419 C   0  0  0  0  0  0  0  0  0  0  0  0
  -19.8610  -23.4919   21.7404 C   0  0  0  0  0  0  0  0  0  0  0  0
  -18.7178  -27.6505   23.5453 C   0  0  0  0  0  0  0  0  0  0  0  0
  -19.7083  -25.6438   22.8283 C   0  0  0  0  0  0  0  0  0  0  0  0
  -21.1766  -23.2221   19.6153 C   0  0  0  0  0  0  0  0  0  0  0  0
  -17.1593  -33.3743   20.8668 C   0  0  0  0  0  0  0  0  0  0  0  0
  -17.0742  -31.4954   22.5417 C   0  0  0  0  0  0  0  0  0  0  0  0
  -19.5028  -22.0424   21.7128 C   0  0  0  0  0  0  0  0  0  0  0  0
  -17.9460  -32.2540   21.5353 C   0  0  1  0  0  0  0  0  0  1  0  0
  -20.6062  -21.1975   22.1122 N   0  0  0  0  0  0  0  0  0  0  0  0
  -19.2369  -26.4333   23.8637 O   0  0  0  0  0  0  0  0  0  0  0  0
  -31.4485  -12.4701   19.0860 H   0  0  0  0  0  0  0  0  0  0  0  0
  -30.3970  -11.2460   19.6950 H   0  0  0  0  0  0  0  0  0  0  0  0
  -29.6870  -11.8204   17.4226 H   0  0  0  0  0  0  0  0  0  0  0  0
  -29.6375  -13.5326   17.8649 H   0  0  0  0  0  0  0  0  0  0  0  0
  -27.7830  -11.3650   18.7904 H   0  0  0  0  0  0  0  0  0  0  0  0
  -27.4028  -12.7801   17.8021 H   0  0  0  0  0  0  0  0  0  0  0  0
  -27.7353  -14.2503   19.6136 H   0  0  0  0  0  0  0  0  0  0  0  0
  -28.5890  -11.9550   21.3832 H   0  0  0  0  0  0  0  0  0  0  0  0
  -28.5005  -13.6134   21.8562 H   0  0  0  0  0  0  0  0  0  0  0  0
  -25.2399   -9.5495   22.4318 H   0  0  0  0  0  0  0  0  0  0  0  0
  -23.9663   -7.5070   22.7297 H   0  0  0  0  0  0  0  0  0  0  0  0
  -21.1515   -8.8641   19.9162 H   0  0  0  0  0  0  0  0  0  0  0  0
  -22.4016  -10.9115   19.6476 H   0  0  0  0  0  0  0  0  0  0  0  0
  -21.2319   -7.5552   23.9750 H   0  0  0  0  0  0  0  0  0  0  0  0
  -21.1589   -6.0228   25.8556 H   0  0  0  0  0  0  0  0  0  0  0  0
  -22.0396   -2.8212   23.2809 H   0  0  0  0  0  0  0  0  0  0  0  0
  -22.4401  -11.9703   22.4008 H   0  0  0  0  0  0  0  0  0  0  0  0
  -21.1493  -13.0679   22.2082 H   0  0  0  0  0  0  0  0  0  0  0  0
  -24.6538  -15.7807   20.5848 H   0  0  0  0  0  0  0  0  0  0  0  0
  -26.2762  -15.5453   20.1156 H   0  0  0  0  0  0  0  0  0  0  0  0
  -26.6778  -32.4663   23.1464 H   0  0  0  0  0  0  0  0  0  0  0  0
  -25.0747  -34.0282   25.0566 H   0  0  0  0  0  0  0  0  0  0  0  0
  -22.7881  -31.3489   21.4131 H   0  0  0  0  0  0  0  0  0  0  0  0
  -23.3854  -35.9823   23.3648 H   0  0  0  0  0  0  0  0  0  0  0  0
  -24.3696  -36.8624   22.2204 H   0  0  0  0  0  0  0  0  0  0  0  0
  -23.7669  -37.6632   23.6516 H   0  0  0  0  0  0  0  0  0  0  0  0
  -25.9445  -31.6237   20.5691 H   0  0  0  0  0  0  0  0  0  0  0  0
  -26.7436  -31.0079   22.0108 H   0  0  0  0  0  0  0  0  0  0  0  0
  -28.0090  -29.1452   21.2057 H   0  0  0  0  0  0  0  0  0  0  0  0
  -26.1369  -26.0560   19.0719 H   0  0  0  0  0  0  0  0  0  0  0  0
  -24.0652  -27.2961   19.0997 H   0  0  0  0  0  0  0  0  0  0  0  0
  -23.6156  -30.5365   19.3930 H   0  0  0  0  0  0  0  0  0  0  0  0
  -22.7355  -29.1425   19.9945 H   0  0  0  0  0  0  0  0  0  0  0  0
  -25.1353  -36.2335   25.0565 H   0  0  0  0  0  0  0  0  0  0  0  0
  -21.0070  -28.3206   24.0793 H   0  0  0  0  0  0  0  0  0  0  0  0
  -20.5555  -26.2518   23.3550 H   0  0  0  0  0  0  0  0  0  0  0  0
  -21.5974  -26.8362   22.0454 H   0  0  0  0  0  0  0  0  0  0  0  0
  -19.6810  -25.6422   21.1488 H   0  0  0  0  0  0  0  0  0  0  0  0
  -19.6406  -27.3343   20.7034 H   0  0  0  0  0  0  0  0  0  0  0  0
  -17.4282  -26.6888   21.4113 H   0  0  0  0  0  0  0  0  0  0  0  0
  -18.0803  -26.0130   22.9049 H   0  0  0  0  0  0  0  0  0  0  0  0
  -19.7265  -30.6774   24.2204 H   0  0  0  0  0  0  0  0  0  0  0  0
  -17.5064  -31.5856   24.4483 H   0  0  0  0  0  0  0  0  0  0  0  0
  -15.5878  -30.2839   23.7407 H   0  0  0  0  0  0  0  0  0  0  0  0
  -15.9120  -28.0941   22.7766 H   0  0  0  0  0  0  0  0  0  0  0  0
  -24.5787  -30.7757   25.6817 H   0  0  0  0  0  0  0  0  0  0  0  0
  -25.0041  -32.2289   26.5536 H   0  0  0  0  0  0  0  0  0  0  0  0
  -25.8166  -30.7245   26.9138 H   0  0  0  0  0  0  0  0  0  0  0  0
  -26.2892  -29.7335   24.0803 H   0  0  0  0  0  0  0  0  0  0  0  0
  -27.4336  -29.7484   25.4006 H   0  0  0  0  0  0  0  0  0  0  0  0
  -27.8466  -30.4994   23.8779 H   0  0  0  0  0  0  0  0  0  0  0  0
  -27.2251  -33.3632   26.1242 H   0  0  0  0  0  0  0  0  0  0  0  0
  -28.3902  -32.6065   25.0645 H   0  0  0  0  0  0  0  0  0  0  0  0
  -27.9772  -31.8555   26.5872 H   0  0  0  0  0  0  0  0  0  0  0  0
  -28.2744  -38.0016   24.6863 H   0  0  0  0  0  0  0  0  0  0  0  0
  -28.0396  -36.2711   24.7461 H   0  0  0  0  0  0  0  0  0  0  0  0
  -27.1773  -37.3087   25.8564 H   0  0  0  0  0  0  0  0  0  0  0  0
  -20.9627  -29.9365   21.7352 H   0  0  0  0  0  0  0  0  0  0  0  0
  -26.0447  -38.2561   24.0273 H   0  0  0  0  0  0  0  0  0  0  0  0
  -16.6497  -29.1110   21.3521 H   0  0  0  0  0  0  0  0  0  0  0  0
  -18.7925  -30.8543   24.5205 H   0  0  0  0  0  0  0  0  0  0  0  0
  -21.5677  -25.8251   20.0480 H   0  0  0  0  0  0  0  0  0  0  0  0
  -17.5773  -26.9411   21.9187 H   0  0  0  0  0  0  0  0  0  0  0  0
  -19.7199  -28.6844   25.0872 H   0  0  0  0  0  0  0  0  0  0  0  0
  -20.7423  -27.2087   21.8628 H   0  0  0  0  0  0  0  0  0  0  0  0
  -18.7978  -23.8719   23.5224 H   0  0  0  0  0  0  0  0  0  0  0  0
  -21.7614  -23.8341   18.9608 H   0  0  0  0  0  0  0  0  0  0  0  0
  -20.3550  -22.8032   19.0726 H   0  0  0  0  0  0  0  0  0  0  0  0
  -21.7856  -22.4335   20.0052 H   0  0  0  0  0  0  0  0  0  0  0  0
  -16.2342  -33.5187   21.3847 H   0  0  0  0  0  0  0  0  0  0  0  0
  -16.9609  -33.1124   19.8485 H   0  0  0  0  0  0  0  0  0  0  0  0
  -17.7303  -34.2787   20.8977 H   0  0  0  0  0  0  0  0  0  0  0  0
  -16.9924  -32.0787   23.4350 H   0  0  0  0  0  0  0  0  0  0  0  0
  -16.1167  -31.3356   22.0916 H   0  0  0  0  0  0  0  0  0  0  0  0
  -19.2101  -21.7790   20.7179 H   0  0  0  0  0  0  0  0  0  0  0  0
  -18.7042  -21.8889   22.4082 H   0  0  0  0  0  0  0  0  0  0  0  0
  -18.6470  -33.0038   21.2331 H   0  0  0  0  0  0  0  0  0  0  0  0
  -20.4563  -21.1239   23.0824 H   0  0  0  0  0  0  0  0  0  0  0  0
  1 25  1  0
  1 30  2  0
  1 88  1  0
  2  3  1  0
  2 25  1  0
  2 90  1  0
  2 91  1  0
  3  4  1  0
  3 92  1  0
  3 93  1  0
  4  5  1  0
  4 94  1  0
  4 95  1  0
  5  6  1  0
  5 26  1  0
  5 96  1  6
  6 25  1  0
  6 97  1  0
  6 98  1  0
  7  8  2  0
  7 26  1  0
  7 29  1  0
  8  9  1  0
  8 22  1  0
  9 10  1  0
  9 27  2  0
 10 11  2  0
 10 15  1  0
 11 12  1  0
 11 99  1  0
 12 13  2  0
 12100  1  0
 13 14  1  0
 13 31  1  0
 14 15  2  0
 14101  1  0
 15102  1  0
 16 17  2  0
 16 21  1  0
 16 31  1  0
 17 18  1  0
 17103  1  0
 18 19  2  0
 18104  1  0
 19 20  1  0
 19 24  1  0
 20 21  2  0
 20105  1  0
 21 23  1  0
 22 28  1  0
 22 32  2  0
 26 27  1  0
 28106  1  0
 28107  1  0
 29108  1  0
 29109  1  0
 33 34  1  0
 33 66  1  0
 33 70  2  0
 34 36  1  0
 34 59  1  0
 34110  1  6
 35 44  2  0
 35 45  1  0
 35 68  1  0
 36 56  1  0
 36111  1  0
 37 39  1  0
 37 47  1  0
 37 66  1  0
 37112  1  6
 38 43  2  0
 38 46  1  0
 38 47  1  0
 39 64  1  0
 39 67  2  0
 40 52  1  0
 40 53  2  0
 40 58  1  0
 41113  1  0
 41114  1  0
 41115  1  0
 42 43  1  0
 42 66  1  0
 42116  1  0
 42117  1  0
 43 44  1  0
 44118  1  0
 45 46  2  0
 45119  1  0
 46120  1  0
 47121  1  0
 47122  1  0
 48 41  1  0
 48 56  1  0
 48 65  1  0
 48123  1  1
 49 50  1  0
 49 53  1  0
 49 64  1  0
 49124  1  1
 50 51  1  0
 50125  1  0
 50126  1  0
 51 52  1  0
 51127  1  0
 51128  1  0
 52129  1  0
 52130  1  0
 53 54  1  0
 54 55  2  0
 54131  1  0
 55 57  1  0
 55132  1  0
 56 69  2  0
 57 58  2  0
 57133  1  0
 58134  1  0
 59 60  1  0
 59 61  1  0
 59 62  1  0
 60135  1  0
 60136  1  0
 60137  1  0
 61138  1  0
 61139  1  0
 61140  1  0
 62141  1  0
 62142  1  0
 62143  1  0
 63 65  1  0
 63144  1  0
 63145  1  0
 63146  1  0
 64147  1  0
 65148  1  0
 68 87  1  0
 71 74  2  0
 71 78  1  0
 71149  1  0
 72 75  1  0
 72 78  2  0
 72150  1  0
 73 76  2  0
 73 79  1  0
 73151  1  0
 74 81  1  0
 74152  1  0
 75 81  2  0
 75153  1  0
 76 82  1  0
 76154  1  0
 77 80  1  0
 77 82  2  0
 77155  1  0
 78 85  1  0
 79 80  2  0
 79 83  1  0
 80 86  1  0
 81 89  1  0
 82 89  1  0
 83156  1  0
 83157  1  0
 83158  1  0
 84159  1  0
 84160  1  0
 84161  1  0
 85 87  1  0
 85162  1  0
 85163  1  0
 86 88  1  0
 86164  1  0
 86165  1  0
 87 84  1  0
 87166  1  1
 88167  1  0
M  ISO  4   1 100  68 101  87 101  88 100
M  END
$$$$
10
     RDKit          3D

161169  0  0  0  0  0  0  0  0999 V2000
  -30.7652  -14.3608   20.6636 C   0  0  0  0  0  0  0  0  0100  0  0
  -30.4392  -12.2669   19.3775 C   0  0  0  0  0  0  0  0  0101  0  0
  -29.4791  -12.5281   18.1977 C   0  0  0  0  0  0  0  0  0102  0  0
  -27.9985  -12.3963   18.6038 C   0  0  0  0  0  0  0  0  0103  0  0
  -27.6639  -13.2170   19.8820 C   0  0  2  0  0  0  0  0  0104  0  0
  -28.6795  -12.9602   21.0279 C   0  0  0  0  0  0  0  0  0105  0  0
  -25.2633  -13.8245   20.5754 C   0  0  0  0  0  0  0  0  0106  0  0
  -24.1645  -13.0409   20.9408 C   0  0  0  0  0  0  0  0  0107  0  0
  -24.6400  -11.7009   20.8697 C   0  0  0  0  0  0  0  0  0108  0  0
  -23.9005  -10.4085   21.0420 C   0  0  0  0  0  0  0  0  0109  0  0
  -24.3588   -9.4123   21.9123 C   0  0  0  0  0  0  0  0  0110  0  0
  -23.6296   -8.2350   22.0803 C   0  0  0  0  0  0  0  0  0111  0  0
  -22.4385   -8.0419   21.3657 C   0  0  0  0  0  0  0  0  0112  0  0
  -22.0103   -9.0167   20.4678 C   0  0  0  0  0  0  0  0  0113  0  0
  -22.7317  -10.1925   20.3102 C   0  0  0  0  0  0  0  0  0114  0  0
  -21.6857   -6.0709   22.5391 C   0  0  0  0  0  0  0  0  0115  0  0
  -21.4064   -6.5490   23.8264 C   0  0  0  0  0  0  0  0  0116  0  0
  -21.3635   -5.6677   24.9085 C   0  0  0  0  0  0  0  0  0117  0  0
  -21.5973   -4.3067   24.7088 C   0  0  0  0  0  0  0  0  0118  0  0
  -21.8700   -3.8284   23.4282 C   0  0  0  0  0  0  0  0  0119  0  0
  -21.9144   -4.7056   22.3460 C   0  0  0  0  0  0  0  0  0120  0  0
  -22.8194  -13.5263   21.1763 C   0  0  0  0  0  0  0  0  0121  0  0
  -22.1559   -4.2206   21.1063 F   0  0  0  0  0  0  0  0  0122  0  0
  -21.5628   -3.4510   25.7555 F   0  0  0  0  0  0  0  0  0123  0  0
  -30.0261  -13.1803   20.4553 N   0  0  0  0  0  0  0  0  0124  0  0
  -26.2911  -12.9356   20.3443 N   0  0  0  0  0  0  0  0  0125  0  0
  -25.9236  -11.6675   20.5847 N   0  0  0  0  0  0  0  0  0126  0  0
  -22.0708  -12.7905   22.0005 N   0  0  0  0  0  0  0  0  0127  0  0
  -25.4117  -15.1773   20.4097 N   0  0  0  0  0  0  0  0  0128  0  0
  -31.7916  -14.6724   20.0536 O   0  0  0  0  0  0  0  0  0129  0  0
  -21.6670   -6.9022   21.4423 O   0  0  0  0  0  0  0  0  0130  0  0
  -22.3946  -14.5564   20.6568 O   0  0  0  0  0  0  0  0  0131  0  0
  -24.6048  -31.8614   23.2223 C   0  0  0  0  0  0  0  0  0100  0  0
  -25.8822  -32.4841   23.8616 C   0  0  1  0  0  0  0  0  0101  0  0
  -27.2536  -27.5042   20.1156 C   0  0  0  0  0  0  0  0  0102  0  0
  -25.5726  -33.8762   24.2210 N   0  0  0  0  0  0  0  0  0103  0  0
  -23.4066  -30.4859   21.5461 C   0  0  2  0  0  0  0  0  0104  0  0
  -24.8467  -28.9636   20.1247 C   0  0  0  0  0  0  0  0  0105  0  0
  -22.7412  -29.4652   22.5052 C   0  0  0  0  0  0  0  0  0106  0  0
  -18.0167  -28.1302   22.8626 C   0  0  0  0  0  0  0  0  0107  0  0
  -24.1342  -36.7390   23.2568 C   0  0  0  0  0  0  0  0  0108  0  0
  -25.9141  -30.8882   21.3456 C   0  0  0  0  0  0  0  0  0109  0  0
  -25.9930  -29.5029   20.7208 C   0  0  0  0  0  0  0  0  0110  0  0
  -27.1758  -28.7612   20.7331 C   0  0  0  0  0  0  0  0  0111  0  0
  -26.1032  -26.9836   19.5230 C   0  0  0  0  0  0  0  0  0112  0  0
  -24.9097  -27.7011   19.5331 C   0  0  0  0  0  0  0  0  0113  0  0
  -23.5715  -29.7899   20.1582 C   0  0  0  0  0  0  0  0  0114  0  0
  -25.3990  -36.3212   24.0232 C   0  0  1  0  0  0  0  0  0115  0  0
  -20.5793  -28.3813   23.1004 C   0  0  2  0  0  0  0  0  0116  0  0
  -20.6548  -26.9392   22.5411 C   0  0  0  0  0  0  0  0  0117  0  0
  -19.5615  -26.6407   21.5143 C   0  0  0  0  0  0  0  0  0118  0  0
  -18.1797  -26.7818   22.1673 C   0  0  0  0  0  0  0  0  0119  0  0
  -19.1385  -28.8769   23.2988 C   0  0  0  0  0  0  0  0  0120  0  0
  -18.9183  -30.1286   23.8878 C   0  0  0  0  0  0  0  0  0121  0  0
  -17.6396  -30.6493   24.0352 C   0  0  0  0  0  0  0  0  0122  0  0
  -25.9153  -34.9582   23.4993 C   0  0  0  0  0  0  0  0  0123  0  0
  -16.5415  -29.9068   23.6254 C   0  0  0  0  0  0  0  0  0124  0  0
  -16.7331  -28.6521   23.0586 C   0  0  0  0  0  0  0  0  0125  0  0
  -26.4583  -31.6439   25.0683 C   0  0  0  0  0  0  0  0  0126  0  0
  -25.3807  -31.3179   26.1374 C   0  0  0  0  0  0  0  0  0127  0  0
  -27.0530  -30.3024   24.5680 C   0  0  0  0  0  0  0  0  0128  0  0
  -27.6014  -32.4281   25.7651 C   0  0  0  0  0  0  0  0  0129  0  0
  -27.5629  -37.2220   24.8621 C   0  0  0  0  0  0  0  0  0130  0  0
  -21.4133  -29.3375   22.3735 N   0  0  0  0  0  0  0  0  0131  0  0
  -26.4706  -37.3372   23.9061 N   0  0  0  0  0  0  0  0  0132  0  0
  -24.6674  -31.0544   22.1178 N   0  0  0  0  0  0  0  0  0133  0  0
  -23.4259  -28.8150   23.2971 O   0  0  0  0  0  0  0  0  0134  0  0
  -28.3948  -26.7345   20.0089 O   0  0  0  0  0  0  0  0  0135  0  0
  -26.5870  -34.9065   22.4671 O   0  0  0  0  0  0  0  0  0136  0  0
  -23.5365  -32.1254   23.7833 O   0  0  0  0  0  0  0  0  0137  0  0
  -19.4643  -26.0039   22.5215 C   0  0  0  0  0  0  0  0  0  0  0  0
  -19.9413  -27.2693   22.8633 C   0  0  0  0  0  0  0  0  0  0  0  0
  -21.3734  -27.2549   20.9175 C   0  0  0  0  0  0  0  0  0  0  0  0
  -19.9419  -25.3639   21.3778 C   0  0  0  0  0  0  0  0  0  0  0  0
  -20.8958  -27.8948   22.0613 C   0  0  0  0  0  0  0  0  0  0  0  0
  -20.8964  -25.9895   20.5758 C   0  0  0  0  0  0  0  0  0  0  0  0
  -21.9291  -21.5964   24.7128 C   0  0  0  0  0  0  0  0  0  0  0  0
  -19.4082  -23.9962   21.0332 C   0  0  0  0  0  0  0  0  0  0  0  0
  -20.3792  -22.8541   21.3587 C   0  0  0  0  0  0  0  0  0  0  0  0
  -20.7519  -22.7939   22.8456 C   0  0  0  0  0  0  0  0  0  0  0  0
  -23.0020  -21.6596   22.4303 C   0  0  0  0  0  0  0  0  0  1  0  0
  -21.6756  -21.6122   23.1997 C   0  0  1  0  0  0  0  0  0  0  0  0
  -21.3779  -29.1743   22.4072 N   0  0  0  0  0  0  0  0  0  0  0  0
  -21.3937  -25.3557   19.4101 N   0  0  0  0  0  0  0  0  0  0  0  0
  -31.4485  -12.4701   19.0860 H   0  0  0  0  0  0  0  0  0  0  0  0
  -30.3970  -11.2460   19.6950 H   0  0  0  0  0  0  0  0  0  0  0  0
  -29.6870  -11.8204   17.4226 H   0  0  0  0  0  0  0  0  0  0  0  0
  -29.6375  -13.5326   17.8649 H   0  0  0  0  0  0  0  0  0  0  0  0
  -27.7830  -11.3650   18.7904 H   0  0  0  0  0  0  0  0  0  0  0  0
  -27.4028  -12.7801   17.8021 H   0  0  0  0  0  0  0  0  0  0  0  0
  -27.7353  -14.2503   19.6136 H   0  0  0  0  0  0  0  0  0  0  0  0
  -28.5890  -11.9550   21.3832 H   0  0  0  0  0  0  0  0  0  0  0  0
  -28.5005  -13.6134   21.8562 H   0  0  0  0  0  0  0  0  0  0  0  0
  -25.2399   -9.5495   22.4318 H   0  0  0  0  0  0  0  0  0  0  0  0
  -23.9663   -7.5070   22.7297 H   0  0  0  0  0  0  0  0  0  0  0  0
  -21.1515   -8.8641   19.9162 H   0  0  0  0  0  0  0  0  0  0  0  0
  -22.4016  -10.9115   19.6476 H   0  0  0  0  0  0  0  0  0  0  0  0
  -21.2319   -7.5552   23.9750 H   0  0  0  0  0  0  0  0  0  0  0  0
  -21.1589   -6.0228   25.8556 H   0  0  0  0  0  0  0  0  0  0  0  0
  -22.0396   -2.8212   23.2809 H   0  0  0  0  0  0  0  0  0  0  0  0
  -22.4401  -11.9703   22.4008 H   0  0  0  0  0  0  0  0  0  0  0  0
  -21.1493  -13.0679   22.2082 H   0  0  0  0  0  0  0  0  0  0  0  0
  -24.6538  -15.7807   20.5848 H   0  0  0  0  0  0  0  0  0  0  0  0
  -26.2762  -15.5453   20.1156 H   0  0  0  0  0  0  0  0  0  0  0  0
  -26.6778  -32.4663   23.1464 H   0  0  0  0  0  0  0  0  0  0  0  0
  -25.0747  -34.0282   25.0566 H   0  0  0  0  0  0  0  0  0  0  0  0
  -22.7881  -31.3489   21.4131 H   0  0  0  0  0  0  0  0  0  0  0  0
  -23.3854  -35.9823   23.3648 H   0  0  0  0  0  0  0  0  0  0  0  0
  -24.3696  -36.8624   22.2204 H   0  0  0  0  0  0  0  0  0  0  0  0
  -23.7669  -37.6632   23.6516 H   0  0  0  0  0  0  0  0  0  0  0  0
  -25.9445  -31.6237   20.5691 H   0  0  0  0  0  0  0  0  0  0  0  0
  -26.7436  -31.0079   22.0108 H   0  0  0  0  0  0  0  0  0  0  0  0
  -28.0090  -29.1452   21.2057 H   0  0  0  0  0  0  0  0  0  0  0  0
  -26.1369  -26.0560   19.0719 H   0  0  0  0  0  0  0  0  0  0  0  0
  -24.0652  -27.2961   19.0997 H   0  0  0  0  0  0  0  0  0  0  0  0
  -23.6156  -30.5365   19.3930 H   0  0  0  0  0  0  0  0  0  0  0  0
  -22.7355  -29.1425   19.9945 H   0  0  0  0  0  0  0  0  0  0  0  0
  -25.1353  -36.2335   25.0565 H   0  0  0  0  0  0  0  0  0  0  0  0
  -21.0070  -28.3206   24.0793 H   0  0  0  0  0  0  0  0  0  0  0  0
  -20.5555  -26.2518   23.3550 H   0  0  0  0  0  0  0  0  0  0  0  0
  -21.5974  -26.8362   22.0454 H   0  0  0  0  0  0  0  0  0  0  0  0
  -19.6810  -25.6422   21.1488 H   0  0  0  0  0  0  0  0  0  0  0  0
  -19.6406  -27.3343   20.7034 H   0  0  0  0  0  0  0  0  0  0  0  0
  -17.4282  -26.6888   21.4113 H   0  0  0  0  0  0  0  0  0  0  0  0
  -18.0803  -26.0130   22.9049 H   0  0  0  0  0  0  0  0  0  0  0  0
  -19.7265  -30.6774   24.2204 H   0  0  0  0  0  0  0  0  0  0  0  0
  -17.5064  -31.5856   24.4483 H   0  0  0  0  0  0  0  0  0  0  0  0
  -15.5878  -30.2839   23.7407 H   0  0  0  0  0  0  0  0  0  0  0  0
  -15.9120  -28.0941   22.7766 H   0  0  0  0  0  0  0  0  0  0  0  0
  -24.5787  -30.7757   25.6817 H   0  0  0  0  0  0  0  0  0  0  0  0
  -25.0041  -32.2289   26.5536 H   0  0  0  0  0  0  0  0  0  0  0  0
  -25.8166  -30.7245   26.9138 H   0  0  0  0  0  0  0  0  0  0  0  0
  -26.2892  -29.7335   24.0803 H   0  0  0  0  0  0  0  0  0  0  0  0
  -27.4336  -29.7484   25.4006 H   0  0  0  0  0  0  0  0  0  0  0  0
  -27.8466  -30.4994   23.8779 H   0  0  0  0  0  0  0  0  0  0  0  0
  -27.2251  -33.3632   26.1242 H   0  0  0  0  0  0  0  0  0  0  0  0
  -28.3902  -32.6065   25.0645 H   0  0  0  0  0  0  0  0  0  0  0  0
  -27.9772  -31.8555   26.5872 H   0  0  0  0  0  0  0  0  0  0  0  0
  -28.2744  -38.0016   24.6863 H   0  0  0  0  0  0  0  0  0  0  0  0
  -28.0396  -36.2711   24.7461 H   0  0  0  0  0  0  0  0  0  0  0  0
  -27.1773  -37.3087   25.8564 H   0  0  0  0  0  0  0  0  0  0  0  0
  -20.9627  -29.9365   21.7352 H   0  0  0  0  0  0  0  0  0  0  0  0
  -26.0447  -38.2561   24.0273 H   0  0  0  0  0  0  0  0  0  0  0  0
  -18.7580  -25.5411   23.1148 H   0  0  0  0  0  0  0  0  0  0  0  0
  -19.5880  -27.7427   23.7095 H   0  0  0  0  0  0  0  0  0  0  0  0
  -22.0796  -27.7177   20.3241 H   0  0  0  0  0  0  0  0  0  0  0  0
  -20.9935  -21.5633   25.2309 H   0  0  0  0  0  0  0  0  0  0  0  0
  -22.4617  -22.4807   24.9945 H   0  0  0  0  0  0  0  0  0  0  0  0
  -22.5089  -20.7342   24.9683 H   0  0  0  0  0  0  0  0  0  0  0  0
  -19.1965  -23.9708   19.9847 H   0  0  0  0  0  0  0  0  0  0  0  0
  -18.5340  -23.8426   21.6307 H   0  0  0  0  0  0  0  0  0  0  0  0
  -21.2735  -22.9929   20.7878 H   0  0  0  0  0  0  0  0  0  0  0  0
  -19.8888  -21.9354   21.1128 H   0  0  0  0  0  0  0  0  0  0  0  0
  -19.8518  -22.7035   23.4171 H   0  0  0  0  0  0  0  0  0  0  0  0
  -21.2879  -23.6917   23.0726 H   0  0  0  0  0  0  0  0  0  0  0  0
  -22.7227  -21.1972   21.5067 H   0  0  0  0  0  0  0  0  0  0  0  0
  -23.5663  -21.4144   23.3057 H   0  0  0  0  0  0  0  0  0  0  0  0
  -21.1819  -20.7091   22.9073 H   0  0  0  0  0  0  0  0  0  0  0  0
  -21.0407  -29.6257   23.2145 H   0  0  0  0  0  0  0  0  0  0  0  0
  -22.0516  -29.6160   21.8413 H   0  0  0  0  0  0  0  0  0  0  0  0
  -21.1045  -25.6602   18.5197 H   0  0  0  0  0  0  0  0  0  0  0  0
  1 25  1  0
  1 30  2  0
  1 84  1  0
  2  3  1  0
  2 25  1  0
  2 85  1  0
  2 86  1  0
  3  4  1  0
  3 87  1  0
  3 88  1  0
  4  5  1  0
  4 89  1  0
  4 90  1  0
  5  6  1  0
  5 26  1  0
  5 91  1  6
  6 25  1  0
  6 92  1  0
  6 93  1  0
  7  8  2  0
  7 26  1  0
  7 29  1  0
  8  9  1  0
  8 22  1  0
  9 10  1  0
  9 27  2  0
 10 11  2  0
 10 15  1  0
 11 12  1  0
 11 94  1  0
 12 13  2  0
 12 95  1  0
 13 14  1  0
 13 31  1  0
 14 15  2  0
 14 96  1  0
 15 97  1  0
 16 17  2  0
 16 21  1  0
 16 31  1  0
 17 18  1  0
 17 98  1  0
 18 19  2  0
 18 99  1  0
 19 20  1  0
 19 24  1  0
 20 21  2  0
 20100  1  0
 21 23  1  0
 22 28  1  0
 22 32  2  0
 26 27  1  0
 28101  1  0
 28102  1  0
 29103  1  0
 29104  1  0
 33 34  1  0
 33 66  1  0
 33 70  2  0
 34 36  1  0
 34 59  1  0
 34105  1  6
 35 44  2  0
 35 45  1  0
 35 68  1  0
 36 56  1  0
 36106  1  0
 37 39  1  0
 37 47  1  0
 37 66  1  0
 37107  1  6
 38 43  2  0
 38 46  1  0
 38 47  1  0
 39 64  1  0
 39 67  2  0
 40 52  1  0
 40 53  2  0
 40 58  1  0
 41108  1  0
 41109  1  0
 41110  1  0
 42 43  1  0
 42 66  1  0
 42111  1  0
 42112  1  0
 43 44  1  0
 44113  1  0
 45 46  2  0
 45114  1  0
 46115  1  0
 47116  1  0
 47117  1  0
 48 41  1  0
 48 56  1  0
 48 65  1  0
 48118  1  1
 49 50  1  0
 49 53  1  0
 49 64  1  0
 49119  1  1
 50 51  1  0
 50120  1  0
 50121  1  0
 51 52  1  0
 51122  1  0
 51123  1  0
 52124  1  0
 52125  1  0
 53 54  1  0
 54 55  2  0
 54126  1  0
 55 57  1  0
 55127  1  0
 56 69  2  0
 57 58  2  0
 57128  1  0
 58129  1  0
 59 60  1  0
 59 61  1  0
 59 62  1  0
 60130  1  0
 60131  1  0
 60132  1  0
 61133  1  0
 61134  1  0
 61135  1  0
 62136  1  0
 62137  1  0
 62138  1  0
 63 65  1  0
 63139  1  0
 63140  1  0
 63141  1  0
 64142  1  0
 65143  1  0
 68 81  1  0
 71 72  2  0
 71 74  1  0
 71144  1  0
 72 75  1  0
 72145  1  0
 73 75  2  0
 73 76  1  0
 73146  1  0
 74 76  2  0
 74 78  1  0
 75 83  1  0
 76 84  1  0
 77147  1  0
 77148  1  0
 77149  1  0
 78 79  1  0
 78150  1  0
 78151  1  0
 79 80  1  0
 79152  1  0
 79153  1  0
 80 82  1  0
 80154  1  0
 80155  1  0
 81 82  1  0
 81156  1  0
 81157  1  0
 82 77  1  0
 82158  1  6
 83159  1  0
 83160  1  0
 84161  1  0
M  ISO  4   1 100  68 101  81 101  84 100
M  END
$$$$
11
     RDKit          3D

183191  0  0  0  0  0  0  0  0999 V2000
  -30.7652  -14.3608   20.6636 C   0  0  0  0  0  0  0  0  0100  0  0
  -30.4392  -12.2669   19.3775 C   0  0  0  0  0  0  0  0  0101  0  0
  -29.4791  -12.5281   18.1977 C   0  0  0  0  0  0  0  0  0102  0  0
  -27.9985  -12.3963   18.6038 C   0  0  0  0  0  0  0  0  0103  0  0
  -27.6639  -13.2170   19.8820 C   0  0  2  0  0  0  0  0  0104  0  0
  -28.6795  -12.9602   21.0279 C   0  0  0  0  0  0  0  0  0105  0  0
  -25.2633  -13.8245   20.5754 C   0  0  0  0  0  0  0  0  0106  0  0
  -24.1645  -13.0409   20.9408 C   0  0  0  0  0  0  0  0  0107  0  0
  -24.6400  -11.7009   20.8697 C   0  0  0  0  0  0  0  0  0108  0  0
  -23.9005  -10.4085   21.0420 C   0  0  0  0  0  0  0  0  0109  0  0
  -24.3588   -9.4123   21.9123 C   0  0  0  0  0  0  0  0  0110  0  0
  -23.6296   -8.2350   22.0803 C   0  0  0  0  0  0  0  0  0111  0  0
  -22.4385   -8.0419   21.3657 C   0  0  0  0  0  0  0  0  0112  0  0
  -22.0103   -9.0167   20.4678 C   0  0  0  0  0  0  0  0  0113  0  0
  -22.7317  -10.1925   20.3102 C   0  0  0  0  0  0  0  0  0114  0  0
  -21.6857   -6.0709   22.5391 C   0  0  0  0  0  0  0  0  0115  0  0
  -21.4064   -6.5490   23.8264 C   0  0  0  0  0  0  0  0  0116  0  0
  -21.3635   -5.6677   24.9085 C   0  0  0  0  0  0  0  0  0117  0  0
  -21.5973   -4.3067   24.7088 C   0  0  0  0  0  0  0  0  0118  0  0
  -21.8700   -3.8284   23.4282 C   0  0  0  0  0  0  0  0  0119  0  0
  -21.9144   -4.7056   22.3460 C   0  0  0  0  0  0  0  0  0120  0  0
  -22.8194  -13.5263   21.1763 C   0  0  0  0  0  0  0  0  0121  0  0
  -22.1559   -4.2206   21.1063 F   0  0  0  0  0  0  0  0  0122  0  0
  -21.5628   -3.4510   25.7555 F   0  0  0  0  0  0  0  0  0123  0  0
  -30.0261  -13.1803   20.4553 N   0  0  0  0  0  0  0  0  0124  0  0
  -26.2911  -12.9356   20.3443 N   0  0  0  0  0  0  0  0  0125  0  0
  -25.9236  -11.6675   20.5847 N   0  0  0  0  0  0  0  0  0126  0  0
  -22.0708  -12.7905   22.0005 N   0  0  0  0  0  0  0  0  0127  0  0
  -25.4117  -15.1773   20.4097 N   0  0  0  0  0  0  0  0  0128  0  0
  -31.7916  -14.6724   20.0536 O   0  0  0  0  0  0  0  0  0129  0  0
  -21.6670   -6.9022   21.4423 O   0  0  0  0  0  0  0  0  0130  0  0
  -22.3946  -14.5564   20.6568 O   0  0  0  0  0  0  0  0  0131  0  0
  -24.6048  -31.8614   23.2223 C   0  0  0  0  0  0  0  0  0100  0  0
  -25.8822  -32.4841   23.8616 C   0  0  1  0  0  0  0  0  0101  0  0
  -27.2536  -27.5042   20.1156 C   0  0  0  0  0  0  0  0  0102  0  0
  -25.5726  -33.8762   24.2210 N   0  0  0  0  0  0  0  0  0103  0  0
  -23.4066  -30.4859   21.5461 C   0  0  2  0  0  0  0  0  0104  0  0
  -24.8467  -28.9636   20.1247 C   0  0  0  0  0  0  0  0  0105  0  0
  -22.7412  -29.4652   22.5052 C   0  0  0  0  0  0  0  0  0106  0  0
  -18.0167  -28.1302   22.8626 C   0  0  0  0  0  0  0  0  0107  0  0
  -24.1342  -36.7390   23.2568 C   0  0  0  0  0  0  0  0  0108  0  0
  -25.9141  -30.8882   21.3456 C   0  0  0  0  0  0  0  0  0109  0  0
  -25.9930  -29.5029   20.7208 C   0  0  0  0  0  0  0  0  0110  0  0
  -27.1758  -28.7612   20.7331 C   0  0  0  0  0  0  0  0  0111  0  0
  -26.1032  -26.9836   19.5230 C   0  0  0  0  0  0  0  0  0112  0  0
  -24.9097  -27.7011   19.5331 C   0  0  0  0  0  0  0  0  0113  0  0
  -23.5715  -29.7899   20.1582 C   0  0  0  0  0  0  0  0  0114  0  0
  -25.3990  -36.3212   24.0232 C   0  0  1  0  0  0  0  0  0115  0  0
  -20.5793  -28.3813   23.1004 C   0  0  2  0  0  0  0  0  0116  0  0
  -20.6548  -26.9392   22.5411 C   0  0  0  0  0  0  0  0  0117  0  0
  -19.5615  -26.6407   21.5143 C   0  0  0  0  0  0  0  0  0118  0  0
  -18.1797  -26.7818   22.1673 C   0  0  0  0  0  0  0  0  0119  0  0
  -19.1385  -28.8769   23.2988 C   0  0  0  0  0  0  0  0  0120  0  0
  -18.9183  -30.1286   23.8878 C   0  0  0  0  0  0  0  0  0121  0  0
  -17.6396  -30.6493   24.0352 C   0  0  0  0  0  0  0  0  0122  0  0
  -25.9153  -34.9582   23.4993 C   0  0  0  0  0  0  0  0  0123  0  0
  -16.5415  -29.9068   23.6254 C   0  0  0  0  0  0  0  0  0124  0  0
  -16.7331  -28.6521   23.0586 C   0  0  0  0  0  0  0  0  0125  0  0
  -26.4583  -31.6439   25.0683 C   0  0  0  0  0  0  0  0  0126  0  0
  -25.3807  -31.3179   26.1374 C   0  0  0  0  0  0  0  0  0127  0  0
  -27.0530  -30.3024   24.5680 C   0  0  0  0  0  0  0  0  0128  0  0
  -27.6014  -32.4281   25.7651 C   0  0  0  0  0  0  0  0  0129  0  0
  -27.5629  -37.2220   24.8621 C   0  0  0  0  0  0  0  0  0130  0  0
  -21.4133  -29.3375   22.3735 N   0  0  0  0  0  0  0  0  0131  0  0
  -26.4706  -37.3372   23.9061 N   0  0  0  0  0  0  0  0  0132  0  0
  -24.6674  -31.0544   22.1178 N   0  0  0  0  0  0  0  0  0133  0  0
  -23.4259  -28.8150   23.2971 O   0  0  0  0  0  0  0  0  0134  0  0
  -28.3948  -26.7345   20.0089 O   0  0  0  0  0  0  0  0  0135  0  0
  -26.5870  -34.9065   22.4671 O   0  0  0  0  0  0  0  0  0136  0  0
  -23.5365  -32.1254   23.7833 O   0  0  0  0  0  0  0  0  0137  0  0
  -32.8178  -12.2747   23.6815 C   0  0  0  0  0  0  0  0  0  0  0  0
  -33.0147  -11.9647   26.0694 C   0  0  0  0  0  0  0  0  0  0  0  0
  -30.8921  -12.5974   25.1044 C   0  0  0  0  0  0  0  0  0  0  0  0
  -33.5910  -11.9605   24.7991 C   0  0  0  0  0  0  0  0  0  0  0  0
  -31.4683  -12.5932   23.8342 C   0  0  0  0  0  0  0  0  0  0  0  0
  -31.6653  -12.2831   26.2221 C   0  0  0  0  0  0  0  0  0  0  0  0
  -30.5342  -13.3202   30.1730 C   0  0  0  0  0  0  0  0  0  0  0  0
  -35.8895  -14.0338   25.1430 C   0  0  0  0  0  0  0  0  0  0  0  0
  -35.5698  -11.6484   23.1630 C   0  0  0  0  0  0  0  0  0  0  0  0
  -35.2977  -10.1564   25.1235 C   0  0  0  0  0  0  0  0  0  0  0  0
  -30.0365  -10.8817   29.7890 C   0  0  0  0  0  0  0  0  0  0  0  0
  -32.0855  -11.5580   31.0438 C   0  0  0  0  0  0  0  0  0  0  0  0
  -31.9885  -16.8051   31.1913 C   0  0  0  0  0  0  0  0  0  0  0  0
  -30.7066  -15.1923   32.6100 C   0  0  0  0  0  0  0  0  0  0  0  0
  -31.4706  -14.5258   30.2728 C   0  0  0  0  0  0  0  0  0  0  0  0
  -35.9847  -12.5499   25.4860 C   0  0  0  0  0  0  0  0  0  0  0  0
  -31.9515  -11.9571   28.5604 C   0  0  0  0  0  0  0  0  0  0  0  0
  -35.0337  -11.6202   24.6362 C   0  0  0  0  0  0  0  0  0  0  0  0
  -31.1577  -11.9361   29.8796 C   0  0  0  0  0  0  0  0  0  0  0  0
  -30.9641  -15.6644   31.1775 C   0  0  0  0  0  0  0  0  0  1  0  0
  -30.6826  -12.9127   22.6991 N   0  0  0  0  0  0  0  0  0  0  0  0
  -29.3149  -13.4567   30.2983 O   0  0  0  0  0  0  0  0  0  0  0  0
  -31.0995  -12.2876   27.4696 O   0  0  0  0  0  0  0  0  0  0  0  0
  -31.4485  -12.4701   19.0860 H   0  0  0  0  0  0  0  0  0  0  0  0
  -30.3970  -11.2460   19.6950 H   0  0  0  0  0  0  0  0  0  0  0  0
  -29.6870  -11.8204   17.4226 H   0  0  0  0  0  0  0  0  0  0  0  0
  -29.6375  -13.5326   17.8649 H   0  0  0  0  0  0  0  0  0  0  0  0
  -27.7830  -11.3650   18.7904 H   0  0  0  0  0  0  0  0  0  0  0  0
  -27.4028  -12.7801   17.8021 H   0  0  0  0  0  0  0  0  0  0  0  0
  -27.7353  -14.2503   19.6136 H   0  0  0  0  0  0  0  0  0  0  0  0
  -28.5890  -11.9550   21.3832 H   0  0  0  0  0  0  0  0  0  0  0  0
  -28.5005  -13.6134   21.8562 H   0  0  0  0  0  0  0  0  0  0  0  0
  -25.2399   -9.5495   22.4318 H   0  0  0  0  0  0  0  0  0  0  0  0
  -23.9663   -7.5070   22.7297 H   0  0  0  0  0  0  0  0  0  0  0  0
  -21.1515   -8.8641   19.9162 H   0  0  0  0  0  0  0  0  0  0  0  0
  -22.4016  -10.9115   19.6476 H   0  0  0  0  0  0  0  0  0  0  0  0
  -21.2319   -7.5552   23.9750 H   0  0  0  0  0  0  0  0  0  0  0  0
  -21.1589   -6.0228   25.8556 H   0  0  0  0  0  0  0  0  0  0  0  0
  -22.0396   -2.8212   23.2809 H   0  0  0  0  0  0  0  0  0  0  0  0
  -22.4401  -11.9703   22.4008 H   0  0  0  0  0  0  0  0  0  0  0  0
  -21.1493  -13.0679   22.2082 H   0  0  0  0  0  0  0  0  0  0  0  0
  -24.6538  -15.7807   20.5848 H   0  0  0  0  0  0  0  0  0  0  0  0
  -26.2762  -15.5453   20.1156 H   0  0  0  0  0  0  0  0  0  0  0  0
  -26.6778  -32.4663   23.1464 H   0  0  0  0  0  0  0  0  0  0  0  0
  -25.0747  -34.0282   25.0566 H   0  0  0  0  0  0  0  0  0  0  0  0
  -22.7881  -31.3489   21.4131 H   0  0  0  0  0  0  0  0  0  0  0  0
  -23.3854  -35.9823   23.3648 H   0  0  0  0  0  0  0  0  0  0  0  0
  -24.3696  -36.8624   22.2204 H   0  0  0  0  0  0  0  0  0  0  0  0
  -23.7669  -37.6632   23.6516 H   0  0  0  0  0  0  0  0  0  0  0  0
  -25.9445  -31.6237   20.5691 H   0  0  0  0  0  0  0  0  0  0  0  0
  -26.7436  -31.0079   22.0108 H   0  0  0  0  0  0  0  0  0  0  0  0
  -28.0090  -29.1452   21.2057 H   0  0  0  0  0  0  0  0  0  0  0  0
  -26.1369  -26.0560   19.0719 H   0  0  0  0  0  0  0  0  0  0  0  0
  -24.0652  -27.2961   19.0997 H   0  0  0  0  0  0  0  0  0  0  0  0
  -23.6156  -30.5365   19.3930 H   0  0  0  0  0  0  0  0  0  0  0  0
  -22.7355  -29.1425   19.9945 H   0  0  0  0  0  0  0  0  0  0  0  0
  -25.1353  -36.2335   25.0565 H   0  0  0  0  0  0  0  0  0  0  0  0
  -21.0070  -28.3206   24.0793 H   0  0  0  0  0  0  0  0  0  0  0  0
  -20.5555  -26.2518   23.3550 H   0  0  0  0  0  0  0  0  0  0  0  0
  -21.5974  -26.8362   22.0454 H   0  0  0  0  0  0  0  0  0  0  0  0
  -19.6810  -25.6422   21.1488 H   0  0  0  0  0  0  0  0  0  0  0  0
  -19.6406  -27.3343   20.7034 H   0  0  0  0  0  0  0  0  0  0  0  0
  -17.4282  -26.6888   21.4113 H   0  0  0  0  0  0  0  0  0  0  0  0
  -18.0803  -26.0130   22.9049 H   0  0  0  0  0  0  0  0  0  0  0  0
  -19.7265  -30.6774   24.2204 H   0  0  0  0  0  0  0  0  0  0  0  0
  -17.5064  -31.5856   24.4483 H   0  0  0  0  0  0  0  0  0  0  0  0
  -15.5878  -30.2839   23.7407 H   0  0  0  0  0  0  0  0  0  0  0  0
  -15.9120  -28.0941   22.7766 H   0  0  0  0  0  0  0  0  0  0  0  0
  -24.5787  -30.7757   25.6817 H   0  0  0  0  0  0  0  0  0  0  0  0
  -25.0041  -32.2289   26.5536 H   0  0  0  0  0  0  0  0  0  0  0  0
  -25.8166  -30.7245   26.9138 H   0  0  0  0  0  0  0  0  0  0  0  0
  -26.2892  -29.7335   24.0803 H   0  0  0  0  0  0  0  0  0  0  0  0
  -27.4336  -29.7484   25.4006 H   0  0  0  0  0  0  0  0  0  0  0  0
  -27.8466  -30.4994   23.8779 H   0  0  0  0  0  0  0  0  0  0  0  0
  -27.2251  -33.3632   26.1242 H   0  0  0  0  0  0  0  0  0  0  0  0
  -28.3902  -32.6065   25.0645 H   0  0  0  0  0  0  0  0  0  0  0  0
  -27.9772  -31.8555   26.5872 H   0  0  0  0  0  0  0  0  0  0  0  0
  -28.2744  -38.0016   24.6863 H   0  0  0  0  0  0  0  0  0  0  0  0
  -28.0396  -36.2711   24.7461 H   0  0  0  0  0  0  0  0  0  0  0  0
  -27.1773  -37.3087   25.8564 H   0  0  0  0  0  0  0  0  0  0  0  0
  -20.9627  -29.9365   21.7352 H   0  0  0  0  0  0  0  0  0  0  0  0
  -26.0447  -38.2561   24.0273 H   0  0  0  0  0  0  0  0  0  0  0  0
  -33.2441  -12.2715   22.7417 H   0  0  0  0  0  0  0  0  0  0  0  0
  -33.5868  -11.7322   26.8963 H   0  0  0  0  0  0  0  0  0  0  0  0
  -29.8937  -12.8330   25.2173 H   0  0  0  0  0  0  0  0  0  0  0  0
  -36.5637  -14.5871   25.7628 H   0  0  0  0  0  0  0  0  0  0  0  0
  -34.8893  -14.3751   25.3105 H   0  0  0  0  0  0  0  0  0  0  0  0
  -36.1487  -14.1796   24.1152 H   0  0  0  0  0  0  0  0  0  0  0  0
  -34.9525  -11.0285   22.5469 H   0  0  0  0  0  0  0  0  0  0  0  0
  -36.5753  -11.2832   23.1423 H   0  0  0  0  0  0  0  0  0  0  0  0
  -35.5474  -12.6527   22.7945 H   0  0  0  0  0  0  0  0  0  0  0  0
  -34.6744   -9.4804   24.5763 H   0  0  0  0  0  0  0  0  0  0  0  0
  -35.0741  -10.0822   26.1672 H   0  0  0  0  0  0  0  0  0  0  0  0
  -36.3251   -9.9059   24.9601 H   0  0  0  0  0  0  0  0  0  0  0  0
  -29.4852  -10.8676   30.7060 H   0  0  0  0  0  0  0  0  0  0  0  0
  -30.4669   -9.9173   29.6167 H   0  0  0  0  0  0  0  0  0  0  0  0
  -29.3793  -11.1284   28.9815 H   0  0  0  0  0  0  0  0  0  0  0  0
  -31.5263  -11.5457   31.9560 H   0  0  0  0  0  0  0  0  0  0  0  0
  -32.8747  -12.2767   31.1188 H   0  0  0  0  0  0  0  0  0  0  0  0
  -32.5018  -10.5882   30.8676 H   0  0  0  0  0  0  0  0  0  0  0  0
  -32.7012  -16.6350   31.9711 H   0  0  0  0  0  0  0  0  0  0  0  0
  -31.4859  -17.7338   31.3638 H   0  0  0  0  0  0  0  0  0  0  0  0
  -32.4934  -16.8425   30.2486 H   0  0  0  0  0  0  0  0  0  0  0  0
  -31.2159  -14.2663   32.7773 H   0  0  0  0  0  0  0  0  0  0  0  0
  -29.6558  -15.0529   32.7561 H   0  0  0  0  0  0  0  0  0  0  0  0
  -31.0680  -15.9276   33.2982 H   0  0  0  0  0  0  0  0  0  0  0  0
  -31.6110  -14.9205   29.2882 H   0  0  0  0  0  0  0  0  0  0  0  0
  -32.3756  -14.1680   30.7175 H   0  0  0  0  0  0  0  0  0  0  0  0
  -35.7345  -12.4289   26.5193 H   0  0  0  0  0  0  0  0  0  0  0  0
  -36.9863  -12.2487   25.2603 H   0  0  0  0  0  0  0  0  0  0  0  0
  -32.3799  -10.9911   28.3921 H   0  0  0  0  0  0  0  0  0  0  0  0
  -32.7223  -12.6957   28.6328 H   0  0  0  0  0  0  0  0  0  0  0  0
  -29.8394  -12.4048   22.7182 H   0  0  0  0  0  0  0  0  0  0  0  0
  1 25  1  0
  1 30  2  0
  1 91  1  0
  2  3  1  0
  2 25  1  0
  2 94  1  0
  2 95  1  0
  3  4  1  0
  3 96  1  0
  3 97  1  0
  4  5  1  0
  4 98  1  0
  4 99  1  0
  5  6  1  0
  5 26  1  0
  5100  1  6
  6 25  1  0
  6101  1  0
  6102  1  0
  7  8  2  0
  7 26  1  0
  7 29  1  0
  8  9  1  0
  8 22  1  0
  9 10  1  0
  9 27  2  0
 10 11  2  0
 10 15  1  0
 11 12  1  0
 11103  1  0
 12 13  2  0
 12104  1  0
 13 14  1  0
 13 31  1  0
 14 15  2  0
 14105  1  0
 15106  1  0
 16 17  2  0
 16 21  1  0
 16 31  1  0
 17 18  1  0
 17107  1  0
 18 19  2  0
 18108  1  0
 19 20  1  0
 19 24  1  0
 20 21  2  0
 20109  1  0
 21 23  1  0
 22 28  1  0
 22 32  2  0
 26 27  1  0
 28110  1  0
 28111  1  0
 29112  1  0
 29113  1  0
 33 34  1  0
 33 66  1  0
 33 70  2  0
 34 36  1  0
 34 59  1  0
 34114  1  6
 35 44  2  0
 35 45  1  0
 35 68  1  0
 36 56  1  0
 36115  1  0
 37 39  1  0
 37 47  1  0
 37 66  1  0
 37116  1  6
 38 43  2  0
 38 46  1  0
 38 47  1  0
 39 64  1  0
 39 67  2  0
 40 52  1  0
 40 53  2  0
 40 58  1  0
 41117  1  0
 41118  1  0
 41119  1  0
 42 43  1  0
 42 66  1  0
 42120  1  0
 42121  1  0
 43 44  1  0
 44122  1  0
 45 46  2  0
 45123  1  0
 46124  1  0
 47125  1  0
 47126  1  0
 48 41  1  0
 48 56  1  0
 48 65  1  0
 48127  1  1
 49 50  1  0
 49 53  1  0
 49 64  1  0
 49128  1  1
 50 51  1  0
 50129  1  0
 50130  1  0
 51 52  1  0
 51131  1  0
 51132  1  0
 52133  1  0
 52134  1  0
 53 54  1  0
 54 55  2  0
 54135  1  0
 55 57  1  0
 55136  1  0
 56 69  2  0
 57 58  2  0
 57137  1  0
 58138  1  0
 59 60  1  0
 59 61  1  0
 59 62  1  0
 60139  1  0
 60140  1  0
 60141  1  0
 61142  1  0
 61143  1  0
 61144  1  0
 62145  1  0
 62146  1  0
 62147  1  0
 63 65  1  0
 63148  1  0
 63149  1  0
 63150  1  0
 64151  1  0
 65152  1  0
 68 90  1  0
 71 74  2  0
 71 75  1  0
 71153  1  0
 72 74  1  0
 72 76  2  0
 72154  1  0
 73 75  2  0
 73 76  1  0
 73155  1  0
 74 88  1  0
 75 91  1  0
 76 93  1  0
 77 85  1  0
 77 89  1  0
 77 92  2  0
 78 86  1  0
 78156  1  0
 78157  1  0
 78158  1  0
 79159  1  0
 79160  1  0
 79161  1  0
 80 88  1  0
 80162  1  0
 80163  1  0
 80164  1  0
 81165  1  0
 81166  1  0
 81167  1  0
 82 89  1  0
 82168  1  0
 82169  1  0
 82170  1  0
 83171  1  0
 83172  1  0
 83173  1  0
 84 90  1  0
 84174  1  0
 84175  1  0
 84176  1  0
 85 90  1  0
 85177  1  0
 85178  1  0
 86 88  1  0
 86179  1  0
 86180  1  0
 87 89  1  0
 87 93  1  0
 87181  1  0
 87182  1  0
 88 79  1  0
 89 81  1  0
 90 83  1  0
 91183  1  0
M  ISO  4   1 100  68 101  90 101  91 100
M  END
$$$$
12
     RDKit          3D

176184  0  0  0  0  0  0  0  0999 V2000
  -30.7652  -14.3608   20.6636 C   0  0  0  0  0  0  0  0  0100  0  0
  -30.4392  -12.2669   19.3775 C   0  0  0  0  0  0  0  0  0101  0  0
  -29.4791  -12.5281   18.1977 C   0  0  0  0  0  0  0  0  0102  0  0
  -27.9985  -12.3963   18.6038 C   0  0  0  0  0  0  0  0  0103  0  0
  -27.6639  -13.2170   19.8820 C   0  0  2  0  0  0  0  0  0104  0  0
  -28.6795  -12.9602   21.0279 C   0  0  0  0  0  0  0  0  0105  0  0
  -25.2633  -13.8245   20.5754 C   0  0  0  0  0  0  0  0  0106  0  0
  -24.1645  -13.0409   20.9408 C   0  0  0  0  0  0  0  0  0107  0  0
  -24.6400  -11.7009   20.8697 C   0  0  0  0  0  0  0  0  0108  0  0
  -23.9005  -10.4085   21.0420 C   0  0  0  0  0  0  0  0  0109  0  0
  -24.3588   -9.4123   21.9123 C   0  0  0  0  0  0  0  0  0110  0  0
  -23.6296   -8.2350   22.0803 C   0  0  0  0  0  0  0  0  0111  0  0
  -22.4385   -8.0419   21.3657 C   0  0  0  0  0  0  0  0  0112  0  0
  -22.0103   -9.0167   20.4678 C   0  0  0  0  0  0  0  0  0113  0  0
  -22.7317  -10.1925   20.3102 C   0  0  0  0  0  0  0  0  0114  0  0
  -21.6857   -6.0709   22.5391 C   0  0  0  0  0  0  0  0  0115  0  0
  -21.4064   -6.5490   23.8264 C   0  0  0  0  0  0  0  0  0116  0  0
  -21.3635   -5.6677   24.9085 C   0  0  0  0  0  0  0  0  0117  0  0
  -21.5973   -4.3067   24.7088 C   0  0  0  0  0  0  0  0  0118  0  0
  -21.8700   -3.8284   23.4282 C   0  0  0  0  0  0  0  0  0119  0  0
  -21.9144   -4.7056   22.3460 C   0  0  0  0  0  0  0  0  0120  0  0
  -22.8194  -13.5263   21.1763 C   0  0  0  0  0  0  0  0  0121  0  0
  -22.1559   -4.2206   21.1063 F   0  0  0  0  0  0  0  0  0122  0  0
  -21.5628   -3.4510   25.7555 F   0  0  0  0  0  0  0  0  0123  0  0
  -30.0261  -13.1803   20.4553 N   0  0  0  0  0  0  0  0  0124  0  0
  -26.2911  -12.9356   20.3443 N   0  0  0  0  0  0  0  0  0125  0  0
  -25.9236  -11.6675   20.5847 N   0  0  0  0  0  0  0  0  0126  0  0
  -22.0708  -12.7905   22.0005 N   0  0  0  0  0  0  0  0  0127  0  0
  -25.4117  -15.1773   20.4097 N   0  0  0  0  0  0  0  0  0128  0  0
  -31.7916  -14.6724   20.0536 O   0  0  0  0  0  0  0  0  0129  0  0
  -21.6670   -6.9022   21.4423 O   0  0  0  0  0  0  0  0  0130  0  0
  -22.3946  -14.5564   20.6568 O   0  0  0  0  0  0  0  0  0131  0  0
  -24.6048  -31.8614   23.2223 C   0  0  0  0  0  0  0  0  0100  0  0
  -25.8822  -32.4841   23.8616 C   0  0  1  0  0  0  0  0  0101  0  0
  -27.2536  -27.5042   20.1156 C   0  0  0  0  0  0  0  0  0102  0  0
  -25.5726  -33.8762   24.2210 N   0  0  0  0  0  0  0  0  0103  0  0
  -23.4066  -30.4859   21.5461 C   0  0  2  0  0  0  0  0  0104  0  0
  -24.8467  -28.9636   20.1247 C   0  0  0  0  0  0  0  0  0105  0  0
  -22.7412  -29.4652   22.5052 C   0  0  0  0  0  0  0  0  0106  0  0
  -18.0167  -28.1302   22.8626 C   0  0  0  0  0  0  0  0  0107  0  0
  -24.1342  -36.7390   23.2568 C   0  0  0  0  0  0  0  0  0108  0  0
  -25.9141  -30.8882   21.3456 C   0  0  0  0  0  0  0  0  0109  0  0
  -25.9930  -29.5029   20.7208 C   0  0  0  0  0  0  0  0  0110  0  0
  -27.1758  -28.7612   20.7331 C   0  0  0  0  0  0  0  0  0111  0  0
  -26.1032  -26.9836   19.5230 C   0  0  0  0  0  0  0  0  0112  0  0
  -24.9097  -27.7011   19.5331 C   0  0  0  0  0  0  0  0  0113  0  0
  -23.5715  -29.7899   20.1582 C   0  0  0  0  0  0  0  0  0114  0  0
  -25.3990  -36.3212   24.0232 C   0  0  1  0  0  0  0  0  0115  0  0
  -20.5793  -28.3813   23.1004 C   0  0  2  0  0  0  0  0  0116  0  0
  -20.6548  -26.9392   22.5411 C   0  0  0  0  0  0  0  0  0117  0  0
  -19.5615  -26.6407   21.5143 C   0  0  0  0  0  0  0  0  0118  0  0
  -18.1797  -26.7818   22.1673 C   0  0  0  0  0  0  0  0  0119  0  0
  -19.1385  -28.8769   23.2988 C   0  0  0  0  0  0  0  0  0120  0  0
  -18.9183  -30.1286   23.8878 C   0  0  0  0  0  0  0  0  0121  0  0
  -17.6396  -30.6493   24.0352 C   0  0  0  0  0  0  0  0  0122  0  0
  -25.9153  -34.9582   23.4993 C   0  0  0  0  0  0  0  0  0123  0  0
  -16.5415  -29.9068   23.6254 C   0  0  0  0  0  0  0  0  0124  0  0
  -16.7331  -28.6521   23.0586 C   0  0  0  0  0  0  0  0  0125  0  0
  -26.4583  -31.6439   25.0683 C   0  0  0  0  0  0  0  0  0126  0  0
  -25.3807  -31.3179   26.1374 C   0  0  0  0  0  0  0  0  0127  0  0
  -27.0530  -30.3024   24.5680 C   0  0  0  0  0  0  0  0  0128  0  0
  -27.6014  -32.4281   25.7651 C   0  0  0  0  0  0  0  0  0129  0  0
  -27.5629  -37.2220   24.8621 C   0  0  0  0  0  0  0  0  0130  0  0
  -21.4133  -29.3375   22.3735 N   0  0  0  0  0  0  0  0  0131  0  0
  -26.4706  -37.3372   23.9061 N   0  0  0  0  0  0  0  0  0132  0  0
  -24.6674  -31.0544   22.1178 N   0  0  0  0  0  0  0  0  0133  0  0
  -23.4259  -28.8150   23.2971 O   0  0  0  0  0  0  0  0  0134  0  0
  -28.3948  -26.7345   20.0089 O   0  0  0  0  0  0  0  0  0135  0  0
  -26.5870  -34.9065   22.4671 O   0  0  0  0  0  0  0  0  0136  0  0
  -23.5365  -32.1254   23.7833 O   0  0  0  0  0  0  0  0  0137  0  0
  -31.4334  -19.7747   18.7543 C   0  0  0  0  0  0  0  0  0  0  0  0
  -31.8786  -17.5535   19.5937 C   0  0  0  0  0  0  0  0  0  0  0  0
  -29.6297  -18.1825   18.9741 C   0  0  0  0  0  0  0  0  0  0  0  0
  -32.3314  -18.8247   19.2406 C   0  0  0  0  0  0  0  0  0  0  0  0
  -30.0825  -19.4537   18.6211 C   0  0  0  0  0  0  0  0  0  0  0  0
  -30.5277  -17.2324   19.4605 C   0  0  0  0  0  0  0  0  0  0  0  0
  -29.1043  -21.7442   19.0375 C   0  0  0  0  0  0  0  0  0  0  0  0
  -33.7757  -19.1681   19.3832 C   0  0  0  0  0  0  0  0  0  0  0  0
  -29.6506  -19.8602   15.6116 C   0  0  0  0  0  0  0  0  0  0  0  0
  -26.5857  -21.0058   17.4896 C   0  0  0  0  0  0  0  0  0  0  0  0
  -30.8617  -22.4385   21.5539 C   0  0  0  0  0  0  0  0  0  0  0  0
  -28.8454  -22.0214   22.9468 C   0  0  0  0  0  0  0  0  0  0  0  0
  -28.7169  -21.5228   20.5072 C   0  0  0  0  0  0  0  0  0  0  0  0
  -29.5629  -20.9660   16.6603 C   0  0  0  0  0  0  0  0  0  0  0  0
  -27.6086  -20.0009   18.0163 C   0  0  0  0  0  0  0  0  0  0  0  0
  -28.8672  -23.9543   21.3276 C   0  0  0  0  0  0  0  0  0  1  0  0
  -29.0871  -20.5071   18.0817 C   0  0  0  0  0  0  0  0  0  0  0  0
  -29.3224  -22.4957   21.5536 C   0  0  0  0  0  0  0  0  0  0  0  0
  -30.0677  -15.9410   19.8191 N   0  0  0  0  0  0  0  0  0  0  0  0
  -29.4372  -22.8565   18.6245 O   0  0  0  0  0  0  0  0  0  0  0  0
  -31.4485  -12.4701   19.0860 H   0  0  0  0  0  0  0  0  0  0  0  0
  -30.3970  -11.2460   19.6950 H   0  0  0  0  0  0  0  0  0  0  0  0
  -29.6870  -11.8204   17.4226 H   0  0  0  0  0  0  0  0  0  0  0  0
  -29.6375  -13.5326   17.8649 H   0  0  0  0  0  0  0  0  0  0  0  0
  -27.7830  -11.3650   18.7904 H   0  0  0  0  0  0  0  0  0  0  0  0
  -27.4028  -12.7801   17.8021 H   0  0  0  0  0  0  0  0  0  0  0  0
  -27.7353  -14.2503   19.6136 H   0  0  0  0  0  0  0  0  0  0  0  0
  -28.5890  -11.9550   21.3832 H   0  0  0  0  0  0  0  0  0  0  0  0
  -28.5005  -13.6134   21.8562 H   0  0  0  0  0  0  0  0  0  0  0  0
  -25.2399   -9.5495   22.4318 H   0  0  0  0  0  0  0  0  0  0  0  0
  -23.9663   -7.5070   22.7297 H   0  0  0  0  0  0  0  0  0  0  0  0
  -21.1515   -8.8641   19.9162 H   0  0  0  0  0  0  0  0  0  0  0  0
  -22.4016  -10.9115   19.6476 H   0  0  0  0  0  0  0  0  0  0  0  0
  -21.2319   -7.5552   23.9750 H   0  0  0  0  0  0  0  0  0  0  0  0
  -21.1589   -6.0228   25.8556 H   0  0  0  0  0  0  0  0  0  0  0  0
  -22.0396   -2.8212   23.2809 H   0  0  0  0  0  0  0  0  0  0  0  0
  -22.4401  -11.9703   22.4008 H   0  0  0  0  0  0  0  0  0  0  0  0
  -21.1493  -13.0679   22.2082 H   0  0  0  0  0  0  0  0  0  0  0  0
  -24.6538  -15.7807   20.5848 H   0  0  0  0  0  0  0  0  0  0  0  0
  -26.2762  -15.5453   20.1156 H   0  0  0  0  0  0  0  0  0  0  0  0
  -26.6778  -32.4663   23.1464 H   0  0  0  0  0  0  0  0  0  0  0  0
  -25.0747  -34.0282   25.0566 H   0  0  0  0  0  0  0  0  0  0  0  0
  -22.7881  -31.3489   21.4131 H   0  0  0  0  0  0  0  0  0  0  0  0
  -23.3854  -35.9823   23.3648 H   0  0  0  0  0  0  0  0  0  0  0  0
  -24.3696  -36.8624   22.2204 H   0  0  0  0  0  0  0  0  0  0  0  0
  -23.7669  -37.6632   23.6516 H   0  0  0  0  0  0  0  0  0  0  0  0
  -25.9445  -31.6237   20.5691 H   0  0  0  0  0  0  0  0  0  0  0  0
  -26.7436  -31.0079   22.0108 H   0  0  0  0  0  0  0  0  0  0  0  0
  -28.0090  -29.1452   21.2057 H   0  0  0  0  0  0  0  0  0  0  0  0
  -26.1369  -26.0560   19.0719 H   0  0  0  0  0  0  0  0  0  0  0  0
  -24.0652  -27.2961   19.0997 H   0  0  0  0  0  0  0  0  0  0  0  0
  -23.6156  -30.5365   19.3930 H   0  0  0  0  0  0  0  0  0  0  0  0
  -22.7355  -29.1425   19.9945 H   0  0  0  0  0  0  0  0  0  0  0  0
  -25.1353  -36.2335   25.0565 H   0  0  0  0  0  0  0  0  0  0  0  0
  -21.0070  -28.3206   24.0793 H   0  0  0  0  0  0  0  0  0  0  0  0
  -20.5555  -26.2518   23.3550 H   0  0  0  0  0  0  0  0  0  0  0  0
  -21.5974  -26.8362   22.0454 H   0  0  0  0  0  0  0  0  0  0  0  0
  -19.6810  -25.6422   21.1488 H   0  0  0  0  0  0  0  0  0  0  0  0
  -19.6406  -27.3343   20.7034 H   0  0  0  0  0  0  0  0  0  0  0  0
  -17.4282  -26.6888   21.4113 H   0  0  0  0  0  0  0  0  0  0  0  0
  -18.0803  -26.0130   22.9049 H   0  0  0  0  0  0  0  0  0  0  0  0
  -19.7265  -30.6774   24.2204 H   0  0  0  0  0  0  0  0  0  0  0  0
  -17.5064  -31.5856   24.4483 H   0  0  0  0  0  0  0  0  0  0  0  0
  -15.5878  -30.2839   23.7407 H   0  0  0  0  0  0  0  0  0  0  0  0
  -15.9120  -28.0941   22.7766 H   0  0  0  0  0  0  0  0  0  0  0  0
  -24.5787  -30.7757   25.6817 H   0  0  0  0  0  0  0  0  0  0  0  0
  -25.0041  -32.2289   26.5536 H   0  0  0  0  0  0  0  0  0  0  0  0
  -25.8166  -30.7245   26.9138 H   0  0  0  0  0  0  0  0  0  0  0  0
  -26.2892  -29.7335   24.0803 H   0  0  0  0  0  0  0  0  0  0  0  0
  -27.4336  -29.7484   25.4006 H   0  0  0  0  0  0  0  0  0  0  0  0
  -27.8466  -30.4994   23.8779 H   0  0  0  0  0  0  0  0  0  0  0  0
  -27.2251  -33.3632   26.1242 H   0  0  0  0  0  0  0  0  0  0  0  0
  -28.3902  -32.6065   25.0645 H   0  0  0  0  0  0  0  0  0  0  0  0
  -27.9772  -31.8555   26.5872 H   0  0  0  0  0  0  0  0  0  0  0  0
  -28.2744  -38.0016   24.6863 H   0  0  0  0  0  0  0  0  0  0  0  0
  -28.0396  -36.2711   24.7461 H   0  0  0  0  0  0  0  0  0  0  0  0
  -27.1773  -37.3087   25.8564 H   0  0  0  0  0  0  0  0  0  0  0  0
  -20.9627  -29.9365   21.7352 H   0  0  0  0  0  0  0  0  0  0  0  0
  -26.0447  -38.2561   24.0273 H   0  0  0  0  0  0  0  0  0  0  0  0
  -31.7684  -20.7152   18.4930 H   0  0  0  0  0  0  0  0  0  0  0  0
  -32.5430  -16.8506   19.9535 H   0  0  0  0  0  0  0  0  0  0  0  0
  -28.6303  -17.9449   18.8754 H   0  0  0  0  0  0  0  0  0  0  0  0
  -33.9352  -20.1777   19.0667 H   0  0  0  0  0  0  0  0  0  0  0  0
  -34.3608  -18.5079   18.7777 H   0  0  0  0  0  0  0  0  0  0  0  0
  -34.0674  -19.0651   20.4075 H   0  0  0  0  0  0  0  0  0  0  0  0
  -29.9825  -20.2750   14.6828 H   0  0  0  0  0  0  0  0  0  0  0  0
  -28.6859  -19.4165   15.4796 H   0  0  0  0  0  0  0  0  0  0  0  0
  -30.3449  -19.1140   15.9373 H   0  0  0  0  0  0  0  0  0  0  0  0
  -25.6140  -20.5578   17.4876 H   0  0  0  0  0  0  0  0  0  0  0  0
  -26.8482  -21.2928   16.4928 H   0  0  0  0  0  0  0  0  0  0  0  0
  -26.5784  -21.8707   18.1195 H   0  0  0  0  0  0  0  0  0  0  0  0
  -31.1811  -21.4293   21.7102 H   0  0  0  0  0  0  0  0  0  0  0  0
  -31.2415  -23.0585   22.3389 H   0  0  0  0  0  0  0  0  0  0  0  0
  -31.2318  -22.7880   20.6127 H   0  0  0  0  0  0  0  0  0  0  0  0
  -29.1593  -21.0110   23.1064 H   0  0  0  0  0  0  0  0  0  0  0  0
  -27.7779  -22.0752   22.9957 H   0  0  0  0  0  0  0  0  0  0  0  0
  -29.2691  -22.6500   23.7019 H   0  0  0  0  0  0  0  0  0  0  0  0
  -29.0208  -20.5323   20.7747 H   0  0  0  0  0  0  0  0  0  0  0  0
  -27.6621  -21.6988   20.5443 H   0  0  0  0  0  0  0  0  0  0  0  0
  -28.8756  -21.7049   16.3045 H   0  0  0  0  0  0  0  0  0  0  0  0
  -30.5601  -21.3326   16.7869 H   0  0  0  0  0  0  0  0  0  0  0  0
  -27.5834  -19.1418   17.3789 H   0  0  0  0  0  0  0  0  0  0  0  0
  -27.3247  -19.7998   19.0282 H   0  0  0  0  0  0  0  0  0  0  0  0
  -29.3416  -24.3417   22.2049 H   0  0  0  0  0  0  0  0  0  0  0  0
  -28.1353  -23.5664   20.6503 H   0  0  0  0  0  0  0  0  0  0  0  0
  -29.1248  -15.8183   19.5638 H   0  0  0  0  0  0  0  0  0  0  0  0
  1 25  1  0
  1 30  2  0
  1 89  1  0
  2  3  1  0
  2 25  1  0
  2 91  1  0
  2 92  1  0
  3  4  1  0
  3 93  1  0
  3 94  1  0
  4  5  1  0
  4 95  1  0
  4 96  1  0
  5  6  1  0
  5 26  1  0
  5 97  1  6
  6 25  1  0
  6 98  1  0
  6 99  1  0
  7  8  2  0
  7 26  1  0
  7 29  1  0
  8  9  1  0
  8 22  1  0
  9 10  1  0
  9 27  2  0
 10 11  2  0
 10 15  1  0
 11 12  1  0
 11100  1  0
 12 13  2  0
 12101  1  0
 13 14  1  0
 13 31  1  0
 14 15  2  0
 14102  1  0
 15103  1  0
 16 17  2  0
 16 21  1  0
 16 31  1  0
 17 18  1  0
 17104  1  0
 18 19  2  0
 18105  1  0
 19 20  1  0
 19 24  1  0
 20 21  2  0
 20106  1  0
 21 23  1  0
 22 28  1  0
 22 32  2  0
 26 27  1  0
 28107  1  0
 28108  1  0
 29109  1  0
 29110  1  0
 33 34  1  0
 33 66  1  0
 33 70  2  0
 34 36  1  0
 34 59  1  0
 34111  1  6
 35 44  2  0
 35 45  1  0
 35 68  1  0
 36 56  1  0
 36112  1  0
 37 39  1  0
 37 47  1  0
 37 66  1  0
 37113  1  6
 38 43  2  0
 38 46  1  0
 38 47  1  0
 39 64  1  0
 39 67  2  0
 40 52  1  0
 40 53  2  0
 40 58  1  0
 41114  1  0
 41115  1  0
 41116  1  0
 42 43  1  0
 42 66  1  0
 42117  1  0
 42118  1  0
 43 44  1  0
 44119  1  0
 45 46  2  0
 45120  1  0
 46121  1  0
 47122  1  0
 47123  1  0
 48 41  1  0
 48 56  1  0
 48 65  1  0
 48124  1  1
 49 50  1  0
 49 53  1  0
 49 64  1  0
 49125  1  1
 50 51  1  0
 50126  1  0
 50127  1  0
 51 52  1  0
 51128  1  0
 51129  1  0
 52130  1  0
 52131  1  0
 53 54  1  0
 54 55  2  0
 54132  1  0
 55 57  1  0
 55133  1  0
 56 69  2  0
 57 58  2  0
 57134  1  0
 58135  1  0
 59 60  1  0
 59 61  1  0
 59 62  1  0
 60136  1  0
 60137  1  0
 60138  1  0
 61139  1  0
 61140  1  0
 61141  1  0
 62142  1  0
 62143  1  0
 62144  1  0
 63 65  1  0
 63145  1  0
 63146  1  0
 63147  1  0
 64148  1  0
 65149  1  0
 68 86  1  0
 71 74  2  0
 71 75  1  0
 71150  1  0
 72 74  1  0
 72 76  2  0
 72151  1  0
 73 75  2  0
 73 76  1  0
 73152  1  0
 74 78  1  0
 75 87  1  0
 76 89  1  0
 77 83  1  0
 77 87  1  0
 77 90  2  0
 78153  1  0
 78154  1  0
 78155  1  0
 79 84  1  0
 79156  1  0
 79157  1  0
 79158  1  0
 80 85  1  0
 80159  1  0
 80160  1  0
 80161  1  0
 81162  1  0
 81163  1  0
 81164  1  0
 82 88  1  0
 82165  1  0
 82166  1  0
 82167  1  0
 83 88  1  0
 83168  1  0
 83169  1  0
 84170  1  0
 84171  1  0
 85 87  1  0
 85172  1  0
 85173  1  0
 86 88  1  0
 86174  1  0
 86175  1  0
 87 84  1  0
 88 81  1  0
 89176  1  0
M  ISO  4   1 100  68 101  86 101  89 100
M  END
$$$$
13
     RDKit          3D

159167  0  0  0  0  0  0  0  0999 V2000
  -30.7652  -14.3608   20.6636 C   0  0  0  0  0  0  0  0  0100  0  0
  -30.4392  -12.2669   19.3775 C   0  0  0  0  0  0  0  0  0101  0  0
  -29.4791  -12.5281   18.1977 C   0  0  0  0  0  0  0  0  0102  0  0
  -27.9985  -12.3963   18.6038 C   0  0  0  0  0  0  0  0  0103  0  0
  -27.6639  -13.2170   19.8820 C   0  0  2  0  0  0  0  0  0104  0  0
  -28.6795  -12.9602   21.0279 C   0  0  0  0  0  0  0  0  0105  0  0
  -25.2633  -13.8245   20.5754 C   0  0  0  0  0  0  0  0  0106  0  0
  -24.1645  -13.0409   20.9408 C   0  0  0  0  0  0  0  0  0107  0  0
  -24.6400  -11.7009   20.8697 C   0  0  0  0  0  0  0  0  0108  0  0
  -23.9005  -10.4085   21.0420 C   0  0  0  0  0  0  0  0  0109  0  0
  -24.3588   -9.4123   21.9123 C   0  0  0  0  0  0  0  0  0110  0  0
  -23.6296   -8.2350   22.0803 C   0  0  0  0  0  0  0  0  0111  0  0
  -22.4385   -8.0419   21.3657 C   0  0  0  0  0  0  0  0  0112  0  0
  -22.0103   -9.0167   20.4678 C   0  0  0  0  0  0  0  0  0113  0  0
  -22.7317  -10.1925   20.3102 C   0  0  0  0  0  0  0  0  0114  0  0
  -21.6857   -6.0709   22.5391 C   0  0  0  0  0  0  0  0  0115  0  0
  -21.4064   -6.5490   23.8264 C   0  0  0  0  0  0  0  0  0116  0  0
  -21.3635   -5.6677   24.9085 C   0  0  0  0  0  0  0  0  0117  0  0
  -21.5973   -4.3067   24.7088 C   0  0  0  0  0  0  0  0  0118  0  0
  -21.8700   -3.8284   23.4282 C   0  0  0  0  0  0  0  0  0119  0  0
  -21.9144   -4.7056   22.3460 C   0  0  0  0  0  0  0  0  0120  0  0
  -22.8194  -13.5263   21.1763 C   0  0  0  0  0  0  0  0  0121  0  0
  -22.1559   -4.2206   21.1063 F   0  0  0  0  0  0  0  0  0122  0  0
  -21.5628   -3.4510   25.7555 F   0  0  0  0  0  0  0  0  0123  0  0
  -30.0261  -13.1803   20.4553 N   0  0  0  0  0  0  0  0  0124  0  0
  -26.2911  -12.9356   20.3443 N   0  0  0  0  0  0  0  0  0125  0  0
  -25.9236  -11.6675   20.5847 N   0  0  0  0  0  0  0  0  0126  0  0
  -22.0708  -12.7905   22.0005 N   0  0  0  0  0  0  0  0  0127  0  0
  -25.4117  -15.1773   20.4097 N   0  0  0  0  0  0  0  0  0128  0  0
  -31.7916  -14.6724   20.0536 O   0  0  0  0  0  0  0  0  0129  0  0
  -21.6670   -6.9022   21.4423 O   0  0  0  0  0  0  0  0  0130  0  0
  -22.3946  -14.5564   20.6568 O   0  0  0  0  0  0  0  0  0131  0  0
  -24.6048  -31.8614   23.2223 C   0  0  0  0  0  0  0  0  0100  0  0
  -25.8822  -32.4841   23.8616 C   0  0  1  0  0  0  0  0  0101  0  0
  -27.2536  -27.5042   20.1156 C   0  0  0  0  0  0  0  0  0102  0  0
  -25.5726  -33.8762   24.2210 N   0  0  0  0  0  0  0  0  0103  0  0
  -23.4066  -30.4859   21.5461 C   0  0  2  0  0  0  0  0  0104  0  0
  -24.8467  -28.9636   20.1247 C   0  0  0  0  0  0  0  0  0105  0  0
  -22.7412  -29.4652   22.5052 C   0  0  0  0  0  0  0  0  0106  0  0
  -18.0167  -28.1302   22.8626 C   0  0  0  0  0  0  0  0  0107  0  0
  -24.1342  -36.7390   23.2568 C   0  0  0  0  0  0  0  0  0108  0  0
  -25.9141  -30.8882   21.3456 C   0  0  0  0  0  0  0  0  0109  0  0
  -25.9930  -29.5029   20.7208 C   0  0  0  0  0  0  0  0  0110  0  0
  -27.1758  -28.7612   20.7331 C   0  0  0  0  0  0  0  0  0111  0  0
  -26.1032  -26.9836   19.5230 C   0  0  0  0  0  0  0  0  0112  0  0
  -24.9097  -27.7011   19.5331 C   0  0  0  0  0  0  0  0  0113  0  0
  -23.5715  -29.7899   20.1582 C   0  0  0  0  0  0  0  0  0114  0  0
  -25.3990  -36.3212   24.0232 C   0  0  1  0  0  0  0  0  0115  0  0
  -20.5793  -28.3813   23.1004 C   0  0  2  0  0  0  0  0  0116  0  0
  -20.6548  -26.9392   22.5411 C   0  0  0  0  0  0  0  0  0117  0  0
  -19.5615  -26.6407   21.5143 C   0  0  0  0  0  0  0  0  0118  0  0
  -18.1797  -26.7818   22.1673 C   0  0  0  0  0  0  0  0  0119  0  0
  -19.1385  -28.8769   23.2988 C   0  0  0  0  0  0  0  0  0120  0  0
  -18.9183  -30.1286   23.8878 C   0  0  0  0  0  0  0  0  0121  0  0
  -17.6396  -30.6493   24.0352 C   0  0  0  0  0  0  0  0  0122  0  0
  -25.9153  -34.9582   23.4993 C   0  0  0  0  0  0  0  0  0123  0  0
  -16.5415  -29.9068   23.6254 C   0  0  0  0  0  0  0  0  0124  0  0
  -16.7331  -28.6521   23.0586 C   0  0  0  0  0  0  0  0  0125  0  0
  -26.4583  -31.6439   25.0683 C   0  0  0  0  0  0  0  0  0126  0  0
  -25.3807  -31.3179   26.1374 C   0  0  0  0  0  0  0  0  0127  0  0
  -27.0530  -30.3024   24.5680 C   0  0  0  0  0  0  0  0  0128  0  0
  -27.6014  -32.4281   25.7651 C   0  0  0  0  0  0  0  0  0129  0  0
  -27.5629  -37.2220   24.8621 C   0  0  0  0  0  0  0  0  0130  0  0
  -21.4133  -29.3375   22.3735 N   0  0  0  0  0  0  0  0  0131  0  0
  -26.4706  -37.3372   23.9061 N   0  0  0  0  0  0  0  0  0132  0  0
  -24.6674  -31.0544   22.1178 N   0  0  0  0  0  0  0  0  0133  0  0
  -23.4259  -28.8150   23.2971 O   0  0  0  0  0  0  0  0  0134  0  0
  -28.3948  -26.7345   20.0089 O   0  0  0  0  0  0  0  0  0135  0  0
  -26.5870  -34.9065   22.4671 O   0  0  0  0  0  0  0  0  0136  0  0
  -23.5365  -32.1254   23.7833 O   0  0  0  0  0  0  0  0  0137  0  0
  -28.1693  -23.0513   18.2847 C   0  0  0  0  0  0  0  0  0  0  0  0
  -27.8919  -22.3772   19.4739 C   0  0  0  0  0  0  0  0  0  0  0  0
  -29.1328  -24.0597   18.2630 C   0  0  0  0  0  0  0  0  0  0  0  0
  -28.5778  -22.7116   20.6415 C   0  0  0  0  0  0  0  0  0  0  0  0
  -29.5413  -23.7200   20.6198 C   0  0  0  0  0  0  0  0  0  0  0  0
  -29.8188  -24.3941   19.4306 C   0  0  0  0  0  0  0  0  0  0  0  0
  -32.1445  -28.3229   18.2564 C   0  0  0  0  0  0  0  0  0  0  0  0
  -28.2669  -21.9900   21.8683 C   0  0  0  0  0  0  0  0  0  0  0  0
  -31.1736  -27.7010   18.9440 C   0  0  0  0  0  0  0  0  0  0  0  0
  -31.6958  -23.5170   21.8861 C   0  0  0  0  0  0  0  0  0  0  0  0
  -30.2812  -24.0858   21.8675 C   0  0  0  0  0  0  0  0  0  0  0  0
  -30.6680  -28.2553   20.2494 C   0  0  0  0  0  0  0  0  0  1  0  0
  -30.5598  -26.4242   18.4380 C   0  0  0  0  0  0  0  0  0  0  0  0
  -29.1489  -21.2931   22.5300 N   0  0  0  0  0  0  0  0  0  0  0  0
  -30.7618  -25.3878   19.3894 O   0  0  0  0  0  0  0  0  0  0  0  0
  -31.4485  -12.4701   19.0860 H   0  0  0  0  0  0  0  0  0  0  0  0
  -30.3970  -11.2460   19.6950 H   0  0  0  0  0  0  0  0  0  0  0  0
  -29.6870  -11.8204   17.4226 H   0  0  0  0  0  0  0  0  0  0  0  0
  -29.6375  -13.5326   17.8649 H   0  0  0  0  0  0  0  0  0  0  0  0
  -27.7830  -11.3650   18.7904 H   0  0  0  0  0  0  0  0  0  0  0  0
  -27.4028  -12.7801   17.8021 H   0  0  0  0  0  0  0  0  0  0  0  0
  -27.7353  -14.2503   19.6136 H   0  0  0  0  0  0  0  0  0  0  0  0
  -28.5890  -11.9550   21.3832 H   0  0  0  0  0  0  0  0  0  0  0  0
  -28.5005  -13.6134   21.8562 H   0  0  0  0  0  0  0  0  0  0  0  0
  -25.2399   -9.5495   22.4318 H   0  0  0  0  0  0  0  0  0  0  0  0
  -23.9663   -7.5070   22.7297 H   0  0  0  0  0  0  0  0  0  0  0  0
  -21.1515   -8.8641   19.9162 H   0  0  0  0  0  0  0  0  0  0  0  0
  -22.4016  -10.9115   19.6476 H   0  0  0  0  0  0  0  0  0  0  0  0
  -21.2319   -7.5552   23.9750 H   0  0  0  0  0  0  0  0  0  0  0  0
  -21.1589   -6.0228   25.8556 H   0  0  0  0  0  0  0  0  0  0  0  0
  -22.0396   -2.8212   23.2809 H   0  0  0  0  0  0  0  0  0  0  0  0
  -22.4401  -11.9703   22.4008 H   0  0  0  0  0  0  0  0  0  0  0  0
  -21.1493  -13.0679   22.2082 H   0  0  0  0  0  0  0  0  0  0  0  0
  -24.6538  -15.7807   20.5848 H   0  0  0  0  0  0  0  0  0  0  0  0
  -26.2762  -15.5453   20.1156 H   0  0  0  0  0  0  0  0  0  0  0  0
  -26.6778  -32.4663   23.1464 H   0  0  0  0  0  0  0  0  0  0  0  0
  -25.0747  -34.0282   25.0566 H   0  0  0  0  0  0  0  0  0  0  0  0
  -22.7881  -31.3489   21.4131 H   0  0  0  0  0  0  0  0  0  0  0  0
  -23.3854  -35.9823   23.3648 H   0  0  0  0  0  0  0  0  0  0  0  0
  -24.3696  -36.8624   22.2204 H   0  0  0  0  0  0  0  0  0  0  0  0
  -23.7669  -37.6632   23.6516 H   0  0  0  0  0  0  0  0  0  0  0  0
  -25.9445  -31.6237   20.5691 H   0  0  0  0  0  0  0  0  0  0  0  0
  -26.7436  -31.0079   22.0108 H   0  0  0  0  0  0  0  0  0  0  0  0
  -28.0090  -29.1452   21.2057 H   0  0  0  0  0  0  0  0  0  0  0  0
  -26.1369  -26.0560   19.0719 H   0  0  0  0  0  0  0  0  0  0  0  0
  -24.0652  -27.2961   19.0997 H   0  0  0  0  0  0  0  0  0  0  0  0
  -23.6156  -30.5365   19.3930 H   0  0  0  0  0  0  0  0  0  0  0  0
  -22.7355  -29.1425   19.9945 H   0  0  0  0  0  0  0  0  0  0  0  0
  -25.1353  -36.2335   25.0565 H   0  0  0  0  0  0  0  0  0  0  0  0
  -21.0070  -28.3206   24.0793 H   0  0  0  0  0  0  0  0  0  0  0  0
  -20.5555  -26.2518   23.3550 H   0  0  0  0  0  0  0  0  0  0  0  0
  -21.5974  -26.8362   22.0454 H   0  0  0  0  0  0  0  0  0  0  0  0
  -19.6810  -25.6422   21.1488 H   0  0  0  0  0  0  0  0  0  0  0  0
  -19.6406  -27.3343   20.7034 H   0  0  0  0  0  0  0  0  0  0  0  0
  -17.4282  -26.6888   21.4113 H   0  0  0  0  0  0  0  0  0  0  0  0
  -18.0803  -26.0130   22.9049 H   0  0  0  0  0  0  0  0  0  0  0  0
  -19.7265  -30.6774   24.2204 H   0  0  0  0  0  0  0  0  0  0  0  0
  -17.5064  -31.5856   24.4483 H   0  0  0  0  0  0  0  0  0  0  0  0
  -15.5878  -30.2839   23.7407 H   0  0  0  0  0  0  0  0  0  0  0  0
  -15.9120  -28.0941   22.7766 H   0  0  0  0  0  0  0  0  0  0  0  0
  -24.5787  -30.7757   25.6817 H   0  0  0  0  0  0  0  0  0  0  0  0
  -25.0041  -32.2289   26.5536 H   0  0  0  0  0  0  0  0  0  0  0  0
  -25.8166  -30.7245   26.9138 H   0  0  0  0  0  0  0  0  0  0  0  0
  -26.2892  -29.7335   24.0803 H   0  0  0  0  0  0  0  0  0  0  0  0
  -27.4336  -29.7484   25.4006 H   0  0  0  0  0  0  0  0  0  0  0  0
  -27.8466  -30.4994   23.8779 H   0  0  0  0  0  0  0  0  0  0  0  0
  -27.2251  -33.3632   26.1242 H   0  0  0  0  0  0  0  0  0  0  0  0
  -28.3902  -32.6065   25.0645 H   0  0  0  0  0  0  0  0  0  0  0  0
  -27.9772  -31.8555   26.5872 H   0  0  0  0  0  0  0  0  0  0  0  0
  -28.2744  -38.0016   24.6863 H   0  0  0  0  0  0  0  0  0  0  0  0
  -28.0396  -36.2711   24.7461 H   0  0  0  0  0  0  0  0  0  0  0  0
  -27.1773  -37.3087   25.8564 H   0  0  0  0  0  0  0  0  0  0  0  0
  -20.9627  -29.9365   21.7352 H   0  0  0  0  0  0  0  0  0  0  0  0
  -26.0447  -38.2561   24.0273 H   0  0  0  0  0  0  0  0  0  0  0  0
  -27.6617  -22.8040   17.4209 H   0  0  0  0  0  0  0  0  0  0  0  0
  -27.1792  -21.6310   19.4899 H   0  0  0  0  0  0  0  0  0  0  0  0
  -29.3381  -24.5584   17.3831 H   0  0  0  0  0  0  0  0  0  0  0  0
  -32.5540  -29.1981   18.6188 H   0  0  0  0  0  0  0  0  0  0  0  0
  -32.4813  -27.9258   17.3654 H   0  0  0  0  0  0  0  0  0  0  0  0
  -32.1837  -23.8039   22.7941 H   0  0  0  0  0  0  0  0  0  0  0  0
  -32.2446  -23.8984   21.0505 H   0  0  0  0  0  0  0  0  0  0  0  0
  -31.6518  -22.4496   21.8267 H   0  0  0  0  0  0  0  0  0  0  0  0
  -29.7449  -23.7034   22.7108 H   0  0  0  0  0  0  0  0  0  0  0  0
  -30.3556  -25.1526   21.9044 H   0  0  0  0  0  0  0  0  0  0  0  0
  -30.4914  -29.3106   20.2372 H   0  0  0  0  0  0  0  0  0  0  0  0
  -31.2690  -28.1966   21.1327 H   0  0  0  0  0  0  0  0  0  0  0  0
  -31.0194  -26.1511   17.5111 H   0  0  0  0  0  0  0  0  0  0  0  0
  -29.5103  -26.5695   18.2886 H   0  0  0  0  0  0  0  0  0  0  0  0
  -29.6159  -21.6929   23.2990 H   0  0  0  0  0  0  0  0  0  0  0  0
  1 25  1  0
  1 30  2  0
  1 78  1  0
  2  3  1  0
  2 25  1  0
  2 86  1  0
  2 87  1  0
  3  4  1  0
  3 88  1  0
  3 89  1  0
  4  5  1  0
  4 90  1  0
  4 91  1  0
  5  6  1  0
  5 26  1  0
  5 92  1  6
  6 25  1  0
  6 93  1  0
  6 94  1  0
  7  8  2  0
  7 26  1  0
  7 29  1  0
  8  9  1  0
  8 22  1  0
  9 10  1  0
  9 27  2  0
 10 11  2  0
 10 15  1  0
 11 12  1  0
 11 95  1  0
 12 13  2  0
 12 96  1  0
 13 14  1  0
 13 31  1  0
 14 15  2  0
 14 97  1  0
 15 98  1  0
 16 17  2  0
 16 21  1  0
 16 31  1  0
 17 18  1  0
 17 99  1  0
 18 19  2  0
 18100  1  0
 19 20  1  0
 19 24  1  0
 20 21  2  0
 20101  1  0
 21 23  1  0
 22 28  1  0
 22 32  2  0
 26 27  1  0
 28102  1  0
 28103  1  0
 29104  1  0
 29105  1  0
 33 34  1  0
 33 66  1  0
 33 70  2  0
 34 36  1  0
 34 59  1  0
 34106  1  6
 35 44  2  0
 35 45  1  0
 35 68  1  0
 36 56  1  0
 36107  1  0
 37 39  1  0
 37 47  1  0
 37 66  1  0
 37108  1  6
 38 43  2  0
 38 46  1  0
 38 47  1  0
 39 64  1  0
 39 67  2  0
 40 52  1  0
 40 53  2  0
 40 58  1  0
 41109  1  0
 41110  1  0
 41111  1  0
 42 43  1  0
 42 66  1  0
 42112  1  0
 42113  1  0
 43 44  1  0
 44114  1  0
 45 46  2  0
 45115  1  0
 46116  1  0
 47117  1  0
 47118  1  0
 48 41  1  0
 48 56  1  0
 48 65  1  0
 48119  1  1
 49 50  1  0
 49 53  1  0
 49 64  1  0
 49120  1  1
 50 51  1  0
 50121  1  0
 50122  1  0
 51 52  1  0
 51123  1  0
 51124  1  0
 52125  1  0
 52126  1  0
 53 54  1  0
 54 55  2  0
 54127  1  0
 55 57  1  0
 55128  1  0
 56 69  2  0
 57 58  2  0
 57129  1  0
 58130  1  0
 59 60  1  0
 59 61  1  0
 59 62  1  0
 60131  1  0
 60132  1  0
 60133  1  0
 61134  1  0
 61135  1  0
 61136  1  0
 62137  1  0
 62138  1  0
 62139  1  0
 63 65  1  0
 63140  1  0
 63141  1  0
 63142  1  0
 64143  1  0
 65144  1  0
 68 82  1  0
 71 72  2  0
 71 73  1  0
 71145  1  0
 72 74  1  0
 72146  1  0
 73 76  2  0
 73147  1  0
 74 75  2  0
 74 78  1  0
 75 76  1  0
 75 81  1  0
 76 85  1  0
 77 79  2  0
 77148  1  0
 77149  1  0
 78 84  2  0
 79 82  1  0
 79 83  1  0
 80 81  1  0
 80150  1  0
 80151  1  0
 80152  1  0
 81153  1  0
 81154  1  0
 82155  1  0
 82156  1  0
 83 85  1  0
 83157  1  0
 83158  1  0
 84159  1  0
M  ISO  4   1 100  68 101  78 100  82 101
M  END
$$$$
14
     RDKit          3D

168176  0  0  0  0  0  0  0  0999 V2000
  -30.7652  -14.3608   20.6636 C   0  0  0  0  0  0  0  0  0100  0  0
  -30.4392  -12.2669   19.3775 C   0  0  0  0  0  0  0  0  0101  0  0
  -29.4791  -12.5281   18.1977 C   0  0  0  0  0  0  0  0  0102  0  0
  -27.9985  -12.3963   18.6038 C   0  0  0  0  0  0  0  0  0103  0  0
  -27.6639  -13.2170   19.8820 C   0  0  2  0  0  0  0  0  0104  0  0
  -28.6795  -12.9602   21.0279 C   0  0  0  0  0  0  0  0  0105  0  0
  -25.2633  -13.8245   20.5754 C   0  0  0  0  0  0  0  0  0106  0  0
  -24.1645  -13.0409   20.9408 C   0  0  0  0  0  0  0  0  0107  0  0
  -24.6400  -11.7009   20.8697 C   0  0  0  0  0  0  0  0  0108  0  0
  -23.9005  -10.4085   21.0420 C   0  0  0  0  0  0  0  0  0109  0  0
  -24.3588   -9.4123   21.9123 C   0  0  0  0  0  0  0  0  0110  0  0
  -23.6296   -8.2350   22.0803 C   0  0  0  0  0  0  0  0  0111  0  0
  -22.4385   -8.0419   21.3657 C   0  0  0  0  0  0  0  0  0112  0  0
  -22.0103   -9.0167   20.4678 C   0  0  0  0  0  0  0  0  0113  0  0
  -22.7317  -10.1925   20.3102 C   0  0  0  0  0  0  0  0  0114  0  0
  -21.6857   -6.0709   22.5391 C   0  0  0  0  0  0  0  0  0115  0  0
  -21.4064   -6.5490   23.8264 C   0  0  0  0  0  0  0  0  0116  0  0
  -21.3635   -5.6677   24.9085 C   0  0  0  0  0  0  0  0  0117  0  0
  -21.5973   -4.3067   24.7088 C   0  0  0  0  0  0  0  0  0118  0  0
  -21.8700   -3.8284   23.4282 C   0  0  0  0  0  0  0  0  0119  0  0
  -21.9144   -4.7056   22.3460 C   0  0  0  0  0  0  0  0  0120  0  0
  -22.8194  -13.5263   21.1763 C   0  0  0  0  0  0  0  0  0121  0  0
  -22.1559   -4.2206   21.1063 F   0  0  0  0  0  0  0  0  0122  0  0
  -21.5628   -3.4510   25.7555 F   0  0  0  0  0  0  0  0  0123  0  0
  -30.0261  -13.1803   20.4553 N   0  0  0  0  0  0  0  0  0124  0  0
  -26.2911  -12.9356   20.3443 N   0  0  0  0  0  0  0  0  0125  0  0
  -25.9236  -11.6675   20.5847 N   0  0  0  0  0  0  0  0  0126  0  0
  -22.0708  -12.7905   22.0005 N   0  0  0  0  0  0  0  0  0127  0  0
  -25.4117  -15.1773   20.4097 N   0  0  0  0  0  0  0  0  0128  0  0
  -31.7916  -14.6724   20.0536 O   0  0  0  0  0  0  0  0  0129  0  0
  -21.6670   -6.9022   21.4423 O   0  0  0  0  0  0  0  0  0130  0  0
  -22.3946  -14.5564   20.6568 O   0  0  0  0  0  0  0  0  0131  0  0
  -24.6048  -31.8614   23.2223 C   0  0  0  0  0  0  0  0  0100  0  0
  -25.8822  -32.4841   23.8616 C   0  0  1  0  0  0  0  0  0101  0  0
  -27.2536  -27.5042   20.1156 C   0  0  0  0  0  0  0  0  0102  0  0
  -25.5726  -33.8762   24.2210 N   0  0  0  0  0  0  0  0  0103  0  0
  -23.4066  -30.4859   21.5461 C   0  0  2  0  0  0  0  0  0104  0  0
  -24.8467  -28.9636   20.1247 C   0  0  0  0  0  0  0  0  0105  0  0
  -22.7412  -29.4652   22.5052 C   0  0  0  0  0  0  0  0  0106  0  0
  -18.0167  -28.1302   22.8626 C   0  0  0  0  0  0  0  0  0107  0  0
  -24.1342  -36.7390   23.2568 C   0  0  0  0  0  0  0  0  0108  0  0
  -25.9141  -30.8882   21.3456 C   0  0  0  0  0  0  0  0  0109  0  0
  -25.9930  -29.5029   20.7208 C   0  0  0  0  0  0  0  0  0110  0  0
  -27.1758  -28.7612   20.7331 C   0  0  0  0  0  0  0  0  0111  0  0
  -26.1032  -26.9836   19.5230 C   0  0  0  0  0  0  0  0  0112  0  0
  -24.9097  -27.7011   19.5331 C   0  0  0  0  0  0  0  0  0113  0  0
  -23.5715  -29.7899   20.1582 C   0  0  0  0  0  0  0  0  0114  0  0
  -25.3990  -36.3212   24.0232 C   0  0  1  0  0  0  0  0  0115  0  0
  -20.5793  -28.3813   23.1004 C   0  0  2  0  0  0  0  0  0116  0  0
  -20.6548  -26.9392   22.5411 C   0  0  0  0  0  0  0  0  0117  0  0
  -19.5615  -26.6407   21.5143 C   0  0  0  0  0  0  0  0  0118  0  0
  -18.1797  -26.7818   22.1673 C   0  0  0  0  0  0  0  0  0119  0  0
  -19.1385  -28.8769   23.2988 C   0  0  0  0  0  0  0  0  0120  0  0
  -18.9183  -30.1286   23.8878 C   0  0  0  0  0  0  0  0  0121  0  0
  -17.6396  -30.6493   24.0352 C   0  0  0  0  0  0  0  0  0122  0  0
  -25.9153  -34.9582   23.4993 C   0  0  0  0  0  0  0  0  0123  0  0
  -16.5415  -29.9068   23.6254 C   0  0  0  0  0  0  0  0  0124  0  0
  -16.7331  -28.6521   23.0586 C   0  0  0  0  0  0  0  0  0125  0  0
  -26.4583  -31.6439   25.0683 C   0  0  0  0  0  0  0  0  0126  0  0
  -25.3807  -31.3179   26.1374 C   0  0  0  0  0  0  0  0  0127  0  0
  -27.0530  -30.3024   24.5680 C   0  0  0  0  0  0  0  0  0128  0  0
  -27.6014  -32.4281   25.7651 C   0  0  0  0  0  0  0  0  0129  0  0
  -27.5629  -37.2220   24.8621 C   0  0  0  0  0  0  0  0  0130  0  0
  -21.4133  -29.3375   22.3735 N   0  0  0  0  0  0  0  0  0131  0  0
  -26.4706  -37.3372   23.9061 N   0  0  0  0  0  0  0  0  0132  0  0
  -24.6674  -31.0544   22.1178 N   0  0  0  0  0  0  0  0  0133  0  0
  -23.4259  -28.8150   23.2971 O   0  0  0  0  0  0  0  0  0134  0  0
  -28.3948  -26.7345   20.0089 O   0  0  0  0  0  0  0  0  0135  0  0
  -26.5870  -34.9065   22.4671 O   0  0  0  0  0  0  0  0  0136  0  0
  -23.5365  -32.1254   23.7833 O   0  0  0  0  0  0  0  0  0137  0  0
  -33.0565  -17.0984   23.3718 C   0  0  0  0  0  0  0  0  0  0  0  0
  -32.4025  -16.2534   22.4752 C   0  0  0  0  0  0  0  0  0  0  0  0
  -30.9383  -18.0825   23.9896 C   0  0  0  0  0  0  0  0  0  0  0  0
  -32.3244  -18.0129   24.1291 C   0  0  0  0  0  0  0  0  0  0  0  0
  -31.0163  -16.3231   22.3357 C   0  0  0  0  0  0  0  0  0  0  0  0
  -30.2842  -17.2376   23.0929 C   0  0  0  0  0  0  0  0  0  0  0  0
  -35.4991  -20.4255   26.3225 C   0  0  0  0  0  0  0  0  0  0  0  0
  -32.7538  -22.5284   23.3840 C   0  0  0  0  0  0  0  0  0  0  0  0
  -34.5262  -20.0374   23.4167 C   0  0  0  0  0  0  0  0  0  0  0  0
  -33.0347  -18.9315   25.1021 C   0  0  0  0  0  0  0  0  0  0  0  0
  -34.2942  -21.1160   25.6855 C   0  0  0  0  0  0  0  0  0  0  0  0
  -31.2034  -21.4774   25.0845 C   0  0  0  0  0  0  0  0  0  0  0  0
  -29.9260  -22.1250   24.5484 C   0  0  0  0  0  0  0  0  0  1  0  0
  -32.3071  -21.1994   24.0230 C   0  0  2  0  0  0  0  0  0  0  0  0
  -33.5289  -20.3286   24.5689 C   0  0  1  0  0  0  0  0  0  0  0  0
  -30.3546  -15.4639   21.4238 N   0  0  0  0  0  0  0  0  0  0  0  0
  -28.9518  -17.3143   22.9660 F   0  0  0  0  0  0  0  0  0  0  0  0
  -31.4485  -12.4701   19.0860 H   0  0  0  0  0  0  0  0  0  0  0  0
  -30.3970  -11.2460   19.6950 H   0  0  0  0  0  0  0  0  0  0  0  0
  -29.6870  -11.8204   17.4226 H   0  0  0  0  0  0  0  0  0  0  0  0
  -29.6375  -13.5326   17.8649 H   0  0  0  0  0  0  0  0  0  0  0  0
  -27.7830  -11.3650   18.7904 H   0  0  0  0  0  0  0  0  0  0  0  0
  -27.4028  -12.7801   17.8021 H   0  0  0  0  0  0  0  0  0  0  0  0
  -27.7353  -14.2503   19.6136 H   0  0  0  0  0  0  0  0  0  0  0  0
  -28.5890  -11.9550   21.3832 H   0  0  0  0  0  0  0  0  0  0  0  0
  -28.5005  -13.6134   21.8562 H   0  0  0  0  0  0  0  0  0  0  0  0
  -25.2399   -9.5495   22.4318 H   0  0  0  0  0  0  0  0  0  0  0  0
  -23.9663   -7.5070   22.7297 H   0  0  0  0  0  0  0  0  0  0  0  0
  -21.1515   -8.8641   19.9162 H   0  0  0  0  0  0  0  0  0  0  0  0
  -22.4016  -10.9115   19.6476 H   0  0  0  0  0  0  0  0  0  0  0  0
  -21.2319   -7.5552   23.9750 H   0  0  0  0  0  0  0  0  0  0  0  0
  -21.1589   -6.0228   25.8556 H   0  0  0  0  0  0  0  0  0  0  0  0
  -22.0396   -2.8212   23.2809 H   0  0  0  0  0  0  0  0  0  0  0  0
  -22.4401  -11.9703   22.4008 H   0  0  0  0  0  0  0  0  0  0  0  0
  -21.1493  -13.0679   22.2082 H   0  0  0  0  0  0  0  0  0  0  0  0
  -24.6538  -15.7807   20.5848 H   0  0  0  0  0  0  0  0  0  0  0  0
  -26.2762  -15.5453   20.1156 H   0  0  0  0  0  0  0  0  0  0  0  0
  -26.6778  -32.4663   23.1464 H   0  0  0  0  0  0  0  0  0  0  0  0
  -25.0747  -34.0282   25.0566 H   0  0  0  0  0  0  0  0  0  0  0  0
  -22.7881  -31.3489   21.4131 H   0  0  0  0  0  0  0  0  0  0  0  0
  -23.3854  -35.9823   23.3648 H   0  0  0  0  0  0  0  0  0  0  0  0
  -24.3696  -36.8624   22.2204 H   0  0  0  0  0  0  0  0  0  0  0  0
  -23.7669  -37.6632   23.6516 H   0  0  0  0  0  0  0  0  0  0  0  0
  -25.9445  -31.6237   20.5691 H   0  0  0  0  0  0  0  0  0  0  0  0
  -26.7436  -31.0079   22.0108 H   0  0  0  0  0  0  0  0  0  0  0  0
  -28.0090  -29.1452   21.2057 H   0  0  0  0  0  0  0  0  0  0  0  0
  -26.1369  -26.0560   19.0719 H   0  0  0  0  0  0  0  0  0  0  0  0
  -24.0652  -27.2961   19.0997 H   0  0  0  0  0  0  0  0  0  0  0  0
  -23.6156  -30.5365   19.3930 H   0  0  0  0  0  0  0  0  0  0  0  0
  -22.7355  -29.1425   19.9945 H   0  0  0  0  0  0  0  0  0  0  0  0
  -25.1353  -36.2335   25.0565 H   0  0  0  0  0  0  0  0  0  0  0  0
  -21.0070  -28.3206   24.0793 H   0  0  0  0  0  0  0  0  0  0  0  0
  -20.5555  -26.2518   23.3550 H   0  0  0  0  0  0  0  0  0  0  0  0
  -21.5974  -26.8362   22.0454 H   0  0  0  0  0  0  0  0  0  0  0  0
  -19.6810  -25.6422   21.1488 H   0  0  0  0  0  0  0  0  0  0  0  0
  -19.6406  -27.3343   20.7034 H   0  0  0  0  0  0  0  0  0  0  0  0
  -17.4282  -26.6888   21.4113 H   0  0  0  0  0  0  0  0  0  0  0  0
  -18.0803  -26.0130   22.9049 H   0  0  0  0  0  0  0  0  0  0  0  0
  -19.7265  -30.6774   24.2204 H   0  0  0  0  0  0  0  0  0  0  0  0
  -17.5064  -31.5856   24.4483 H   0  0  0  0  0  0  0  0  0  0  0  0
  -15.5878  -30.2839   23.7407 H   0  0  0  0  0  0  0  0  0  0  0  0
  -15.9120  -28.0941   22.7766 H   0  0  0  0  0  0  0  0  0  0  0  0
  -24.5787  -30.7757   25.6817 H   0  0  0  0  0  0  0  0  0  0  0  0
  -25.0041  -32.2289   26.5536 H   0  0  0  0  0  0  0  0  0  0  0  0
  -25.8166  -30.7245   26.9138 H   0  0  0  0  0  0  0  0  0  0  0  0
  -26.2892  -29.7335   24.0803 H   0  0  0  0  0  0  0  0  0  0  0  0
  -27.4336  -29.7484   25.4006 H   0  0  0  0  0  0  0  0  0  0  0  0
  -27.8466  -30.4994   23.8779 H   0  0  0  0  0  0  0  0  0  0  0  0
  -27.2251  -33.3632   26.1242 H   0  0  0  0  0  0  0  0  0  0  0  0
  -28.3902  -32.6065   25.0645 H   0  0  0  0  0  0  0  0  0  0  0  0
  -27.9772  -31.8555   26.5872 H   0  0  0  0  0  0  0  0  0  0  0  0
  -28.2744  -38.0016   24.6863 H   0  0  0  0  0  0  0  0  0  0  0  0
  -28.0396  -36.2711   24.7461 H   0  0  0  0  0  0  0  0  0  0  0  0
  -27.1773  -37.3087   25.8564 H   0  0  0  0  0  0  0  0  0  0  0  0
  -20.9627  -29.9365   21.7352 H   0  0  0  0  0  0  0  0  0  0  0  0
  -26.0447  -38.2561   24.0273 H   0  0  0  0  0  0  0  0  0  0  0  0
  -34.0821  -17.0470   23.4749 H   0  0  0  0  0  0  0  0  0  0  0  0
  -32.9441  -15.5767   21.9151 H   0  0  0  0  0  0  0  0  0  0  0  0
  -30.3967  -18.7591   24.5498 H   0  0  0  0  0  0  0  0  0  0  0  0
  -35.9271  -21.0673   27.0640 H   0  0  0  0  0  0  0  0  0  0  0  0
  -36.2289  -20.2147   25.5690 H   0  0  0  0  0  0  0  0  0  0  0  0
  -35.1851  -19.5110   26.7807 H   0  0  0  0  0  0  0  0  0  0  0  0
  -31.8947  -23.0647   23.0388 H   0  0  0  0  0  0  0  0  0  0  0  0
  -33.4037  -22.3265   22.5583 H   0  0  0  0  0  0  0  0  0  0  0  0
  -33.2733  -23.1169   24.1111 H   0  0  0  0  0  0  0  0  0  0  0  0
  -35.3418  -19.4538   23.7898 H   0  0  0  0  0  0  0  0  0  0  0  0
  -34.8983  -20.9610   23.0251 H   0  0  0  0  0  0  0  0  0  0  0  0
  -34.0264  -19.4965   22.6405 H   0  0  0  0  0  0  0  0  0  0  0  0
  -33.8935  -18.4074   25.4663 H   0  0  0  0  0  0  0  0  0  0  0  0
  -32.2932  -19.1709   25.8355 H   0  0  0  0  0  0  0  0  0  0  0  0
  -34.6386  -22.0330   25.2549 H   0  0  0  0  0  0  0  0  0  0  0  0
  -33.5866  -21.2272   26.4804 H   0  0  0  0  0  0  0  0  0  0  0  0
  -30.9364  -20.5444   25.5353 H   0  0  0  0  0  0  0  0  0  0  0  0
  -31.6252  -22.1815   25.7709 H   0  0  0  0  0  0  0  0  0  0  0  0
  -29.4802  -22.5215   25.4366 H   0  0  0  0  0  0  0  0  0  0  0  0
  -29.6840  -21.3021   23.9087 H   0  0  0  0  0  0  0  0  0  0  0  0
  -31.8757  -20.5814   23.2635 H   0  0  0  0  0  0  0  0  0  0  0  0
  -29.4048  -15.6899   21.2975 H   0  0  0  0  0  0  0  0  0  0  0  0
  1 25  1  0
  1 30  2  0
  1 86  1  0
  2  3  1  0
  2 25  1  0
  2 88  1  0
  2 89  1  0
  3  4  1  0
  3 90  1  0
  3 91  1  0
  4  5  1  0
  4 92  1  0
  4 93  1  0
  5  6  1  0
  5 26  1  0
  5 94  1  6
  6 25  1  0
  6 95  1  0
  6 96  1  0
  7  8  2  0
  7 26  1  0
  7 29  1  0
  8  9  1  0
  8 22  1  0
  9 10  1  0
  9 27  2  0
 10 11  2  0
 10 15  1  0
 11 12  1  0
 11 97  1  0
 12 13  2  0
 12 98  1  0
 13 14  1  0
 13 31  1  0
 14 15  2  0
 14 99  1  0
 15100  1  0
 16 17  2  0
 16 21  1  0
 16 31  1  0
 17 18  1  0
 17101  1  0
 18 19  2  0
 18102  1  0
 19 20  1  0
 19 24  1  0
 20 21  2  0
 20103  1  0
 21 23  1  0
 22 28  1  0
 22 32  2  0
 26 27  1  0
 28104  1  0
 28105  1  0
 29106  1  0
 29107  1  0
 33 34  1  0
 33 66  1  0
 33 70  2  0
 34 36  1  0
 34 59  1  0
 34108  1  6
 35 44  2  0
 35 45  1  0
 35 68  1  0
 36 56  1  0
 36109  1  0
 37 39  1  0
 37 47  1  0
 37 66  1  0
 37110  1  6
 38 43  2  0
 38 46  1  0
 38 47  1  0
 39 64  1  0
 39 67  2  0
 40 52  1  0
 40 53  2  0
 40 58  1  0
 41111  1  0
 41112  1  0
 41113  1  0
 42 43  1  0
 42 66  1  0
 42114  1  0
 42115  1  0
 43 44  1  0
 44116  1  0
 45 46  2  0
 45117  1  0
 46118  1  0
 47119  1  0
 47120  1  0
 48 41  1  0
 48 56  1  0
 48 65  1  0
 48121  1  1
 49 50  1  0
 49 53  1  0
 49 64  1  0
 49122  1  1
 50 51  1  0
 50123  1  0
 50124  1  0
 51 52  1  0
 51125  1  0
 51126  1  0
 52127  1  0
 52128  1  0
 53 54  1  0
 54 55  2  0
 54129  1  0
 55 57  1  0
 55130  1  0
 56 69  2  0
 57 58  2  0
 57131  1  0
 58132  1  0
 59 60  1  0
 59 61  1  0
 59 62  1  0
 60133  1  0
 60134  1  0
 60135  1  0
 61136  1  0
 61137  1  0
 61138  1  0
 62139  1  0
 62140  1  0
 62141  1  0
 63 65  1  0
 63142  1  0
 63143  1  0
 63144  1  0
 64145  1  0
 65146  1  0
 68 83  1  0
 71 72  2  0
 71 74  1  0
 71147  1  0
 72 75  1  0
 72148  1  0
 73 74  2  0
 73 76  1  0
 73149  1  0
 74 80  1  0
 75 76  2  0
 75 86  1  0
 76 87  1  0
 77 81  1  0
 77150  1  0
 77151  1  0
 77152  1  0
 78153  1  0
 78154  1  0
 78155  1  0
 79156  1  0
 79157  1  0
 79158  1  0
 85 80  1  1
 80159  1  0
 80160  1  0
 81 85  1  0
 81161  1  0
 81162  1  0
 82 83  1  0
 82 84  1  0
 82163  1  0
 82164  1  0
 83165  1  0
 83166  1  0
 84 78  1  0
 84 85  1  0
 84167  1  6
 85 79  1  0
 86168  1  0
M  ISO  4   1 100  68 101  83 101  86 100
M  END
$$$$
15
     RDKit          3D

160168  0  0  0  0  0  0  0  0999 V2000
  -30.7652  -14.3608   20.6636 C   0  0  0  0  0  0  0  0  0100  0  0
  -30.4392  -12.2669   19.3775 C   0  0  0  0  0  0  0  0  0101  0  0
  -29.4791  -12.5281   18.1977 C   0  0  0  0  0  0  0  0  0102  0  0
  -27.9985  -12.3963   18.6038 C   0  0  0  0  0  0  0  0  0103  0  0
  -27.6639  -13.2170   19.8820 C   0  0  2  0  0  0  0  0  0104  0  0
  -28.6795  -12.9602   21.0279 C   0  0  0  0  0  0  0  0  0105  0  0
  -25.2633  -13.8245   20.5754 C   0  0  0  0  0  0  0  0  0106  0  0
  -24.1645  -13.0409   20.9408 C   0  0  0  0  0  0  0  0  0107  0  0
  -24.6400  -11.7009   20.8697 C   0  0  0  0  0  0  0  0  0108  0  0
  -23.9005  -10.4085   21.0420 C   0  0  0  0  0  0  0  0  0109  0  0
  -24.3588   -9.4123   21.9123 C   0  0  0  0  0  0  0  0  0110  0  0
  -23.6296   -8.2350   22.0803 C   0  0  0  0  0  0  0  0  0111  0  0
  -22.4385   -8.0419   21.3657 C   0  0  0  0  0  0  0  0  0112  0  0
  -22.0103   -9.0167   20.4678 C   0  0  0  0  0  0  0  0  0113  0  0
  -22.7317  -10.1925   20.3102 C   0  0  0  0  0  0  0  0  0114  0  0
  -21.6857   -6.0709   22.5391 C   0  0  0  0  0  0  0  0  0115  0  0
  -21.4064   -6.5490   23.8264 C   0  0  0  0  0  0  0  0  0116  0  0
  -21.3635   -5.6677   24.9085 C   0  0  0  0  0  0  0  0  0117  0  0
  -21.5973   -4.3067   24.7088 C   0  0  0  0  0  0  0  0  0118  0  0
  -21.8700   -3.8284   23.4282 C   0  0  0  0  0  0  0  0  0119  0  0
  -21.9144   -4.7056   22.3460 C   0  0  0  0  0  0  0  0  0120  0  0
  -22.8194  -13.5263   21.1763 C   0  0  0  0  0  0  0  0  0121  0  0
  -22.1559   -4.2206   21.1063 F   0  0  0  0  0  0  0  0  0122  0  0
  -21.5628   -3.4510   25.7555 F   0  0  0  0  0  0  0  0  0123  0  0
  -30.0261  -13.1803   20.4553 N   0  0  0  0  0  0  0  0  0124  0  0
  -26.2911  -12.9356   20.3443 N   0  0  0  0  0  0  0  0  0125  0  0
  -25.9236  -11.6675   20.5847 N   0  0  0  0  0  0  0  0  0126  0  0
  -22.0708  -12.7905   22.0005 N   0  0  0  0  0  0  0  0  0127  0  0
  -25.4117  -15.1773   20.4097 N   0  0  0  0  0  0  0  0  0128  0  0
  -31.7916  -14.6724   20.0536 O   0  0  0  0  0  0  0  0  0129  0  0
  -21.6670   -6.9022   21.4423 O   0  0  0  0  0  0  0  0  0130  0  0
  -22.3946  -14.5564   20.6568 O   0  0  0  0  0  0  0  0  0131  0  0
  -24.6048  -31.8614   23.2223 C   0  0  0  0  0  0  0  0  0100  0  0
  -25.8822  -32.4841   23.8616 C   0  0  1  0  0  0  0  0  0101  0  0
  -27.2536  -27.5042   20.1156 C   0  0  0  0  0  0  0  0  0102  0  0
  -25.5726  -33.8762   24.2210 N   0  0  0  0  0  0  0  0  0103  0  0
  -23.4066  -30.4859   21.5461 C   0  0  2  0  0  0  0  0  0104  0  0
  -24.8467  -28.9636   20.1247 C   0  0  0  0  0  0  0  0  0105  0  0
  -22.7412  -29.4652   22.5052 C   0  0  0  0  0  0  0  0  0106  0  0
  -18.0167  -28.1302   22.8626 C   0  0  0  0  0  0  0  0  0107  0  0
  -24.1342  -36.7390   23.2568 C   0  0  0  0  0  0  0  0  0108  0  0
  -25.9141  -30.8882   21.3456 C   0  0  0  0  0  0  0  0  0109  0  0
  -25.9930  -29.5029   20.7208 C   0  0  0  0  0  0  0  0  0110  0  0
  -27.1758  -28.7612   20.7331 C   0  0  0  0  0  0  0  0  0111  0  0
  -26.1032  -26.9836   19.5230 C   0  0  0  0  0  0  0  0  0112  0  0
  -24.9097  -27.7011   19.5331 C   0  0  0  0  0  0  0  0  0113  0  0
  -23.5715  -29.7899   20.1582 C   0  0  0  0  0  0  0  0  0114  0  0
  -25.3990  -36.3212   24.0232 C   0  0  1  0  0  0  0  0  0115  0  0
  -20.5793  -28.3813   23.1004 C   0  0  2  0  0  0  0  0  0116  0  0
  -20.6548  -26.9392   22.5411 C   0  0  0  0  0  0  0  0  0117  0  0
  -19.5615  -26.6407   21.5143 C   0  0  0  0  0  0  0  0  0118  0  0
  -18.1797  -26.7818   22.1673 C   0  0  0  0  0  0  0  0  0119  0  0
  -19.1385  -28.8769   23.2988 C   0  0  0  0  0  0  0  0  0120  0  0
  -18.9183  -30.1286   23.8878 C   0  0  0  0  0  0  0  0  0121  0  0
  -17.6396  -30.6493   24.0352 C   0  0  0  0  0  0  0  0  0122  0  0
  -25.9153  -34.9582   23.4993 C   0  0  0  0  0  0  0  0  0123  0  0
  -16.5415  -29.9068   23.6254 C   0  0  0  0  0  0  0  0  0124  0  0
  -16.7331  -28.6521   23.0586 C   0  0  0  0  0  0  0  0  0125  0  0
  -26.4583  -31.6439   25.0683 C   0  0  0  0  0  0  0  0  0126  0  0
  -25.3807  -31.3179   26.1374 C   0  0  0  0  0  0  0  0  0127  0  0
  -27.0530  -30.3024   24.5680 C   0  0  0  0  0  0  0  0  0128  0  0
  -27.6014  -32.4281   25.7651 C   0  0  0  0  0  0  0  0  0129  0  0
  -27.5629  -37.2220   24.8621 C   0  0  0  0  0  0  0  0  0130  0  0
  -21.4133  -29.3375   22.3735 N   0  0  0  0  0  0  0  0  0131  0  0
  -26.4706  -37.3372   23.9061 N   0  0  0  0  0  0  0  0  0132  0  0
  -24.6674  -31.0544   22.1178 N   0  0  0  0  0  0  0  0  0133  0  0
  -23.4259  -28.8150   23.2971 O   0  0  0  0  0  0  0  0  0134  0  0
  -28.3948  -26.7345   20.0089 O   0  0  0  0  0  0  0  0  0135  0  0
  -26.5870  -34.9065   22.4671 O   0  0  0  0  0  0  0  0  0136  0  0
  -23.5365  -32.1254   23.7833 O   0  0  0  0  0  0  0  0  0137  0  0
  -30.4246  -20.6998   20.1745 C   0  0  0  0  0  0  0  0  0  0  0  0
  -30.2815  -19.3164   20.0690 C   0  0  0  0  0  0  0  0  0  0  0  0
  -27.9018  -19.5868   19.7509 C   0  0  0  0  0  0  0  0  0  0  0  0
  -29.3063  -21.5268   20.0683 C   0  0  0  0  0  0  0  0  0  0  0  0
  -28.0449  -20.9703   19.8565 C   0  0  0  0  0  0  0  0  0  0  0  0
  -29.0201  -18.7598   19.8572 C   0  0  0  0  0  0  0  0  0  0  0  0
  -26.8338  -21.8361   19.7375 C   0  0  0  0  0  0  0  0  0  0  0  0
  -29.7059  -25.7774   17.4137 C   0  0  0  0  0  0  0  0  0  0  0  0
  -29.4861  -23.0204   20.1866 C   0  0  0  0  0  0  0  0  0  0  0  0
  -29.4373  -23.7028   18.8123 C   0  0  0  0  0  0  0  0  0  0  0  0
  -28.6679  -25.9605   19.7180 C   0  0  0  0  0  0  0  0  0  1  0  0
  -29.6962  -25.2259   18.8454 C   0  0  2  0  0  0  0  0  0  0  0  0
  -28.8745  -17.3546   19.7480 N   0  0  0  0  0  0  0  0  0  0  0  0
  -30.9893  -25.4647   19.4100 O   0  0  0  0  0  0  0  0  0  0  0  0
  -31.4485  -12.4701   19.0860 H   0  0  0  0  0  0  0  0  0  0  0  0
  -30.3970  -11.2460   19.6950 H   0  0  0  0  0  0  0  0  0  0  0  0
  -29.6870  -11.8204   17.4226 H   0  0  0  0  0  0  0  0  0  0  0  0
  -29.6375  -13.5326   17.8649 H   0  0  0  0  0  0  0  0  0  0  0  0
  -27.7830  -11.3650   18.7904 H   0  0  0  0  0  0  0  0  0  0  0  0
  -27.4028  -12.7801   17.8021 H   0  0  0  0  0  0  0  0  0  0  0  0
  -27.7353  -14.2503   19.6136 H   0  0  0  0  0  0  0  0  0  0  0  0
  -28.5890  -11.9550   21.3832 H   0  0  0  0  0  0  0  0  0  0  0  0
  -28.5005  -13.6134   21.8562 H   0  0  0  0  0  0  0  0  0  0  0  0
  -25.2399   -9.5495   22.4318 H   0  0  0  0  0  0  0  0  0  0  0  0
  -23.9663   -7.5070   22.7297 H   0  0  0  0  0  0  0  0  0  0  0  0
  -21.1515   -8.8641   19.9162 H   0  0  0  0  0  0  0  0  0  0  0  0
  -22.4016  -10.9115   19.6476 H   0  0  0  0  0  0  0  0  0  0  0  0
  -21.2319   -7.5552   23.9750 H   0  0  0  0  0  0  0  0  0  0  0  0
  -21.1589   -6.0228   25.8556 H   0  0  0  0  0  0  0  0  0  0  0  0
  -22.0396   -2.8212   23.2809 H   0  0  0  0  0  0  0  0  0  0  0  0
  -22.4401  -11.9703   22.4008 H   0  0  0  0  0  0  0  0  0  0  0  0
  -21.1493  -13.0679   22.2082 H   0  0  0  0  0  0  0  0  0  0  0  0
  -24.6538  -15.7807   20.5848 H   0  0  0  0  0  0  0  0  0  0  0  0
  -26.2762  -15.5453   20.1156 H   0  0  0  0  0  0  0  0  0  0  0  0
  -26.6778  -32.4663   23.1464 H   0  0  0  0  0  0  0  0  0  0  0  0
  -25.0747  -34.0282   25.0566 H   0  0  0  0  0  0  0  0  0  0  0  0
  -22.7881  -31.3489   21.4131 H   0  0  0  0  0  0  0  0  0  0  0  0
  -23.3854  -35.9823   23.3648 H   0  0  0  0  0  0  0  0  0  0  0  0
  -24.3696  -36.8624   22.2204 H   0  0  0  0  0  0  0  0  0  0  0  0
  -23.7669  -37.6632   23.6516 H   0  0  0  0  0  0  0  0  0  0  0  0
  -25.9445  -31.6237   20.5691 H   0  0  0  0  0  0  0  0  0  0  0  0
  -26.7436  -31.0079   22.0108 H   0  0  0  0  0  0  0  0  0  0  0  0
  -28.0090  -29.1452   21.2057 H   0  0  0  0  0  0  0  0  0  0  0  0
  -26.1369  -26.0560   19.0719 H   0  0  0  0  0  0  0  0  0  0  0  0
  -24.0652  -27.2961   19.0997 H   0  0  0  0  0  0  0  0  0  0  0  0
  -23.6156  -30.5365   19.3930 H   0  0  0  0  0  0  0  0  0  0  0  0
  -22.7355  -29.1425   19.9945 H   0  0  0  0  0  0  0  0  0  0  0  0
  -25.1353  -36.2335   25.0565 H   0  0  0  0  0  0  0  0  0  0  0  0
  -21.0070  -28.3206   24.0793 H   0  0  0  0  0  0  0  0  0  0  0  0
  -20.5555  -26.2518   23.3550 H   0  0  0  0  0  0  0  0  0  0  0  0
  -21.5974  -26.8362   22.0454 H   0  0  0  0  0  0  0  0  0  0  0  0
  -19.6810  -25.6422   21.1488 H   0  0  0  0  0  0  0  0  0  0  0  0
  -19.6406  -27.3343   20.7034 H   0  0  0  0  0  0  0  0  0  0  0  0
  -17.4282  -26.6888   21.4113 H   0  0  0  0  0  0  0  0  0  0  0  0
  -18.0803  -26.0130   22.9049 H   0  0  0  0  0  0  0  0  0  0  0  0
  -19.7265  -30.6774   24.2204 H   0  0  0  0  0  0  0  0  0  0  0  0
  -17.5064  -31.5856   24.4483 H   0  0  0  0  0  0  0  0  0  0  0  0
  -15.5878  -30.2839   23.7407 H   0  0  0  0  0  0  0  0  0  0  0  0
  -15.9120  -28.0941   22.7766 H   0  0  0  0  0  0  0  0  0  0  0  0
  -24.5787  -30.7757   25.6817 H   0  0  0  0  0  0  0  0  0  0  0  0
  -25.0041  -32.2289   26.5536 H   0  0  0  0  0  0  0  0  0  0  0  0
  -25.8166  -30.7245   26.9138 H   0  0  0  0  0  0  0  0  0  0  0  0
  -26.2892  -29.7335   24.0803 H   0  0  0  0  0  0  0  0  0  0  0  0
  -27.4336  -29.7484   25.4006 H   0  0  0  0  0  0  0  0  0  0  0  0
  -27.8466  -30.4994   23.8779 H   0  0  0  0  0  0  0  0  0  0  0  0
  -27.2251  -33.3632   26.1242 H   0  0  0  0  0  0  0  0  0  0  0  0
  -28.3902  -32.6065   25.0645 H   0  0  0  0  0  0  0  0  0  0  0  0
  -27.9772  -31.8555   26.5872 H   0  0  0  0  0  0  0  0  0  0  0  0
  -28.2744  -38.0016   24.6863 H   0  0  0  0  0  0  0  0  0  0  0  0
  -28.0396  -36.2711   24.7461 H   0  0  0  0  0  0  0  0  0  0  0  0
  -27.1773  -37.3087   25.8564 H   0  0  0  0  0  0  0  0  0  0  0  0
  -20.9627  -29.9365   21.7352 H   0  0  0  0  0  0  0  0  0  0  0  0
  -26.0447  -38.2561   24.0273 H   0  0  0  0  0  0  0  0  0  0  0  0
  -31.3578  -21.1116   20.3311 H   0  0  0  0  0  0  0  0  0  0  0  0
  -31.1089  -18.7046   20.1476 H   0  0  0  0  0  0  0  0  0  0  0  0
  -26.9686  -19.1751   19.5941 H   0  0  0  0  0  0  0  0  0  0  0  0
  -25.9713  -21.2231   19.5787 H   0  0  0  0  0  0  0  0  0  0  0  0
  -26.9532  -22.5048   18.9108 H   0  0  0  0  0  0  0  0  0  0  0  0
  -26.7092  -22.4007   20.6378 H   0  0  0  0  0  0  0  0  0  0  0  0
  -28.7498  -25.6139   16.9620 H   0  0  0  0  0  0  0  0  0  0  0  0
  -30.4601  -25.2763   16.8436 H   0  0  0  0  0  0  0  0  0  0  0  0
  -29.9146  -26.8266   17.4370 H   0  0  0  0  0  0  0  0  0  0  0  0
  -30.4334  -23.2217   20.6415 H   0  0  0  0  0  0  0  0  0  0  0  0
  -28.6873  -23.4088   20.7832 H   0  0  0  0  0  0  0  0  0  0  0  0
  -28.4678  -23.5374   18.3909 H   0  0  0  0  0  0  0  0  0  0  0  0
  -30.2248  -23.2721   18.2298 H   0  0  0  0  0  0  0  0  0  0  0  0
  -28.8299  -25.4616   20.6506 H   0  0  0  0  0  0  0  0  0  0  0  0
  -28.0031  -26.0336   18.8828 H   0  0  0  0  0  0  0  0  0  0  0  0
  -28.0294  -17.1185   19.3015 H   0  0  0  0  0  0  0  0  0  0  0  0
  -31.6627  -25.0117   18.8788 H   0  0  0  0  0  0  0  0  0  0  0  0
  1 25  1  0
  1 30  2  0
  1 83  1  0
  2  3  1  0
  2 25  1  0
  2 85  1  0
  2 86  1  0
  3  4  1  0
  3 87  1  0
  3 88  1  0
  4  5  1  0
  4 89  1  0
  4 90  1  0
  5  6  1  0
  5 26  1  0
  5 91  1  6
  6 25  1  0
  6 92  1  0
  6 93  1  0
  7  8  2  0
  7 26  1  0
  7 29  1  0
  8  9  1  0
  8 22  1  0
  9 10  1  0
  9 27  2  0
 10 11  2  0
 10 15  1  0
 11 12  1  0
 11 94  1  0
 12 13  2  0
 12 95  1  0
 13 14  1  0
 13 31  1  0
 14 15  2  0
 14 96  1  0
 15 97  1  0
 16 17  2  0
 16 21  1  0
 16 31  1  0
 17 18  1  0
 17 98  1  0
 18 19  2  0
 18 99  1  0
 19 20  1  0
 19 24  1  0
 20 21  2  0
 20100  1  0
 21 23  1  0
 22 28  1  0
 22 32  2  0
 26 27  1  0
 28101  1  0
 28102  1  0
 29103  1  0
 29104  1  0
 33 34  1  0
 33 66  1  0
 33 70  2  0
 34 36  1  0
 34 59  1  0
 34105  1  6
 35 44  2  0
 35 45  1  0
 35 68  1  0
 36 56  1  0
 36106  1  0
 37 39  1  0
 37 47  1  0
 37 66  1  0
 37107  1  6
 38 43  2  0
 38 46  1  0
 38 47  1  0
 39 64  1  0
 39 67  2  0
 40 52  1  0
 40 53  2  0
 40 58  1  0
 41108  1  0
 41109  1  0
 41110  1  0
 42 43  1  0
 42 66  1  0
 42111  1  0
 42112  1  0
 43 44  1  0
 44113  1  0
 45 46  2  0
 45114  1  0
 46115  1  0
 47116  1  0
 47117  1  0
 48 41  1  0
 48 56  1  0
 48 65  1  0
 48118  1  1
 49 50  1  0
 49 53  1  0
 49 64  1  0
 49119  1  1
 50 51  1  0
 50120  1  0
 50121  1  0
 51 52  1  0
 51122  1  0
 51123  1  0
 52124  1  0
 52125  1  0
 53 54  1  0
 54 55  2  0
 54126  1  0
 55 57  1  0
 55127  1  0
 56 69  2  0
 57 58  2  0
 57128  1  0
 58129  1  0
 59 60  1  0
 59 61  1  0
 59 62  1  0
 60130  1  0
 60131  1  0
 60132  1  0
 61133  1  0
 61134  1  0
 61135  1  0
 62136  1  0
 62137  1  0
 62138  1  0
 63 65  1  0
 63139  1  0
 63140  1  0
 63141  1  0
 64142  1  0
 65143  1  0
 68 81  1  0
 71 72  2  0
 71 74  1  0
 71144  1  0
 72 76  1  0
 72145  1  0
 73 75  1  0
 73 76  2  0
 73146  1  0
 74 75  2  0
 74 79  1  0
 75 77  1  0
 76 83  1  0
 77147  1  0
 77148  1  0
 77149  1  0
 78150  1  0
 78151  1  0
 78152  1  0
 79 80  1  0
 79153  1  0
 79154  1  0
 80 82  1  0
 80155  1  0
 80156  1  0
 81 82  1  0
 81157  1  0
 81158  1  0
 82 78  1  0
 82 84  1  1
 83159  1  0
 84160  1  0
M  ISO  4   1 100  68 101  81 101  83 100
M  END
$$$$
16
     RDKit          3D

160168  0  0  0  0  0  0  0  0999 V2000
  -30.7652  -14.3608   20.6636 C   0  0  0  0  0  0  0  0  0100  0  0
  -30.4392  -12.2669   19.3775 C   0  0  0  0  0  0  0  0  0101  0  0
  -29.4791  -12.5281   18.1977 C   0  0  0  0  0  0  0  0  0102  0  0
  -27.9985  -12.3963   18.6038 C   0  0  0  0  0  0  0  0  0103  0  0
  -27.6639  -13.2170   19.8820 C   0  0  2  0  0  0  0  0  0104  0  0
  -28.6795  -12.9602   21.0279 C   0  0  0  0  0  0  0  0  0105  0  0
  -25.2633  -13.8245   20.5754 C   0  0  0  0  0  0  0  0  0106  0  0
  -24.1645  -13.0409   20.9408 C   0  0  0  0  0  0  0  0  0107  0  0
  -24.6400  -11.7009   20.8697 C   0  0  0  0  0  0  0  0  0108  0  0
  -23.9005  -10.4085   21.0420 C   0  0  0  0  0  0  0  0  0109  0  0
  -24.3588   -9.4123   21.9123 C   0  0  0  0  0  0  0  0  0110  0  0
  -23.6296   -8.2350   22.0803 C   0  0  0  0  0  0  0  0  0111  0  0
  -22.4385   -8.0419   21.3657 C   0  0  0  0  0  0  0  0  0112  0  0
  -22.0103   -9.0167   20.4678 C   0  0  0  0  0  0  0  0  0113  0  0
  -22.7317  -10.1925   20.3102 C   0  0  0  0  0  0  0  0  0114  0  0
  -21.6857   -6.0709   22.5391 C   0  0  0  0  0  0  0  0  0115  0  0
  -21.4064   -6.5490   23.8264 C   0  0  0  0  0  0  0  0  0116  0  0
  -21.3635   -5.6677   24.9085 C   0  0  0  0  0  0  0  0  0117  0  0
  -21.5973   -4.3067   24.7088 C   0  0  0  0  0  0  0  0  0118  0  0
  -21.8700   -3.8284   23.4282 C   0  0  0  0  0  0  0  0  0119  0  0
  -21.9144   -4.7056   22.3460 C   0  0  0  0  0  0  0  0  0120  0  0
  -22.8194  -13.5263   21.1763 C   0  0  0  0  0  0  0  0  0121  0  0
  -22.1559   -4.2206   21.1063 F   0  0  0  0  0  0  0  0  0122  0  0
  -21.5628   -3.4510   25.7555 F   0  0  0  0  0  0  0  0  0123  0  0
  -30.0261  -13.1803   20.4553 N   0  0  0  0  0  0  0  0  0124  0  0
  -26.2911  -12.9356   20.3443 N   0  0  0  0  0  0  0  0  0125  0  0
  -25.9236  -11.6675   20.5847 N   0  0  0  0  0  0  0  0  0126  0  0
  -22.0708  -12.7905   22.0005 N   0  0  0  0  0  0  0  0  0127  0  0
  -25.4117  -15.1773   20.4097 N   0  0  0  0  0  0  0  0  0128  0  0
  -31.7916  -14.6724   20.0536 O   0  0  0  0  0  0  0  0  0129  0  0
  -21.6670   -6.9022   21.4423 O   0  0  0  0  0  0  0  0  0130  0  0
  -22.3946  -14.5564   20.6568 O   0  0  0  0  0  0  0  0  0131  0  0
  -24.6048  -31.8614   23.2223 C   0  0  0  0  0  0  0  0  0100  0  0
  -25.8822  -32.4841   23.8616 C   0  0  1  0  0  0  0  0  0101  0  0
  -27.2536  -27.5042   20.1156 C   0  0  0  0  0  0  0  0  0102  0  0
  -25.5726  -33.8762   24.2210 N   0  0  0  0  0  0  0  0  0103  0  0
  -23.4066  -30.4859   21.5461 C   0  0  2  0  0  0  0  0  0104  0  0
  -24.8467  -28.9636   20.1247 C   0  0  0  0  0  0  0  0  0105  0  0
  -22.7412  -29.4652   22.5052 C   0  0  0  0  0  0  0  0  0106  0  0
  -18.0167  -28.1302   22.8626 C   0  0  0  0  0  0  0  0  0107  0  0
  -24.1342  -36.7390   23.2568 C   0  0  0  0  0  0  0  0  0108  0  0
  -25.9141  -30.8882   21.3456 C   0  0  0  0  0  0  0  0  0109  0  0
  -25.9930  -29.5029   20.7208 C   0  0  0  0  0  0  0  0  0110  0  0
  -27.1758  -28.7612   20.7331 C   0  0  0  0  0  0  0  0  0111  0  0
  -26.1032  -26.9836   19.5230 C   0  0  0  0  0  0  0  0  0112  0  0
  -24.9097  -27.7011   19.5331 C   0  0  0  0  0  0  0  0  0113  0  0
  -23.5715  -29.7899   20.1582 C   0  0  0  0  0  0  0  0  0114  0  0
  -25.3990  -36.3212   24.0232 C   0  0  1  0  0  0  0  0  0115  0  0
  -20.5793  -28.3813   23.1004 C   0  0  2  0  0  0  0  0  0116  0  0
  -20.6548  -26.9392   22.5411 C   0  0  0  0  0  0  0  0  0117  0  0
  -19.5615  -26.6407   21.5143 C   0  0  0  0  0  0  0  0  0118  0  0
  -18.1797  -26.7818   22.1673 C   0  0  0  0  0  0  0  0  0119  0  0
  -19.1385  -28.8769   23.2988 C   0  0  0  0  0  0  0  0  0120  0  0
  -18.9183  -30.1286   23.8878 C   0  0  0  0  0  0  0  0  0121  0  0
  -17.6396  -30.6493   24.0352 C   0  0  0  0  0  0  0  0  0122  0  0
  -25.9153  -34.9582   23.4993 C   0  0  0  0  0  0  0  0  0123  0  0
  -16.5415  -29.9068   23.6254 C   0  0  0  0  0  0  0  0  0124  0  0
  -16.7331  -28.6521   23.0586 C   0  0  0  0  0  0  0  0  0125  0  0
  -26.4583  -31.6439   25.0683 C   0  0  0  0  0  0  0  0  0126  0  0
  -25.3807  -31.3179   26.1374 C   0  0  0  0  0  0  0  0  0127  0  0
  -27.0530  -30.3024   24.5680 C   0  0  0  0  0  0  0  0  0128  0  0
  -27.6014  -32.4281   25.7651 C   0  0  0  0  0  0  0  0  0129  0  0
  -27.5629  -37.2220   24.8621 C   0  0  0  0  0  0  0  0  0130  0  0
  -21.4133  -29.3375   22.3735 N   0  0  0  0  0  0  0  0  0131  0  0
  -26.4706  -37.3372   23.9061 N   0  0  0  0  0  0  0  0  0132  0  0
  -24.6674  -31.0544   22.1178 N   0  0  0  0  0  0  0  0  0133  0  0
  -23.4259  -28.8150   23.2971 O   0  0  0  0  0  0  0  0  0134  0  0
  -28.3948  -26.7345   20.0089 O   0  0  0  0  0  0  0  0  0135  0  0
  -26.5870  -34.9065   22.4671 O   0  0  0  0  0  0  0  0  0136  0  0
  -23.5365  -32.1254   23.7833 O   0  0  0  0  0  0  0  0  0137  0  0
  -28.6980  -13.0884   20.8512 C   0  0  0  0  0  0  0  0  0  0  0  0
  -29.8860  -13.1887   18.7499 C   0  0  0  0  0  0  0  0  0  0  0  0
  -27.6158  -12.3647   18.8160 C   0  0  0  0  0  0  0  0  0  0  0  0
  -29.8507  -13.3964   20.1288 C   0  0  0  0  0  0  0  0  0  0  0  0
  -27.5805  -12.5725   20.1949 C   0  0  0  0  0  0  0  0  0  0  0  0
  -28.7685  -12.6728   18.0935 C   0  0  0  0  0  0  0  0  0  0  0  0
  -31.0162  -13.9339   20.8128 C   0  0  0  0  0  0  0  0  0  0  0  0
  -24.4403  -12.8226   23.3333 C   0  0  0  0  0  0  0  0  0  0  0  0
  -23.1990  -12.1421   21.2636 C   0  0  0  0  0  0  0  0  0  0  0  0
  -26.3324  -12.2394   20.9763 C   0  0  0  0  0  0  0  0  0  0  0  0
  -25.3831  -13.4433   21.0532 C   0  0  0  0  0  0  0  0  0  0  0  0
  -23.2816  -14.5510   21.9152 C   0  0  0  0  0  0  0  0  0  1  0  0
  -24.0893  -13.2299   21.8901 C   0  0  0  0  0  0  0  0  0  0  0  0
  -32.1275  -14.2422   20.2007 N   0  0  0  0  0  0  0  0  0  0  0  0
  -28.8022  -12.4735   16.7693 F   0  0  0  0  0  0  0  0  0  0  0  0
  -31.4485  -12.4701   19.0860 H   0  0  0  0  0  0  0  0  0  0  0  0
  -30.3970  -11.2460   19.6950 H   0  0  0  0  0  0  0  0  0  0  0  0
  -29.6870  -11.8204   17.4226 H   0  0  0  0  0  0  0  0  0  0  0  0
  -29.6375  -13.5326   17.8649 H   0  0  0  0  0  0  0  0  0  0  0  0
  -27.7830  -11.3650   18.7904 H   0  0  0  0  0  0  0  0  0  0  0  0
  -27.4028  -12.7801   17.8021 H   0  0  0  0  0  0  0  0  0  0  0  0
  -27.7353  -14.2503   19.6136 H   0  0  0  0  0  0  0  0  0  0  0  0
  -28.5890  -11.9550   21.3832 H   0  0  0  0  0  0  0  0  0  0  0  0
  -28.5005  -13.6134   21.8562 H   0  0  0  0  0  0  0  0  0  0  0  0
  -25.2399   -9.5495   22.4318 H   0  0  0  0  0  0  0  0  0  0  0  0
  -23.9663   -7.5070   22.7297 H   0  0  0  0  0  0  0  0  0  0  0  0
  -21.1515   -8.8641   19.9162 H   0  0  0  0  0  0  0  0  0  0  0  0
  -22.4016  -10.9115   19.6476 H   0  0  0  0  0  0  0  0  0  0  0  0
  -21.2319   -7.5552   23.9750 H   0  0  0  0  0  0  0  0  0  0  0  0
  -21.1589   -6.0228   25.8556 H   0  0  0  0  0  0  0  0  0  0  0  0
  -22.0396   -2.8212   23.2809 H   0  0  0  0  0  0  0  0  0  0  0  0
  -22.4401  -11.9703   22.4008 H   0  0  0  0  0  0  0  0  0  0  0  0
  -21.1493  -13.0679   22.2082 H   0  0  0  0  0  0  0  0  0  0  0  0
  -24.6538  -15.7807   20.5848 H   0  0  0  0  0  0  0  0  0  0  0  0
  -26.2762  -15.5453   20.1156 H   0  0  0  0  0  0  0  0  0  0  0  0
  -26.6778  -32.4663   23.1464 H   0  0  0  0  0  0  0  0  0  0  0  0
  -25.0747  -34.0282   25.0566 H   0  0  0  0  0  0  0  0  0  0  0  0
  -22.7881  -31.3489   21.4131 H   0  0  0  0  0  0  0  0  0  0  0  0
  -23.3854  -35.9823   23.3648 H   0  0  0  0  0  0  0  0  0  0  0  0
  -24.3696  -36.8624   22.2204 H   0  0  0  0  0  0  0  0  0  0  0  0
  -23.7669  -37.6632   23.6516 H   0  0  0  0  0  0  0  0  0  0  0  0
  -25.9445  -31.6237   20.5691 H   0  0  0  0  0  0  0  0  0  0  0  0
  -26.7436  -31.0079   22.0108 H   0  0  0  0  0  0  0  0  0  0  0  0
  -28.0090  -29.1452   21.2057 H   0  0  0  0  0  0  0  0  0  0  0  0
  -26.1369  -26.0560   19.0719 H   0  0  0  0  0  0  0  0  0  0  0  0
  -24.0652  -27.2961   19.0997 H   0  0  0  0  0  0  0  0  0  0  0  0
  -23.6156  -30.5365   19.3930 H   0  0  0  0  0  0  0  0  0  0  0  0
  -22.7355  -29.1425   19.9945 H   0  0  0  0  0  0  0  0  0  0  0  0
  -25.1353  -36.2335   25.0565 H   0  0  0  0  0  0  0  0  0  0  0  0
  -21.0070  -28.3206   24.0793 H   0  0  0  0  0  0  0  0  0  0  0  0
  -20.5555  -26.2518   23.3550 H   0  0  0  0  0  0  0  0  0  0  0  0
  -21.5974  -26.8362   22.0454 H   0  0  0  0  0  0  0  0  0  0  0  0
  -19.6810  -25.6422   21.1488 H   0  0  0  0  0  0  0  0  0  0  0  0
  -19.6406  -27.3343   20.7034 H   0  0  0  0  0  0  0  0  0  0  0  0
  -17.4282  -26.6888   21.4113 H   0  0  0  0  0  0  0  0  0  0  0  0
  -18.0803  -26.0130   22.9049 H   0  0  0  0  0  0  0  0  0  0  0  0
  -19.7265  -30.6774   24.2204 H   0  0  0  0  0  0  0  0  0  0  0  0
  -17.5064  -31.5856   24.4483 H   0  0  0  0  0  0  0  0  0  0  0  0
  -15.5878  -30.2839   23.7407 H   0  0  0  0  0  0  0  0  0  0  0  0
  -15.9120  -28.0941   22.7766 H   0  0  0  0  0  0  0  0  0  0  0  0
  -24.5787  -30.7757   25.6817 H   0  0  0  0  0  0  0  0  0  0  0  0
  -25.0041  -32.2289   26.5536 H   0  0  0  0  0  0  0  0  0  0  0  0
  -25.8166  -30.7245   26.9138 H   0  0  0  0  0  0  0  0  0  0  0  0
  -26.2892  -29.7335   24.0803 H   0  0  0  0  0  0  0  0  0  0  0  0
  -27.4336  -29.7484   25.4006 H   0  0  0  0  0  0  0  0  0  0  0  0
  -27.8466  -30.4994   23.8779 H   0  0  0  0  0  0  0  0  0  0  0  0
  -27.2251  -33.3632   26.1242 H   0  0  0  0  0  0  0  0  0  0  0  0
  -28.3902  -32.6065   25.0645 H   0  0  0  0  0  0  0  0  0  0  0  0
  -27.9772  -31.8555   26.5872 H   0  0  0  0  0  0  0  0  0  0  0  0
  -28.2744  -38.0016   24.6863 H   0  0  0  0  0  0  0  0  0  0  0  0
  -28.0396  -36.2711   24.7461 H   0  0  0  0  0  0  0  0  0  0  0  0
  -27.1773  -37.3087   25.8564 H   0  0  0  0  0  0  0  0  0  0  0  0
  -20.9627  -29.9365   21.7352 H   0  0  0  0  0  0  0  0  0  0  0  0
  -26.0447  -38.2561   24.0273 H   0  0  0  0  0  0  0  0  0  0  0  0
  -28.6719  -13.2422   21.8713 H   0  0  0  0  0  0  0  0  0  0  0  0
  -30.7388  -13.4167   18.2154 H   0  0  0  0  0  0  0  0  0  0  0  0
  -26.7891  -11.9830   18.3304 H   0  0  0  0  0  0  0  0  0  0  0  0
  -24.9986  -11.9099   23.3205 H   0  0  0  0  0  0  0  0  0  0  0  0
  -23.5395  -12.6818   23.8933 H   0  0  0  0  0  0  0  0  0  0  0  0
  -25.0267  -13.5931   23.7888 H   0  0  0  0  0  0  0  0  0  0  0  0
  -23.7345  -11.2162   21.2341 H   0  0  0  0  0  0  0  0  0  0  0  0
  -22.9301  -12.4305   20.2689 H   0  0  0  0  0  0  0  0  0  0  0  0
  -22.3134  -12.0233   21.8522 H   0  0  0  0  0  0  0  0  0  0  0  0
  -26.6094  -11.9503   21.9686 H   0  0  0  0  0  0  0  0  0  0  0  0
  -25.8247  -11.4410   20.4766 H   0  0  0  0  0  0  0  0  0  0  0  0
  -25.0912  -13.6960   20.0553 H   0  0  0  0  0  0  0  0  0  0  0  0
  -25.9303  -14.2146   21.5538 H   0  0  0  0  0  0  0  0  0  0  0  0
  -22.8205  -14.5840   22.8802 H   0  0  0  0  0  0  0  0  0  0  0  0
  -22.7094  -14.4418   21.0177 H   0  0  0  0  0  0  0  0  0  0  0  0
  -32.9013  -13.6355   20.2500 H   0  0  0  0  0  0  0  0  0  0  0  0
  1 25  1  0
  1 30  2  0
  1 77  1  0
  2  3  1  0
  2 25  1  0
  2 86  1  0
  2 87  1  0
  3  4  1  0
  3 88  1  0
  3 89  1  0
  4  5  1  0
  4 90  1  0
  4 91  1  0
  5  6  1  0
  5 26  1  0
  5 92  1  6
  6 25  1  0
  6 93  1  0
  6 94  1  0
  7  8  2  0
  7 26  1  0
  7 29  1  0
  8  9  1  0
  8 22  1  0
  9 10  1  0
  9 27  2  0
 10 11  2  0
 10 15  1  0
 11 12  1  0
 11 95  1  0
 12 13  2  0
 12 96  1  0
 13 14  1  0
 13 31  1  0
 14 15  2  0
 14 97  1  0
 15 98  1  0
 16 17  2  0
 16 21  1  0
 16 31  1  0
 17 18  1  0
 17 99  1  0
 18 19  2  0
 18100  1  0
 19 20  1  0
 19 24  1  0
 20 21  2  0
 20101  1  0
 21 23  1  0
 22 28  1  0
 22 32  2  0
 26 27  1  0
 28102  1  0
 28103  1  0
 29104  1  0
 29105  1  0
 33 34  1  0
 33 66  1  0
 33 70  2  0
 34 36  1  0
 34 59  1  0
 34106  1  6
 35 44  2  0
 35 45  1  0
 35 68  1  0
 36 56  1  0
 36107  1  0
 37 39  1  0
 37 47  1  0
 37 66  1  0
 37108  1  6
 38 43  2  0
 38 46  1  0
 38 47  1  0
 39 64  1  0
 39 67  2  0
 40 52  1  0
 40 53  2  0
 40 58  1  0
 41109  1  0
 41110  1  0
 41111  1  0
 42 43  1  0
 42 66  1  0
 42112  1  0
 42113  1  0
 43 44  1  0
 44114  1  0
 45 46  2  0
 45115  1  0
 46116  1  0
 47117  1  0
 47118  1  0
 48 41  1  0
 48 56  1  0
 48 65  1  0
 48119  1  1
 49 50  1  0
 49 53  1  0
 49 64  1  0
 49120  1  1
 50 51  1  0
 50121  1  0
 50122  1  0
 51 52  1  0
 51123  1  0
 51124  1  0
 52125  1  0
 52126  1  0
 53 54  1  0
 54 55  2  0
 54127  1  0
 55 57  1  0
 55128  1  0
 56 69  2  0
 57 58  2  0
 57129  1  0
 58130  1  0
 59 60  1  0
 59 61  1  0
 59 62  1  0
 60131  1  0
 60132  1  0
 60133  1  0
 61134  1  0
 61135  1  0
 61136  1  0
 62137  1  0
 62138  1  0
 62139  1  0
 63 65  1  0
 63140  1  0
 63141  1  0
 63142  1  0
 64143  1  0
 65144  1  0
 68 82  1  0
 71 74  2  0
 71 75  1  0
 71145  1  0
 72 74  1  0
 72 76  2  0
 72146  1  0
 73 75  2  0
 73 76  1  0
 73147  1  0
 74 77  1  0
 75 80  1  0
 76 85  1  0
 77 84  2  0
 78148  1  0
 78149  1  0
 78150  1  0
 79 83  1  0
 79151  1  0
 79152  1  0
 79153  1  0
 80 81  1  0
 80154  1  0
 80155  1  0
 81 83  1  0
 81156  1  0
 81157  1  0
 82 83  1  0
 82158  1  0
 82159  1  0
 83 78  1  0
 84160  1  0
M  ISO  4   1 100  68 101  77 100  82 101
M  END
$$$$
17
     RDKit          3D

165173  0  0  0  0  0  0  0  0999 V2000
  -30.7652  -14.3608   20.6636 C   0  0  0  0  0  0  0  0  0100  0  0
  -30.4392  -12.2669   19.3775 C   0  0  0  0  0  0  0  0  0101  0  0
  -29.4791  -12.5281   18.1977 C   0  0  0  0  0  0  0  0  0102  0  0
  -27.9985  -12.3963   18.6038 C   0  0  0  0  0  0  0  0  0103  0  0
  -27.6639  -13.2170   19.8820 C   0  0  2  0  0  0  0  0  0104  0  0
  -28.6795  -12.9602   21.0279 C   0  0  0  0  0  0  0  0  0105  0  0
  -25.2633  -13.8245   20.5754 C   0  0  0  0  0  0  0  0  0106  0  0
  -24.1645  -13.0409   20.9408 C   0  0  0  0  0  0  0  0  0107  0  0
  -24.6400  -11.7009   20.8697 C   0  0  0  0  0  0  0  0  0108  0  0
  -23.9005  -10.4085   21.0420 C   0  0  0  0  0  0  0  0  0109  0  0
  -24.3588   -9.4123   21.9123 C   0  0  0  0  0  0  0  0  0110  0  0
  -23.6296   -8.2350   22.0803 C   0  0  0  0  0  0  0  0  0111  0  0
  -22.4385   -8.0419   21.3657 C   0  0  0  0  0  0  0  0  0112  0  0
  -22.0103   -9.0167   20.4678 C   0  0  0  0  0  0  0  0  0113  0  0
  -22.7317  -10.1925   20.3102 C   0  0  0  0  0  0  0  0  0114  0  0
  -21.6857   -6.0709   22.5391 C   0  0  0  0  0  0  0  0  0115  0  0
  -21.4064   -6.5490   23.8264 C   0  0  0  0  0  0  0  0  0116  0  0
  -21.3635   -5.6677   24.9085 C   0  0  0  0  0  0  0  0  0117  0  0
  -21.5973   -4.3067   24.7088 C   0  0  0  0  0  0  0  0  0118  0  0
  -21.8700   -3.8284   23.4282 C   0  0  0  0  0  0  0  0  0119  0  0
  -21.9144   -4.7056   22.3460 C   0  0  0  0  0  0  0  0  0120  0  0
  -22.8194  -13.5263   21.1763 C   0  0  0  0  0  0  0  0  0121  0  0
  -22.1559   -4.2206   21.1063 F   0  0  0  0  0  0  0  0  0122  0  0
  -21.5628   -3.4510   25.7555 F   0  0  0  0  0  0  0  0  0123  0  0
  -30.0261  -13.1803   20.4553 N   0  0  0  0  0  0  0  0  0124  0  0
  -26.2911  -12.9356   20.3443 N   0  0  0  0  0  0  0  0  0125  0  0
  -25.9236  -11.6675   20.5847 N   0  0  0  0  0  0  0  0  0126  0  0
  -22.0708  -12.7905   22.0005 N   0  0  0  0  0  0  0  0  0127  0  0
  -25.4117  -15.1773   20.4097 N   0  0  0  0  0  0  0  0  0128  0  0
  -31.7916  -14.6724   20.0536 O   0  0  0  0  0  0  0  0  0129  0  0
  -21.6670   -6.9022   21.4423 O   0  0  0  0  0  0  0  0  0130  0  0
  -22.3946  -14.5564   20.6568 O   0  0  0  0  0  0  0  0  0131  0  0
  -24.6048  -31.8614   23.2223 C   0  0  0  0  0  0  0  0  0100  0  0
  -25.8822  -32.4841   23.8616 C   0  0  1  0  0  0  0  0  0101  0  0
  -27.2536  -27.5042   20.1156 C   0  0  0  0  0  0  0  0  0102  0  0
  -25.5726  -33.8762   24.2210 N   0  0  0  0  0  0  0  0  0103  0  0
  -23.4066  -30.4859   21.5461 C   0  0  2  0  0  0  0  0  0104  0  0
  -24.8467  -28.9636   20.1247 C   0  0  0  0  0  0  0  0  0105  0  0
  -22.7412  -29.4652   22.5052 C   0  0  0  0  0  0  0  0  0106  0  0
  -18.0167  -28.1302   22.8626 C   0  0  0  0  0  0  0  0  0107  0  0
  -24.1342  -36.7390   23.2568 C   0  0  0  0  0  0  0  0  0108  0  0
  -25.9141  -30.8882   21.3456 C   0  0  0  0  0  0  0  0  0109  0  0
  -25.9930  -29.5029   20.7208 C   0  0  0  0  0  0  0  0  0110  0  0
  -27.1758  -28.7612   20.7331 C   0  0  0  0  0  0  0  0  0111  0  0
  -26.1032  -26.9836   19.5230 C   0  0  0  0  0  0  0  0  0112  0  0
  -24.9097  -27.7011   19.5331 C   0  0  0  0  0  0  0  0  0113  0  0
  -23.5715  -29.7899   20.1582 C   0  0  0  0  0  0  0  0  0114  0  0
  -25.3990  -36.3212   24.0232 C   0  0  1  0  0  0  0  0  0115  0  0
  -20.5793  -28.3813   23.1004 C   0  0  2  0  0  0  0  0  0116  0  0
  -20.6548  -26.9392   22.5411 C   0  0  0  0  0  0  0  0  0117  0  0
  -19.5615  -26.6407   21.5143 C   0  0  0  0  0  0  0  0  0118  0  0
  -18.1797  -26.7818   22.1673 C   0  0  0  0  0  0  0  0  0119  0  0
  -19.1385  -28.8769   23.2988 C   0  0  0  0  0  0  0  0  0120  0  0
  -18.9183  -30.1286   23.8878 C   0  0  0  0  0  0  0  0  0121  0  0
  -17.6396  -30.6493   24.0352 C   0  0  0  0  0  0  0  0  0122  0  0
  -25.9153  -34.9582   23.4993 C   0  0  0  0  0  0  0  0  0123  0  0
  -16.5415  -29.9068   23.6254 C   0  0  0  0  0  0  0  0  0124  0  0
  -16.7331  -28.6521   23.0586 C   0  0  0  0  0  0  0  0  0125  0  0
  -26.4583  -31.6439   25.0683 C   0  0  0  0  0  0  0  0  0126  0  0
  -25.3807  -31.3179   26.1374 C   0  0  0  0  0  0  0  0  0127  0  0
  -27.0530  -30.3024   24.5680 C   0  0  0  0  0  0  0  0  0128  0  0
  -27.6014  -32.4281   25.7651 C   0  0  0  0  0  0  0  0  0129  0  0
  -27.5629  -37.2220   24.8621 C   0  0  0  0  0  0  0  0  0130  0  0
  -21.4133  -29.3375   22.3735 N   0  0  0  0  0  0  0  0  0131  0  0
  -26.4706  -37.3372   23.9061 N   0  0  0  0  0  0  0  0  0132  0  0
  -24.6674  -31.0544   22.1178 N   0  0  0  0  0  0  0  0  0133  0  0
  -23.4259  -28.8150   23.2971 O   0  0  0  0  0  0  0  0  0134  0  0
  -28.3948  -26.7345   20.0089 O   0  0  0  0  0  0  0  0  0135  0  0
  -26.5870  -34.9065   22.4671 O   0  0  0  0  0  0  0  0  0136  0  0
  -23.5365  -32.1254   23.7833 O   0  0  0  0  0  0  0  0  0137  0  0
  -28.5568  -21.0297   20.0176 C   0  0  0  0  0  0  0  0  0  0  0  0
  -30.5804  -19.2580   19.5571 C   0  0  0  0  0  0  0  0  0  0  0  0
  -28.2563  -19.6857   19.8265 C   0  0  0  0  0  0  0  0  0  0  0  0
  -29.2816  -18.7764   19.5914 C   0  0  0  0  0  0  0  0  0  0  0  0
  -29.8880  -21.4105   19.9644 C   0  0  0  0  0  0  0  0  0  0  0  0
  -29.9237  -23.3988   21.3411 C   0  0  0  0  0  0  0  0  0  0  0  0
  -30.2606  -22.8327   20.1621 C   0  0  0  0  0  0  0  0  0  0  0  0
  -26.8297  -19.2466   19.8787 C   0  0  0  0  0  0  0  0  0  0  0  0
  -30.1325  -24.1686   18.0267 C   0  0  0  0  0  0  0  0  0  0  0  0
  -29.5413  -24.8822   23.2991 C   0  0  0  0  0  0  0  0  0  0  0  0
  -31.6561  -25.0978   22.0040 C   0  0  0  0  0  0  0  0  0  0  0  0
  -31.0367  -23.4618   19.0298 C   0  0  0  0  0  0  0  0  0  0  0  0
  -29.4768  -25.9108   21.0203 C   0  0  0  0  0  0  0  0  0  1  0  0
  -30.1487  -24.8131   21.8748 C   0  0  0  0  0  0  0  0  0  0  0  0
  -30.9112  -20.5563   19.7382 N   0  0  0  0  0  0  0  0  0  0  0  0
  -29.0267  -17.3971   19.3907 N   0  0  0  0  0  0  0  0  0  0  0  0
  -31.4485  -12.4701   19.0860 H   0  0  0  0  0  0  0  0  0  0  0  0
  -30.3970  -11.2460   19.6950 H   0  0  0  0  0  0  0  0  0  0  0  0
  -29.6870  -11.8204   17.4226 H   0  0  0  0  0  0  0  0  0  0  0  0
  -29.6375  -13.5326   17.8649 H   0  0  0  0  0  0  0  0  0  0  0  0
  -27.7830  -11.3650   18.7904 H   0  0  0  0  0  0  0  0  0  0  0  0
  -27.4028  -12.7801   17.8021 H   0  0  0  0  0  0  0  0  0  0  0  0
  -27.7353  -14.2503   19.6136 H   0  0  0  0  0  0  0  0  0  0  0  0
  -28.5890  -11.9550   21.3832 H   0  0  0  0  0  0  0  0  0  0  0  0
  -28.5005  -13.6134   21.8562 H   0  0  0  0  0  0  0  0  0  0  0  0
  -25.2399   -9.5495   22.4318 H   0  0  0  0  0  0  0  0  0  0  0  0
  -23.9663   -7.5070   22.7297 H   0  0  0  0  0  0  0  0  0  0  0  0
  -21.1515   -8.8641   19.9162 H   0  0  0  0  0  0  0  0  0  0  0  0
  -22.4016  -10.9115   19.6476 H   0  0  0  0  0  0  0  0  0  0  0  0
  -21.2319   -7.5552   23.9750 H   0  0  0  0  0  0  0  0  0  0  0  0
  -21.1589   -6.0228   25.8556 H   0  0  0  0  0  0  0  0  0  0  0  0
  -22.0396   -2.8212   23.2809 H   0  0  0  0  0  0  0  0  0  0  0  0
  -22.4401  -11.9703   22.4008 H   0  0  0  0  0  0  0  0  0  0  0  0
  -21.1493  -13.0679   22.2082 H   0  0  0  0  0  0  0  0  0  0  0  0
  -24.6538  -15.7807   20.5848 H   0  0  0  0  0  0  0  0  0  0  0  0
  -26.2762  -15.5453   20.1156 H   0  0  0  0  0  0  0  0  0  0  0  0
  -26.6778  -32.4663   23.1464 H   0  0  0  0  0  0  0  0  0  0  0  0
  -25.0747  -34.0282   25.0566 H   0  0  0  0  0  0  0  0  0  0  0  0
  -22.7881  -31.3489   21.4131 H   0  0  0  0  0  0  0  0  0  0  0  0
  -23.3854  -35.9823   23.3648 H   0  0  0  0  0  0  0  0  0  0  0  0
  -24.3696  -36.8624   22.2204 H   0  0  0  0  0  0  0  0  0  0  0  0
  -23.7669  -37.6632   23.6516 H   0  0  0  0  0  0  0  0  0  0  0  0
  -25.9445  -31.6237   20.5691 H   0  0  0  0  0  0  0  0  0  0  0  0
  -26.7436  -31.0079   22.0108 H   0  0  0  0  0  0  0  0  0  0  0  0
  -28.0090  -29.1452   21.2057 H   0  0  0  0  0  0  0  0  0  0  0  0
  -26.1369  -26.0560   19.0719 H   0  0  0  0  0  0  0  0  0  0  0  0
  -24.0652  -27.2961   19.0997 H   0  0  0  0  0  0  0  0  0  0  0  0
  -23.6156  -30.5365   19.3930 H   0  0  0  0  0  0  0  0  0  0  0  0
  -22.7355  -29.1425   19.9945 H   0  0  0  0  0  0  0  0  0  0  0  0
  -25.1353  -36.2335   25.0565 H   0  0  0  0  0  0  0  0  0  0  0  0
  -21.0070  -28.3206   24.0793 H   0  0  0  0  0  0  0  0  0  0  0  0
  -20.5555  -26.2518   23.3550 H   0  0  0  0  0  0  0  0  0  0  0  0
  -21.5974  -26.8362   22.0454 H   0  0  0  0  0  0  0  0  0  0  0  0
  -19.6810  -25.6422   21.1488 H   0  0  0  0  0  0  0  0  0  0  0  0
  -19.6406  -27.3343   20.7034 H   0  0  0  0  0  0  0  0  0  0  0  0
  -17.4282  -26.6888   21.4113 H   0  0  0  0  0  0  0  0  0  0  0  0
  -18.0803  -26.0130   22.9049 H   0  0  0  0  0  0  0  0  0  0  0  0
  -19.7265  -30.6774   24.2204 H   0  0  0  0  0  0  0  0  0  0  0  0
  -17.5064  -31.5856   24.4483 H   0  0  0  0  0  0  0  0  0  0  0  0
  -15.5878  -30.2839   23.7407 H   0  0  0  0  0  0  0  0  0  0  0  0
  -15.9120  -28.0941   22.7766 H   0  0  0  0  0  0  0  0  0  0  0  0
  -24.5787  -30.7757   25.6817 H   0  0  0  0  0  0  0  0  0  0  0  0
  -25.0041  -32.2289   26.5536 H   0  0  0  0  0  0  0  0  0  0  0  0
  -25.8166  -30.7245   26.9138 H   0  0  0  0  0  0  0  0  0  0  0  0
  -26.2892  -29.7335   24.0803 H   0  0  0  0  0  0  0  0  0  0  0  0
  -27.4336  -29.7484   25.4006 H   0  0  0  0  0  0  0  0  0  0  0  0
  -27.8466  -30.4994   23.8779 H   0  0  0  0  0  0  0  0  0  0  0  0
  -27.2251  -33.3632   26.1242 H   0  0  0  0  0  0  0  0  0  0  0  0
  -28.3902  -32.6065   25.0645 H   0  0  0  0  0  0  0  0  0  0  0  0
  -27.9772  -31.8555   26.5872 H   0  0  0  0  0  0  0  0  0  0  0  0
  -28.2744  -38.0016   24.6863 H   0  0  0  0  0  0  0  0  0  0  0  0
  -28.0396  -36.2711   24.7461 H   0  0  0  0  0  0  0  0  0  0  0  0
  -27.1773  -37.3087   25.8564 H   0  0  0  0  0  0  0  0  0  0  0  0
  -20.9627  -29.9365   21.7352 H   0  0  0  0  0  0  0  0  0  0  0  0
  -26.0447  -38.2561   24.0273 H   0  0  0  0  0  0  0  0  0  0  0  0
  -27.8118  -21.7219   20.1935 H   0  0  0  0  0  0  0  0  0  0  0  0
  -31.3422  -18.5841   19.3825 H   0  0  0  0  0  0  0  0  0  0  0  0
  -29.4301  -22.7689   21.9928 H   0  0  0  0  0  0  0  0  0  0  0  0
  -26.2029  -20.0926   20.0692 H   0  0  0  0  0  0  0  0  0  0  0  0
  -26.7062  -18.5277   20.6615 H   0  0  0  0  0  0  0  0  0  0  0  0
  -26.5580  -18.8049   18.9427 H   0  0  0  0  0  0  0  0  0  0  0  0
  -30.7291  -24.5955   17.2478 H   0  0  0  0  0  0  0  0  0  0  0  0
  -29.5864  -24.9434   18.5230 H   0  0  0  0  0  0  0  0  0  0  0  0
  -29.4473  -23.4631   17.6052 H   0  0  0  0  0  0  0  0  0  0  0  0
  -29.9896  -24.1307   23.9149 H   0  0  0  0  0  0  0  0  0  0  0  0
  -28.4857  -24.7161   23.2451 H   0  0  0  0  0  0  0  0  0  0  0  0
  -29.7294  -25.8475   23.7206 H   0  0  0  0  0  0  0  0  0  0  0  0
  -32.1139  -24.3336   22.5968 H   0  0  0  0  0  0  0  0  0  0  0  0
  -31.8006  -26.0482   22.4738 H   0  0  0  0  0  0  0  0  0  0  0  0
  -32.1015  -25.1094   21.0312 H   0  0  0  0  0  0  0  0  0  0  0  0
  -31.5823  -22.6955   18.5199 H   0  0  0  0  0  0  0  0  0  0  0  0
  -31.6915  -24.1954   19.4516 H   0  0  0  0  0  0  0  0  0  0  0  0
  -30.3356  -26.0936   20.4088 H   0  0  0  0  0  0  0  0  0  0  0  0
  -28.7317  -25.9776   21.7853 H   0  0  0  0  0  0  0  0  0  0  0  0
  -28.2528  -17.2082   18.8122 H   0  0  0  0  0  0  0  0  0  0  0  0
  1 25  1  0
  1 30  2  0
  1 86  1  0
  2  3  1  0
  2 25  1  0
  2 87  1  0
  2 88  1  0
  3  4  1  0
  3 89  1  0
  3 90  1  0
  4  5  1  0
  4 91  1  0
  4 92  1  0
  5  6  1  0
  5 26  1  0
  5 93  1  6
  6 25  1  0
  6 94  1  0
  6 95  1  0
  7  8  2  0
  7 26  1  0
  7 29  1  0
  8  9  1  0
  8 22  1  0
  9 10  1  0
  9 27  2  0
 10 11  2  0
 10 15  1  0
 11 12  1  0
 11 96  1  0
 12 13  2  0
 12 97  1  0
 13 14  1  0
 13 31  1  0
 14 15  2  0
 14 98  1  0
 15 99  1  0
 16 17  2  0
 16 21  1  0
 16 31  1  0
 17 18  1  0
 17100  1  0
 18 19  2  0
 18101  1  0
 19 20  1  0
 19 24  1  0
 20 21  2  0
 20102  1  0
 21 23  1  0
 22 28  1  0
 22 32  2  0
 26 27  1  0
 28103  1  0
 28104  1  0
 29105  1  0
 29106  1  0
 33 34  1  0
 33 66  1  0
 33 70  2  0
 34 36  1  0
 34 59  1  0
 34107  1  6
 35 44  2  0
 35 45  1  0
 35 68  1  0
 36 56  1  0
 36108  1  0
 37 39  1  0
 37 47  1  0
 37 66  1  0
 37109  1  6
 38 43  2  0
 38 46  1  0
 38 47  1  0
 39 64  1  0
 39 67  2  0
 40 52  1  0
 40 53  2  0
 40 58  1  0
 41110  1  0
 41111  1  0
 41112  1  0
 42 43  1  0
 42 66  1  0
 42113  1  0
 42114  1  0
 43 44  1  0
 44115  1  0
 45 46  2  0
 45116  1  0
 46117  1  0
 47118  1  0
 47119  1  0
 48 41  1  0
 48 56  1  0
 48 65  1  0
 48120  1  1
 49 50  1  0
 49 53  1  0
 49 64  1  0
 49121  1  1
 50 51  1  0
 50122  1  0
 50123  1  0
 51 52  1  0
 51124  1  0
 51125  1  0
 52126  1  0
 52127  1  0
 53 54  1  0
 54 55  2  0
 54128  1  0
 55 57  1  0
 55129  1  0
 56 69  2  0
 57 58  2  0
 57130  1  0
 58131  1  0
 59 60  1  0
 59 61  1  0
 59 62  1  0
 60132  1  0
 60133  1  0
 60134  1  0
 61135  1  0
 61136  1  0
 61137  1  0
 62138  1  0
 62139  1  0
 62140  1  0
 63 65  1  0
 63141  1  0
 63142  1  0
 63143  1  0
 64144  1  0
 65145  1  0
 68 83  1  0
 71 73  2  0
 71 75  1  0
 71146  1  0
 72 74  2  0
 72 85  1  0
 72147  1  0
 73 74  1  0
 73 78  1  0
 74 86  1  0
 75 77  1  0
 75 85  2  0
 76 77  2  0
 76 84  1  0
 76148  1  0
 77 82  1  0
 78149  1  0
 78150  1  0
 78151  1  0
 79 82  1  0
 79152  1  0
 79153  1  0
 79154  1  0
 80155  1  0
 80156  1  0
 80157  1  0
 81 84  1  0
 81158  1  0
 81159  1  0
 81160  1  0
 82161  1  0
 82162  1  0
 83 84  1  0
 83163  1  0
 83164  1  0
 84 80  1  0
 86165  1  0
M  ISO  4   1 100  68 101  83 101  86 100
M  END
$$$$
18
     RDKit          3D

171179  0  0  0  0  0  0  0  0999 V2000
  -30.7652  -14.3608   20.6636 C   0  0  0  0  0  0  0  0  0100  0  0
  -30.4392  -12.2669   19.3775 C   0  0  0  0  0  0  0  0  0101  0  0
  -29.4791  -12.5281   18.1977 C   0  0  0  0  0  0  0  0  0102  0  0
  -27.9985  -12.3963   18.6038 C   0  0  0  0  0  0  0  0  0103  0  0
  -27.6639  -13.2170   19.8820 C   0  0  2  0  0  0  0  0  0104  0  0
  -28.6795  -12.9602   21.0279 C   0  0  0  0  0  0  0  0  0105  0  0
  -25.2633  -13.8245   20.5754 C   0  0  0  0  0  0  0  0  0106  0  0
  -24.1645  -13.0409   20.9408 C   0  0  0  0  0  0  0  0  0107  0  0
  -24.6400  -11.7009   20.8697 C   0  0  0  0  0  0  0  0  0108  0  0
  -23.9005  -10.4085   21.0420 C   0  0  0  0  0  0  0  0  0109  0  0
  -24.3588   -9.4123   21.9123 C   0  0  0  0  0  0  0  0  0110  0  0
  -23.6296   -8.2350   22.0803 C   0  0  0  0  0  0  0  0  0111  0  0
  -22.4385   -8.0419   21.3657 C   0  0  0  0  0  0  0  0  0112  0  0
  -22.0103   -9.0167   20.4678 C   0  0  0  0  0  0  0  0  0113  0  0
  -22.7317  -10.1925   20.3102 C   0  0  0  0  0  0  0  0  0114  0  0
  -21.6857   -6.0709   22.5391 C   0  0  0  0  0  0  0  0  0115  0  0
  -21.4064   -6.5490   23.8264 C   0  0  0  0  0  0  0  0  0116  0  0
  -21.3635   -5.6677   24.9085 C   0  0  0  0  0  0  0  0  0117  0  0
  -21.5973   -4.3067   24.7088 C   0  0  0  0  0  0  0  0  0118  0  0
  -21.8700   -3.8284   23.4282 C   0  0  0  0  0  0  0  0  0119  0  0
  -21.9144   -4.7056   22.3460 C   0  0  0  0  0  0  0  0  0120  0  0
  -22.8194  -13.5263   21.1763 C   0  0  0  0  0  0  0  0  0121  0  0
  -22.1559   -4.2206   21.1063 F   0  0  0  0  0  0  0  0  0122  0  0
  -21.5628   -3.4510   25.7555 F   0  0  0  0  0  0  0  0  0123  0  0
  -30.0261  -13.1803   20.4553 N   0  0  0  0  0  0  0  0  0124  0  0
  -26.2911  -12.9356   20.3443 N   0  0  0  0  0  0  0  0  0125  0  0
  -25.9236  -11.6675   20.5847 N   0  0  0  0  0  0  0  0  0126  0  0
  -22.0708  -12.7905   22.0005 N   0  0  0  0  0  0  0  0  0127  0  0
  -25.4117  -15.1773   20.4097 N   0  0  0  0  0  0  0  0  0128  0  0
  -31.7916  -14.6724   20.0536 O   0  0  0  0  0  0  0  0  0129  0  0
  -21.6670   -6.9022   21.4423 O   0  0  0  0  0  0  0  0  0130  0  0
  -22.3946  -14.5564   20.6568 O   0  0  0  0  0  0  0  0  0131  0  0
  -24.6048  -31.8614   23.2223 C   0  0  0  0  0  0  0  0  0100  0  0
  -25.8822  -32.4841   23.8616 C   0  0  1  0  0  0  0  0  0101  0  0
  -27.2536  -27.5042   20.1156 C   0  0  0  0  0  0  0  0  0102  0  0
  -25.5726  -33.8762   24.2210 N   0  0  0  0  0  0  0  0  0103  0  0
  -23.4066  -30.4859   21.5461 C   0  0  2  0  0  0  0  0  0104  0  0
  -24.8467  -28.9636   20.1247 C   0  0  0  0  0  0  0  0  0105  0  0
  -22.7412  -29.4652   22.5052 C   0  0  0  0  0  0  0  0  0106  0  0
  -18.0167  -28.1302   22.8626 C   0  0  0  0  0  0  0  0  0107  0  0
  -24.1342  -36.7390   23.2568 C   0  0  0  0  0  0  0  0  0108  0  0
  -25.9141  -30.8882   21.3456 C   0  0  0  0  0  0  0  0  0109  0  0
  -25.9930  -29.5029   20.7208 C   0  0  0  0  0  0  0  0  0110  0  0
  -27.1758  -28.7612   20.7331 C   0  0  0  0  0  0  0  0  0111  0  0
  -26.1032  -26.9836   19.5230 C   0  0  0  0  0  0  0  0  0112  0  0
  -24.9097  -27.7011   19.5331 C   0  0  0  0  0  0  0  0  0113  0  0
  -23.5715  -29.7899   20.1582 C   0  0  0  0  0  0  0  0  0114  0  0
  -25.3990  -36.3212   24.0232 C   0  0  1  0  0  0  0  0  0115  0  0
  -20.5793  -28.3813   23.1004 C   0  0  2  0  0  0  0  0  0116  0  0
  -20.6548  -26.9392   22.5411 C   0  0  0  0  0  0  0  0  0117  0  0
  -19.5615  -26.6407   21.5143 C   0  0  0  0  0  0  0  0  0118  0  0
  -18.1797  -26.7818   22.1673 C   0  0  0  0  0  0  0  0  0119  0  0
  -19.1385  -28.8769   23.2988 C   0  0  0  0  0  0  0  0  0120  0  0
  -18.9183  -30.1286   23.8878 C   0  0  0  0  0  0  0  0  0121  0  0
  -17.6396  -30.6493   24.0352 C   0  0  0  0  0  0  0  0  0122  0  0
  -25.9153  -34.9582   23.4993 C   0  0  0  0  0  0  0  0  0123  0  0
  -16.5415  -29.9068   23.6254 C   0  0  0  0  0  0  0  0  0124  0  0
  -16.7331  -28.6521   23.0586 C   0  0  0  0  0  0  0  0  0125  0  0
  -26.4583  -31.6439   25.0683 C   0  0  0  0  0  0  0  0  0126  0  0
  -25.3807  -31.3179   26.1374 C   0  0  0  0  0  0  0  0  0127  0  0
  -27.0530  -30.3024   24.5680 C   0  0  0  0  0  0  0  0  0128  0  0
  -27.6014  -32.4281   25.7651 C   0  0  0  0  0  0  0  0  0129  0  0
  -27.5629  -37.2220   24.8621 C   0  0  0  0  0  0  0  0  0130  0  0
  -21.4133  -29.3375   22.3735 N   0  0  0  0  0  0  0  0  0131  0  0
  -26.4706  -37.3372   23.9061 N   0  0  0  0  0  0  0  0  0132  0  0
  -24.6674  -31.0544   22.1178 N   0  0  0  0  0  0  0  0  0133  0  0
  -23.4259  -28.8150   23.2971 O   0  0  0  0  0  0  0  0  0134  0  0
  -28.3948  -26.7345   20.0089 O   0  0  0  0  0  0  0  0  0135  0  0
  -26.5870  -34.9065   22.4671 O   0  0  0  0  0  0  0  0  0136  0  0
  -23.5365  -32.1254   23.7833 O   0  0  0  0  0  0  0  0  0137  0  0
  -26.0567  -20.2457   20.8486 C   0  0  0  0  0  0  0  0  0  0  0  0
  -25.7797  -18.0895   19.7947 C   0  0  0  0  0  0  0  0  0  0  0  0
  -27.8430  -18.6212   20.9335 C   0  0  0  0  0  0  0  0  0  0  0  0
  -25.2766  -19.3497   20.1177 C   0  0  0  0  0  0  0  0  0  0  0  0
  -27.3400  -19.8815   21.2565 C   0  0  0  0  0  0  0  0  0  0  0  0
  -27.0629  -17.7252   20.2026 C   0  0  0  0  0  0  0  0  0  0  0  0
  -23.9046  -19.7393   19.6816 C   0  0  0  0  0  0  0  0  0  0  0  0
  -26.5992  -20.6013   25.6462 C   0  0  0  0  0  0  0  0  0  0  0  0
  -28.4941  -19.2667   24.7064 C   0  0  0  0  0  0  0  0  0  0  0  0
  -30.4247  -22.6856   17.8147 C   0  0  0  0  0  0  0  0  0  0  0  0
  -28.4987  -22.1027   21.1818 C   0  0  0  0  0  0  0  0  0  0  0  0
  -29.2778  -21.7716   19.9046 C   0  0  0  0  0  0  0  0  0  0  0  0
  -27.5388  -21.2468   23.4048 C   0  0  0  0  0  0  0  0  0  0  0  0
  -28.1917  -20.8600   22.0547 C   0  0  1  0  0  0  0  0  0  0  0  0
  -27.2394  -20.0697   24.3602 C   0  0  0  0  0  0  0  0  0  0  0  0
  -29.6104  -23.0074   19.0597 C   0  0  2  0  0  0  0  0  0  1  0  0
  -27.5739  -16.4450   19.8746 N   0  0  0  0  0  0  0  0  0  0  0  0
  -31.4485  -12.4701   19.0860 H   0  0  0  0  0  0  0  0  0  0  0  0
  -30.3970  -11.2460   19.6950 H   0  0  0  0  0  0  0  0  0  0  0  0
  -29.6870  -11.8204   17.4226 H   0  0  0  0  0  0  0  0  0  0  0  0
  -29.6375  -13.5326   17.8649 H   0  0  0  0  0  0  0  0  0  0  0  0
  -27.7830  -11.3650   18.7904 H   0  0  0  0  0  0  0  0  0  0  0  0
  -27.4028  -12.7801   17.8021 H   0  0  0  0  0  0  0  0  0  0  0  0
  -27.7353  -14.2503   19.6136 H   0  0  0  0  0  0  0  0  0  0  0  0
  -28.5890  -11.9550   21.3832 H   0  0  0  0  0  0  0  0  0  0  0  0
  -28.5005  -13.6134   21.8562 H   0  0  0  0  0  0  0  0  0  0  0  0
  -25.2399   -9.5495   22.4318 H   0  0  0  0  0  0  0  0  0  0  0  0
  -23.9663   -7.5070   22.7297 H   0  0  0  0  0  0  0  0  0  0  0  0
  -21.1515   -8.8641   19.9162 H   0  0  0  0  0  0  0  0  0  0  0  0
  -22.4016  -10.9115   19.6476 H   0  0  0  0  0  0  0  0  0  0  0  0
  -21.2319   -7.5552   23.9750 H   0  0  0  0  0  0  0  0  0  0  0  0
  -21.1589   -6.0228   25.8556 H   0  0  0  0  0  0  0  0  0  0  0  0
  -22.0396   -2.8212   23.2809 H   0  0  0  0  0  0  0  0  0  0  0  0
  -22.4401  -11.9703   22.4008 H   0  0  0  0  0  0  0  0  0  0  0  0
  -21.1493  -13.0679   22.2082 H   0  0  0  0  0  0  0  0  0  0  0  0
  -24.6538  -15.7807   20.5848 H   0  0  0  0  0  0  0  0  0  0  0  0
  -26.2762  -15.5453   20.1156 H   0  0  0  0  0  0  0  0  0  0  0  0
  -26.6778  -32.4663   23.1464 H   0  0  0  0  0  0  0  0  0  0  0  0
  -25.0747  -34.0282   25.0566 H   0  0  0  0  0  0  0  0  0  0  0  0
  -22.7881  -31.3489   21.4131 H   0  0  0  0  0  0  0  0  0  0  0  0
  -23.3854  -35.9823   23.3648 H   0  0  0  0  0  0  0  0  0  0  0  0
  -24.3696  -36.8624   22.2204 H   0  0  0  0  0  0  0  0  0  0  0  0
  -23.7669  -37.6632   23.6516 H   0  0  0  0  0  0  0  0  0  0  0  0
  -25.9445  -31.6237   20.5691 H   0  0  0  0  0  0  0  0  0  0  0  0
  -26.7436  -31.0079   22.0108 H   0  0  0  0  0  0  0  0  0  0  0  0
  -28.0090  -29.1452   21.2057 H   0  0  0  0  0  0  0  0  0  0  0  0
  -26.1369  -26.0560   19.0719 H   0  0  0  0  0  0  0  0  0  0  0  0
  -24.0652  -27.2961   19.0997 H   0  0  0  0  0  0  0  0  0  0  0  0
  -23.6156  -30.5365   19.3930 H   0  0  0  0  0  0  0  0  0  0  0  0
  -22.7355  -29.1425   19.9945 H   0  0  0  0  0  0  0  0  0  0  0  0
  -25.1353  -36.2335   25.0565 H   0  0  0  0  0  0  0  0  0  0  0  0
  -21.0070  -28.3206   24.0793 H   0  0  0  0  0  0  0  0  0  0  0  0
  -20.5555  -26.2518   23.3550 H   0  0  0  0  0  0  0  0  0  0  0  0
  -21.5974  -26.8362   22.0454 H   0  0  0  0  0  0  0  0  0  0  0  0
  -19.6810  -25.6422   21.1488 H   0  0  0  0  0  0  0  0  0  0  0  0
  -19.6406  -27.3343   20.7034 H   0  0  0  0  0  0  0  0  0  0  0  0
  -17.4282  -26.6888   21.4113 H   0  0  0  0  0  0  0  0  0  0  0  0
  -18.0803  -26.0130   22.9049 H   0  0  0  0  0  0  0  0  0  0  0  0
  -19.7265  -30.6774   24.2204 H   0  0  0  0  0  0  0  0  0  0  0  0
  -17.5064  -31.5856   24.4483 H   0  0  0  0  0  0  0  0  0  0  0  0
  -15.5878  -30.2839   23.7407 H   0  0  0  0  0  0  0  0  0  0  0  0
  -15.9120  -28.0941   22.7766 H   0  0  0  0  0  0  0  0  0  0  0  0
  -24.5787  -30.7757   25.6817 H   0  0  0  0  0  0  0  0  0  0  0  0
  -25.0041  -32.2289   26.5536 H   0  0  0  0  0  0  0  0  0  0  0  0
  -25.8166  -30.7245   26.9138 H   0  0  0  0  0  0  0  0  0  0  0  0
  -26.2892  -29.7335   24.0803 H   0  0  0  0  0  0  0  0  0  0  0  0
  -27.4336  -29.7484   25.4006 H   0  0  0  0  0  0  0  0  0  0  0  0
  -27.8466  -30.4994   23.8779 H   0  0  0  0  0  0  0  0  0  0  0  0
  -27.2251  -33.3632   26.1242 H   0  0  0  0  0  0  0  0  0  0  0  0
  -28.3902  -32.6065   25.0645 H   0  0  0  0  0  0  0  0  0  0  0  0
  -27.9772  -31.8555   26.5872 H   0  0  0  0  0  0  0  0  0  0  0  0
  -28.2744  -38.0016   24.6863 H   0  0  0  0  0  0  0  0  0  0  0  0
  -28.0396  -36.2711   24.7461 H   0  0  0  0  0  0  0  0  0  0  0  0
  -27.1773  -37.3087   25.8564 H   0  0  0  0  0  0  0  0  0  0  0  0
  -20.9627  -29.9365   21.7352 H   0  0  0  0  0  0  0  0  0  0  0  0
  -26.0447  -38.2561   24.0273 H   0  0  0  0  0  0  0  0  0  0  0  0
  -25.6845  -21.1781   21.0876 H   0  0  0  0  0  0  0  0  0  0  0  0
  -25.2025  -17.4266   19.2539 H   0  0  0  0  0  0  0  0  0  0  0  0
  -28.7924  -18.3517   21.2353 H   0  0  0  0  0  0  0  0  0  0  0  0
  -23.6923  -20.7328   20.0174 H   0  0  0  0  0  0  0  0  0  0  0  0
  -23.1911  -19.0610   20.1007 H   0  0  0  0  0  0  0  0  0  0  0  0
  -23.8462  -19.7036   18.6138 H   0  0  0  0  0  0  0  0  0  0  0  0
  -26.3929  -19.7845   26.3059 H   0  0  0  0  0  0  0  0  0  0  0  0
  -25.6866  -21.1066   25.4079 H   0  0  0  0  0  0  0  0  0  0  0  0
  -27.2709  -21.2841   26.1231 H   0  0  0  0  0  0  0  0  0  0  0  0
  -28.2343  -18.4666   25.3676 H   0  0  0  0  0  0  0  0  0  0  0  0
  -29.2067  -19.9066   25.1835 H   0  0  0  0  0  0  0  0  0  0  0  0
  -28.9191  -18.8651   23.8103 H   0  0  0  0  0  0  0  0  0  0  0  0
  -30.6247  -21.6350   17.7810 H   0  0  0  0  0  0  0  0  0  0  0  0
  -31.3490  -23.2239   17.8441 H   0  0  0  0  0  0  0  0  0  0  0  0
  -29.8729  -22.9717   16.9438 H   0  0  0  0  0  0  0  0  0  0  0  0
  -27.5719  -22.5600   20.9048 H   0  0  0  0  0  0  0  0  0  0  0  0
  -29.1129  -22.7554   21.7663 H   0  0  0  0  0  0  0  0  0  0  0  0
  -28.6895  -21.1030   19.3115 H   0  0  0  0  0  0  0  0  0  0  0  0
  -30.2067  -21.3333   20.2045 H   0  0  0  0  0  0  0  0  0  0  0  0
  -26.6148  -21.7434   23.1939 H   0  0  0  0  0  0  0  0  0  0  0  0
  -28.2531  -21.8618   23.9111 H   0  0  0  0  0  0  0  0  0  0  0  0
  -29.1127  -20.3782   22.3086 H   0  0  0  0  0  0  0  0  0  0  0  0
  -26.5657  -19.4101   23.8543 H   0  0  0  0  0  0  0  0  0  0  0  0
  -29.4311  -24.0062   19.3991 H   0  0  0  0  0  0  0  0  0  0  0  0
  -26.9557  -15.9495   19.2901 H   0  0  0  0  0  0  0  0  0  0  0  0
  1 25  1  0
  1 30  2  0
  1 87  1  0
  2  3  1  0
  2 25  1  0
  2 88  1  0
  2 89  1  0
  3  4  1  0
  3 90  1  0
  3 91  1  0
  4  5  1  0
  4 92  1  0
  4 93  1  0
  5  6  1  0
  5 26  1  0
  5 94  1  6
  6 25  1  0
  6 95  1  0
  6 96  1  0
  7  8  2  0
  7 26  1  0
  7 29  1  0
  8  9  1  0
  8 22  1  0
  9 10  1  0
  9 27  2  0
 10 11  2  0
 10 15  1  0
 11 12  1  0
 11 97  1  0
 12 13  2  0
 12 98  1  0
 13 14  1  0
 13 31  1  0
 14 15  2  0
 14 99  1  0
 15100  1  0
 16 17  2  0
 16 21  1  0
 16 31  1  0
 17 18  1  0
 17101  1  0
 18 19  2  0
 18102  1  0
 19 20  1  0
 19 24  1  0
 20 21  2  0
 20103  1  0
 21 23  1  0
 22 28  1  0
 22 32  2  0
 26 27  1  0
 28104  1  0
 28105  1  0
 29106  1  0
 29107  1  0
 33 34  1  0
 33 66  1  0
 33 70  2  0
 34 36  1  0
 34 59  1  0
 34108  1  6
 35 44  2  0
 35 45  1  0
 35 68  1  0
 36 56  1  0
 36109  1  0
 37 39  1  0
 37 47  1  0
 37 66  1  0
 37110  1  6
 38 43  2  0
 38 46  1  0
 38 47  1  0
 39 64  1  0
 39 67  2  0
 40 52  1  0
 40 53  2  0
 40 58  1  0
 41111  1  0
 41112  1  0
 41113  1  0
 42 43  1  0
 42 66  1  0
 42114  1  0
 42115  1  0
 43 44  1  0
 44116  1  0
 45 46  2  0
 45117  1  0
 46118  1  0
 47119  1  0
 47120  1  0
 48 41  1  0
 48 56  1  0
 48 65  1  0
 48121  1  1
 49 50  1  0
 49 53  1  0
 49 64  1  0
 49122  1  1
 50 51  1  0
 50123  1  0
 50124  1  0
 51 52  1  0
 51125  1  0
 51126  1  0
 52127  1  0
 52128  1  0
 53 54  1  0
 54 55  2  0
 54129  1  0
 55 57  1  0
 55130  1  0
 56 69  2  0
 57 58  2  0
 57131  1  0
 58132  1  0
 59 60  1  0
 59 61  1  0
 59 62  1  0
 60133  1  0
 60134  1  0
 60135  1  0
 61136  1  0
 61137  1  0
 61138  1  0
 62139  1  0
 62140  1  0
 62141  1  0
 63 65  1  0
 63142  1  0
 63143  1  0
 63144  1  0
 64145  1  0
 65146  1  0
 68 86  1  0
 71 74  2  0
 71 75  1  0
 71147  1  0
 72 74  1  0
 72 76  2  0
 72148  1  0
 73 75  2  0
 73 76  1  0
 73149  1  0
 74 77  1  0
 75 84  1  0
 76 87  1  0
 77150  1  0
 77151  1  0
 77152  1  0
 78153  1  0
 78154  1  0
 78155  1  0
 79 85  1  0
 79156  1  0
 79157  1  0
 79158  1  0
 80159  1  0
 80160  1  0
 80161  1  0
 81 82  1  0
 81162  1  0
 81163  1  0
 82 86  1  0
 82164  1  0
 82165  1  0
 83 84  1  0
 83 85  1  0
 83166  1  0
 83167  1  0
 84 81  1  0
 84168  1  1
 85 78  1  0
 85169  1  0
 86 80  1  0
 86170  1  1
 87171  1  0
M  ISO  4   1 100  68 101  86 101  87 100
M  END
$$$$
19
     RDKit          3D

170178  0  0  0  0  0  0  0  0999 V2000
  -30.7652  -14.3608   20.6636 C   0  0  0  0  0  0  0  0  0100  0  0
  -30.4392  -12.2669   19.3775 C   0  0  0  0  0  0  0  0  0101  0  0
  -29.4791  -12.5281   18.1977 C   0  0  0  0  0  0  0  0  0102  0  0
  -27.9985  -12.3963   18.6038 C   0  0  0  0  0  0  0  0  0103  0  0
  -27.6639  -13.2170   19.8820 C   0  0  2  0  0  0  0  0  0104  0  0
  -28.6795  -12.9602   21.0279 C   0  0  0  0  0  0  0  0  0105  0  0
  -25.2633  -13.8245   20.5754 C   0  0  0  0  0  0  0  0  0106  0  0
  -24.1645  -13.0409   20.9408 C   0  0  0  0  0  0  0  0  0107  0  0
  -24.6400  -11.7009   20.8697 C   0  0  0  0  0  0  0  0  0108  0  0
  -23.9005  -10.4085   21.0420 C   0  0  0  0  0  0  0  0  0109  0  0
  -24.3588   -9.4123   21.9123 C   0  0  0  0  0  0  0  0  0110  0  0
  -23.6296   -8.2350   22.0803 C   0  0  0  0  0  0  0  0  0111  0  0
  -22.4385   -8.0419   21.3657 C   0  0  0  0  0  0  0  0  0112  0  0
  -22.0103   -9.0167   20.4678 C   0  0  0  0  0  0  0  0  0113  0  0
  -22.7317  -10.1925   20.3102 C   0  0  0  0  0  0  0  0  0114  0  0
  -21.6857   -6.0709   22.5391 C   0  0  0  0  0  0  0  0  0115  0  0
  -21.4064   -6.5490   23.8264 C   0  0  0  0  0  0  0  0  0116  0  0
  -21.3635   -5.6677   24.9085 C   0  0  0  0  0  0  0  0  0117  0  0
  -21.5973   -4.3067   24.7088 C   0  0  0  0  0  0  0  0  0118  0  0
  -21.8700   -3.8284   23.4282 C   0  0  0  0  0  0  0  0  0119  0  0
  -21.9144   -4.7056   22.3460 C   0  0  0  0  0  0  0  0  0120  0  0
  -22.8194  -13.5263   21.1763 C   0  0  0  0  0  0  0  0  0121  0  0
  -22.1559   -4.2206   21.1063 F   0  0  0  0  0  0  0  0  0122  0  0
  -21.5628   -3.4510   25.7555 F   0  0  0  0  0  0  0  0  0123  0  0
  -30.0261  -13.1803   20.4553 N   0  0  0  0  0  0  0  0  0124  0  0
  -26.2911  -12.9356   20.3443 N   0  0  0  0  0  0  0  0  0125  0  0
  -25.9236  -11.6675   20.5847 N   0  0  0  0  0  0  0  0  0126  0  0
  -22.0708  -12.7905   22.0005 N   0  0  0  0  0  0  0  0  0127  0  0
  -25.4117  -15.1773   20.4097 N   0  0  0  0  0  0  0  0  0128  0  0
  -31.7916  -14.6724   20.0536 O   0  0  0  0  0  0  0  0  0129  0  0
  -21.6670   -6.9022   21.4423 O   0  0  0  0  0  0  0  0  0130  0  0
  -22.3946  -14.5564   20.6568 O   0  0  0  0  0  0  0  0  0131  0  0
  -24.6048  -31.8614   23.2223 C   0  0  0  0  0  0  0  0  0100  0  0
  -25.8822  -32.4841   23.8616 C   0  0  1  0  0  0  0  0  0101  0  0
  -27.2536  -27.5042   20.1156 C   0  0  0  0  0  0  0  0  0102  0  0
  -25.5726  -33.8762   24.2210 N   0  0  0  0  0  0  0  0  0103  0  0
  -23.4066  -30.4859   21.5461 C   0  0  2  0  0  0  0  0  0104  0  0
  -24.8467  -28.9636   20.1247 C   0  0  0  0  0  0  0  0  0105  0  0
  -22.7412  -29.4652   22.5052 C   0  0  0  0  0  0  0  0  0106  0  0
  -18.0167  -28.1302   22.8626 C   0  0  0  0  0  0  0  0  0107  0  0
  -24.1342  -36.7390   23.2568 C   0  0  0  0  0  0  0  0  0108  0  0
  -25.9141  -30.8882   21.3456 C   0  0  0  0  0  0  0  0  0109  0  0
  -25.9930  -29.5029   20.7208 C   0  0  0  0  0  0  0  0  0110  0  0
  -27.1758  -28.7612   20.7331 C   0  0  0  0  0  0  0  0  0111  0  0
  -26.1032  -26.9836   19.5230 C   0  0  0  0  0  0  0  0  0112  0  0
  -24.9097  -27.7011   19.5331 C   0  0  0  0  0  0  0  0  0113  0  0
  -23.5715  -29.7899   20.1582 C   0  0  0  0  0  0  0  0  0114  0  0
  -25.3990  -36.3212   24.0232 C   0  0  1  0  0  0  0  0  0115  0  0
  -20.5793  -28.3813   23.1004 C   0  0  2  0  0  0  0  0  0116  0  0
  -20.6548  -26.9392   22.5411 C   0  0  0  0  0  0  0  0  0117  0  0
  -19.5615  -26.6407   21.5143 C   0  0  0  0  0  0  0  0  0118  0  0
  -18.1797  -26.7818   22.1673 C   0  0  0  0  0  0  0  0  0119  0  0
  -19.1385  -28.8769   23.2988 C   0  0  0  0  0  0  0  0  0120  0  0
  -18.9183  -30.1286   23.8878 C   0  0  0  0  0  0  0  0  0121  0  0
  -17.6396  -30.6493   24.0352 C   0  0  0  0  0  0  0  0  0122  0  0
  -25.9153  -34.9582   23.4993 C   0  0  0  0  0  0  0  0  0123  0  0
  -16.5415  -29.9068   23.6254 C   0  0  0  0  0  0  0  0  0124  0  0
  -16.7331  -28.6521   23.0586 C   0  0  0  0  0  0  0  0  0125  0  0
  -26.4583  -31.6439   25.0683 C   0  0  0  0  0  0  0  0  0126  0  0
  -25.3807  -31.3179   26.1374 C   0  0  0  0  0  0  0  0  0127  0  0
  -27.0530  -30.3024   24.5680 C   0  0  0  0  0  0  0  0  0128  0  0
  -27.6014  -32.4281   25.7651 C   0  0  0  0  0  0  0  0  0129  0  0
  -27.5629  -37.2220   24.8621 C   0  0  0  0  0  0  0  0  0130  0  0
  -21.4133  -29.3375   22.3735 N   0  0  0  0  0  0  0  0  0131  0  0
  -26.4706  -37.3372   23.9061 N   0  0  0  0  0  0  0  0  0132  0  0
  -24.6674  -31.0544   22.1178 N   0  0  0  0  0  0  0  0  0133  0  0
  -23.4259  -28.8150   23.2971 O   0  0  0  0  0  0  0  0  0134  0  0
  -28.3948  -26.7345   20.0089 O   0  0  0  0  0  0  0  0  0135  0  0
  -26.5870  -34.9065   22.4671 O   0  0  0  0  0  0  0  0  0136  0  0
  -23.5365  -32.1254   23.7833 O   0  0  0  0  0  0  0  0  0137  0  0
  -27.6752  -18.4079   21.4935 C   0  0  0  0  0  0  0  0  0  0  0  0
  -28.0163  -18.9981   20.2766 C   0  0  0  0  0  0  0  0  0  0  0  0
  -29.7601  -17.3546   19.9683 C   0  0  0  0  0  0  0  0  0  0  0  0
  -29.4190  -16.7645   21.1853 C   0  0  0  0  0  0  0  0  0  0  0  0
  -28.3766  -17.2911   21.9479 C   0  0  0  0  0  0  0  0  0  0  0  0
  -29.0587  -18.4715   19.5140 C   0  0  0  0  0  0  0  0  0  0  0  0
  -30.1676  -15.5990   21.6360 C   0  0  0  0  0  0  0  0  0  0  0  0
  -28.5035  -17.4842   24.4445 C   0  0  0  0  0  0  0  0  0  0  0  0
  -29.9554  -20.4149   15.8115 C   0  0  0  0  0  0  0  0  0  0  0  0
  -29.8139  -22.5806   17.0478 C   0  0  0  0  0  0  0  0  0  0  0  0
  -27.9904  -16.6789   23.2548 C   0  0  0  0  0  0  0  0  0  0  0  0
  -32.0437  -21.5408   18.9267 C   0  0  0  0  0  0  0  0  0  0  0  0
  -31.6333  -20.8863   17.6045 C   0  0  0  0  0  0  0  0  0  0  0  0
  -33.5311  -21.3514   19.2009 C   0  0  0  0  0  0  0  0  0  1  0  0
  -29.1689  -20.4510   18.2006 C   0  0  0  0  0  0  0  0  0  0  0  0
  -30.1482  -21.0849   17.1893 C   0  0  0  0  0  0  0  0  0  0  0  0
  -30.3581  -15.3154   22.8950 N   0  0  0  0  0  0  0  0  0  0  0  0
  -29.3942  -19.0523   18.3190 O   0  0  0  0  0  0  0  0  0  0  0  0
  -31.4485  -12.4701   19.0860 H   0  0  0  0  0  0  0  0  0  0  0  0
  -30.3970  -11.2460   19.6950 H   0  0  0  0  0  0  0  0  0  0  0  0
  -29.6870  -11.8204   17.4226 H   0  0  0  0  0  0  0  0  0  0  0  0
  -29.6375  -13.5326   17.8649 H   0  0  0  0  0  0  0  0  0  0  0  0
  -27.7830  -11.3650   18.7904 H   0  0  0  0  0  0  0  0  0  0  0  0
  -27.4028  -12.7801   17.8021 H   0  0  0  0  0  0  0  0  0  0  0  0
  -27.7353  -14.2503   19.6136 H   0  0  0  0  0  0  0  0  0  0  0  0
  -28.5890  -11.9550   21.3832 H   0  0  0  0  0  0  0  0  0  0  0  0
  -28.5005  -13.6134   21.8562 H   0  0  0  0  0  0  0  0  0  0  0  0
  -25.2399   -9.5495   22.4318 H   0  0  0  0  0  0  0  0  0  0  0  0
  -23.9663   -7.5070   22.7297 H   0  0  0  0  0  0  0  0  0  0  0  0
  -21.1515   -8.8641   19.9162 H   0  0  0  0  0  0  0  0  0  0  0  0
  -22.4016  -10.9115   19.6476 H   0  0  0  0  0  0  0  0  0  0  0  0
  -21.2319   -7.5552   23.9750 H   0  0  0  0  0  0  0  0  0  0  0  0
  -21.1589   -6.0228   25.8556 H   0  0  0  0  0  0  0  0  0  0  0  0
  -22.0396   -2.8212   23.2809 H   0  0  0  0  0  0  0  0  0  0  0  0
  -22.4401  -11.9703   22.4008 H   0  0  0  0  0  0  0  0  0  0  0  0
  -21.1493  -13.0679   22.2082 H   0  0  0  0  0  0  0  0  0  0  0  0
  -24.6538  -15.7807   20.5848 H   0  0  0  0  0  0  0  0  0  0  0  0
  -26.2762  -15.5453   20.1156 H   0  0  0  0  0  0  0  0  0  0  0  0
  -26.6778  -32.4663   23.1464 H   0  0  0  0  0  0  0  0  0  0  0  0
  -25.0747  -34.0282   25.0566 H   0  0  0  0  0  0  0  0  0  0  0  0
  -22.7881  -31.3489   21.4131 H   0  0  0  0  0  0  0  0  0  0  0  0
  -23.3854  -35.9823   23.3648 H   0  0  0  0  0  0  0  0  0  0  0  0
  -24.3696  -36.8624   22.2204 H   0  0  0  0  0  0  0  0  0  0  0  0
  -23.7669  -37.6632   23.6516 H   0  0  0  0  0  0  0  0  0  0  0  0
  -25.9445  -31.6237   20.5691 H   0  0  0  0  0  0  0  0  0  0  0  0
  -26.7436  -31.0079   22.0108 H   0  0  0  0  0  0  0  0  0  0  0  0
  -28.0090  -29.1452   21.2057 H   0  0  0  0  0  0  0  0  0  0  0  0
  -26.1369  -26.0560   19.0719 H   0  0  0  0  0  0  0  0  0  0  0  0
  -24.0652  -27.2961   19.0997 H   0  0  0  0  0  0  0  0  0  0  0  0
  -23.6156  -30.5365   19.3930 H   0  0  0  0  0  0  0  0  0  0  0  0
  -22.7355  -29.1425   19.9945 H   0  0  0  0  0  0  0  0  0  0  0  0
  -25.1353  -36.2335   25.0565 H   0  0  0  0  0  0  0  0  0  0  0  0
  -21.0070  -28.3206   24.0793 H   0  0  0  0  0  0  0  0  0  0  0  0
  -20.5555  -26.2518   23.3550 H   0  0  0  0  0  0  0  0  0  0  0  0
  -21.5974  -26.8362   22.0454 H   0  0  0  0  0  0  0  0  0  0  0  0
  -19.6810  -25.6422   21.1488 H   0  0  0  0  0  0  0  0  0  0  0  0
  -19.6406  -27.3343   20.7034 H   0  0  0  0  0  0  0  0  0  0  0  0
  -17.4282  -26.6888   21.4113 H   0  0  0  0  0  0  0  0  0  0  0  0
  -18.0803  -26.0130   22.9049 H   0  0  0  0  0  0  0  0  0  0  0  0
  -19.7265  -30.6774   24.2204 H   0  0  0  0  0  0  0  0  0  0  0  0
  -17.5064  -31.5856   24.4483 H   0  0  0  0  0  0  0  0  0  0  0  0
  -15.5878  -30.2839   23.7407 H   0  0  0  0  0  0  0  0  0  0  0  0
  -15.9120  -28.0941   22.7766 H   0  0  0  0  0  0  0  0  0  0  0  0
  -24.5787  -30.7757   25.6817 H   0  0  0  0  0  0  0  0  0  0  0  0
  -25.0041  -32.2289   26.5536 H   0  0  0  0  0  0  0  0  0  0  0  0
  -25.8166  -30.7245   26.9138 H   0  0  0  0  0  0  0  0  0  0  0  0
  -26.2892  -29.7335   24.0803 H   0  0  0  0  0  0  0  0  0  0  0  0
  -27.4336  -29.7484   25.4006 H   0  0  0  0  0  0  0  0  0  0  0  0
  -27.8466  -30.4994   23.8779 H   0  0  0  0  0  0  0  0  0  0  0  0
  -27.2251  -33.3632   26.1242 H   0  0  0  0  0  0  0  0  0  0  0  0
  -28.3902  -32.6065   25.0645 H   0  0  0  0  0  0  0  0  0  0  0  0
  -27.9772  -31.8555   26.5872 H   0  0  0  0  0  0  0  0  0  0  0  0
  -28.2744  -38.0016   24.6863 H   0  0  0  0  0  0  0  0  0  0  0  0
  -28.0396  -36.2711   24.7461 H   0  0  0  0  0  0  0  0  0  0  0  0
  -27.1773  -37.3087   25.8564 H   0  0  0  0  0  0  0  0  0  0  0  0
  -20.9627  -29.9365   21.7352 H   0  0  0  0  0  0  0  0  0  0  0  0
  -26.0447  -38.2561   24.0273 H   0  0  0  0  0  0  0  0  0  0  0  0
  -26.9039  -18.7975   22.0577 H   0  0  0  0  0  0  0  0  0  0  0  0
  -27.4974  -19.8244   19.9405 H   0  0  0  0  0  0  0  0  0  0  0  0
  -30.5313  -16.9649   19.4040 H   0  0  0  0  0  0  0  0  0  0  0  0
  -28.2027  -17.0077   25.3541 H   0  0  0  0  0  0  0  0  0  0  0  0
  -28.0962  -18.4730   24.4082 H   0  0  0  0  0  0  0  0  0  0  0  0
  -29.5715  -17.5368   24.4056 H   0  0  0  0  0  0  0  0  0  0  0  0
  -30.6316  -20.8500   15.1056 H   0  0  0  0  0  0  0  0  0  0  0  0
  -28.9490  -20.5641   15.4800 H   0  0  0  0  0  0  0  0  0  0  0  0
  -30.1520  -19.3664   15.8942 H   0  0  0  0  0  0  0  0  0  0  0  0
  -30.4866  -23.0318   16.3487 H   0  0  0  0  0  0  0  0  0  0  0  0
  -29.9138  -23.0600   17.9992 H   0  0  0  0  0  0  0  0  0  0  0  0
  -28.8089  -22.6898   16.6972 H   0  0  0  0  0  0  0  0  0  0  0  0
  -28.3983  -15.6910   23.3061 H   0  0  0  0  0  0  0  0  0  0  0  0
  -26.9218  -16.6631   23.3062 H   0  0  0  0  0  0  0  0  0  0  0  0
  -31.4834  -21.0979   19.7234 H   0  0  0  0  0  0  0  0  0  0  0  0
  -31.8437  -22.5898   18.8604 H   0  0  0  0  0  0  0  0  0  0  0  0
  -31.8142  -19.8350   17.6875 H   0  0  0  0  0  0  0  0  0  0  0  0
  -32.2160  -21.3670   16.8466 H   0  0  0  0  0  0  0  0  0  0  0  0
  -34.2670  -21.3691   18.4243 H   0  0  0  0  0  0  0  0  0  0  0  0
  -34.2148  -20.7479   19.7606 H   0  0  0  0  0  0  0  0  0  0  0  0
  -28.1657  -20.6170   17.8675 H   0  0  0  0  0  0  0  0  0  0  0  0
  -29.3257  -20.9040   19.1572 H   0  0  0  0  0  0  0  0  0  0  0  0
  -30.0617  -15.9447   23.5917 H   0  0  0  0  0  0  0  0  0  0  0  0
  1 25  1  0
  1 30  2  0
  1 77  1  0
  2  3  1  0
  2 25  1  0
  2 89  1  0
  2 90  1  0
  3  4  1  0
  3 91  1  0
  3 92  1  0
  4  5  1  0
  4 93  1  0
  4 94  1  0
  5  6  1  0
  5 26  1  0
  5 95  1  6
  6 25  1  0
  6 96  1  0
  6 97  1  0
  7  8  2  0
  7 26  1  0
  7 29  1  0
  8  9  1  0
  8 22  1  0
  9 10  1  0
  9 27  2  0
 10 11  2  0
 10 15  1  0
 11 12  1  0
 11 98  1  0
 12 13  2  0
 12 99  1  0
 13 14  1  0
 13 31  1  0
 14 15  2  0
 14100  1  0
 15101  1  0
 16 17  2  0
 16 21  1  0
 16 31  1  0
 17 18  1  0
 17102  1  0
 18 19  2  0
 18103  1  0
 19 20  1  0
 19 24  1  0
 20 21  2  0
 20104  1  0
 21 23  1  0
 22 28  1  0
 22 32  2  0
 26 27  1  0
 28105  1  0
 28106  1  0
 29107  1  0
 29108  1  0
 33 34  1  0
 33 66  1  0
 33 70  2  0
 34 36  1  0
 34 59  1  0
 34109  1  6
 35 44  2  0
 35 45  1  0
 35 68  1  0
 36 56  1  0
 36110  1  0
 37 39  1  0
 37 47  1  0
 37 66  1  0
 37111  1  6
 38 43  2  0
 38 46  1  0
 38 47  1  0
 39 64  1  0
 39 67  2  0
 40 52  1  0
 40 53  2  0
 40 58  1  0
 41112  1  0
 41113  1  0
 41114  1  0
 42 43  1  0
 42 66  1  0
 42115  1  0
 42116  1  0
 43 44  1  0
 44117  1  0
 45 46  2  0
 45118  1  0
 46119  1  0
 47120  1  0
 47121  1  0
 48 41  1  0
 48 56  1  0
 48 65  1  0
 48122  1  1
 49 50  1  0
 49 53  1  0
 49 64  1  0
 49123  1  1
 50 51  1  0
 50124  1  0
 50125  1  0
 51 52  1  0
 51126  1  0
 51127  1  0
 52128  1  0
 52129  1  0
 53 54  1  0
 54 55  2  0
 54130  1  0
 55 57  1  0
 55131  1  0
 56 69  2  0
 57 58  2  0
 57132  1  0
 58133  1  0
 59 60  1  0
 59 61  1  0
 59 62  1  0
 60134  1  0
 60135  1  0
 60136  1  0
 61137  1  0
 61138  1  0
 61139  1  0
 62140  1  0
 62141  1  0
 62142  1  0
 63 65  1  0
 63143  1  0
 63144  1  0
 63145  1  0
 64146  1  0
 65147  1  0
 68 84  1  0
 71 72  2  0
 71 75  1  0
 71148  1  0
 72 76  1  0
 72149  1  0
 73 74  1  0
 73 76  2  0
 73150  1  0
 74 75  2  0
 74 77  1  0
 75 81  1  0
 76 88  1  0
 77 87  2  0
 78 81  1  0
 78151  1  0
 78152  1  0
 78153  1  0
 79154  1  0
 79155  1  0
 79156  1  0
 80 86  1  0
 80157  1  0
 80158  1  0
 80159  1  0
 81160  1  0
 81161  1  0
 82 83  1  0
 82 84  1  0
 82162  1  0
 82163  1  0
 83 86  1  0
 83164  1  0
 83165  1  0
 84166  1  0
 84167  1  0
 85 86  1  0
 85 88  1  0
 85168  1  0
 85169  1  0
 86 79  1  0
 87170  1  0
M  ISO  4   1 100  68 101  77 100  84 101
M  END
$$$$
20
     RDKit          3D

159167  0  0  0  0  0  0  0  0999 V2000
  -30.7652  -14.3608   20.6636 C   0  0  0  0  0  0  0  0  0100  0  0
  -30.4392  -12.2669   19.3775 C   0  0  0  0  0  0  0  0  0101  0  0
  -29.4791  -12.5281   18.1977 C   0  0  0  0  0  0  0  0  0102  0  0
  -27.9985  -12.3963   18.6038 C   0  0  0  0  0  0  0  0  0103  0  0
  -27.6639  -13.2170   19.8820 C   0  0  2  0  0  0  0  0  0104  0  0
  -28.6795  -12.9602   21.0279 C   0  0  0  0  0  0  0  0  0105  0  0
  -25.2633  -13.8245   20.5754 C   0  0  0  0  0  0  0  0  0106  0  0
  -24.1645  -13.0409   20.9408 C   0  0  0  0  0  0  0  0  0107  0  0
  -24.6400  -11.7009   20.8697 C   0  0  0  0  0  0  0  0  0108  0  0
  -23.9005  -10.4085   21.0420 C   0  0  0  0  0  0  0  0  0109  0  0
  -24.3588   -9.4123   21.9123 C   0  0  0  0  0  0  0  0  0110  0  0
  -23.6296   -8.2350   22.0803 C   0  0  0  0  0  0  0  0  0111  0  0
  -22.4385   -8.0419   21.3657 C   0  0  0  0  0  0  0  0  0112  0  0
  -22.0103   -9.0167   20.4678 C   0  0  0  0  0  0  0  0  0113  0  0
  -22.7317  -10.1925   20.3102 C   0  0  0  0  0  0  0  0  0114  0  0
  -21.6857   -6.0709   22.5391 C   0  0  0  0  0  0  0  0  0115  0  0
  -21.4064   -6.5490   23.8264 C   0  0  0  0  0  0  0  0  0116  0  0
  -21.3635   -5.6677   24.9085 C   0  0  0  0  0  0  0  0  0117  0  0
  -21.5973   -4.3067   24.7088 C   0  0  0  0  0  0  0  0  0118  0  0
  -21.8700   -3.8284   23.4282 C   0  0  0  0  0  0  0  0  0119  0  0
  -21.9144   -4.7056   22.3460 C   0  0  0  0  0  0  0  0  0120  0  0
  -22.8194  -13.5263   21.1763 C   0  0  0  0  0  0  0  0  0121  0  0
  -22.1559   -4.2206   21.1063 F   0  0  0  0  0  0  0  0  0122  0  0
  -21.5628   -3.4510   25.7555 F   0  0  0  0  0  0  0  0  0123  0  0
  -30.0261  -13.1803   20.4553 N   0  0  0  0  0  0  0  0  0124  0  0
  -26.2911  -12.9356   20.3443 N   0  0  0  0  0  0  0  0  0125  0  0
  -25.9236  -11.6675   20.5847 N   0  0  0  0  0  0  0  0  0126  0  0
  -22.0708  -12.7905   22.0005 N   0  0  0  0  0  0  0  0  0127  0  0
  -25.4117  -15.1773   20.4097 N   0  0  0  0  0  0  0  0  0128  0  0
  -31.7916  -14.6724   20.0536 O   0  0  0  0  0  0  0  0  0129  0  0
  -21.6670   -6.9022   21.4423 O   0  0  0  0  0  0  0  0  0130  0  0
  -22.3946  -14.5564   20.6568 O   0  0  0  0  0  0  0  0  0131  0  0
  -24.6048  -31.8614   23.2223 C   0  0  0  0  0  0  0  0  0100  0  0
  -25.8822  -32.4841   23.8616 C   0  0  1  0  0  0  0  0  0101  0  0
  -27.2536  -27.5042   20.1156 C   0  0  0  0  0  0  0  0  0102  0  0
  -25.5726  -33.8762   24.2210 N   0  0  0  0  0  0  0  0  0103  0  0
  -23.4066  -30.4859   21.5461 C   0  0  2  0  0  0  0  0  0104  0  0
  -24.8467  -28.9636   20.1247 C   0  0  0  0  0  0  0  0  0105  0  0
  -22.7412  -29.4652   22.5052 C   0  0  0  0  0  0  0  0  0106  0  0
  -18.0167  -28.1302   22.8626 C   0  0  0  0  0  0  0  0  0107  0  0
  -24.1342  -36.7390   23.2568 C   0  0  0  0  0  0  0  0  0108  0  0
  -25.9141  -30.8882   21.3456 C   0  0  0  0  0  0  0  0  0109  0  0
  -25.9930  -29.5029   20.7208 C   0  0  0  0  0  0  0  0  0110  0  0
  -27.1758  -28.7612   20.7331 C   0  0  0  0  0  0  0  0  0111  0  0
  -26.1032  -26.9836   19.5230 C   0  0  0  0  0  0  0  0  0112  0  0
  -24.9097  -27.7011   19.5331 C   0  0  0  0  0  0  0  0  0113  0  0
  -23.5715  -29.7899   20.1582 C   0  0  0  0  0  0  0  0  0114  0  0
  -25.3990  -36.3212   24.0232 C   0  0  1  0  0  0  0  0  0115  0  0
  -20.5793  -28.3813   23.1004 C   0  0  2  0  0  0  0  0  0116  0  0
  -20.6548  -26.9392   22.5411 C   0  0  0  0  0  0  0  0  0117  0  0
  -19.5615  -26.6407   21.5143 C   0  0  0  0  0  0  0  0  0118  0  0
  -18.1797  -26.7818   22.1673 C   0  0  0  0  0  0  0  0  0119  0  0
  -19.1385  -28.8769   23.2988 C   0  0  0  0  0  0  0  0  0120  0  0
  -18.9183  -30.1286   23.8878 C   0  0  0  0  0  0  0  0  0121  0  0
  -17.6396  -30.6493   24.0352 C   0  0  0  0  0  0  0  0  0122  0  0
  -25.9153  -34.9582   23.4993 C   0  0  0  0  0  0  0  0  0123  0  0
  -16.5415  -29.9068   23.6254 C   0  0  0  0  0  0  0  0  0124  0  0
  -16.7331  -28.6521   23.0586 C   0  0  0  0  0  0  0  0  0125  0  0
  -26.4583  -31.6439   25.0683 C   0  0  0  0  0  0  0  0  0126  0  0
  -25.3807  -31.3179   26.1374 C   0  0  0  0  0  0  0  0  0127  0  0
  -27.0530  -30.3024   24.5680 C   0  0  0  0  0  0  0  0  0128  0  0
  -27.6014  -32.4281   25.7651 C   0  0  0  0  0  0  0  0  0129  0  0
  -27.5629  -37.2220   24.8621 C   0  0  0  0  0  0  0  0  0130  0  0
  -21.4133  -29.3375   22.3735 N   0  0  0  0  0  0  0  0  0131  0  0
  -26.4706  -37.3372   23.9061 N   0  0  0  0  0  0  0  0  0132  0  0
  -24.6674  -31.0544   22.1178 N   0  0  0  0  0  0  0  0  0133  0  0
  -23.4259  -28.8150   23.2971 O   0  0  0  0  0  0  0  0  0134  0  0
  -28.3948  -26.7345   20.0089 O   0  0  0  0  0  0  0  0  0135  0  0
  -26.5870  -34.9065   22.4671 O   0  0  0  0  0  0  0  0  0136  0  0
  -23.5365  -32.1254   23.7833 O   0  0  0  0  0  0  0  0  0137  0  0
  -32.6459  -17.4962   23.5105 C   0  0  0  0  0  0  0  0  0  0  0  0
  -32.0576  -16.6109   22.6074 C   0  0  0  0  0  0  0  0  0  0  0  0
  -30.4656  -18.3728   24.0716 C   0  0  0  0  0  0  0  0  0  0  0  0
  -31.8499  -18.3771   24.2427 C   0  0  0  0  0  0  0  0  0  0  0  0
  -30.6733  -16.6066   22.4362 C   0  0  0  0  0  0  0  0  0  0  0  0
  -29.8773  -17.4876   23.1684 C   0  0  0  0  0  0  0  0  0  0  0  0
  -32.4786  -19.3230   25.2074 C   0  0  0  0  0  0  0  0  0  0  0  0
  -29.2031  -21.6056   27.4270 C   0  0  0  0  0  0  0  0  0  0  0  0
  -31.1669  -21.1950   28.9243 C   0  0  0  0  0  0  0  0  0  0  0  0
  -31.7188  -19.7751   26.4455 C   0  0  0  0  0  0  0  0  0  0  0  0
  -31.5338  -21.2959   26.4361 C   0  0  0  0  0  0  0  0  0  0  0  0
  -30.7023  -21.8403   27.6149 C   0  0  0  0  0  0  0  0  0  1  0  0
  -33.6768  -19.7699   24.9969 N   0  0  0  0  0  0  0  0  0  0  0  0
  -30.0788  -15.7065   21.5175 N   0  0  0  0  0  0  0  0  0  0  0  0
  -28.5456  -17.4929   23.0118 F   0  0  0  0  0  0  0  0  0  0  0  0
  -31.4485  -12.4701   19.0860 H   0  0  0  0  0  0  0  0  0  0  0  0
  -30.3970  -11.2460   19.6950 H   0  0  0  0  0  0  0  0  0  0  0  0
  -29.6870  -11.8204   17.4226 H   0  0  0  0  0  0  0  0  0  0  0  0
  -29.6375  -13.5326   17.8649 H   0  0  0  0  0  0  0  0  0  0  0  0
  -27.7830  -11.3650   18.7904 H   0  0  0  0  0  0  0  0  0  0  0  0
  -27.4028  -12.7801   17.8021 H   0  0  0  0  0  0  0  0  0  0  0  0
  -27.7353  -14.2503   19.6136 H   0  0  0  0  0  0  0  0  0  0  0  0
  -28.5890  -11.9550   21.3832 H   0  0  0  0  0  0  0  0  0  0  0  0
  -28.5005  -13.6134   21.8562 H   0  0  0  0  0  0  0  0  0  0  0  0
  -25.2399   -9.5495   22.4318 H   0  0  0  0  0  0  0  0  0  0  0  0
  -23.9663   -7.5070   22.7297 H   0  0  0  0  0  0  0  0  0  0  0  0
  -21.1515   -8.8641   19.9162 H   0  0  0  0  0  0  0  0  0  0  0  0
  -22.4016  -10.9115   19.6476 H   0  0  0  0  0  0  0  0  0  0  0  0
  -21.2319   -7.5552   23.9750 H   0  0  0  0  0  0  0  0  0  0  0  0
  -21.1589   -6.0228   25.8556 H   0  0  0  0  0  0  0  0  0  0  0  0
  -22.0396   -2.8212   23.2809 H   0  0  0  0  0  0  0  0  0  0  0  0
  -22.4401  -11.9703   22.4008 H   0  0  0  0  0  0  0  0  0  0  0  0
  -21.1493  -13.0679   22.2082 H   0  0  0  0  0  0  0  0  0  0  0  0
  -24.6538  -15.7807   20.5848 H   0  0  0  0  0  0  0  0  0  0  0  0
  -26.2762  -15.5453   20.1156 H   0  0  0  0  0  0  0  0  0  0  0  0
  -26.6778  -32.4663   23.1464 H   0  0  0  0  0  0  0  0  0  0  0  0
  -25.0747  -34.0282   25.0566 H   0  0  0  0  0  0  0  0  0  0  0  0
  -22.7881  -31.3489   21.4131 H   0  0  0  0  0  0  0  0  0  0  0  0
  -23.3854  -35.9823   23.3648 H   0  0  0  0  0  0  0  0  0  0  0  0
  -24.3696  -36.8624   22.2204 H   0  0  0  0  0  0  0  0  0  0  0  0
  -23.7669  -37.6632   23.6516 H   0  0  0  0  0  0  0  0  0  0  0  0
  -25.9445  -31.6237   20.5691 H   0  0  0  0  0  0  0  0  0  0  0  0
  -26.7436  -31.0079   22.0108 H   0  0  0  0  0  0  0  0  0  0  0  0
  -28.0090  -29.1452   21.2057 H   0  0  0  0  0  0  0  0  0  0  0  0
  -26.1369  -26.0560   19.0719 H   0  0  0  0  0  0  0  0  0  0  0  0
  -24.0652  -27.2961   19.0997 H   0  0  0  0  0  0  0  0  0  0  0  0
  -23.6156  -30.5365   19.3930 H   0  0  0  0  0  0  0  0  0  0  0  0
  -22.7355  -29.1425   19.9945 H   0  0  0  0  0  0  0  0  0  0  0  0
  -25.1353  -36.2335   25.0565 H   0  0  0  0  0  0  0  0  0  0  0  0
  -21.0070  -28.3206   24.0793 H   0  0  0  0  0  0  0  0  0  0  0  0
  -20.5555  -26.2518   23.3550 H   0  0  0  0  0  0  0  0  0  0  0  0
  -21.5974  -26.8362   22.0454 H   0  0  0  0  0  0  0  0  0  0  0  0
  -19.6810  -25.6422   21.1488 H   0  0  0  0  0  0  0  0  0  0  0  0
  -19.6406  -27.3343   20.7034 H   0  0  0  0  0  0  0  0  0  0  0  0
  -17.4282  -26.6888   21.4113 H   0  0  0  0  0  0  0  0  0  0  0  0
  -18.0803  -26.0130   22.9049 H   0  0  0  0  0  0  0  0  0  0  0  0
  -19.7265  -30.6774   24.2204 H   0  0  0  0  0  0  0  0  0  0  0  0
  -17.5064  -31.5856   24.4483 H   0  0  0  0  0  0  0  0  0  0  0  0
  -15.5878  -30.2839   23.7407 H   0  0  0  0  0  0  0  0  0  0  0  0
  -15.9120  -28.0941   22.7766 H   0  0  0  0  0  0  0  0  0  0  0  0
  -24.5787  -30.7757   25.6817 H   0  0  0  0  0  0  0  0  0  0  0  0
  -25.0041  -32.2289   26.5536 H   0  0  0  0  0  0  0  0  0  0  0  0
  -25.8166  -30.7245   26.9138 H   0  0  0  0  0  0  0  0  0  0  0  0
  -26.2892  -29.7335   24.0803 H   0  0  0  0  0  0  0  0  0  0  0  0
  -27.4336  -29.7484   25.4006 H   0  0  0  0  0  0  0  0  0  0  0  0
  -27.8466  -30.4994   23.8779 H   0  0  0  0  0  0  0  0  0  0  0  0
  -27.2251  -33.3632   26.1242 H   0  0  0  0  0  0  0  0  0  0  0  0
  -28.3902  -32.6065   25.0645 H   0  0  0  0  0  0  0  0  0  0  0  0
  -27.9772  -31.8555   26.5872 H   0  0  0  0  0  0  0  0  0  0  0  0
  -28.2744  -38.0016   24.6863 H   0  0  0  0  0  0  0  0  0  0  0  0
  -28.0396  -36.2711   24.7461 H   0  0  0  0  0  0  0  0  0  0  0  0
  -27.1773  -37.3087   25.8564 H   0  0  0  0  0  0  0  0  0  0  0  0
  -20.9627  -29.9365   21.7352 H   0  0  0  0  0  0  0  0  0  0  0  0
  -26.0447  -38.2561   24.0273 H   0  0  0  0  0  0  0  0  0  0  0  0
  -33.6701  -17.4995   23.6370 H   0  0  0  0  0  0  0  0  0  0  0  0
  -32.6465  -15.9590   22.0659 H   0  0  0  0  0  0  0  0  0  0  0  0
  -29.8767  -19.0246   24.6133 H   0  0  0  0  0  0  0  0  0  0  0  0
  -28.8432  -20.9607   28.2013 H   0  0  0  0  0  0  0  0  0  0  0  0
  -29.0300  -21.1502   26.4744 H   0  0  0  0  0  0  0  0  0  0  0  0
  -28.6869  -22.5417   27.4739 H   0  0  0  0  0  0  0  0  0  0  0  0
  -30.8368  -20.1777   28.9574 H   0  0  0  0  0  0  0  0  0  0  0  0
  -30.7532  -21.7313   29.7527 H   0  0  0  0  0  0  0  0  0  0  0  0
  -32.2351  -21.2253   28.9775 H   0  0  0  0  0  0  0  0  0  0  0  0
  -32.2688  -19.4927   27.3188 H   0  0  0  0  0  0  0  0  0  0  0  0
  -30.7555  -19.3094   26.4496 H   0  0  0  0  0  0  0  0  0  0  0  0
  -31.0427  -21.5683   25.5253 H   0  0  0  0  0  0  0  0  0  0  0  0
  -32.5102  -21.7243   26.5257 H   0  0  0  0  0  0  0  0  0  0  0  0
  -34.1760  -19.4828   24.1984 H   0  0  0  0  0  0  0  0  0  0  0  0
  -29.1254  -15.8705   21.3347 H   0  0  0  0  0  0  0  0  0  0  0  0
  1 25  1  0
  1 30  2  0
  1 84  1  0
  2  3  1  0
  2 25  1  0
  2 86  1  0
  2 87  1  0
  3  4  1  0
  3 88  1  0
  3 89  1  0
  4  5  1  0
  4 90  1  0
  4 91  1  0
  5  6  1  0
  5 26  1  0
  5 92  1  6
  6 25  1  0
  6 93  1  0
  6 94  1  0
  7  8  2  0
  7 26  1  0
  7 29  1  0
  8  9  1  0
  8 22  1  0
  9 10  1  0
  9 27  2  0
 10 11  2  0
 10 15  1  0
 11 12  1  0
 11 95  1  0
 12 13  2  0
 12 96  1  0
 13 14  1  0
 13 31  1  0
 14 15  2  0
 14 97  1  0
 15 98  1  0
 16 17  2  0
 16 21  1  0
 16 31  1  0
 17 18  1  0
 17 99  1  0
 18 19  2  0
 18100  1  0
 19 20  1  0
 19 24  1  0
 20 21  2  0
 20101  1  0
 21 23  1  0
 22 28  1  0
 22 32  2  0
 26 27  1  0
 28102  1  0
 28103  1  0
 29104  1  0
 29105  1  0
 33 34  1  0
 33 66  1  0
 33 70  2  0
 34 36  1  0
 34 59  1  0
 34106  1  6
 35 44  2  0
 35 45  1  0
 35 68  1  0
 36 56  1  0
 36107  1  0
 37 39  1  0
 37 47  1  0
 37 66  1  0
 37108  1  6
 38 43  2  0
 38 46  1  0
 38 47  1  0
 39 64  1  0
 39 67  2  0
 40 52  1  0
 40 53  2  0
 40 58  1  0
 41109  1  0
 41110  1  0
 41111  1  0
 42 43  1  0
 42 66  1  0
 42112  1  0
 42113  1  0
 43 44  1  0
 44114  1  0
 45 46  2  0
 45115  1  0
 46116  1  0
 47117  1  0
 47118  1  0
 48 41  1  0
 48 56  1  0
 48 65  1  0
 48119  1  1
 49 50  1  0
 49 53  1  0
 49 64  1  0
 49120  1  1
 50 51  1  0
 50121  1  0
 50122  1  0
 51 52  1  0
 51123  1  0
 51124  1  0
 52125  1  0
 52126  1  0
 53 54  1  0
 54 55  2  0
 54127  1  0
 55 57  1  0
 55128  1  0
 56 69  2  0
 57 58  2  0
 57129  1  0
 58130  1  0
 59 60  1  0
 59 61  1  0
 59 62  1  0
 60131  1  0
 60132  1  0
 60133  1  0
 61134  1  0
 61135  1  0
 61136  1  0
 62137  1  0
 62138  1  0
 62139  1  0
 63 65  1  0
 63140  1  0
 63141  1  0
 63142  1  0
 64143  1  0
 65144  1  0
 68 82  1  0
 71 72  2  0
 71 74  1  0
 71145  1  0
 72 75  1  0
 72146  1  0
 73 74  2  0
 73 76  1  0
 73147  1  0
 74 77  1  0
 75 76  2  0
 75 84  1  0
 76 85  1  0
 77 80  1  0
 77 83  2  0
 78148  1  0
 78149  1  0
 78150  1  0
 79 82  1  0
 79151  1  0
 79152  1  0
 79153  1  0
 80 81  1  0
 80154  1  0
 80155  1  0
 81 82  1  0
 81156  1  0
 81157  1  0
 82 78  1  0
 83158  1  0
 84159  1  0
M  ISO  4   1 100  68 101  82 101  84 100
M  END
$$$$
21
     RDKit          3D

155163  0  0  0  0  0  0  0  0999 V2000
  -30.7652  -14.3608   20.6636 C   0  0  0  0  0  0  0  0  0100  0  0
  -30.4392  -12.2669   19.3775 C   0  0  0  0  0  0  0  0  0101  0  0
  -29.4791  -12.5281   18.1977 C   0  0  0  0  0  0  0  0  0102  0  0
  -27.9985  -12.3963   18.6038 C   0  0  0  0  0  0  0  0  0103  0  0
  -27.6639  -13.2170   19.8820 C   0  0  2  0  0  0  0  0  0104  0  0
  -28.6795  -12.9602   21.0279 C   0  0  0  0  0  0  0  0  0105  0  0
  -25.2633  -13.8245   20.5754 C   0  0  0  0  0  0  0  0  0106  0  0
  -24.1645  -13.0409   20.9408 C   0  0  0  0  0  0  0  0  0107  0  0
  -24.6400  -11.7009   20.8697 C   0  0  0  0  0  0  0  0  0108  0  0
  -23.9005  -10.4085   21.0420 C   0  0  0  0  0  0  0  0  0109  0  0
  -24.3588   -9.4123   21.9123 C   0  0  0  0  0  0  0  0  0110  0  0
  -23.6296   -8.2350   22.0803 C   0  0  0  0  0  0  0  0  0111  0  0
  -22.4385   -8.0419   21.3657 C   0  0  0  0  0  0  0  0  0112  0  0
  -22.0103   -9.0167   20.4678 C   0  0  0  0  0  0  0  0  0113  0  0
  -22.7317  -10.1925   20.3102 C   0  0  0  0  0  0  0  0  0114  0  0
  -21.6857   -6.0709   22.5391 C   0  0  0  0  0  0  0  0  0115  0  0
  -21.4064   -6.5490   23.8264 C   0  0  0  0  0  0  0  0  0116  0  0
  -21.3635   -5.6677   24.9085 C   0  0  0  0  0  0  0  0  0117  0  0
  -21.5973   -4.3067   24.7088 C   0  0  0  0  0  0  0  0  0118  0  0
  -21.8700   -3.8284   23.4282 C   0  0  0  0  0  0  0  0  0119  0  0
  -21.9144   -4.7056   22.3460 C   0  0  0  0  0  0  0  0  0120  0  0
  -22.8194  -13.5263   21.1763 C   0  0  0  0  0  0  0  0  0121  0  0
  -22.1559   -4.2206   21.1063 F   0  0  0  0  0  0  0  0  0122  0  0
  -21.5628   -3.4510   25.7555 F   0  0  0  0  0  0  0  0  0123  0  0
  -30.0261  -13.1803   20.4553 N   0  0  0  0  0  0  0  0  0124  0  0
  -26.2911  -12.9356   20.3443 N   0  0  0  0  0  0  0  0  0125  0  0
  -25.9236  -11.6675   20.5847 N   0  0  0  0  0  0  0  0  0126  0  0
  -22.0708  -12.7905   22.0005 N   0  0  0  0  0  0  0  0  0127  0  0
  -25.4117  -15.1773   20.4097 N   0  0  0  0  0  0  0  0  0128  0  0
  -31.7916  -14.6724   20.0536 O   0  0  0  0  0  0  0  0  0129  0  0
  -21.6670   -6.9022   21.4423 O   0  0  0  0  0  0  0  0  0130  0  0
  -22.3946  -14.5564   20.6568 O   0  0  0  0  0  0  0  0  0131  0  0
  -24.6048  -31.8614   23.2223 C   0  0  0  0  0  0  0  0  0100  0  0
  -25.8822  -32.4841   23.8616 C   0  0  1  0  0  0  0  0  0101  0  0
  -27.2536  -27.5042   20.1156 C   0  0  0  0  0  0  0  0  0102  0  0
  -25.5726  -33.8762   24.2210 N   0  0  0  0  0  0  0  0  0103  0  0
  -23.4066  -30.4859   21.5461 C   0  0  2  0  0  0  0  0  0104  0  0
  -24.8467  -28.9636   20.1247 C   0  0  0  0  0  0  0  0  0105  0  0
  -22.7412  -29.4652   22.5052 C   0  0  0  0  0  0  0  0  0106  0  0
  -18.0167  -28.1302   22.8626 C   0  0  0  0  0  0  0  0  0107  0  0
  -24.1342  -36.7390   23.2568 C   0  0  0  0  0  0  0  0  0108  0  0
  -25.9141  -30.8882   21.3456 C   0  0  0  0  0  0  0  0  0109  0  0
  -25.9930  -29.5029   20.7208 C   0  0  0  0  0  0  0  0  0110  0  0
  -27.1758  -28.7612   20.7331 C   0  0  0  0  0  0  0  0  0111  0  0
  -26.1032  -26.9836   19.5230 C   0  0  0  0  0  0  0  0  0112  0  0
  -24.9097  -27.7011   19.5331 C   0  0  0  0  0  0  0  0  0113  0  0
  -23.5715  -29.7899   20.1582 C   0  0  0  0  0  0  0  0  0114  0  0
  -25.3990  -36.3212   24.0232 C   0  0  1  0  0  0  0  0  0115  0  0
  -20.5793  -28.3813   23.1004 C   0  0  2  0  0  0  0  0  0116  0  0
  -20.6548  -26.9392   22.5411 C   0  0  0  0  0  0  0  0  0117  0  0
  -19.5615  -26.6407   21.5143 C   0  0  0  0  0  0  0  0  0118  0  0
  -18.1797  -26.7818   22.1673 C   0  0  0  0  0  0  0  0  0119  0  0
  -19.1385  -28.8769   23.2988 C   0  0  0  0  0  0  0  0  0120  0  0
  -18.9183  -30.1286   23.8878 C   0  0  0  0  0  0  0  0  0121  0  0
  -17.6396  -30.6493   24.0352 C   0  0  0  0  0  0  0  0  0122  0  0
  -25.9153  -34.9582   23.4993 C   0  0  0  0  0  0  0  0  0123  0  0
  -16.5415  -29.9068   23.6254 C   0  0  0  0  0  0  0  0  0124  0  0
  -16.7331  -28.6521   23.0586 C   0  0  0  0  0  0  0  0  0125  0  0
  -26.4583  -31.6439   25.0683 C   0  0  0  0  0  0  0  0  0126  0  0
  -25.3807  -31.3179   26.1374 C   0  0  0  0  0  0  0  0  0127  0  0
  -27.0530  -30.3024   24.5680 C   0  0  0  0  0  0  0  0  0128  0  0
  -27.6014  -32.4281   25.7651 C   0  0  0  0  0  0  0  0  0129  0  0
  -27.5629  -37.2220   24.8621 C   0  0  0  0  0  0  0  0  0130  0  0
  -21.4133  -29.3375   22.3735 N   0  0  0  0  0  0  0  0  0131  0  0
  -26.4706  -37.3372   23.9061 N   0  0  0  0  0  0  0  0  0132  0  0
  -24.6674  -31.0544   22.1178 N   0  0  0  0  0  0  0  0  0133  0  0
  -23.4259  -28.8150   23.2971 O   0  0  0  0  0  0  0  0  0134  0  0
  -28.3948  -26.7345   20.0089 O   0  0  0  0  0  0  0  0  0135  0  0
  -26.5870  -34.9065   22.4671 O   0  0  0  0  0  0  0  0  0136  0  0
  -23.5365  -32.1254   23.7833 O   0  0  0  0  0  0  0  0  0137  0  0
  -31.7976  -17.5055   21.7167 C   0  0  0  0  0  0  0  0  0  0  0  0
  -31.6741  -18.7195   22.4143 C   0  0  0  0  0  0  0  0  0  0  0  0
  -30.5898  -16.8909   21.9163 C   0  0  0  0  0  0  0  0  0  0  0  0
  -32.3929  -21.0403   22.6171 C   0  0  0  0  0  0  0  0  0  0  0  0
  -32.7438  -19.7464   22.4936 C   0  0  0  0  0  0  0  0  0  0  0  0
  -33.3544  -22.1813   22.7084 C   0  0  0  0  0  0  0  0  0  0  0  0
  -34.1549  -19.2277   22.4309 C   0  0  0  0  0  0  0  0  0  0  0  0
  -32.7772  -25.8901   23.6036 C   0  0  0  0  0  0  0  0  0  0  0  0
  -32.8686  -23.3763   23.5159 C   0  0  0  0  0  0  0  0  0  0  0  0
  -32.8343  -24.6674   22.6974 C   0  0  1  0  0  0  0  0  0  1  0  0
  -30.4810  -18.8481   23.0014 N   0  0  0  0  0  0  0  0  0  0  0  0
  -30.0730  -15.6455   21.4809 N   0  0  0  0  0  0  0  0  0  0  0  0
  -34.4693  -22.1330   22.1977 O   0  0  0  0  0  0  0  0  0  0  0  0
  -29.7954  -17.6823   22.6815 O   0  0  0  0  0  0  0  0  0  0  0  0
  -31.4485  -12.4701   19.0860 H   0  0  0  0  0  0  0  0  0  0  0  0
  -30.3970  -11.2460   19.6950 H   0  0  0  0  0  0  0  0  0  0  0  0
  -29.6870  -11.8204   17.4226 H   0  0  0  0  0  0  0  0  0  0  0  0
  -29.6375  -13.5326   17.8649 H   0  0  0  0  0  0  0  0  0  0  0  0
  -27.7830  -11.3650   18.7904 H   0  0  0  0  0  0  0  0  0  0  0  0
  -27.4028  -12.7801   17.8021 H   0  0  0  0  0  0  0  0  0  0  0  0
  -27.7353  -14.2503   19.6136 H   0  0  0  0  0  0  0  0  0  0  0  0
  -28.5890  -11.9550   21.3832 H   0  0  0  0  0  0  0  0  0  0  0  0
  -28.5005  -13.6134   21.8562 H   0  0  0  0  0  0  0  0  0  0  0  0
  -25.2399   -9.5495   22.4318 H   0  0  0  0  0  0  0  0  0  0  0  0
  -23.9663   -7.5070   22.7297 H   0  0  0  0  0  0  0  0  0  0  0  0
  -21.1515   -8.8641   19.9162 H   0  0  0  0  0  0  0  0  0  0  0  0
  -22.4016  -10.9115   19.6476 H   0  0  0  0  0  0  0  0  0  0  0  0
  -21.2319   -7.5552   23.9750 H   0  0  0  0  0  0  0  0  0  0  0  0
  -21.1589   -6.0228   25.8556 H   0  0  0  0  0  0  0  0  0  0  0  0
  -22.0396   -2.8212   23.2809 H   0  0  0  0  0  0  0  0  0  0  0  0
  -22.4401  -11.9703   22.4008 H   0  0  0  0  0  0  0  0  0  0  0  0
  -21.1493  -13.0679   22.2082 H   0  0  0  0  0  0  0  0  0  0  0  0
  -24.6538  -15.7807   20.5848 H   0  0  0  0  0  0  0  0  0  0  0  0
  -26.2762  -15.5453   20.1156 H   0  0  0  0  0  0  0  0  0  0  0  0
  -26.6778  -32.4663   23.1464 H   0  0  0  0  0  0  0  0  0  0  0  0
  -25.0747  -34.0282   25.0566 H   0  0  0  0  0  0  0  0  0  0  0  0
  -22.7881  -31.3489   21.4131 H   0  0  0  0  0  0  0  0  0  0  0  0
  -23.3854  -35.9823   23.3648 H   0  0  0  0  0  0  0  0  0  0  0  0
  -24.3696  -36.8624   22.2204 H   0  0  0  0  0  0  0  0  0  0  0  0
  -23.7669  -37.6632   23.6516 H   0  0  0  0  0  0  0  0  0  0  0  0
  -25.9445  -31.6237   20.5691 H   0  0  0  0  0  0  0  0  0  0  0  0
  -26.7436  -31.0079   22.0108 H   0  0  0  0  0  0  0  0  0  0  0  0
  -28.0090  -29.1452   21.2057 H   0  0  0  0  0  0  0  0  0  0  0  0
  -26.1369  -26.0560   19.0719 H   0  0  0  0  0  0  0  0  0  0  0  0
  -24.0652  -27.2961   19.0997 H   0  0  0  0  0  0  0  0  0  0  0  0
  -23.6156  -30.5365   19.3930 H   0  0  0  0  0  0  0  0  0  0  0  0
  -22.7355  -29.1425   19.9945 H   0  0  0  0  0  0  0  0  0  0  0  0
  -25.1353  -36.2335   25.0565 H   0  0  0  0  0  0  0  0  0  0  0  0
  -21.0070  -28.3206   24.0793 H   0  0  0  0  0  0  0  0  0  0  0  0
  -20.5555  -26.2518   23.3550 H   0  0  0  0  0  0  0  0  0  0  0  0
  -21.5974  -26.8362   22.0454 H   0  0  0  0  0  0  0  0  0  0  0  0
  -19.6810  -25.6422   21.1488 H   0  0  0  0  0  0  0  0  0  0  0  0
  -19.6406  -27.3343   20.7034 H   0  0  0  0  0  0  0  0  0  0  0  0
  -17.4282  -26.6888   21.4113 H   0  0  0  0  0  0  0  0  0  0  0  0
  -18.0803  -26.0130   22.9049 H   0  0  0  0  0  0  0  0  0  0  0  0
  -19.7265  -30.6774   24.2204 H   0  0  0  0  0  0  0  0  0  0  0  0
  -17.5064  -31.5856   24.4483 H   0  0  0  0  0  0  0  0  0  0  0  0
  -15.5878  -30.2839   23.7407 H   0  0  0  0  0  0  0  0  0  0  0  0
  -15.9120  -28.0941   22.7766 H   0  0  0  0  0  0  0  0  0  0  0  0
  -24.5787  -30.7757   25.6817 H   0  0  0  0  0  0  0  0  0  0  0  0
  -25.0041  -32.2289   26.5536 H   0  0  0  0  0  0  0  0  0  0  0  0
  -25.8166  -30.7245   26.9138 H   0  0  0  0  0  0  0  0  0  0  0  0
  -26.2892  -29.7335   24.0803 H   0  0  0  0  0  0  0  0  0  0  0  0
  -27.4336  -29.7484   25.4006 H   0  0  0  0  0  0  0  0  0  0  0  0
  -27.8466  -30.4994   23.8779 H   0  0  0  0  0  0  0  0  0  0  0  0
  -27.2251  -33.3632   26.1242 H   0  0  0  0  0  0  0  0  0  0  0  0
  -28.3902  -32.6065   25.0645 H   0  0  0  0  0  0  0  0  0  0  0  0
  -27.9772  -31.8555   26.5872 H   0  0  0  0  0  0  0  0  0  0  0  0
  -28.2744  -38.0016   24.6863 H   0  0  0  0  0  0  0  0  0  0  0  0
  -28.0396  -36.2711   24.7461 H   0  0  0  0  0  0  0  0  0  0  0  0
  -27.1773  -37.3087   25.8564 H   0  0  0  0  0  0  0  0  0  0  0  0
  -20.9627  -29.9365   21.7352 H   0  0  0  0  0  0  0  0  0  0  0  0
  -26.0447  -38.2561   24.0273 H   0  0  0  0  0  0  0  0  0  0  0  0
  -32.6080  -17.1586   21.1801 H   0  0  0  0  0  0  0  0  0  0  0  0
  -31.3853  -21.2608   22.6513 H   0  0  0  0  0  0  0  0  0  0  0  0
  -34.1392  -18.1624   22.3324 H   0  0  0  0  0  0  0  0  0  0  0  0
  -34.6735  -19.4954   23.3277 H   0  0  0  0  0  0  0  0  0  0  0  0
  -34.6554  -19.6565   21.5880 H   0  0  0  0  0  0  0  0  0  0  0  0
  -33.5646  -25.8357   24.3260 H   0  0  0  0  0  0  0  0  0  0  0  0
  -31.8331  -25.9176   24.1064 H   0  0  0  0  0  0  0  0  0  0  0  0
  -32.8938  -26.7760   23.0150 H   0  0  0  0  0  0  0  0  0  0  0  0
  -33.5256  -23.5164   24.3488 H   0  0  0  0  0  0  0  0  0  0  0  0
  -31.8679  -23.1674   23.8318 H   0  0  0  0  0  0  0  0  0  0  0  0
  -33.6303  -24.3445   22.0594 H   0  0  0  0  0  0  0  0  0  0  0  0
  -29.1233  -15.5103   21.7021 H   0  0  0  0  0  0  0  0  0  0  0  0
  1 25  1  0
  1 30  2  0
  1 82  1  0
  2  3  1  0
  2 25  1  0
  2 85  1  0
  2 86  1  0
  3  4  1  0
  3 87  1  0
  3 88  1  0
  4  5  1  0
  4 89  1  0
  4 90  1  0
  5  6  1  0
  5 26  1  0
  5 91  1  6
  6 25  1  0
  6 92  1  0
  6 93  1  0
  7  8  2  0
  7 26  1  0
  7 29  1  0
  8  9  1  0
  8 22  1  0
  9 10  1  0
  9 27  2  0
 10 11  2  0
 10 15  1  0
 11 12  1  0
 11 94  1  0
 12 13  2  0
 12 95  1  0
 13 14  1  0
 13 31  1  0
 14 15  2  0
 14 96  1  0
 15 97  1  0
 16 17  2  0
 16 21  1  0
 16 31  1  0
 17 18  1  0
 17 98  1  0
 18 19  2  0
 18 99  1  0
 19 20  1  0
 19 24  1  0
 20 21  2  0
 20100  1  0
 21 23  1  0
 22 28  1  0
 22 32  2  0
 26 27  1  0
 28101  1  0
 28102  1  0
 29103  1  0
 29104  1  0
 33 34  1  0
 33 66  1  0
 33 70  2  0
 34 36  1  0
 34 59  1  0
 34105  1  6
 35 44  2  0
 35 45  1  0
 35 68  1  0
 36 56  1  0
 36106  1  0
 37 39  1  0
 37 47  1  0
 37 66  1  0
 37107  1  6
 38 43  2  0
 38 46  1  0
 38 47  1  0
 39 64  1  0
 39 67  2  0
 40 52  1  0
 40 53  2  0
 40 58  1  0
 41108  1  0
 41109  1  0
 41110  1  0
 42 43  1  0
 42 66  1  0
 42111  1  0
 42112  1  0
 43 44  1  0
 44113  1  0
 45 46  2  0
 45114  1  0
 46115  1  0
 47116  1  0
 47117  1  0
 48 41  1  0
 48 56  1  0
 48 65  1  0
 48118  1  1
 49 50  1  0
 49 53  1  0
 49 64  1  0
 49119  1  1
 50 51  1  0
 50120  1  0
 50121  1  0
 51 52  1  0
 51122  1  0
 51123  1  0
 52124  1  0
 52125  1  0
 53 54  1  0
 54 55  2  0
 54126  1  0
 55 57  1  0
 55127  1  0
 56 69  2  0
 57 58  2  0
 57128  1  0
 58129  1  0
 59 60  1  0
 59 61  1  0
 59 62  1  0
 60130  1  0
 60131  1  0
 60132  1  0
 61133  1  0
 61134  1  0
 61135  1  0
 62136  1  0
 62137  1  0
 62138  1  0
 63 65  1  0
 63139  1  0
 63140  1  0
 63141  1  0
 64142  1  0
 65143  1  0
 68 80  1  0
 71 72  1  0
 71 73  2  0
 71144  1  0
 72 75  1  0
 72 81  2  0
 73 82  1  0
 73 84  1  0
 74 75  2  0
 74 76  1  0
 74145  1  0
 75 77  1  0
 76 79  1  0
 76 83  2  0
 77146  1  0
 77147  1  0
 77148  1  0
 78149  1  0
 78150  1  0
 78151  1  0
 79 80  1  0
 79152  1  0
 79153  1  0
 80 78  1  0
 80154  1  6
 81 84  1  0
 82155  1  0
M  ISO  4   1 100  68 101  80 101  82 100
M  END
$$$$
22
     RDKit          3D

167175  0  0  0  0  0  0  0  0999 V2000
  -30.7652  -14.3608   20.6636 C   0  0  0  0  0  0  0  0  0100  0  0
  -30.4392  -12.2669   19.3775 C   0  0  0  0  0  0  0  0  0101  0  0
  -29.4791  -12.5281   18.1977 C   0  0  0  0  0  0  0  0  0102  0  0
  -27.9985  -12.3963   18.6038 C   0  0  0  0  0  0  0  0  0103  0  0
  -27.6639  -13.2170   19.8820 C   0  0  2  0  0  0  0  0  0104  0  0
  -28.6795  -12.9602   21.0279 C   0  0  0  0  0  0  0  0  0105  0  0
  -25.2633  -13.8245   20.5754 C   0  0  0  0  0  0  0  0  0106  0  0
  -24.1645  -13.0409   20.9408 C   0  0  0  0  0  0  0  0  0107  0  0
  -24.6400  -11.7009   20.8697 C   0  0  0  0  0  0  0  0  0108  0  0
  -23.9005  -10.4085   21.0420 C   0  0  0  0  0  0  0  0  0109  0  0
  -24.3588   -9.4123   21.9123 C   0  0  0  0  0  0  0  0  0110  0  0
  -23.6296   -8.2350   22.0803 C   0  0  0  0  0  0  0  0  0111  0  0
  -22.4385   -8.0419   21.3657 C   0  0  0  0  0  0  0  0  0112  0  0
  -22.0103   -9.0167   20.4678 C   0  0  0  0  0  0  0  0  0113  0  0
  -22.7317  -10.1925   20.3102 C   0  0  0  0  0  0  0  0  0114  0  0
  -21.6857   -6.0709   22.5391 C   0  0  0  0  0  0  0  0  0115  0  0
  -21.4064   -6.5490   23.8264 C   0  0  0  0  0  0  0  0  0116  0  0
  -21.3635   -5.6677   24.9085 C   0  0  0  0  0  0  0  0  0117  0  0
  -21.5973   -4.3067   24.7088 C   0  0  0  0  0  0  0  0  0118  0  0
  -21.8700   -3.8284   23.4282 C   0  0  0  0  0  0  0  0  0119  0  0
  -21.9144   -4.7056   22.3460 C   0  0  0  0  0  0  0  0  0120  0  0
  -22.8194  -13.5263   21.1763 C   0  0  0  0  0  0  0  0  0121  0  0
  -22.1559   -4.2206   21.1063 F   0  0  0  0  0  0  0  0  0122  0  0
  -21.5628   -3.4510   25.7555 F   0  0  0  0  0  0  0  0  0123  0  0
  -30.0261  -13.1803   20.4553 N   0  0  0  0  0  0  0  0  0124  0  0
  -26.2911  -12.9356   20.3443 N   0  0  0  0  0  0  0  0  0125  0  0
  -25.9236  -11.6675   20.5847 N   0  0  0  0  0  0  0  0  0126  0  0
  -22.0708  -12.7905   22.0005 N   0  0  0  0  0  0  0  0  0127  0  0
  -25.4117  -15.1773   20.4097 N   0  0  0  0  0  0  0  0  0128  0  0
  -31.7916  -14.6724   20.0536 O   0  0  0  0  0  0  0  0  0129  0  0
  -21.6670   -6.9022   21.4423 O   0  0  0  0  0  0  0  0  0130  0  0
  -22.3946  -14.5564   20.6568 O   0  0  0  0  0  0  0  0  0131  0  0
  -24.6048  -31.8614   23.2223 C   0  0  0  0  0  0  0  0  0100  0  0
  -25.8822  -32.4841   23.8616 C   0  0  1  0  0  0  0  0  0101  0  0
  -27.2536  -27.5042   20.1156 C   0  0  0  0  0  0  0  0  0102  0  0
  -25.5726  -33.8762   24.2210 N   0  0  0  0  0  0  0  0  0103  0  0
  -23.4066  -30.4859   21.5461 C   0  0  2  0  0  0  0  0  0104  0  0
  -24.8467  -28.9636   20.1247 C   0  0  0  0  0  0  0  0  0105  0  0
  -22.7412  -29.4652   22.5052 C   0  0  0  0  0  0  0  0  0106  0  0
  -18.0167  -28.1302   22.8626 C   0  0  0  0  0  0  0  0  0107  0  0
  -24.1342  -36.7390   23.2568 C   0  0  0  0  0  0  0  0  0108  0  0
  -25.9141  -30.8882   21.3456 C   0  0  0  0  0  0  0  0  0109  0  0
  -25.9930  -29.5029   20.7208 C   0  0  0  0  0  0  0  0  0110  0  0
  -27.1758  -28.7612   20.7331 C   0  0  0  0  0  0  0  0  0111  0  0
  -26.1032  -26.9836   19.5230 C   0  0  0  0  0  0  0  0  0112  0  0
  -24.9097  -27.7011   19.5331 C   0  0  0  0  0  0  0  0  0113  0  0
  -23.5715  -29.7899   20.1582 C   0  0  0  0  0  0  0  0  0114  0  0
  -25.3990  -36.3212   24.0232 C   0  0  1  0  0  0  0  0  0115  0  0
  -20.5793  -28.3813   23.1004 C   0  0  2  0  0  0  0  0  0116  0  0
  -20.6548  -26.9392   22.5411 C   0  0  0  0  0  0  0  0  0117  0  0
  -19.5615  -26.6407   21.5143 C   0  0  0  0  0  0  0  0  0118  0  0
  -18.1797  -26.7818   22.1673 C   0  0  0  0  0  0  0  0  0119  0  0
  -19.1385  -28.8769   23.2988 C   0  0  0  0  0  0  0  0  0120  0  0
  -18.9183  -30.1286   23.8878 C   0  0  0  0  0  0  0  0  0121  0  0
  -17.6396  -30.6493   24.0352 C   0  0  0  0  0  0  0  0  0122  0  0
  -25.9153  -34.9582   23.4993 C   0  0  0  0  0  0  0  0  0123  0  0
  -16.5415  -29.9068   23.6254 C   0  0  0  0  0  0  0  0  0124  0  0
  -16.7331  -28.6521   23.0586 C   0  0  0  0  0  0  0  0  0125  0  0
  -26.4583  -31.6439   25.0683 C   0  0  0  0  0  0  0  0  0126  0  0
  -25.3807  -31.3179   26.1374 C   0  0  0  0  0  0  0  0  0127  0  0
  -27.0530  -30.3024   24.5680 C   0  0  0  0  0  0  0  0  0128  0  0
  -27.6014  -32.4281   25.7651 C   0  0  0  0  0  0  0  0  0129  0  0
  -27.5629  -37.2220   24.8621 C   0  0  0  0  0  0  0  0  0130  0  0
  -21.4133  -29.3375   22.3735 N   0  0  0  0  0  0  0  0  0131  0  0
  -26.4706  -37.3372   23.9061 N   0  0  0  0  0  0  0  0  0132  0  0
  -24.6674  -31.0544   22.1178 N   0  0  0  0  0  0  0  0  0133  0  0
  -23.4259  -28.8150   23.2971 O   0  0  0  0  0  0  0  0  0134  0  0
  -28.3948  -26.7345   20.0089 O   0  0  0  0  0  0  0  0  0135  0  0
  -26.5870  -34.9065   22.4671 O   0  0  0  0  0  0  0  0  0136  0  0
  -23.5365  -32.1254   23.7833 O   0  0  0  0  0  0  0  0  0137  0  0
  -27.1747  -15.8460   23.7426 C   0  0  0  0  0  0  0  0  0  0  0  0
  -25.9935  -17.9508   23.6367 C   0  0  0  0  0  0  0  0  0  0  0  0
  -28.1465  -17.7187   22.5653 C   0  0  0  0  0  0  0  0  0  0  0  0
  -26.0634  -16.6250   24.0644 C   0  0  0  0  0  0  0  0  0  0  0  0
  -28.2163  -16.3929   22.9930 C   0  0  0  0  0  0  0  0  0  0  0  0
  -27.0351  -18.4977   22.8871 C   0  0  0  0  0  0  0  0  0  0  0  0
  -29.5803  -14.2729   23.0070 C   0  0  0  0  0  0  0  0  0  0  0  0
  -32.0814  -14.6131   23.0124 C   0  0  0  0  0  0  0  0  0  0  0  0
  -31.1416  -12.2984   22.8923 C   0  0  0  0  0  0  0  0  0  0  0  0
  -22.6645  -16.3705   26.9067 C   0  0  0  0  0  0  0  0  0  0  0  0
  -23.9028  -14.2043   27.1585 C   0  0  0  0  0  0  0  0  0  0  0  0
  -24.9361  -16.0338   24.8748 C   0  0  0  0  0  0  0  0  0  0  0  0
  -25.1597  -16.2357   26.3802 C   0  0  0  0  0  0  0  0  0  0  0  0
  -30.9297  -13.7570   22.4657 C   0  0  0  0  0  0  0  0  0  0  0  0
  -24.0057  -15.7292   27.2690 C   0  0  0  0  0  0  0  0  0  1  0  0
  -29.3283  -15.6140   22.6712 N   0  0  0  0  0  0  0  0  0  0  0  0
  -28.8313  -13.5427   23.6521 O   0  0  0  0  0  0  0  0  0  0  0  0
  -26.9678  -19.7708   22.4764 F   0  0  0  0  0  0  0  0  0  0  0  0
  -31.4485  -12.4701   19.0860 H   0  0  0  0  0  0  0  0  0  0  0  0
  -30.3970  -11.2460   19.6950 H   0  0  0  0  0  0  0  0  0  0  0  0
  -29.6870  -11.8204   17.4226 H   0  0  0  0  0  0  0  0  0  0  0  0
  -29.6375  -13.5326   17.8649 H   0  0  0  0  0  0  0  0  0  0  0  0
  -27.7830  -11.3650   18.7904 H   0  0  0  0  0  0  0  0  0  0  0  0
  -27.4028  -12.7801   17.8021 H   0  0  0  0  0  0  0  0  0  0  0  0
  -27.7353  -14.2503   19.6136 H   0  0  0  0  0  0  0  0  0  0  0  0
  -28.5890  -11.9550   21.3832 H   0  0  0  0  0  0  0  0  0  0  0  0
  -28.5005  -13.6134   21.8562 H   0  0  0  0  0  0  0  0  0  0  0  0
  -25.2399   -9.5495   22.4318 H   0  0  0  0  0  0  0  0  0  0  0  0
  -23.9663   -7.5070   22.7297 H   0  0  0  0  0  0  0  0  0  0  0  0
  -21.1515   -8.8641   19.9162 H   0  0  0  0  0  0  0  0  0  0  0  0
  -22.4016  -10.9115   19.6476 H   0  0  0  0  0  0  0  0  0  0  0  0
  -21.2319   -7.5552   23.9750 H   0  0  0  0  0  0  0  0  0  0  0  0
  -21.1589   -6.0228   25.8556 H   0  0  0  0  0  0  0  0  0  0  0  0
  -22.0396   -2.8212   23.2809 H   0  0  0  0  0  0  0  0  0  0  0  0
  -22.4401  -11.9703   22.4008 H   0  0  0  0  0  0  0  0  0  0  0  0
  -21.1493  -13.0679   22.2082 H   0  0  0  0  0  0  0  0  0  0  0  0
  -24.6538  -15.7807   20.5848 H   0  0  0  0  0  0  0  0  0  0  0  0
  -26.2762  -15.5453   20.1156 H   0  0  0  0  0  0  0  0  0  0  0  0
  -26.6778  -32.4663   23.1464 H   0  0  0  0  0  0  0  0  0  0  0  0
  -25.0747  -34.0282   25.0566 H   0  0  0  0  0  0  0  0  0  0  0  0
  -22.7881  -31.3489   21.4131 H   0  0  0  0  0  0  0  0  0  0  0  0
  -23.3854  -35.9823   23.3648 H   0  0  0  0  0  0  0  0  0  0  0  0
  -24.3696  -36.8624   22.2204 H   0  0  0  0  0  0  0  0  0  0  0  0
  -23.7669  -37.6632   23.6516 H   0  0  0  0  0  0  0  0  0  0  0  0
  -25.9445  -31.6237   20.5691 H   0  0  0  0  0  0  0  0  0  0  0  0
  -26.7436  -31.0079   22.0108 H   0  0  0  0  0  0  0  0  0  0  0  0
  -28.0090  -29.1452   21.2057 H   0  0  0  0  0  0  0  0  0  0  0  0
  -26.1369  -26.0560   19.0719 H   0  0  0  0  0  0  0  0  0  0  0  0
  -24.0652  -27.2961   19.0997 H   0  0  0  0  0  0  0  0  0  0  0  0
  -23.6156  -30.5365   19.3930 H   0  0  0  0  0  0  0  0  0  0  0  0
  -22.7355  -29.1425   19.9945 H   0  0  0  0  0  0  0  0  0  0  0  0
  -25.1353  -36.2335   25.0565 H   0  0  0  0  0  0  0  0  0  0  0  0
  -21.0070  -28.3206   24.0793 H   0  0  0  0  0  0  0  0  0  0  0  0
  -20.5555  -26.2518   23.3550 H   0  0  0  0  0  0  0  0  0  0  0  0
  -21.5974  -26.8362   22.0454 H   0  0  0  0  0  0  0  0  0  0  0  0
  -19.6810  -25.6422   21.1488 H   0  0  0  0  0  0  0  0  0  0  0  0
  -19.6406  -27.3343   20.7034 H   0  0  0  0  0  0  0  0  0  0  0  0
  -17.4282  -26.6888   21.4113 H   0  0  0  0  0  0  0  0  0  0  0  0
  -18.0803  -26.0130   22.9049 H   0  0  0  0  0  0  0  0  0  0  0  0
  -19.7265  -30.6774   24.2204 H   0  0  0  0  0  0  0  0  0  0  0  0
  -17.5064  -31.5856   24.4483 H   0  0  0  0  0  0  0  0  0  0  0  0
  -15.5878  -30.2839   23.7407 H   0  0  0  0  0  0  0  0  0  0  0  0
  -15.9120  -28.0941   22.7766 H   0  0  0  0  0  0  0  0  0  0  0  0
  -24.5787  -30.7757   25.6817 H   0  0  0  0  0  0  0  0  0  0  0  0
  -25.0041  -32.2289   26.5536 H   0  0  0  0  0  0  0  0  0  0  0  0
  -25.8166  -30.7245   26.9138 H   0  0  0  0  0  0  0  0  0  0  0  0
  -26.2892  -29.7335   24.0803 H   0  0  0  0  0  0  0  0  0  0  0  0
  -27.4336  -29.7484   25.4006 H   0  0  0  0  0  0  0  0  0  0  0  0
  -27.8466  -30.4994   23.8779 H   0  0  0  0  0  0  0  0  0  0  0  0
  -27.2251  -33.3632   26.1242 H   0  0  0  0  0  0  0  0  0  0  0  0
  -28.3902  -32.6065   25.0645 H   0  0  0  0  0  0  0  0  0  0  0  0
  -27.9772  -31.8555   26.5872 H   0  0  0  0  0  0  0  0  0  0  0  0
  -28.2744  -38.0016   24.6863 H   0  0  0  0  0  0  0  0  0  0  0  0
  -28.0396  -36.2711   24.7461 H   0  0  0  0  0  0  0  0  0  0  0  0
  -27.1773  -37.3087   25.8564 H   0  0  0  0  0  0  0  0  0  0  0  0
  -20.9627  -29.9365   21.7352 H   0  0  0  0  0  0  0  0  0  0  0  0
  -26.0447  -38.2561   24.0273 H   0  0  0  0  0  0  0  0  0  0  0  0
  -27.2264  -14.8651   24.0590 H   0  0  0  0  0  0  0  0  0  0  0  0
  -25.1712  -18.5271   23.8748 H   0  0  0  0  0  0  0  0  0  0  0  0
  -28.9171  -18.1233   22.0108 H   0  0  0  0  0  0  0  0  0  0  0  0
  -32.2638  -14.3547   24.0346 H   0  0  0  0  0  0  0  0  0  0  0  0
  -31.8182  -15.6482   22.9477 H   0  0  0  0  0  0  0  0  0  0  0  0
  -32.9646  -14.4329   22.4359 H   0  0  0  0  0  0  0  0  0  0  0  0
  -31.1992  -12.2436   23.9593 H   0  0  0  0  0  0  0  0  0  0  0  0
  -32.0519  -11.9310   22.4666 H   0  0  0  0  0  0  0  0  0  0  0  0
  -30.3214  -11.7035   22.5484 H   0  0  0  0  0  0  0  0  0  0  0  0
  -21.8673  -15.7848   27.3146 H   0  0  0  0  0  0  0  0  0  0  0  0
  -22.5662  -16.4145   25.8421 H   0  0  0  0  0  0  0  0  0  0  0  0
  -22.6221  -17.3606   27.3101 H   0  0  0  0  0  0  0  0  0  0  0  0
  -23.4600  -13.8112   28.0498 H   0  0  0  0  0  0  0  0  0  0  0  0
  -24.8809  -13.7890   27.0330 H   0  0  0  0  0  0  0  0  0  0  0  0
  -23.2956  -13.9479   26.3156 H   0  0  0  0  0  0  0  0  0  0  0  0
  -24.8733  -14.9854   24.6701 H   0  0  0  0  0  0  0  0  0  0  0  0
  -24.0289  -16.5304   24.6004 H   0  0  0  0  0  0  0  0  0  0  0  0
  -25.2877  -17.2823   26.5621 H   0  0  0  0  0  0  0  0  0  0  0  0
  -26.0221  -15.6585   26.6410 H   0  0  0  0  0  0  0  0  0  0  0  0
  -30.0263  -16.0616   22.1405 H   0  0  0  0  0  0  0  0  0  0  0  0
  1 25  1  0
  1 30  2  0
  1 84  1  0
  2  3  1  0
  2 25  1  0
  2 89  1  0
  2 90  1  0
  3  4  1  0
  3 91  1  0
  3 92  1  0
  4  5  1  0
  4 93  1  0
  4 94  1  0
  5  6  1  0
  5 26  1  0
  5 95  1  6
  6 25  1  0
  6 96  1  0
  6 97  1  0
  7  8  2  0
  7 26  1  0
  7 29  1  0
  8  9  1  0
  8 22  1  0
  9 10  1  0
  9 27  2  0
 10 11  2  0
 10 15  1  0
 11 12  1  0
 11 98  1  0
 12 13  2  0
 12 99  1  0
 13 14  1  0
 13 31  1  0
 14 15  2  0
 14100  1  0
 15101  1  0
 16 17  2  0
 16 21  1  0
 16 31  1  0
 17 18  1  0
 17102  1  0
 18 19  2  0
 18103  1  0
 19 20  1  0
 19 24  1  0
 20 21  2  0
 20104  1  0
 21 23  1  0
 22 28  1  0
 22 32  2  0
 26 27  1  0
 28105  1  0
 28106  1  0
 29107  1  0
 29108  1  0
 33 34  1  0
 33 66  1  0
 33 70  2  0
 34 36  1  0
 34 59  1  0
 34109  1  6
 35 44  2  0
 35 45  1  0
 35 68  1  0
 36 56  1  0
 36110  1  0
 37 39  1  0
 37 47  1  0
 37 66  1  0
 37111  1  6
 38 43  2  0
 38 46  1  0
 38 47  1  0
 39 64  1  0
 39 67  2  0
 40 52  1  0
 40 53  2  0
 40 58  1  0
 41112  1  0
 41113  1  0
 41114  1  0
 42 43  1  0
 42 66  1  0
 42115  1  0
 42116  1  0
 43 44  1  0
 44117  1  0
 45 46  2  0
 45118  1  0
 46119  1  0
 47120  1  0
 47121  1  0
 48 41  1  0
 48 56  1  0
 48 65  1  0
 48122  1  1
 49 50  1  0
 49 53  1  0
 49 64  1  0
 49123  1  1
 50 51  1  0
 50124  1  0
 50125  1  0
 51 52  1  0
 51126  1  0
 51127  1  0
 52128  1  0
 52129  1  0
 53 54  1  0
 54 55  2  0
 54130  1  0
 55 57  1  0
 55131  1  0
 56 69  2  0
 57 58  2  0
 57132  1  0
 58133  1  0
 59 60  1  0
 59 61  1  0
 59 62  1  0
 60134  1  0
 60135  1  0
 60136  1  0
 61137  1  0
 61138  1  0
 61139  1  0
 62140  1  0
 62141  1  0
 62142  1  0
 63 65  1  0
 63143  1  0
 63144  1  0
 63145  1  0
 64146  1  0
 65147  1  0
 68 85  1  0
 71 74  2  0
 71 75  1  0
 71148  1  0
 72 74  1  0
 72 76  2  0
 72149  1  0
 73 75  2  0
 73 76  1  0
 73150  1  0
 74 82  1  0
 75 86  1  0
 76 88  1  0
 77 84  1  0
 77 86  1  0
 77 87  2  0
 78151  1  0
 78152  1  0
 78153  1  0
 79 84  1  0
 79154  1  0
 79155  1  0
 79156  1  0
 80157  1  0
 80158  1  0
 80159  1  0
 81 85  1  0
 81160  1  0
 81161  1  0
 81162  1  0
 82 83  1  0
 82163  1  0
 82164  1  0
 83 85  1  0
 83165  1  0
 83166  1  0
 84 78  1  0
 85 80  1  0
 86167  1  0
M  ISO  4   1 100  68 101  84 100  85 101
M  END
$$$$
23
     RDKit          3D

160168  0  0  0  0  0  0  0  0999 V2000
  -30.7652  -14.3608   20.6636 C   0  0  0  0  0  0  0  0  0100  0  0
  -30.4392  -12.2669   19.3775 C   0  0  0  0  0  0  0  0  0101  0  0
  -29.4791  -12.5281   18.1977 C   0  0  0  0  0  0  0  0  0102  0  0
  -27.9985  -12.3963   18.6038 C   0  0  0  0  0  0  0  0  0103  0  0
  -27.6639  -13.2170   19.8820 C   0  0  2  0  0  0  0  0  0104  0  0
  -28.6795  -12.9602   21.0279 C   0  0  0  0  0  0  0  0  0105  0  0
  -25.2633  -13.8245   20.5754 C   0  0  0  0  0  0  0  0  0106  0  0
  -24.1645  -13.0409   20.9408 C   0  0  0  0  0  0  0  0  0107  0  0
  -24.6400  -11.7009   20.8697 C   0  0  0  0  0  0  0  0  0108  0  0
  -23.9005  -10.4085   21.0420 C   0  0  0  0  0  0  0  0  0109  0  0
  -24.3588   -9.4123   21.9123 C   0  0  0  0  0  0  0  0  0110  0  0
  -23.6296   -8.2350   22.0803 C   0  0  0  0  0  0  0  0  0111  0  0
  -22.4385   -8.0419   21.3657 C   0  0  0  0  0  0  0  0  0112  0  0
  -22.0103   -9.0167   20.4678 C   0  0  0  0  0  0  0  0  0113  0  0
  -22.7317  -10.1925   20.3102 C   0  0  0  0  0  0  0  0  0114  0  0
  -21.6857   -6.0709   22.5391 C   0  0  0  0  0  0  0  0  0115  0  0
  -21.4064   -6.5490   23.8264 C   0  0  0  0  0  0  0  0  0116  0  0
  -21.3635   -5.6677   24.9085 C   0  0  0  0  0  0  0  0  0117  0  0
  -21.5973   -4.3067   24.7088 C   0  0  0  0  0  0  0  0  0118  0  0
  -21.8700   -3.8284   23.4282 C   0  0  0  0  0  0  0  0  0119  0  0
  -21.9144   -4.7056   22.3460 C   0  0  0  0  0  0  0  0  0120  0  0
  -22.8194  -13.5263   21.1763 C   0  0  0  0  0  0  0  0  0121  0  0
  -22.1559   -4.2206   21.1063 F   0  0  0  0  0  0  0  0  0122  0  0
  -21.5628   -3.4510   25.7555 F   0  0  0  0  0  0  0  0  0123  0  0
  -30.0261  -13.1803   20.4553 N   0  0  0  0  0  0  0  0  0124  0  0
  -26.2911  -12.9356   20.3443 N   0  0  0  0  0  0  0  0  0125  0  0
  -25.9236  -11.6675   20.5847 N   0  0  0  0  0  0  0  0  0126  0  0
  -22.0708  -12.7905   22.0005 N   0  0  0  0  0  0  0  0  0127  0  0
  -25.4117  -15.1773   20.4097 N   0  0  0  0  0  0  0  0  0128  0  0
  -31.7916  -14.6724   20.0536 O   0  0  0  0  0  0  0  0  0129  0  0
  -21.6670   -6.9022   21.4423 O   0  0  0  0  0  0  0  0  0130  0  0
  -22.3946  -14.5564   20.6568 O   0  0  0  0  0  0  0  0  0131  0  0
  -24.6048  -31.8614   23.2223 C   0  0  0  0  0  0  0  0  0100  0  0
  -25.8822  -32.4841   23.8616 C   0  0  1  0  0  0  0  0  0101  0  0
  -27.2536  -27.5042   20.1156 C   0  0  0  0  0  0  0  0  0102  0  0
  -25.5726  -33.8762   24.2210 N   0  0  0  0  0  0  0  0  0103  0  0
  -23.4066  -30.4859   21.5461 C   0  0  2  0  0  0  0  0  0104  0  0
  -24.8467  -28.9636   20.1247 C   0  0  0  0  0  0  0  0  0105  0  0
  -22.7412  -29.4652   22.5052 C   0  0  0  0  0  0  0  0  0106  0  0
  -18.0167  -28.1302   22.8626 C   0  0  0  0  0  0  0  0  0107  0  0
  -24.1342  -36.7390   23.2568 C   0  0  0  0  0  0  0  0  0108  0  0
  -25.9141  -30.8882   21.3456 C   0  0  0  0  0  0  0  0  0109  0  0
  -25.9930  -29.5029   20.7208 C   0  0  0  0  0  0  0  0  0110  0  0
  -27.1758  -28.7612   20.7331 C   0  0  0  0  0  0  0  0  0111  0  0
  -26.1032  -26.9836   19.5230 C   0  0  0  0  0  0  0  0  0112  0  0
  -24.9097  -27.7011   19.5331 C   0  0  0  0  0  0  0  0  0113  0  0
  -23.5715  -29.7899   20.1582 C   0  0  0  0  0  0  0  0  0114  0  0
  -25.3990  -36.3212   24.0232 C   0  0  1  0  0  0  0  0  0115  0  0
  -20.5793  -28.3813   23.1004 C   0  0  2  0  0  0  0  0  0116  0  0
  -20.6548  -26.9392   22.5411 C   0  0  0  0  0  0  0  0  0117  0  0
  -19.5615  -26.6407   21.5143 C   0  0  0  0  0  0  0  0  0118  0  0
  -18.1797  -26.7818   22.1673 C   0  0  0  0  0  0  0  0  0119  0  0
  -19.1385  -28.8769   23.2988 C   0  0  0  0  0  0  0  0  0120  0  0
  -18.9183  -30.1286   23.8878 C   0  0  0  0  0  0  0  0  0121  0  0
  -17.6396  -30.6493   24.0352 C   0  0  0  0  0  0  0  0  0122  0  0
  -25.9153  -34.9582   23.4993 C   0  0  0  0  0  0  0  0  0123  0  0
  -16.5415  -29.9068   23.6254 C   0  0  0  0  0  0  0  0  0124  0  0
  -16.7331  -28.6521   23.0586 C   0  0  0  0  0  0  0  0  0125  0  0
  -26.4583  -31.6439   25.0683 C   0  0  0  0  0  0  0  0  0126  0  0
  -25.3807  -31.3179   26.1374 C   0  0  0  0  0  0  0  0  0127  0  0
  -27.0530  -30.3024   24.5680 C   0  0  0  0  0  0  0  0  0128  0  0
  -27.6014  -32.4281   25.7651 C   0  0  0  0  0  0  0  0  0129  0  0
  -27.5629  -37.2220   24.8621 C   0  0  0  0  0  0  0  0  0130  0  0
  -21.4133  -29.3375   22.3735 N   0  0  0  0  0  0  0  0  0131  0  0
  -26.4706  -37.3372   23.9061 N   0  0  0  0  0  0  0  0  0132  0  0
  -24.6674  -31.0544   22.1178 N   0  0  0  0  0  0  0  0  0133  0  0
  -23.4259  -28.8150   23.2971 O   0  0  0  0  0  0  0  0  0134  0  0
  -28.3948  -26.7345   20.0089 O   0  0  0  0  0  0  0  0  0135  0  0
  -26.5870  -34.9065   22.4671 O   0  0  0  0  0  0  0  0  0136  0  0
  -23.5365  -32.1254   23.7833 O   0  0  0  0  0  0  0  0  0137  0  0
  -28.6980  -13.0884   20.8512 C   0  0  0  0  0  0  0  0  0  0  0  0
  -29.8860  -13.1887   18.7499 C   0  0  0  0  0  0  0  0  0  0  0  0
  -27.6158  -12.3647   18.8160 C   0  0  0  0  0  0  0  0  0  0  0  0
  -29.8507  -13.3964   20.1288 C   0  0  0  0  0  0  0  0  0  0  0  0
  -27.5805  -12.5725   20.1949 C   0  0  0  0  0  0  0  0  0  0  0  0
  -28.7685  -12.6728   18.0935 C   0  0  0  0  0  0  0  0  0  0  0  0
  -31.0162  -13.9339   20.8128 C   0  0  0  0  0  0  0  0  0  0  0  0
  -24.4403  -12.8226   23.3333 C   0  0  0  0  0  0  0  0  0  0  0  0
  -23.1990  -12.1421   21.2636 C   0  0  0  0  0  0  0  0  0  0  0  0
  -26.3324  -12.2394   20.9763 C   0  0  0  0  0  0  0  0  0  0  0  0
  -25.3831  -13.4433   21.0532 C   0  0  0  0  0  0  0  0  0  0  0  0
  -23.2816  -14.5510   21.9152 C   0  0  0  0  0  0  0  0  0  1  0  0
  -24.0893  -13.2299   21.8901 C   0  0  0  0  0  0  0  0  0  0  0  0
  -32.1275  -14.2422   20.2007 N   0  0  0  0  0  0  0  0  0  0  0  0
  -28.8022  -12.4735   16.7693 F   0  0  0  0  0  0  0  0  0  0  0  0
  -31.4485  -12.4701   19.0860 H   0  0  0  0  0  0  0  0  0  0  0  0
  -30.3970  -11.2460   19.6950 H   0  0  0  0  0  0  0  0  0  0  0  0
  -29.6870  -11.8204   17.4226 H   0  0  0  0  0  0  0  0  0  0  0  0
  -29.6375  -13.5326   17.8649 H   0  0  0  0  0  0  0  0  0  0  0  0
  -27.7830  -11.3650   18.7904 H   0  0  0  0  0  0  0  0  0  0  0  0
  -27.4028  -12.7801   17.8021 H   0  0  0  0  0  0  0  0  0  0  0  0
  -27.7353  -14.2503   19.6136 H   0  0  0  0  0  0  0  0  0  0  0  0
  -28.5890  -11.9550   21.3832 H   0  0  0  0  0  0  0  0  0  0  0  0
  -28.5005  -13.6134   21.8562 H   0  0  0  0  0  0  0  0  0  0  0  0
  -25.2399   -9.5495   22.4318 H   0  0  0  0  0  0  0  0  0  0  0  0
  -23.9663   -7.5070   22.7297 H   0  0  0  0  0  0  0  0  0  0  0  0
  -21.1515   -8.8641   19.9162 H   0  0  0  0  0  0  0  0  0  0  0  0
  -22.4016  -10.9115   19.6476 H   0  0  0  0  0  0  0  0  0  0  0  0
  -21.2319   -7.5552   23.9750 H   0  0  0  0  0  0  0  0  0  0  0  0
  -21.1589   -6.0228   25.8556 H   0  0  0  0  0  0  0  0  0  0  0  0
  -22.0396   -2.8212   23.2809 H   0  0  0  0  0  0  0  0  0  0  0  0
  -22.4401  -11.9703   22.4008 H   0  0  0  0  0  0  0  0  0  0  0  0
  -21.1493  -13.0679   22.2082 H   0  0  0  0  0  0  0  0  0  0  0  0
  -24.6538  -15.7807   20.5848 H   0  0  0  0  0  0  0  0  0  0  0  0
  -26.2762  -15.5453   20.1156 H   0  0  0  0  0  0  0  0  0  0  0  0
  -26.6778  -32.4663   23.1464 H   0  0  0  0  0  0  0  0  0  0  0  0
  -25.0747  -34.0282   25.0566 H   0  0  0  0  0  0  0  0  0  0  0  0
  -22.7881  -31.3489   21.4131 H   0  0  0  0  0  0  0  0  0  0  0  0
  -23.3854  -35.9823   23.3648 H   0  0  0  0  0  0  0  0  0  0  0  0
  -24.3696  -36.8624   22.2204 H   0  0  0  0  0  0  0  0  0  0  0  0
  -23.7669  -37.6632   23.6516 H   0  0  0  0  0  0  0  0  0  0  0  0
  -25.9445  -31.6237   20.5691 H   0  0  0  0  0  0  0  0  0  0  0  0
  -26.7436  -31.0079   22.0108 H   0  0  0  0  0  0  0  0  0  0  0  0
  -28.0090  -29.1452   21.2057 H   0  0  0  0  0  0  0  0  0  0  0  0
  -26.1369  -26.0560   19.0719 H   0  0  0  0  0  0  0  0  0  0  0  0
  -24.0652  -27.2961   19.0997 H   0  0  0  0  0  0  0  0  0  0  0  0
  -23.6156  -30.5365   19.3930 H   0  0  0  0  0  0  0  0  0  0  0  0
  -22.7355  -29.1425   19.9945 H   0  0  0  0  0  0  0  0  0  0  0  0
  -25.1353  -36.2335   25.0565 H   0  0  0  0  0  0  0  0  0  0  0  0
  -21.0070  -28.3206   24.0793 H   0  0  0  0  0  0  0  0  0  0  0  0
  -20.5555  -26.2518   23.3550 H   0  0  0  0  0  0  0  0  0  0  0  0
  -21.5974  -26.8362   22.0454 H   0  0  0  0  0  0  0  0  0  0  0  0
  -19.6810  -25.6422   21.1488 H   0  0  0  0  0  0  0  0  0  0  0  0
  -19.6406  -27.3343   20.7034 H   0  0  0  0  0  0  0  0  0  0  0  0
  -17.4282  -26.6888   21.4113 H   0  0  0  0  0  0  0  0  0  0  0  0
  -18.0803  -26.0130   22.9049 H   0  0  0  0  0  0  0  0  0  0  0  0
  -19.7265  -30.6774   24.2204 H   0  0  0  0  0  0  0  0  0  0  0  0
  -17.5064  -31.5856   24.4483 H   0  0  0  0  0  0  0  0  0  0  0  0
  -15.5878  -30.2839   23.7407 H   0  0  0  0  0  0  0  0  0  0  0  0
  -15.9120  -28.0941   22.7766 H   0  0  0  0  0  0  0  0  0  0  0  0
  -24.5787  -30.7757   25.6817 H   0  0  0  0  0  0  0  0  0  0  0  0
  -25.0041  -32.2289   26.5536 H   0  0  0  0  0  0  0  0  0  0  0  0
  -25.8166  -30.7245   26.9138 H   0  0  0  0  0  0  0  0  0  0  0  0
  -26.2892  -29.7335   24.0803 H   0  0  0  0  0  0  0  0  0  0  0  0
  -27.4336  -29.7484   25.4006 H   0  0  0  0  0  0  0  0  0  0  0  0
  -27.8466  -30.4994   23.8779 H   0  0  0  0  0  0  0  0  0  0  0  0
  -27.2251  -33.3632   26.1242 H   0  0  0  0  0  0  0  0  0  0  0  0
  -28.3902  -32.6065   25.0645 H   0  0  0  0  0  0  0  0  0  0  0  0
  -27.9772  -31.8555   26.5872 H   0  0  0  0  0  0  0  0  0  0  0  0
  -28.2744  -38.0016   24.6863 H   0  0  0  0  0  0  0  0  0  0  0  0
  -28.0396  -36.2711   24.7461 H   0  0  0  0  0  0  0  0  0  0  0  0
  -27.1773  -37.3087   25.8564 H   0  0  0  0  0  0  0  0  0  0  0  0
  -20.9627  -29.9365   21.7352 H   0  0  0  0  0  0  0  0  0  0  0  0
  -26.0447  -38.2561   24.0273 H   0  0  0  0  0  0  0  0  0  0  0  0
  -28.6719  -13.2422   21.8713 H   0  0  0  0  0  0  0  0  0  0  0  0
  -30.7388  -13.4167   18.2154 H   0  0  0  0  0  0  0  0  0  0  0  0
  -26.7891  -11.9830   18.3304 H   0  0  0  0  0  0  0  0  0  0  0  0
  -24.9986  -11.9099   23.3205 H   0  0  0  0  0  0  0  0  0  0  0  0
  -23.5395  -12.6818   23.8933 H   0  0  0  0  0  0  0  0  0  0  0  0
  -25.0267  -13.5931   23.7888 H   0  0  0  0  0  0  0  0  0  0  0  0
  -23.7345  -11.2162   21.2341 H   0  0  0  0  0  0  0  0  0  0  0  0
  -22.9301  -12.4305   20.2689 H   0  0  0  0  0  0  0  0  0  0  0  0
  -22.3134  -12.0233   21.8522 H   0  0  0  0  0  0  0  0  0  0  0  0
  -26.6094  -11.9503   21.9686 H   0  0  0  0  0  0  0  0  0  0  0  0
  -25.8247  -11.4410   20.4766 H   0  0  0  0  0  0  0  0  0  0  0  0
  -25.0912  -13.6960   20.0553 H   0  0  0  0  0  0  0  0  0  0  0  0
  -25.9303  -14.2146   21.5538 H   0  0  0  0  0  0  0  0  0  0  0  0
  -22.8205  -14.5840   22.8802 H   0  0  0  0  0  0  0  0  0  0  0  0
  -22.7094  -14.4418   21.0177 H   0  0  0  0  0  0  0  0  0  0  0  0
  -32.9013  -13.6355   20.2500 H   0  0  0  0  0  0  0  0  0  0  0  0
  1 25  1  0
  1 30  2  0
  1 77  1  0
  2  3  1  0
  2 25  1  0
  2 86  1  0
  2 87  1  0
  3  4  1  0
  3 88  1  0
  3 89  1  0
  4  5  1  0
  4 90  1  0
  4 91  1  0
  5  6  1  0
  5 26  1  0
  5 92  1  6
  6 25  1  0
  6 93  1  0
  6 94  1  0
  7  8  2  0
  7 26  1  0
  7 29  1  0
  8  9  1  0
  8 22  1  0
  9 10  1  0
  9 27  2  0
 10 11  2  0
 10 15  1  0
 11 12  1  0
 11 95  1  0
 12 13  2  0
 12 96  1  0
 13 14  1  0
 13 31  1  0
 14 15  2  0
 14 97  1  0
 15 98  1  0
 16 17  2  0
 16 21  1  0
 16 31  1  0
 17 18  1  0
 17 99  1  0
 18 19  2  0
 18100  1  0
 19 20  1  0
 19 24  1  0
 20 21  2  0
 20101  1  0
 21 23  1  0
 22 28  1  0
 22 32  2  0
 26 27  1  0
 28102  1  0
 28103  1  0
 29104  1  0
 29105  1  0
 33 34  1  0
 33 66  1  0
 33 70  2  0
 34 36  1  0
 34 59  1  0
 34106  1  6
 35 44  2  0
 35 45  1  0
 35 68  1  0
 36 56  1  0
 36107  1  0
 37 39  1  0
 37 47  1  0
 37 66  1  0
 37108  1  6
 38 43  2  0
 38 46  1  0
 38 47  1  0
 39 64  1  0
 39 67  2  0
 40 52  1  0
 40 53  2  0
 40 58  1  0
 41109  1  0
 41110  1  0
 41111  1  0
 42 43  1  0
 42 66  1  0
 42112  1  0
 42113  1  0
 43 44  1  0
 44114  1  0
 45 46  2  0
 45115  1  0
 46116  1  0
 47117  1  0
 47118  1  0
 48 41  1  0
 48 56  1  0
 48 65  1  0
 48119  1  1
 49 50  1  0
 49 53  1  0
 49 64  1  0
 49120  1  1
 50 51  1  0
 50121  1  0
 50122  1  0
 51 52  1  0
 51123  1  0
 51124  1  0
 52125  1  0
 52126  1  0
 53 54  1  0
 54 55  2  0
 54127  1  0
 55 57  1  0
 55128  1  0
 56 69  2  0
 57 58  2  0
 57129  1  0
 58130  1  0
 59 60  1  0
 59 61  1  0
 59 62  1  0
 60131  1  0
 60132  1  0
 60133  1  0
 61134  1  0
 61135  1  0
 61136  1  0
 62137  1  0
 62138  1  0
 62139  1  0
 63 65  1  0
 63140  1  0
 63141  1  0
 63142  1  0
 64143  1  0
 65144  1  0
 68 82  1  0
 71 74  2  0
 71 75  1  0
 71145  1  0
 72 74  1  0
 72 76  2  0
 72146  1  0
 73 75  2  0
 73 76  1  0
 73147  1  0
 74 77  1  0
 75 80  1  0
 76 85  1  0
 77 84  2  0
 78148  1  0
 78149  1  0
 78150  1  0
 79 83  1  0
 79151  1  0
 79152  1  0
 79153  1  0
 80 81  1  0
 80154  1  0
 80155  1  0
 81 83  1  0
 81156  1  0
 81157  1  0
 82 83  1  0
 82158  1  0
 82159  1  0
 83 78  1  0
 84160  1  0
M  ISO  4   1 100  68 101  77 100  82 101
M  END
$$$$
24
     RDKit          3D

166174  0  0  0  0  0  0  0  0999 V2000
  -30.7652  -14.3608   20.6636 C   0  0  0  0  0  0  0  0  0100  0  0
  -30.4392  -12.2669   19.3775 C   0  0  0  0  0  0  0  0  0101  0  0
  -29.4791  -12.5281   18.1977 C   0  0  0  0  0  0  0  0  0102  0  0
  -27.9985  -12.3963   18.6038 C   0  0  0  0  0  0  0  0  0103  0  0
  -27.6639  -13.2170   19.8820 C   0  0  2  0  0  0  0  0  0104  0  0
  -28.6795  -12.9602   21.0279 C   0  0  0  0  0  0  0  0  0105  0  0
  -25.2633  -13.8245   20.5754 C   0  0  0  0  0  0  0  0  0106  0  0
  -24.1645  -13.0409   20.9408 C   0  0  0  0  0  0  0  0  0107  0  0
  -24.6400  -11.7009   20.8697 C   0  0  0  0  0  0  0  0  0108  0  0
  -23.9005  -10.4085   21.0420 C   0  0  0  0  0  0  0  0  0109  0  0
  -24.3588   -9.4123   21.9123 C   0  0  0  0  0  0  0  0  0110  0  0
  -23.6296   -8.2350   22.0803 C   0  0  0  0  0  0  0  0  0111  0  0
  -22.4385   -8.0419   21.3657 C   0  0  0  0  0  0  0  0  0112  0  0
  -22.0103   -9.0167   20.4678 C   0  0  0  0  0  0  0  0  0113  0  0
  -22.7317  -10.1925   20.3102 C   0  0  0  0  0  0  0  0  0114  0  0
  -21.6857   -6.0709   22.5391 C   0  0  0  0  0  0  0  0  0115  0  0
  -21.4064   -6.5490   23.8264 C   0  0  0  0  0  0  0  0  0116  0  0
  -21.3635   -5.6677   24.9085 C   0  0  0  0  0  0  0  0  0117  0  0
  -21.5973   -4.3067   24.7088 C   0  0  0  0  0  0  0  0  0118  0  0
  -21.8700   -3.8284   23.4282 C   0  0  0  0  0  0  0  0  0119  0  0
  -21.9144   -4.7056   22.3460 C   0  0  0  0  0  0  0  0  0120  0  0
  -22.8194  -13.5263   21.1763 C   0  0  0  0  0  0  0  0  0121  0  0
  -22.1559   -4.2206   21.1063 F   0  0  0  0  0  0  0  0  0122  0  0
  -21.5628   -3.4510   25.7555 F   0  0  0  0  0  0  0  0  0123  0  0
  -30.0261  -13.1803   20.4553 N   0  0  0  0  0  0  0  0  0124  0  0
  -26.2911  -12.9356   20.3443 N   0  0  0  0  0  0  0  0  0125  0  0
  -25.9236  -11.6675   20.5847 N   0  0  0  0  0  0  0  0  0126  0  0
  -22.0708  -12.7905   22.0005 N   0  0  0  0  0  0  0  0  0127  0  0
  -25.4117  -15.1773   20.4097 N   0  0  0  0  0  0  0  0  0128  0  0
  -31.7916  -14.6724   20.0536 O   0  0  0  0  0  0  0  0  0129  0  0
  -21.6670   -6.9022   21.4423 O   0  0  0  0  0  0  0  0  0130  0  0
  -22.3946  -14.5564   20.6568 O   0  0  0  0  0  0  0  0  0131  0  0
  -24.6048  -31.8614   23.2223 C   0  0  0  0  0  0  0  0  0100  0  0
  -25.8822  -32.4841   23.8616 C   0  0  1  0  0  0  0  0  0101  0  0
  -27.2536  -27.5042   20.1156 C   0  0  0  0  0  0  0  0  0102  0  0
  -25.5726  -33.8762   24.2210 N   0  0  0  0  0  0  0  0  0103  0  0
  -23.4066  -30.4859   21.5461 C   0  0  2  0  0  0  0  0  0104  0  0
  -24.8467  -28.9636   20.1247 C   0  0  0  0  0  0  0  0  0105  0  0
  -22.7412  -29.4652   22.5052 C   0  0  0  0  0  0  0  0  0106  0  0
  -18.0167  -28.1302   22.8626 C   0  0  0  0  0  0  0  0  0107  0  0
  -24.1342  -36.7390   23.2568 C   0  0  0  0  0  0  0  0  0108  0  0
  -25.9141  -30.8882   21.3456 C   0  0  0  0  0  0  0  0  0109  0  0
  -25.9930  -29.5029   20.7208 C   0  0  0  0  0  0  0  0  0110  0  0
  -27.1758  -28.7612   20.7331 C   0  0  0  0  0  0  0  0  0111  0  0
  -26.1032  -26.9836   19.5230 C   0  0  0  0  0  0  0  0  0112  0  0
  -24.9097  -27.7011   19.5331 C   0  0  0  0  0  0  0  0  0113  0  0
  -23.5715  -29.7899   20.1582 C   0  0  0  0  0  0  0  0  0114  0  0
  -25.3990  -36.3212   24.0232 C   0  0  1  0  0  0  0  0  0115  0  0
  -20.5793  -28.3813   23.1004 C   0  0  2  0  0  0  0  0  0116  0  0
  -20.6548  -26.9392   22.5411 C   0  0  0  0  0  0  0  0  0117  0  0
  -19.5615  -26.6407   21.5143 C   0  0  0  0  0  0  0  0  0118  0  0
  -18.1797  -26.7818   22.1673 C   0  0  0  0  0  0  0  0  0119  0  0
  -19.1385  -28.8769   23.2988 C   0  0  0  0  0  0  0  0  0120  0  0
  -18.9183  -30.1286   23.8878 C   0  0  0  0  0  0  0  0  0121  0  0
  -17.6396  -30.6493   24.0352 C   0  0  0  0  0  0  0  0  0122  0  0
  -25.9153  -34.9582   23.4993 C   0  0  0  0  0  0  0  0  0123  0  0
  -16.5415  -29.9068   23.6254 C   0  0  0  0  0  0  0  0  0124  0  0
  -16.7331  -28.6521   23.0586 C   0  0  0  0  0  0  0  0  0125  0  0
  -26.4583  -31.6439   25.0683 C   0  0  0  0  0  0  0  0  0126  0  0
  -25.3807  -31.3179   26.1374 C   0  0  0  0  0  0  0  0  0127  0  0
  -27.0530  -30.3024   24.5680 C   0  0  0  0  0  0  0  0  0128  0  0
  -27.6014  -32.4281   25.7651 C   0  0  0  0  0  0  0  0  0129  0  0
  -27.5629  -37.2220   24.8621 C   0  0  0  0  0  0  0  0  0130  0  0
  -21.4133  -29.3375   22.3735 N   0  0  0  0  0  0  0  0  0131  0  0
  -26.4706  -37.3372   23.9061 N   0  0  0  0  0  0  0  0  0132  0  0
  -24.6674  -31.0544   22.1178 N   0  0  0  0  0  0  0  0  0133  0  0
  -23.4259  -28.8150   23.2971 O   0  0  0  0  0  0  0  0  0134  0  0
  -28.3948  -26.7345   20.0089 O   0  0  0  0  0  0  0  0  0135  0  0
  -26.5870  -34.9065   22.4671 O   0  0  0  0  0  0  0  0  0136  0  0
  -23.5365  -32.1254   23.7833 O   0  0  0  0  0  0  0  0  0137  0  0
  -31.6145  -18.6850   23.9976 C   0  0  0  0  0  0  0  0  0  0  0  0
  -31.8633  -16.8553   22.4396 C   0  0  0  0  0  0  0  0  0  0  0  0
  -30.2313  -18.6462   23.8223 C   0  0  0  0  0  0  0  0  0  0  0  0
  -29.6640  -17.7120   22.9556 C   0  0  0  0  0  0  0  0  0  0  0  0
  -30.4800  -16.8165   22.2643 C   0  0  0  0  0  0  0  0  0  0  0  0
  -32.4306  -17.7895   23.3062 C   0  0  0  0  0  0  0  0  0  0  0  0
  -28.1791  -17.6731   22.7729 C   0  0  0  0  0  0  0  0  0  0  0  0
  -28.8970  -20.7652   23.6961 C   0  0  0  0  0  0  0  0  0  0  0  0
  -38.3683  -17.9224   21.5922 C   0  0  0  0  0  0  0  0  0  0  0  0
  -29.3803  -19.6159   24.5752 C   0  0  0  0  0  0  0  0  0  0  0  0
  -36.9597  -17.3462   21.5658 C   0  0  0  0  0  0  0  0  0  0  0  0
  -35.8271  -19.6109   21.9940 C   0  0  0  0  0  0  0  0  0  1  0  0
  -34.5874  -17.4285   22.3716 C   0  0  0  0  0  0  0  0  0  0  0  0
  -35.9504  -18.1385   22.4201 C   0  0  1  0  0  0  0  0  0  0  0  0
  -29.9247  -15.8570   21.3819 N   0  0  0  0  0  0  0  0  0  0  0  0
  -33.7896  -17.8289   23.4781 O   0  0  0  0  0  0  0  0  0  0  0  0
  -31.4485  -12.4701   19.0860 H   0  0  0  0  0  0  0  0  0  0  0  0
  -30.3970  -11.2460   19.6950 H   0  0  0  0  0  0  0  0  0  0  0  0
  -29.6870  -11.8204   17.4226 H   0  0  0  0  0  0  0  0  0  0  0  0
  -29.6375  -13.5326   17.8649 H   0  0  0  0  0  0  0  0  0  0  0  0
  -27.7830  -11.3650   18.7904 H   0  0  0  0  0  0  0  0  0  0  0  0
  -27.4028  -12.7801   17.8021 H   0  0  0  0  0  0  0  0  0  0  0  0
  -27.7353  -14.2503   19.6136 H   0  0  0  0  0  0  0  0  0  0  0  0
  -28.5890  -11.9550   21.3832 H   0  0  0  0  0  0  0  0  0  0  0  0
  -28.5005  -13.6134   21.8562 H   0  0  0  0  0  0  0  0  0  0  0  0
  -25.2399   -9.5495   22.4318 H   0  0  0  0  0  0  0  0  0  0  0  0
  -23.9663   -7.5070   22.7297 H   0  0  0  0  0  0  0  0  0  0  0  0
  -21.1515   -8.8641   19.9162 H   0  0  0  0  0  0  0  0  0  0  0  0
  -22.4016  -10.9115   19.6476 H   0  0  0  0  0  0  0  0  0  0  0  0
  -21.2319   -7.5552   23.9750 H   0  0  0  0  0  0  0  0  0  0  0  0
  -21.1589   -6.0228   25.8556 H   0  0  0  0  0  0  0  0  0  0  0  0
  -22.0396   -2.8212   23.2809 H   0  0  0  0  0  0  0  0  0  0  0  0
  -22.4401  -11.9703   22.4008 H   0  0  0  0  0  0  0  0  0  0  0  0
  -21.1493  -13.0679   22.2082 H   0  0  0  0  0  0  0  0  0  0  0  0
  -24.6538  -15.7807   20.5848 H   0  0  0  0  0  0  0  0  0  0  0  0
  -26.2762  -15.5453   20.1156 H   0  0  0  0  0  0  0  0  0  0  0  0
  -26.6778  -32.4663   23.1464 H   0  0  0  0  0  0  0  0  0  0  0  0
  -25.0747  -34.0282   25.0566 H   0  0  0  0  0  0  0  0  0  0  0  0
  -22.7881  -31.3489   21.4131 H   0  0  0  0  0  0  0  0  0  0  0  0
  -23.3854  -35.9823   23.3648 H   0  0  0  0  0  0  0  0  0  0  0  0
  -24.3696  -36.8624   22.2204 H   0  0  0  0  0  0  0  0  0  0  0  0
  -23.7669  -37.6632   23.6516 H   0  0  0  0  0  0  0  0  0  0  0  0
  -25.9445  -31.6237   20.5691 H   0  0  0  0  0  0  0  0  0  0  0  0
  -26.7436  -31.0079   22.0108 H   0  0  0  0  0  0  0  0  0  0  0  0
  -28.0090  -29.1452   21.2057 H   0  0  0  0  0  0  0  0  0  0  0  0
  -26.1369  -26.0560   19.0719 H   0  0  0  0  0  0  0  0  0  0  0  0
  -24.0652  -27.2961   19.0997 H   0  0  0  0  0  0  0  0  0  0  0  0
  -23.6156  -30.5365   19.3930 H   0  0  0  0  0  0  0  0  0  0  0  0
  -22.7355  -29.1425   19.9945 H   0  0  0  0  0  0  0  0  0  0  0  0
  -25.1353  -36.2335   25.0565 H   0  0  0  0  0  0  0  0  0  0  0  0
  -21.0070  -28.3206   24.0793 H   0  0  0  0  0  0  0  0  0  0  0  0
  -20.5555  -26.2518   23.3550 H   0  0  0  0  0  0  0  0  0  0  0  0
  -21.5974  -26.8362   22.0454 H   0  0  0  0  0  0  0  0  0  0  0  0
  -19.6810  -25.6422   21.1488 H   0  0  0  0  0  0  0  0  0  0  0  0
  -19.6406  -27.3343   20.7034 H   0  0  0  0  0  0  0  0  0  0  0  0
  -17.4282  -26.6888   21.4113 H   0  0  0  0  0  0  0  0  0  0  0  0
  -18.0803  -26.0130   22.9049 H   0  0  0  0  0  0  0  0  0  0  0  0
  -19.7265  -30.6774   24.2204 H   0  0  0  0  0  0  0  0  0  0  0  0
  -17.5064  -31.5856   24.4483 H   0  0  0  0  0  0  0  0  0  0  0  0
  -15.5878  -30.2839   23.7407 H   0  0  0  0  0  0  0  0  0  0  0  0
  -15.9120  -28.0941   22.7766 H   0  0  0  0  0  0  0  0  0  0  0  0
  -24.5787  -30.7757   25.6817 H   0  0  0  0  0  0  0  0  0  0  0  0
  -25.0041  -32.2289   26.5536 H   0  0  0  0  0  0  0  0  0  0  0  0
  -25.8166  -30.7245   26.9138 H   0  0  0  0  0  0  0  0  0  0  0  0
  -26.2892  -29.7335   24.0803 H   0  0  0  0  0  0  0  0  0  0  0  0
  -27.4336  -29.7484   25.4006 H   0  0  0  0  0  0  0  0  0  0  0  0
  -27.8466  -30.4994   23.8779 H   0  0  0  0  0  0  0  0  0  0  0  0
  -27.2251  -33.3632   26.1242 H   0  0  0  0  0  0  0  0  0  0  0  0
  -28.3902  -32.6065   25.0645 H   0  0  0  0  0  0  0  0  0  0  0  0
  -27.9772  -31.8555   26.5872 H   0  0  0  0  0  0  0  0  0  0  0  0
  -28.2744  -38.0016   24.6863 H   0  0  0  0  0  0  0  0  0  0  0  0
  -28.0396  -36.2711   24.7461 H   0  0  0  0  0  0  0  0  0  0  0  0
  -27.1773  -37.3087   25.8564 H   0  0  0  0  0  0  0  0  0  0  0  0
  -20.9627  -29.9365   21.7352 H   0  0  0  0  0  0  0  0  0  0  0  0
  -26.0447  -38.2561   24.0273 H   0  0  0  0  0  0  0  0  0  0  0  0
  -32.0342  -19.3762   24.6388 H   0  0  0  0  0  0  0  0  0  0  0  0
  -32.4670  -16.1928   21.9281 H   0  0  0  0  0  0  0  0  0  0  0  0
  -27.7252  -18.4286   23.3796 H   0  0  0  0  0  0  0  0  0  0  0  0
  -27.8090  -16.7121   23.0636 H   0  0  0  0  0  0  0  0  0  0  0  0
  -27.9415  -17.8508   21.7449 H   0  0  0  0  0  0  0  0  0  0  0  0
  -28.2939  -21.4302   24.2782 H   0  0  0  0  0  0  0  0  0  0  0  0
  -28.3174  -20.3750   22.8857 H   0  0  0  0  0  0  0  0  0  0  0  0
  -29.7408  -21.2964   23.3078 H   0  0  0  0  0  0  0  0  0  0  0  0
  -39.0101  -17.3237   20.9802 H   0  0  0  0  0  0  0  0  0  0  0  0
  -38.7341  -17.9242   22.5977 H   0  0  0  0  0  0  0  0  0  0  0  0
  -38.3509  -18.9244   21.2172 H   0  0  0  0  0  0  0  0  0  0  0  0
  -29.9518  -20.0188   25.3851 H   0  0  0  0  0  0  0  0  0  0  0  0
  -28.5186  -19.0895   24.9292 H   0  0  0  0  0  0  0  0  0  0  0  0
  -36.9985  -16.3420   21.9333 H   0  0  0  0  0  0  0  0  0  0  0  0
  -36.6198  -17.3971   20.5525 H   0  0  0  0  0  0  0  0  0  0  0  0
  -36.3782  -19.6152   21.0768 H   0  0  0  0  0  0  0  0  0  0  0  0
  -35.9746  -19.9665   22.9923 H   0  0  0  0  0  0  0  0  0  0  0  0
  -34.7381  -16.3698   22.4084 H   0  0  0  0  0  0  0  0  0  0  0  0
  -34.0863  -17.6930   21.4640 H   0  0  0  0  0  0  0  0  0  0  0  0
  -36.3141  -18.1598   23.4262 H   0  0  0  0  0  0  0  0  0  0  0  0
  -28.9866  -15.9983   21.1188 H   0  0  0  0  0  0  0  0  0  0  0  0
  1 25  1  0
  1 30  2  0
  1 85  1  0
  2  3  1  0
  2 25  1  0
  2 87  1  0
  2 88  1  0
  3  4  1  0
  3 89  1  0
  3 90  1  0
  4  5  1  0
  4 91  1  0
  4 92  1  0
  5  6  1  0
  5 26  1  0
  5 93  1  6
  6 25  1  0
  6 94  1  0
  6 95  1  0
  7  8  2  0
  7 26  1  0
  7 29  1  0
  8  9  1  0
  8 22  1  0
  9 10  1  0
  9 27  2  0
 10 11  2  0
 10 15  1  0
 11 12  1  0
 11 96  1  0
 12 13  2  0
 12 97  1  0
 13 14  1  0
 13 31  1  0
 14 15  2  0
 14 98  1  0
 15 99  1  0
 16 17  2  0
 16 21  1  0
 16 31  1  0
 17 18  1  0
 17100  1  0
 18 19  2  0
 18101  1  0
 19 20  1  0
 19 24  1  0
 20 21  2  0
 20102  1  0
 21 23  1  0
 22 28  1  0
 22 32  2  0
 26 27  1  0
 28103  1  0
 28104  1  0
 29105  1  0
 29106  1  0
 33 34  1  0
 33 66  1  0
 33 70  2  0
 34 36  1  0
 34 59  1  0
 34107  1  6
 35 44  2  0
 35 45  1  0
 35 68  1  0
 36 56  1  0
 36108  1  0
 37 39  1  0
 37 47  1  0
 37 66  1  0
 37109  1  6
 38 43  2  0
 38 46  1  0
 38 47  1  0
 39 64  1  0
 39 67  2  0
 40 52  1  0
 40 53  2  0
 40 58  1  0
 41110  1  0
 41111  1  0
 41112  1  0
 42 43  1  0
 42 66  1  0
 42113  1  0
 42114  1  0
 43 44  1  0
 44115  1  0
 45 46  2  0
 45116  1  0
 46117  1  0
 47118  1  0
 47119  1  0
 48 41  1  0
 48 56  1  0
 48 65  1  0
 48120  1  1
 49 50  1  0
 49 53  1  0
 49 64  1  0
 49121  1  1
 50 51  1  0
 50122  1  0
 50123  1  0
 51 52  1  0
 51124  1  0
 51125  1  0
 52126  1  0
 52127  1  0
 53 54  1  0
 54 55  2  0
 54128  1  0
 55 57  1  0
 55129  1  0
 56 69  2  0
 57 58  2  0
 57130  1  0
 58131  1  0
 59 60  1  0
 59 61  1  0
 59 62  1  0
 60132  1  0
 60133  1  0
 60134  1  0
 61135  1  0
 61136  1  0
 61137  1  0
 62138  1  0
 62139  1  0
 62140  1  0
 63 65  1  0
 63141  1  0
 63142  1  0
 63143  1  0
 64144  1  0
 65145  1  0
 68 82  1  0
 71 73  2  0
 71 76  1  0
 71146  1  0
 72 75  1  0
 72 76  2  0
 72147  1  0
 73 74  1  0
 73 80  1  0
 74 75  2  0
 74 77  1  0
 75 85  1  0
 76 86  1  0
 77148  1  0
 77149  1  0
 77150  1  0
 78 80  1  0
 78151  1  0
 78152  1  0
 78153  1  0
 79 81  1  0
 79154  1  0
 79155  1  0
 79156  1  0
 80157  1  0
 80158  1  0
 81159  1  0
 81160  1  0
 82 84  1  0
 82161  1  0
 82162  1  0
 83 84  1  0
 83 86  1  0
 83163  1  0
 83164  1  0
 84 81  1  0
 84165  1  1
 85166  1  0
M  ISO  4   1 100  68 101  82 101  85 100
M  END
$$$$
25
     RDKit          3D

167175  0  0  0  0  0  0  0  0999 V2000
  -30.7652  -14.3608   20.6636 C   0  0  0  0  0  0  0  0  0100  0  0
  -30.4392  -12.2669   19.3775 C   0  0  0  0  0  0  0  0  0101  0  0
  -29.4791  -12.5281   18.1977 C   0  0  0  0  0  0  0  0  0102  0  0
  -27.9985  -12.3963   18.6038 C   0  0  0  0  0  0  0  0  0103  0  0
  -27.6639  -13.2170   19.8820 C   0  0  2  0  0  0  0  0  0104  0  0
  -28.6795  -12.9602   21.0279 C   0  0  0  0  0  0  0  0  0105  0  0
  -25.2633  -13.8245   20.5754 C   0  0  0  0  0  0  0  0  0106  0  0
  -24.1645  -13.0409   20.9408 C   0  0  0  0  0  0  0  0  0107  0  0
  -24.6400  -11.7009   20.8697 C   0  0  0  0  0  0  0  0  0108  0  0
  -23.9005  -10.4085   21.0420 C   0  0  0  0  0  0  0  0  0109  0  0
  -24.3588   -9.4123   21.9123 C   0  0  0  0  0  0  0  0  0110  0  0
  -23.6296   -8.2350   22.0803 C   0  0  0  0  0  0  0  0  0111  0  0
  -22.4385   -8.0419   21.3657 C   0  0  0  0  0  0  0  0  0112  0  0
  -22.0103   -9.0167   20.4678 C   0  0  0  0  0  0  0  0  0113  0  0
  -22.7317  -10.1925   20.3102 C   0  0  0  0  0  0  0  0  0114  0  0
  -21.6857   -6.0709   22.5391 C   0  0  0  0  0  0  0  0  0115  0  0
  -21.4064   -6.5490   23.8264 C   0  0  0  0  0  0  0  0  0116  0  0
  -21.3635   -5.6677   24.9085 C   0  0  0  0  0  0  0  0  0117  0  0
  -21.5973   -4.3067   24.7088 C   0  0  0  0  0  0  0  0  0118  0  0
  -21.8700   -3.8284   23.4282 C   0  0  0  0  0  0  0  0  0119  0  0
  -21.9144   -4.7056   22.3460 C   0  0  0  0  0  0  0  0  0120  0  0
  -22.8194  -13.5263   21.1763 C   0  0  0  0  0  0  0  0  0121  0  0
  -22.1559   -4.2206   21.1063 F   0  0  0  0  0  0  0  0  0122  0  0
  -21.5628   -3.4510   25.7555 F   0  0  0  0  0  0  0  0  0123  0  0
  -30.0261  -13.1803   20.4553 N   0  0  0  0  0  0  0  0  0124  0  0
  -26.2911  -12.9356   20.3443 N   0  0  0  0  0  0  0  0  0125  0  0
  -25.9236  -11.6675   20.5847 N   0  0  0  0  0  0  0  0  0126  0  0
  -22.0708  -12.7905   22.0005 N   0  0  0  0  0  0  0  0  0127  0  0
  -25.4117  -15.1773   20.4097 N   0  0  0  0  0  0  0  0  0128  0  0
  -31.7916  -14.6724   20.0536 O   0  0  0  0  0  0  0  0  0129  0  0
  -21.6670   -6.9022   21.4423 O   0  0  0  0  0  0  0  0  0130  0  0
  -22.3946  -14.5564   20.6568 O   0  0  0  0  0  0  0  0  0131  0  0
  -24.6048  -31.8614   23.2223 C   0  0  0  0  0  0  0  0  0100  0  0
  -25.8822  -32.4841   23.8616 C   0  0  1  0  0  0  0  0  0101  0  0
  -27.2536  -27.5042   20.1156 C   0  0  0  0  0  0  0  0  0102  0  0
  -25.5726  -33.8762   24.2210 N   0  0  0  0  0  0  0  0  0103  0  0
  -23.4066  -30.4859   21.5461 C   0  0  2  0  0  0  0  0  0104  0  0
  -24.8467  -28.9636   20.1247 C   0  0  0  0  0  0  0  0  0105  0  0
  -22.7412  -29.4652   22.5052 C   0  0  0  0  0  0  0  0  0106  0  0
  -18.0167  -28.1302   22.8626 C   0  0  0  0  0  0  0  0  0107  0  0
  -24.1342  -36.7390   23.2568 C   0  0  0  0  0  0  0  0  0108  0  0
  -25.9141  -30.8882   21.3456 C   0  0  0  0  0  0  0  0  0109  0  0
  -25.9930  -29.5029   20.7208 C   0  0  0  0  0  0  0  0  0110  0  0
  -27.1758  -28.7612   20.7331 C   0  0  0  0  0  0  0  0  0111  0  0
  -26.1032  -26.9836   19.5230 C   0  0  0  0  0  0  0  0  0112  0  0
  -24.9097  -27.7011   19.5331 C   0  0  0  0  0  0  0  0  0113  0  0
  -23.5715  -29.7899   20.1582 C   0  0  0  0  0  0  0  0  0114  0  0
  -25.3990  -36.3212   24.0232 C   0  0  1  0  0  0  0  0  0115  0  0
  -20.5793  -28.3813   23.1004 C   0  0  2  0  0  0  0  0  0116  0  0
  -20.6548  -26.9392   22.5411 C   0  0  0  0  0  0  0  0  0117  0  0
  -19.5615  -26.6407   21.5143 C   0  0  0  0  0  0  0  0  0118  0  0
  -18.1797  -26.7818   22.1673 C   0  0  0  0  0  0  0  0  0119  0  0
  -19.1385  -28.8769   23.2988 C   0  0  0  0  0  0  0  0  0120  0  0
  -18.9183  -30.1286   23.8878 C   0  0  0  0  0  0  0  0  0121  0  0
  -17.6396  -30.6493   24.0352 C   0  0  0  0  0  0  0  0  0122  0  0
  -25.9153  -34.9582   23.4993 C   0  0  0  0  0  0  0  0  0123  0  0
  -16.5415  -29.9068   23.6254 C   0  0  0  0  0  0  0  0  0124  0  0
  -16.7331  -28.6521   23.0586 C   0  0  0  0  0  0  0  0  0125  0  0
  -26.4583  -31.6439   25.0683 C   0  0  0  0  0  0  0  0  0126  0  0
  -25.3807  -31.3179   26.1374 C   0  0  0  0  0  0  0  0  0127  0  0
  -27.0530  -30.3024   24.5680 C   0  0  0  0  0  0  0  0  0128  0  0
  -27.6014  -32.4281   25.7651 C   0  0  0  0  0  0  0  0  0129  0  0
  -27.5629  -37.2220   24.8621 C   0  0  0  0  0  0  0  0  0130  0  0
  -21.4133  -29.3375   22.3735 N   0  0  0  0  0  0  0  0  0131  0  0
  -26.4706  -37.3372   23.9061 N   0  0  0  0  0  0  0  0  0132  0  0
  -24.6674  -31.0544   22.1178 N   0  0  0  0  0  0  0  0  0133  0  0
  -23.4259  -28.8150   23.2971 O   0  0  0  0  0  0  0  0  0134  0  0
  -28.3948  -26.7345   20.0089 O   0  0  0  0  0  0  0  0  0135  0  0
  -26.5870  -34.9065   22.4671 O   0  0  0  0  0  0  0  0  0136  0  0
  -23.5365  -32.1254   23.7833 O   0  0  0  0  0  0  0  0  0137  0  0
  -26.7633  -21.3797   17.9930 C   0  0  0  0  0  0  0  0  0  0  0  0
  -26.2364  -21.8323   16.7834 C   0  0  0  0  0  0  0  0  0  0  0  0
  -27.9693  -21.8974   18.4657 C   0  0  0  0  0  0  0  0  0  0  0  0
  -28.6484  -22.8676   17.7286 C   0  0  0  0  0  0  0  0  0  0  0  0
  -28.1215  -23.3201   16.5189 C   0  0  0  0  0  0  0  0  0  0  0  0
  -26.9155  -22.8024   16.0463 C   0  0  0  0  0  0  0  0  0  0  0  0
  -28.4941  -21.4049   19.7324 C   0  0  0  0  0  0  0  0  0  0  0  0
  -28.8432  -24.3602   15.7224 C   0  0  0  0  0  0  0  0  0  0  0  0
  -32.4603  -23.4221   17.9870 C   0  0  0  0  0  0  0  0  0  0  0  0
  -25.1015  -24.0819   12.3798 C   0  0  0  0  0  0  0  0  0  0  0  0
  -29.9423  -23.4239   18.2344 C   0  0  0  0  0  0  0  0  0  0  0  0
  -31.1487  -22.8314   17.4944 C   0  0  0  0  0  0  0  0  0  0  0  0
  -24.8468  -25.6833   14.3185 C   0  0  0  0  0  0  0  0  0  1  0  0
  -24.9649  -23.2107   14.7487 C   0  0  0  0  0  0  0  0  0  0  0  0
  -24.4984  -24.2954   13.7734 C   0  0  2  0  0  0  0  0  0  0  0  0
  -29.6520  -20.8151   19.8446 N   0  0  0  0  0  0  0  0  0  0  0  0
  -26.3818  -23.2348   14.8604 O   0  0  0  0  0  0  0  0  0  0  0  0
  -31.4485  -12.4701   19.0860 H   0  0  0  0  0  0  0  0  0  0  0  0
  -30.3970  -11.2460   19.6950 H   0  0  0  0  0  0  0  0  0  0  0  0
  -29.6870  -11.8204   17.4226 H   0  0  0  0  0  0  0  0  0  0  0  0
  -29.6375  -13.5326   17.8649 H   0  0  0  0  0  0  0  0  0  0  0  0
  -27.7830  -11.3650   18.7904 H   0  0  0  0  0  0  0  0  0  0  0  0
  -27.4028  -12.7801   17.8021 H   0  0  0  0  0  0  0  0  0  0  0  0
  -27.7353  -14.2503   19.6136 H   0  0  0  0  0  0  0  0  0  0  0  0
  -28.5890  -11.9550   21.3832 H   0  0  0  0  0  0  0  0  0  0  0  0
  -28.5005  -13.6134   21.8562 H   0  0  0  0  0  0  0  0  0  0  0  0
  -25.2399   -9.5495   22.4318 H   0  0  0  0  0  0  0  0  0  0  0  0
  -23.9663   -7.5070   22.7297 H   0  0  0  0  0  0  0  0  0  0  0  0
  -21.1515   -8.8641   19.9162 H   0  0  0  0  0  0  0  0  0  0  0  0
  -22.4016  -10.9115   19.6476 H   0  0  0  0  0  0  0  0  0  0  0  0
  -21.2319   -7.5552   23.9750 H   0  0  0  0  0  0  0  0  0  0  0  0
  -21.1589   -6.0228   25.8556 H   0  0  0  0  0  0  0  0  0  0  0  0
  -22.0396   -2.8212   23.2809 H   0  0  0  0  0  0  0  0  0  0  0  0
  -22.4401  -11.9703   22.4008 H   0  0  0  0  0  0  0  0  0  0  0  0
  -21.1493  -13.0679   22.2082 H   0  0  0  0  0  0  0  0  0  0  0  0
  -24.6538  -15.7807   20.5848 H   0  0  0  0  0  0  0  0  0  0  0  0
  -26.2762  -15.5453   20.1156 H   0  0  0  0  0  0  0  0  0  0  0  0
  -26.6778  -32.4663   23.1464 H   0  0  0  0  0  0  0  0  0  0  0  0
  -25.0747  -34.0282   25.0566 H   0  0  0  0  0  0  0  0  0  0  0  0
  -22.7881  -31.3489   21.4131 H   0  0  0  0  0  0  0  0  0  0  0  0
  -23.3854  -35.9823   23.3648 H   0  0  0  0  0  0  0  0  0  0  0  0
  -24.3696  -36.8624   22.2204 H   0  0  0  0  0  0  0  0  0  0  0  0
  -23.7669  -37.6632   23.6516 H   0  0  0  0  0  0  0  0  0  0  0  0
  -25.9445  -31.6237   20.5691 H   0  0  0  0  0  0  0  0  0  0  0  0
  -26.7436  -31.0079   22.0108 H   0  0  0  0  0  0  0  0  0  0  0  0
  -28.0090  -29.1452   21.2057 H   0  0  0  0  0  0  0  0  0  0  0  0
  -26.1369  -26.0560   19.0719 H   0  0  0  0  0  0  0  0  0  0  0  0
  -24.0652  -27.2961   19.0997 H   0  0  0  0  0  0  0  0  0  0  0  0
  -23.6156  -30.5365   19.3930 H   0  0  0  0  0  0  0  0  0  0  0  0
  -22.7355  -29.1425   19.9945 H   0  0  0  0  0  0  0  0  0  0  0  0
  -25.1353  -36.2335   25.0565 H   0  0  0  0  0  0  0  0  0  0  0  0
  -21.0070  -28.3206   24.0793 H   0  0  0  0  0  0  0  0  0  0  0  0
  -20.5555  -26.2518   23.3550 H   0  0  0  0  0  0  0  0  0  0  0  0
  -21.5974  -26.8362   22.0454 H   0  0  0  0  0  0  0  0  0  0  0  0
  -19.6810  -25.6422   21.1488 H   0  0  0  0  0  0  0  0  0  0  0  0
  -19.6406  -27.3343   20.7034 H   0  0  0  0  0  0  0  0  0  0  0  0
  -17.4282  -26.6888   21.4113 H   0  0  0  0  0  0  0  0  0  0  0  0
  -18.0803  -26.0130   22.9049 H   0  0  0  0  0  0  0  0  0  0  0  0
  -19.7265  -30.6774   24.2204 H   0  0  0  0  0  0  0  0  0  0  0  0
  -17.5064  -31.5856   24.4483 H   0  0  0  0  0  0  0  0  0  0  0  0
  -15.5878  -30.2839   23.7407 H   0  0  0  0  0  0  0  0  0  0  0  0
  -15.9120  -28.0941   22.7766 H   0  0  0  0  0  0  0  0  0  0  0  0
  -24.5787  -30.7757   25.6817 H   0  0  0  0  0  0  0  0  0  0  0  0
  -25.0041  -32.2289   26.5536 H   0  0  0  0  0  0  0  0  0  0  0  0
  -25.8166  -30.7245   26.9138 H   0  0  0  0  0  0  0  0  0  0  0  0
  -26.2892  -29.7335   24.0803 H   0  0  0  0  0  0  0  0  0  0  0  0
  -27.4336  -29.7484   25.4006 H   0  0  0  0  0  0  0  0  0  0  0  0
  -27.8466  -30.4994   23.8779 H   0  0  0  0  0  0  0  0  0  0  0  0
  -27.2251  -33.3632   26.1242 H   0  0  0  0  0  0  0  0  0  0  0  0
  -28.3902  -32.6065   25.0645 H   0  0  0  0  0  0  0  0  0  0  0  0
  -27.9772  -31.8555   26.5872 H   0  0  0  0  0  0  0  0  0  0  0  0
  -28.2744  -38.0016   24.6863 H   0  0  0  0  0  0  0  0  0  0  0  0
  -28.0396  -36.2711   24.7461 H   0  0  0  0  0  0  0  0  0  0  0  0
  -27.1773  -37.3087   25.8564 H   0  0  0  0  0  0  0  0  0  0  0  0
  -20.9627  -29.9365   21.7352 H   0  0  0  0  0  0  0  0  0  0  0  0
  -26.0447  -38.2561   24.0273 H   0  0  0  0  0  0  0  0  0  0  0  0
  -26.2609  -20.6618   18.5382 H   0  0  0  0  0  0  0  0  0  0  0  0
  -25.3441  -21.4494   16.4338 H   0  0  0  0  0  0  0  0  0  0  0  0
  -29.7418  -24.6396   16.2317 H   0  0  0  0  0  0  0  0  0  0  0  0
  -28.2165  -25.2198   15.6073 H   0  0  0  0  0  0  0  0  0  0  0  0
  -29.0876  -23.9653   14.7584 H   0  0  0  0  0  0  0  0  0  0  0  0
  -33.2738  -22.9839   17.4474 H   0  0  0  0  0  0  0  0  0  0  0  0
  -32.5737  -23.2177   19.0312 H   0  0  0  0  0  0  0  0  0  0  0  0
  -32.4565  -24.4804   17.8291 H   0  0  0  0  0  0  0  0  0  0  0  0
  -24.7591  -24.8525   11.7211 H   0  0  0  0  0  0  0  0  0  0  0  0
  -24.7972  -23.1283   12.0018 H   0  0  0  0  0  0  0  0  0  0  0  0
  -26.1690  -24.1160   12.4441 H   0  0  0  0  0  0  0  0  0  0  0  0
  -30.0314  -23.1991   19.2767 H   0  0  0  0  0  0  0  0  0  0  0  0
  -29.9369  -24.4806   18.0665 H   0  0  0  0  0  0  0  0  0  0  0  0
  -31.1652  -21.7731   17.6510 H   0  0  0  0  0  0  0  0  0  0  0  0
  -31.0486  -23.0654   16.4551 H   0  0  0  0  0  0  0  0  0  0  0  0
  -23.9112  -26.1818   14.4632 H   0  0  0  0  0  0  0  0  0  0  0  0
  -25.5404  -26.0253   13.5790 H   0  0  0  0  0  0  0  0  0  0  0  0
  -24.6540  -22.2524   14.3882 H   0  0  0  0  0  0  0  0  0  0  0  0
  -24.5334  -23.3937   15.7106 H   0  0  0  0  0  0  0  0  0  0  0  0
  -23.4349  -24.2277   13.6769 H   0  0  0  0  0  0  0  0  0  0  0  0
  -30.4803  -21.3461   19.8098 H   0  0  0  0  0  0  0  0  0  0  0  0
  1 25  1  0
  1 30  2  0
  1 77  1  0
  2  3  1  0
  2 25  1  0
  2 88  1  0
  2 89  1  0
  3  4  1  0
  3 90  1  0
  3 91  1  0
  4  5  1  0
  4 92  1  0
  4 93  1  0
  5  6  1  0
  5 26  1  0
  5 94  1  6
  6 25  1  0
  6 95  1  0
  6 96  1  0
  7  8  2  0
  7 26  1  0
  7 29  1  0
  8  9  1  0
  8 22  1  0
  9 10  1  0
  9 27  2  0
 10 11  2  0
 10 15  1  0
 11 12  1  0
 11 97  1  0
 12 13  2  0
 12 98  1  0
 13 14  1  0
 13 31  1  0
 14 15  2  0
 14 99  1  0
 15100  1  0
 16 17  2  0
 16 21  1  0
 16 31  1  0
 17 18  1  0
 17101  1  0
 18 19  2  0
 18102  1  0
 19 20  1  0
 19 24  1  0
 20 21  2  0
 20103  1  0
 21 23  1  0
 22 28  1  0
 22 32  2  0
 26 27  1  0
 28104  1  0
 28105  1  0
 29106  1  0
 29107  1  0
 33 34  1  0
 33 66  1  0
 33 70  2  0
 34 36  1  0
 34 59  1  0
 34108  1  6
 35 44  2  0
 35 45  1  0
 35 68  1  0
 36 56  1  0
 36109  1  0
 37 39  1  0
 37 47  1  0
 37 66  1  0
 37110  1  6
 38 43  2  0
 38 46  1  0
 38 47  1  0
 39 64  1  0
 39 67  2  0
 40 52  1  0
 40 53  2  0
 40 58  1  0
 41111  1  0
 41112  1  0
 41113  1  0
 42 43  1  0
 42 66  1  0
 42114  1  0
 42115  1  0
 43 44  1  0
 44116  1  0
 45 46  2  0
 45117  1  0
 46118  1  0
 47119  1  0
 47120  1  0
 48 41  1  0
 48 56  1  0
 48 65  1  0
 48121  1  1
 49 50  1  0
 49 53  1  0
 49 64  1  0
 49122  1  1
 50 51  1  0
 50123  1  0
 50124  1  0
 51 52  1  0
 51125  1  0
 51126  1  0
 52127  1  0
 52128  1  0
 53 54  1  0
 54 55  2  0
 54129  1  0
 55 57  1  0
 55130  1  0
 56 69  2  0
 57 58  2  0
 57131  1  0
 58132  1  0
 59 60  1  0
 59 61  1  0
 59 62  1  0
 60133  1  0
 60134  1  0
 60135  1  0
 61136  1  0
 61137  1  0
 61138  1  0
 62139  1  0
 62140  1  0
 62141  1  0
 63 65  1  0
 63142  1  0
 63143  1  0
 63144  1  0
 64145  1  0
 65146  1  0
 68 83  1  0
 71 72  2  0
 71 73  1  0
 71147  1  0
 72 76  1  0
 72148  1  0
 73 74  2  0
 73 77  1  0
 74 75  1  0
 74 81  1  0
 75 76  2  0
 75 78  1  0
 76 87  1  0
 77 86  2  0
 78149  1  0
 78150  1  0
 78151  1  0
 79 82  1  0
 79152  1  0
 79153  1  0
 79154  1  0
 80155  1  0
 80156  1  0
 80157  1  0
 81 82  1  0
 81158  1  0
 81159  1  0
 82160  1  0
 82161  1  0
 83 85  1  0
 83162  1  0
 83163  1  0
 84 85  1  0
 84 87  1  0
 84164  1  0
 84165  1  0
 85 80  1  0
 85166  1  6
 86167  1  0
M  ISO  4   1 100  68 101  77 100  83 101
M  END
$$$$
26
     RDKit          3D

161170  0  0  0  0  0  0  0  0999 V2000
  -30.7652  -14.3608   20.6636 C   0  0  0  0  0  0  0  0  0100  0  0
  -30.4392  -12.2669   19.3775 C   0  0  0  0  0  0  0  0  0101  0  0
  -29.4791  -12.5281   18.1977 C   0  0  0  0  0  0  0  0  0102  0  0
  -27.9985  -12.3963   18.6038 C   0  0  0  0  0  0  0  0  0103  0  0
  -27.6639  -13.2170   19.8820 C   0  0  2  0  0  0  0  0  0104  0  0
  -28.6795  -12.9602   21.0279 C   0  0  0  0  0  0  0  0  0105  0  0
  -25.2633  -13.8245   20.5754 C   0  0  0  0  0  0  0  0  0106  0  0
  -24.1645  -13.0409   20.9408 C   0  0  0  0  0  0  0  0  0107  0  0
  -24.6400  -11.7009   20.8697 C   0  0  0  0  0  0  0  0  0108  0  0
  -23.9005  -10.4085   21.0420 C   0  0  0  0  0  0  0  0  0109  0  0
  -24.3588   -9.4123   21.9123 C   0  0  0  0  0  0  0  0  0110  0  0
  -23.6296   -8.2350   22.0803 C   0  0  0  0  0  0  0  0  0111  0  0
  -22.4385   -8.0419   21.3657 C   0  0  0  0  0  0  0  0  0112  0  0
  -22.0103   -9.0167   20.4678 C   0  0  0  0  0  0  0  0  0113  0  0
  -22.7317  -10.1925   20.3102 C   0  0  0  0  0  0  0  0  0114  0  0
  -21.6857   -6.0709   22.5391 C   0  0  0  0  0  0  0  0  0115  0  0
  -21.4064   -6.5490   23.8264 C   0  0  0  0  0  0  0  0  0116  0  0
  -21.3635   -5.6677   24.9085 C   0  0  0  0  0  0  0  0  0117  0  0
  -21.5973   -4.3067   24.7088 C   0  0  0  0  0  0  0  0  0118  0  0
  -21.8700   -3.8284   23.4282 C   0  0  0  0  0  0  0  0  0119  0  0
  -21.9144   -4.7056   22.3460 C   0  0  0  0  0  0  0  0  0120  0  0
  -22.8194  -13.5263   21.1763 C   0  0  0  0  0  0  0  0  0121  0  0
  -22.1559   -4.2206   21.1063 F   0  0  0  0  0  0  0  0  0122  0  0
  -21.5628   -3.4510   25.7555 F   0  0  0  0  0  0  0  0  0123  0  0
  -30.0261  -13.1803   20.4553 N   0  0  0  0  0  0  0  0  0124  0  0
  -26.2911  -12.9356   20.3443 N   0  0  0  0  0  0  0  0  0125  0  0
  -25.9236  -11.6675   20.5847 N   0  0  0  0  0  0  0  0  0126  0  0
  -22.0708  -12.7905   22.0005 N   0  0  0  0  0  0  0  0  0127  0  0
  -25.4117  -15.1773   20.4097 N   0  0  0  0  0  0  0  0  0128  0  0
  -31.7916  -14.6724   20.0536 O   0  0  0  0  0  0  0  0  0129  0  0
  -21.6670   -6.9022   21.4423 O   0  0  0  0  0  0  0  0  0130  0  0
  -22.3946  -14.5564   20.6568 O   0  0  0  0  0  0  0  0  0131  0  0
  -24.6048  -31.8614   23.2223 C   0  0  0  0  0  0  0  0  0100  0  0
  -25.8822  -32.4841   23.8616 C   0  0  1  0  0  0  0  0  0101  0  0
  -27.2536  -27.5042   20.1156 C   0  0  0  0  0  0  0  0  0102  0  0
  -25.5726  -33.8762   24.2210 N   0  0  0  0  0  0  0  0  0103  0  0
  -23.4066  -30.4859   21.5461 C   0  0  2  0  0  0  0  0  0104  0  0
  -24.8467  -28.9636   20.1247 C   0  0  0  0  0  0  0  0  0105  0  0
  -22.7412  -29.4652   22.5052 C   0  0  0  0  0  0  0  0  0106  0  0
  -18.0167  -28.1302   22.8626 C   0  0  0  0  0  0  0  0  0107  0  0
  -24.1342  -36.7390   23.2568 C   0  0  0  0  0  0  0  0  0108  0  0
  -25.9141  -30.8882   21.3456 C   0  0  0  0  0  0  0  0  0109  0  0
  -25.9930  -29.5029   20.7208 C   0  0  0  0  0  0  0  0  0110  0  0
  -27.1758  -28.7612   20.7331 C   0  0  0  0  0  0  0  0  0111  0  0
  -26.1032  -26.9836   19.5230 C   0  0  0  0  0  0  0  0  0112  0  0
  -24.9097  -27.7011   19.5331 C   0  0  0  0  0  0  0  0  0113  0  0
  -23.5715  -29.7899   20.1582 C   0  0  0  0  0  0  0  0  0114  0  0
  -25.3990  -36.3212   24.0232 C   0  0  1  0  0  0  0  0  0115  0  0
  -20.5793  -28.3813   23.1004 C   0  0  2  0  0  0  0  0  0116  0  0
  -20.6548  -26.9392   22.5411 C   0  0  0  0  0  0  0  0  0117  0  0
  -19.5615  -26.6407   21.5143 C   0  0  0  0  0  0  0  0  0118  0  0
  -18.1797  -26.7818   22.1673 C   0  0  0  0  0  0  0  0  0119  0  0
  -19.1385  -28.8769   23.2988 C   0  0  0  0  0  0  0  0  0120  0  0
  -18.9183  -30.1286   23.8878 C   0  0  0  0  0  0  0  0  0121  0  0
  -17.6396  -30.6493   24.0352 C   0  0  0  0  0  0  0  0  0122  0  0
  -25.9153  -34.9582   23.4993 C   0  0  0  0  0  0  0  0  0123  0  0
  -16.5415  -29.9068   23.6254 C   0  0  0  0  0  0  0  0  0124  0  0
  -16.7331  -28.6521   23.0586 C   0  0  0  0  0  0  0  0  0125  0  0
  -26.4583  -31.6439   25.0683 C   0  0  0  0  0  0  0  0  0126  0  0
  -25.3807  -31.3179   26.1374 C   0  0  0  0  0  0  0  0  0127  0  0
  -27.0530  -30.3024   24.5680 C   0  0  0  0  0  0  0  0  0128  0  0
  -27.6014  -32.4281   25.7651 C   0  0  0  0  0  0  0  0  0129  0  0
  -27.5629  -37.2220   24.8621 C   0  0  0  0  0  0  0  0  0130  0  0
  -21.4133  -29.3375   22.3735 N   0  0  0  0  0  0  0  0  0131  0  0
  -26.4706  -37.3372   23.9061 N   0  0  0  0  0  0  0  0  0132  0  0
  -24.6674  -31.0544   22.1178 N   0  0  0  0  0  0  0  0  0133  0  0
  -23.4259  -28.8150   23.2971 O   0  0  0  0  0  0  0  0  0134  0  0
  -28.3948  -26.7345   20.0089 O   0  0  0  0  0  0  0  0  0135  0  0
  -26.5870  -34.9065   22.4671 O   0  0  0  0  0  0  0  0  0136  0  0
  -23.5365  -32.1254   23.7833 O   0  0  0  0  0  0  0  0  0137  0  0
  -29.3377  -19.3916   23.5304 C   0  0  0  0  0  0  0  0  0  0  0  0
  -31.6457  -18.6804   23.4636 C   0  0  0  0  0  0  0  0  0  0  0  0
  -28.9784  -18.2999   22.7401 C   0  0  0  0  0  0  0  0  0  0  0  0
  -31.2864  -17.5887   22.6733 C   0  0  0  0  0  0  0  0  0  0  0  0
  -30.6714  -19.5819   23.8922 C   0  0  0  0  0  0  0  0  0  0  0  0
  -29.9527  -17.3984   22.3116 C   0  0  0  0  0  0  0  0  0  0  0  0
  -29.8798  -21.6694   25.1426 C   0  0  0  0  0  0  0  0  0  0  0  0
  -29.6362  -22.8897   24.6307 C   0  0  0  0  0  0  0  0  0  0  0  0
  -30.5188  -23.5160   23.5825 C   0  0  0  0  0  0  0  0  0  0  0  0
  -31.5241  -22.5443   22.9648 C   0  0  0  0  0  0  0  0  0  0  0  0
  -32.1427  -21.6453   24.0331 C   0  0  0  0  0  0  0  0  0  0  0  0
  -31.0691  -20.7908   24.7671 C   0  0  2  0  0  0  0  0  0  0  0  0
  -31.6775  -20.2932   26.1011 C   0  0  0  0  0  0  0  0  0  0  0  0
  -28.4605  -23.7106   25.0736 C   0  0  0  0  0  0  0  0  0  1  0  0
  -29.5880  -16.2891   21.5090 N   0  0  0  0  0  0  0  0  0  0  0  0
  -31.4485  -12.4701   19.0860 H   0  0  0  0  0  0  0  0  0  0  0  0
  -30.3970  -11.2460   19.6950 H   0  0  0  0  0  0  0  0  0  0  0  0
  -29.6870  -11.8204   17.4226 H   0  0  0  0  0  0  0  0  0  0  0  0
  -29.6375  -13.5326   17.8649 H   0  0  0  0  0  0  0  0  0  0  0  0
  -27.7830  -11.3650   18.7904 H   0  0  0  0  0  0  0  0  0  0  0  0
  -27.4028  -12.7801   17.8021 H   0  0  0  0  0  0  0  0  0  0  0  0
  -27.7353  -14.2503   19.6136 H   0  0  0  0  0  0  0  0  0  0  0  0
  -28.5890  -11.9550   21.3832 H   0  0  0  0  0  0  0  0  0  0  0  0
  -28.5005  -13.6134   21.8562 H   0  0  0  0  0  0  0  0  0  0  0  0
  -25.2399   -9.5495   22.4318 H   0  0  0  0  0  0  0  0  0  0  0  0
  -23.9663   -7.5070   22.7297 H   0  0  0  0  0  0  0  0  0  0  0  0
  -21.1515   -8.8641   19.9162 H   0  0  0  0  0  0  0  0  0  0  0  0
  -22.4016  -10.9115   19.6476 H   0  0  0  0  0  0  0  0  0  0  0  0
  -21.2319   -7.5552   23.9750 H   0  0  0  0  0  0  0  0  0  0  0  0
  -21.1589   -6.0228   25.8556 H   0  0  0  0  0  0  0  0  0  0  0  0
  -22.0396   -2.8212   23.2809 H   0  0  0  0  0  0  0  0  0  0  0  0
  -22.4401  -11.9703   22.4008 H   0  0  0  0  0  0  0  0  0  0  0  0
  -21.1493  -13.0679   22.2082 H   0  0  0  0  0  0  0  0  0  0  0  0
  -24.6538  -15.7807   20.5848 H   0  0  0  0  0  0  0  0  0  0  0  0
  -26.2762  -15.5453   20.1156 H   0  0  0  0  0  0  0  0  0  0  0  0
  -26.6778  -32.4663   23.1464 H   0  0  0  0  0  0  0  0  0  0  0  0
  -25.0747  -34.0282   25.0566 H   0  0  0  0  0  0  0  0  0  0  0  0
  -22.7881  -31.3489   21.4131 H   0  0  0  0  0  0  0  0  0  0  0  0
  -23.3854  -35.9823   23.3648 H   0  0  0  0  0  0  0  0  0  0  0  0
  -24.3696  -36.8624   22.2204 H   0  0  0  0  0  0  0  0  0  0  0  0
  -23.7669  -37.6632   23.6516 H   0  0  0  0  0  0  0  0  0  0  0  0
  -25.9445  -31.6237   20.5691 H   0  0  0  0  0  0  0  0  0  0  0  0
  -26.7436  -31.0079   22.0108 H   0  0  0  0  0  0  0  0  0  0  0  0
  -28.0090  -29.1452   21.2057 H   0  0  0  0  0  0  0  0  0  0  0  0
  -26.1369  -26.0560   19.0719 H   0  0  0  0  0  0  0  0  0  0  0  0
  -24.0652  -27.2961   19.0997 H   0  0  0  0  0  0  0  0  0  0  0  0
  -23.6156  -30.5365   19.3930 H   0  0  0  0  0  0  0  0  0  0  0  0
  -22.7355  -29.1425   19.9945 H   0  0  0  0  0  0  0  0  0  0  0  0
  -25.1353  -36.2335   25.0565 H   0  0  0  0  0  0  0  0  0  0  0  0
  -21.0070  -28.3206   24.0793 H   0  0  0  0  0  0  0  0  0  0  0  0
  -20.5555  -26.2518   23.3550 H   0  0  0  0  0  0  0  0  0  0  0  0
  -21.5974  -26.8362   22.0454 H   0  0  0  0  0  0  0  0  0  0  0  0
  -19.6810  -25.6422   21.1488 H   0  0  0  0  0  0  0  0  0  0  0  0
  -19.6406  -27.3343   20.7034 H   0  0  0  0  0  0  0  0  0  0  0  0
  -17.4282  -26.6888   21.4113 H   0  0  0  0  0  0  0  0  0  0  0  0
  -18.0803  -26.0130   22.9049 H   0  0  0  0  0  0  0  0  0  0  0  0
  -19.7265  -30.6774   24.2204 H   0  0  0  0  0  0  0  0  0  0  0  0
  -17.5064  -31.5856   24.4483 H   0  0  0  0  0  0  0  0  0  0  0  0
  -15.5878  -30.2839   23.7407 H   0  0  0  0  0  0  0  0  0  0  0  0
  -15.9120  -28.0941   22.7766 H   0  0  0  0  0  0  0  0  0  0  0  0
  -24.5787  -30.7757   25.6817 H   0  0  0  0  0  0  0  0  0  0  0  0
  -25.0041  -32.2289   26.5536 H   0  0  0  0  0  0  0  0  0  0  0  0
  -25.8166  -30.7245   26.9138 H   0  0  0  0  0  0  0  0  0  0  0  0
  -26.2892  -29.7335   24.0803 H   0  0  0  0  0  0  0  0  0  0  0  0
  -27.4336  -29.7484   25.4006 H   0  0  0  0  0  0  0  0  0  0  0  0
  -27.8466  -30.4994   23.8779 H   0  0  0  0  0  0  0  0  0  0  0  0
  -27.2251  -33.3632   26.1242 H   0  0  0  0  0  0  0  0  0  0  0  0
  -28.3902  -32.6065   25.0645 H   0  0  0  0  0  0  0  0  0  0  0  0
  -27.9772  -31.8555   26.5872 H   0  0  0  0  0  0  0  0  0  0  0  0
  -28.2744  -38.0016   24.6863 H   0  0  0  0  0  0  0  0  0  0  0  0
  -28.0396  -36.2711   24.7461 H   0  0  0  0  0  0  0  0  0  0  0  0
  -27.1773  -37.3087   25.8564 H   0  0  0  0  0  0  0  0  0  0  0  0
  -20.9627  -29.9365   21.7352 H   0  0  0  0  0  0  0  0  0  0  0  0
  -26.0447  -38.2561   24.0273 H   0  0  0  0  0  0  0  0  0  0  0  0
  -28.6168  -20.0586   23.8475 H   0  0  0  0  0  0  0  0  0  0  0  0
  -32.6324  -18.8212   23.7312 H   0  0  0  0  0  0  0  0  0  0  0  0
  -27.9917  -18.1592   22.4724 H   0  0  0  0  0  0  0  0  0  0  0  0
  -32.0073  -16.9218   22.3562 H   0  0  0  0  0  0  0  0  0  0  0  0
  -29.2139  -21.3011   25.8397 H   0  0  0  0  0  0  0  0  0  0  0  0
  -31.0605  -24.3207   24.0340 H   0  0  0  0  0  0  0  0  0  0  0  0
  -29.8783  -23.8476   22.7921 H   0  0  0  0  0  0  0  0  0  0  0  0
  -32.3005  -23.1023   22.4844 H   0  0  0  0  0  0  0  0  0  0  0  0
  -31.0117  -21.9284   22.2555 H   0  0  0  0  0  0  0  0  0  0  0  0
  -32.6469  -22.2580   24.7509 H   0  0  0  0  0  0  0  0  0  0  0  0
  -32.8239  -20.9768   23.5493 H   0  0  0  0  0  0  0  0  0  0  0  0
  -30.9551  -19.7019   26.6240 H   0  0  0  0  0  0  0  0  0  0  0  0
  -31.9533  -21.1339   26.7029 H   0  0  0  0  0  0  0  0  0  0  0  0
  -32.5446  -19.6999   25.8983 H   0  0  0  0  0  0  0  0  0  0  0  0
  -28.6598  -24.3168   25.9325 H   0  0  0  0  0  0  0  0  0  0  0  0
  -27.5695  -23.2160   25.3998 H   0  0  0  0  0  0  0  0  0  0  0  0
  -28.6426  -16.3100   21.2351 H   0  0  0  0  0  0  0  0  0  0  0  0
  1 25  1  0
  1 30  2  0
  1 85  1  0
  2  3  1  0
  2 25  1  0
  2 86  1  0
  2 87  1  0
  3  4  1  0
  3 88  1  0
  3 89  1  0
  4  5  1  0
  4 90  1  0
  4 91  1  0
  5  6  1  0
  5 26  1  0
  5 92  1  6
  6 25  1  0
  6 93  1  0
  6 94  1  0
  7  8  2  0
  7 26  1  0
  7 29  1  0
  8  9  1  0
  8 22  1  0
  9 10  1  0
  9 27  2  0
 10 11  2  0
 10 15  1  0
 11 12  1  0
 11 95  1  0
 12 13  2  0
 12 96  1  0
 13 14  1  0
 13 31  1  0
 14 15  2  0
 14 97  1  0
 15 98  1  0
 16 17  2  0
 16 21  1  0
 16 31  1  0
 17 18  1  0
 17 99  1  0
 18 19  2  0
 18100  1  0
 19 20  1  0
 19 24  1  0
 20 21  2  0
 20101  1  0
 21 23  1  0
 22 28  1  0
 22 32  2  0
 26 27  1  0
 28102  1  0
 28103  1  0
 29104  1  0
 29105  1  0
 33 34  1  0
 33 66  1  0
 33 70  2  0
 34 36  1  0
 34 59  1  0
 34106  1  6
 35 44  2  0
 35 45  1  0
 35 68  1  0
 36 56  1  0
 36107  1  0
 37 39  1  0
 37 47  1  0
 37 66  1  0
 37108  1  6
 38 43  2  0
 38 46  1  0
 38 47  1  0
 39 64  1  0
 39 67  2  0
 40 52  1  0
 40 53  2  0
 40 58  1  0
 41109  1  0
 41110  1  0
 41111  1  0
 42 43  1  0
 42 66  1  0
 42112  1  0
 42113  1  0
 43 44  1  0
 44114  1  0
 45 46  2  0
 45115  1  0
 46116  1  0
 47117  1  0
 47118  1  0
 48 41  1  0
 48 56  1  0
 48 65  1  0
 48119  1  1
 49 50  1  0
 49 53  1  0
 49 64  1  0
 49120  1  1
 50 51  1  0
 50121  1  0
 50122  1  0
 51 52  1  0
 51123  1  0
 51124  1  0
 52125  1  0
 52126  1  0
 53 54  1  0
 54 55  2  0
 54127  1  0
 55 57  1  0
 55128  1  0
 56 69  2  0
 57 58  2  0
 57129  1  0
 58130  1  0
 59 60  1  0
 59 61  1  0
 59 62  1  0
 60131  1  0
 60132  1  0
 60133  1  0
 61134  1  0
 61135  1  0
 61136  1  0
 62137  1  0
 62138  1  0
 62139  1  0
 63 65  1  0
 63140  1  0
 63141  1  0
 63142  1  0
 64143  1  0
 65144  1  0
 68 84  1  0
 71 73  2  0
 71 75  1  0
 71145  1  0
 72 74  1  0
 72 75  2  0
 72146  1  0
 73 76  1  0
 73147  1  0
 74 76  2  0
 74148  1  0
 75 82  1  0
 76 85  1  0
 77 78  2  0
 77 82  1  0
 77149  1  0
 78 79  1  0
 78 84  1  0
 79 80  1  0
 79150  1  0
 79151  1  0
 80 81  1  0
 80152  1  0
 80153  1  0
 81 82  1  0
 81154  1  0
 81155  1  0
 82 83  1  1
 83156  1  0
 83157  1  0
 83158  1  0
 84159  1  0
 84160  1  0
 85161  1  0
M  ISO  4   1 100  68 101  84 101  85 100
M  END
$$$$
27
     RDKit          3D

171179  0  0  0  0  0  0  0  0999 V2000
  -30.7652  -14.3608   20.6636 C   0  0  0  0  0  0  0  0  0100  0  0
  -30.4392  -12.2669   19.3775 C   0  0  0  0  0  0  0  0  0101  0  0
  -29.4791  -12.5281   18.1977 C   0  0  0  0  0  0  0  0  0102  0  0
  -27.9985  -12.3963   18.6038 C   0  0  0  0  0  0  0  0  0103  0  0
  -27.6639  -13.2170   19.8820 C   0  0  2  0  0  0  0  0  0104  0  0
  -28.6795  -12.9602   21.0279 C   0  0  0  0  0  0  0  0  0105  0  0
  -25.2633  -13.8245   20.5754 C   0  0  0  0  0  0  0  0  0106  0  0
  -24.1645  -13.0409   20.9408 C   0  0  0  0  0  0  0  0  0107  0  0
  -24.6400  -11.7009   20.8697 C   0  0  0  0  0  0  0  0  0108  0  0
  -23.9005  -10.4085   21.0420 C   0  0  0  0  0  0  0  0  0109  0  0
  -24.3588   -9.4123   21.9123 C   0  0  0  0  0  0  0  0  0110  0  0
  -23.6296   -8.2350   22.0803 C   0  0  0  0  0  0  0  0  0111  0  0
  -22.4385   -8.0419   21.3657 C   0  0  0  0  0  0  0  0  0112  0  0
  -22.0103   -9.0167   20.4678 C   0  0  0  0  0  0  0  0  0113  0  0
  -22.7317  -10.1925   20.3102 C   0  0  0  0  0  0  0  0  0114  0  0
  -21.6857   -6.0709   22.5391 C   0  0  0  0  0  0  0  0  0115  0  0
  -21.4064   -6.5490   23.8264 C   0  0  0  0  0  0  0  0  0116  0  0
  -21.3635   -5.6677   24.9085 C   0  0  0  0  0  0  0  0  0117  0  0
  -21.5973   -4.3067   24.7088 C   0  0  0  0  0  0  0  0  0118  0  0
  -21.8700   -3.8284   23.4282 C   0  0  0  0  0  0  0  0  0119  0  0
  -21.9144   -4.7056   22.3460 C   0  0  0  0  0  0  0  0  0120  0  0
  -22.8194  -13.5263   21.1763 C   0  0  0  0  0  0  0  0  0121  0  0
  -22.1559   -4.2206   21.1063 F   0  0  0  0  0  0  0  0  0122  0  0
  -21.5628   -3.4510   25.7555 F   0  0  0  0  0  0  0  0  0123  0  0
  -30.0261  -13.1803   20.4553 N   0  0  0  0  0  0  0  0  0124  0  0
  -26.2911  -12.9356   20.3443 N   0  0  0  0  0  0  0  0  0125  0  0
  -25.9236  -11.6675   20.5847 N   0  0  0  0  0  0  0  0  0126  0  0
  -22.0708  -12.7905   22.0005 N   0  0  0  0  0  0  0  0  0127  0  0
  -25.4117  -15.1773   20.4097 N   0  0  0  0  0  0  0  0  0128  0  0
  -31.7916  -14.6724   20.0536 O   0  0  0  0  0  0  0  0  0129  0  0
  -21.6670   -6.9022   21.4423 O   0  0  0  0  0  0  0  0  0130  0  0
  -22.3946  -14.5564   20.6568 O   0  0  0  0  0  0  0  0  0131  0  0
  -24.6048  -31.8614   23.2223 C   0  0  0  0  0  0  0  0  0100  0  0
  -25.8822  -32.4841   23.8616 C   0  0  1  0  0  0  0  0  0101  0  0
  -27.2536  -27.5042   20.1156 C   0  0  0  0  0  0  0  0  0102  0  0
  -25.5726  -33.8762   24.2210 N   0  0  0  0  0  0  0  0  0103  0  0
  -23.4066  -30.4859   21.5461 C   0  0  2  0  0  0  0  0  0104  0  0
  -24.8467  -28.9636   20.1247 C   0  0  0  0  0  0  0  0  0105  0  0
  -22.7412  -29.4652   22.5052 C   0  0  0  0  0  0  0  0  0106  0  0
  -18.0167  -28.1302   22.8626 C   0  0  0  0  0  0  0  0  0107  0  0
  -24.1342  -36.7390   23.2568 C   0  0  0  0  0  0  0  0  0108  0  0
  -25.9141  -30.8882   21.3456 C   0  0  0  0  0  0  0  0  0109  0  0
  -25.9930  -29.5029   20.7208 C   0  0  0  0  0  0  0  0  0110  0  0
  -27.1758  -28.7612   20.7331 C   0  0  0  0  0  0  0  0  0111  0  0
  -26.1032  -26.9836   19.5230 C   0  0  0  0  0  0  0  0  0112  0  0
  -24.9097  -27.7011   19.5331 C   0  0  0  0  0  0  0  0  0113  0  0
  -23.5715  -29.7899   20.1582 C   0  0  0  0  0  0  0  0  0114  0  0
  -25.3990  -36.3212   24.0232 C   0  0  1  0  0  0  0  0  0115  0  0
  -20.5793  -28.3813   23.1004 C   0  0  2  0  0  0  0  0  0116  0  0
  -20.6548  -26.9392   22.5411 C   0  0  0  0  0  0  0  0  0117  0  0
  -19.5615  -26.6407   21.5143 C   0  0  0  0  0  0  0  0  0118  0  0
  -18.1797  -26.7818   22.1673 C   0  0  0  0  0  0  0  0  0119  0  0
  -19.1385  -28.8769   23.2988 C   0  0  0  0  0  0  0  0  0120  0  0
  -18.9183  -30.1286   23.8878 C   0  0  0  0  0  0  0  0  0121  0  0
  -17.6396  -30.6493   24.0352 C   0  0  0  0  0  0  0  0  0122  0  0
  -25.9153  -34.9582   23.4993 C   0  0  0  0  0  0  0  0  0123  0  0
  -16.5415  -29.9068   23.6254 C   0  0  0  0  0  0  0  0  0124  0  0
  -16.7331  -28.6521   23.0586 C   0  0  0  0  0  0  0  0  0125  0  0
  -26.4583  -31.6439   25.0683 C   0  0  0  0  0  0  0  0  0126  0  0
  -25.3807  -31.3179   26.1374 C   0  0  0  0  0  0  0  0  0127  0  0
  -27.0530  -30.3024   24.5680 C   0  0  0  0  0  0  0  0  0128  0  0
  -27.6014  -32.4281   25.7651 C   0  0  0  0  0  0  0  0  0129  0  0
  -27.5629  -37.2220   24.8621 C   0  0  0  0  0  0  0  0  0130  0  0
  -21.4133  -29.3375   22.3735 N   0  0  0  0  0  0  0  0  0131  0  0
  -26.4706  -37.3372   23.9061 N   0  0  0  0  0  0  0  0  0132  0  0
  -24.6674  -31.0544   22.1178 N   0  0  0  0  0  0  0  0  0133  0  0
  -23.4259  -28.8150   23.2971 O   0  0  0  0  0  0  0  0  0134  0  0
  -28.3948  -26.7345   20.0089 O   0  0  0  0  0  0  0  0  0135  0  0
  -26.5870  -34.9065   22.4671 O   0  0  0  0  0  0  0  0  0136  0  0
  -23.5365  -32.1254   23.7833 O   0  0  0  0  0  0  0  0  0137  0  0
  -31.8360  -18.2914   24.3413 C   0  0  0  0  0  0  0  0  0  0  0  0
  -30.4478  -18.2789   24.2059 C   0  0  0  0  0  0  0  0  0  0  0  0
  -32.0177  -16.5893   22.6363 C   0  0  0  0  0  0  0  0  0  0  0  0
  -32.6210  -17.4466   23.5564 C   0  0  0  0  0  0  0  0  0  0  0  0
  -29.8445  -17.4215   23.2858 C   0  0  0  0  0  0  0  0  0  0  0  0
  -30.6295  -16.5767   22.5009 C   0  0  0  0  0  0  0  0  0  0  0  0
  -28.3553  -17.4288   23.1627 C   0  0  0  0  0  0  0  0  0  0  0  0
  -32.8918  -15.3673   25.8709 C   0  0  0  0  0  0  0  0  0  0  0  0
  -34.9294  -14.6702   24.6069 C   0  0  0  0  0  0  0  0  0  0  0  0
  -35.1396  -15.3786   26.9800 C   0  0  0  0  0  0  0  0  0  0  0  0
  -34.4782  -19.1977   21.8250 C   0  0  0  0  0  0  0  0  0  0  0  0
  -34.7105  -18.8457   23.3025 C   0  0  0  0  0  0  0  0  0  0  0  0
  -34.6282  -17.0990   25.1326 C   0  0  0  0  0  0  0  0  0  0  0  0
  -35.1379  -20.5173   21.4401 C   0  0  0  0  0  0  0  0  0  1  0  0
  -34.1324  -17.4611   23.7044 C   0  0  1  0  0  0  0  0  0  0  0  0
  -34.3881  -15.6546   25.6683 C   0  0  0  0  0  0  0  0  0  0  0  0
  -30.0354  -15.6993   21.5603 N   0  0  0  0  0  0  0  0  0  0  0  0
  -31.4485  -12.4701   19.0860 H   0  0  0  0  0  0  0  0  0  0  0  0
  -30.3970  -11.2460   19.6950 H   0  0  0  0  0  0  0  0  0  0  0  0
  -29.6870  -11.8204   17.4226 H   0  0  0  0  0  0  0  0  0  0  0  0
  -29.6375  -13.5326   17.8649 H   0  0  0  0  0  0  0  0  0  0  0  0
  -27.7830  -11.3650   18.7904 H   0  0  0  0  0  0  0  0  0  0  0  0
  -27.4028  -12.7801   17.8021 H   0  0  0  0  0  0  0  0  0  0  0  0
  -27.7353  -14.2503   19.6136 H   0  0  0  0  0  0  0  0  0  0  0  0
  -28.5890  -11.9550   21.3832 H   0  0  0  0  0  0  0  0  0  0  0  0
  -28.5005  -13.6134   21.8562 H   0  0  0  0  0  0  0  0  0  0  0  0
  -25.2399   -9.5495   22.4318 H   0  0  0  0  0  0  0  0  0  0  0  0
  -23.9663   -7.5070   22.7297 H   0  0  0  0  0  0  0  0  0  0  0  0
  -21.1515   -8.8641   19.9162 H   0  0  0  0  0  0  0  0  0  0  0  0
  -22.4016  -10.9115   19.6476 H   0  0  0  0  0  0  0  0  0  0  0  0
  -21.2319   -7.5552   23.9750 H   0  0  0  0  0  0  0  0  0  0  0  0
  -21.1589   -6.0228   25.8556 H   0  0  0  0  0  0  0  0  0  0  0  0
  -22.0396   -2.8212   23.2809 H   0  0  0  0  0  0  0  0  0  0  0  0
  -22.4401  -11.9703   22.4008 H   0  0  0  0  0  0  0  0  0  0  0  0
  -21.1493  -13.0679   22.2082 H   0  0  0  0  0  0  0  0  0  0  0  0
  -24.6538  -15.7807   20.5848 H   0  0  0  0  0  0  0  0  0  0  0  0
  -26.2762  -15.5453   20.1156 H   0  0  0  0  0  0  0  0  0  0  0  0
  -26.6778  -32.4663   23.1464 H   0  0  0  0  0  0  0  0  0  0  0  0
  -25.0747  -34.0282   25.0566 H   0  0  0  0  0  0  0  0  0  0  0  0
  -22.7881  -31.3489   21.4131 H   0  0  0  0  0  0  0  0  0  0  0  0
  -23.3854  -35.9823   23.3648 H   0  0  0  0  0  0  0  0  0  0  0  0
  -24.3696  -36.8624   22.2204 H   0  0  0  0  0  0  0  0  0  0  0  0
  -23.7669  -37.6632   23.6516 H   0  0  0  0  0  0  0  0  0  0  0  0
  -25.9445  -31.6237   20.5691 H   0  0  0  0  0  0  0  0  0  0  0  0
  -26.7436  -31.0079   22.0108 H   0  0  0  0  0  0  0  0  0  0  0  0
  -28.0090  -29.1452   21.2057 H   0  0  0  0  0  0  0  0  0  0  0  0
  -26.1369  -26.0560   19.0719 H   0  0  0  0  0  0  0  0  0  0  0  0
  -24.0652  -27.2961   19.0997 H   0  0  0  0  0  0  0  0  0  0  0  0
  -23.6156  -30.5365   19.3930 H   0  0  0  0  0  0  0  0  0  0  0  0
  -22.7355  -29.1425   19.9945 H   0  0  0  0  0  0  0  0  0  0  0  0
  -25.1353  -36.2335   25.0565 H   0  0  0  0  0  0  0  0  0  0  0  0
  -21.0070  -28.3206   24.0793 H   0  0  0  0  0  0  0  0  0  0  0  0
  -20.5555  -26.2518   23.3550 H   0  0  0  0  0  0  0  0  0  0  0  0
  -21.5974  -26.8362   22.0454 H   0  0  0  0  0  0  0  0  0  0  0  0
  -19.6810  -25.6422   21.1488 H   0  0  0  0  0  0  0  0  0  0  0  0
  -19.6406  -27.3343   20.7034 H   0  0  0  0  0  0  0  0  0  0  0  0
  -17.4282  -26.6888   21.4113 H   0  0  0  0  0  0  0  0  0  0  0  0
  -18.0803  -26.0130   22.9049 H   0  0  0  0  0  0  0  0  0  0  0  0
  -19.7265  -30.6774   24.2204 H   0  0  0  0  0  0  0  0  0  0  0  0
  -17.5064  -31.5856   24.4483 H   0  0  0  0  0  0  0  0  0  0  0  0
  -15.5878  -30.2839   23.7407 H   0  0  0  0  0  0  0  0  0  0  0  0
  -15.9120  -28.0941   22.7766 H   0  0  0  0  0  0  0  0  0  0  0  0
  -24.5787  -30.7757   25.6817 H   0  0  0  0  0  0  0  0  0  0  0  0
  -25.0041  -32.2289   26.5536 H   0  0  0  0  0  0  0  0  0  0  0  0
  -25.8166  -30.7245   26.9138 H   0  0  0  0  0  0  0  0  0  0  0  0
  -26.2892  -29.7335   24.0803 H   0  0  0  0  0  0  0  0  0  0  0  0
  -27.4336  -29.7484   25.4006 H   0  0  0  0  0  0  0  0  0  0  0  0
  -27.8466  -30.4994   23.8779 H   0  0  0  0  0  0  0  0  0  0  0  0
  -27.2251  -33.3632   26.1242 H   0  0  0  0  0  0  0  0  0  0  0  0
  -28.3902  -32.6065   25.0645 H   0  0  0  0  0  0  0  0  0  0  0  0
  -27.9772  -31.8555   26.5872 H   0  0  0  0  0  0  0  0  0  0  0  0
  -28.2744  -38.0016   24.6863 H   0  0  0  0  0  0  0  0  0  0  0  0
  -28.0396  -36.2711   24.7461 H   0  0  0  0  0  0  0  0  0  0  0  0
  -27.1773  -37.3087   25.8564 H   0  0  0  0  0  0  0  0  0  0  0  0
  -20.9627  -29.9365   21.7352 H   0  0  0  0  0  0  0  0  0  0  0  0
  -26.0447  -38.2561   24.0273 H   0  0  0  0  0  0  0  0  0  0  0  0
  -32.2823  -18.9256   25.0221 H   0  0  0  0  0  0  0  0  0  0  0  0
  -29.8671  -18.9040   24.7865 H   0  0  0  0  0  0  0  0  0  0  0  0
  -32.5984  -15.9643   22.0557 H   0  0  0  0  0  0  0  0  0  0  0  0
  -27.9444  -18.1415   23.8469 H   0  0  0  0  0  0  0  0  0  0  0  0
  -27.9739  -16.4553   23.3899 H   0  0  0  0  0  0  0  0  0  0  0  0
  -28.0813  -17.6949   22.1632 H   0  0  0  0  0  0  0  0  0  0  0  0
  -32.7666  -14.3701   26.2381 H   0  0  0  0  0  0  0  0  0  0  0  0
  -32.3792  -15.4707   24.9374 H   0  0  0  0  0  0  0  0  0  0  0  0
  -32.4880  -16.0611   26.5783 H   0  0  0  0  0  0  0  0  0  0  0  0
  -34.7803  -13.6655   24.9433 H   0  0  0  0  0  0  0  0  0  0  0  0
  -35.9745  -14.8452   24.4583 H   0  0  0  0  0  0  0  0  0  0  0  0
  -34.4082  -14.8184   23.6843 H   0  0  0  0  0  0  0  0  0  0  0  0
  -34.9403  -14.3776   27.3014 H   0  0  0  0  0  0  0  0  0  0  0  0
  -34.8109  -16.0664   27.7309 H   0  0  0  0  0  0  0  0  0  0  0  0
  -36.1908  -15.4996   26.8211 H   0  0  0  0  0  0  0  0  0  0  0  0
  -33.4254  -19.2741   21.6498 H   0  0  0  0  0  0  0  0  0  0  0  0
  -34.9154  -18.4241   21.2289 H   0  0  0  0  0  0  0  0  0  0  0  0
  -34.2455  -19.5960   23.9072 H   0  0  0  0  0  0  0  0  0  0  0  0
  -35.7688  -18.8027   23.4546 H   0  0  0  0  0  0  0  0  0  0  0  0
  -34.1463  -17.7704   25.8122 H   0  0  0  0  0  0  0  0  0  0  0  0
  -35.6932  -17.1751   25.0633 H   0  0  0  0  0  0  0  0  0  0  0  0
  -35.7122  -20.3904   20.5463 H   0  0  0  0  0  0  0  0  0  0  0  0
  -35.7942  -20.8488   22.2175 H   0  0  0  0  0  0  0  0  0  0  0  0
  -34.4896  -16.6990   23.0437 H   0  0  0  0  0  0  0  0  0  0  0  0
  -29.0805  -15.8572   21.3802 H   0  0  0  0  0  0  0  0  0  0  0  0
  1 25  1  0
  1 30  2  0
  1 87  1  0
  2  3  1  0
  2 25  1  0
  2 88  1  0
  2 89  1  0
  3  4  1  0
  3 90  1  0
  3 91  1  0
  4  5  1  0
  4 92  1  0
  4 93  1  0
  5  6  1  0
  5 26  1  0
  5 94  1  6
  6 25  1  0
  6 95  1  0
  6 96  1  0
  7  8  2  0
  7 26  1  0
  7 29  1  0
  8  9  1  0
  8 22  1  0
  9 10  1  0
  9 27  2  0
 10 11  2  0
 10 15  1  0
 11 12  1  0
 11 97  1  0
 12 13  2  0
 12 98  1  0
 13 14  1  0
 13 31  1  0
 14 15  2  0
 14 99  1  0
 15100  1  0
 16 17  2  0
 16 21  1  0
 16 31  1  0
 17 18  1  0
 17101  1  0
 18 19  2  0
 18102  1  0
 19 20  1  0
 19 24  1  0
 20 21  2  0
 20103  1  0
 21 23  1  0
 22 28  1  0
 22 32  2  0
 26 27  1  0
 28104  1  0
 28105  1  0
 29106  1  0
 29107  1  0
 33 34  1  0
 33 66  1  0
 33 70  2  0
 34 36  1  0
 34 59  1  0
 34108  1  6
 35 44  2  0
 35 45  1  0
 35 68  1  0
 36 56  1  0
 36109  1  0
 37 39  1  0
 37 47  1  0
 37 66  1  0
 37110  1  6
 38 43  2  0
 38 46  1  0
 38 47  1  0
 39 64  1  0
 39 67  2  0
 40 52  1  0
 40 53  2  0
 40 58  1  0
 41111  1  0
 41112  1  0
 41113  1  0
 42 43  1  0
 42 66  1  0
 42114  1  0
 42115  1  0
 43 44  1  0
 44116  1  0
 45 46  2  0
 45117  1  0
 46118  1  0
 47119  1  0
 47120  1  0
 48 41  1  0
 48 56  1  0
 48 65  1  0
 48121  1  1
 49 50  1  0
 49 53  1  0
 49 64  1  0
 49122  1  1
 50 51  1  0
 50123  1  0
 50124  1  0
 51 52  1  0
 51125  1  0
 51126  1  0
 52127  1  0
 52128  1  0
 53 54  1  0
 54 55  2  0
 54129  1  0
 55 57  1  0
 55130  1  0
 56 69  2  0
 57 58  2  0
 57131  1  0
 58132  1  0
 59 60  1  0
 59 61  1  0
 59 62  1  0
 60133  1  0
 60134  1  0
 60135  1  0
 61136  1  0
 61137  1  0
 61138  1  0
 62139  1  0
 62140  1  0
 62141  1  0
 63 65  1  0
 63142  1  0
 63143  1  0
 63144  1  0
 64145  1  0
 65146  1  0
 68 84  1  0
 71 72  2  0
 71 74  1  0
 71147  1  0
 72 75  1  0
 72148  1  0
 73 74  2  0
 73 76  1  0
 73149  1  0
 74 85  1  0
 75 76  2  0
 75 77  1  0
 76 87  1  0
 77150  1  0
 77151  1  0
 77152  1  0
 78153  1  0
 78154  1  0
 78155  1  0
 79 86  1  0
 79156  1  0
 79157  1  0
 79158  1  0
 80 86  1  0
 80159  1  0
 80160  1  0
 80161  1  0
 81 82  1  0
 81 84  1  0
 81162  1  0
 81163  1  0
 82164  1  0
 82165  1  0
 83 85  1  0
 83 86  1  0
 83166  1  0
 83167  1  0
 84168  1  0
 84169  1  0
 85 82  1  0
 85170  1  6
 86 78  1  0
 87171  1  0
M  ISO  4   1 100  68 101  84 101  87 100
M  END
$$$$
28
     RDKit          3D

169177  0  0  0  0  0  0  0  0999 V2000
  -30.7652  -14.3608   20.6636 C   0  0  0  0  0  0  0  0  0100  0  0
  -30.4392  -12.2669   19.3775 C   0  0  0  0  0  0  0  0  0101  0  0
  -29.4791  -12.5281   18.1977 C   0  0  0  0  0  0  0  0  0102  0  0
  -27.9985  -12.3963   18.6038 C   0  0  0  0  0  0  0  0  0103  0  0
  -27.6639  -13.2170   19.8820 C   0  0  2  0  0  0  0  0  0104  0  0
  -28.6795  -12.9602   21.0279 C   0  0  0  0  0  0  0  0  0105  0  0
  -25.2633  -13.8245   20.5754 C   0  0  0  0  0  0  0  0  0106  0  0
  -24.1645  -13.0409   20.9408 C   0  0  0  0  0  0  0  0  0107  0  0
  -24.6400  -11.7009   20.8697 C   0  0  0  0  0  0  0  0  0108  0  0
  -23.9005  -10.4085   21.0420 C   0  0  0  0  0  0  0  0  0109  0  0
  -24.3588   -9.4123   21.9123 C   0  0  0  0  0  0  0  0  0110  0  0
  -23.6296   -8.2350   22.0803 C   0  0  0  0  0  0  0  0  0111  0  0
  -22.4385   -8.0419   21.3657 C   0  0  0  0  0  0  0  0  0112  0  0
  -22.0103   -9.0167   20.4678 C   0  0  0  0  0  0  0  0  0113  0  0
  -22.7317  -10.1925   20.3102 C   0  0  0  0  0  0  0  0  0114  0  0
  -21.6857   -6.0709   22.5391 C   0  0  0  0  0  0  0  0  0115  0  0
  -21.4064   -6.5490   23.8264 C   0  0  0  0  0  0  0  0  0116  0  0
  -21.3635   -5.6677   24.9085 C   0  0  0  0  0  0  0  0  0117  0  0
  -21.5973   -4.3067   24.7088 C   0  0  0  0  0  0  0  0  0118  0  0
  -21.8700   -3.8284   23.4282 C   0  0  0  0  0  0  0  0  0119  0  0
  -21.9144   -4.7056   22.3460 C   0  0  0  0  0  0  0  0  0120  0  0
  -22.8194  -13.5263   21.1763 C   0  0  0  0  0  0  0  0  0121  0  0
  -22.1559   -4.2206   21.1063 F   0  0  0  0  0  0  0  0  0122  0  0
  -21.5628   -3.4510   25.7555 F   0  0  0  0  0  0  0  0  0123  0  0
  -30.0261  -13.1803   20.4553 N   0  0  0  0  0  0  0  0  0124  0  0
  -26.2911  -12.9356   20.3443 N   0  0  0  0  0  0  0  0  0125  0  0
  -25.9236  -11.6675   20.5847 N   0  0  0  0  0  0  0  0  0126  0  0
  -22.0708  -12.7905   22.0005 N   0  0  0  0  0  0  0  0  0127  0  0
  -25.4117  -15.1773   20.4097 N   0  0  0  0  0  0  0  0  0128  0  0
  -31.7916  -14.6724   20.0536 O   0  0  0  0  0  0  0  0  0129  0  0
  -21.6670   -6.9022   21.4423 O   0  0  0  0  0  0  0  0  0130  0  0
  -22.3946  -14.5564   20.6568 O   0  0  0  0  0  0  0  0  0131  0  0
  -24.6048  -31.8614   23.2223 C   0  0  0  0  0  0  0  0  0100  0  0
  -25.8822  -32.4841   23.8616 C   0  0  1  0  0  0  0  0  0101  0  0
  -27.2536  -27.5042   20.1156 C   0  0  0  0  0  0  0  0  0102  0  0
  -25.5726  -33.8762   24.2210 N   0  0  0  0  0  0  0  0  0103  0  0
  -23.4066  -30.4859   21.5461 C   0  0  2  0  0  0  0  0  0104  0  0
  -24.8467  -28.9636   20.1247 C   0  0  0  0  0  0  0  0  0105  0  0
  -22.7412  -29.4652   22.5052 C   0  0  0  0  0  0  0  0  0106  0  0
  -18.0167  -28.1302   22.8626 C   0  0  0  0  0  0  0  0  0107  0  0
  -24.1342  -36.7390   23.2568 C   0  0  0  0  0  0  0  0  0108  0  0
  -25.9141  -30.8882   21.3456 C   0  0  0  0  0  0  0  0  0109  0  0
  -25.9930  -29.5029   20.7208 C   0  0  0  0  0  0  0  0  0110  0  0
  -27.1758  -28.7612   20.7331 C   0  0  0  0  0  0  0  0  0111  0  0
  -26.1032  -26.9836   19.5230 C   0  0  0  0  0  0  0  0  0112  0  0
  -24.9097  -27.7011   19.5331 C   0  0  0  0  0  0  0  0  0113  0  0
  -23.5715  -29.7899   20.1582 C   0  0  0  0  0  0  0  0  0114  0  0
  -25.3990  -36.3212   24.0232 C   0  0  1  0  0  0  0  0  0115  0  0
  -20.5793  -28.3813   23.1004 C   0  0  2  0  0  0  0  0  0116  0  0
  -20.6548  -26.9392   22.5411 C   0  0  0  0  0  0  0  0  0117  0  0
  -19.5615  -26.6407   21.5143 C   0  0  0  0  0  0  0  0  0118  0  0
  -18.1797  -26.7818   22.1673 C   0  0  0  0  0  0  0  0  0119  0  0
  -19.1385  -28.8769   23.2988 C   0  0  0  0  0  0  0  0  0120  0  0
  -18.9183  -30.1286   23.8878 C   0  0  0  0  0  0  0  0  0121  0  0
  -17.6396  -30.6493   24.0352 C   0  0  0  0  0  0  0  0  0122  0  0
  -25.9153  -34.9582   23.4993 C   0  0  0  0  0  0  0  0  0123  0  0
  -16.5415  -29.9068   23.6254 C   0  0  0  0  0  0  0  0  0124  0  0
  -16.7331  -28.6521   23.0586 C   0  0  0  0  0  0  0  0  0125  0  0
  -26.4583  -31.6439   25.0683 C   0  0  0  0  0  0  0  0  0126  0  0
  -25.3807  -31.3179   26.1374 C   0  0  0  0  0  0  0  0  0127  0  0
  -27.0530  -30.3024   24.5680 C   0  0  0  0  0  0  0  0  0128  0  0
  -27.6014  -32.4281   25.7651 C   0  0  0  0  0  0  0  0  0129  0  0
  -27.5629  -37.2220   24.8621 C   0  0  0  0  0  0  0  0  0130  0  0
  -21.4133  -29.3375   22.3735 N   0  0  0  0  0  0  0  0  0131  0  0
  -26.4706  -37.3372   23.9061 N   0  0  0  0  0  0  0  0  0132  0  0
  -24.6674  -31.0544   22.1178 N   0  0  0  0  0  0  0  0  0133  0  0
  -23.4259  -28.8150   23.2971 O   0  0  0  0  0  0  0  0  0134  0  0
  -28.3948  -26.7345   20.0089 O   0  0  0  0  0  0  0  0  0135  0  0
  -26.5870  -34.9065   22.4671 O   0  0  0  0  0  0  0  0  0136  0  0
  -23.5365  -32.1254   23.7833 O   0  0  0  0  0  0  0  0  0137  0  0
  -28.0634  -20.7311   16.4064 C   0  0  0  0  0  0  0  0  0  0  0  0
  -28.8408  -19.5023   18.3359 C   0  0  0  0  0  0  0  0  0  0  0  0
  -27.5802  -19.5479   15.8476 C   0  0  0  0  0  0  0  0  0  0  0  0
  -27.7272  -18.3420   16.5330 C   0  0  0  0  0  0  0  0  0  0  0  0
  -28.3575  -18.3192   17.7771 C   0  0  0  0  0  0  0  0  0  0  0  0
  -28.6938  -20.7083   17.6505 C   0  0  0  0  0  0  0  0  0  0  0  0
  -28.3169  -16.2216   15.3318 C   0  0  0  0  0  0  0  0  0  0  0  0
  -24.8060  -20.2285   13.2503 C   0  0  0  0  0  0  0  0  0  0  0  0
  -28.0293  -23.5478   20.3020 C   0  0  0  0  0  0  0  0  0  0  0  0
  -26.9086  -19.6004   14.5144 C   0  0  0  0  0  0  0  0  0  0  0  0
  -27.2048  -17.0758   15.9300 C   0  0  0  0  0  0  0  0  0  0  0  0
  -25.4761  -20.1442   14.6126 C   0  0  0  0  0  0  0  0  0  0  0  0
  -27.9608  -25.4129   18.5976 C   0  0  0  0  0  0  0  0  0  1  0  0
  -28.4796  -23.0674   17.8616 C   0  0  0  0  0  0  0  0  0  0  0  0
  -28.6196  -24.0887   18.9941 C   0  0  2  0  0  0  0  0  0  0  0  0
  -28.5143  -17.1059   18.4921 N   0  0  0  0  0  0  0  0  0  0  0  0
  -29.1694  -21.8709   18.1984 O   0  0  0  0  0  0  0  0  0  0  0  0
  -31.4485  -12.4701   19.0860 H   0  0  0  0  0  0  0  0  0  0  0  0
  -30.3970  -11.2460   19.6950 H   0  0  0  0  0  0  0  0  0  0  0  0
  -29.6870  -11.8204   17.4226 H   0  0  0  0  0  0  0  0  0  0  0  0
  -29.6375  -13.5326   17.8649 H   0  0  0  0  0  0  0  0  0  0  0  0
  -27.7830  -11.3650   18.7904 H   0  0  0  0  0  0  0  0  0  0  0  0
  -27.4028  -12.7801   17.8021 H   0  0  0  0  0  0  0  0  0  0  0  0
  -27.7353  -14.2503   19.6136 H   0  0  0  0  0  0  0  0  0  0  0  0
  -28.5890  -11.9550   21.3832 H   0  0  0  0  0  0  0  0  0  0  0  0
  -28.5005  -13.6134   21.8562 H   0  0  0  0  0  0  0  0  0  0  0  0
  -25.2399   -9.5495   22.4318 H   0  0  0  0  0  0  0  0  0  0  0  0
  -23.9663   -7.5070   22.7297 H   0  0  0  0  0  0  0  0  0  0  0  0
  -21.1515   -8.8641   19.9162 H   0  0  0  0  0  0  0  0  0  0  0  0
  -22.4016  -10.9115   19.6476 H   0  0  0  0  0  0  0  0  0  0  0  0
  -21.2319   -7.5552   23.9750 H   0  0  0  0  0  0  0  0  0  0  0  0
  -21.1589   -6.0228   25.8556 H   0  0  0  0  0  0  0  0  0  0  0  0
  -22.0396   -2.8212   23.2809 H   0  0  0  0  0  0  0  0  0  0  0  0
  -22.4401  -11.9703   22.4008 H   0  0  0  0  0  0  0  0  0  0  0  0
  -21.1493  -13.0679   22.2082 H   0  0  0  0  0  0  0  0  0  0  0  0
  -24.6538  -15.7807   20.5848 H   0  0  0  0  0  0  0  0  0  0  0  0
  -26.2762  -15.5453   20.1156 H   0  0  0  0  0  0  0  0  0  0  0  0
  -26.6778  -32.4663   23.1464 H   0  0  0  0  0  0  0  0  0  0  0  0
  -25.0747  -34.0282   25.0566 H   0  0  0  0  0  0  0  0  0  0  0  0
  -22.7881  -31.3489   21.4131 H   0  0  0  0  0  0  0  0  0  0  0  0
  -23.3854  -35.9823   23.3648 H   0  0  0  0  0  0  0  0  0  0  0  0
  -24.3696  -36.8624   22.2204 H   0  0  0  0  0  0  0  0  0  0  0  0
  -23.7669  -37.6632   23.6516 H   0  0  0  0  0  0  0  0  0  0  0  0
  -25.9445  -31.6237   20.5691 H   0  0  0  0  0  0  0  0  0  0  0  0
  -26.7436  -31.0079   22.0108 H   0  0  0  0  0  0  0  0  0  0  0  0
  -28.0090  -29.1452   21.2057 H   0  0  0  0  0  0  0  0  0  0  0  0
  -26.1369  -26.0560   19.0719 H   0  0  0  0  0  0  0  0  0  0  0  0
  -24.0652  -27.2961   19.0997 H   0  0  0  0  0  0  0  0  0  0  0  0
  -23.6156  -30.5365   19.3930 H   0  0  0  0  0  0  0  0  0  0  0  0
  -22.7355  -29.1425   19.9945 H   0  0  0  0  0  0  0  0  0  0  0  0
  -25.1353  -36.2335   25.0565 H   0  0  0  0  0  0  0  0  0  0  0  0
  -21.0070  -28.3206   24.0793 H   0  0  0  0  0  0  0  0  0  0  0  0
  -20.5555  -26.2518   23.3550 H   0  0  0  0  0  0  0  0  0  0  0  0
  -21.5974  -26.8362   22.0454 H   0  0  0  0  0  0  0  0  0  0  0  0
  -19.6810  -25.6422   21.1488 H   0  0  0  0  0  0  0  0  0  0  0  0
  -19.6406  -27.3343   20.7034 H   0  0  0  0  0  0  0  0  0  0  0  0
  -17.4282  -26.6888   21.4113 H   0  0  0  0  0  0  0  0  0  0  0  0
  -18.0803  -26.0130   22.9049 H   0  0  0  0  0  0  0  0  0  0  0  0
  -19.7265  -30.6774   24.2204 H   0  0  0  0  0  0  0  0  0  0  0  0
  -17.5064  -31.5856   24.4483 H   0  0  0  0  0  0  0  0  0  0  0  0
  -15.5878  -30.2839   23.7407 H   0  0  0  0  0  0  0  0  0  0  0  0
  -15.9120  -28.0941   22.7766 H   0  0  0  0  0  0  0  0  0  0  0  0
  -24.5787  -30.7757   25.6817 H   0  0  0  0  0  0  0  0  0  0  0  0
  -25.0041  -32.2289   26.5536 H   0  0  0  0  0  0  0  0  0  0  0  0
  -25.8166  -30.7245   26.9138 H   0  0  0  0  0  0  0  0  0  0  0  0
  -26.2892  -29.7335   24.0803 H   0  0  0  0  0  0  0  0  0  0  0  0
  -27.4336  -29.7484   25.4006 H   0  0  0  0  0  0  0  0  0  0  0  0
  -27.8466  -30.4994   23.8779 H   0  0  0  0  0  0  0  0  0  0  0  0
  -27.2251  -33.3632   26.1242 H   0  0  0  0  0  0  0  0  0  0  0  0
  -28.3902  -32.6065   25.0645 H   0  0  0  0  0  0  0  0  0  0  0  0
  -27.9772  -31.8555   26.5872 H   0  0  0  0  0  0  0  0  0  0  0  0
  -28.2744  -38.0016   24.6863 H   0  0  0  0  0  0  0  0  0  0  0  0
  -28.0396  -36.2711   24.7461 H   0  0  0  0  0  0  0  0  0  0  0  0
  -27.1773  -37.3087   25.8564 H   0  0  0  0  0  0  0  0  0  0  0  0
  -20.9627  -29.9365   21.7352 H   0  0  0  0  0  0  0  0  0  0  0  0
  -26.0447  -38.2561   24.0273 H   0  0  0  0  0  0  0  0  0  0  0  0
  -27.9545  -21.6233   15.8994 H   0  0  0  0  0  0  0  0  0  0  0  0
  -29.3071  -19.4854   19.2564 H   0  0  0  0  0  0  0  0  0  0  0  0
  -27.8968  -15.3305   14.9143 H   0  0  0  0  0  0  0  0  0  0  0  0
  -29.0174  -15.9609   16.0974 H   0  0  0  0  0  0  0  0  0  0  0  0
  -28.8170  -16.7739   14.5638 H   0  0  0  0  0  0  0  0  0  0  0  0
  -23.8132  -20.6109   13.3642 H   0  0  0  0  0  0  0  0  0  0  0  0
  -24.7644  -19.2531   12.8123 H   0  0  0  0  0  0  0  0  0  0  0  0
  -25.3688  -20.8808   12.6157 H   0  0  0  0  0  0  0  0  0  0  0  0
  -28.1409  -24.2806   21.0736 H   0  0  0  0  0  0  0  0  0  0  0  0
  -28.5446  -22.6530   20.5827 H   0  0  0  0  0  0  0  0  0  0  0  0
  -26.9906  -23.3323   20.1623 H   0  0  0  0  0  0  0  0  0  0  0  0
  -26.8756  -18.6123   14.1051 H   0  0  0  0  0  0  0  0  0  0  0  0
  -27.4704  -20.2607   13.8873 H   0  0  0  0  0  0  0  0  0  0  0  0
  -26.5075  -17.3241   15.1574 H   0  0  0  0  0  0  0  0  0  0  0  0
  -26.7379  -16.5093   16.7084 H   0  0  0  0  0  0  0  0  0  0  0  0
  -24.9022  -19.4953   15.2406 H   0  0  0  0  0  0  0  0  0  0  0  0
  -25.5242  -21.1325   15.0198 H   0  0  0  0  0  0  0  0  0  0  0  0
  -26.9005  -25.2875   18.5272 H   0  0  0  0  0  0  0  0  0  0  0  0
  -28.3200  -25.7441   17.6457 H   0  0  0  0  0  0  0  0  0  0  0  0
  -28.8946  -23.4749   16.9635 H   0  0  0  0  0  0  0  0  0  0  0  0
  -27.4432  -22.8459   17.7143 H   0  0  0  0  0  0  0  0  0  0  0  0
  -29.6614  -24.2666   19.1614 H   0  0  0  0  0  0  0  0  0  0  0  0
  -27.6194  -16.6970   18.4563 H   0  0  0  0  0  0  0  0  0  0  0  0
  1 25  1  0
  1 30  2  0
  1 86  1  0
  2  3  1  0
  2 25  1  0
  2 88  1  0
  2 89  1  0
  3  4  1  0
  3 90  1  0
  3 91  1  0
  4  5  1  0
  4 92  1  0
  4 93  1  0
  5  6  1  0
  5 26  1  0
  5 94  1  6
  6 25  1  0
  6 95  1  0
  6 96  1  0
  7  8  2  0
  7 26  1  0
  7 29  1  0
  8  9  1  0
  8 22  1  0
  9 10  1  0
  9 27  2  0
 10 11  2  0
 10 15  1  0
 11 12  1  0
 11 97  1  0
 12 13  2  0
 12 98  1  0
 13 14  1  0
 13 31  1  0
 14 15  2  0
 14 99  1  0
 15100  1  0
 16 17  2  0
 16 21  1  0
 16 31  1  0
 17 18  1  0
 17101  1  0
 18 19  2  0
 18102  1  0
 19 20  1  0
 19 24  1  0
 20 21  2  0
 20103  1  0
 21 23  1  0
 22 28  1  0
 22 32  2  0
 26 27  1  0
 28104  1  0
 28105  1  0
 29106  1  0
 29107  1  0
 33 34  1  0
 33 66  1  0
 33 70  2  0
 34 36  1  0
 34 59  1  0
 34108  1  6
 35 44  2  0
 35 45  1  0
 35 68  1  0
 36 56  1  0
 36109  1  0
 37 39  1  0
 37 47  1  0
 37 66  1  0
 37110  1  6
 38 43  2  0
 38 46  1  0
 38 47  1  0
 39 64  1  0
 39 67  2  0
 40 52  1  0
 40 53  2  0
 40 58  1  0
 41111  1  0
 41112  1  0
 41113  1  0
 42 43  1  0
 42 66  1  0
 42114  1  0
 42115  1  0
 43 44  1  0
 44116  1  0
 45 46  2  0
 45117  1  0
 46118  1  0
 47119  1  0
 47120  1  0
 48 41  1  0
 48 56  1  0
 48 65  1  0
 48121  1  1
 49 50  1  0
 49 53  1  0
 49 64  1  0
 49122  1  1
 50 51  1  0
 50123  1  0
 50124  1  0
 51 52  1  0
 51125  1  0
 51126  1  0
 52127  1  0
 52128  1  0
 53 54  1  0
 54 55  2  0
 54129  1  0
 55 57  1  0
 55130  1  0
 56 69  2  0
 57 58  2  0
 57131  1  0
 58132  1  0
 59 60  1  0
 59 61  1  0
 59 62  1  0
 60133  1  0
 60134  1  0
 60135  1  0
 61136  1  0
 61137  1  0
 61138  1  0
 62139  1  0
 62140  1  0
 62141  1  0
 63 65  1  0
 63142  1  0
 63143  1  0
 63144  1  0
 64145  1  0
 65146  1  0
 68 83  1  0
 71 73  2  0
 71 76  1  0
 71147  1  0
 72 75  1  0
 72 76  2  0
 72148  1  0
 73 74  1  0
 73 80  1  0
 74 75  2  0
 74 81  1  0
 75 86  1  0
 76 87  1  0
 77 81  1  0
 77149  1  0
 77150  1  0
 77151  1  0
 78 82  1  0
 78152  1  0
 78153  1  0
 78154  1  0
 79155  1  0
 79156  1  0
 79157  1  0
 80 82  1  0
 80158  1  0
 80159  1  0
 81160  1  0
 81161  1  0
 82162  1  0
 82163  1  0
 83 85  1  0
 83164  1  0
 83165  1  0
 84 85  1  0
 84 87  1  0
 84166  1  0
 84167  1  0
 85 79  1  0
 85168  1  1
 86169  1  0
M  ISO  4   1 100  68 101  83 101  86 100
M  END
$$$$
29
     RDKit          3D

179187  0  0  0  0  0  0  0  0999 V2000
  -30.7652  -14.3608   20.6636 C   0  0  0  0  0  0  0  0  0100  0  0
  -30.4392  -12.2669   19.3775 C   0  0  0  0  0  0  0  0  0101  0  0
  -29.4791  -12.5281   18.1977 C   0  0  0  0  0  0  0  0  0102  0  0
  -27.9985  -12.3963   18.6038 C   0  0  0  0  0  0  0  0  0103  0  0
  -27.6639  -13.2170   19.8820 C   0  0  2  0  0  0  0  0  0104  0  0
  -28.6795  -12.9602   21.0279 C   0  0  0  0  0  0  0  0  0105  0  0
  -25.2633  -13.8245   20.5754 C   0  0  0  0  0  0  0  0  0106  0  0
  -24.1645  -13.0409   20.9408 C   0  0  0  0  0  0  0  0  0107  0  0
  -24.6400  -11.7009   20.8697 C   0  0  0  0  0  0  0  0  0108  0  0
  -23.9005  -10.4085   21.0420 C   0  0  0  0  0  0  0  0  0109  0  0
  -24.3588   -9.4123   21.9123 C   0  0  0  0  0  0  0  0  0110  0  0
  -23.6296   -8.2350   22.0803 C   0  0  0  0  0  0  0  0  0111  0  0
  -22.4385   -8.0419   21.3657 C   0  0  0  0  0  0  0  0  0112  0  0
  -22.0103   -9.0167   20.4678 C   0  0  0  0  0  0  0  0  0113  0  0
  -22.7317  -10.1925   20.3102 C   0  0  0  0  0  0  0  0  0114  0  0
  -21.6857   -6.0709   22.5391 C   0  0  0  0  0  0  0  0  0115  0  0
  -21.4064   -6.5490   23.8264 C   0  0  0  0  0  0  0  0  0116  0  0
  -21.3635   -5.6677   24.9085 C   0  0  0  0  0  0  0  0  0117  0  0
  -21.5973   -4.3067   24.7088 C   0  0  0  0  0  0  0  0  0118  0  0
  -21.8700   -3.8284   23.4282 C   0  0  0  0  0  0  0  0  0119  0  0
  -21.9144   -4.7056   22.3460 C   0  0  0  0  0  0  0  0  0120  0  0
  -22.8194  -13.5263   21.1763 C   0  0  0  0  0  0  0  0  0121  0  0
  -22.1559   -4.2206   21.1063 F   0  0  0  0  0  0  0  0  0122  0  0
  -21.5628   -3.4510   25.7555 F   0  0  0  0  0  0  0  0  0123  0  0
  -30.0261  -13.1803   20.4553 N   0  0  0  0  0  0  0  0  0124  0  0
  -26.2911  -12.9356   20.3443 N   0  0  0  0  0  0  0  0  0125  0  0
  -25.9236  -11.6675   20.5847 N   0  0  0  0  0  0  0  0  0126  0  0
  -22.0708  -12.7905   22.0005 N   0  0  0  0  0  0  0  0  0127  0  0
  -25.4117  -15.1773   20.4097 N   0  0  0  0  0  0  0  0  0128  0  0
  -31.7916  -14.6724   20.0536 O   0  0  0  0  0  0  0  0  0129  0  0
  -21.6670   -6.9022   21.4423 O   0  0  0  0  0  0  0  0  0130  0  0
  -22.3946  -14.5564   20.6568 O   0  0  0  0  0  0  0  0  0131  0  0
  -24.6048  -31.8614   23.2223 C   0  0  0  0  0  0  0  0  0100  0  0
  -25.8822  -32.4841   23.8616 C   0  0  1  0  0  0  0  0  0101  0  0
  -27.2536  -27.5042   20.1156 C   0  0  0  0  0  0  0  0  0102  0  0
  -25.5726  -33.8762   24.2210 N   0  0  0  0  0  0  0  0  0103  0  0
  -23.4066  -30.4859   21.5461 C   0  0  2  0  0  0  0  0  0104  0  0
  -24.8467  -28.9636   20.1247 C   0  0  0  0  0  0  0  0  0105  0  0
  -22.7412  -29.4652   22.5052 C   0  0  0  0  0  0  0  0  0106  0  0
  -18.0167  -28.1302   22.8626 C   0  0  0  0  0  0  0  0  0107  0  0
  -24.1342  -36.7390   23.2568 C   0  0  0  0  0  0  0  0  0108  0  0
  -25.9141  -30.8882   21.3456 C   0  0  0  0  0  0  0  0  0109  0  0
  -25.9930  -29.5029   20.7208 C   0  0  0  0  0  0  0  0  0110  0  0
  -27.1758  -28.7612   20.7331 C   0  0  0  0  0  0  0  0  0111  0  0
  -26.1032  -26.9836   19.5230 C   0  0  0  0  0  0  0  0  0112  0  0
  -24.9097  -27.7011   19.5331 C   0  0  0  0  0  0  0  0  0113  0  0
  -23.5715  -29.7899   20.1582 C   0  0  0  0  0  0  0  0  0114  0  0
  -25.3990  -36.3212   24.0232 C   0  0  1  0  0  0  0  0  0115  0  0
  -20.5793  -28.3813   23.1004 C   0  0  2  0  0  0  0  0  0116  0  0
  -20.6548  -26.9392   22.5411 C   0  0  0  0  0  0  0  0  0117  0  0
  -19.5615  -26.6407   21.5143 C   0  0  0  0  0  0  0  0  0118  0  0
  -18.1797  -26.7818   22.1673 C   0  0  0  0  0  0  0  0  0119  0  0
  -19.1385  -28.8769   23.2988 C   0  0  0  0  0  0  0  0  0120  0  0
  -18.9183  -30.1286   23.8878 C   0  0  0  0  0  0  0  0  0121  0  0
  -17.6396  -30.6493   24.0352 C   0  0  0  0  0  0  0  0  0122  0  0
  -25.9153  -34.9582   23.4993 C   0  0  0  0  0  0  0  0  0123  0  0
  -16.5415  -29.9068   23.6254 C   0  0  0  0  0  0  0  0  0124  0  0
  -16.7331  -28.6521   23.0586 C   0  0  0  0  0  0  0  0  0125  0  0
  -26.4583  -31.6439   25.0683 C   0  0  0  0  0  0  0  0  0126  0  0
  -25.3807  -31.3179   26.1374 C   0  0  0  0  0  0  0  0  0127  0  0
  -27.0530  -30.3024   24.5680 C   0  0  0  0  0  0  0  0  0128  0  0
  -27.6014  -32.4281   25.7651 C   0  0  0  0  0  0  0  0  0129  0  0
  -27.5629  -37.2220   24.8621 C   0  0  0  0  0  0  0  0  0130  0  0
  -21.4133  -29.3375   22.3735 N   0  0  0  0  0  0  0  0  0131  0  0
  -26.4706  -37.3372   23.9061 N   0  0  0  0  0  0  0  0  0132  0  0
  -24.6674  -31.0544   22.1178 N   0  0  0  0  0  0  0  0  0133  0  0
  -23.4259  -28.8150   23.2971 O   0  0  0  0  0  0  0  0  0134  0  0
  -28.3948  -26.7345   20.0089 O   0  0  0  0  0  0  0  0  0135  0  0
  -26.5870  -34.9065   22.4671 O   0  0  0  0  0  0  0  0  0136  0  0
  -23.5365  -32.1254   23.7833 O   0  0  0  0  0  0  0  0  0137  0  0
  -29.1319  -16.8877   20.5038 C   0  0  0  0  0  0  0  0  0  0  0  0
  -28.2191  -17.8384   22.5287 C   0  0  0  0  0  0  0  0  0  0  0  0
  -27.4830  -18.6488   20.3750 C   0  0  0  0  0  0  0  0  0  0  0  0
  -28.3369  -17.7449   19.7430 C   0  0  0  0  0  0  0  0  0  0  0  0
  -29.0730  -16.9344   21.8967 C   0  0  0  0  0  0  0  0  0  0  0  0
  -27.4241  -18.6956   21.7679 C   0  0  0  0  0  0  0  0  0  0  0  0
  -26.6502  -19.5493   19.5851 C   0  0  0  0  0  0  0  0  0  0  0  0
  -24.9880  -21.4768   23.8830 C   0  0  0  0  0  0  0  0  0  0  0  0
  -28.4206  -17.6717   18.2531 C   0  0  0  0  0  0  0  0  0  0  0  0
  -25.2850  -19.0649   19.1999 C   0  0  0  0  0  0  0  0  0  0  0  0
  -24.0679  -19.0490   25.4549 C   0  0  0  0  0  0  0  0  0  0  0  0
  -24.4694  -22.8963   25.8433 C   0  0  0  0  0  0  0  0  0  0  0  0
  -31.2785  -15.8418   22.2608 C   0  0  0  0  0  0  0  0  0  0  0  0
  -23.7482  -20.4814   25.8630 C   0  0  0  0  0  0  0  0  0  0  0  0
  -26.3100  -22.5171   21.9831 C   0  0  0  0  0  0  0  0  0  0  0  0
  -25.5962  -23.8644   22.0622 C   0  0  0  0  0  0  0  0  0  1  0  0
  -27.2059  -20.5197   23.2780 C   0  0  0  0  0  0  0  0  0  0  0  0
  -24.8222  -21.4778   25.4031 C   0  0  1  0  0  0  0  0  0  0  0  0
  -26.3825  -21.8096   23.3445 C   0  0  2  0  0  0  0  0  0  0  0  0
  -29.8948  -16.0473   22.6831 N   0  0  0  0  0  0  0  0  0  0  0  0
  -26.9890  -20.6710   19.2103 O   0  0  0  0  0  0  0  0  0  0  0  0
  -24.0458  -21.2246   23.1310 O   0  0  0  0  0  0  0  0  0  0  0  0
  -26.5926  -19.5761   22.4089 O   0  0  0  0  0  0  0  0  0  0  0  0
  -31.4485  -12.4701   19.0860 H   0  0  0  0  0  0  0  0  0  0  0  0
  -30.3970  -11.2460   19.6950 H   0  0  0  0  0  0  0  0  0  0  0  0
  -29.6870  -11.8204   17.4226 H   0  0  0  0  0  0  0  0  0  0  0  0
  -29.6375  -13.5326   17.8649 H   0  0  0  0  0  0  0  0  0  0  0  0
  -27.7830  -11.3650   18.7904 H   0  0  0  0  0  0  0  0  0  0  0  0
  -27.4028  -12.7801   17.8021 H   0  0  0  0  0  0  0  0  0  0  0  0
  -27.7353  -14.2503   19.6136 H   0  0  0  0  0  0  0  0  0  0  0  0
  -28.5890  -11.9550   21.3832 H   0  0  0  0  0  0  0  0  0  0  0  0
  -28.5005  -13.6134   21.8562 H   0  0  0  0  0  0  0  0  0  0  0  0
  -25.2399   -9.5495   22.4318 H   0  0  0  0  0  0  0  0  0  0  0  0
  -23.9663   -7.5070   22.7297 H   0  0  0  0  0  0  0  0  0  0  0  0
  -21.1515   -8.8641   19.9162 H   0  0  0  0  0  0  0  0  0  0  0  0
  -22.4016  -10.9115   19.6476 H   0  0  0  0  0  0  0  0  0  0  0  0
  -21.2319   -7.5552   23.9750 H   0  0  0  0  0  0  0  0  0  0  0  0
  -21.1589   -6.0228   25.8556 H   0  0  0  0  0  0  0  0  0  0  0  0
  -22.0396   -2.8212   23.2809 H   0  0  0  0  0  0  0  0  0  0  0  0
  -22.4401  -11.9703   22.4008 H   0  0  0  0  0  0  0  0  0  0  0  0
  -21.1493  -13.0679   22.2082 H   0  0  0  0  0  0  0  0  0  0  0  0
  -24.6538  -15.7807   20.5848 H   0  0  0  0  0  0  0  0  0  0  0  0
  -26.2762  -15.5453   20.1156 H   0  0  0  0  0  0  0  0  0  0  0  0
  -26.6778  -32.4663   23.1464 H   0  0  0  0  0  0  0  0  0  0  0  0
  -25.0747  -34.0282   25.0566 H   0  0  0  0  0  0  0  0  0  0  0  0
  -22.7881  -31.3489   21.4131 H   0  0  0  0  0  0  0  0  0  0  0  0
  -23.3854  -35.9823   23.3648 H   0  0  0  0  0  0  0  0  0  0  0  0
  -24.3696  -36.8624   22.2204 H   0  0  0  0  0  0  0  0  0  0  0  0
  -23.7669  -37.6632   23.6516 H   0  0  0  0  0  0  0  0  0  0  0  0
  -25.9445  -31.6237   20.5691 H   0  0  0  0  0  0  0  0  0  0  0  0
  -26.7436  -31.0079   22.0108 H   0  0  0  0  0  0  0  0  0  0  0  0
  -28.0090  -29.1452   21.2057 H   0  0  0  0  0  0  0  0  0  0  0  0
  -26.1369  -26.0560   19.0719 H   0  0  0  0  0  0  0  0  0  0  0  0
  -24.0652  -27.2961   19.0997 H   0  0  0  0  0  0  0  0  0  0  0  0
  -23.6156  -30.5365   19.3930 H   0  0  0  0  0  0  0  0  0  0  0  0
  -22.7355  -29.1425   19.9945 H   0  0  0  0  0  0  0  0  0  0  0  0
  -25.1353  -36.2335   25.0565 H   0  0  0  0  0  0  0  0  0  0  0  0
  -21.0070  -28.3206   24.0793 H   0  0  0  0  0  0  0  0  0  0  0  0
  -20.5555  -26.2518   23.3550 H   0  0  0  0  0  0  0  0  0  0  0  0
  -21.5974  -26.8362   22.0454 H   0  0  0  0  0  0  0  0  0  0  0  0
  -19.6810  -25.6422   21.1488 H   0  0  0  0  0  0  0  0  0  0  0  0
  -19.6406  -27.3343   20.7034 H   0  0  0  0  0  0  0  0  0  0  0  0
  -17.4282  -26.6888   21.4113 H   0  0  0  0  0  0  0  0  0  0  0  0
  -18.0803  -26.0130   22.9049 H   0  0  0  0  0  0  0  0  0  0  0  0
  -19.7265  -30.6774   24.2204 H   0  0  0  0  0  0  0  0  0  0  0  0
  -17.5064  -31.5856   24.4483 H   0  0  0  0  0  0  0  0  0  0  0  0
  -15.5878  -30.2839   23.7407 H   0  0  0  0  0  0  0  0  0  0  0  0
  -15.9120  -28.0941   22.7766 H   0  0  0  0  0  0  0  0  0  0  0  0
  -24.5787  -30.7757   25.6817 H   0  0  0  0  0  0  0  0  0  0  0  0
  -25.0041  -32.2289   26.5536 H   0  0  0  0  0  0  0  0  0  0  0  0
  -25.8166  -30.7245   26.9138 H   0  0  0  0  0  0  0  0  0  0  0  0
  -26.2892  -29.7335   24.0803 H   0  0  0  0  0  0  0  0  0  0  0  0
  -27.4336  -29.7484   25.4006 H   0  0  0  0  0  0  0  0  0  0  0  0
  -27.8466  -30.4994   23.8779 H   0  0  0  0  0  0  0  0  0  0  0  0
  -27.2251  -33.3632   26.1242 H   0  0  0  0  0  0  0  0  0  0  0  0
  -28.3902  -32.6065   25.0645 H   0  0  0  0  0  0  0  0  0  0  0  0
  -27.9772  -31.8555   26.5872 H   0  0  0  0  0  0  0  0  0  0  0  0
  -28.2744  -38.0016   24.6863 H   0  0  0  0  0  0  0  0  0  0  0  0
  -28.0396  -36.2711   24.7461 H   0  0  0  0  0  0  0  0  0  0  0  0
  -27.1773  -37.3087   25.8564 H   0  0  0  0  0  0  0  0  0  0  0  0
  -20.9627  -29.9365   21.7352 H   0  0  0  0  0  0  0  0  0  0  0  0
  -26.0447  -38.2561   24.0273 H   0  0  0  0  0  0  0  0  0  0  0  0
  -29.7637  -16.2189   20.0362 H   0  0  0  0  0  0  0  0  0  0  0  0
  -28.1755  -17.8730   23.5592 H   0  0  0  0  0  0  0  0  0  0  0  0
  -29.1283  -16.9199   17.9721 H   0  0  0  0  0  0  0  0  0  0  0  0
  -28.7340  -18.6189   17.8665 H   0  0  0  0  0  0  0  0  0  0  0  0
  -27.4594  -17.4238   17.8536 H   0  0  0  0  0  0  0  0  0  0  0  0
  -25.1314  -18.0816   19.5928 H   0  0  0  0  0  0  0  0  0  0  0  0
  -25.2033  -19.0396   18.1333 H   0  0  0  0  0  0  0  0  0  0  0  0
  -24.5457  -19.7278   19.5986 H   0  0  0  0  0  0  0  0  0  0  0  0
  -23.2910  -18.3984   25.7986 H   0  0  0  0  0  0  0  0  0  0  0  0
  -24.9994  -18.7535   25.8906 H   0  0  0  0  0  0  0  0  0  0  0  0
  -24.1378  -18.9890   24.3889 H   0  0  0  0  0  0  0  0  0  0  0  0
  -25.2302  -23.5720   25.5125 H   0  0  0  0  0  0  0  0  0  0  0  0
  -24.4003  -22.9318   26.9105 H   0  0  0  0  0  0  0  0  0  0  0  0
  -23.5304  -23.1794   25.4155 H   0  0  0  0  0  0  0  0  0  0  0  0
  -31.9271  -16.4498   22.8561 H   0  0  0  0  0  0  0  0  0  0  0  0
  -31.3811  -16.1131   21.2309 H   0  0  0  0  0  0  0  0  0  0  0  0
  -31.5405  -14.8120   22.3861 H   0  0  0  0  0  0  0  0  0  0  0  0
  -23.6733  -20.5257   26.9295 H   0  0  0  0  0  0  0  0  0  0  0  0
  -22.8274  -20.7557   25.3920 H   0  0  0  0  0  0  0  0  0  0  0  0
  -27.3059  -22.6767   21.6258 H   0  0  0  0  0  0  0  0  0  0  0  0
  -25.7502  -21.8908   21.3204 H   0  0  0  0  0  0  0  0  0  0  0  0
  -25.4402  -24.1511   23.0812 H   0  0  0  0  0  0  0  0  0  0  0  0
  -24.6286  -23.8411   21.6060 H   0  0  0  0  0  0  0  0  0  0  0  0
  -27.2785  -20.0984   24.2589 H   0  0  0  0  0  0  0  0  0  0  0  0
  -28.1798  -20.7524   22.9009 H   0  0  0  0  0  0  0  0  0  0  0  0
  -25.7398  -21.1657   25.8565 H   0  0  0  0  0  0  0  0  0  0  0  0
  -26.8647  -22.4968   24.0079 H   0  0  0  0  0  0  0  0  0  0  0  0
  1 25  1  0
  1 30  2  0
  1 90  1  0
  2  3  1  0
  2 25  1  0
  2 94  1  0
  2 95  1  0
  3  4  1  0
  3 96  1  0
  3 97  1  0
  4  5  1  0
  4 98  1  0
  4 99  1  0
  5  6  1  0
  5 26  1  0
  5100  1  6
  6 25  1  0
  6101  1  0
  6102  1  0
  7  8  2  0
  7 26  1  0
  7 29  1  0
  8  9  1  0
  8 22  1  0
  9 10  1  0
  9 27  2  0
 10 11  2  0
 10 15  1  0
 11 12  1  0
 11103  1  0
 12 13  2  0
 12104  1  0
 13 14  1  0
 13 31  1  0
 14 15  2  0
 14105  1  0
 15106  1  0
 16 17  2  0
 16 21  1  0
 16 31  1  0
 17 18  1  0
 17107  1  0
 18 19  2  0
 18108  1  0
 19 20  1  0
 19 24  1  0
 20 21  2  0
 20109  1  0
 21 23  1  0
 22 28  1  0
 22 32  2  0
 26 27  1  0
 28110  1  0
 28111  1  0
 29112  1  0
 29113  1  0
 33 34  1  0
 33 66  1  0
 33 70  2  0
 34 36  1  0
 34 59  1  0
 34114  1  6
 35 44  2  0
 35 45  1  0
 35 68  1  0
 36 56  1  0
 36115  1  0
 37 39  1  0
 37 47  1  0
 37 66  1  0
 37116  1  6
 38 43  2  0
 38 46  1  0
 38 47  1  0
 39 64  1  0
 39 67  2  0
 40 52  1  0
 40 53  2  0
 40 58  1  0
 41117  1  0
 41118  1  0
 41119  1  0
 42 43  1  0
 42 66  1  0
 42120  1  0
 42121  1  0
 43 44  1  0
 44122  1  0
 45 46  2  0
 45123  1  0
 46124  1  0
 47125  1  0
 47126  1  0
 48 41  1  0
 48 56  1  0
 48 65  1  0
 48127  1  1
 49 50  1  0
 49 53  1  0
 49 64  1  0
 49128  1  1
 50 51  1  0
 50129  1  0
 50130  1  0
 51 52  1  0
 51131  1  0
 51132  1  0
 52133  1  0
 52134  1  0
 53 54  1  0
 54 55  2  0
 54135  1  0
 55 57  1  0
 55136  1  0
 56 69  2  0
 57 58  2  0
 57137  1  0
 58138  1  0
 59 60  1  0
 59 61  1  0
 59 62  1  0
 60139  1  0
 60140  1  0
 60141  1  0
 61142  1  0
 61143  1  0
 61144  1  0
 62145  1  0
 62146  1  0
 62147  1  0
 63 65  1  0
 63148  1  0
 63149  1  0
 63150  1  0
 64151  1  0
 65152  1  0
 68 86  1  0
 71 74  2  0
 71 75  1  0
 71153  1  0
 72 75  2  0
 72 76  1  0
 72154  1  0
 73 74  1  0
 73 76  2  0
 73 77  1  0
 74 79  1  0
 75 90  1  0
 76 93  1  0
 77 80  1  0
 77 91  2  0
 78 88  1  0
 78 89  1  0
 78 92  2  0
 79155  1  0
 79156  1  0
 79157  1  0
 80158  1  0
 80159  1  0
 80160  1  0
 81 84  1  0
 81161  1  0
 81162  1  0
 81163  1  0
 82164  1  0
 82165  1  0
 82166  1  0
 83 90  1  0
 83167  1  0
 83168  1  0
 83169  1  0
 84 88  1  0
 84170  1  0
 84171  1  0
 85 86  1  0
 85172  1  0
 85173  1  0
 86174  1  0
 86175  1  0
 87 89  1  0
 87 93  1  0
 87176  1  0
 87177  1  0
 88 82  1  0
 88178  1  1
 89 85  1  0
 89179  1  1
M  ISO  4   1 100  68 101  86 101  90 100
M  END
$$$$
30
     RDKit          3D

168176  0  0  0  0  0  0  0  0999 V2000
  -30.7652  -14.3608   20.6636 C   0  0  0  0  0  0  0  0  0100  0  0
  -30.4392  -12.2669   19.3775 C   0  0  0  0  0  0  0  0  0101  0  0
  -29.4791  -12.5281   18.1977 C   0  0  0  0  0  0  0  0  0102  0  0
  -27.9985  -12.3963   18.6038 C   0  0  0  0  0  0  0  0  0103  0  0
  -27.6639  -13.2170   19.8820 C   0  0  2  0  0  0  0  0  0104  0  0
  -28.6795  -12.9602   21.0279 C   0  0  0  0  0  0  0  0  0105  0  0
  -25.2633  -13.8245   20.5754 C   0  0  0  0  0  0  0  0  0106  0  0
  -24.1645  -13.0409   20.9408 C   0  0  0  0  0  0  0  0  0107  0  0
  -24.6400  -11.7009   20.8697 C   0  0  0  0  0  0  0  0  0108  0  0
  -23.9005  -10.4085   21.0420 C   0  0  0  0  0  0  0  0  0109  0  0
  -24.3588   -9.4123   21.9123 C   0  0  0  0  0  0  0  0  0110  0  0
  -23.6296   -8.2350   22.0803 C   0  0  0  0  0  0  0  0  0111  0  0
  -22.4385   -8.0419   21.3657 C   0  0  0  0  0  0  0  0  0112  0  0
  -22.0103   -9.0167   20.4678 C   0  0  0  0  0  0  0  0  0113  0  0
  -22.7317  -10.1925   20.3102 C   0  0  0  0  0  0  0  0  0114  0  0
  -21.6857   -6.0709   22.5391 C   0  0  0  0  0  0  0  0  0115  0  0
  -21.4064   -6.5490   23.8264 C   0  0  0  0  0  0  0  0  0116  0  0
  -21.3635   -5.6677   24.9085 C   0  0  0  0  0  0  0  0  0117  0  0
  -21.5973   -4.3067   24.7088 C   0  0  0  0  0  0  0  0  0118  0  0
  -21.8700   -3.8284   23.4282 C   0  0  0  0  0  0  0  0  0119  0  0
  -21.9144   -4.7056   22.3460 C   0  0  0  0  0  0  0  0  0120  0  0
  -22.8194  -13.5263   21.1763 C   0  0  0  0  0  0  0  0  0121  0  0
  -22.1559   -4.2206   21.1063 F   0  0  0  0  0  0  0  0  0122  0  0
  -21.5628   -3.4510   25.7555 F   0  0  0  0  0  0  0  0  0123  0  0
  -30.0261  -13.1803   20.4553 N   0  0  0  0  0  0  0  0  0124  0  0
  -26.2911  -12.9356   20.3443 N   0  0  0  0  0  0  0  0  0125  0  0
  -25.9236  -11.6675   20.5847 N   0  0  0  0  0  0  0  0  0126  0  0
  -22.0708  -12.7905   22.0005 N   0  0  0  0  0  0  0  0  0127  0  0
  -25.4117  -15.1773   20.4097 N   0  0  0  0  0  0  0  0  0128  0  0
  -31.7916  -14.6724   20.0536 O   0  0  0  0  0  0  0  0  0129  0  0
  -21.6670   -6.9022   21.4423 O   0  0  0  0  0  0  0  0  0130  0  0
  -22.3946  -14.5564   20.6568 O   0  0  0  0  0  0  0  0  0131  0  0
  -24.6048  -31.8614   23.2223 C   0  0  0  0  0  0  0  0  0100  0  0
  -25.8822  -32.4841   23.8616 C   0  0  1  0  0  0  0  0  0101  0  0
  -27.2536  -27.5042   20.1156 C   0  0  0  0  0  0  0  0  0102  0  0
  -25.5726  -33.8762   24.2210 N   0  0  0  0  0  0  0  0  0103  0  0
  -23.4066  -30.4859   21.5461 C   0  0  2  0  0  0  0  0  0104  0  0
  -24.8467  -28.9636   20.1247 C   0  0  0  0  0  0  0  0  0105  0  0
  -22.7412  -29.4652   22.5052 C   0  0  0  0  0  0  0  0  0106  0  0
  -18.0167  -28.1302   22.8626 C   0  0  0  0  0  0  0  0  0107  0  0
  -24.1342  -36.7390   23.2568 C   0  0  0  0  0  0  0  0  0108  0  0
  -25.9141  -30.8882   21.3456 C   0  0  0  0  0  0  0  0  0109  0  0
  -25.9930  -29.5029   20.7208 C   0  0  0  0  0  0  0  0  0110  0  0
  -27.1758  -28.7612   20.7331 C   0  0  0  0  0  0  0  0  0111  0  0
  -26.1032  -26.9836   19.5230 C   0  0  0  0  0  0  0  0  0112  0  0
  -24.9097  -27.7011   19.5331 C   0  0  0  0  0  0  0  0  0113  0  0
  -23.5715  -29.7899   20.1582 C   0  0  0  0  0  0  0  0  0114  0  0
  -25.3990  -36.3212   24.0232 C   0  0  1  0  0  0  0  0  0115  0  0
  -20.5793  -28.3813   23.1004 C   0  0  2  0  0  0  0  0  0116  0  0
  -20.6548  -26.9392   22.5411 C   0  0  0  0  0  0  0  0  0117  0  0
  -19.5615  -26.6407   21.5143 C   0  0  0  0  0  0  0  0  0118  0  0
  -18.1797  -26.7818   22.1673 C   0  0  0  0  0  0  0  0  0119  0  0
  -19.1385  -28.8769   23.2988 C   0  0  0  0  0  0  0  0  0120  0  0
  -18.9183  -30.1286   23.8878 C   0  0  0  0  0  0  0  0  0121  0  0
  -17.6396  -30.6493   24.0352 C   0  0  0  0  0  0  0  0  0122  0  0
  -25.9153  -34.9582   23.4993 C   0  0  0  0  0  0  0  0  0123  0  0
  -16.5415  -29.9068   23.6254 C   0  0  0  0  0  0  0  0  0124  0  0
  -16.7331  -28.6521   23.0586 C   0  0  0  0  0  0  0  0  0125  0  0
  -26.4583  -31.6439   25.0683 C   0  0  0  0  0  0  0  0  0126  0  0
  -25.3807  -31.3179   26.1374 C   0  0  0  0  0  0  0  0  0127  0  0
  -27.0530  -30.3024   24.5680 C   0  0  0  0  0  0  0  0  0128  0  0
  -27.6014  -32.4281   25.7651 C   0  0  0  0  0  0  0  0  0129  0  0
  -27.5629  -37.2220   24.8621 C   0  0  0  0  0  0  0  0  0130  0  0
  -21.4133  -29.3375   22.3735 N   0  0  0  0  0  0  0  0  0131  0  0
  -26.4706  -37.3372   23.9061 N   0  0  0  0  0  0  0  0  0132  0  0
  -24.6674  -31.0544   22.1178 N   0  0  0  0  0  0  0  0  0133  0  0
  -23.4259  -28.8150   23.2971 O   0  0  0  0  0  0  0  0  0134  0  0
  -28.3948  -26.7345   20.0089 O   0  0  0  0  0  0  0  0  0135  0  0
  -26.5870  -34.9065   22.4671 O   0  0  0  0  0  0  0  0  0136  0  0
  -23.5365  -32.1254   23.7833 O   0  0  0  0  0  0  0  0  0137  0  0
  -27.6713  -21.3048   19.8379 C   0  0  0  0  0  0  0  0  0  0  0  0
  -26.4239  -20.7075   19.6574 C   0  0  0  0  0  0  0  0  0  0  0  0
  -27.9179  -20.1527   21.9471 C   0  0  0  0  0  0  0  0  0  0  0  0
  -28.4184  -21.0274   20.9827 C   0  0  0  0  0  0  0  0  0  0  0  0
  -26.6704  -19.5553   21.7667 C   0  0  0  0  0  0  0  0  0  0  0  0
  -25.9234  -19.8327   20.6218 C   0  0  0  0  0  0  0  0  0  0  0  0
  -26.1578  -18.6247   22.8176 C   0  0  0  0  0  0  0  0  0  0  0  0
  -28.7694  -25.8480   17.7360 C   0  0  0  0  0  0  0  0  0  0  0  0
  -31.2698  -23.5079   22.0026 C   0  0  0  0  0  0  0  0  0  0  0  0
  -29.2887  -22.8884   23.3727 C   0  0  0  0  0  0  0  0  0  0  0  0
  -29.7696  -21.6769   21.1794 C   0  0  0  0  0  0  0  0  0  0  0  0
  -29.3166  -24.4772   19.7810 C   0  0  0  0  0  0  0  0  0  0  0  0
  -28.9338  -24.1409   21.2315 C   0  0  0  0  0  0  0  0  0  0  0  0
  -28.3816  -25.5299   19.1739 C   0  0  1  0  0  0  0  0  0  1  0  0
  -29.7975  -23.0473   21.9230 C   0  0  0  0  0  0  0  0  0  0  0  0
  -24.6541  -19.2361   20.4200 N   0  0  0  0  0  0  0  0  0  0  0  0
  -31.4485  -12.4701   19.0860 H   0  0  0  0  0  0  0  0  0  0  0  0
  -30.3970  -11.2460   19.6950 H   0  0  0  0  0  0  0  0  0  0  0  0
  -29.6870  -11.8204   17.4226 H   0  0  0  0  0  0  0  0  0  0  0  0
  -29.6375  -13.5326   17.8649 H   0  0  0  0  0  0  0  0  0  0  0  0
  -27.7830  -11.3650   18.7904 H   0  0  0  0  0  0  0  0  0  0  0  0
  -27.4028  -12.7801   17.8021 H   0  0  0  0  0  0  0  0  0  0  0  0
  -27.7353  -14.2503   19.6136 H   0  0  0  0  0  0  0  0  0  0  0  0
  -28.5890  -11.9550   21.3832 H   0  0  0  0  0  0  0  0  0  0  0  0
  -28.5005  -13.6134   21.8562 H   0  0  0  0  0  0  0  0  0  0  0  0
  -25.2399   -9.5495   22.4318 H   0  0  0  0  0  0  0  0  0  0  0  0
  -23.9663   -7.5070   22.7297 H   0  0  0  0  0  0  0  0  0  0  0  0
  -21.1515   -8.8641   19.9162 H   0  0  0  0  0  0  0  0  0  0  0  0
  -22.4016  -10.9115   19.6476 H   0  0  0  0  0  0  0  0  0  0  0  0
  -21.2319   -7.5552   23.9750 H   0  0  0  0  0  0  0  0  0  0  0  0
  -21.1589   -6.0228   25.8556 H   0  0  0  0  0  0  0  0  0  0  0  0
  -22.0396   -2.8212   23.2809 H   0  0  0  0  0  0  0  0  0  0  0  0
  -22.4401  -11.9703   22.4008 H   0  0  0  0  0  0  0  0  0  0  0  0
  -21.1493  -13.0679   22.2082 H   0  0  0  0  0  0  0  0  0  0  0  0
  -24.6538  -15.7807   20.5848 H   0  0  0  0  0  0  0  0  0  0  0  0
  -26.2762  -15.5453   20.1156 H   0  0  0  0  0  0  0  0  0  0  0  0
  -26.6778  -32.4663   23.1464 H   0  0  0  0  0  0  0  0  0  0  0  0
  -25.0747  -34.0282   25.0566 H   0  0  0  0  0  0  0  0  0  0  0  0
  -22.7881  -31.3489   21.4131 H   0  0  0  0  0  0  0  0  0  0  0  0
  -23.3854  -35.9823   23.3648 H   0  0  0  0  0  0  0  0  0  0  0  0
  -24.3696  -36.8624   22.2204 H   0  0  0  0  0  0  0  0  0  0  0  0
  -23.7669  -37.6632   23.6516 H   0  0  0  0  0  0  0  0  0  0  0  0
  -25.9445  -31.6237   20.5691 H   0  0  0  0  0  0  0  0  0  0  0  0
  -26.7436  -31.0079   22.0108 H   0  0  0  0  0  0  0  0  0  0  0  0
  -28.0090  -29.1452   21.2057 H   0  0  0  0  0  0  0  0  0  0  0  0
  -26.1369  -26.0560   19.0719 H   0  0  0  0  0  0  0  0  0  0  0  0
  -24.0652  -27.2961   19.0997 H   0  0  0  0  0  0  0  0  0  0  0  0
  -23.6156  -30.5365   19.3930 H   0  0  0  0  0  0  0  0  0  0  0  0
  -22.7355  -29.1425   19.9945 H   0  0  0  0  0  0  0  0  0  0  0  0
  -25.1353  -36.2335   25.0565 H   0  0  0  0  0  0  0  0  0  0  0  0
  -21.0070  -28.3206   24.0793 H   0  0  0  0  0  0  0  0  0  0  0  0
  -20.5555  -26.2518   23.3550 H   0  0  0  0  0  0  0  0  0  0  0  0
  -21.5974  -26.8362   22.0454 H   0  0  0  0  0  0  0  0  0  0  0  0
  -19.6810  -25.6422   21.1488 H   0  0  0  0  0  0  0  0  0  0  0  0
  -19.6406  -27.3343   20.7034 H   0  0  0  0  0  0  0  0  0  0  0  0
  -17.4282  -26.6888   21.4113 H   0  0  0  0  0  0  0  0  0  0  0  0
  -18.0803  -26.0130   22.9049 H   0  0  0  0  0  0  0  0  0  0  0  0
  -19.7265  -30.6774   24.2204 H   0  0  0  0  0  0  0  0  0  0  0  0
  -17.5064  -31.5856   24.4483 H   0  0  0  0  0  0  0  0  0  0  0  0
  -15.5878  -30.2839   23.7407 H   0  0  0  0  0  0  0  0  0  0  0  0
  -15.9120  -28.0941   22.7766 H   0  0  0  0  0  0  0  0  0  0  0  0
  -24.5787  -30.7757   25.6817 H   0  0  0  0  0  0  0  0  0  0  0  0
  -25.0041  -32.2289   26.5536 H   0  0  0  0  0  0  0  0  0  0  0  0
  -25.8166  -30.7245   26.9138 H   0  0  0  0  0  0  0  0  0  0  0  0
  -26.2892  -29.7335   24.0803 H   0  0  0  0  0  0  0  0  0  0  0  0
  -27.4336  -29.7484   25.4006 H   0  0  0  0  0  0  0  0  0  0  0  0
  -27.8466  -30.4994   23.8779 H   0  0  0  0  0  0  0  0  0  0  0  0
  -27.2251  -33.3632   26.1242 H   0  0  0  0  0  0  0  0  0  0  0  0
  -28.3902  -32.6065   25.0645 H   0  0  0  0  0  0  0  0  0  0  0  0
  -27.9772  -31.8555   26.5872 H   0  0  0  0  0  0  0  0  0  0  0  0
  -28.2744  -38.0016   24.6863 H   0  0  0  0  0  0  0  0  0  0  0  0
  -28.0396  -36.2711   24.7461 H   0  0  0  0  0  0  0  0  0  0  0  0
  -27.1773  -37.3087   25.8564 H   0  0  0  0  0  0  0  0  0  0  0  0
  -20.9627  -29.9365   21.7352 H   0  0  0  0  0  0  0  0  0  0  0  0
  -26.0447  -38.2561   24.0273 H   0  0  0  0  0  0  0  0  0  0  0  0
  -28.0415  -21.9520   19.1244 H   0  0  0  0  0  0  0  0  0  0  0  0
  -25.8712  -20.9127   18.8104 H   0  0  0  0  0  0  0  0  0  0  0  0
  -28.4706  -19.9475   22.7941 H   0  0  0  0  0  0  0  0  0  0  0  0
  -26.8759  -18.5479   23.6071 H   0  0  0  0  0  0  0  0  0  0  0  0
  -25.9942  -17.6580   22.3890 H   0  0  0  0  0  0  0  0  0  0  0  0
  -25.2362  -19.0018   23.2092 H   0  0  0  0  0  0  0  0  0  0  0  0
  -28.7501  -24.9501   17.1544 H   0  0  0  0  0  0  0  0  0  0  0  0
  -29.7547  -26.2647   17.7162 H   0  0  0  0  0  0  0  0  0  0  0  0
  -28.0758  -26.5528   17.3271 H   0  0  0  0  0  0  0  0  0  0  0  0
  -31.8554  -22.7498   22.4793 H   0  0  0  0  0  0  0  0  0  0  0  0
  -31.3300  -24.4138   22.5688 H   0  0  0  0  0  0  0  0  0  0  0  0
  -31.6438  -23.6791   21.0148 H   0  0  0  0  0  0  0  0  0  0  0  0
  -29.8667  -22.1401   23.8735 H   0  0  0  0  0  0  0  0  0  0  0  0
  -28.2598  -22.5948   23.3594 H   0  0  0  0  0  0  0  0  0  0  0  0
  -29.3871  -23.8202   23.8894 H   0  0  0  0  0  0  0  0  0  0  0  0
  -30.1992  -21.8269   20.2110 H   0  0  0  0  0  0  0  0  0  0  0  0
  -30.3093  -21.0061   21.8148 H   0  0  0  0  0  0  0  0  0  0  0  0
  -29.2618  -23.5851   19.1928 H   0  0  0  0  0  0  0  0  0  0  0  0
  -30.3093  -24.8764   19.7834 H   0  0  0  0  0  0  0  0  0  0  0  0
  -27.9173  -23.8067   21.2338 H   0  0  0  0  0  0  0  0  0  0  0  0
  -29.0980  -25.0380   21.7910 H   0  0  0  0  0  0  0  0  0  0  0  0
  -27.3863  -25.1378   19.1495 H   0  0  0  0  0  0  0  0  0  0  0  0
  -23.6818  -19.3534   20.3194 H   0  0  0  0  0  0  0  0  0  0  0  0
  1 25  1  0
  1 30  2  0
  1 86  1  0
  2  3  1  0
  2 25  1  0
  2 87  1  0
  2 88  1  0
  3  4  1  0
  3 89  1  0
  3 90  1  0
  4  5  1  0
  4 91  1  0
  4 92  1  0
  5  6  1  0
  5 26  1  0
  5 93  1  6
  6 25  1  0
  6 94  1  0
  6 95  1  0
  7  8  2  0
  7 26  1  0
  7 29  1  0
  8  9  1  0
  8 22  1  0
  9 10  1  0
  9 27  2  0
 10 11  2  0
 10 15  1  0
 11 12  1  0
 11 96  1  0
 12 13  2  0
 12 97  1  0
 13 14  1  0
 13 31  1  0
 14 15  2  0
 14 98  1  0
 15 99  1  0
 16 17  2  0
 16 21  1  0
 16 31  1  0
 17 18  1  0
 17100  1  0
 18 19  2  0
 18101  1  0
 19 20  1  0
 19 24  1  0
 20 21  2  0
 20102  1  0
 21 23  1  0
 22 28  1  0
 22 32  2  0
 26 27  1  0
 28103  1  0
 28104  1  0
 29105  1  0
 29106  1  0
 33 34  1  0
 33 66  1  0
 33 70  2  0
 34 36  1  0
 34 59  1  0
 34107  1  6
 35 44  2  0
 35 45  1  0
 35 68  1  0
 36 56  1  0
 36108  1  0
 37 39  1  0
 37 47  1  0
 37 66  1  0
 37109  1  6
 38 43  2  0
 38 46  1  0
 38 47  1  0
 39 64  1  0
 39 67  2  0
 40 52  1  0
 40 53  2  0
 40 58  1  0
 41110  1  0
 41111  1  0
 41112  1  0
 42 43  1  0
 42 66  1  0
 42113  1  0
 42114  1  0
 43 44  1  0
 44115  1  0
 45 46  2  0
 45116  1  0
 46117  1  0
 47118  1  0
 47119  1  0
 48 41  1  0
 48 56  1  0
 48 65  1  0
 48120  1  1
 49 50  1  0
 49 53  1  0
 49 64  1  0
 49121  1  1
 50 51  1  0
 50122  1  0
 50123  1  0
 51 52  1  0
 51124  1  0
 51125  1  0
 52126  1  0
 52127  1  0
 53 54  1  0
 54 55  2  0
 54128  1  0
 55 57  1  0
 55129  1  0
 56 69  2  0
 57 58  2  0
 57130  1  0
 58131  1  0
 59 60  1  0
 59 61  1  0
 59 62  1  0
 60132  1  0
 60133  1  0
 60134  1  0
 61135  1  0
 61136  1  0
 61137  1  0
 62138  1  0
 62139  1  0
 62140  1  0
 63 65  1  0
 63141  1  0
 63142  1  0
 63143  1  0
 64144  1  0
 65145  1  0
 68 84  1  0
 71 72  2  0
 71 74  1  0
 71146  1  0
 72 76  1  0
 72147  1  0
 73 74  2  0
 73 75  1  0
 73148  1  0
 74 81  1  0
 75 76  2  0
 75 77  1  0
 76 86  1  0
 77149  1  0
 77150  1  0
 77151  1  0
 78152  1  0
 78153  1  0
 78154  1  0
 79155  1  0
 79156  1  0
 79157  1  0
 80 85  1  0
 80158  1  0
 80159  1  0
 80160  1  0
 81 85  1  0
 81161  1  0
 81162  1  0
 82 83  1  0
 82 84  1  0
 82163  1  0
 82164  1  0
 83 85  1  0
 83165  1  0
 83166  1  0
 84 78  1  0
 84167  1  6
 85 79  1  0
 86168  1  0
M  ISO  4   1 100  68 101  84 101  86 100
M  END
$$$$
31
     RDKit          3D

160168  0  0  0  0  0  0  0  0999 V2000
  -30.7652  -14.3608   20.6636 C   0  0  0  0  0  0  0  0  0100  0  0
  -30.4392  -12.2669   19.3775 C   0  0  0  0  0  0  0  0  0101  0  0
  -29.4791  -12.5281   18.1977 C   0  0  0  0  0  0  0  0  0102  0  0
  -27.9985  -12.3963   18.6038 C   0  0  0  0  0  0  0  0  0103  0  0
  -27.6639  -13.2170   19.8820 C   0  0  2  0  0  0  0  0  0104  0  0
  -28.6795  -12.9602   21.0279 C   0  0  0  0  0  0  0  0  0105  0  0
  -25.2633  -13.8245   20.5754 C   0  0  0  0  0  0  0  0  0106  0  0
  -24.1645  -13.0409   20.9408 C   0  0  0  0  0  0  0  0  0107  0  0
  -24.6400  -11.7009   20.8697 C   0  0  0  0  0  0  0  0  0108  0  0
  -23.9005  -10.4085   21.0420 C   0  0  0  0  0  0  0  0  0109  0  0
  -24.3588   -9.4123   21.9123 C   0  0  0  0  0  0  0  0  0110  0  0
  -23.6296   -8.2350   22.0803 C   0  0  0  0  0  0  0  0  0111  0  0
  -22.4385   -8.0419   21.3657 C   0  0  0  0  0  0  0  0  0112  0  0
  -22.0103   -9.0167   20.4678 C   0  0  0  0  0  0  0  0  0113  0  0
  -22.7317  -10.1925   20.3102 C   0  0  0  0  0  0  0  0  0114  0  0
  -21.6857   -6.0709   22.5391 C   0  0  0  0  0  0  0  0  0115  0  0
  -21.4064   -6.5490   23.8264 C   0  0  0  0  0  0  0  0  0116  0  0
  -21.3635   -5.6677   24.9085 C   0  0  0  0  0  0  0  0  0117  0  0
  -21.5973   -4.3067   24.7088 C   0  0  0  0  0  0  0  0  0118  0  0
  -21.8700   -3.8284   23.4282 C   0  0  0  0  0  0  0  0  0119  0  0
  -21.9144   -4.7056   22.3460 C   0  0  0  0  0  0  0  0  0120  0  0
  -22.8194  -13.5263   21.1763 C   0  0  0  0  0  0  0  0  0121  0  0
  -22.1559   -4.2206   21.1063 F   0  0  0  0  0  0  0  0  0122  0  0
  -21.5628   -3.4510   25.7555 F   0  0  0  0  0  0  0  0  0123  0  0
  -30.0261  -13.1803   20.4553 N   0  0  0  0  0  0  0  0  0124  0  0
  -26.2911  -12.9356   20.3443 N   0  0  0  0  0  0  0  0  0125  0  0
  -25.9236  -11.6675   20.5847 N   0  0  0  0  0  0  0  0  0126  0  0
  -22.0708  -12.7905   22.0005 N   0  0  0  0  0  0  0  0  0127  0  0
  -25.4117  -15.1773   20.4097 N   0  0  0  0  0  0  0  0  0128  0  0
  -31.7916  -14.6724   20.0536 O   0  0  0  0  0  0  0  0  0129  0  0
  -21.6670   -6.9022   21.4423 O   0  0  0  0  0  0  0  0  0130  0  0
  -22.3946  -14.5564   20.6568 O   0  0  0  0  0  0  0  0  0131  0  0
  -24.6048  -31.8614   23.2223 C   0  0  0  0  0  0  0  0  0100  0  0
  -25.8822  -32.4841   23.8616 C   0  0  1  0  0  0  0  0  0101  0  0
  -27.2536  -27.5042   20.1156 C   0  0  0  0  0  0  0  0  0102  0  0
  -25.5726  -33.8762   24.2210 N   0  0  0  0  0  0  0  0  0103  0  0
  -23.4066  -30.4859   21.5461 C   0  0  2  0  0  0  0  0  0104  0  0
  -24.8467  -28.9636   20.1247 C   0  0  0  0  0  0  0  0  0105  0  0
  -22.7412  -29.4652   22.5052 C   0  0  0  0  0  0  0  0  0106  0  0
  -18.0167  -28.1302   22.8626 C   0  0  0  0  0  0  0  0  0107  0  0
  -24.1342  -36.7390   23.2568 C   0  0  0  0  0  0  0  0  0108  0  0
  -25.9141  -30.8882   21.3456 C   0  0  0  0  0  0  0  0  0109  0  0
  -25.9930  -29.5029   20.7208 C   0  0  0  0  0  0  0  0  0110  0  0
  -27.1758  -28.7612   20.7331 C   0  0  0  0  0  0  0  0  0111  0  0
  -26.1032  -26.9836   19.5230 C   0  0  0  0  0  0  0  0  0112  0  0
  -24.9097  -27.7011   19.5331 C   0  0  0  0  0  0  0  0  0113  0  0
  -23.5715  -29.7899   20.1582 C   0  0  0  0  0  0  0  0  0114  0  0
  -25.3990  -36.3212   24.0232 C   0  0  1  0  0  0  0  0  0115  0  0
  -20.5793  -28.3813   23.1004 C   0  0  2  0  0  0  0  0  0116  0  0
  -20.6548  -26.9392   22.5411 C   0  0  0  0  0  0  0  0  0117  0  0
  -19.5615  -26.6407   21.5143 C   0  0  0  0  0  0  0  0  0118  0  0
  -18.1797  -26.7818   22.1673 C   0  0  0  0  0  0  0  0  0119  0  0
  -19.1385  -28.8769   23.2988 C   0  0  0  0  0  0  0  0  0120  0  0
  -18.9183  -30.1286   23.8878 C   0  0  0  0  0  0  0  0  0121  0  0
  -17.6396  -30.6493   24.0352 C   0  0  0  0  0  0  0  0  0122  0  0
  -25.9153  -34.9582   23.4993 C   0  0  0  0  0  0  0  0  0123  0  0
  -16.5415  -29.9068   23.6254 C   0  0  0  0  0  0  0  0  0124  0  0
  -16.7331  -28.6521   23.0586 C   0  0  0  0  0  0  0  0  0125  0  0
  -26.4583  -31.6439   25.0683 C   0  0  0  0  0  0  0  0  0126  0  0
  -25.3807  -31.3179   26.1374 C   0  0  0  0  0  0  0  0  0127  0  0
  -27.0530  -30.3024   24.5680 C   0  0  0  0  0  0  0  0  0128  0  0
  -27.6014  -32.4281   25.7651 C   0  0  0  0  0  0  0  0  0129  0  0
  -27.5629  -37.2220   24.8621 C   0  0  0  0  0  0  0  0  0130  0  0
  -21.4133  -29.3375   22.3735 N   0  0  0  0  0  0  0  0  0131  0  0
  -26.4706  -37.3372   23.9061 N   0  0  0  0  0  0  0  0  0132  0  0
  -24.6674  -31.0544   22.1178 N   0  0  0  0  0  0  0  0  0133  0  0
  -23.4259  -28.8150   23.2971 O   0  0  0  0  0  0  0  0  0134  0  0
  -28.3948  -26.7345   20.0089 O   0  0  0  0  0  0  0  0  0135  0  0
  -26.5870  -34.9065   22.4671 O   0  0  0  0  0  0  0  0  0136  0  0
  -23.5365  -32.1254   23.7833 O   0  0  0  0  0  0  0  0  0137  0  0
  -31.7395  -16.6136   22.2081 C   0  0  0  0  0  0  0  0  0  0  0  0
  -32.0865  -17.8247   22.8069 C   0  0  0  0  0  0  0  0  0  0  0  0
  -30.2474  -16.1323   24.0463 C   0  0  0  0  0  0  0  0  0  0  0  0
  -30.8199  -15.7674   22.8278 C   0  0  0  0  0  0  0  0  0  0  0  0
  -30.5944  -17.3434   24.6451 C   0  0  0  0  0  0  0  0  0  0  0  0
  -31.5140  -18.1896   24.0254 C   0  0  0  0  0  0  0  0  0  0  0  0
  -28.1980  -17.3258   28.9424 C   0  0  0  0  0  0  0  0  0  0  0  0
  -26.6459  -19.0151   26.8542 C   0  0  0  0  0  0  0  0  0  0  0  0
  -28.6932  -18.6242   28.3165 C   0  0  0  0  0  0  0  0  0  0  0  0
  -28.7810  -20.2930   26.4598 C   0  0  0  0  0  0  0  0  0  1  0  0
  -28.6172  -17.8272   25.8749 C   0  0  0  0  0  0  0  0  0  0  0  0
  -28.1848  -18.9228   26.8770 C   0  0  2  0  0  0  0  0  0  0  0  0
  -30.4675  -14.5370   22.2199 N   0  0  0  0  0  0  0  0  0  0  0  0
  -30.0330  -17.7012   25.8429 O   0  0  0  0  0  0  0  0  0  0  0  0
  -31.8526  -19.3539   24.5961 F   0  0  0  0  0  0  0  0  0  0  0  0
  -31.4485  -12.4701   19.0860 H   0  0  0  0  0  0  0  0  0  0  0  0
  -30.3970  -11.2460   19.6950 H   0  0  0  0  0  0  0  0  0  0  0  0
  -29.6870  -11.8204   17.4226 H   0  0  0  0  0  0  0  0  0  0  0  0
  -29.6375  -13.5326   17.8649 H   0  0  0  0  0  0  0  0  0  0  0  0
  -27.7830  -11.3650   18.7904 H   0  0  0  0  0  0  0  0  0  0  0  0
  -27.4028  -12.7801   17.8021 H   0  0  0  0  0  0  0  0  0  0  0  0
  -27.7353  -14.2503   19.6136 H   0  0  0  0  0  0  0  0  0  0  0  0
  -28.5890  -11.9550   21.3832 H   0  0  0  0  0  0  0  0  0  0  0  0
  -28.5005  -13.6134   21.8562 H   0  0  0  0  0  0  0  0  0  0  0  0
  -25.2399   -9.5495   22.4318 H   0  0  0  0  0  0  0  0  0  0  0  0
  -23.9663   -7.5070   22.7297 H   0  0  0  0  0  0  0  0  0  0  0  0
  -21.1515   -8.8641   19.9162 H   0  0  0  0  0  0  0  0  0  0  0  0
  -22.4016  -10.9115   19.6476 H   0  0  0  0  0  0  0  0  0  0  0  0
  -21.2319   -7.5552   23.9750 H   0  0  0  0  0  0  0  0  0  0  0  0
  -21.1589   -6.0228   25.8556 H   0  0  0  0  0  0  0  0  0  0  0  0
  -22.0396   -2.8212   23.2809 H   0  0  0  0  0  0  0  0  0  0  0  0
  -22.4401  -11.9703   22.4008 H   0  0  0  0  0  0  0  0  0  0  0  0
  -21.1493  -13.0679   22.2082 H   0  0  0  0  0  0  0  0  0  0  0  0
  -24.6538  -15.7807   20.5848 H   0  0  0  0  0  0  0  0  0  0  0  0
  -26.2762  -15.5453   20.1156 H   0  0  0  0  0  0  0  0  0  0  0  0
  -26.6778  -32.4663   23.1464 H   0  0  0  0  0  0  0  0  0  0  0  0
  -25.0747  -34.0282   25.0566 H   0  0  0  0  0  0  0  0  0  0  0  0
  -22.7881  -31.3489   21.4131 H   0  0  0  0  0  0  0  0  0  0  0  0
  -23.3854  -35.9823   23.3648 H   0  0  0  0  0  0  0  0  0  0  0  0
  -24.3696  -36.8624   22.2204 H   0  0  0  0  0  0  0  0  0  0  0  0
  -23.7669  -37.6632   23.6516 H   0  0  0  0  0  0  0  0  0  0  0  0
  -25.9445  -31.6237   20.5691 H   0  0  0  0  0  0  0  0  0  0  0  0
  -26.7436  -31.0079   22.0108 H   0  0  0  0  0  0  0  0  0  0  0  0
  -28.0090  -29.1452   21.2057 H   0  0  0  0  0  0  0  0  0  0  0  0
  -26.1369  -26.0560   19.0719 H   0  0  0  0  0  0  0  0  0  0  0  0
  -24.0652  -27.2961   19.0997 H   0  0  0  0  0  0  0  0  0  0  0  0
  -23.6156  -30.5365   19.3930 H   0  0  0  0  0  0  0  0  0  0  0  0
  -22.7355  -29.1425   19.9945 H   0  0  0  0  0  0  0  0  0  0  0  0
  -25.1353  -36.2335   25.0565 H   0  0  0  0  0  0  0  0  0  0  0  0
  -21.0070  -28.3206   24.0793 H   0  0  0  0  0  0  0  0  0  0  0  0
  -20.5555  -26.2518   23.3550 H   0  0  0  0  0  0  0  0  0  0  0  0
  -21.5974  -26.8362   22.0454 H   0  0  0  0  0  0  0  0  0  0  0  0
  -19.6810  -25.6422   21.1488 H   0  0  0  0  0  0  0  0  0  0  0  0
  -19.6406  -27.3343   20.7034 H   0  0  0  0  0  0  0  0  0  0  0  0
  -17.4282  -26.6888   21.4113 H   0  0  0  0  0  0  0  0  0  0  0  0
  -18.0803  -26.0130   22.9049 H   0  0  0  0  0  0  0  0  0  0  0  0
  -19.7265  -30.6774   24.2204 H   0  0  0  0  0  0  0  0  0  0  0  0
  -17.5064  -31.5856   24.4483 H   0  0  0  0  0  0  0  0  0  0  0  0
  -15.5878  -30.2839   23.7407 H   0  0  0  0  0  0  0  0  0  0  0  0
  -15.9120  -28.0941   22.7766 H   0  0  0  0  0  0  0  0  0  0  0  0
  -24.5787  -30.7757   25.6817 H   0  0  0  0  0  0  0  0  0  0  0  0
  -25.0041  -32.2289   26.5536 H   0  0  0  0  0  0  0  0  0  0  0  0
  -25.8166  -30.7245   26.9138 H   0  0  0  0  0  0  0  0  0  0  0  0
  -26.2892  -29.7335   24.0803 H   0  0  0  0  0  0  0  0  0  0  0  0
  -27.4336  -29.7484   25.4006 H   0  0  0  0  0  0  0  0  0  0  0  0
  -27.8466  -30.4994   23.8779 H   0  0  0  0  0  0  0  0  0  0  0  0
  -27.2251  -33.3632   26.1242 H   0  0  0  0  0  0  0  0  0  0  0  0
  -28.3902  -32.6065   25.0645 H   0  0  0  0  0  0  0  0  0  0  0  0
  -27.9772  -31.8555   26.5872 H   0  0  0  0  0  0  0  0  0  0  0  0
  -28.2744  -38.0016   24.6863 H   0  0  0  0  0  0  0  0  0  0  0  0
  -28.0396  -36.2711   24.7461 H   0  0  0  0  0  0  0  0  0  0  0  0
  -27.1773  -37.3087   25.8564 H   0  0  0  0  0  0  0  0  0  0  0  0
  -20.9627  -29.9365   21.7352 H   0  0  0  0  0  0  0  0  0  0  0  0
  -26.0447  -38.2561   24.0273 H   0  0  0  0  0  0  0  0  0  0  0  0
  -32.1631  -16.3436   21.3066 H   0  0  0  0  0  0  0  0  0  0  0  0
  -32.7668  -18.4508   22.3484 H   0  0  0  0  0  0  0  0  0  0  0  0
  -29.5671  -15.5062   24.5048 H   0  0  0  0  0  0  0  0  0  0  0  0
  -28.6082  -17.2246   29.9255 H   0  0  0  0  0  0  0  0  0  0  0  0
  -28.5084  -16.4981   28.3395 H   0  0  0  0  0  0  0  0  0  0  0  0
  -27.1298  -17.3431   29.0017 H   0  0  0  0  0  0  0  0  0  0  0  0
  -26.3236  -19.7689   27.5419 H   0  0  0  0  0  0  0  0  0  0  0  0
  -26.2278  -18.0717   27.1373 H   0  0  0  0  0  0  0  0  0  0  0  0
  -26.3184  -19.2688   25.8676 H   0  0  0  0  0  0  0  0  0  0  0  0
  -29.7621  -18.5860   28.2852 H   0  0  0  0  0  0  0  0  0  0  0  0
  -28.3017  -19.4086   28.9299 H   0  0  0  0  0  0  0  0  0  0  0  0
  -29.8240  -20.0552   26.4381 H   0  0  0  0  0  0  0  0  0  0  0  0
  -28.0645  -20.8151   27.0589 H   0  0  0  0  0  0  0  0  0  0  0  0
  -28.2662  -18.0872   24.8981 H   0  0  0  0  0  0  0  0  0  0  0  0
  -28.1972  -16.8935   26.1859 H   0  0  0  0  0  0  0  0  0  0  0  0
  -30.0518  -13.8134   22.7423 H   0  0  0  0  0  0  0  0  0  0  0  0
  1 25  1  0
  1 30  2  0
  1 83  1  0
  2  3  1  0
  2 25  1  0
  2 86  1  0
  2 87  1  0
  3  4  1  0
  3 88  1  0
  3 89  1  0
  4  5  1  0
  4 90  1  0
  4 91  1  0
  5  6  1  0
  5 26  1  0
  5 92  1  6
  6 25  1  0
  6 93  1  0
  6 94  1  0
  7  8  2  0
  7 26  1  0
  7 29  1  0
  8  9  1  0
  8 22  1  0
  9 10  1  0
  9 27  2  0
 10 11  2  0
 10 15  1  0
 11 12  1  0
 11 95  1  0
 12 13  2  0
 12 96  1  0
 13 14  1  0
 13 31  1  0
 14 15  2  0
 14 97  1  0
 15 98  1  0
 16 17  2  0
 16 21  1  0
 16 31  1  0
 17 18  1  0
 17 99  1  0
 18 19  2  0
 18100  1  0
 19 20  1  0
 19 24  1  0
 20 21  2  0
 20101  1  0
 21 23  1  0
 22 28  1  0
 22 32  2  0
 26 27  1  0
 28102  1  0
 28103  1  0
 29104  1  0
 29105  1  0
 33 34  1  0
 33 66  1  0
 33 70  2  0
 34 36  1  0
 34 59  1  0
 34106  1  6
 35 44  2  0
 35 45  1  0
 35 68  1  0
 36 56  1  0
 36107  1  0
 37 39  1  0
 37 47  1  0
 37 66  1  0
 37108  1  6
 38 43  2  0
 38 46  1  0
 38 47  1  0
 39 64  1  0
 39 67  2  0
 40 52  1  0
 40 53  2  0
 40 58  1  0
 41109  1  0
 41110  1  0
 41111  1  0
 42 43  1  0
 42 66  1  0
 42112  1  0
 42113  1  0
 43 44  1  0
 44114  1  0
 45 46  2  0
 45115  1  0
 46116  1  0
 47117  1  0
 47118  1  0
 48 41  1  0
 48 56  1  0
 48 65  1  0
 48119  1  1
 49 50  1  0
 49 53  1  0
 49 64  1  0
 49120  1  1
 50 51  1  0
 50121  1  0
 50122  1  0
 51 52  1  0
 51123  1  0
 51124  1  0
 52125  1  0
 52126  1  0
 53 54  1  0
 54 55  2  0
 54127  1  0
 55 57  1  0
 55128  1  0
 56 69  2  0
 57 58  2  0
 57129  1  0
 58130  1  0
 59 60  1  0
 59 61  1  0
 59 62  1  0
 60131  1  0
 60132  1  0
 60133  1  0
 61134  1  0
 61135  1  0
 61136  1  0
 62137  1  0
 62138  1  0
 62139  1  0
 63 65  1  0
 63140  1  0
 63141  1  0
 63142  1  0
 64143  1  0
 65144  1  0
 68 80  1  0
 71 72  2  0
 71 74  1  0
 71145  1  0
 72 76  1  0
 72146  1  0
 73 74  2  0
 73 75  1  0
 73147  1  0
 74 83  1  0
 75 76  2  0
 75 84  1  0
 76 85  1  0
 77 79  1  0
 77148  1  0
 77149  1  0
 77150  1  0
 78151  1  0
 78152  1  0
 78153  1  0
 82 79  1  1
 79154  1  0
 79155  1  0
 80 82  1  0
 80156  1  0
 80157  1  0
 81 82  1  0
 81 84  1  0
 81158  1  0
 81159  1  0
 82 78  1  0
 83160  1  0
M  ISO  4   1 100  68 101  80 101  83 100
M  END
$$$$
32
     RDKit          3D

170179  0  0  0  0  0  0  0  0999 V2000
  -30.7652  -14.3608   20.6636 C   0  0  0  0  0  0  0  0  0100  0  0
  -30.4392  -12.2669   19.3775 C   0  0  0  0  0  0  0  0  0101  0  0
  -29.4791  -12.5281   18.1977 C   0  0  0  0  0  0  0  0  0102  0  0
  -27.9985  -12.3963   18.6038 C   0  0  0  0  0  0  0  0  0103  0  0
  -27.6639  -13.2170   19.8820 C   0  0  2  0  0  0  0  0  0104  0  0
  -28.6795  -12.9602   21.0279 C   0  0  0  0  0  0  0  0  0105  0  0
  -25.2633  -13.8245   20.5754 C   0  0  0  0  0  0  0  0  0106  0  0
  -24.1645  -13.0409   20.9408 C   0  0  0  0  0  0  0  0  0107  0  0
  -24.6400  -11.7009   20.8697 C   0  0  0  0  0  0  0  0  0108  0  0
  -23.9005  -10.4085   21.0420 C   0  0  0  0  0  0  0  0  0109  0  0
  -24.3588   -9.4123   21.9123 C   0  0  0  0  0  0  0  0  0110  0  0
  -23.6296   -8.2350   22.0803 C   0  0  0  0  0  0  0  0  0111  0  0
  -22.4385   -8.0419   21.3657 C   0  0  0  0  0  0  0  0  0112  0  0
  -22.0103   -9.0167   20.4678 C   0  0  0  0  0  0  0  0  0113  0  0
  -22.7317  -10.1925   20.3102 C   0  0  0  0  0  0  0  0  0114  0  0
  -21.6857   -6.0709   22.5391 C   0  0  0  0  0  0  0  0  0115  0  0
  -21.4064   -6.5490   23.8264 C   0  0  0  0  0  0  0  0  0116  0  0
  -21.3635   -5.6677   24.9085 C   0  0  0  0  0  0  0  0  0117  0  0
  -21.5973   -4.3067   24.7088 C   0  0  0  0  0  0  0  0  0118  0  0
  -21.8700   -3.8284   23.4282 C   0  0  0  0  0  0  0  0  0119  0  0
  -21.9144   -4.7056   22.3460 C   0  0  0  0  0  0  0  0  0120  0  0
  -22.8194  -13.5263   21.1763 C   0  0  0  0  0  0  0  0  0121  0  0
  -22.1559   -4.2206   21.1063 F   0  0  0  0  0  0  0  0  0122  0  0
  -21.5628   -3.4510   25.7555 F   0  0  0  0  0  0  0  0  0123  0  0
  -30.0261  -13.1803   20.4553 N   0  0  0  0  0  0  0  0  0124  0  0
  -26.2911  -12.9356   20.3443 N   0  0  0  0  0  0  0  0  0125  0  0
  -25.9236  -11.6675   20.5847 N   0  0  0  0  0  0  0  0  0126  0  0
  -22.0708  -12.7905   22.0005 N   0  0  0  0  0  0  0  0  0127  0  0
  -25.4117  -15.1773   20.4097 N   0  0  0  0  0  0  0  0  0128  0  0
  -31.7916  -14.6724   20.0536 O   0  0  0  0  0  0  0  0  0129  0  0
  -21.6670   -6.9022   21.4423 O   0  0  0  0  0  0  0  0  0130  0  0
  -22.3946  -14.5564   20.6568 O   0  0  0  0  0  0  0  0  0131  0  0
  -24.6048  -31.8614   23.2223 C   0  0  0  0  0  0  0  0  0100  0  0
  -25.8822  -32.4841   23.8616 C   0  0  1  0  0  0  0  0  0101  0  0
  -27.2536  -27.5042   20.1156 C   0  0  0  0  0  0  0  0  0102  0  0
  -25.5726  -33.8762   24.2210 N   0  0  0  0  0  0  0  0  0103  0  0
  -23.4066  -30.4859   21.5461 C   0  0  2  0  0  0  0  0  0104  0  0
  -24.8467  -28.9636   20.1247 C   0  0  0  0  0  0  0  0  0105  0  0
  -22.7412  -29.4652   22.5052 C   0  0  0  0  0  0  0  0  0106  0  0
  -18.0167  -28.1302   22.8626 C   0  0  0  0  0  0  0  0  0107  0  0
  -24.1342  -36.7390   23.2568 C   0  0  0  0  0  0  0  0  0108  0  0
  -25.9141  -30.8882   21.3456 C   0  0  0  0  0  0  0  0  0109  0  0
  -25.9930  -29.5029   20.7208 C   0  0  0  0  0  0  0  0  0110  0  0
  -27.1758  -28.7612   20.7331 C   0  0  0  0  0  0  0  0  0111  0  0
  -26.1032  -26.9836   19.5230 C   0  0  0  0  0  0  0  0  0112  0  0
  -24.9097  -27.7011   19.5331 C   0  0  0  0  0  0  0  0  0113  0  0
  -23.5715  -29.7899   20.1582 C   0  0  0  0  0  0  0  0  0114  0  0
  -25.3990  -36.3212   24.0232 C   0  0  1  0  0  0  0  0  0115  0  0
  -20.5793  -28.3813   23.1004 C   0  0  2  0  0  0  0  0  0116  0  0
  -20.6548  -26.9392   22.5411 C   0  0  0  0  0  0  0  0  0117  0  0
  -19.5615  -26.6407   21.5143 C   0  0  0  0  0  0  0  0  0118  0  0
  -18.1797  -26.7818   22.1673 C   0  0  0  0  0  0  0  0  0119  0  0
  -19.1385  -28.8769   23.2988 C   0  0  0  0  0  0  0  0  0120  0  0
  -18.9183  -30.1286   23.8878 C   0  0  0  0  0  0  0  0  0121  0  0
  -17.6396  -30.6493   24.0352 C   0  0  0  0  0  0  0  0  0122  0  0
  -25.9153  -34.9582   23.4993 C   0  0  0  0  0  0  0  0  0123  0  0
  -16.5415  -29.9068   23.6254 C   0  0  0  0  0  0  0  0  0124  0  0
  -16.7331  -28.6521   23.0586 C   0  0  0  0  0  0  0  0  0125  0  0
  -26.4583  -31.6439   25.0683 C   0  0  0  0  0  0  0  0  0126  0  0
  -25.3807  -31.3179   26.1374 C   0  0  0  0  0  0  0  0  0127  0  0
  -27.0530  -30.3024   24.5680 C   0  0  0  0  0  0  0  0  0128  0  0
  -27.6014  -32.4281   25.7651 C   0  0  0  0  0  0  0  0  0129  0  0
  -27.5629  -37.2220   24.8621 C   0  0  0  0  0  0  0  0  0130  0  0
  -21.4133  -29.3375   22.3735 N   0  0  0  0  0  0  0  0  0131  0  0
  -26.4706  -37.3372   23.9061 N   0  0  0  0  0  0  0  0  0132  0  0
  -24.6674  -31.0544   22.1178 N   0  0  0  0  0  0  0  0  0133  0  0
  -23.4259  -28.8150   23.2971 O   0  0  0  0  0  0  0  0  0134  0  0
  -28.3948  -26.7345   20.0089 O   0  0  0  0  0  0  0  0  0135  0  0
  -26.5870  -34.9065   22.4671 O   0  0  0  0  0  0  0  0  0136  0  0
  -23.5365  -32.1254   23.7833 O   0  0  0  0  0  0  0  0  0137  0  0
  -27.6147  -14.5838   24.2625 C   0  0  0  0  0  0  0  0  0  0  0  0
  -29.4820  -15.2392   22.2962 C   0  0  0  0  0  0  0  0  0  0  0  0
  -27.5218  -15.8029   23.5912 C   0  0  0  0  0  0  0  0  0  0  0  0
  -29.5749  -14.0200   22.9676 C   0  0  0  0  0  0  0  0  0  0  0  0
  -28.6413  -13.6923   23.9507 C   0  0  0  0  0  0  0  0  0  0  0  0
  -28.4554  -16.1306   22.6080 C   0  0  0  0  0  0  0  0  0  0  0  0
  -29.2239  -17.8328   20.9185 C   0  0  0  0  0  0  0  0  0  0  0  0
  -25.3407  -18.0053   25.4198 C   0  0  0  0  0  0  0  0  0  0  0  0
  -25.4584  -16.4842   25.2060 C   0  0  0  0  0  0  0  0  0  0  0  0
  -26.6908  -18.1337   24.6885 C   0  0  0  0  0  0  0  0  0  0  0  0
  -26.3467  -16.7973   23.9640 C   0  0  0  0  0  0  0  0  0  0  0  0
  -31.9509  -13.3037   23.4509 C   0  0  0  0  0  0  0  0  0  0  0  0
  -28.7795  -19.2096   20.4445 C   0  0  0  0  0  0  0  0  0  0  0  0
  -29.6773  -19.7712   19.3475 C   0  0  0  0  0  0  0  0  0  0  0  0
  -29.1861  -21.1255   18.8573 C   0  0  0  0  0  0  0  0  0  1  0  0
  -30.6845  -13.0840   22.6138 C   0  0  2  0  0  0  0  0  0  0  0  0
  -28.7201  -12.4627   24.6407 N   0  0  0  0  0  0  0  0  0  0  0  0
  -28.3756  -17.3632   21.9174 N   0  0  0  0  0  0  0  0  0  0  0  0
  -30.2041  -17.2665   20.4463 O   0  0  0  0  0  0  0  0  0  0  0  0
  -31.4485  -12.4701   19.0860 H   0  0  0  0  0  0  0  0  0  0  0  0
  -30.3970  -11.2460   19.6950 H   0  0  0  0  0  0  0  0  0  0  0  0
  -29.6870  -11.8204   17.4226 H   0  0  0  0  0  0  0  0  0  0  0  0
  -29.6375  -13.5326   17.8649 H   0  0  0  0  0  0  0  0  0  0  0  0
  -27.7830  -11.3650   18.7904 H   0  0  0  0  0  0  0  0  0  0  0  0
  -27.4028  -12.7801   17.8021 H   0  0  0  0  0  0  0  0  0  0  0  0
  -27.7353  -14.2503   19.6136 H   0  0  0  0  0  0  0  0  0  0  0  0
  -28.5890  -11.9550   21.3832 H   0  0  0  0  0  0  0  0  0  0  0  0
  -28.5005  -13.6134   21.8562 H   0  0  0  0  0  0  0  0  0  0  0  0
  -25.2399   -9.5495   22.4318 H   0  0  0  0  0  0  0  0  0  0  0  0
  -23.9663   -7.5070   22.7297 H   0  0  0  0  0  0  0  0  0  0  0  0
  -21.1515   -8.8641   19.9162 H   0  0  0  0  0  0  0  0  0  0  0  0
  -22.4016  -10.9115   19.6476 H   0  0  0  0  0  0  0  0  0  0  0  0
  -21.2319   -7.5552   23.9750 H   0  0  0  0  0  0  0  0  0  0  0  0
  -21.1589   -6.0228   25.8556 H   0  0  0  0  0  0  0  0  0  0  0  0
  -22.0396   -2.8212   23.2809 H   0  0  0  0  0  0  0  0  0  0  0  0
  -22.4401  -11.9703   22.4008 H   0  0  0  0  0  0  0  0  0  0  0  0
  -21.1493  -13.0679   22.2082 H   0  0  0  0  0  0  0  0  0  0  0  0
  -24.6538  -15.7807   20.5848 H   0  0  0  0  0  0  0  0  0  0  0  0
  -26.2762  -15.5453   20.1156 H   0  0  0  0  0  0  0  0  0  0  0  0
  -26.6778  -32.4663   23.1464 H   0  0  0  0  0  0  0  0  0  0  0  0
  -25.0747  -34.0282   25.0566 H   0  0  0  0  0  0  0  0  0  0  0  0
  -22.7881  -31.3489   21.4131 H   0  0  0  0  0  0  0  0  0  0  0  0
  -23.3854  -35.9823   23.3648 H   0  0  0  0  0  0  0  0  0  0  0  0
  -24.3696  -36.8624   22.2204 H   0  0  0  0  0  0  0  0  0  0  0  0
  -23.7669  -37.6632   23.6516 H   0  0  0  0  0  0  0  0  0  0  0  0
  -25.9445  -31.6237   20.5691 H   0  0  0  0  0  0  0  0  0  0  0  0
  -26.7436  -31.0079   22.0108 H   0  0  0  0  0  0  0  0  0  0  0  0
  -28.0090  -29.1452   21.2057 H   0  0  0  0  0  0  0  0  0  0  0  0
  -26.1369  -26.0560   19.0719 H   0  0  0  0  0  0  0  0  0  0  0  0
  -24.0652  -27.2961   19.0997 H   0  0  0  0  0  0  0  0  0  0  0  0
  -23.6156  -30.5365   19.3930 H   0  0  0  0  0  0  0  0  0  0  0  0
  -22.7355  -29.1425   19.9945 H   0  0  0  0  0  0  0  0  0  0  0  0
  -25.1353  -36.2335   25.0565 H   0  0  0  0  0  0  0  0  0  0  0  0
  -21.0070  -28.3206   24.0793 H   0  0  0  0  0  0  0  0  0  0  0  0
  -20.5555  -26.2518   23.3550 H   0  0  0  0  0  0  0  0  0  0  0  0
  -21.5974  -26.8362   22.0454 H   0  0  0  0  0  0  0  0  0  0  0  0
  -19.6810  -25.6422   21.1488 H   0  0  0  0  0  0  0  0  0  0  0  0
  -19.6406  -27.3343   20.7034 H   0  0  0  0  0  0  0  0  0  0  0  0
  -17.4282  -26.6888   21.4113 H   0  0  0  0  0  0  0  0  0  0  0  0
  -18.0803  -26.0130   22.9049 H   0  0  0  0  0  0  0  0  0  0  0  0
  -19.7265  -30.6774   24.2204 H   0  0  0  0  0  0  0  0  0  0  0  0
  -17.5064  -31.5856   24.4483 H   0  0  0  0  0  0  0  0  0  0  0  0
  -15.5878  -30.2839   23.7407 H   0  0  0  0  0  0  0  0  0  0  0  0
  -15.9120  -28.0941   22.7766 H   0  0  0  0  0  0  0  0  0  0  0  0
  -24.5787  -30.7757   25.6817 H   0  0  0  0  0  0  0  0  0  0  0  0
  -25.0041  -32.2289   26.5536 H   0  0  0  0  0  0  0  0  0  0  0  0
  -25.8166  -30.7245   26.9138 H   0  0  0  0  0  0  0  0  0  0  0  0
  -26.2892  -29.7335   24.0803 H   0  0  0  0  0  0  0  0  0  0  0  0
  -27.4336  -29.7484   25.4006 H   0  0  0  0  0  0  0  0  0  0  0  0
  -27.8466  -30.4994   23.8779 H   0  0  0  0  0  0  0  0  0  0  0  0
  -27.2251  -33.3632   26.1242 H   0  0  0  0  0  0  0  0  0  0  0  0
  -28.3902  -32.6065   25.0645 H   0  0  0  0  0  0  0  0  0  0  0  0
  -27.9772  -31.8555   26.5872 H   0  0  0  0  0  0  0  0  0  0  0  0
  -28.2744  -38.0016   24.6863 H   0  0  0  0  0  0  0  0  0  0  0  0
  -28.0396  -36.2711   24.7461 H   0  0  0  0  0  0  0  0  0  0  0  0
  -27.1773  -37.3087   25.8564 H   0  0  0  0  0  0  0  0  0  0  0  0
  -20.9627  -29.9365   21.7352 H   0  0  0  0  0  0  0  0  0  0  0  0
  -26.0447  -38.2561   24.0273 H   0  0  0  0  0  0  0  0  0  0  0  0
  -26.9239  -14.3413   24.9899 H   0  0  0  0  0  0  0  0  0  0  0  0
  -30.1728  -15.4817   21.5688 H   0  0  0  0  0  0  0  0  0  0  0  0
  -25.3548  -18.3159   26.4436 H   0  0  0  0  0  0  0  0  0  0  0  0
  -24.4757  -18.5550   25.1122 H   0  0  0  0  0  0  0  0  0  0  0  0
  -24.5351  -15.9922   24.9818 H   0  0  0  0  0  0  0  0  0  0  0  0
  -25.7902  -15.8301   25.9851 H   0  0  0  0  0  0  0  0  0  0  0  0
  -27.5495  -18.0880   25.3253 H   0  0  0  0  0  0  0  0  0  0  0  0
  -26.9552  -19.0168   24.1453 H   0  0  0  0  0  0  0  0  0  0  0  0
  -25.9643  -16.7693   22.9650 H   0  0  0  0  0  0  0  0  0  0  0  0
  -31.8976  -12.7115   24.3405 H   0  0  0  0  0  0  0  0  0  0  0  0
  -32.0290  -14.3377   23.7149 H   0  0  0  0  0  0  0  0  0  0  0  0
  -32.8095  -13.0151   22.8813 H   0  0  0  0  0  0  0  0  0  0  0  0
  -28.7962  -19.8806   21.2778 H   0  0  0  0  0  0  0  0  0  0  0  0
  -27.7950  -19.1096   20.0374 H   0  0  0  0  0  0  0  0  0  0  0  0
  -29.6884  -19.0876   18.5245 H   0  0  0  0  0  0  0  0  0  0  0  0
  -30.6593  -19.8990   19.7527 H   0  0  0  0  0  0  0  0  0  0  0  0
  -28.1838  -20.8604   18.5928 H   0  0  0  0  0  0  0  0  0  0  0  0
  -30.1698  -21.3448   18.4981 H   0  0  0  0  0  0  0  0  0  0  0  0
  -30.5894  -12.0191   22.6571 H   0  0  0  0  0  0  0  0  0  0  0  0
  -28.0551  -12.2430   25.3326 H   0  0  0  0  0  0  0  0  0  0  0  0
  -29.4401  -11.8252   24.4299 H   0  0  0  0  0  0  0  0  0  0  0  0
  -27.6338  -17.9578   22.1732 H   0  0  0  0  0  0  0  0  0  0  0  0
  1 25  1  0
  1 30  2  0
  1 86  1  0
  2  3  1  0
  2 25  1  0
  2 90  1  0
  2 91  1  0
  3  4  1  0
  3 92  1  0
  3 93  1  0
  4  5  1  0
  4 94  1  0
  4 95  1  0
  5  6  1  0
  5 26  1  0
  5 96  1  6
  6 25  1  0
  6 97  1  0
  6 98  1  0
  7  8  2  0
  7 26  1  0
  7 29  1  0
  8  9  1  0
  8 22  1  0
  9 10  1  0
  9 27  2  0
 10 11  2  0
 10 15  1  0
 11 12  1  0
 11 99  1  0
 12 13  2  0
 12100  1  0
 13 14  1  0
 13 31  1  0
 14 15  2  0
 14101  1  0
 15102  1  0
 16 17  2  0
 16 21  1  0
 16 31  1  0
 17 18  1  0
 17103  1  0
 18 19  2  0
 18104  1  0
 19 20  1  0
 19 24  1  0
 20 21  2  0
 20105  1  0
 21 23  1  0
 22 28  1  0
 22 32  2  0
 26 27  1  0
 28106  1  0
 28107  1  0
 29108  1  0
 29109  1  0
 33 34  1  0
 33 66  1  0
 33 70  2  0
 34 36  1  0
 34 59  1  0
 34110  1  6
 35 44  2  0
 35 45  1  0
 35 68  1  0
 36 56  1  0
 36111  1  0
 37 39  1  0
 37 47  1  0
 37 66  1  0
 37112  1  6
 38 43  2  0
 38 46  1  0
 38 47  1  0
 39 64  1  0
 39 67  2  0
 40 52  1  0
 40 53  2  0
 40 58  1  0
 41113  1  0
 41114  1  0
 41115  1  0
 42 43  1  0
 42 66  1  0
 42116  1  0
 42117  1  0
 43 44  1  0
 44118  1  0
 45 46  2  0
 45119  1  0
 46120  1  0
 47121  1  0
 47122  1  0
 48 41  1  0
 48 56  1  0
 48 65  1  0
 48123  1  1
 49 50  1  0
 49 53  1  0
 49 64  1  0
 49124  1  1
 50 51  1  0
 50125  1  0
 50126  1  0
 51 52  1  0
 51127  1  0
 51128  1  0
 52129  1  0
 52130  1  0
 53 54  1  0
 54 55  2  0
 54131  1  0
 55 57  1  0
 55132  1  0
 56 69  2  0
 57 58  2  0
 57133  1  0
 58134  1  0
 59 60  1  0
 59 61  1  0
 59 62  1  0
 60135  1  0
 60136  1  0
 60137  1  0
 61138  1  0
 61139  1  0
 61140  1  0
 62141  1  0
 62142  1  0
 62143  1  0
 63 65  1  0
 63144  1  0
 63145  1  0
 63146  1  0
 64147  1  0
 65148  1  0
 68 85  1  0
 71 73  2  0
 71 75  1  0
 71149  1  0
 72 74  1  0
 72 76  2  0
 72150  1  0
 73 76  1  0
 74 75  2  0
 74 86  1  0
 75 87  1  0
 76 88  1  0
 77 83  1  0
 77 88  1  0
 77 89  2  0
 78 79  1  0
 78 80  1  0
 78151  1  0
 78152  1  0
 79 81  1  0
 79153  1  0
 79154  1  0
 80 81  1  0
 80155  1  0
 80156  1  0
 81 73  1  0
 81157  1  0
 82158  1  0
 82159  1  0
 82160  1  0
 83 84  1  0
 83161  1  0
 83162  1  0
 84 85  1  0
 84163  1  0
 84164  1  0
 85165  1  0
 85166  1  0
 86 82  1  0
 86167  1  6
 87168  1  0
 87169  1  0
 88170  1  0
M  ISO  4   1 100  68 101  85 101  86 100
M  END
$$$$
33
     RDKit          3D

163171  0  0  0  0  0  0  0  0999 V2000
  -30.7652  -14.3608   20.6636 C   0  0  0  0  0  0  0  0  0100  0  0
  -30.4392  -12.2669   19.3775 C   0  0  0  0  0  0  0  0  0101  0  0
  -29.4791  -12.5281   18.1977 C   0  0  0  0  0  0  0  0  0102  0  0
  -27.9985  -12.3963   18.6038 C   0  0  0  0  0  0  0  0  0103  0  0
  -27.6639  -13.2170   19.8820 C   0  0  2  0  0  0  0  0  0104  0  0
  -28.6795  -12.9602   21.0279 C   0  0  0  0  0  0  0  0  0105  0  0
  -25.2633  -13.8245   20.5754 C   0  0  0  0  0  0  0  0  0106  0  0
  -24.1645  -13.0409   20.9408 C   0  0  0  0  0  0  0  0  0107  0  0
  -24.6400  -11.7009   20.8697 C   0  0  0  0  0  0  0  0  0108  0  0
  -23.9005  -10.4085   21.0420 C   0  0  0  0  0  0  0  0  0109  0  0
  -24.3588   -9.4123   21.9123 C   0  0  0  0  0  0  0  0  0110  0  0
  -23.6296   -8.2350   22.0803 C   0  0  0  0  0  0  0  0  0111  0  0
  -22.4385   -8.0419   21.3657 C   0  0  0  0  0  0  0  0  0112  0  0
  -22.0103   -9.0167   20.4678 C   0  0  0  0  0  0  0  0  0113  0  0
  -22.7317  -10.1925   20.3102 C   0  0  0  0  0  0  0  0  0114  0  0
  -21.6857   -6.0709   22.5391 C   0  0  0  0  0  0  0  0  0115  0  0
  -21.4064   -6.5490   23.8264 C   0  0  0  0  0  0  0  0  0116  0  0
  -21.3635   -5.6677   24.9085 C   0  0  0  0  0  0  0  0  0117  0  0
  -21.5973   -4.3067   24.7088 C   0  0  0  0  0  0  0  0  0118  0  0
  -21.8700   -3.8284   23.4282 C   0  0  0  0  0  0  0  0  0119  0  0
  -21.9144   -4.7056   22.3460 C   0  0  0  0  0  0  0  0  0120  0  0
  -22.8194  -13.5263   21.1763 C   0  0  0  0  0  0  0  0  0121  0  0
  -22.1559   -4.2206   21.1063 F   0  0  0  0  0  0  0  0  0122  0  0
  -21.5628   -3.4510   25.7555 F   0  0  0  0  0  0  0  0  0123  0  0
  -30.0261  -13.1803   20.4553 N   0  0  0  0  0  0  0  0  0124  0  0
  -26.2911  -12.9356   20.3443 N   0  0  0  0  0  0  0  0  0125  0  0
  -25.9236  -11.6675   20.5847 N   0  0  0  0  0  0  0  0  0126  0  0
  -22.0708  -12.7905   22.0005 N   0  0  0  0  0  0  0  0  0127  0  0
  -25.4117  -15.1773   20.4097 N   0  0  0  0  0  0  0  0  0128  0  0
  -31.7916  -14.6724   20.0536 O   0  0  0  0  0  0  0  0  0129  0  0
  -21.6670   -6.9022   21.4423 O   0  0  0  0  0  0  0  0  0130  0  0
  -22.3946  -14.5564   20.6568 O   0  0  0  0  0  0  0  0  0131  0  0
  -24.6048  -31.8614   23.2223 C   0  0  0  0  0  0  0  0  0100  0  0
  -25.8822  -32.4841   23.8616 C   0  0  1  0  0  0  0  0  0101  0  0
  -27.2536  -27.5042   20.1156 C   0  0  0  0  0  0  0  0  0102  0  0
  -25.5726  -33.8762   24.2210 N   0  0  0  0  0  0  0  0  0103  0  0
  -23.4066  -30.4859   21.5461 C   0  0  2  0  0  0  0  0  0104  0  0
  -24.8467  -28.9636   20.1247 C   0  0  0  0  0  0  0  0  0105  0  0
  -22.7412  -29.4652   22.5052 C   0  0  0  0  0  0  0  0  0106  0  0
  -18.0167  -28.1302   22.8626 C   0  0  0  0  0  0  0  0  0107  0  0
  -24.1342  -36.7390   23.2568 C   0  0  0  0  0  0  0  0  0108  0  0
  -25.9141  -30.8882   21.3456 C   0  0  0  0  0  0  0  0  0109  0  0
  -25.9930  -29.5029   20.7208 C   0  0  0  0  0  0  0  0  0110  0  0
  -27.1758  -28.7612   20.7331 C   0  0  0  0  0  0  0  0  0111  0  0
  -26.1032  -26.9836   19.5230 C   0  0  0  0  0  0  0  0  0112  0  0
  -24.9097  -27.7011   19.5331 C   0  0  0  0  0  0  0  0  0113  0  0
  -23.5715  -29.7899   20.1582 C   0  0  0  0  0  0  0  0  0114  0  0
  -25.3990  -36.3212   24.0232 C   0  0  1  0  0  0  0  0  0115  0  0
  -20.5793  -28.3813   23.1004 C   0  0  2  0  0  0  0  0  0116  0  0
  -20.6548  -26.9392   22.5411 C   0  0  0  0  0  0  0  0  0117  0  0
  -19.5615  -26.6407   21.5143 C   0  0  0  0  0  0  0  0  0118  0  0
  -18.1797  -26.7818   22.1673 C   0  0  0  0  0  0  0  0  0119  0  0
  -19.1385  -28.8769   23.2988 C   0  0  0  0  0  0  0  0  0120  0  0
  -18.9183  -30.1286   23.8878 C   0  0  0  0  0  0  0  0  0121  0  0
  -17.6396  -30.6493   24.0352 C   0  0  0  0  0  0  0  0  0122  0  0
  -25.9153  -34.9582   23.4993 C   0  0  0  0  0  0  0  0  0123  0  0
  -16.5415  -29.9068   23.6254 C   0  0  0  0  0  0  0  0  0124  0  0
  -16.7331  -28.6521   23.0586 C   0  0  0  0  0  0  0  0  0125  0  0
  -26.4583  -31.6439   25.0683 C   0  0  0  0  0  0  0  0  0126  0  0
  -25.3807  -31.3179   26.1374 C   0  0  0  0  0  0  0  0  0127  0  0
  -27.0530  -30.3024   24.5680 C   0  0  0  0  0  0  0  0  0128  0  0
  -27.6014  -32.4281   25.7651 C   0  0  0  0  0  0  0  0  0129  0  0
  -27.5629  -37.2220   24.8621 C   0  0  0  0  0  0  0  0  0130  0  0
  -21.4133  -29.3375   22.3735 N   0  0  0  0  0  0  0  0  0131  0  0
  -26.4706  -37.3372   23.9061 N   0  0  0  0  0  0  0  0  0132  0  0
  -24.6674  -31.0544   22.1178 N   0  0  0  0  0  0  0  0  0133  0  0
  -23.4259  -28.8150   23.2971 O   0  0  0  0  0  0  0  0  0134  0  0
  -28.3948  -26.7345   20.0089 O   0  0  0  0  0  0  0  0  0135  0  0
  -26.5870  -34.9065   22.4671 O   0  0  0  0  0  0  0  0  0136  0  0
  -23.5365  -32.1254   23.7833 O   0  0  0  0  0  0  0  0  0137  0  0
  -19.7117  -21.9621   23.5590 C   0  0  0  0  0  0  0  0  0  0  0  0
  -21.1135  -22.7586   25.1308 C   0  0  0  0  0  0  0  0  0  0  0  0
  -20.1274  -23.1305   24.2440 C   0  0  0  0  0  0  0  0  0  0  0  0
  -20.4564  -20.9117   24.0482 C   0  0  0  0  0  0  0  0  0  0  0  0
  -19.8593  -25.0384   22.6219 C   0  0  0  0  0  0  0  0  0  0  0  0
  -18.0969  -24.6795   24.3545 C   0  0  0  0  0  0  0  0  0  0  0  0
  -20.8152  -19.2250   22.2097 C   0  0  0  0  0  0  0  0  0  0  0  0
  -19.0675  -18.8093   23.9783 C   0  0  0  0  0  0  0  0  0  0  0  0
  -21.6708  -20.0929   27.0657 C   0  0  0  0  0  0  0  0  0  0  0  0
  -20.7561  -26.2572   22.5024 C   0  0  0  0  0  0  0  0  0  1  0  0
  -19.5866  -24.5350   24.0390 C   0  0  1  0  0  0  0  0  0  0  0  0
  -20.4290  -19.4798   23.6846 C   0  0  0  0  0  0  0  0  0  0  0  0
  -22.2621  -20.6386   25.7683 C   0  0  2  0  0  0  0  0  0  0  0  0
  -21.3050  -21.4075   25.0033 N   0  0  0  0  0  0  0  0  0  0  0  0
  -19.3683  -24.5022   21.6281 O   0  0  0  0  0  0  0  0  0  0  0  0
  -31.4485  -12.4701   19.0860 H   0  0  0  0  0  0  0  0  0  0  0  0
  -30.3970  -11.2460   19.6950 H   0  0  0  0  0  0  0  0  0  0  0  0
  -29.6870  -11.8204   17.4226 H   0  0  0  0  0  0  0  0  0  0  0  0
  -29.6375  -13.5326   17.8649 H   0  0  0  0  0  0  0  0  0  0  0  0
  -27.7830  -11.3650   18.7904 H   0  0  0  0  0  0  0  0  0  0  0  0
  -27.4028  -12.7801   17.8021 H   0  0  0  0  0  0  0  0  0  0  0  0
  -27.7353  -14.2503   19.6136 H   0  0  0  0  0  0  0  0  0  0  0  0
  -28.5890  -11.9550   21.3832 H   0  0  0  0  0  0  0  0  0  0  0  0
  -28.5005  -13.6134   21.8562 H   0  0  0  0  0  0  0  0  0  0  0  0
  -25.2399   -9.5495   22.4318 H   0  0  0  0  0  0  0  0  0  0  0  0
  -23.9663   -7.5070   22.7297 H   0  0  0  0  0  0  0  0  0  0  0  0
  -21.1515   -8.8641   19.9162 H   0  0  0  0  0  0  0  0  0  0  0  0
  -22.4016  -10.9115   19.6476 H   0  0  0  0  0  0  0  0  0  0  0  0
  -21.2319   -7.5552   23.9750 H   0  0  0  0  0  0  0  0  0  0  0  0
  -21.1589   -6.0228   25.8556 H   0  0  0  0  0  0  0  0  0  0  0  0
  -22.0396   -2.8212   23.2809 H   0  0  0  0  0  0  0  0  0  0  0  0
  -22.4401  -11.9703   22.4008 H   0  0  0  0  0  0  0  0  0  0  0  0
  -21.1493  -13.0679   22.2082 H   0  0  0  0  0  0  0  0  0  0  0  0
  -24.6538  -15.7807   20.5848 H   0  0  0  0  0  0  0  0  0  0  0  0
  -26.2762  -15.5453   20.1156 H   0  0  0  0  0  0  0  0  0  0  0  0
  -26.6778  -32.4663   23.1464 H   0  0  0  0  0  0  0  0  0  0  0  0
  -25.0747  -34.0282   25.0566 H   0  0  0  0  0  0  0  0  0  0  0  0
  -22.7881  -31.3489   21.4131 H   0  0  0  0  0  0  0  0  0  0  0  0
  -23.3854  -35.9823   23.3648 H   0  0  0  0  0  0  0  0  0  0  0  0
  -24.3696  -36.8624   22.2204 H   0  0  0  0  0  0  0  0  0  0  0  0
  -23.7669  -37.6632   23.6516 H   0  0  0  0  0  0  0  0  0  0  0  0
  -25.9445  -31.6237   20.5691 H   0  0  0  0  0  0  0  0  0  0  0  0
  -26.7436  -31.0079   22.0108 H   0  0  0  0  0  0  0  0  0  0  0  0
  -28.0090  -29.1452   21.2057 H   0  0  0  0  0  0  0  0  0  0  0  0
  -26.1369  -26.0560   19.0719 H   0  0  0  0  0  0  0  0  0  0  0  0
  -24.0652  -27.2961   19.0997 H   0  0  0  0  0  0  0  0  0  0  0  0
  -23.6156  -30.5365   19.3930 H   0  0  0  0  0  0  0  0  0  0  0  0
  -22.7355  -29.1425   19.9945 H   0  0  0  0  0  0  0  0  0  0  0  0
  -25.1353  -36.2335   25.0565 H   0  0  0  0  0  0  0  0  0  0  0  0
  -21.0070  -28.3206   24.0793 H   0  0  0  0  0  0  0  0  0  0  0  0
  -20.5555  -26.2518   23.3550 H   0  0  0  0  0  0  0  0  0  0  0  0
  -21.5974  -26.8362   22.0454 H   0  0  0  0  0  0  0  0  0  0  0  0
  -19.6810  -25.6422   21.1488 H   0  0  0  0  0  0  0  0  0  0  0  0
  -19.6406  -27.3343   20.7034 H   0  0  0  0  0  0  0  0  0  0  0  0
  -17.4282  -26.6888   21.4113 H   0  0  0  0  0  0  0  0  0  0  0  0
  -18.0803  -26.0130   22.9049 H   0  0  0  0  0  0  0  0  0  0  0  0
  -19.7265  -30.6774   24.2204 H   0  0  0  0  0  0  0  0  0  0  0  0
  -17.5064  -31.5856   24.4483 H   0  0  0  0  0  0  0  0  0  0  0  0
  -15.5878  -30.2839   23.7407 H   0  0  0  0  0  0  0  0  0  0  0  0
  -15.9120  -28.0941   22.7766 H   0  0  0  0  0  0  0  0  0  0  0  0
  -24.5787  -30.7757   25.6817 H   0  0  0  0  0  0  0  0  0  0  0  0
  -25.0041  -32.2289   26.5536 H   0  0  0  0  0  0  0  0  0  0  0  0
  -25.8166  -30.7245   26.9138 H   0  0  0  0  0  0  0  0  0  0  0  0
  -26.2892  -29.7335   24.0803 H   0  0  0  0  0  0  0  0  0  0  0  0
  -27.4336  -29.7484   25.4006 H   0  0  0  0  0  0  0  0  0  0  0  0
  -27.8466  -30.4994   23.8779 H   0  0  0  0  0  0  0  0  0  0  0  0
  -27.2251  -33.3632   26.1242 H   0  0  0  0  0  0  0  0  0  0  0  0
  -28.3902  -32.6065   25.0645 H   0  0  0  0  0  0  0  0  0  0  0  0
  -27.9772  -31.8555   26.5872 H   0  0  0  0  0  0  0  0  0  0  0  0
  -28.2744  -38.0016   24.6863 H   0  0  0  0  0  0  0  0  0  0  0  0
  -28.0396  -36.2711   24.7461 H   0  0  0  0  0  0  0  0  0  0  0  0
  -27.1773  -37.3087   25.8564 H   0  0  0  0  0  0  0  0  0  0  0  0
  -20.9627  -29.9365   21.7352 H   0  0  0  0  0  0  0  0  0  0  0  0
  -26.0447  -38.2561   24.0273 H   0  0  0  0  0  0  0  0  0  0  0  0
  -18.9850  -21.9080   22.8283 H   0  0  0  0  0  0  0  0  0  0  0  0
  -21.6184  -23.3858   25.7764 H   0  0  0  0  0  0  0  0  0  0  0  0
  -17.9066  -24.3269   25.3467 H   0  0  0  0  0  0  0  0  0  0  0  0
  -17.5268  -24.1035   23.6558 H   0  0  0  0  0  0  0  0  0  0  0  0
  -17.8151  -25.7092   24.2817 H   0  0  0  0  0  0  0  0  0  0  0  0
  -21.7574  -19.6878   22.0027 H   0  0  0  0  0  0  0  0  0  0  0  0
  -20.0657  -19.6392   21.5681 H   0  0  0  0  0  0  0  0  0  0  0  0
  -20.8897  -18.1716   22.0374 H   0  0  0  0  0  0  0  0  0  0  0  0
  -18.7968  -18.9836   24.9987 H   0  0  0  0  0  0  0  0  0  0  0  0
  -19.1436  -17.7563   23.8044 H   0  0  0  0  0  0  0  0  0  0  0  0
  -18.3196  -19.2239   23.3351 H   0  0  0  0  0  0  0  0  0  0  0  0
  -20.9119  -20.7590   27.4197 H   0  0  0  0  0  0  0  0  0  0  0  0
  -22.4428  -20.0084   27.8017 H   0  0  0  0  0  0  0  0  0  0  0  0
  -21.2432  -19.1288   26.8850 H   0  0  0  0  0  0  0  0  0  0  0  0
  -20.7733  -26.6710   23.4890 H   0  0  0  0  0  0  0  0  0  0  0  0
  -20.2922  -26.6997   21.6457 H   0  0  0  0  0  0  0  0  0  0  0  0
  -20.1165  -25.1390   24.7456 H   0  0  0  0  0  0  0  0  0  0  0  0
  -21.1706  -19.0311   24.3120 H   0  0  0  0  0  0  0  0  0  0  0  0
  -22.9588  -21.4130   26.0128 H   0  0  0  0  0  0  0  0  0  0  0  0
  1 25  1  0
  1 30  2  0
  1 83  1  0
  2  3  1  0
  2 25  1  0
  2 86  1  0
  2 87  1  0
  3  4  1  0
  3 88  1  0
  3 89  1  0
  4  5  1  0
  4 90  1  0
  4 91  1  0
  5  6  1  0
  5 26  1  0
  5 92  1  6
  6 25  1  0
  6 93  1  0
  6 94  1  0
  7  8  2  0
  7 26  1  0
  7 29  1  0
  8  9  1  0
  8 22  1  0
  9 10  1  0
  9 27  2  0
 10 11  2  0
 10 15  1  0
 11 12  1  0
 11 95  1  0
 12 13  2  0
 12 96  1  0
 13 14  1  0
 13 31  1  0
 14 15  2  0
 14 97  1  0
 15 98  1  0
 16 17  2  0
 16 21  1  0
 16 31  1  0
 17 18  1  0
 17 99  1  0
 18 19  2  0
 18100  1  0
 19 20  1  0
 19 24  1  0
 20 21  2  0
 20101  1  0
 21 23  1  0
 22 28  1  0
 22 32  2  0
 26 27  1  0
 28102  1  0
 28103  1  0
 29104  1  0
 29105  1  0
 33 34  1  0
 33 66  1  0
 33 70  2  0
 34 36  1  0
 34 59  1  0
 34106  1  6
 35 44  2  0
 35 45  1  0
 35 68  1  0
 36 56  1  0
 36107  1  0
 37 39  1  0
 37 47  1  0
 37 66  1  0
 37108  1  6
 38 43  2  0
 38 46  1  0
 38 47  1  0
 39 64  1  0
 39 67  2  0
 40 52  1  0
 40 53  2  0
 40 58  1  0
 41109  1  0
 41110  1  0
 41111  1  0
 42 43  1  0
 42 66  1  0
 42112  1  0
 42113  1  0
 43 44  1  0
 44114  1  0
 45 46  2  0
 45115  1  0
 46116  1  0
 47117  1  0
 47118  1  0
 48 41  1  0
 48 56  1  0
 48 65  1  0
 48119  1  1
 49 50  1  0
 49 53  1  0
 49 64  1  0
 49120  1  1
 50 51  1  0
 50121  1  0
 50122  1  0
 51 52  1  0
 51123  1  0
 51124  1  0
 52125  1  0
 52126  1  0
 53 54  1  0
 54 55  2  0
 54127  1  0
 55 57  1  0
 55128  1  0
 56 69  2  0
 57 58  2  0
 57129  1  0
 58130  1  0
 59 60  1  0
 59 61  1  0
 59 62  1  0
 60131  1  0
 60132  1  0
 60133  1  0
 61134  1  0
 61135  1  0
 61136  1  0
 62137  1  0
 62138  1  0
 62139  1  0
 63 65  1  0
 63140  1  0
 63141  1  0
 63142  1  0
 64143  1  0
 65144  1  0
 68 80  1  0
 71 73  1  0
 71 74  2  0
 71145  1  0
 72 73  2  0
 72 84  1  0
 72146  1  0
 73 81  1  0
 74 82  1  0
 74 84  1  0
 75 80  1  0
 75 81  1  0
 75 85  2  0
 76147  1  0
 76148  1  0
 76149  1  0
 77150  1  0
 77151  1  0
 77152  1  0
 78 82  1  0
 78153  1  0
 78154  1  0
 78155  1  0
 79156  1  0
 79157  1  0
 79158  1  0
 80159  1  0
 80160  1  0
 81 76  1  0
 81161  1  1
 82 77  1  0
 82162  1  0
 83 79  1  0
 83 84  1  0
 83163  1  1
M  ISO  4   1 100  68 101  80 101  83 100
M  END
$$$$
34
     RDKit          3D

166174  0  0  0  0  0  0  0  0999 V2000
  -30.7652  -14.3608   20.6636 C   0  0  0  0  0  0  0  0  0100  0  0
  -30.4392  -12.2669   19.3775 C   0  0  0  0  0  0  0  0  0101  0  0
  -29.4791  -12.5281   18.1977 C   0  0  0  0  0  0  0  0  0102  0  0
  -27.9985  -12.3963   18.6038 C   0  0  0  0  0  0  0  0  0103  0  0
  -27.6639  -13.2170   19.8820 C   0  0  2  0  0  0  0  0  0104  0  0
  -28.6795  -12.9602   21.0279 C   0  0  0  0  0  0  0  0  0105  0  0
  -25.2633  -13.8245   20.5754 C   0  0  0  0  0  0  0  0  0106  0  0
  -24.1645  -13.0409   20.9408 C   0  0  0  0  0  0  0  0  0107  0  0
  -24.6400  -11.7009   20.8697 C   0  0  0  0  0  0  0  0  0108  0  0
  -23.9005  -10.4085   21.0420 C   0  0  0  0  0  0  0  0  0109  0  0
  -24.3588   -9.4123   21.9123 C   0  0  0  0  0  0  0  0  0110  0  0
  -23.6296   -8.2350   22.0803 C   0  0  0  0  0  0  0  0  0111  0  0
  -22.4385   -8.0419   21.3657 C   0  0  0  0  0  0  0  0  0112  0  0
  -22.0103   -9.0167   20.4678 C   0  0  0  0  0  0  0  0  0113  0  0
  -22.7317  -10.1925   20.3102 C   0  0  0  0  0  0  0  0  0114  0  0
  -21.6857   -6.0709   22.5391 C   0  0  0  0  0  0  0  0  0115  0  0
  -21.4064   -6.5490   23.8264 C   0  0  0  0  0  0  0  0  0116  0  0
  -21.3635   -5.6677   24.9085 C   0  0  0  0  0  0  0  0  0117  0  0
  -21.5973   -4.3067   24.7088 C   0  0  0  0  0  0  0  0  0118  0  0
  -21.8700   -3.8284   23.4282 C   0  0  0  0  0  0  0  0  0119  0  0
  -21.9144   -4.7056   22.3460 C   0  0  0  0  0  0  0  0  0120  0  0
  -22.8194  -13.5263   21.1763 C   0  0  0  0  0  0  0  0  0121  0  0
  -22.1559   -4.2206   21.1063 F   0  0  0  0  0  0  0  0  0122  0  0
  -21.5628   -3.4510   25.7555 F   0  0  0  0  0  0  0  0  0123  0  0
  -30.0261  -13.1803   20.4553 N   0  0  0  0  0  0  0  0  0124  0  0
  -26.2911  -12.9356   20.3443 N   0  0  0  0  0  0  0  0  0125  0  0
  -25.9236  -11.6675   20.5847 N   0  0  0  0  0  0  0  0  0126  0  0
  -22.0708  -12.7905   22.0005 N   0  0  0  0  0  0  0  0  0127  0  0
  -25.4117  -15.1773   20.4097 N   0  0  0  0  0  0  0  0  0128  0  0
  -31.7916  -14.6724   20.0536 O   0  0  0  0  0  0  0  0  0129  0  0
  -21.6670   -6.9022   21.4423 O   0  0  0  0  0  0  0  0  0130  0  0
  -22.3946  -14.5564   20.6568 O   0  0  0  0  0  0  0  0  0131  0  0
  -24.6048  -31.8614   23.2223 C   0  0  0  0  0  0  0  0  0100  0  0
  -25.8822  -32.4841   23.8616 C   0  0  1  0  0  0  0  0  0101  0  0
  -27.2536  -27.5042   20.1156 C   0  0  0  0  0  0  0  0  0102  0  0
  -25.5726  -33.8762   24.2210 N   0  0  0  0  0  0  0  0  0103  0  0
  -23.4066  -30.4859   21.5461 C   0  0  2  0  0  0  0  0  0104  0  0
  -24.8467  -28.9636   20.1247 C   0  0  0  0  0  0  0  0  0105  0  0
  -22.7412  -29.4652   22.5052 C   0  0  0  0  0  0  0  0  0106  0  0
  -18.0167  -28.1302   22.8626 C   0  0  0  0  0  0  0  0  0107  0  0
  -24.1342  -36.7390   23.2568 C   0  0  0  0  0  0  0  0  0108  0  0
  -25.9141  -30.8882   21.3456 C   0  0  0  0  0  0  0  0  0109  0  0
  -25.9930  -29.5029   20.7208 C   0  0  0  0  0  0  0  0  0110  0  0
  -27.1758  -28.7612   20.7331 C   0  0  0  0  0  0  0  0  0111  0  0
  -26.1032  -26.9836   19.5230 C   0  0  0  0  0  0  0  0  0112  0  0
  -24.9097  -27.7011   19.5331 C   0  0  0  0  0  0  0  0  0113  0  0
  -23.5715  -29.7899   20.1582 C   0  0  0  0  0  0  0  0  0114  0  0
  -25.3990  -36.3212   24.0232 C   0  0  1  0  0  0  0  0  0115  0  0
  -20.5793  -28.3813   23.1004 C   0  0  2  0  0  0  0  0  0116  0  0
  -20.6548  -26.9392   22.5411 C   0  0  0  0  0  0  0  0  0117  0  0
  -19.5615  -26.6407   21.5143 C   0  0  0  0  0  0  0  0  0118  0  0
  -18.1797  -26.7818   22.1673 C   0  0  0  0  0  0  0  0  0119  0  0
  -19.1385  -28.8769   23.2988 C   0  0  0  0  0  0  0  0  0120  0  0
  -18.9183  -30.1286   23.8878 C   0  0  0  0  0  0  0  0  0121  0  0
  -17.6396  -30.6493   24.0352 C   0  0  0  0  0  0  0  0  0122  0  0
  -25.9153  -34.9582   23.4993 C   0  0  0  0  0  0  0  0  0123  0  0
  -16.5415  -29.9068   23.6254 C   0  0  0  0  0  0  0  0  0124  0  0
  -16.7331  -28.6521   23.0586 C   0  0  0  0  0  0  0  0  0125  0  0
  -26.4583  -31.6439   25.0683 C   0  0  0  0  0  0  0  0  0126  0  0
  -25.3807  -31.3179   26.1374 C   0  0  0  0  0  0  0  0  0127  0  0
  -27.0530  -30.3024   24.5680 C   0  0  0  0  0  0  0  0  0128  0  0
  -27.6014  -32.4281   25.7651 C   0  0  0  0  0  0  0  0  0129  0  0
  -27.5629  -37.2220   24.8621 C   0  0  0  0  0  0  0  0  0130  0  0
  -21.4133  -29.3375   22.3735 N   0  0  0  0  0  0  0  0  0131  0  0
  -26.4706  -37.3372   23.9061 N   0  0  0  0  0  0  0  0  0132  0  0
  -24.6674  -31.0544   22.1178 N   0  0  0  0  0  0  0  0  0133  0  0
  -23.4259  -28.8150   23.2971 O   0  0  0  0  0  0  0  0  0134  0  0
  -28.3948  -26.7345   20.0089 O   0  0  0  0  0  0  0  0  0135  0  0
  -26.5870  -34.9065   22.4671 O   0  0  0  0  0  0  0  0  0136  0  0
  -23.5365  -32.1254   23.7833 O   0  0  0  0  0  0  0  0  0137  0  0
  -30.8796  -21.3163   19.8366 C   0  0  0  0  0  0  0  0  0  0  0  0
  -31.4693  -22.7297   17.5048 C   0  0  0  0  0  0  0  0  0  0  0  0
  -30.0177  -22.3188   19.3919 C   0  0  0  0  0  0  0  0  0  0  0  0
  -32.0364  -21.0205   19.1154 C   0  0  0  0  0  0  0  0  0  0  0  0
  -30.3126  -23.0255   18.2260 C   0  0  0  0  0  0  0  0  0  0  0  0
  -32.3313  -21.7272   17.9495 C   0  0  0  0  0  0  0  0  0  0  0  0
  -28.8182  -22.6039   20.1693 C   0  0  0  0  0  0  0  0  0  0  0  0
  -31.4739  -17.9831   20.3033 C   0  0  0  0  0  0  0  0  0  0  0  0
  -28.2060  -21.4691   20.9349 C   0  0  0  0  0  0  0  0  0  0  0  0
  -31.9767  -18.3443   17.8616 C   0  0  0  0  0  0  0  0  0  0  0  0
  -33.7853  -17.5691   19.3695 C   0  0  0  0  0  0  0  0  0  0  0  0
  -32.9678  -19.9328   19.5999 C   0  0  0  0  0  0  0  0  0  0  0  0
  -31.8128  -18.0476   21.7920 C   0  0  0  0  0  0  0  0  0  0  0  0
  -30.7018  -17.5021   22.6797 C   0  0  0  0  0  0  0  0  0  1  0  0
  -32.5390  -18.4729   19.2920 C   0  0  0  0  0  0  0  0  0  0  0  0
  -29.4523  -24.0483   17.7553 N   0  0  0  0  0  0  0  0  0  0  0  0
  -28.2703  -23.7040   20.2389 O   0  0  0  0  0  0  0  0  0  0  0  0
  -30.3754  -17.5722   19.9209 O   0  0  0  0  0  0  0  0  0  0  0  0
  -33.4416  -21.4516   17.2510 F   0  0  0  0  0  0  0  0  0  0  0  0
  -31.4485  -12.4701   19.0860 H   0  0  0  0  0  0  0  0  0  0  0  0
  -30.3970  -11.2460   19.6950 H   0  0  0  0  0  0  0  0  0  0  0  0
  -29.6870  -11.8204   17.4226 H   0  0  0  0  0  0  0  0  0  0  0  0
  -29.6375  -13.5326   17.8649 H   0  0  0  0  0  0  0  0  0  0  0  0
  -27.7830  -11.3650   18.7904 H   0  0  0  0  0  0  0  0  0  0  0  0
  -27.4028  -12.7801   17.8021 H   0  0  0  0  0  0  0  0  0  0  0  0
  -27.7353  -14.2503   19.6136 H   0  0  0  0  0  0  0  0  0  0  0  0
  -28.5890  -11.9550   21.3832 H   0  0  0  0  0  0  0  0  0  0  0  0
  -28.5005  -13.6134   21.8562 H   0  0  0  0  0  0  0  0  0  0  0  0
  -25.2399   -9.5495   22.4318 H   0  0  0  0  0  0  0  0  0  0  0  0
  -23.9663   -7.5070   22.7297 H   0  0  0  0  0  0  0  0  0  0  0  0
  -21.1515   -8.8641   19.9162 H   0  0  0  0  0  0  0  0  0  0  0  0
  -22.4016  -10.9115   19.6476 H   0  0  0  0  0  0  0  0  0  0  0  0
  -21.2319   -7.5552   23.9750 H   0  0  0  0  0  0  0  0  0  0  0  0
  -21.1589   -6.0228   25.8556 H   0  0  0  0  0  0  0  0  0  0  0  0
  -22.0396   -2.8212   23.2809 H   0  0  0  0  0  0  0  0  0  0  0  0
  -22.4401  -11.9703   22.4008 H   0  0  0  0  0  0  0  0  0  0  0  0
  -21.1493  -13.0679   22.2082 H   0  0  0  0  0  0  0  0  0  0  0  0
  -24.6538  -15.7807   20.5848 H   0  0  0  0  0  0  0  0  0  0  0  0
  -26.2762  -15.5453   20.1156 H   0  0  0  0  0  0  0  0  0  0  0  0
  -26.6778  -32.4663   23.1464 H   0  0  0  0  0  0  0  0  0  0  0  0
  -25.0747  -34.0282   25.0566 H   0  0  0  0  0  0  0  0  0  0  0  0
  -22.7881  -31.3489   21.4131 H   0  0  0  0  0  0  0  0  0  0  0  0
  -23.3854  -35.9823   23.3648 H   0  0  0  0  0  0  0  0  0  0  0  0
  -24.3696  -36.8624   22.2204 H   0  0  0  0  0  0  0  0  0  0  0  0
  -23.7669  -37.6632   23.6516 H   0  0  0  0  0  0  0  0  0  0  0  0
  -25.9445  -31.6237   20.5691 H   0  0  0  0  0  0  0  0  0  0  0  0
  -26.7436  -31.0079   22.0108 H   0  0  0  0  0  0  0  0  0  0  0  0
  -28.0090  -29.1452   21.2057 H   0  0  0  0  0  0  0  0  0  0  0  0
  -26.1369  -26.0560   19.0719 H   0  0  0  0  0  0  0  0  0  0  0  0
  -24.0652  -27.2961   19.0997 H   0  0  0  0  0  0  0  0  0  0  0  0
  -23.6156  -30.5365   19.3930 H   0  0  0  0  0  0  0  0  0  0  0  0
  -22.7355  -29.1425   19.9945 H   0  0  0  0  0  0  0  0  0  0  0  0
  -25.1353  -36.2335   25.0565 H   0  0  0  0  0  0  0  0  0  0  0  0
  -21.0070  -28.3206   24.0793 H   0  0  0  0  0  0  0  0  0  0  0  0
  -20.5555  -26.2518   23.3550 H   0  0  0  0  0  0  0  0  0  0  0  0
  -21.5974  -26.8362   22.0454 H   0  0  0  0  0  0  0  0  0  0  0  0
  -19.6810  -25.6422   21.1488 H   0  0  0  0  0  0  0  0  0  0  0  0
  -19.6406  -27.3343   20.7034 H   0  0  0  0  0  0  0  0  0  0  0  0
  -17.4282  -26.6888   21.4113 H   0  0  0  0  0  0  0  0  0  0  0  0
  -18.0803  -26.0130   22.9049 H   0  0  0  0  0  0  0  0  0  0  0  0
  -19.7265  -30.6774   24.2204 H   0  0  0  0  0  0  0  0  0  0  0  0
  -17.5064  -31.5856   24.4483 H   0  0  0  0  0  0  0  0  0  0  0  0
  -15.5878  -30.2839   23.7407 H   0  0  0  0  0  0  0  0  0  0  0  0
  -15.9120  -28.0941   22.7766 H   0  0  0  0  0  0  0  0  0  0  0  0
  -24.5787  -30.7757   25.6817 H   0  0  0  0  0  0  0  0  0  0  0  0
  -25.0041  -32.2289   26.5536 H   0  0  0  0  0  0  0  0  0  0  0  0
  -25.8166  -30.7245   26.9138 H   0  0  0  0  0  0  0  0  0  0  0  0
  -26.2892  -29.7335   24.0803 H   0  0  0  0  0  0  0  0  0  0  0  0
  -27.4336  -29.7484   25.4006 H   0  0  0  0  0  0  0  0  0  0  0  0
  -27.8466  -30.4994   23.8779 H   0  0  0  0  0  0  0  0  0  0  0  0
  -27.2251  -33.3632   26.1242 H   0  0  0  0  0  0  0  0  0  0  0  0
  -28.3902  -32.6065   25.0645 H   0  0  0  0  0  0  0  0  0  0  0  0
  -27.9772  -31.8555   26.5872 H   0  0  0  0  0  0  0  0  0  0  0  0
  -28.2744  -38.0016   24.6863 H   0  0  0  0  0  0  0  0  0  0  0  0
  -28.0396  -36.2711   24.7461 H   0  0  0  0  0  0  0  0  0  0  0  0
  -27.1773  -37.3087   25.8564 H   0  0  0  0  0  0  0  0  0  0  0  0
  -20.9627  -29.9365   21.7352 H   0  0  0  0  0  0  0  0  0  0  0  0
  -26.0447  -38.2561   24.0273 H   0  0  0  0  0  0  0  0  0  0  0  0
  -30.6615  -20.7934   20.6992 H   0  0  0  0  0  0  0  0  0  0  0  0
  -31.6874  -23.2525   16.6422 H   0  0  0  0  0  0  0  0  0  0  0  0
  -28.7845  -20.5822   20.7815 H   0  0  0  0  0  0  0  0  0  0  0  0
  -27.2056  -21.3061   20.5920 H   0  0  0  0  0  0  0  0  0  0  0  0
  -28.1910  -21.7093   21.9775 H   0  0  0  0  0  0  0  0  0  0  0  0
  -31.6909  -17.3292   17.6806 H   0  0  0  0  0  0  0  0  0  0  0  0
  -32.7268  -18.6349   17.1560 H   0  0  0  0  0  0  0  0  0  0  0  0
  -31.1223  -18.9796   17.7558 H   0  0  0  0  0  0  0  0  0  0  0  0
  -33.5061  -16.5578   19.1594 H   0  0  0  0  0  0  0  0  0  0  0  0
  -34.2067  -17.6261   20.3514 H   0  0  0  0  0  0  0  0  0  0  0  0
  -34.5082  -17.8961   18.6516 H   0  0  0  0  0  0  0  0  0  0  0  0
  -33.0573  -20.0293   20.6618 H   0  0  0  0  0  0  0  0  0  0  0  0
  -33.8823  -20.0806   19.0644 H   0  0  0  0  0  0  0  0  0  0  0  0
  -31.9907  -19.0688   22.0572 H   0  0  0  0  0  0  0  0  0  0  0  0
  -32.6774  -17.4373   21.9501 H   0  0  0  0  0  0  0  0  0  0  0  0
  -30.9264  -17.3185   23.7096 H   0  0  0  0  0  0  0  0  0  0  0  0
  -30.1335  -16.5998   22.5915 H   0  0  0  0  0  0  0  0  0  0  0  0
  -29.0765  -24.9019   17.4401 H   0  0  0  0  0  0  0  0  0  0  0  0
  1 25  1  0
  1 30  2  0
  1 86  1  0
  2  3  1  0
  2 25  1  0
  2 90  1  0
  2 91  1  0
  3  4  1  0
  3 92  1  0
  3 93  1  0
  4  5  1  0
  4 94  1  0
  4 95  1  0
  5  6  1  0
  5 26  1  0
  5 96  1  6
  6 25  1  0
  6 97  1  0
  6 98  1  0
  7  8  2  0
  7 26  1  0
  7 29  1  0
  8  9  1  0
  8 22  1  0
  9 10  1  0
  9 27  2  0
 10 11  2  0
 10 15  1  0
 11 12  1  0
 11 99  1  0
 12 13  2  0
 12100  1  0
 13 14  1  0
 13 31  1  0
 14 15  2  0
 14101  1  0
 15102  1  0
 16 17  2  0
 16 21  1  0
 16 31  1  0
 17 18  1  0
 17103  1  0
 18 19  2  0
 18104  1  0
 19 20  1  0
 19 24  1  0
 20 21  2  0
 20105  1  0
 21 23  1  0
 22 28  1  0
 22 32  2  0
 26 27  1  0
 28106  1  0
 28107  1  0
 29108  1  0
 29109  1  0
 33 34  1  0
 33 66  1  0
 33 70  2  0
 34 36  1  0
 34 59  1  0
 34110  1  6
 35 44  2  0
 35 45  1  0
 35 68  1  0
 36 56  1  0
 36111  1  0
 37 39  1  0
 37 47  1  0
 37 66  1  0
 37112  1  6
 38 43  2  0
 38 46  1  0
 38 47  1  0
 39 64  1  0
 39 67  2  0
 40 52  1  0
 40 53  2  0
 40 58  1  0
 41113  1  0
 41114  1  0
 41115  1  0
 42 43  1  0
 42 66  1  0
 42116  1  0
 42117  1  0
 43 44  1  0
 44118  1  0
 45 46  2  0
 45119  1  0
 46120  1  0
 47121  1  0
 47122  1  0
 48 41  1  0
 48 56  1  0
 48 65  1  0
 48123  1  1
 49 50  1  0
 49 53  1  0
 49 64  1  0
 49124  1  1
 50 51  1  0
 50125  1  0
 50126  1  0
 51 52  1  0
 51127  1  0
 51128  1  0
 52129  1  0
 52130  1  0
 53 54  1  0
 54 55  2  0
 54131  1  0
 55 57  1  0
 55132  1  0
 56 69  2  0
 57 58  2  0
 57133  1  0
 58134  1  0
 59 60  1  0
 59 61  1  0
 59 62  1  0
 60135  1  0
 60136  1  0
 60137  1  0
 61138  1  0
 61139  1  0
 61140  1  0
 62141  1  0
 62142  1  0
 62143  1  0
 63 65  1  0
 63144  1  0
 63145  1  0
 63146  1  0
 64147  1  0
 65148  1  0
 68 84  1  0
 71 73  2  0
 71 74  1  0
 71149  1  0
 72 75  2  0
 72 76  1  0
 72150  1  0
 73 75  1  0
 73 77  1  0
 74 76  2  0
 74 82  1  0
 75 86  1  0
 76 89  1  0
 77 79  1  0
 77 87  2  0
 78 83  1  0
 78 85  1  0
 78 88  2  0
 79151  1  0
 79152  1  0
 79153  1  0
 80154  1  0
 80155  1  0
 80156  1  0
 81 85  1  0
 81157  1  0
 81158  1  0
 81159  1  0
 82 85  1  0
 82160  1  0
 82161  1  0
 83 84  1  0
 83162  1  0
 83163  1  0
 84164  1  0
 84165  1  0
 85 80  1  0
 86166  1  0
M  ISO  4   1 100  68 101  84 101  86 100
M  END
$$$$
35
     RDKit          3D

171179  0  0  0  0  0  0  0  0999 V2000
  -30.7652  -14.3608   20.6636 C   0  0  0  0  0  0  0  0  0100  0  0
  -30.4392  -12.2669   19.3775 C   0  0  0  0  0  0  0  0  0101  0  0
  -29.4791  -12.5281   18.1977 C   0  0  0  0  0  0  0  0  0102  0  0
  -27.9985  -12.3963   18.6038 C   0  0  0  0  0  0  0  0  0103  0  0
  -27.6639  -13.2170   19.8820 C   0  0  2  0  0  0  0  0  0104  0  0
  -28.6795  -12.9602   21.0279 C   0  0  0  0  0  0  0  0  0105  0  0
  -25.2633  -13.8245   20.5754 C   0  0  0  0  0  0  0  0  0106  0  0
  -24.1645  -13.0409   20.9408 C   0  0  0  0  0  0  0  0  0107  0  0
  -24.6400  -11.7009   20.8697 C   0  0  0  0  0  0  0  0  0108  0  0
  -23.9005  -10.4085   21.0420 C   0  0  0  0  0  0  0  0  0109  0  0
  -24.3588   -9.4123   21.9123 C   0  0  0  0  0  0  0  0  0110  0  0
  -23.6296   -8.2350   22.0803 C   0  0  0  0  0  0  0  0  0111  0  0
  -22.4385   -8.0419   21.3657 C   0  0  0  0  0  0  0  0  0112  0  0
  -22.0103   -9.0167   20.4678 C   0  0  0  0  0  0  0  0  0113  0  0
  -22.7317  -10.1925   20.3102 C   0  0  0  0  0  0  0  0  0114  0  0
  -21.6857   -6.0709   22.5391 C   0  0  0  0  0  0  0  0  0115  0  0
  -21.4064   -6.5490   23.8264 C   0  0  0  0  0  0  0  0  0116  0  0
  -21.3635   -5.6677   24.9085 C   0  0  0  0  0  0  0  0  0117  0  0
  -21.5973   -4.3067   24.7088 C   0  0  0  0  0  0  0  0  0118  0  0
  -21.8700   -3.8284   23.4282 C   0  0  0  0  0  0  0  0  0119  0  0
  -21.9144   -4.7056   22.3460 C   0  0  0  0  0  0  0  0  0120  0  0
  -22.8194  -13.5263   21.1763 C   0  0  0  0  0  0  0  0  0121  0  0
  -22.1559   -4.2206   21.1063 F   0  0  0  0  0  0  0  0  0122  0  0
  -21.5628   -3.4510   25.7555 F   0  0  0  0  0  0  0  0  0123  0  0
  -30.0261  -13.1803   20.4553 N   0  0  0  0  0  0  0  0  0124  0  0
  -26.2911  -12.9356   20.3443 N   0  0  0  0  0  0  0  0  0125  0  0
  -25.9236  -11.6675   20.5847 N   0  0  0  0  0  0  0  0  0126  0  0
  -22.0708  -12.7905   22.0005 N   0  0  0  0  0  0  0  0  0127  0  0
  -25.4117  -15.1773   20.4097 N   0  0  0  0  0  0  0  0  0128  0  0
  -31.7916  -14.6724   20.0536 O   0  0  0  0  0  0  0  0  0129  0  0
  -21.6670   -6.9022   21.4423 O   0  0  0  0  0  0  0  0  0130  0  0
  -22.3946  -14.5564   20.6568 O   0  0  0  0  0  0  0  0  0131  0  0
  -24.6048  -31.8614   23.2223 C   0  0  0  0  0  0  0  0  0100  0  0
  -25.8822  -32.4841   23.8616 C   0  0  1  0  0  0  0  0  0101  0  0
  -27.2536  -27.5042   20.1156 C   0  0  0  0  0  0  0  0  0102  0  0
  -25.5726  -33.8762   24.2210 N   0  0  0  0  0  0  0  0  0103  0  0
  -23.4066  -30.4859   21.5461 C   0  0  2  0  0  0  0  0  0104  0  0
  -24.8467  -28.9636   20.1247 C   0  0  0  0  0  0  0  0  0105  0  0
  -22.7412  -29.4652   22.5052 C   0  0  0  0  0  0  0  0  0106  0  0
  -18.0167  -28.1302   22.8626 C   0  0  0  0  0  0  0  0  0107  0  0
  -24.1342  -36.7390   23.2568 C   0  0  0  0  0  0  0  0  0108  0  0
  -25.9141  -30.8882   21.3456 C   0  0  0  0  0  0  0  0  0109  0  0
  -25.9930  -29.5029   20.7208 C   0  0  0  0  0  0  0  0  0110  0  0
  -27.1758  -28.7612   20.7331 C   0  0  0  0  0  0  0  0  0111  0  0
  -26.1032  -26.9836   19.5230 C   0  0  0  0  0  0  0  0  0112  0  0
  -24.9097  -27.7011   19.5331 C   0  0  0  0  0  0  0  0  0113  0  0
  -23.5715  -29.7899   20.1582 C   0  0  0  0  0  0  0  0  0114  0  0
  -25.3990  -36.3212   24.0232 C   0  0  1  0  0  0  0  0  0115  0  0
  -20.5793  -28.3813   23.1004 C   0  0  2  0  0  0  0  0  0116  0  0
  -20.6548  -26.9392   22.5411 C   0  0  0  0  0  0  0  0  0117  0  0
  -19.5615  -26.6407   21.5143 C   0  0  0  0  0  0  0  0  0118  0  0
  -18.1797  -26.7818   22.1673 C   0  0  0  0  0  0  0  0  0119  0  0
  -19.1385  -28.8769   23.2988 C   0  0  0  0  0  0  0  0  0120  0  0
  -18.9183  -30.1286   23.8878 C   0  0  0  0  0  0  0  0  0121  0  0
  -17.6396  -30.6493   24.0352 C   0  0  0  0  0  0  0  0  0122  0  0
  -25.9153  -34.9582   23.4993 C   0  0  0  0  0  0  0  0  0123  0  0
  -16.5415  -29.9068   23.6254 C   0  0  0  0  0  0  0  0  0124  0  0
  -16.7331  -28.6521   23.0586 C   0  0  0  0  0  0  0  0  0125  0  0
  -26.4583  -31.6439   25.0683 C   0  0  0  0  0  0  0  0  0126  0  0
  -25.3807  -31.3179   26.1374 C   0  0  0  0  0  0  0  0  0127  0  0
  -27.0530  -30.3024   24.5680 C   0  0  0  0  0  0  0  0  0128  0  0
  -27.6014  -32.4281   25.7651 C   0  0  0  0  0  0  0  0  0129  0  0
  -27.5629  -37.2220   24.8621 C   0  0  0  0  0  0  0  0  0130  0  0
  -21.4133  -29.3375   22.3735 N   0  0  0  0  0  0  0  0  0131  0  0
  -26.4706  -37.3372   23.9061 N   0  0  0  0  0  0  0  0  0132  0  0
  -24.6674  -31.0544   22.1178 N   0  0  0  0  0  0  0  0  0133  0  0
  -23.4259  -28.8150   23.2971 O   0  0  0  0  0  0  0  0  0134  0  0
  -28.3948  -26.7345   20.0089 O   0  0  0  0  0  0  0  0  0135  0  0
  -26.5870  -34.9065   22.4671 O   0  0  0  0  0  0  0  0  0136  0  0
  -23.5365  -32.1254   23.7833 O   0  0  0  0  0  0  0  0  0137  0  0
  -24.9926  -22.3973   23.1762 C   0  0  0  0  0  0  0  0  0  0  0  0
  -24.8679  -21.5628   22.0656 C   0  0  0  0  0  0  0  0  0  0  0  0
  -25.8710  -20.5517   24.4644 C   0  0  0  0  0  0  0  0  0  0  0  0
  -25.4942  -21.8918   24.3756 C   0  0  0  0  0  0  0  0  0  0  0  0
  -25.2447  -20.2227   22.1543 C   0  0  0  0  0  0  0  0  0  0  0  0
  -25.7463  -19.7172   23.3537 C   0  0  0  0  0  0  0  0  0  0  0  0
  -25.0992  -19.3517   20.9488 C   0  0  0  0  0  0  0  0  0  0  0  0
  -29.4520  -23.2200   26.5649 C   0  0  0  0  0  0  0  0  0  0  0  0
  -27.4735  -24.0692   24.3762 C   0  0  0  0  0  0  0  0  0  0  0  0
  -24.9082  -24.1394   28.3080 C   0  0  0  0  0  0  0  0  0  0  0  0
  -27.3176  -24.0115   28.9230 C   0  0  0  0  0  0  0  0  0  0  0  0
  -25.6293  -22.7981   25.5802 C   0  0  0  0  0  0  0  0  0  0  0  0
  -28.0684  -22.6167   26.3441 C   0  0  0  0  0  0  0  0  0  0  0  0
  -26.7525  -24.8600   26.6275 C   0  0  0  0  0  0  0  0  0  0  0  0
  -26.9785  -23.5668   25.7606 C   0  0  1  0  0  0  0  0  0  0  0  0
  -26.2737  -24.7875   28.1023 C   0  0  0  0  0  0  0  0  0  1  0  0
  -26.1351  -18.3590   23.4634 N   0  0  0  0  0  0  0  0  0  0  0  0
  -31.4485  -12.4701   19.0860 H   0  0  0  0  0  0  0  0  0  0  0  0
  -30.3970  -11.2460   19.6950 H   0  0  0  0  0  0  0  0  0  0  0  0
  -29.6870  -11.8204   17.4226 H   0  0  0  0  0  0  0  0  0  0  0  0
  -29.6375  -13.5326   17.8649 H   0  0  0  0  0  0  0  0  0  0  0  0
  -27.7830  -11.3650   18.7904 H   0  0  0  0  0  0  0  0  0  0  0  0
  -27.4028  -12.7801   17.8021 H   0  0  0  0  0  0  0  0  0  0  0  0
  -27.7353  -14.2503   19.6136 H   0  0  0  0  0  0  0  0  0  0  0  0
  -28.5890  -11.9550   21.3832 H   0  0  0  0  0  0  0  0  0  0  0  0
  -28.5005  -13.6134   21.8562 H   0  0  0  0  0  0  0  0  0  0  0  0
  -25.2399   -9.5495   22.4318 H   0  0  0  0  0  0  0  0  0  0  0  0
  -23.9663   -7.5070   22.7297 H   0  0  0  0  0  0  0  0  0  0  0  0
  -21.1515   -8.8641   19.9162 H   0  0  0  0  0  0  0  0  0  0  0  0
  -22.4016  -10.9115   19.6476 H   0  0  0  0  0  0  0  0  0  0  0  0
  -21.2319   -7.5552   23.9750 H   0  0  0  0  0  0  0  0  0  0  0  0
  -21.1589   -6.0228   25.8556 H   0  0  0  0  0  0  0  0  0  0  0  0
  -22.0396   -2.8212   23.2809 H   0  0  0  0  0  0  0  0  0  0  0  0
  -22.4401  -11.9703   22.4008 H   0  0  0  0  0  0  0  0  0  0  0  0
  -21.1493  -13.0679   22.2082 H   0  0  0  0  0  0  0  0  0  0  0  0
  -24.6538  -15.7807   20.5848 H   0  0  0  0  0  0  0  0  0  0  0  0
  -26.2762  -15.5453   20.1156 H   0  0  0  0  0  0  0  0  0  0  0  0
  -26.6778  -32.4663   23.1464 H   0  0  0  0  0  0  0  0  0  0  0  0
  -25.0747  -34.0282   25.0566 H   0  0  0  0  0  0  0  0  0  0  0  0
  -22.7881  -31.3489   21.4131 H   0  0  0  0  0  0  0  0  0  0  0  0
  -23.3854  -35.9823   23.3648 H   0  0  0  0  0  0  0  0  0  0  0  0
  -24.3696  -36.8624   22.2204 H   0  0  0  0  0  0  0  0  0  0  0  0
  -23.7669  -37.6632   23.6516 H   0  0  0  0  0  0  0  0  0  0  0  0
  -25.9445  -31.6237   20.5691 H   0  0  0  0  0  0  0  0  0  0  0  0
  -26.7436  -31.0079   22.0108 H   0  0  0  0  0  0  0  0  0  0  0  0
  -28.0090  -29.1452   21.2057 H   0  0  0  0  0  0  0  0  0  0  0  0
  -26.1369  -26.0560   19.0719 H   0  0  0  0  0  0  0  0  0  0  0  0
  -24.0652  -27.2961   19.0997 H   0  0  0  0  0  0  0  0  0  0  0  0
  -23.6156  -30.5365   19.3930 H   0  0  0  0  0  0  0  0  0  0  0  0
  -22.7355  -29.1425   19.9945 H   0  0  0  0  0  0  0  0  0  0  0  0
  -25.1353  -36.2335   25.0565 H   0  0  0  0  0  0  0  0  0  0  0  0
  -21.0070  -28.3206   24.0793 H   0  0  0  0  0  0  0  0  0  0  0  0
  -20.5555  -26.2518   23.3550 H   0  0  0  0  0  0  0  0  0  0  0  0
  -21.5974  -26.8362   22.0454 H   0  0  0  0  0  0  0  0  0  0  0  0
  -19.6810  -25.6422   21.1488 H   0  0  0  0  0  0  0  0  0  0  0  0
  -19.6406  -27.3343   20.7034 H   0  0  0  0  0  0  0  0  0  0  0  0
  -17.4282  -26.6888   21.4113 H   0  0  0  0  0  0  0  0  0  0  0  0
  -18.0803  -26.0130   22.9049 H   0  0  0  0  0  0  0  0  0  0  0  0
  -19.7265  -30.6774   24.2204 H   0  0  0  0  0  0  0  0  0  0  0  0
  -17.5064  -31.5856   24.4483 H   0  0  0  0  0  0  0  0  0  0  0  0
  -15.5878  -30.2839   23.7407 H   0  0  0  0  0  0  0  0  0  0  0  0
  -15.9120  -28.0941   22.7766 H   0  0  0  0  0  0  0  0  0  0  0  0
  -24.5787  -30.7757   25.6817 H   0  0  0  0  0  0  0  0  0  0  0  0
  -25.0041  -32.2289   26.5536 H   0  0  0  0  0  0  0  0  0  0  0  0
  -25.8166  -30.7245   26.9138 H   0  0  0  0  0  0  0  0  0  0  0  0
  -26.2892  -29.7335   24.0803 H   0  0  0  0  0  0  0  0  0  0  0  0
  -27.4336  -29.7484   25.4006 H   0  0  0  0  0  0  0  0  0  0  0  0
  -27.8466  -30.4994   23.8779 H   0  0  0  0  0  0  0  0  0  0  0  0
  -27.2251  -33.3632   26.1242 H   0  0  0  0  0  0  0  0  0  0  0  0
  -28.3902  -32.6065   25.0645 H   0  0  0  0  0  0  0  0  0  0  0  0
  -27.9772  -31.8555   26.5872 H   0  0  0  0  0  0  0  0  0  0  0  0
  -28.2744  -38.0016   24.6863 H   0  0  0  0  0  0  0  0  0  0  0  0
  -28.0396  -36.2711   24.7461 H   0  0  0  0  0  0  0  0  0  0  0  0
  -27.1773  -37.3087   25.8564 H   0  0  0  0  0  0  0  0  0  0  0  0
  -20.9627  -29.9365   21.7352 H   0  0  0  0  0  0  0  0  0  0  0  0
  -26.0447  -38.2561   24.0273 H   0  0  0  0  0  0  0  0  0  0  0  0
  -24.7138  -23.3887   23.1106 H   0  0  0  0  0  0  0  0  0  0  0  0
  -24.4969  -21.9368   21.1782 H   0  0  0  0  0  0  0  0  0  0  0  0
  -26.2420  -20.1777   25.3518 H   0  0  0  0  0  0  0  0  0  0  0  0
  -24.6999  -19.9266   20.1395 H   0  0  0  0  0  0  0  0  0  0  0  0
  -24.4366  -18.5417   21.1719 H   0  0  0  0  0  0  0  0  0  0  0  0
  -26.0569  -18.9631   20.6718 H   0  0  0  0  0  0  0  0  0  0  0  0
  -30.1064  -22.4743   26.9656 H   0  0  0  0  0  0  0  0  0  0  0  0
  -29.3793  -24.0371   27.2518 H   0  0  0  0  0  0  0  0  0  0  0  0
  -29.8407  -23.5717   25.6321 H   0  0  0  0  0  0  0  0  0  0  0  0
  -27.6472  -23.2312   23.7339 H   0  0  0  0  0  0  0  0  0  0  0  0
  -28.3836  -24.6180   24.5005 H   0  0  0  0  0  0  0  0  0  0  0  0
  -26.7306  -24.7043   23.9408 H   0  0  0  0  0  0  0  0  0  0  0  0
  -24.7588  -23.9452   29.3496 H   0  0  0  0  0  0  0  0  0  0  0  0
  -24.8645  -23.2192   27.7638 H   0  0  0  0  0  0  0  0  0  0  0  0
  -24.1434  -24.7992   27.9549 H   0  0  0  0  0  0  0  0  0  0  0  0
  -26.9363  -23.8317   29.9064 H   0  0  0  0  0  0  0  0  0  0  0  0
  -28.2180  -24.5858   28.9891 H   0  0  0  0  0  0  0  0  0  0  0  0
  -27.5248  -23.0772   28.4445 H   0  0  0  0  0  0  0  0  0  0  0  0
  -25.4856  -22.1949   26.4522 H   0  0  0  0  0  0  0  0  0  0  0  0
  -24.8986  -23.5645   25.4266 H   0  0  0  0  0  0  0  0  0  0  0  0
  -27.7155  -22.2591   27.2888 H   0  0  0  0  0  0  0  0  0  0  0  0
  -28.2065  -21.8567   25.6036 H   0  0  0  0  0  0  0  0  0  0  0  0
  -26.0266  -25.4477   26.1054 H   0  0  0  0  0  0  0  0  0  0  0  0
  -27.7483  -25.2373   26.7325 H   0  0  0  0  0  0  0  0  0  0  0  0
  -25.5845  -17.8744   24.1201 H   0  0  0  0  0  0  0  0  0  0  0  0
  1 25  1  0
  1 30  2  0
  1 87  1  0
  2  3  1  0
  2 25  1  0
  2 88  1  0
  2 89  1  0
  3  4  1  0
  3 90  1  0
  3 91  1  0
  4  5  1  0
  4 92  1  0
  4 93  1  0
  5  6  1  0
  5 26  1  0
  5 94  1  6
  6 25  1  0
  6 95  1  0
  6 96  1  0
  7  8  2  0
  7 26  1  0
  7 29  1  0
  8  9  1  0
  8 22  1  0
  9 10  1  0
  9 27  2  0
 10 11  2  0
 10 15  1  0
 11 12  1  0
 11 97  1  0
 12 13  2  0
 12 98  1  0
 13 14  1  0
 13 31  1  0
 14 15  2  0
 14 99  1  0
 15100  1  0
 16 17  2  0
 16 21  1  0
 16 31  1  0
 17 18  1  0
 17101  1  0
 18 19  2  0
 18102  1  0
 19 20  1  0
 19 24  1  0
 20 21  2  0
 20103  1  0
 21 23  1  0
 22 28  1  0
 22 32  2  0
 26 27  1  0
 28104  1  0
 28105  1  0
 29106  1  0
 29107  1  0
 33 34  1  0
 33 66  1  0
 33 70  2  0
 34 36  1  0
 34 59  1  0
 34108  1  6
 35 44  2  0
 35 45  1  0
 35 68  1  0
 36 56  1  0
 36109  1  0
 37 39  1  0
 37 47  1  0
 37 66  1  0
 37110  1  6
 38 43  2  0
 38 46  1  0
 38 47  1  0
 39 64  1  0
 39 67  2  0
 40 52  1  0
 40 53  2  0
 40 58  1  0
 41111  1  0
 41112  1  0
 41113  1  0
 42 43  1  0
 42 66  1  0
 42114  1  0
 42115  1  0
 43 44  1  0
 44116  1  0
 45 46  2  0
 45117  1  0
 46118  1  0
 47119  1  0
 47120  1  0
 48 41  1  0
 48 56  1  0
 48 65  1  0
 48121  1  1
 49 50  1  0
 49 53  1  0
 49 64  1  0
 49122  1  1
 50 51  1  0
 50123  1  0
 50124  1  0
 51 52  1  0
 51125  1  0
 51126  1  0
 52127  1  0
 52128  1  0
 53 54  1  0
 54 55  2  0
 54129  1  0
 55 57  1  0
 55130  1  0
 56 69  2  0
 57 58  2  0
 57131  1  0
 58132  1  0
 59 60  1  0
 59 61  1  0
 59 62  1  0
 60133  1  0
 60134  1  0
 60135  1  0
 61136  1  0
 61137  1  0
 61138  1  0
 62139  1  0
 62140  1  0
 62141  1  0
 63 65  1  0
 63142  1  0
 63143  1  0
 63144  1  0
 64145  1  0
 65146  1  0
 68 86  1  0
 71 72  2  0
 71 74  1  0
 71147  1  0
 72 75  1  0
 72148  1  0
 73 74  2  0
 73 76  1  0
 73149  1  0
 74 82  1  0
 75 76  2  0
 75 77  1  0
 76 87  1  0
 77150  1  0
 77151  1  0
 77152  1  0
 78 83  1  0
 78153  1  0
 78154  1  0
 78155  1  0
 79156  1  0
 79157  1  0
 79158  1  0
 80159  1  0
 80160  1  0
 80161  1  0
 81 86  1  0
 81162  1  0
 81163  1  0
 81164  1  0
 85 82  1  6
 82165  1  0
 82166  1  0
 83 85  1  0
 83167  1  0
 83168  1  0
 84 85  1  0
 84 86  1  0
 84169  1  0
 84170  1  0
 85 79  1  0
 86 80  1  0
 87171  1  0
M  ISO  4   1 100  68 101  86 101  87 100
M  END
$$$$
36
     RDKit          3D

165173  0  0  0  0  0  0  0  0999 V2000
  -30.7652  -14.3608   20.6636 C   0  0  0  0  0  0  0  0  0100  0  0
  -30.4392  -12.2669   19.3775 C   0  0  0  0  0  0  0  0  0101  0  0
  -29.4791  -12.5281   18.1977 C   0  0  0  0  0  0  0  0  0102  0  0
  -27.9985  -12.3963   18.6038 C   0  0  0  0  0  0  0  0  0103  0  0
  -27.6639  -13.2170   19.8820 C   0  0  2  0  0  0  0  0  0104  0  0
  -28.6795  -12.9602   21.0279 C   0  0  0  0  0  0  0  0  0105  0  0
  -25.2633  -13.8245   20.5754 C   0  0  0  0  0  0  0  0  0106  0  0
  -24.1645  -13.0409   20.9408 C   0  0  0  0  0  0  0  0  0107  0  0
  -24.6400  -11.7009   20.8697 C   0  0  0  0  0  0  0  0  0108  0  0
  -23.9005  -10.4085   21.0420 C   0  0  0  0  0  0  0  0  0109  0  0
  -24.3588   -9.4123   21.9123 C   0  0  0  0  0  0  0  0  0110  0  0
  -23.6296   -8.2350   22.0803 C   0  0  0  0  0  0  0  0  0111  0  0
  -22.4385   -8.0419   21.3657 C   0  0  0  0  0  0  0  0  0112  0  0
  -22.0103   -9.0167   20.4678 C   0  0  0  0  0  0  0  0  0113  0  0
  -22.7317  -10.1925   20.3102 C   0  0  0  0  0  0  0  0  0114  0  0
  -21.6857   -6.0709   22.5391 C   0  0  0  0  0  0  0  0  0115  0  0
  -21.4064   -6.5490   23.8264 C   0  0  0  0  0  0  0  0  0116  0  0
  -21.3635   -5.6677   24.9085 C   0  0  0  0  0  0  0  0  0117  0  0
  -21.5973   -4.3067   24.7088 C   0  0  0  0  0  0  0  0  0118  0  0
  -21.8700   -3.8284   23.4282 C   0  0  0  0  0  0  0  0  0119  0  0
  -21.9144   -4.7056   22.3460 C   0  0  0  0  0  0  0  0  0120  0  0
  -22.8194  -13.5263   21.1763 C   0  0  0  0  0  0  0  0  0121  0  0
  -22.1559   -4.2206   21.1063 F   0  0  0  0  0  0  0  0  0122  0  0
  -21.5628   -3.4510   25.7555 F   0  0  0  0  0  0  0  0  0123  0  0
  -30.0261  -13.1803   20.4553 N   0  0  0  0  0  0  0  0  0124  0  0
  -26.2911  -12.9356   20.3443 N   0  0  0  0  0  0  0  0  0125  0  0
  -25.9236  -11.6675   20.5847 N   0  0  0  0  0  0  0  0  0126  0  0
  -22.0708  -12.7905   22.0005 N   0  0  0  0  0  0  0  0  0127  0  0
  -25.4117  -15.1773   20.4097 N   0  0  0  0  0  0  0  0  0128  0  0
  -31.7916  -14.6724   20.0536 O   0  0  0  0  0  0  0  0  0129  0  0
  -21.6670   -6.9022   21.4423 O   0  0  0  0  0  0  0  0  0130  0  0
  -22.3946  -14.5564   20.6568 O   0  0  0  0  0  0  0  0  0131  0  0
  -24.6048  -31.8614   23.2223 C   0  0  0  0  0  0  0  0  0100  0  0
  -25.8822  -32.4841   23.8616 C   0  0  1  0  0  0  0  0  0101  0  0
  -27.2536  -27.5042   20.1156 C   0  0  0  0  0  0  0  0  0102  0  0
  -25.5726  -33.8762   24.2210 N   0  0  0  0  0  0  0  0  0103  0  0
  -23.4066  -30.4859   21.5461 C   0  0  2  0  0  0  0  0  0104  0  0
  -24.8467  -28.9636   20.1247 C   0  0  0  0  0  0  0  0  0105  0  0
  -22.7412  -29.4652   22.5052 C   0  0  0  0  0  0  0  0  0106  0  0
  -18.0167  -28.1302   22.8626 C   0  0  0  0  0  0  0  0  0107  0  0
  -24.1342  -36.7390   23.2568 C   0  0  0  0  0  0  0  0  0108  0  0
  -25.9141  -30.8882   21.3456 C   0  0  0  0  0  0  0  0  0109  0  0
  -25.9930  -29.5029   20.7208 C   0  0  0  0  0  0  0  0  0110  0  0
  -27.1758  -28.7612   20.7331 C   0  0  0  0  0  0  0  0  0111  0  0
  -26.1032  -26.9836   19.5230 C   0  0  0  0  0  0  0  0  0112  0  0
  -24.9097  -27.7011   19.5331 C   0  0  0  0  0  0  0  0  0113  0  0
  -23.5715  -29.7899   20.1582 C   0  0  0  0  0  0  0  0  0114  0  0
  -25.3990  -36.3212   24.0232 C   0  0  1  0  0  0  0  0  0115  0  0
  -20.5793  -28.3813   23.1004 C   0  0  2  0  0  0  0  0  0116  0  0
  -20.6548  -26.9392   22.5411 C   0  0  0  0  0  0  0  0  0117  0  0
  -19.5615  -26.6407   21.5143 C   0  0  0  0  0  0  0  0  0118  0  0
  -18.1797  -26.7818   22.1673 C   0  0  0  0  0  0  0  0  0119  0  0
  -19.1385  -28.8769   23.2988 C   0  0  0  0  0  0  0  0  0120  0  0
  -18.9183  -30.1286   23.8878 C   0  0  0  0  0  0  0  0  0121  0  0
  -17.6396  -30.6493   24.0352 C   0  0  0  0  0  0  0  0  0122  0  0
  -25.9153  -34.9582   23.4993 C   0  0  0  0  0  0  0  0  0123  0  0
  -16.5415  -29.9068   23.6254 C   0  0  0  0  0  0  0  0  0124  0  0
  -16.7331  -28.6521   23.0586 C   0  0  0  0  0  0  0  0  0125  0  0
  -26.4583  -31.6439   25.0683 C   0  0  0  0  0  0  0  0  0126  0  0
  -25.3807  -31.3179   26.1374 C   0  0  0  0  0  0  0  0  0127  0  0
  -27.0530  -30.3024   24.5680 C   0  0  0  0  0  0  0  0  0128  0  0
  -27.6014  -32.4281   25.7651 C   0  0  0  0  0  0  0  0  0129  0  0
  -27.5629  -37.2220   24.8621 C   0  0  0  0  0  0  0  0  0130  0  0
  -21.4133  -29.3375   22.3735 N   0  0  0  0  0  0  0  0  0131  0  0
  -26.4706  -37.3372   23.9061 N   0  0  0  0  0  0  0  0  0132  0  0
  -24.6674  -31.0544   22.1178 N   0  0  0  0  0  0  0  0  0133  0  0
  -23.4259  -28.8150   23.2971 O   0  0  0  0  0  0  0  0  0134  0  0
  -28.3948  -26.7345   20.0089 O   0  0  0  0  0  0  0  0  0135  0  0
  -26.5870  -34.9065   22.4671 O   0  0  0  0  0  0  0  0  0136  0  0
  -23.5365  -32.1254   23.7833 O   0  0  0  0  0  0  0  0  0137  0  0
  -24.5968  -28.1460   25.7093 C   0  0  0  0  0  0  0  0  0  0  0  0
  -26.4439  -26.7493   26.3981 C   0  0  0  0  0  0  0  0  0  0  0  0
  -26.7069  -29.1498   26.3235 C   0  0  0  0  0  0  0  0  0  0  0  0
  -25.1249  -26.8803   25.9637 C   0  0  0  0  0  0  0  0  0  0  0  0
  -25.3878  -29.2808   25.8891 C   0  0  0  0  0  0  0  0  0  0  0  0
  -27.2349  -27.8840   26.5780 C   0  0  0  0  0  0  0  0  0  0  0  0
  -24.2874  -25.6782   25.7732 C   0  0  0  0  0  0  0  0  0  0  0  0
  -22.9566  -24.3255   24.1686 C   0  0  0  0  0  0  0  0  0  0  0  0
  -24.1806  -31.2355   26.8960 C   0  0  0  0  0  0  0  0  0  0  0  0
  -23.7505  -30.7143   24.4924 C   0  0  0  0  0  0  0  0  0  0  0  0
  -22.5395  -24.3722   22.7171 C   0  0  0  0  0  0  0  0  0  0  0  0
  -22.3242  -22.9914   22.1069 C   0  0  0  0  0  0  0  0  0  0  0  0
  -23.5989  -22.1564   22.0754 C   0  0  0  0  0  0  0  0  0  1  0  0
  -24.8237  -30.6342   25.6172 C   0  0  0  0  0  0  0  0  0  0  0  0
  -23.7913  -25.4412   24.5509 N   0  0  0  0  0  0  0  0  0  0  0  0
  -24.0722  -24.8981   26.8321 N   0  0  0  0  0  0  0  0  0  0  0  0
  -22.6237  -23.4695   24.9753 O   0  0  0  0  0  0  0  0  0  0  0  0
  -28.5016  -27.7582   26.9951 F   0  0  0  0  0  0  0  0  0  0  0  0
  -31.4485  -12.4701   19.0860 H   0  0  0  0  0  0  0  0  0  0  0  0
  -30.3970  -11.2460   19.6950 H   0  0  0  0  0  0  0  0  0  0  0  0
  -29.6870  -11.8204   17.4226 H   0  0  0  0  0  0  0  0  0  0  0  0
  -29.6375  -13.5326   17.8649 H   0  0  0  0  0  0  0  0  0  0  0  0
  -27.7830  -11.3650   18.7904 H   0  0  0  0  0  0  0  0  0  0  0  0
  -27.4028  -12.7801   17.8021 H   0  0  0  0  0  0  0  0  0  0  0  0
  -27.7353  -14.2503   19.6136 H   0  0  0  0  0  0  0  0  0  0  0  0
  -28.5890  -11.9550   21.3832 H   0  0  0  0  0  0  0  0  0  0  0  0
  -28.5005  -13.6134   21.8562 H   0  0  0  0  0  0  0  0  0  0  0  0
  -25.2399   -9.5495   22.4318 H   0  0  0  0  0  0  0  0  0  0  0  0
  -23.9663   -7.5070   22.7297 H   0  0  0  0  0  0  0  0  0  0  0  0
  -21.1515   -8.8641   19.9162 H   0  0  0  0  0  0  0  0  0  0  0  0
  -22.4016  -10.9115   19.6476 H   0  0  0  0  0  0  0  0  0  0  0  0
  -21.2319   -7.5552   23.9750 H   0  0  0  0  0  0  0  0  0  0  0  0
  -21.1589   -6.0228   25.8556 H   0  0  0  0  0  0  0  0  0  0  0  0
  -22.0396   -2.8212   23.2809 H   0  0  0  0  0  0  0  0  0  0  0  0
  -22.4401  -11.9703   22.4008 H   0  0  0  0  0  0  0  0  0  0  0  0
  -21.1493  -13.0679   22.2082 H   0  0  0  0  0  0  0  0  0  0  0  0
  -24.6538  -15.7807   20.5848 H   0  0  0  0  0  0  0  0  0  0  0  0
  -26.2762  -15.5453   20.1156 H   0  0  0  0  0  0  0  0  0  0  0  0
  -26.6778  -32.4663   23.1464 H   0  0  0  0  0  0  0  0  0  0  0  0
  -25.0747  -34.0282   25.0566 H   0  0  0  0  0  0  0  0  0  0  0  0
  -22.7881  -31.3489   21.4131 H   0  0  0  0  0  0  0  0  0  0  0  0
  -23.3854  -35.9823   23.3648 H   0  0  0  0  0  0  0  0  0  0  0  0
  -24.3696  -36.8624   22.2204 H   0  0  0  0  0  0  0  0  0  0  0  0
  -23.7669  -37.6632   23.6516 H   0  0  0  0  0  0  0  0  0  0  0  0
  -25.9445  -31.6237   20.5691 H   0  0  0  0  0  0  0  0  0  0  0  0
  -26.7436  -31.0079   22.0108 H   0  0  0  0  0  0  0  0  0  0  0  0
  -28.0090  -29.1452   21.2057 H   0  0  0  0  0  0  0  0  0  0  0  0
  -26.1369  -26.0560   19.0719 H   0  0  0  0  0  0  0  0  0  0  0  0
  -24.0652  -27.2961   19.0997 H   0  0  0  0  0  0  0  0  0  0  0  0
  -23.6156  -30.5365   19.3930 H   0  0  0  0  0  0  0  0  0  0  0  0
  -22.7355  -29.1425   19.9945 H   0  0  0  0  0  0  0  0  0  0  0  0
  -25.1353  -36.2335   25.0565 H   0  0  0  0  0  0  0  0  0  0  0  0
  -21.0070  -28.3206   24.0793 H   0  0  0  0  0  0  0  0  0  0  0  0
  -20.5555  -26.2518   23.3550 H   0  0  0  0  0  0  0  0  0  0  0  0
  -21.5974  -26.8362   22.0454 H   0  0  0  0  0  0  0  0  0  0  0  0
  -19.6810  -25.6422   21.1488 H   0  0  0  0  0  0  0  0  0  0  0  0
  -19.6406  -27.3343   20.7034 H   0  0  0  0  0  0  0  0  0  0  0  0
  -17.4282  -26.6888   21.4113 H   0  0  0  0  0  0  0  0  0  0  0  0
  -18.0803  -26.0130   22.9049 H   0  0  0  0  0  0  0  0  0  0  0  0
  -19.7265  -30.6774   24.2204 H   0  0  0  0  0  0  0  0  0  0  0  0
  -17.5064  -31.5856   24.4483 H   0  0  0  0  0  0  0  0  0  0  0  0
  -15.5878  -30.2839   23.7407 H   0  0  0  0  0  0  0  0  0  0  0  0
  -15.9120  -28.0941   22.7766 H   0  0  0  0  0  0  0  0  0  0  0  0
  -24.5787  -30.7757   25.6817 H   0  0  0  0  0  0  0  0  0  0  0  0
  -25.0041  -32.2289   26.5536 H   0  0  0  0  0  0  0  0  0  0  0  0
  -25.8166  -30.7245   26.9138 H   0  0  0  0  0  0  0  0  0  0  0  0
  -26.2892  -29.7335   24.0803 H   0  0  0  0  0  0  0  0  0  0  0  0
  -27.4336  -29.7484   25.4006 H   0  0  0  0  0  0  0  0  0  0  0  0
  -27.8466  -30.4994   23.8779 H   0  0  0  0  0  0  0  0  0  0  0  0
  -27.2251  -33.3632   26.1242 H   0  0  0  0  0  0  0  0  0  0  0  0
  -28.3902  -32.6065   25.0645 H   0  0  0  0  0  0  0  0  0  0  0  0
  -27.9772  -31.8555   26.5872 H   0  0  0  0  0  0  0  0  0  0  0  0
  -28.2744  -38.0016   24.6863 H   0  0  0  0  0  0  0  0  0  0  0  0
  -28.0396  -36.2711   24.7461 H   0  0  0  0  0  0  0  0  0  0  0  0
  -27.1773  -37.3087   25.8564 H   0  0  0  0  0  0  0  0  0  0  0  0
  -20.9627  -29.9365   21.7352 H   0  0  0  0  0  0  0  0  0  0  0  0
  -26.0447  -38.2561   24.0273 H   0  0  0  0  0  0  0  0  0  0  0  0
  -23.6209  -28.2429   25.3881 H   0  0  0  0  0  0  0  0  0  0  0  0
  -26.8345  -25.8128   26.5864 H   0  0  0  0  0  0  0  0  0  0  0  0
  -27.2921  -29.9893   26.4566 H   0  0  0  0  0  0  0  0  0  0  0  0
  -23.9833  -32.2756   26.7407 H   0  0  0  0  0  0  0  0  0  0  0  0
  -24.8517  -31.1191   27.7212 H   0  0  0  0  0  0  0  0  0  0  0  0
  -23.2636  -30.7262   27.1074 H   0  0  0  0  0  0  0  0  0  0  0  0
  -23.2234  -31.6424   24.5678 H   0  0  0  0  0  0  0  0  0  0  0  0
  -23.0611  -29.9030   24.5988 H   0  0  0  0  0  0  0  0  0  0  0  0
  -24.2293  -30.6526   23.5375 H   0  0  0  0  0  0  0  0  0  0  0  0
  -23.3029  -24.8743   22.1603 H   0  0  0  0  0  0  0  0  0  0  0  0
  -21.6030  -24.8879   22.6728 H   0  0  0  0  0  0  0  0  0  0  0  0
  -21.9691  -23.1117   21.1048 H   0  0  0  0  0  0  0  0  0  0  0  0
  -21.6148  -22.4748   22.7191 H   0  0  0  0  0  0  0  0  0  0  0  0
  -23.5128  -21.3482   21.3795 H   0  0  0  0  0  0  0  0  0  0  0  0
  -23.8281  -21.6987   23.0150 H   0  0  0  0  0  0  0  0  0  0  0  0
  -24.0174  -26.0898   23.8456 H   0  0  0  0  0  0  0  0  0  0  0  0
  -24.4674  -25.1306   27.7033 H   0  0  0  0  0  0  0  0  0  0  0  0
  -23.5180  -24.0893   26.7431 H   0  0  0  0  0  0  0  0  0  0  0  0
  1 25  1  0
  1 30  2  0
  1 84  1  0
  2  3  1  0
  2 25  1  0
  2 89  1  0
  2 90  1  0
  3  4  1  0
  3 91  1  0
  3 92  1  0
  4  5  1  0
  4 93  1  0
  4 94  1  0
  5  6  1  0
  5 26  1  0
  5 95  1  6
  6 25  1  0
  6 96  1  0
  6 97  1  0
  7  8  2  0
  7 26  1  0
  7 29  1  0
  8  9  1  0
  8 22  1  0
  9 10  1  0
  9 27  2  0
 10 11  2  0
 10 15  1  0
 11 12  1  0
 11 98  1  0
 12 13  2  0
 12 99  1  0
 13 14  1  0
 13 31  1  0
 14 15  2  0
 14100  1  0
 15101  1  0
 16 17  2  0
 16 21  1  0
 16 31  1  0
 17 18  1  0
 17102  1  0
 18 19  2  0
 18103  1  0
 19 20  1  0
 19 24  1  0
 20 21  2  0
 20104  1  0
 21 23  1  0
 22 28  1  0
 22 32  2  0
 26 27  1  0
 28105  1  0
 28106  1  0
 29107  1  0
 29108  1  0
 33 34  1  0
 33 66  1  0
 33 70  2  0
 34 36  1  0
 34 59  1  0
 34109  1  6
 35 44  2  0
 35 45  1  0
 35 68  1  0
 36 56  1  0
 36110  1  0
 37 39  1  0
 37 47  1  0
 37 66  1  0
 37111  1  6
 38 43  2  0
 38 46  1  0
 38 47  1  0
 39 64  1  0
 39 67  2  0
 40 52  1  0
 40 53  2  0
 40 58  1  0
 41112  1  0
 41113  1  0
 41114  1  0
 42 43  1  0
 42 66  1  0
 42115  1  0
 42116  1  0
 43 44  1  0
 44117  1  0
 45 46  2  0
 45118  1  0
 46119  1  0
 47120  1  0
 47121  1  0
 48 41  1  0
 48 56  1  0
 48 65  1  0
 48122  1  1
 49 50  1  0
 49 53  1  0
 49 64  1  0
 49123  1  1
 50 51  1  0
 50124  1  0
 50125  1  0
 51 52  1  0
 51126  1  0
 51127  1  0
 52128  1  0
 52129  1  0
 53 54  1  0
 54 55  2  0
 54130  1  0
 55 57  1  0
 55131  1  0
 56 69  2  0
 57 58  2  0
 57132  1  0
 58133  1  0
 59 60  1  0
 59 61  1  0
 59 62  1  0
 60134  1  0
 60135  1  0
 60136  1  0
 61137  1  0
 61138  1  0
 61139  1  0
 62140  1  0
 62141  1  0
 62142  1  0
 63 65  1  0
 63143  1  0
 63144  1  0
 63145  1  0
 64146  1  0
 65147  1  0
 68 83  1  0
 71 74  2  0
 71 75  1  0
 71148  1  0
 72 74  1  0
 72 76  2  0
 72149  1  0
 73 75  2  0
 73 76  1  0
 73150  1  0
 74 77  1  0
 75 84  1  0
 76 88  1  0
 77 85  1  0
 77 86  2  0
 78 81  1  0
 78 85  1  0
 78 87  2  0
 79151  1  0
 79152  1  0
 79153  1  0
 80 84  1  0
 80154  1  0
 80155  1  0
 80156  1  0
 81 82  1  0
 81157  1  0
 81158  1  0
 82 83  1  0
 82159  1  0
 82160  1  0
 83161  1  0
 83162  1  0
 84 79  1  0
 85163  1  0
 86164  1  0
 86165  1  0
M  CHG  1  86   1
M  ISO  4   1 100  68 101  83 101  84 100
M  END
$$$$
37
     RDKit          3D

165173  0  0  0  0  0  0  0  0999 V2000
  -30.7652  -14.3608   20.6636 C   0  0  0  0  0  0  0  0  0100  0  0
  -30.4392  -12.2669   19.3775 C   0  0  0  0  0  0  0  0  0101  0  0
  -29.4791  -12.5281   18.1977 C   0  0  0  0  0  0  0  0  0102  0  0
  -27.9985  -12.3963   18.6038 C   0  0  0  0  0  0  0  0  0103  0  0
  -27.6639  -13.2170   19.8820 C   0  0  2  0  0  0  0  0  0104  0  0
  -28.6795  -12.9602   21.0279 C   0  0  0  0  0  0  0  0  0105  0  0
  -25.2633  -13.8245   20.5754 C   0  0  0  0  0  0  0  0  0106  0  0
  -24.1645  -13.0409   20.9408 C   0  0  0  0  0  0  0  0  0107  0  0
  -24.6400  -11.7009   20.8697 C   0  0  0  0  0  0  0  0  0108  0  0
  -23.9005  -10.4085   21.0420 C   0  0  0  0  0  0  0  0  0109  0  0
  -24.3588   -9.4123   21.9123 C   0  0  0  0  0  0  0  0  0110  0  0
  -23.6296   -8.2350   22.0803 C   0  0  0  0  0  0  0  0  0111  0  0
  -22.4385   -8.0419   21.3657 C   0  0  0  0  0  0  0  0  0112  0  0
  -22.0103   -9.0167   20.4678 C   0  0  0  0  0  0  0  0  0113  0  0
  -22.7317  -10.1925   20.3102 C   0  0  0  0  0  0  0  0  0114  0  0
  -21.6857   -6.0709   22.5391 C   0  0  0  0  0  0  0  0  0115  0  0
  -21.4064   -6.5490   23.8264 C   0  0  0  0  0  0  0  0  0116  0  0
  -21.3635   -5.6677   24.9085 C   0  0  0  0  0  0  0  0  0117  0  0
  -21.5973   -4.3067   24.7088 C   0  0  0  0  0  0  0  0  0118  0  0
  -21.8700   -3.8284   23.4282 C   0  0  0  0  0  0  0  0  0119  0  0
  -21.9144   -4.7056   22.3460 C   0  0  0  0  0  0  0  0  0120  0  0
  -22.8194  -13.5263   21.1763 C   0  0  0  0  0  0  0  0  0121  0  0
  -22.1559   -4.2206   21.1063 F   0  0  0  0  0  0  0  0  0122  0  0
  -21.5628   -3.4510   25.7555 F   0  0  0  0  0  0  0  0  0123  0  0
  -30.0261  -13.1803   20.4553 N   0  0  0  0  0  0  0  0  0124  0  0
  -26.2911  -12.9356   20.3443 N   0  0  0  0  0  0  0  0  0125  0  0
  -25.9236  -11.6675   20.5847 N   0  0  0  0  0  0  0  0  0126  0  0
  -22.0708  -12.7905   22.0005 N   0  0  0  0  0  0  0  0  0127  0  0
  -25.4117  -15.1773   20.4097 N   0  0  0  0  0  0  0  0  0128  0  0
  -31.7916  -14.6724   20.0536 O   0  0  0  0  0  0  0  0  0129  0  0
  -21.6670   -6.9022   21.4423 O   0  0  0  0  0  0  0  0  0130  0  0
  -22.3946  -14.5564   20.6568 O   0  0  0  0  0  0  0  0  0131  0  0
  -24.6048  -31.8614   23.2223 C   0  0  0  0  0  0  0  0  0100  0  0
  -25.8822  -32.4841   23.8616 C   0  0  1  0  0  0  0  0  0101  0  0
  -27.2536  -27.5042   20.1156 C   0  0  0  0  0  0  0  0  0102  0  0
  -25.5726  -33.8762   24.2210 N   0  0  0  0  0  0  0  0  0103  0  0
  -23.4066  -30.4859   21.5461 C   0  0  2  0  0  0  0  0  0104  0  0
  -24.8467  -28.9636   20.1247 C   0  0  0  0  0  0  0  0  0105  0  0
  -22.7412  -29.4652   22.5052 C   0  0  0  0  0  0  0  0  0106  0  0
  -18.0167  -28.1302   22.8626 C   0  0  0  0  0  0  0  0  0107  0  0
  -24.1342  -36.7390   23.2568 C   0  0  0  0  0  0  0  0  0108  0  0
  -25.9141  -30.8882   21.3456 C   0  0  0  0  0  0  0  0  0109  0  0
  -25.9930  -29.5029   20.7208 C   0  0  0  0  0  0  0  0  0110  0  0
  -27.1758  -28.7612   20.7331 C   0  0  0  0  0  0  0  0  0111  0  0
  -26.1032  -26.9836   19.5230 C   0  0  0  0  0  0  0  0  0112  0  0
  -24.9097  -27.7011   19.5331 C   0  0  0  0  0  0  0  0  0113  0  0
  -23.5715  -29.7899   20.1582 C   0  0  0  0  0  0  0  0  0114  0  0
  -25.3990  -36.3212   24.0232 C   0  0  1  0  0  0  0  0  0115  0  0
  -20.5793  -28.3813   23.1004 C   0  0  2  0  0  0  0  0  0116  0  0
  -20.6548  -26.9392   22.5411 C   0  0  0  0  0  0  0  0  0117  0  0
  -19.5615  -26.6407   21.5143 C   0  0  0  0  0  0  0  0  0118  0  0
  -18.1797  -26.7818   22.1673 C   0  0  0  0  0  0  0  0  0119  0  0
  -19.1385  -28.8769   23.2988 C   0  0  0  0  0  0  0  0  0120  0  0
  -18.9183  -30.1286   23.8878 C   0  0  0  0  0  0  0  0  0121  0  0
  -17.6396  -30.6493   24.0352 C   0  0  0  0  0  0  0  0  0122  0  0
  -25.9153  -34.9582   23.4993 C   0  0  0  0  0  0  0  0  0123  0  0
  -16.5415  -29.9068   23.6254 C   0  0  0  0  0  0  0  0  0124  0  0
  -16.7331  -28.6521   23.0586 C   0  0  0  0  0  0  0  0  0125  0  0
  -26.4583  -31.6439   25.0683 C   0  0  0  0  0  0  0  0  0126  0  0
  -25.3807  -31.3179   26.1374 C   0  0  0  0  0  0  0  0  0127  0  0
  -27.0530  -30.3024   24.5680 C   0  0  0  0  0  0  0  0  0128  0  0
  -27.6014  -32.4281   25.7651 C   0  0  0  0  0  0  0  0  0129  0  0
  -27.5629  -37.2220   24.8621 C   0  0  0  0  0  0  0  0  0130  0  0
  -21.4133  -29.3375   22.3735 N   0  0  0  0  0  0  0  0  0131  0  0
  -26.4706  -37.3372   23.9061 N   0  0  0  0  0  0  0  0  0132  0  0
  -24.6674  -31.0544   22.1178 N   0  0  0  0  0  0  0  0  0133  0  0
  -23.4259  -28.8150   23.2971 O   0  0  0  0  0  0  0  0  0134  0  0
  -28.3948  -26.7345   20.0089 O   0  0  0  0  0  0  0  0  0135  0  0
  -26.5870  -34.9065   22.4671 O   0  0  0  0  0  0  0  0  0136  0  0
  -23.5365  -32.1254   23.7833 O   0  0  0  0  0  0  0  0  0137  0  0
  -30.6829  -18.6959   23.5795 C   0  0  0  0  0  0  0  0  0  0  0  0
  -32.4720  -17.1092   23.9239 C   0  0  0  0  0  0  0  0  0  0  0  0
  -31.8777  -18.3395   24.2049 C   0  0  0  0  0  0  0  0  0  0  0  0
  -30.0824  -17.8220   22.6732 C   0  0  0  0  0  0  0  0  0  0  0  0
  -30.6767  -16.5917   22.3922 C   0  0  0  0  0  0  0  0  0  0  0  0
  -31.8715  -16.2353   23.0176 C   0  0  0  0  0  0  0  0  0  0  0  0
  -27.6045  -18.0844   22.9519 C   0  0  0  0  0  0  0  0  0  0  0  0
  -34.1172  -19.8475   27.8206 C   0  0  0  0  0  0  0  0  0  0  0  0
  -31.9515  -19.7068   29.0765 C   0  0  0  0  0  0  0  0  0  0  0  0
  -32.5273  -19.2840   25.1873 C   0  0  0  0  0  0  0  0  0  0  0  0
  -28.8023  -18.2295   22.0187 C   0  0  0  0  0  0  0  0  0  0  0  0
  -32.0287  -19.0331   26.6173 C   0  0  0  0  0  0  0  0  0  0  0  0
  -32.2436  -21.4523   27.3154 C   0  0  0  0  0  0  0  0  0  1  0  0
  -32.5884  -19.9938   27.7052 C   0  0  0  0  0  0  0  0  0  0  0  0
  -30.0806  -15.6925   21.4736 N   0  0  0  0  0  0  0  0  0  0  0  0
  -32.4519  -15.0552   22.7567 F   0  0  0  0  0  0  0  0  0  0  0  0
  -31.4485  -12.4701   19.0860 H   0  0  0  0  0  0  0  0  0  0  0  0
  -30.3970  -11.2460   19.6950 H   0  0  0  0  0  0  0  0  0  0  0  0
  -29.6870  -11.8204   17.4226 H   0  0  0  0  0  0  0  0  0  0  0  0
  -29.6375  -13.5326   17.8649 H   0  0  0  0  0  0  0  0  0  0  0  0
  -27.7830  -11.3650   18.7904 H   0  0  0  0  0  0  0  0  0  0  0  0
  -27.4028  -12.7801   17.8021 H   0  0  0  0  0  0  0  0  0  0  0  0
  -27.7353  -14.2503   19.6136 H   0  0  0  0  0  0  0  0  0  0  0  0
  -28.5890  -11.9550   21.3832 H   0  0  0  0  0  0  0  0  0  0  0  0
  -28.5005  -13.6134   21.8562 H   0  0  0  0  0  0  0  0  0  0  0  0
  -25.2399   -9.5495   22.4318 H   0  0  0  0  0  0  0  0  0  0  0  0
  -23.9663   -7.5070   22.7297 H   0  0  0  0  0  0  0  0  0  0  0  0
  -21.1515   -8.8641   19.9162 H   0  0  0  0  0  0  0  0  0  0  0  0
  -22.4016  -10.9115   19.6476 H   0  0  0  0  0  0  0  0  0  0  0  0
  -21.2319   -7.5552   23.9750 H   0  0  0  0  0  0  0  0  0  0  0  0
  -21.1589   -6.0228   25.8556 H   0  0  0  0  0  0  0  0  0  0  0  0
  -22.0396   -2.8212   23.2809 H   0  0  0  0  0  0  0  0  0  0  0  0
  -22.4401  -11.9703   22.4008 H   0  0  0  0  0  0  0  0  0  0  0  0
  -21.1493  -13.0679   22.2082 H   0  0  0  0  0  0  0  0  0  0  0  0
  -24.6538  -15.7807   20.5848 H   0  0  0  0  0  0  0  0  0  0  0  0
  -26.2762  -15.5453   20.1156 H   0  0  0  0  0  0  0  0  0  0  0  0
  -26.6778  -32.4663   23.1464 H   0  0  0  0  0  0  0  0  0  0  0  0
  -25.0747  -34.0282   25.0566 H   0  0  0  0  0  0  0  0  0  0  0  0
  -22.7881  -31.3489   21.4131 H   0  0  0  0  0  0  0  0  0  0  0  0
  -23.3854  -35.9823   23.3648 H   0  0  0  0  0  0  0  0  0  0  0  0
  -24.3696  -36.8624   22.2204 H   0  0  0  0  0  0  0  0  0  0  0  0
  -23.7669  -37.6632   23.6516 H   0  0  0  0  0  0  0  0  0  0  0  0
  -25.9445  -31.6237   20.5691 H   0  0  0  0  0  0  0  0  0  0  0  0
  -26.7436  -31.0079   22.0108 H   0  0  0  0  0  0  0  0  0  0  0  0
  -28.0090  -29.1452   21.2057 H   0  0  0  0  0  0  0  0  0  0  0  0
  -26.1369  -26.0560   19.0719 H   0  0  0  0  0  0  0  0  0  0  0  0
  -24.0652  -27.2961   19.0997 H   0  0  0  0  0  0  0  0  0  0  0  0
  -23.6156  -30.5365   19.3930 H   0  0  0  0  0  0  0  0  0  0  0  0
  -22.7355  -29.1425   19.9945 H   0  0  0  0  0  0  0  0  0  0  0  0
  -25.1353  -36.2335   25.0565 H   0  0  0  0  0  0  0  0  0  0  0  0
  -21.0070  -28.3206   24.0793 H   0  0  0  0  0  0  0  0  0  0  0  0
  -20.5555  -26.2518   23.3550 H   0  0  0  0  0  0  0  0  0  0  0  0
  -21.5974  -26.8362   22.0454 H   0  0  0  0  0  0  0  0  0  0  0  0
  -19.6810  -25.6422   21.1488 H   0  0  0  0  0  0  0  0  0  0  0  0
  -19.6406  -27.3343   20.7034 H   0  0  0  0  0  0  0  0  0  0  0  0
  -17.4282  -26.6888   21.4113 H   0  0  0  0  0  0  0  0  0  0  0  0
  -18.0803  -26.0130   22.9049 H   0  0  0  0  0  0  0  0  0  0  0  0
  -19.7265  -30.6774   24.2204 H   0  0  0  0  0  0  0  0  0  0  0  0
  -17.5064  -31.5856   24.4483 H   0  0  0  0  0  0  0  0  0  0  0  0
  -15.5878  -30.2839   23.7407 H   0  0  0  0  0  0  0  0  0  0  0  0
  -15.9120  -28.0941   22.7766 H   0  0  0  0  0  0  0  0  0  0  0  0
  -24.5787  -30.7757   25.6817 H   0  0  0  0  0  0  0  0  0  0  0  0
  -25.0041  -32.2289   26.5536 H   0  0  0  0  0  0  0  0  0  0  0  0
  -25.8166  -30.7245   26.9138 H   0  0  0  0  0  0  0  0  0  0  0  0
  -26.2892  -29.7335   24.0803 H   0  0  0  0  0  0  0  0  0  0  0  0
  -27.4336  -29.7484   25.4006 H   0  0  0  0  0  0  0  0  0  0  0  0
  -27.8466  -30.4994   23.8779 H   0  0  0  0  0  0  0  0  0  0  0  0
  -27.2251  -33.3632   26.1242 H   0  0  0  0  0  0  0  0  0  0  0  0
  -28.3902  -32.6065   25.0645 H   0  0  0  0  0  0  0  0  0  0  0  0
  -27.9772  -31.8555   26.5872 H   0  0  0  0  0  0  0  0  0  0  0  0
  -28.2744  -38.0016   24.6863 H   0  0  0  0  0  0  0  0  0  0  0  0
  -28.0396  -36.2711   24.7461 H   0  0  0  0  0  0  0  0  0  0  0  0
  -27.1773  -37.3087   25.8564 H   0  0  0  0  0  0  0  0  0  0  0  0
  -20.9627  -29.9365   21.7352 H   0  0  0  0  0  0  0  0  0  0  0  0
  -26.0447  -38.2561   24.0273 H   0  0  0  0  0  0  0  0  0  0  0  0
  -30.2432  -19.6061   23.7873 H   0  0  0  0  0  0  0  0  0  0  0  0
  -33.3560  -16.8455   24.3866 H   0  0  0  0  0  0  0  0  0  0  0  0
  -26.7149  -18.3870   22.4401 H   0  0  0  0  0  0  0  0  0  0  0  0
  -27.7473  -18.7016   23.8142 H   0  0  0  0  0  0  0  0  0  0  0  0
  -27.5110  -17.0628   23.2561 H   0  0  0  0  0  0  0  0  0  0  0  0
  -34.3598  -18.8408   28.0899 H   0  0  0  0  0  0  0  0  0  0  0  0
  -34.4838  -20.5158   28.5715 H   0  0  0  0  0  0  0  0  0  0  0  0
  -34.5701  -20.0843   26.8806 H   0  0  0  0  0  0  0  0  0  0  0  0
  -32.1750  -18.7025   29.3704 H   0  0  0  0  0  0  0  0  0  0  0  0
  -30.8908  -19.8313   29.0102 H   0  0  0  0  0  0  0  0  0  0  0  0
  -32.3458  -20.3870   29.8023 H   0  0  0  0  0  0  0  0  0  0  0  0
  -32.2945  -20.2905   24.9088 H   0  0  0  0  0  0  0  0  0  0  0  0
  -33.5843  -19.1192   25.1650 H   0  0  0  0  0  0  0  0  0  0  0  0
  -28.6446  -17.6140   21.1578 H   0  0  0  0  0  0  0  0  0  0  0  0
  -28.8855  -19.2619   21.7503 H   0  0  0  0  0  0  0  0  0  0  0  0
  -32.3000  -18.0345   26.8896 H   0  0  0  0  0  0  0  0  0  0  0  0
  -30.9728  -19.2044   26.5922 H   0  0  0  0  0  0  0  0  0  0  0  0
  -33.1975  -21.9240   27.4272 H   0  0  0  0  0  0  0  0  0  0  0  0
  -31.3028  -21.4030   27.8227 H   0  0  0  0  0  0  0  0  0  0  0  0
  -29.1316  -15.8628   21.2746 H   0  0  0  0  0  0  0  0  0  0  0  0
  1 25  1  0
  1 30  2  0
  1 85  1  0
  2  3  1  0
  2 25  1  0
  2 87  1  0
  2 88  1  0
  3  4  1  0
  3 89  1  0
  3 90  1  0
  4  5  1  0
  4 91  1  0
  4 92  1  0
  5  6  1  0
  5 26  1  0
  5 93  1  6
  6 25  1  0
  6 94  1  0
  6 95  1  0
  7  8  2  0
  7 26  1  0
  7 29  1  0
  8  9  1  0
  8 22  1  0
  9 10  1  0
  9 27  2  0
 10 11  2  0
 10 15  1  0
 11 12  1  0
 11 96  1  0
 12 13  2  0
 12 97  1  0
 13 14  1  0
 13 31  1  0
 14 15  2  0
 14 98  1  0
 15 99  1  0
 16 17  2  0
 16 21  1  0
 16 31  1  0
 17 18  1  0
 17100  1  0
 18 19  2  0
 18101  1  0
 19 20  1  0
 19 24  1  0
 20 21  2  0
 20102  1  0
 21 23  1  0
 22 28  1  0
 22 32  2  0
 26 27  1  0
 28103  1  0
 28104  1  0
 29105  1  0
 29106  1  0
 33 34  1  0
 33 66  1  0
 33 70  2  0
 34 36  1  0
 34 59  1  0
 34107  1  6
 35 44  2  0
 35 45  1  0
 35 68  1  0
 36 56  1  0
 36108  1  0
 37 39  1  0
 37 47  1  0
 37 66  1  0
 37109  1  6
 38 43  2  0
 38 46  1  0
 38 47  1  0
 39 64  1  0
 39 67  2  0
 40 52  1  0
 40 53  2  0
 40 58  1  0
 41110  1  0
 41111  1  0
 41112  1  0
 42 43  1  0
 42 66  1  0
 42113  1  0
 42114  1  0
 43 44  1  0
 44115  1  0
 45 46  2  0
 45116  1  0
 46117  1  0
 47118  1  0
 47119  1  0
 48 41  1  0
 48 56  1  0
 48 65  1  0
 48120  1  1
 49 50  1  0
 49 53  1  0
 49 64  1  0
 49121  1  1
 50 51  1  0
 50122  1  0
 50123  1  0
 51 52  1  0
 51124  1  0
 51125  1  0
 52126  1  0
 52127  1  0
 53 54  1  0
 54 55  2  0
 54128  1  0
 55 57  1  0
 55129  1  0
 56 69  2  0
 57 58  2  0
 57130  1  0
 58131  1  0
 59 60  1  0
 59 61  1  0
 59 62  1  0
 60132  1  0
 60133  1  0
 60134  1  0
 61135  1  0
 61136  1  0
 61137  1  0
 62138  1  0
 62139  1  0
 62140  1  0
 63 65  1  0
 63141  1  0
 63142  1  0
 63143  1  0
 64144  1  0
 65145  1  0
 68 83  1  0
 71 73  2  0
 71 74  1  0
 71146  1  0
 72 73  1  0
 72 76  2  0
 72147  1  0
 73 80  1  0
 74 75  2  0
 74 81  1  0
 75 76  1  0
 75 85  1  0
 76 86  1  0
 77 81  1  0
 77148  1  0
 77149  1  0
 77150  1  0
 78151  1  0
 78152  1  0
 78153  1  0
 79 84  1  0
 79154  1  0
 79155  1  0
 79156  1  0
 80 82  1  0
 80157  1  0
 80158  1  0
 81159  1  0
 81160  1  0
 82 84  1  0
 82161  1  0
 82162  1  0
 83 84  1  0
 83163  1  0
 83164  1  0
 84 78  1  0
 85165  1  0
M  ISO  4   1 100  68 101  83 101  85 100
M  END
$$$$
38
     RDKit          3D

169177  0  0  0  0  0  0  0  0999 V2000
  -30.7652  -14.3608   20.6636 C   0  0  0  0  0  0  0  0  0100  0  0
  -30.4392  -12.2669   19.3775 C   0  0  0  0  0  0  0  0  0101  0  0
  -29.4791  -12.5281   18.1977 C   0  0  0  0  0  0  0  0  0102  0  0
  -27.9985  -12.3963   18.6038 C   0  0  0  0  0  0  0  0  0103  0  0
  -27.6639  -13.2170   19.8820 C   0  0  2  0  0  0  0  0  0104  0  0
  -28.6795  -12.9602   21.0279 C   0  0  0  0  0  0  0  0  0105  0  0
  -25.2633  -13.8245   20.5754 C   0  0  0  0  0  0  0  0  0106  0  0
  -24.1645  -13.0409   20.9408 C   0  0  0  0  0  0  0  0  0107  0  0
  -24.6400  -11.7009   20.8697 C   0  0  0  0  0  0  0  0  0108  0  0
  -23.9005  -10.4085   21.0420 C   0  0  0  0  0  0  0  0  0109  0  0
  -24.3588   -9.4123   21.9123 C   0  0  0  0  0  0  0  0  0110  0  0
  -23.6296   -8.2350   22.0803 C   0  0  0  0  0  0  0  0  0111  0  0
  -22.4385   -8.0419   21.3657 C   0  0  0  0  0  0  0  0  0112  0  0
  -22.0103   -9.0167   20.4678 C   0  0  0  0  0  0  0  0  0113  0  0
  -22.7317  -10.1925   20.3102 C   0  0  0  0  0  0  0  0  0114  0  0
  -21.6857   -6.0709   22.5391 C   0  0  0  0  0  0  0  0  0115  0  0
  -21.4064   -6.5490   23.8264 C   0  0  0  0  0  0  0  0  0116  0  0
  -21.3635   -5.6677   24.9085 C   0  0  0  0  0  0  0  0  0117  0  0
  -21.5973   -4.3067   24.7088 C   0  0  0  0  0  0  0  0  0118  0  0
  -21.8700   -3.8284   23.4282 C   0  0  0  0  0  0  0  0  0119  0  0
  -21.9144   -4.7056   22.3460 C   0  0  0  0  0  0  0  0  0120  0  0
  -22.8194  -13.5263   21.1763 C   0  0  0  0  0  0  0  0  0121  0  0
  -22.1559   -4.2206   21.1063 F   0  0  0  0  0  0  0  0  0122  0  0
  -21.5628   -3.4510   25.7555 F   0  0  0  0  0  0  0  0  0123  0  0
  -30.0261  -13.1803   20.4553 N   0  0  0  0  0  0  0  0  0124  0  0
  -26.2911  -12.9356   20.3443 N   0  0  0  0  0  0  0  0  0125  0  0
  -25.9236  -11.6675   20.5847 N   0  0  0  0  0  0  0  0  0126  0  0
  -22.0708  -12.7905   22.0005 N   0  0  0  0  0  0  0  0  0127  0  0
  -25.4117  -15.1773   20.4097 N   0  0  0  0  0  0  0  0  0128  0  0
  -31.7916  -14.6724   20.0536 O   0  0  0  0  0  0  0  0  0129  0  0
  -21.6670   -6.9022   21.4423 O   0  0  0  0  0  0  0  0  0130  0  0
  -22.3946  -14.5564   20.6568 O   0  0  0  0  0  0  0  0  0131  0  0
  -24.6048  -31.8614   23.2223 C   0  0  0  0  0  0  0  0  0100  0  0
  -25.8822  -32.4841   23.8616 C   0  0  1  0  0  0  0  0  0101  0  0
  -27.2536  -27.5042   20.1156 C   0  0  0  0  0  0  0  0  0102  0  0
  -25.5726  -33.8762   24.2210 N   0  0  0  0  0  0  0  0  0103  0  0
  -23.4066  -30.4859   21.5461 C   0  0  2  0  0  0  0  0  0104  0  0
  -24.8467  -28.9636   20.1247 C   0  0  0  0  0  0  0  0  0105  0  0
  -22.7412  -29.4652   22.5052 C   0  0  0  0  0  0  0  0  0106  0  0
  -18.0167  -28.1302   22.8626 C   0  0  0  0  0  0  0  0  0107  0  0
  -24.1342  -36.7390   23.2568 C   0  0  0  0  0  0  0  0  0108  0  0
  -25.9141  -30.8882   21.3456 C   0  0  0  0  0  0  0  0  0109  0  0
  -25.9930  -29.5029   20.7208 C   0  0  0  0  0  0  0  0  0110  0  0
  -27.1758  -28.7612   20.7331 C   0  0  0  0  0  0  0  0  0111  0  0
  -26.1032  -26.9836   19.5230 C   0  0  0  0  0  0  0  0  0112  0  0
  -24.9097  -27.7011   19.5331 C   0  0  0  0  0  0  0  0  0113  0  0
  -23.5715  -29.7899   20.1582 C   0  0  0  0  0  0  0  0  0114  0  0
  -25.3990  -36.3212   24.0232 C   0  0  1  0  0  0  0  0  0115  0  0
  -20.5793  -28.3813   23.1004 C   0  0  2  0  0  0  0  0  0116  0  0
  -20.6548  -26.9392   22.5411 C   0  0  0  0  0  0  0  0  0117  0  0
  -19.5615  -26.6407   21.5143 C   0  0  0  0  0  0  0  0  0118  0  0
  -18.1797  -26.7818   22.1673 C   0  0  0  0  0  0  0  0  0119  0  0
  -19.1385  -28.8769   23.2988 C   0  0  0  0  0  0  0  0  0120  0  0
  -18.9183  -30.1286   23.8878 C   0  0  0  0  0  0  0  0  0121  0  0
  -17.6396  -30.6493   24.0352 C   0  0  0  0  0  0  0  0  0122  0  0
  -25.9153  -34.9582   23.4993 C   0  0  0  0  0  0  0  0  0123  0  0
  -16.5415  -29.9068   23.6254 C   0  0  0  0  0  0  0  0  0124  0  0
  -16.7331  -28.6521   23.0586 C   0  0  0  0  0  0  0  0  0125  0  0
  -26.4583  -31.6439   25.0683 C   0  0  0  0  0  0  0  0  0126  0  0
  -25.3807  -31.3179   26.1374 C   0  0  0  0  0  0  0  0  0127  0  0
  -27.0530  -30.3024   24.5680 C   0  0  0  0  0  0  0  0  0128  0  0
  -27.6014  -32.4281   25.7651 C   0  0  0  0  0  0  0  0  0129  0  0
  -27.5629  -37.2220   24.8621 C   0  0  0  0  0  0  0  0  0130  0  0
  -21.4133  -29.3375   22.3735 N   0  0  0  0  0  0  0  0  0131  0  0
  -26.4706  -37.3372   23.9061 N   0  0  0  0  0  0  0  0  0132  0  0
  -24.6674  -31.0544   22.1178 N   0  0  0  0  0  0  0  0  0133  0  0
  -23.4259  -28.8150   23.2971 O   0  0  0  0  0  0  0  0  0134  0  0
  -28.3948  -26.7345   20.0089 O   0  0  0  0  0  0  0  0  0135  0  0
  -26.5870  -34.9065   22.4671 O   0  0  0  0  0  0  0  0  0136  0  0
  -23.5365  -32.1254   23.7833 O   0  0  0  0  0  0  0  0  0137  0  0
  -32.0549  -16.6239   22.5394 C   0  0  0  0  0  0  0  0  0  0  0  0
  -29.8684  -17.4738   23.1171 C   0  0  0  0  0  0  0  0  0  0  0  0
  -31.8378  -18.3838   24.1802 C   0  0  0  0  0  0  0  0  0  0  0  0
  -32.6390  -17.5139   23.4406 C   0  0  0  0  0  0  0  0  0  0  0  0
  -30.4525  -18.3638   24.0184 C   0  0  0  0  0  0  0  0  0  0  0  0
  -30.6696  -16.6038   22.3776 C   0  0  0  0  0  0  0  0  0  0  0  0
  -32.6307  -18.9146   26.4115 C   0  0  0  0  0  0  0  0  0  0  0  0
  -32.4568  -19.3270   25.1394 C   0  0  0  0  0  0  0  0  0  0  0  0
  -34.1275  -17.5060   23.5842 C   0  0  0  0  0  0  0  0  0  0  0  0
  -29.5592  -19.2801   24.7920 C   0  0  0  0  0  0  0  0  0  0  0  0
  -32.5446  -20.8114   23.1109 C   0  0  0  0  0  0  0  0  0  0  0  0
  -34.4810  -18.9991   28.0606 C   0  0  0  0  0  0  0  0  0  0  0  0
  -32.8924  -20.6640   24.5862 C   0  0  0  0  0  0  0  0  0  0  0  0
  -32.2047  -19.8564   28.7146 C   0  0  0  0  0  0  0  0  0  0  0  0
  -30.9456  -20.6349   28.3393 C   0  0  0  0  0  0  0  0  0  1  0  0
  -33.2185  -19.7050   27.5592 C   0  0  2  0  0  0  0  0  0  0  0  0
  -30.0760  -15.6995   21.4624 N   0  0  0  0  0  0  0  0  0  0  0  0
  -31.4485  -12.4701   19.0860 H   0  0  0  0  0  0  0  0  0  0  0  0
  -30.3970  -11.2460   19.6950 H   0  0  0  0  0  0  0  0  0  0  0  0
  -29.6870  -11.8204   17.4226 H   0  0  0  0  0  0  0  0  0  0  0  0
  -29.6375  -13.5326   17.8649 H   0  0  0  0  0  0  0  0  0  0  0  0
  -27.7830  -11.3650   18.7904 H   0  0  0  0  0  0  0  0  0  0  0  0
  -27.4028  -12.7801   17.8021 H   0  0  0  0  0  0  0  0  0  0  0  0
  -27.7353  -14.2503   19.6136 H   0  0  0  0  0  0  0  0  0  0  0  0
  -28.5890  -11.9550   21.3832 H   0  0  0  0  0  0  0  0  0  0  0  0
  -28.5005  -13.6134   21.8562 H   0  0  0  0  0  0  0  0  0  0  0  0
  -25.2399   -9.5495   22.4318 H   0  0  0  0  0  0  0  0  0  0  0  0
  -23.9663   -7.5070   22.7297 H   0  0  0  0  0  0  0  0  0  0  0  0
  -21.1515   -8.8641   19.9162 H   0  0  0  0  0  0  0  0  0  0  0  0
  -22.4016  -10.9115   19.6476 H   0  0  0  0  0  0  0  0  0  0  0  0
  -21.2319   -7.5552   23.9750 H   0  0  0  0  0  0  0  0  0  0  0  0
  -21.1589   -6.0228   25.8556 H   0  0  0  0  0  0  0  0  0  0  0  0
  -22.0396   -2.8212   23.2809 H   0  0  0  0  0  0  0  0  0  0  0  0
  -22.4401  -11.9703   22.4008 H   0  0  0  0  0  0  0  0  0  0  0  0
  -21.1493  -13.0679   22.2082 H   0  0  0  0  0  0  0  0  0  0  0  0
  -24.6538  -15.7807   20.5848 H   0  0  0  0  0  0  0  0  0  0  0  0
  -26.2762  -15.5453   20.1156 H   0  0  0  0  0  0  0  0  0  0  0  0
  -26.6778  -32.4663   23.1464 H   0  0  0  0  0  0  0  0  0  0  0  0
  -25.0747  -34.0282   25.0566 H   0  0  0  0  0  0  0  0  0  0  0  0
  -22.7881  -31.3489   21.4131 H   0  0  0  0  0  0  0  0  0  0  0  0
  -23.3854  -35.9823   23.3648 H   0  0  0  0  0  0  0  0  0  0  0  0
  -24.3696  -36.8624   22.2204 H   0  0  0  0  0  0  0  0  0  0  0  0
  -23.7669  -37.6632   23.6516 H   0  0  0  0  0  0  0  0  0  0  0  0
  -25.9445  -31.6237   20.5691 H   0  0  0  0  0  0  0  0  0  0  0  0
  -26.7436  -31.0079   22.0108 H   0  0  0  0  0  0  0  0  0  0  0  0
  -28.0090  -29.1452   21.2057 H   0  0  0  0  0  0  0  0  0  0  0  0
  -26.1369  -26.0560   19.0719 H   0  0  0  0  0  0  0  0  0  0  0  0
  -24.0652  -27.2961   19.0997 H   0  0  0  0  0  0  0  0  0  0  0  0
  -23.6156  -30.5365   19.3930 H   0  0  0  0  0  0  0  0  0  0  0  0
  -22.7355  -29.1425   19.9945 H   0  0  0  0  0  0  0  0  0  0  0  0
  -25.1353  -36.2335   25.0565 H   0  0  0  0  0  0  0  0  0  0  0  0
  -21.0070  -28.3206   24.0793 H   0  0  0  0  0  0  0  0  0  0  0  0
  -20.5555  -26.2518   23.3550 H   0  0  0  0  0  0  0  0  0  0  0  0
  -21.5974  -26.8362   22.0454 H   0  0  0  0  0  0  0  0  0  0  0  0
  -19.6810  -25.6422   21.1488 H   0  0  0  0  0  0  0  0  0  0  0  0
  -19.6406  -27.3343   20.7034 H   0  0  0  0  0  0  0  0  0  0  0  0
  -17.4282  -26.6888   21.4113 H   0  0  0  0  0  0  0  0  0  0  0  0
  -18.0803  -26.0130   22.9049 H   0  0  0  0  0  0  0  0  0  0  0  0
  -19.7265  -30.6774   24.2204 H   0  0  0  0  0  0  0  0  0  0  0  0
  -17.5064  -31.5856   24.4483 H   0  0  0  0  0  0  0  0  0  0  0  0
  -15.5878  -30.2839   23.7407 H   0  0  0  0  0  0  0  0  0  0  0  0
  -15.9120  -28.0941   22.7766 H   0  0  0  0  0  0  0  0  0  0  0  0
  -24.5787  -30.7757   25.6817 H   0  0  0  0  0  0  0  0  0  0  0  0
  -25.0041  -32.2289   26.5536 H   0  0  0  0  0  0  0  0  0  0  0  0
  -25.8166  -30.7245   26.9138 H   0  0  0  0  0  0  0  0  0  0  0  0
  -26.2892  -29.7335   24.0803 H   0  0  0  0  0  0  0  0  0  0  0  0
  -27.4336  -29.7484   25.4006 H   0  0  0  0  0  0  0  0  0  0  0  0
  -27.8466  -30.4994   23.8779 H   0  0  0  0  0  0  0  0  0  0  0  0
  -27.2251  -33.3632   26.1242 H   0  0  0  0  0  0  0  0  0  0  0  0
  -28.3902  -32.6065   25.0645 H   0  0  0  0  0  0  0  0  0  0  0  0
  -27.9772  -31.8555   26.5872 H   0  0  0  0  0  0  0  0  0  0  0  0
  -28.2744  -38.0016   24.6863 H   0  0  0  0  0  0  0  0  0  0  0  0
  -28.0396  -36.2711   24.7461 H   0  0  0  0  0  0  0  0  0  0  0  0
  -27.1773  -37.3087   25.8564 H   0  0  0  0  0  0  0  0  0  0  0  0
  -20.9627  -29.9365   21.7352 H   0  0  0  0  0  0  0  0  0  0  0  0
  -26.0447  -38.2561   24.0273 H   0  0  0  0  0  0  0  0  0  0  0  0
  -32.6477  -15.9802   21.9923 H   0  0  0  0  0  0  0  0  0  0  0  0
  -28.8435  -17.4590   22.9974 H   0  0  0  0  0  0  0  0  0  0  0  0
  -32.3287  -17.9514   26.6260 H   0  0  0  0  0  0  0  0  0  0  0  0
  -34.5449  -16.7687   22.9308 H   0  0  0  0  0  0  0  0  0  0  0  0
  -34.3870  -17.2739   24.5960 H   0  0  0  0  0  0  0  0  0  0  0  0
  -34.5156  -18.4698   23.3286 H   0  0  0  0  0  0  0  0  0  0  0  0
  -28.5406  -19.1009   24.5176 H   0  0  0  0  0  0  0  0  0  0  0  0
  -29.8142  -20.2959   24.5727 H   0  0  0  0  0  0  0  0  0  0  0  0
  -29.6836  -19.0992   25.8392 H   0  0  0  0  0  0  0  0  0  0  0  0
  -32.8698  -21.7691   22.7617 H   0  0  0  0  0  0  0  0  0  0  0  0
  -31.4856  -20.7262   22.9839 H   0  0  0  0  0  0  0  0  0  0  0  0
  -33.0340  -20.0424   22.5505 H   0  0  0  0  0  0  0  0  0  0  0  0
  -35.1774  -18.8984   27.2545 H   0  0  0  0  0  0  0  0  0  0  0  0
  -34.2236  -18.0295   28.4327 H   0  0  0  0  0  0  0  0  0  0  0  0
  -34.9245  -19.5760   28.8451 H   0  0  0  0  0  0  0  0  0  0  0  0
  -33.9520  -20.7573   24.7024 H   0  0  0  0  0  0  0  0  0  0  0  0
  -32.3751  -21.4295   25.1259 H   0  0  0  0  0  0  0  0  0  0  0  0
  -31.9123  -18.8785   29.0357 H   0  0  0  0  0  0  0  0  0  0  0  0
  -32.6949  -20.4141   29.4850 H   0  0  0  0  0  0  0  0  0  0  0  0
  -30.8012  -21.2870   29.1752 H   0  0  0  0  0  0  0  0  0  0  0  0
  -30.3766  -19.7829   28.0309 H   0  0  0  0  0  0  0  0  0  0  0  0
  -33.4625  -20.6860   27.2084 H   0  0  0  0  0  0  0  0  0  0  0  0
  -29.1279  -15.8690   21.2583 H   0  0  0  0  0  0  0  0  0  0  0  0
  1 25  1  0
  1 30  2  0
  1 87  1  0
  2  3  1  0
  2 25  1  0
  2 88  1  0
  2 89  1  0
  3  4  1  0
  3 90  1  0
  3 91  1  0
  4  5  1  0
  4 92  1  0
  4 93  1  0
  5  6  1  0
  5 26  1  0
  5 94  1  6
  6 25  1  0
  6 95  1  0
  6 96  1  0
  7  8  2  0
  7 26  1  0
  7 29  1  0
  8  9  1  0
  8 22  1  0
  9 10  1  0
  9 27  2  0
 10 11  2  0
 10 15  1  0
 11 12  1  0
 11 97  1  0
 12 13  2  0
 12 98  1  0
 13 14  1  0
 13 31  1  0
 14 15  2  0
 14 99  1  0
 15100  1  0
 16 17  2  0
 16 21  1  0
 16 31  1  0
 17 18  1  0
 17101  1  0
 18 19  2  0
 18102  1  0
 19 20  1  0
 19 24  1  0
 20 21  2  0
 20103  1  0
 21 23  1  0
 22 28  1  0
 22 32  2  0
 26 27  1  0
 28104  1  0
 28105  1  0
 29106  1  0
 29107  1  0
 33 34  1  0
 33 66  1  0
 33 70  2  0
 34 36  1  0
 34 59  1  0
 34108  1  6
 35 44  2  0
 35 45  1  0
 35 68  1  0
 36 56  1  0
 36109  1  0
 37 39  1  0
 37 47  1  0
 37 66  1  0
 37110  1  6
 38 43  2  0
 38 46  1  0
 38 47  1  0
 39 64  1  0
 39 67  2  0
 40 52  1  0
 40 53  2  0
 40 58  1  0
 41111  1  0
 41112  1  0
 41113  1  0
 42 43  1  0
 42 66  1  0
 42114  1  0
 42115  1  0
 43 44  1  0
 44116  1  0
 45 46  2  0
 45117  1  0
 46118  1  0
 47119  1  0
 47120  1  0
 48 41  1  0
 48 56  1  0
 48 65  1  0
 48121  1  1
 49 50  1  0
 49 53  1  0
 49 64  1  0
 49122  1  1
 50 51  1  0
 50123  1  0
 50124  1  0
 51 52  1  0
 51125  1  0
 51126  1  0
 52127  1  0
 52128  1  0
 53 54  1  0
 54 55  2  0
 54129  1  0
 55 57  1  0
 55130  1  0
 56 69  2  0
 57 58  2  0
 57131  1  0
 58132  1  0
 59 60  1  0
 59 61  1  0
 59 62  1  0
 60133  1  0
 60134  1  0
 60135  1  0
 61136  1  0
 61137  1  0
 61138  1  0
 62139  1  0
 62140  1  0
 62141  1  0
 63 65  1  0
 63142  1  0
 63143  1  0
 63144  1  0
 64145  1  0
 65146  1  0
 68 85  1  0
 71 74  2  0
 71 76  1  0
 71147  1  0
 72 75  1  0
 72 76  2  0
 72148  1  0
 73 74  1  0
 73 75  2  0
 73 78  1  0
 74 79  1  0
 75 80  1  0
 76 87  1  0
 77 78  2  0
 77 86  1  0
 77149  1  0
 78 83  1  0
 79150  1  0
 79151  1  0
 79152  1  0
 80153  1  0
 80154  1  0
 80155  1  0
 81 83  1  0
 81156  1  0
 81157  1  0
 81158  1  0
 82159  1  0
 82160  1  0
 82161  1  0
 83162  1  0
 83163  1  0
 84 85  1  0
 84 86  1  0
 84164  1  0
 84165  1  0
 85166  1  0
 85167  1  0
 86 82  1  0
 86168  1  6
 87169  1  0
M  ISO  4   1 100  68 101  85 101  87 100
M  END
$$$$
39
     RDKit          3D

188197  0  0  0  0  0  0  0  0999 V2000
  -30.7652  -14.3608   20.6636 C   0  0  0  0  0  0  0  0  0100  0  0
  -30.4392  -12.2669   19.3775 C   0  0  0  0  0  0  0  0  0101  0  0
  -29.4791  -12.5281   18.1977 C   0  0  0  0  0  0  0  0  0102  0  0
  -27.9985  -12.3963   18.6038 C   0  0  0  0  0  0  0  0  0103  0  0
  -27.6639  -13.2170   19.8820 C   0  0  2  0  0  0  0  0  0104  0  0
  -28.6795  -12.9602   21.0279 C   0  0  0  0  0  0  0  0  0105  0  0
  -25.2633  -13.8245   20.5754 C   0  0  0  0  0  0  0  0  0106  0  0
  -24.1645  -13.0409   20.9408 C   0  0  0  0  0  0  0  0  0107  0  0
  -24.6400  -11.7009   20.8697 C   0  0  0  0  0  0  0  0  0108  0  0
  -23.9005  -10.4085   21.0420 C   0  0  0  0  0  0  0  0  0109  0  0
  -24.3588   -9.4123   21.9123 C   0  0  0  0  0  0  0  0  0110  0  0
  -23.6296   -8.2350   22.0803 C   0  0  0  0  0  0  0  0  0111  0  0
  -22.4385   -8.0419   21.3657 C   0  0  0  0  0  0  0  0  0112  0  0
  -22.0103   -9.0167   20.4678 C   0  0  0  0  0  0  0  0  0113  0  0
  -22.7317  -10.1925   20.3102 C   0  0  0  0  0  0  0  0  0114  0  0
  -21.6857   -6.0709   22.5391 C   0  0  0  0  0  0  0  0  0115  0  0
  -21.4064   -6.5490   23.8264 C   0  0  0  0  0  0  0  0  0116  0  0
  -21.3635   -5.6677   24.9085 C   0  0  0  0  0  0  0  0  0117  0  0
  -21.5973   -4.3067   24.7088 C   0  0  0  0  0  0  0  0  0118  0  0
  -21.8700   -3.8284   23.4282 C   0  0  0  0  0  0  0  0  0119  0  0
  -21.9144   -4.7056   22.3460 C   0  0  0  0  0  0  0  0  0120  0  0
  -22.8194  -13.5263   21.1763 C   0  0  0  0  0  0  0  0  0121  0  0
  -22.1559   -4.2206   21.1063 F   0  0  0  0  0  0  0  0  0122  0  0
  -21.5628   -3.4510   25.7555 F   0  0  0  0  0  0  0  0  0123  0  0
  -30.0261  -13.1803   20.4553 N   0  0  0  0  0  0  0  0  0124  0  0
  -26.2911  -12.9356   20.3443 N   0  0  0  0  0  0  0  0  0125  0  0
  -25.9236  -11.6675   20.5847 N   0  0  0  0  0  0  0  0  0126  0  0
  -22.0708  -12.7905   22.0005 N   0  0  0  0  0  0  0  0  0127  0  0
  -25.4117  -15.1773   20.4097 N   0  0  0  0  0  0  0  0  0128  0  0
  -31.7916  -14.6724   20.0536 O   0  0  0  0  0  0  0  0  0129  0  0
  -21.6670   -6.9022   21.4423 O   0  0  0  0  0  0  0  0  0130  0  0
  -22.3946  -14.5564   20.6568 O   0  0  0  0  0  0  0  0  0131  0  0
  -24.6048  -31.8614   23.2223 C   0  0  0  0  0  0  0  0  0100  0  0
  -25.8822  -32.4841   23.8616 C   0  0  1  0  0  0  0  0  0101  0  0
  -27.2536  -27.5042   20.1156 C   0  0  0  0  0  0  0  0  0102  0  0
  -25.5726  -33.8762   24.2210 N   0  0  0  0  0  0  0  0  0103  0  0
  -23.4066  -30.4859   21.5461 C   0  0  2  0  0  0  0  0  0104  0  0
  -24.8467  -28.9636   20.1247 C   0  0  0  0  0  0  0  0  0105  0  0
  -22.7412  -29.4652   22.5052 C   0  0  0  0  0  0  0  0  0106  0  0
  -18.0167  -28.1302   22.8626 C   0  0  0  0  0  0  0  0  0107  0  0
  -24.1342  -36.7390   23.2568 C   0  0  0  0  0  0  0  0  0108  0  0
  -25.9141  -30.8882   21.3456 C   0  0  0  0  0  0  0  0  0109  0  0
  -25.9930  -29.5029   20.7208 C   0  0  0  0  0  0  0  0  0110  0  0
  -27.1758  -28.7612   20.7331 C   0  0  0  0  0  0  0  0  0111  0  0
  -26.1032  -26.9836   19.5230 C   0  0  0  0  0  0  0  0  0112  0  0
  -24.9097  -27.7011   19.5331 C   0  0  0  0  0  0  0  0  0113  0  0
  -23.5715  -29.7899   20.1582 C   0  0  0  0  0  0  0  0  0114  0  0
  -25.3990  -36.3212   24.0232 C   0  0  1  0  0  0  0  0  0115  0  0
  -20.5793  -28.3813   23.1004 C   0  0  2  0  0  0  0  0  0116  0  0
  -20.6548  -26.9392   22.5411 C   0  0  0  0  0  0  0  0  0117  0  0
  -19.5615  -26.6407   21.5143 C   0  0  0  0  0  0  0  0  0118  0  0
  -18.1797  -26.7818   22.1673 C   0  0  0  0  0  0  0  0  0119  0  0
  -19.1385  -28.8769   23.2988 C   0  0  0  0  0  0  0  0  0120  0  0
  -18.9183  -30.1286   23.8878 C   0  0  0  0  0  0  0  0  0121  0  0
  -17.6396  -30.6493   24.0352 C   0  0  0  0  0  0  0  0  0122  0  0
  -25.9153  -34.9582   23.4993 C   0  0  0  0  0  0  0  0  0123  0  0
  -16.5415  -29.9068   23.6254 C   0  0  0  0  0  0  0  0  0124  0  0
  -16.7331  -28.6521   23.0586 C   0  0  0  0  0  0  0  0  0125  0  0
  -26.4583  -31.6439   25.0683 C   0  0  0  0  0  0  0  0  0126  0  0
  -25.3807  -31.3179   26.1374 C   0  0  0  0  0  0  0  0  0127  0  0
  -27.0530  -30.3024   24.5680 C   0  0  0  0  0  0  0  0  0128  0  0
  -27.6014  -32.4281   25.7651 C   0  0  0  0  0  0  0  0  0129  0  0
  -27.5629  -37.2220   24.8621 C   0  0  0  0  0  0  0  0  0130  0  0
  -21.4133  -29.3375   22.3735 N   0  0  0  0  0  0  0  0  0131  0  0
  -26.4706  -37.3372   23.9061 N   0  0  0  0  0  0  0  0  0132  0  0
  -24.6674  -31.0544   22.1178 N   0  0  0  0  0  0  0  0  0133  0  0
  -23.4259  -28.8150   23.2971 O   0  0  0  0  0  0  0  0  0134  0  0
  -28.3948  -26.7345   20.0089 O   0  0  0  0  0  0  0  0  0135  0  0
  -26.5870  -34.9065   22.4671 O   0  0  0  0  0  0  0  0  0136  0  0
  -23.5365  -32.1254   23.7833 O   0  0  0  0  0  0  0  0  0137  0  0
  -29.7870  -20.1786   19.7003 C   0  0  0  0  0  0  0  0  0  0  0  0
  -29.2513  -26.5773   18.8646 C   0  0  0  0  0  0  0  0  0  0  0  0
  -29.8954  -18.8263   20.0242 C   0  0  0  0  0  0  0  0  0  0  0  0
  -29.0340  -25.2443   19.2131 C   0  0  0  0  0  0  0  0  0  0  0  0
  -27.8986  -20.3849   21.1931 C   0  0  0  0  0  0  0  0  0  0  0  0
  -31.3658  -24.7583   18.8080 C   0  0  0  0  0  0  0  0  0  0  0  0
  -28.7886  -20.9580   20.2848 C   0  0  0  0  0  0  0  0  0  0  0  0
  -30.5257  -27.0008   18.4876 C   0  0  0  0  0  0  0  0  0  0  0  0
  -28.0070  -19.0324   21.5170 C   0  0  0  0  0  0  0  0  0  0  0  0
  -31.5830  -26.0914   18.4594 C   0  0  0  0  0  0  0  0  0  0  0  0
  -30.0913  -24.3348   19.1849 C   0  0  0  0  0  0  0  0  0  0  0  0
  -29.0054  -18.2532   20.9325 C   0  0  0  0  0  0  0  0  0  0  0  0
  -28.6738  -22.3858   19.9416 C   0  0  0  0  0  0  0  0  0  0  0  0
  -33.0950  -26.6899   16.5510 C   0  0  0  0  0  0  0  0  0  0  0  0
  -24.9908  -16.9879   22.7928 C   0  0  0  0  0  0  0  0  0  0  0  0
  -30.4141  -31.8895   20.0365 C   0  0  0  0  0  0  0  0  0  0  0  0
  -31.7618  -31.1821   18.0454 C   0  0  0  0  0  0  0  0  0  0  0  0
  -27.0400  -18.4445   22.4929 C   0  0  0  0  0  0  0  0  0  0  0  0
  -32.9563  -26.5226   18.0612 C   0  0  0  0  0  0  0  0  0  0  0  0
  -25.9541  -17.6127   21.7960 C   0  0  0  0  0  0  0  0  0  0  0  0
  -30.3167  -29.4757   19.1918 C   0  0  0  0  0  0  0  0  0  0  0  0
  -30.7364  -28.4511   18.1132 C   0  0  2  0  0  0  0  0  0  0  0  0
  -30.4511  -30.9704   18.8134 C   0  0  0  0  0  0  0  0  0  1  0  0
  -29.8749  -23.0018   19.5353 N   0  0  0  0  0  0  0  0  0  0  0  0
  -29.1319  -16.8777   21.2485 N   0  0  0  0  0  0  0  0  0  0  0  0
  -29.9902  -28.8001   16.8555 N   0  0  0  0  0  0  0  0  0  0  0  0
  -27.6012  -22.9771   20.0454 O   0  0  0  0  0  0  0  0  0  0  0  0
  -31.4485  -12.4701   19.0860 H   0  0  0  0  0  0  0  0  0  0  0  0
  -30.3970  -11.2460   19.6950 H   0  0  0  0  0  0  0  0  0  0  0  0
  -29.6870  -11.8204   17.4226 H   0  0  0  0  0  0  0  0  0  0  0  0
  -29.6375  -13.5326   17.8649 H   0  0  0  0  0  0  0  0  0  0  0  0
  -27.7830  -11.3650   18.7904 H   0  0  0  0  0  0  0  0  0  0  0  0
  -27.4028  -12.7801   17.8021 H   0  0  0  0  0  0  0  0  0  0  0  0
  -27.7353  -14.2503   19.6136 H   0  0  0  0  0  0  0  0  0  0  0  0
  -28.5890  -11.9550   21.3832 H   0  0  0  0  0  0  0  0  0  0  0  0
  -28.5005  -13.6134   21.8562 H   0  0  0  0  0  0  0  0  0  0  0  0
  -25.2399   -9.5495   22.4318 H   0  0  0  0  0  0  0  0  0  0  0  0
  -23.9663   -7.5070   22.7297 H   0  0  0  0  0  0  0  0  0  0  0  0
  -21.1515   -8.8641   19.9162 H   0  0  0  0  0  0  0  0  0  0  0  0
  -22.4016  -10.9115   19.6476 H   0  0  0  0  0  0  0  0  0  0  0  0
  -21.2319   -7.5552   23.9750 H   0  0  0  0  0  0  0  0  0  0  0  0
  -21.1589   -6.0228   25.8556 H   0  0  0  0  0  0  0  0  0  0  0  0
  -22.0396   -2.8212   23.2809 H   0  0  0  0  0  0  0  0  0  0  0  0
  -22.4401  -11.9703   22.4008 H   0  0  0  0  0  0  0  0  0  0  0  0
  -21.1493  -13.0679   22.2082 H   0  0  0  0  0  0  0  0  0  0  0  0
  -24.6538  -15.7807   20.5848 H   0  0  0  0  0  0  0  0  0  0  0  0
  -26.2762  -15.5453   20.1156 H   0  0  0  0  0  0  0  0  0  0  0  0
  -26.6778  -32.4663   23.1464 H   0  0  0  0  0  0  0  0  0  0  0  0
  -25.0747  -34.0282   25.0566 H   0  0  0  0  0  0  0  0  0  0  0  0
  -22.7881  -31.3489   21.4131 H   0  0  0  0  0  0  0  0  0  0  0  0
  -23.3854  -35.9823   23.3648 H   0  0  0  0  0  0  0  0  0  0  0  0
  -24.3696  -36.8624   22.2204 H   0  0  0  0  0  0  0  0  0  0  0  0
  -23.7669  -37.6632   23.6516 H   0  0  0  0  0  0  0  0  0  0  0  0
  -25.9445  -31.6237   20.5691 H   0  0  0  0  0  0  0  0  0  0  0  0
  -26.7436  -31.0079   22.0108 H   0  0  0  0  0  0  0  0  0  0  0  0
  -28.0090  -29.1452   21.2057 H   0  0  0  0  0  0  0  0  0  0  0  0
  -26.1369  -26.0560   19.0719 H   0  0  0  0  0  0  0  0  0  0  0  0
  -24.0652  -27.2961   19.0997 H   0  0  0  0  0  0  0  0  0  0  0  0
  -23.6156  -30.5365   19.3930 H   0  0  0  0  0  0  0  0  0  0  0  0
  -22.7355  -29.1425   19.9945 H   0  0  0  0  0  0  0  0  0  0  0  0
  -25.1353  -36.2335   25.0565 H   0  0  0  0  0  0  0  0  0  0  0  0
  -21.0070  -28.3206   24.0793 H   0  0  0  0  0  0  0  0  0  0  0  0
  -20.5555  -26.2518   23.3550 H   0  0  0  0  0  0  0  0  0  0  0  0
  -21.5974  -26.8362   22.0454 H   0  0  0  0  0  0  0  0  0  0  0  0
  -19.6810  -25.6422   21.1488 H   0  0  0  0  0  0  0  0  0  0  0  0
  -19.6406  -27.3343   20.7034 H   0  0  0  0  0  0  0  0  0  0  0  0
  -17.4282  -26.6888   21.4113 H   0  0  0  0  0  0  0  0  0  0  0  0
  -18.0803  -26.0130   22.9049 H   0  0  0  0  0  0  0  0  0  0  0  0
  -19.7265  -30.6774   24.2204 H   0  0  0  0  0  0  0  0  0  0  0  0
  -17.5064  -31.5856   24.4483 H   0  0  0  0  0  0  0  0  0  0  0  0
  -15.5878  -30.2839   23.7407 H   0  0  0  0  0  0  0  0  0  0  0  0
  -15.9120  -28.0941   22.7766 H   0  0  0  0  0  0  0  0  0  0  0  0
  -24.5787  -30.7757   25.6817 H   0  0  0  0  0  0  0  0  0  0  0  0
  -25.0041  -32.2289   26.5536 H   0  0  0  0  0  0  0  0  0  0  0  0
  -25.8166  -30.7245   26.9138 H   0  0  0  0  0  0  0  0  0  0  0  0
  -26.2892  -29.7335   24.0803 H   0  0  0  0  0  0  0  0  0  0  0  0
  -27.4336  -29.7484   25.4006 H   0  0  0  0  0  0  0  0  0  0  0  0
  -27.8466  -30.4994   23.8779 H   0  0  0  0  0  0  0  0  0  0  0  0
  -27.2251  -33.3632   26.1242 H   0  0  0  0  0  0  0  0  0  0  0  0
  -28.3902  -32.6065   25.0645 H   0  0  0  0  0  0  0  0  0  0  0  0
  -27.9772  -31.8555   26.5872 H   0  0  0  0  0  0  0  0  0  0  0  0
  -28.2744  -38.0016   24.6863 H   0  0  0  0  0  0  0  0  0  0  0  0
  -28.0396  -36.2711   24.7461 H   0  0  0  0  0  0  0  0  0  0  0  0
  -27.1773  -37.3087   25.8564 H   0  0  0  0  0  0  0  0  0  0  0  0
  -20.9627  -29.9365   21.7352 H   0  0  0  0  0  0  0  0  0  0  0  0
  -26.0447  -38.2561   24.0273 H   0  0  0  0  0  0  0  0  0  0  0  0
  -30.4454  -20.6026   19.0282 H   0  0  0  0  0  0  0  0  0  0  0  0
  -28.4692  -27.2502   18.8857 H   0  0  0  0  0  0  0  0  0  0  0  0
  -30.6341  -18.2497   19.5918 H   0  0  0  0  0  0  0  0  0  0  0  0
  -28.0911  -24.9309   19.4918 H   0  0  0  0  0  0  0  0  0  0  0  0
  -27.1599  -20.9615   21.6255 H   0  0  0  0  0  0  0  0  0  0  0  0
  -32.1480  -24.0854   18.7871 H   0  0  0  0  0  0  0  0  0  0  0  0
  -34.0923  -26.9985   16.3164 H   0  0  0  0  0  0  0  0  0  0  0  0
  -32.4028  -27.4307   16.2092 H   0  0  0  0  0  0  0  0  0  0  0  0
  -32.8872  -25.7578   16.0683 H   0  0  0  0  0  0  0  0  0  0  0  0
  -24.2528  -16.4189   22.2670 H   0  0  0  0  0  0  0  0  0  0  0  0
  -24.5107  -17.7601   23.3569 H   0  0  0  0  0  0  0  0  0  0  0  0
  -25.5310  -16.3451   23.4560 H   0  0  0  0  0  0  0  0  0  0  0  0
  -30.8638  -32.8287   19.7906 H   0  0  0  0  0  0  0  0  0  0  0  0
  -30.9543  -31.4351   20.8406 H   0  0  0  0  0  0  0  0  0  0  0  0
  -29.3983  -32.0473   20.3335 H   0  0  0  0  0  0  0  0  0  0  0  0
  -31.9475  -32.2305   17.9390 H   0  0  0  0  0  0  0  0  0  0  0  0
  -31.6842  -30.7336   17.0771 H   0  0  0  0  0  0  0  0  0  0  0  0
  -32.5680  -30.7299   18.5844 H   0  0  0  0  0  0  0  0  0  0  0  0
  -26.5716  -19.2385   23.0361 H   0  0  0  0  0  0  0  0  0  0  0  0
  -27.5840  -17.7961   23.1475 H   0  0  0  0  0  0  0  0  0  0  0  0
  -33.6579  -25.7854   18.3917 H   0  0  0  0  0  0  0  0  0  0  0  0
  -33.1456  -27.4730   18.5148 H   0  0  0  0  0  0  0  0  0  0  0  0
  -25.4032  -18.2480   21.1343 H   0  0  0  0  0  0  0  0  0  0  0  0
  -26.4355  -16.8217   21.2599 H   0  0  0  0  0  0  0  0  0  0  0  0
  -30.9224  -29.3036   20.0569 H   0  0  0  0  0  0  0  0  0  0  0  0
  -29.2698  -29.3148   19.3433 H   0  0  0  0  0  0  0  0  0  0  0  0
  -31.7962  -28.5257   17.9861 H   0  0  0  0  0  0  0  0  0  0  0  0
  -30.6641  -22.4147   19.4933 H   0  0  0  0  0  0  0  0  0  0  0  0
  -28.4316  -16.6458   21.9005 H   0  0  0  0  0  0  0  0  0  0  0  0
  -28.9872  -28.7161   17.0208 H   0  0  0  0  0  0  0  0  0  0  0  0
  -30.2662  -28.1628   16.1085 H   0  0  0  0  0  0  0  0  0  0  0  0
  -30.2110  -29.7582   16.5839 H   0  0  0  0  0  0  0  0  0  0  0  0
  1 25  1  0
  1 30  2  0
  1 95  1  0
  2  3  1  0
  2 25  1  0
  2 98  1  0
  2 99  1  0
  3  4  1  0
  3100  1  0
  3101  1  0
  4  5  1  0
  4102  1  0
  4103  1  0
  5  6  1  0
  5 26  1  0
  5104  1  6
  6 25  1  0
  6105  1  0
  6106  1  0
  7  8  2  0
  7 26  1  0
  7 29  1  0
  8  9  1  0
  8 22  1  0
  9 10  1  0
  9 27  2  0
 10 11  2  0
 10 15  1  0
 11 12  1  0
 11107  1  0
 12 13  2  0
 12108  1  0
 13 14  1  0
 13 31  1  0
 14 15  2  0
 14109  1  0
 15110  1  0
 16 17  2  0
 16 21  1  0
 16 31  1  0
 17 18  1  0
 17111  1  0
 18 19  2  0
 18112  1  0
 19 20  1  0
 19 24  1  0
 20 21  2  0
 20113  1  0
 21 23  1  0
 22 28  1  0
 22 32  2  0
 26 27  1  0
 28114  1  0
 28115  1  0
 29116  1  0
 29117  1  0
 33 34  1  0
 33 66  1  0
 33 70  2  0
 34 36  1  0
 34 59  1  0
 34118  1  6
 35 44  2  0
 35 45  1  0
 35 68  1  0
 36 56  1  0
 36119  1  0
 37 39  1  0
 37 47  1  0
 37 66  1  0
 37120  1  6
 38 43  2  0
 38 46  1  0
 38 47  1  0
 39 64  1  0
 39 67  2  0
 40 52  1  0
 40 53  2  0
 40 58  1  0
 41121  1  0
 41122  1  0
 41123  1  0
 42 43  1  0
 42 66  1  0
 42124  1  0
 42125  1  0
 43 44  1  0
 44126  1  0
 45 46  2  0
 45127  1  0
 46128  1  0
 47129  1  0
 47130  1  0
 48 41  1  0
 48 56  1  0
 48 65  1  0
 48131  1  1
 49 50  1  0
 49 53  1  0
 49 64  1  0
 49132  1  1
 50 51  1  0
 50133  1  0
 50134  1  0
 51 52  1  0
 51135  1  0
 51136  1  0
 52137  1  0
 52138  1  0
 53 54  1  0
 54 55  2  0
 54139  1  0
 55 57  1  0
 55140  1  0
 56 69  2  0
 57 58  2  0
 57141  1  0
 58142  1  0
 59 60  1  0
 59 61  1  0
 59 62  1  0
 60143  1  0
 60144  1  0
 60145  1  0
 61146  1  0
 61147  1  0
 61148  1  0
 62149  1  0
 62150  1  0
 62151  1  0
 63 65  1  0
 63152  1  0
 63153  1  0
 63154  1  0
 64155  1  0
 65156  1  0
 68 93  1  0
 71 73  2  0
 71 77  1  0
 71157  1  0
 72 74  2  0
 72 78  1  0
 72158  1  0
 73 82  1  0
 73159  1  0
 74 81  1  0
 74160  1  0
 75 77  2  0
 75 79  1  0
 75161  1  0
 76 80  1  0
 76 81  2  0
 76162  1  0
 77 83  1  0
 78 80  2  0
 78 92  1  0
 79 82  2  0
 79 88  1  0
 80 89  1  0
 81 94  1  0
 82 95  1  0
 83 94  1  0
 83 97  2  0
 84 89  1  0
 84163  1  0
 84164  1  0
 84165  1  0
 85 90  1  0
 85166  1  0
 85167  1  0
 85168  1  0
 86169  1  0
 86170  1  0
 86171  1  0
 87 93  1  0
 87172  1  0
 87173  1  0
 87174  1  0
 88 90  1  0
 88175  1  0
 88176  1  0
 89177  1  0
 89178  1  0
 90179  1  0
 90180  1  0
 91 92  1  0
 91 93  1  0
 91181  1  0
 91182  1  0
 92 96  1  0
 92183  1  6
 93 86  1  0
 94184  1  0
 95185  1  0
 96186  1  0
 96187  1  0
 96188  1  0
M  CHG  1  96   1
M  ISO  4   1 100  68 101  93 101  95 100
M  END
$$$$
40
     RDKit          3D

166174  0  0  0  0  0  0  0  0999 V2000
  -30.7652  -14.3608   20.6636 C   0  0  0  0  0  0  0  0  0100  0  0
  -30.4392  -12.2669   19.3775 C   0  0  0  0  0  0  0  0  0101  0  0
  -29.4791  -12.5281   18.1977 C   0  0  0  0  0  0  0  0  0102  0  0
  -27.9985  -12.3963   18.6038 C   0  0  0  0  0  0  0  0  0103  0  0
  -27.6639  -13.2170   19.8820 C   0  0  2  0  0  0  0  0  0104  0  0
  -28.6795  -12.9602   21.0279 C   0  0  0  0  0  0  0  0  0105  0  0
  -25.2633  -13.8245   20.5754 C   0  0  0  0  0  0  0  0  0106  0  0
  -24.1645  -13.0409   20.9408 C   0  0  0  0  0  0  0  0  0107  0  0
  -24.6400  -11.7009   20.8697 C   0  0  0  0  0  0  0  0  0108  0  0
  -23.9005  -10.4085   21.0420 C   0  0  0  0  0  0  0  0  0109  0  0
  -24.3588   -9.4123   21.9123 C   0  0  0  0  0  0  0  0  0110  0  0
  -23.6296   -8.2350   22.0803 C   0  0  0  0  0  0  0  0  0111  0  0
  -22.4385   -8.0419   21.3657 C   0  0  0  0  0  0  0  0  0112  0  0
  -22.0103   -9.0167   20.4678 C   0  0  0  0  0  0  0  0  0113  0  0
  -22.7317  -10.1925   20.3102 C   0  0  0  0  0  0  0  0  0114  0  0
  -21.6857   -6.0709   22.5391 C   0  0  0  0  0  0  0  0  0115  0  0
  -21.4064   -6.5490   23.8264 C   0  0  0  0  0  0  0  0  0116  0  0
  -21.3635   -5.6677   24.9085 C   0  0  0  0  0  0  0  0  0117  0  0
  -21.5973   -4.3067   24.7088 C   0  0  0  0  0  0  0  0  0118  0  0
  -21.8700   -3.8284   23.4282 C   0  0  0  0  0  0  0  0  0119  0  0
  -21.9144   -4.7056   22.3460 C   0  0  0  0  0  0  0  0  0120  0  0
  -22.8194  -13.5263   21.1763 C   0  0  0  0  0  0  0  0  0121  0  0
  -22.1559   -4.2206   21.1063 F   0  0  0  0  0  0  0  0  0122  0  0
  -21.5628   -3.4510   25.7555 F   0  0  0  0  0  0  0  0  0123  0  0
  -30.0261  -13.1803   20.4553 N   0  0  0  0  0  0  0  0  0124  0  0
  -26.2911  -12.9356   20.3443 N   0  0  0  0  0  0  0  0  0125  0  0
  -25.9236  -11.6675   20.5847 N   0  0  0  0  0  0  0  0  0126  0  0
  -22.0708  -12.7905   22.0005 N   0  0  0  0  0  0  0  0  0127  0  0
  -25.4117  -15.1773   20.4097 N   0  0  0  0  0  0  0  0  0128  0  0
  -31.7916  -14.6724   20.0536 O   0  0  0  0  0  0  0  0  0129  0  0
  -21.6670   -6.9022   21.4423 O   0  0  0  0  0  0  0  0  0130  0  0
  -22.3946  -14.5564   20.6568 O   0  0  0  0  0  0  0  0  0131  0  0
  -24.6048  -31.8614   23.2223 C   0  0  0  0  0  0  0  0  0100  0  0
  -25.8822  -32.4841   23.8616 C   0  0  1  0  0  0  0  0  0101  0  0
  -27.2536  -27.5042   20.1156 C   0  0  0  0  0  0  0  0  0102  0  0
  -25.5726  -33.8762   24.2210 N   0  0  0  0  0  0  0  0  0103  0  0
  -23.4066  -30.4859   21.5461 C   0  0  2  0  0  0  0  0  0104  0  0
  -24.8467  -28.9636   20.1247 C   0  0  0  0  0  0  0  0  0105  0  0
  -22.7412  -29.4652   22.5052 C   0  0  0  0  0  0  0  0  0106  0  0
  -18.0167  -28.1302   22.8626 C   0  0  0  0  0  0  0  0  0107  0  0
  -24.1342  -36.7390   23.2568 C   0  0  0  0  0  0  0  0  0108  0  0
  -25.9141  -30.8882   21.3456 C   0  0  0  0  0  0  0  0  0109  0  0
  -25.9930  -29.5029   20.7208 C   0  0  0  0  0  0  0  0  0110  0  0
  -27.1758  -28.7612   20.7331 C   0  0  0  0  0  0  0  0  0111  0  0
  -26.1032  -26.9836   19.5230 C   0  0  0  0  0  0  0  0  0112  0  0
  -24.9097  -27.7011   19.5331 C   0  0  0  0  0  0  0  0  0113  0  0
  -23.5715  -29.7899   20.1582 C   0  0  0  0  0  0  0  0  0114  0  0
  -25.3990  -36.3212   24.0232 C   0  0  1  0  0  0  0  0  0115  0  0
  -20.5793  -28.3813   23.1004 C   0  0  2  0  0  0  0  0  0116  0  0
  -20.6548  -26.9392   22.5411 C   0  0  0  0  0  0  0  0  0117  0  0
  -19.5615  -26.6407   21.5143 C   0  0  0  0  0  0  0  0  0118  0  0
  -18.1797  -26.7818   22.1673 C   0  0  0  0  0  0  0  0  0119  0  0
  -19.1385  -28.8769   23.2988 C   0  0  0  0  0  0  0  0  0120  0  0
  -18.9183  -30.1286   23.8878 C   0  0  0  0  0  0  0  0  0121  0  0
  -17.6396  -30.6493   24.0352 C   0  0  0  0  0  0  0  0  0122  0  0
  -25.9153  -34.9582   23.4993 C   0  0  0  0  0  0  0  0  0123  0  0
  -16.5415  -29.9068   23.6254 C   0  0  0  0  0  0  0  0  0124  0  0
  -16.7331  -28.6521   23.0586 C   0  0  0  0  0  0  0  0  0125  0  0
  -26.4583  -31.6439   25.0683 C   0  0  0  0  0  0  0  0  0126  0  0
  -25.3807  -31.3179   26.1374 C   0  0  0  0  0  0  0  0  0127  0  0
  -27.0530  -30.3024   24.5680 C   0  0  0  0  0  0  0  0  0128  0  0
  -27.6014  -32.4281   25.7651 C   0  0  0  0  0  0  0  0  0129  0  0
  -27.5629  -37.2220   24.8621 C   0  0  0  0  0  0  0  0  0130  0  0
  -21.4133  -29.3375   22.3735 N   0  0  0  0  0  0  0  0  0131  0  0
  -26.4706  -37.3372   23.9061 N   0  0  0  0  0  0  0  0  0132  0  0
  -24.6674  -31.0544   22.1178 N   0  0  0  0  0  0  0  0  0133  0  0
  -23.4259  -28.8150   23.2971 O   0  0  0  0  0  0  0  0  0134  0  0
  -28.3948  -26.7345   20.0089 O   0  0  0  0  0  0  0  0  0135  0  0
  -26.5870  -34.9065   22.4671 O   0  0  0  0  0  0  0  0  0136  0  0
  -23.5365  -32.1254   23.7833 O   0  0  0  0  0  0  0  0  0137  0  0
  -31.4520  -22.2290   22.7562 C   0  0  0  0  0  0  0  0  0  0  0  0
  -30.4982  -23.3860   20.4037 C   0  0  0  0  0  0  0  0  0  0  0  0
  -32.1692  -23.2566   22.1438 C   0  0  0  0  0  0  0  0  0  0  0  0
  -31.6923  -23.8352   20.9676 C   0  0  0  0  0  0  0  0  0  0  0  0
  -29.7810  -22.3582   21.0161 C   0  0  0  0  0  0  0  0  0  0  0  0
  -30.2579  -21.7797   22.1923 C   0  0  0  0  0  0  0  0  0  0  0  0
  -31.1179  -26.8174   21.3940 C   0  0  0  0  0  0  0  0  0  0  0  0
  -33.4461  -23.7198   22.7648 C   0  0  0  0  0  0  0  0  0  0  0  0
  -27.9858  -29.1067   21.1604 C   0  0  0  0  0  0  0  0  0  0  0  0
  -28.2712  -26.9953   22.4806 C   0  0  0  0  0  0  0  0  0  0  0  0
  -32.4510  -24.9491   20.2874 C   0  0  0  0  0  0  0  0  0  0  0  0
  -31.6113  -26.2118   20.0887 C   0  0  0  0  0  0  0  0  0  0  0  0
  -30.2596  -28.0682   21.2965 C   0  0  0  0  0  0  0  0  0  0  0  0
  -28.7506  -27.7820   21.2586 C   0  0  0  0  0  0  0  0  0  1  0  0
  -28.5748  -21.9172   20.4271 N   0  0  0  0  0  0  0  0  0  0  0  0
  -29.5465  -20.7353   22.8334 N   0  0  0  0  0  0  0  0  0  0  0  0
  -31.4219  -26.3457   22.4901 O   0  0  0  0  0  0  0  0  0  0  0  0
  -31.4485  -12.4701   19.0860 H   0  0  0  0  0  0  0  0  0  0  0  0
  -30.3970  -11.2460   19.6950 H   0  0  0  0  0  0  0  0  0  0  0  0
  -29.6870  -11.8204   17.4226 H   0  0  0  0  0  0  0  0  0  0  0  0
  -29.6375  -13.5326   17.8649 H   0  0  0  0  0  0  0  0  0  0  0  0
  -27.7830  -11.3650   18.7904 H   0  0  0  0  0  0  0  0  0  0  0  0
  -27.4028  -12.7801   17.8021 H   0  0  0  0  0  0  0  0  0  0  0  0
  -27.7353  -14.2503   19.6136 H   0  0  0  0  0  0  0  0  0  0  0  0
  -28.5890  -11.9550   21.3832 H   0  0  0  0  0  0  0  0  0  0  0  0
  -28.5005  -13.6134   21.8562 H   0  0  0  0  0  0  0  0  0  0  0  0
  -25.2399   -9.5495   22.4318 H   0  0  0  0  0  0  0  0  0  0  0  0
  -23.9663   -7.5070   22.7297 H   0  0  0  0  0  0  0  0  0  0  0  0
  -21.1515   -8.8641   19.9162 H   0  0  0  0  0  0  0  0  0  0  0  0
  -22.4016  -10.9115   19.6476 H   0  0  0  0  0  0  0  0  0  0  0  0
  -21.2319   -7.5552   23.9750 H   0  0  0  0  0  0  0  0  0  0  0  0
  -21.1589   -6.0228   25.8556 H   0  0  0  0  0  0  0  0  0  0  0  0
  -22.0396   -2.8212   23.2809 H   0  0  0  0  0  0  0  0  0  0  0  0
  -22.4401  -11.9703   22.4008 H   0  0  0  0  0  0  0  0  0  0  0  0
  -21.1493  -13.0679   22.2082 H   0  0  0  0  0  0  0  0  0  0  0  0
  -24.6538  -15.7807   20.5848 H   0  0  0  0  0  0  0  0  0  0  0  0
  -26.2762  -15.5453   20.1156 H   0  0  0  0  0  0  0  0  0  0  0  0
  -26.6778  -32.4663   23.1464 H   0  0  0  0  0  0  0  0  0  0  0  0
  -25.0747  -34.0282   25.0566 H   0  0  0  0  0  0  0  0  0  0  0  0
  -22.7881  -31.3489   21.4131 H   0  0  0  0  0  0  0  0  0  0  0  0
  -23.3854  -35.9823   23.3648 H   0  0  0  0  0  0  0  0  0  0  0  0
  -24.3696  -36.8624   22.2204 H   0  0  0  0  0  0  0  0  0  0  0  0
  -23.7669  -37.6632   23.6516 H   0  0  0  0  0  0  0  0  0  0  0  0
  -25.9445  -31.6237   20.5691 H   0  0  0  0  0  0  0  0  0  0  0  0
  -26.7436  -31.0079   22.0108 H   0  0  0  0  0  0  0  0  0  0  0  0
  -28.0090  -29.1452   21.2057 H   0  0  0  0  0  0  0  0  0  0  0  0
  -26.1369  -26.0560   19.0719 H   0  0  0  0  0  0  0  0  0  0  0  0
  -24.0652  -27.2961   19.0997 H   0  0  0  0  0  0  0  0  0  0  0  0
  -23.6156  -30.5365   19.3930 H   0  0  0  0  0  0  0  0  0  0  0  0
  -22.7355  -29.1425   19.9945 H   0  0  0  0  0  0  0  0  0  0  0  0
  -25.1353  -36.2335   25.0565 H   0  0  0  0  0  0  0  0  0  0  0  0
  -21.0070  -28.3206   24.0793 H   0  0  0  0  0  0  0  0  0  0  0  0
  -20.5555  -26.2518   23.3550 H   0  0  0  0  0  0  0  0  0  0  0  0
  -21.5974  -26.8362   22.0454 H   0  0  0  0  0  0  0  0  0  0  0  0
  -19.6810  -25.6422   21.1488 H   0  0  0  0  0  0  0  0  0  0  0  0
  -19.6406  -27.3343   20.7034 H   0  0  0  0  0  0  0  0  0  0  0  0
  -17.4282  -26.6888   21.4113 H   0  0  0  0  0  0  0  0  0  0  0  0
  -18.0803  -26.0130   22.9049 H   0  0  0  0  0  0  0  0  0  0  0  0
  -19.7265  -30.6774   24.2204 H   0  0  0  0  0  0  0  0  0  0  0  0
  -17.5064  -31.5856   24.4483 H   0  0  0  0  0  0  0  0  0  0  0  0
  -15.5878  -30.2839   23.7407 H   0  0  0  0  0  0  0  0  0  0  0  0
  -15.9120  -28.0941   22.7766 H   0  0  0  0  0  0  0  0  0  0  0  0
  -24.5787  -30.7757   25.6817 H   0  0  0  0  0  0  0  0  0  0  0  0
  -25.0041  -32.2289   26.5536 H   0  0  0  0  0  0  0  0  0  0  0  0
  -25.8166  -30.7245   26.9138 H   0  0  0  0  0  0  0  0  0  0  0  0
  -26.2892  -29.7335   24.0803 H   0  0  0  0  0  0  0  0  0  0  0  0
  -27.4336  -29.7484   25.4006 H   0  0  0  0  0  0  0  0  0  0  0  0
  -27.8466  -30.4994   23.8779 H   0  0  0  0  0  0  0  0  0  0  0  0
  -27.2251  -33.3632   26.1242 H   0  0  0  0  0  0  0  0  0  0  0  0
  -28.3902  -32.6065   25.0645 H   0  0  0  0  0  0  0  0  0  0  0  0
  -27.9772  -31.8555   26.5872 H   0  0  0  0  0  0  0  0  0  0  0  0
  -28.2744  -38.0016   24.6863 H   0  0  0  0  0  0  0  0  0  0  0  0
  -28.0396  -36.2711   24.7461 H   0  0  0  0  0  0  0  0  0  0  0  0
  -27.1773  -37.3087   25.8564 H   0  0  0  0  0  0  0  0  0  0  0  0
  -20.9627  -29.9365   21.7352 H   0  0  0  0  0  0  0  0  0  0  0  0
  -26.0447  -38.2561   24.0273 H   0  0  0  0  0  0  0  0  0  0  0  0
  -31.8048  -21.8011   23.6265 H   0  0  0  0  0  0  0  0  0  0  0  0
  -30.1454  -23.8140   19.5335 H   0  0  0  0  0  0  0  0  0  0  0  0
  -33.6360  -23.1549   23.6535 H   0  0  0  0  0  0  0  0  0  0  0  0
  -33.3664  -24.7578   23.0122 H   0  0  0  0  0  0  0  0  0  0  0  0
  -34.2506  -23.5786   22.0736 H   0  0  0  0  0  0  0  0  0  0  0  0
  -28.2531  -29.7348   21.9844 H   0  0  0  0  0  0  0  0  0  0  0  0
  -26.9336  -28.9138   21.1857 H   0  0  0  0  0  0  0  0  0  0  0  0
  -28.2367  -29.5962   20.2426 H   0  0  0  0  0  0  0  0  0  0  0  0
  -28.4467  -27.5699   23.3660 H   0  0  0  0  0  0  0  0  0  0  0  0
  -28.8074  -26.0714   22.5428 H   0  0  0  0  0  0  0  0  0  0  0  0
  -27.2243  -26.7946   22.3874 H   0  0  0  0  0  0  0  0  0  0  0  0
  -32.7778  -24.6030   19.3291 H   0  0  0  0  0  0  0  0  0  0  0  0
  -33.2732  -25.2088   20.9210 H   0  0  0  0  0  0  0  0  0  0  0  0
  -32.2081  -26.9401   19.5805 H   0  0  0  0  0  0  0  0  0  0  0  0
  -30.7476  -25.9323   19.5223 H   0  0  0  0  0  0  0  0  0  0  0  0
  -30.5264  -28.5918   20.4023 H   0  0  0  0  0  0  0  0  0  0  0  0
  -30.4460  -28.6442   22.1788 H   0  0  0  0  0  0  0  0  0  0  0  0
  -28.2508  -22.3352   19.5967 H   0  0  0  0  0  0  0  0  0  0  0  0
  -28.0583  -21.1919   20.8471 H   0  0  0  0  0  0  0  0  0  0  0  0
  -28.9059  -20.9185   23.5582 H   0  0  0  0  0  0  0  0  0  0  0  0
  1 25  1  0
  1 30  2  0
  1 86  1  0
  2  3  1  0
  2 25  1  0
  2 88  1  0
  2 89  1  0
  3  4  1  0
  3 90  1  0
  3 91  1  0
  4  5  1  0
  4 92  1  0
  4 93  1  0
  5  6  1  0
  5 26  1  0
  5 94  1  6
  6 25  1  0
  6 95  1  0
  6 96  1  0
  7  8  2  0
  7 26  1  0
  7 29  1  0
  8  9  1  0
  8 22  1  0
  9 10  1  0
  9 27  2  0
 10 11  2  0
 10 15  1  0
 11 12  1  0
 11 97  1  0
 12 13  2  0
 12 98  1  0
 13 14  1  0
 13 31  1  0
 14 15  2  0
 14 99  1  0
 15100  1  0
 16 17  2  0
 16 21  1  0
 16 31  1  0
 17 18  1  0
 17101  1  0
 18 19  2  0
 18102  1  0
 19 20  1  0
 19 24  1  0
 20 21  2  0
 20103  1  0
 21 23  1  0
 22 28  1  0
 22 32  2  0
 26 27  1  0
 28104  1  0
 28105  1  0
 29106  1  0
 29107  1  0
 33 34  1  0
 33 66  1  0
 33 70  2  0
 34 36  1  0
 34 59  1  0
 34108  1  6
 35 44  2  0
 35 45  1  0
 35 68  1  0
 36 56  1  0
 36109  1  0
 37 39  1  0
 37 47  1  0
 37 66  1  0
 37110  1  6
 38 43  2  0
 38 46  1  0
 38 47  1  0
 39 64  1  0
 39 67  2  0
 40 52  1  0
 40 53  2  0
 40 58  1  0
 41111  1  0
 41112  1  0
 41113  1  0
 42 43  1  0
 42 66  1  0
 42114  1  0
 42115  1  0
 43 44  1  0
 44116  1  0
 45 46  2  0
 45117  1  0
 46118  1  0
 47119  1  0
 47120  1  0
 48 41  1  0
 48 56  1  0
 48 65  1  0
 48121  1  1
 49 50  1  0
 49 53  1  0
 49 64  1  0
 49122  1  1
 50 51  1  0
 50123  1  0
 50124  1  0
 51 52  1  0
 51125  1  0
 51126  1  0
 52127  1  0
 52128  1  0
 53 54  1  0
 54 55  2  0
 54129  1  0
 55 57  1  0
 55130  1  0
 56 69  2  0
 57 58  2  0
 57131  1  0
 58132  1  0
 59 60  1  0
 59 61  1  0
 59 62  1  0
 60133  1  0
 60134  1  0
 60135  1  0
 61136  1  0
 61137  1  0
 61138  1  0
 62139  1  0
 62140  1  0
 62141  1  0
 63 65  1  0
 63142  1  0
 63143  1  0
 63144  1  0
 64145  1  0
 65146  1  0
 68 84  1  0
 71 73  2  0
 71 76  1  0
 71147  1  0
 72 74  2  0
 72 75  1  0
 72148  1  0
 73 74  1  0
 73 78  1  0
 74 81  1  0
 75 76  2  0
 75 85  1  0
 76 86  1  0
 77 82  1  0
 77 83  1  0
 77 87  2  0
 78149  1  0
 78150  1  0
 78151  1  0
 79152  1  0
 79153  1  0
 79154  1  0
 80 84  1  0
 80155  1  0
 80156  1  0
 80157  1  0
 81 82  1  0
 81158  1  0
 81159  1  0
 82160  1  0
 82161  1  0
 83 84  1  0
 83162  1  0
 83163  1  0
 84 79  1  0
 85164  1  0
 85165  1  0
 86166  1  0
M  ISO  4   1 100  68 101  84 101  86 100
M  END
$$$$
41
     RDKit          3D

166174  0  0  0  0  0  0  0  0999 V2000
  -30.7652  -14.3608   20.6636 C   0  0  0  0  0  0  0  0  0100  0  0
  -30.4392  -12.2669   19.3775 C   0  0  0  0  0  0  0  0  0101  0  0
  -29.4791  -12.5281   18.1977 C   0  0  0  0  0  0  0  0  0102  0  0
  -27.9985  -12.3963   18.6038 C   0  0  0  0  0  0  0  0  0103  0  0
  -27.6639  -13.2170   19.8820 C   0  0  2  0  0  0  0  0  0104  0  0
  -28.6795  -12.9602   21.0279 C   0  0  0  0  0  0  0  0  0105  0  0
  -25.2633  -13.8245   20.5754 C   0  0  0  0  0  0  0  0  0106  0  0
  -24.1645  -13.0409   20.9408 C   0  0  0  0  0  0  0  0  0107  0  0
  -24.6400  -11.7009   20.8697 C   0  0  0  0  0  0  0  0  0108  0  0
  -23.9005  -10.4085   21.0420 C   0  0  0  0  0  0  0  0  0109  0  0
  -24.3588   -9.4123   21.9123 C   0  0  0  0  0  0  0  0  0110  0  0
  -23.6296   -8.2350   22.0803 C   0  0  0  0  0  0  0  0  0111  0  0
  -22.4385   -8.0419   21.3657 C   0  0  0  0  0  0  0  0  0112  0  0
  -22.0103   -9.0167   20.4678 C   0  0  0  0  0  0  0  0  0113  0  0
  -22.7317  -10.1925   20.3102 C   0  0  0  0  0  0  0  0  0114  0  0
  -21.6857   -6.0709   22.5391 C   0  0  0  0  0  0  0  0  0115  0  0
  -21.4064   -6.5490   23.8264 C   0  0  0  0  0  0  0  0  0116  0  0
  -21.3635   -5.6677   24.9085 C   0  0  0  0  0  0  0  0  0117  0  0
  -21.5973   -4.3067   24.7088 C   0  0  0  0  0  0  0  0  0118  0  0
  -21.8700   -3.8284   23.4282 C   0  0  0  0  0  0  0  0  0119  0  0
  -21.9144   -4.7056   22.3460 C   0  0  0  0  0  0  0  0  0120  0  0
  -22.8194  -13.5263   21.1763 C   0  0  0  0  0  0  0  0  0121  0  0
  -22.1559   -4.2206   21.1063 F   0  0  0  0  0  0  0  0  0122  0  0
  -21.5628   -3.4510   25.7555 F   0  0  0  0  0  0  0  0  0123  0  0
  -30.0261  -13.1803   20.4553 N   0  0  0  0  0  0  0  0  0124  0  0
  -26.2911  -12.9356   20.3443 N   0  0  0  0  0  0  0  0  0125  0  0
  -25.9236  -11.6675   20.5847 N   0  0  0  0  0  0  0  0  0126  0  0
  -22.0708  -12.7905   22.0005 N   0  0  0  0  0  0  0  0  0127  0  0
  -25.4117  -15.1773   20.4097 N   0  0  0  0  0  0  0  0  0128  0  0
  -31.7916  -14.6724   20.0536 O   0  0  0  0  0  0  0  0  0129  0  0
  -21.6670   -6.9022   21.4423 O   0  0  0  0  0  0  0  0  0130  0  0
  -22.3946  -14.5564   20.6568 O   0  0  0  0  0  0  0  0  0131  0  0
  -24.6048  -31.8614   23.2223 C   0  0  0  0  0  0  0  0  0100  0  0
  -25.8822  -32.4841   23.8616 C   0  0  1  0  0  0  0  0  0101  0  0
  -27.2536  -27.5042   20.1156 C   0  0  0  0  0  0  0  0  0102  0  0
  -25.5726  -33.8762   24.2210 N   0  0  0  0  0  0  0  0  0103  0  0
  -23.4066  -30.4859   21.5461 C   0  0  2  0  0  0  0  0  0104  0  0
  -24.8467  -28.9636   20.1247 C   0  0  0  0  0  0  0  0  0105  0  0
  -22.7412  -29.4652   22.5052 C   0  0  0  0  0  0  0  0  0106  0  0
  -18.0167  -28.1302   22.8626 C   0  0  0  0  0  0  0  0  0107  0  0
  -24.1342  -36.7390   23.2568 C   0  0  0  0  0  0  0  0  0108  0  0
  -25.9141  -30.8882   21.3456 C   0  0  0  0  0  0  0  0  0109  0  0
  -25.9930  -29.5029   20.7208 C   0  0  0  0  0  0  0  0  0110  0  0
  -27.1758  -28.7612   20.7331 C   0  0  0  0  0  0  0  0  0111  0  0
  -26.1032  -26.9836   19.5230 C   0  0  0  0  0  0  0  0  0112  0  0
  -24.9097  -27.7011   19.5331 C   0  0  0  0  0  0  0  0  0113  0  0
  -23.5715  -29.7899   20.1582 C   0  0  0  0  0  0  0  0  0114  0  0
  -25.3990  -36.3212   24.0232 C   0  0  1  0  0  0  0  0  0115  0  0
  -20.5793  -28.3813   23.1004 C   0  0  2  0  0  0  0  0  0116  0  0
  -20.6548  -26.9392   22.5411 C   0  0  0  0  0  0  0  0  0117  0  0
  -19.5615  -26.6407   21.5143 C   0  0  0  0  0  0  0  0  0118  0  0
  -18.1797  -26.7818   22.1673 C   0  0  0  0  0  0  0  0  0119  0  0
  -19.1385  -28.8769   23.2988 C   0  0  0  0  0  0  0  0  0120  0  0
  -18.9183  -30.1286   23.8878 C   0  0  0  0  0  0  0  0  0121  0  0
  -17.6396  -30.6493   24.0352 C   0  0  0  0  0  0  0  0  0122  0  0
  -25.9153  -34.9582   23.4993 C   0  0  0  0  0  0  0  0  0123  0  0
  -16.5415  -29.9068   23.6254 C   0  0  0  0  0  0  0  0  0124  0  0
  -16.7331  -28.6521   23.0586 C   0  0  0  0  0  0  0  0  0125  0  0
  -26.4583  -31.6439   25.0683 C   0  0  0  0  0  0  0  0  0126  0  0
  -25.3807  -31.3179   26.1374 C   0  0  0  0  0  0  0  0  0127  0  0
  -27.0530  -30.3024   24.5680 C   0  0  0  0  0  0  0  0  0128  0  0
  -27.6014  -32.4281   25.7651 C   0  0  0  0  0  0  0  0  0129  0  0
  -27.5629  -37.2220   24.8621 C   0  0  0  0  0  0  0  0  0130  0  0
  -21.4133  -29.3375   22.3735 N   0  0  0  0  0  0  0  0  0131  0  0
  -26.4706  -37.3372   23.9061 N   0  0  0  0  0  0  0  0  0132  0  0
  -24.6674  -31.0544   22.1178 N   0  0  0  0  0  0  0  0  0133  0  0
  -23.4259  -28.8150   23.2971 O   0  0  0  0  0  0  0  0  0134  0  0
  -28.3948  -26.7345   20.0089 O   0  0  0  0  0  0  0  0  0135  0  0
  -26.5870  -34.9065   22.4671 O   0  0  0  0  0  0  0  0  0136  0  0
  -23.5365  -32.1254   23.7833 O   0  0  0  0  0  0  0  0  0137  0  0
  -23.6573  -23.1723   21.1589 C   0  0  0  0  0  0  0  0  0  0  0  0
  -22.3706  -23.6243   21.4516 C   0  0  0  0  0  0  0  0  0  0  0  0
  -21.6249  -22.9170   19.2651 C   0  0  0  0  0  0  0  0  0  0  0  0
  -22.9116  -22.4649   18.9725 C   0  0  0  0  0  0  0  0  0  0  0  0
  -23.9278  -22.5926   19.9193 C   0  0  0  0  0  0  0  0  0  0  0  0
  -21.3544  -23.4967   20.5047 C   0  0  0  0  0  0  0  0  0  0  0  0
  -23.1665  -21.8633   17.6706 C   0  0  0  0  0  0  0  0  0  0  0  0
  -18.7332  -25.8533   21.3662 C   0  0  0  0  0  0  0  0  0  0  0  0
  -26.2627  -23.2655   19.3011 C   0  0  0  0  0  0  0  0  0  0  0  0
  -17.1491  -27.7736   21.7302 C   0  0  0  0  0  0  0  0  0  0  0  0
  -18.1576  -26.6329   23.7031 C   0  0  0  0  0  0  0  0  0  0  0  0
  -25.3147  -22.1171   19.6323 C   0  0  0  0  0  0  0  0  0  0  0  0
  -19.9775  -25.0379   21.6813 C   0  0  0  0  0  0  0  0  0  0  0  0
  -19.6110  -28.0514   22.2244 C   0  0  0  0  0  0  0  0  0  1  0  0
  -18.4191  -27.0773   22.2562 C   0  0  0  0  0  0  0  0  0  0  0  0
  -24.3220  -21.9264   17.0685 N   0  0  0  0  0  0  0  0  0  0  0  0
  -18.0199  -25.5572   20.4044 O   0  0  0  0  0  0  0  0  0  0  0  0
  -20.0875  -23.9430   20.7929 O   0  0  0  0  0  0  0  0  0  0  0  0
  -31.4485  -12.4701   19.0860 H   0  0  0  0  0  0  0  0  0  0  0  0
  -30.3970  -11.2460   19.6950 H   0  0  0  0  0  0  0  0  0  0  0  0
  -29.6870  -11.8204   17.4226 H   0  0  0  0  0  0  0  0  0  0  0  0
  -29.6375  -13.5326   17.8649 H   0  0  0  0  0  0  0  0  0  0  0  0
  -27.7830  -11.3650   18.7904 H   0  0  0  0  0  0  0  0  0  0  0  0
  -27.4028  -12.7801   17.8021 H   0  0  0  0  0  0  0  0  0  0  0  0
  -27.7353  -14.2503   19.6136 H   0  0  0  0  0  0  0  0  0  0  0  0
  -28.5890  -11.9550   21.3832 H   0  0  0  0  0  0  0  0  0  0  0  0
  -28.5005  -13.6134   21.8562 H   0  0  0  0  0  0  0  0  0  0  0  0
  -25.2399   -9.5495   22.4318 H   0  0  0  0  0  0  0  0  0  0  0  0
  -23.9663   -7.5070   22.7297 H   0  0  0  0  0  0  0  0  0  0  0  0
  -21.1515   -8.8641   19.9162 H   0  0  0  0  0  0  0  0  0  0  0  0
  -22.4016  -10.9115   19.6476 H   0  0  0  0  0  0  0  0  0  0  0  0
  -21.2319   -7.5552   23.9750 H   0  0  0  0  0  0  0  0  0  0  0  0
  -21.1589   -6.0228   25.8556 H   0  0  0  0  0  0  0  0  0  0  0  0
  -22.0396   -2.8212   23.2809 H   0  0  0  0  0  0  0  0  0  0  0  0
  -22.4401  -11.9703   22.4008 H   0  0  0  0  0  0  0  0  0  0  0  0
  -21.1493  -13.0679   22.2082 H   0  0  0  0  0  0  0  0  0  0  0  0
  -24.6538  -15.7807   20.5848 H   0  0  0  0  0  0  0  0  0  0  0  0
  -26.2762  -15.5453   20.1156 H   0  0  0  0  0  0  0  0  0  0  0  0
  -26.6778  -32.4663   23.1464 H   0  0  0  0  0  0  0  0  0  0  0  0
  -25.0747  -34.0282   25.0566 H   0  0  0  0  0  0  0  0  0  0  0  0
  -22.7881  -31.3489   21.4131 H   0  0  0  0  0  0  0  0  0  0  0  0
  -23.3854  -35.9823   23.3648 H   0  0  0  0  0  0  0  0  0  0  0  0
  -24.3696  -36.8624   22.2204 H   0  0  0  0  0  0  0  0  0  0  0  0
  -23.7669  -37.6632   23.6516 H   0  0  0  0  0  0  0  0  0  0  0  0
  -25.9445  -31.6237   20.5691 H   0  0  0  0  0  0  0  0  0  0  0  0
  -26.7436  -31.0079   22.0108 H   0  0  0  0  0  0  0  0  0  0  0  0
  -28.0090  -29.1452   21.2057 H   0  0  0  0  0  0  0  0  0  0  0  0
  -26.1369  -26.0560   19.0719 H   0  0  0  0  0  0  0  0  0  0  0  0
  -24.0652  -27.2961   19.0997 H   0  0  0  0  0  0  0  0  0  0  0  0
  -23.6156  -30.5365   19.3930 H   0  0  0  0  0  0  0  0  0  0  0  0
  -22.7355  -29.1425   19.9945 H   0  0  0  0  0  0  0  0  0  0  0  0
  -25.1353  -36.2335   25.0565 H   0  0  0  0  0  0  0  0  0  0  0  0
  -21.0070  -28.3206   24.0793 H   0  0  0  0  0  0  0  0  0  0  0  0
  -20.5555  -26.2518   23.3550 H   0  0  0  0  0  0  0  0  0  0  0  0
  -21.5974  -26.8362   22.0454 H   0  0  0  0  0  0  0  0  0  0  0  0
  -19.6810  -25.6422   21.1488 H   0  0  0  0  0  0  0  0  0  0  0  0
  -19.6406  -27.3343   20.7034 H   0  0  0  0  0  0  0  0  0  0  0  0
  -17.4282  -26.6888   21.4113 H   0  0  0  0  0  0  0  0  0  0  0  0
  -18.0803  -26.0130   22.9049 H   0  0  0  0  0  0  0  0  0  0  0  0
  -19.7265  -30.6774   24.2204 H   0  0  0  0  0  0  0  0  0  0  0  0
  -17.5064  -31.5856   24.4483 H   0  0  0  0  0  0  0  0  0  0  0  0
  -15.5878  -30.2839   23.7407 H   0  0  0  0  0  0  0  0  0  0  0  0
  -15.9120  -28.0941   22.7766 H   0  0  0  0  0  0  0  0  0  0  0  0
  -24.5787  -30.7757   25.6817 H   0  0  0  0  0  0  0  0  0  0  0  0
  -25.0041  -32.2289   26.5536 H   0  0  0  0  0  0  0  0  0  0  0  0
  -25.8166  -30.7245   26.9138 H   0  0  0  0  0  0  0  0  0  0  0  0
  -26.2892  -29.7335   24.0803 H   0  0  0  0  0  0  0  0  0  0  0  0
  -27.4336  -29.7484   25.4006 H   0  0  0  0  0  0  0  0  0  0  0  0
  -27.8466  -30.4994   23.8779 H   0  0  0  0  0  0  0  0  0  0  0  0
  -27.2251  -33.3632   26.1242 H   0  0  0  0  0  0  0  0  0  0  0  0
  -28.3902  -32.6065   25.0645 H   0  0  0  0  0  0  0  0  0  0  0  0
  -27.9772  -31.8555   26.5872 H   0  0  0  0  0  0  0  0  0  0  0  0
  -28.2744  -38.0016   24.6863 H   0  0  0  0  0  0  0  0  0  0  0  0
  -28.0396  -36.2711   24.7461 H   0  0  0  0  0  0  0  0  0  0  0  0
  -27.1773  -37.3087   25.8564 H   0  0  0  0  0  0  0  0  0  0  0  0
  -20.9627  -29.9365   21.7352 H   0  0  0  0  0  0  0  0  0  0  0  0
  -26.0447  -38.2561   24.0273 H   0  0  0  0  0  0  0  0  0  0  0  0
  -24.4092  -23.2668   21.8594 H   0  0  0  0  0  0  0  0  0  0  0  0
  -22.1705  -24.0531   22.3687 H   0  0  0  0  0  0  0  0  0  0  0  0
  -20.8730  -22.8226   18.5645 H   0  0  0  0  0  0  0  0  0  0  0  0
  -27.2396  -22.8760   19.1039 H   0  0  0  0  0  0  0  0  0  0  0  0
  -26.3085  -23.9406   20.1300 H   0  0  0  0  0  0  0  0  0  0  0  0
  -25.9050  -23.7854   18.4370 H   0  0  0  0  0  0  0  0  0  0  0  0
  -16.3288  -27.0871   21.7573 H   0  0  0  0  0  0  0  0  0  0  0  0
  -17.3107  -28.0968   20.7230 H   0  0  0  0  0  0  0  0  0  0  0  0
  -16.9260  -28.6204   22.3450 H   0  0  0  0  0  0  0  0  0  0  0  0
  -17.3292  -25.9560   23.7241 H   0  0  0  0  0  0  0  0  0  0  0  0
  -17.9338  -27.4893   24.3043 H   0  0  0  0  0  0  0  0  0  0  0  0
  -19.0276  -26.1438   24.0888 H   0  0  0  0  0  0  0  0  0  0  0  0
  -25.2831  -21.4458   18.7997 H   0  0  0  0  0  0  0  0  0  0  0  0
  -25.6831  -21.6313   20.5116 H   0  0  0  0  0  0  0  0  0  0  0  0
  -19.9148  -24.6726   22.6850 H   0  0  0  0  0  0  0  0  0  0  0  0
  -20.8391  -25.6626   21.5706 H   0  0  0  0  0  0  0  0  0  0  0  0
  -19.6536  -28.4363   23.2219 H   0  0  0  0  0  0  0  0  0  0  0  0
  -19.3289  -28.5735   21.3340 H   0  0  0  0  0  0  0  0  0  0  0  0
  -24.4842  -22.6167   16.3856 H   0  0  0  0  0  0  0  0  0  0  0  0
  1 25  1  0
  1 30  2  0
  1 77  1  0
  2  3  1  0
  2 25  1  0
  2 89  1  0
  2 90  1  0
  3  4  1  0
  3 91  1  0
  3 92  1  0
  4  5  1  0
  4 93  1  0
  4 94  1  0
  5  6  1  0
  5 26  1  0
  5 95  1  6
  6 25  1  0
  6 96  1  0
  6 97  1  0
  7  8  2  0
  7 26  1  0
  7 29  1  0
  8  9  1  0
  8 22  1  0
  9 10  1  0
  9 27  2  0
 10 11  2  0
 10 15  1  0
 11 12  1  0
 11 98  1  0
 12 13  2  0
 12 99  1  0
 13 14  1  0
 13 31  1  0
 14 15  2  0
 14100  1  0
 15101  1  0
 16 17  2  0
 16 21  1  0
 16 31  1  0
 17 18  1  0
 17102  1  0
 18 19  2  0
 18103  1  0
 19 20  1  0
 19 24  1  0
 20 21  2  0
 20104  1  0
 21 23  1  0
 22 28  1  0
 22 32  2  0
 26 27  1  0
 28105  1  0
 28106  1  0
 29107  1  0
 29108  1  0
 33 34  1  0
 33 66  1  0
 33 70  2  0
 34 36  1  0
 34 59  1  0
 34109  1  6
 35 44  2  0
 35 45  1  0
 35 68  1  0
 36 56  1  0
 36110  1  0
 37 39  1  0
 37 47  1  0
 37 66  1  0
 37111  1  6
 38 43  2  0
 38 46  1  0
 38 47  1  0
 39 64  1  0
 39 67  2  0
 40 52  1  0
 40 53  2  0
 40 58  1  0
 41112  1  0
 41113  1  0
 41114  1  0
 42 43  1  0
 42 66  1  0
 42115  1  0
 42116  1  0
 43 44  1  0
 44117  1  0
 45 46  2  0
 45118  1  0
 46119  1  0
 47120  1  0
 47121  1  0
 48 41  1  0
 48 56  1  0
 48 65  1  0
 48122  1  1
 49 50  1  0
 49 53  1  0
 49 64  1  0
 49123  1  1
 50 51  1  0
 50124  1  0
 50125  1  0
 51 52  1  0
 51126  1  0
 51127  1  0
 52128  1  0
 52129  1  0
 53 54  1  0
 54 55  2  0
 54130  1  0
 55 57  1  0
 55131  1  0
 56 69  2  0
 57 58  2  0
 57132  1  0
 58133  1  0
 59 60  1  0
 59 61  1  0
 59 62  1  0
 60134  1  0
 60135  1  0
 60136  1  0
 61137  1  0
 61138  1  0
 61139  1  0
 62140  1  0
 62141  1  0
 62142  1  0
 63 65  1  0
 63143  1  0
 63144  1  0
 63145  1  0
 64146  1  0
 65147  1  0
 68 84  1  0
 71 72  2  0
 71 75  1  0
 71148  1  0
 72 76  1  0
 72149  1  0
 73 74  1  0
 73 76  2  0
 73150  1  0
 74 75  2  0
 74 77  1  0
 75 82  1  0
 76 88  1  0
 77 86  2  0
 78 83  1  0
 78 85  1  0
 78 87  2  0
 79 82  1  0
 79151  1  0
 79152  1  0
 79153  1  0
 80154  1  0
 80155  1  0
 80156  1  0
 81 85  1  0
 81157  1  0
 81158  1  0
 81159  1  0
 82160  1  0
 82161  1  0
 83 88  1  0
 83162  1  0
 83163  1  0
 84 85  1  0
 84164  1  0
 84165  1  0
 85 80  1  0
 86166  1  0
M  ISO  4   1 100  68 101  77 100  84 101
M  END
$$$$
42
     RDKit          3D

165173  0  0  0  0  0  0  0  0999 V2000
  -30.7652  -14.3608   20.6636 C   0  0  0  0  0  0  0  0  0100  0  0
  -30.4392  -12.2669   19.3775 C   0  0  0  0  0  0  0  0  0101  0  0
  -29.4791  -12.5281   18.1977 C   0  0  0  0  0  0  0  0  0102  0  0
  -27.9985  -12.3963   18.6038 C   0  0  0  0  0  0  0  0  0103  0  0
  -27.6639  -13.2170   19.8820 C   0  0  2  0  0  0  0  0  0104  0  0
  -28.6795  -12.9602   21.0279 C   0  0  0  0  0  0  0  0  0105  0  0
  -25.2633  -13.8245   20.5754 C   0  0  0  0  0  0  0  0  0106  0  0
  -24.1645  -13.0409   20.9408 C   0  0  0  0  0  0  0  0  0107  0  0
  -24.6400  -11.7009   20.8697 C   0  0  0  0  0  0  0  0  0108  0  0
  -23.9005  -10.4085   21.0420 C   0  0  0  0  0  0  0  0  0109  0  0
  -24.3588   -9.4123   21.9123 C   0  0  0  0  0  0  0  0  0110  0  0
  -23.6296   -8.2350   22.0803 C   0  0  0  0  0  0  0  0  0111  0  0
  -22.4385   -8.0419   21.3657 C   0  0  0  0  0  0  0  0  0112  0  0
  -22.0103   -9.0167   20.4678 C   0  0  0  0  0  0  0  0  0113  0  0
  -22.7317  -10.1925   20.3102 C   0  0  0  0  0  0  0  0  0114  0  0
  -21.6857   -6.0709   22.5391 C   0  0  0  0  0  0  0  0  0115  0  0
  -21.4064   -6.5490   23.8264 C   0  0  0  0  0  0  0  0  0116  0  0
  -21.3635   -5.6677   24.9085 C   0  0  0  0  0  0  0  0  0117  0  0
  -21.5973   -4.3067   24.7088 C   0  0  0  0  0  0  0  0  0118  0  0
  -21.8700   -3.8284   23.4282 C   0  0  0  0  0  0  0  0  0119  0  0
  -21.9144   -4.7056   22.3460 C   0  0  0  0  0  0  0  0  0120  0  0
  -22.8194  -13.5263   21.1763 C   0  0  0  0  0  0  0  0  0121  0  0
  -22.1559   -4.2206   21.1063 F   0  0  0  0  0  0  0  0  0122  0  0
  -21.5628   -3.4510   25.7555 F   0  0  0  0  0  0  0  0  0123  0  0
  -30.0261  -13.1803   20.4553 N   0  0  0  0  0  0  0  0  0124  0  0
  -26.2911  -12.9356   20.3443 N   0  0  0  0  0  0  0  0  0125  0  0
  -25.9236  -11.6675   20.5847 N   0  0  0  0  0  0  0  0  0126  0  0
  -22.0708  -12.7905   22.0005 N   0  0  0  0  0  0  0  0  0127  0  0
  -25.4117  -15.1773   20.4097 N   0  0  0  0  0  0  0  0  0128  0  0
  -31.7916  -14.6724   20.0536 O   0  0  0  0  0  0  0  0  0129  0  0
  -21.6670   -6.9022   21.4423 O   0  0  0  0  0  0  0  0  0130  0  0
  -22.3946  -14.5564   20.6568 O   0  0  0  0  0  0  0  0  0131  0  0
  -24.6048  -31.8614   23.2223 C   0  0  0  0  0  0  0  0  0100  0  0
  -25.8822  -32.4841   23.8616 C   0  0  1  0  0  0  0  0  0101  0  0
  -27.2536  -27.5042   20.1156 C   0  0  0  0  0  0  0  0  0102  0  0
  -25.5726  -33.8762   24.2210 N   0  0  0  0  0  0  0  0  0103  0  0
  -23.4066  -30.4859   21.5461 C   0  0  2  0  0  0  0  0  0104  0  0
  -24.8467  -28.9636   20.1247 C   0  0  0  0  0  0  0  0  0105  0  0
  -22.7412  -29.4652   22.5052 C   0  0  0  0  0  0  0  0  0106  0  0
  -18.0167  -28.1302   22.8626 C   0  0  0  0  0  0  0  0  0107  0  0
  -24.1342  -36.7390   23.2568 C   0  0  0  0  0  0  0  0  0108  0  0
  -25.9141  -30.8882   21.3456 C   0  0  0  0  0  0  0  0  0109  0  0
  -25.9930  -29.5029   20.7208 C   0  0  0  0  0  0  0  0  0110  0  0
  -27.1758  -28.7612   20.7331 C   0  0  0  0  0  0  0  0  0111  0  0
  -26.1032  -26.9836   19.5230 C   0  0  0  0  0  0  0  0  0112  0  0
  -24.9097  -27.7011   19.5331 C   0  0  0  0  0  0  0  0  0113  0  0
  -23.5715  -29.7899   20.1582 C   0  0  0  0  0  0  0  0  0114  0  0
  -25.3990  -36.3212   24.0232 C   0  0  1  0  0  0  0  0  0115  0  0
  -20.5793  -28.3813   23.1004 C   0  0  2  0  0  0  0  0  0116  0  0
  -20.6548  -26.9392   22.5411 C   0  0  0  0  0  0  0  0  0117  0  0
  -19.5615  -26.6407   21.5143 C   0  0  0  0  0  0  0  0  0118  0  0
  -18.1797  -26.7818   22.1673 C   0  0  0  0  0  0  0  0  0119  0  0
  -19.1385  -28.8769   23.2988 C   0  0  0  0  0  0  0  0  0120  0  0
  -18.9183  -30.1286   23.8878 C   0  0  0  0  0  0  0  0  0121  0  0
  -17.6396  -30.6493   24.0352 C   0  0  0  0  0  0  0  0  0122  0  0
  -25.9153  -34.9582   23.4993 C   0  0  0  0  0  0  0  0  0123  0  0
  -16.5415  -29.9068   23.6254 C   0  0  0  0  0  0  0  0  0124  0  0
  -16.7331  -28.6521   23.0586 C   0  0  0  0  0  0  0  0  0125  0  0
  -26.4583  -31.6439   25.0683 C   0  0  0  0  0  0  0  0  0126  0  0
  -25.3807  -31.3179   26.1374 C   0  0  0  0  0  0  0  0  0127  0  0
  -27.0530  -30.3024   24.5680 C   0  0  0  0  0  0  0  0  0128  0  0
  -27.6014  -32.4281   25.7651 C   0  0  0  0  0  0  0  0  0129  0  0
  -27.5629  -37.2220   24.8621 C   0  0  0  0  0  0  0  0  0130  0  0
  -21.4133  -29.3375   22.3735 N   0  0  0  0  0  0  0  0  0131  0  0
  -26.4706  -37.3372   23.9061 N   0  0  0  0  0  0  0  0  0132  0  0
  -24.6674  -31.0544   22.1178 N   0  0  0  0  0  0  0  0  0133  0  0
  -23.4259  -28.8150   23.2971 O   0  0  0  0  0  0  0  0  0134  0  0
  -28.3948  -26.7345   20.0089 O   0  0  0  0  0  0  0  0  0135  0  0
  -26.5870  -34.9065   22.4671 O   0  0  0  0  0  0  0  0  0136  0  0
  -23.5365  -32.1254   23.7833 O   0  0  0  0  0  0  0  0  0137  0  0
  -27.9316  -21.3599   22.3116 C   0  0  0  0  0  0  0  0  0  0  0  0
  -30.2033  -19.8909   21.6304 C   0  0  0  0  0  0  0  0  0  0  0  0
  -27.7995  -20.0730   21.7901 C   0  0  0  0  0  0  0  0  0  0  0  0
  -28.9353  -19.3385   21.4496 C   0  0  0  0  0  0  0  0  0  0  0  0
  -29.1996  -21.9124   22.4924 C   0  0  0  0  0  0  0  0  0  0  0  0
  -30.3354  -21.1779   22.1518 C   0  0  0  0  0  0  0  0  0  0  0  0
  -29.4379  -25.5297   22.4789 C   0  0  0  0  0  0  0  0  0  0  0  0
  -25.9801  -19.5390   20.1496 C   0  0  0  0  0  0  0  0  0  0  0  0
  -31.8437  -27.0891   23.4058 C   0  0  0  0  0  0  0  0  0  0  0  0
  -26.4289  -19.5064   21.6071 C   0  0  0  0  0  0  0  0  0  0  0  0
  -29.9784  -24.1402   22.1992 C   0  0  0  0  0  0  0  0  0  0  0  0
  -30.7392  -27.7057   22.5561 C   0  0  0  0  0  0  0  0  0  0  0  0
  -28.9449  -27.3013   20.7971 C   0  0  0  0  0  0  0  0  0  1  0  0
  -30.0433  -26.6699   21.6580 C   0  0  2  0  0  0  0  0  0  0  0  0
  -28.8222  -18.0297   20.9185 N   0  0  0  0  0  0  0  0  0  0  0  0
  -28.5442  -25.7217   23.3034 O   0  0  0  0  0  0  0  0  0  0  0  0
  -29.3286  -23.1809   23.0064 O   0  0  0  0  0  0  0  0  0  0  0  0
  -31.5563  -21.7034   22.3233 F   0  0  0  0  0  0  0  0  0  0  0  0
  -31.4485  -12.4701   19.0860 H   0  0  0  0  0  0  0  0  0  0  0  0
  -30.3970  -11.2460   19.6950 H   0  0  0  0  0  0  0  0  0  0  0  0
  -29.6870  -11.8204   17.4226 H   0  0  0  0  0  0  0  0  0  0  0  0
  -29.6375  -13.5326   17.8649 H   0  0  0  0  0  0  0  0  0  0  0  0
  -27.7830  -11.3650   18.7904 H   0  0  0  0  0  0  0  0  0  0  0  0
  -27.4028  -12.7801   17.8021 H   0  0  0  0  0  0  0  0  0  0  0  0
  -27.7353  -14.2503   19.6136 H   0  0  0  0  0  0  0  0  0  0  0  0
  -28.5890  -11.9550   21.3832 H   0  0  0  0  0  0  0  0  0  0  0  0
  -28.5005  -13.6134   21.8562 H   0  0  0  0  0  0  0  0  0  0  0  0
  -25.2399   -9.5495   22.4318 H   0  0  0  0  0  0  0  0  0  0  0  0
  -23.9663   -7.5070   22.7297 H   0  0  0  0  0  0  0  0  0  0  0  0
  -21.1515   -8.8641   19.9162 H   0  0  0  0  0  0  0  0  0  0  0  0
  -22.4016  -10.9115   19.6476 H   0  0  0  0  0  0  0  0  0  0  0  0
  -21.2319   -7.5552   23.9750 H   0  0  0  0  0  0  0  0  0  0  0  0
  -21.1589   -6.0228   25.8556 H   0  0  0  0  0  0  0  0  0  0  0  0
  -22.0396   -2.8212   23.2809 H   0  0  0  0  0  0  0  0  0  0  0  0
  -22.4401  -11.9703   22.4008 H   0  0  0  0  0  0  0  0  0  0  0  0
  -21.1493  -13.0679   22.2082 H   0  0  0  0  0  0  0  0  0  0  0  0
  -24.6538  -15.7807   20.5848 H   0  0  0  0  0  0  0  0  0  0  0  0
  -26.2762  -15.5453   20.1156 H   0  0  0  0  0  0  0  0  0  0  0  0
  -26.6778  -32.4663   23.1464 H   0  0  0  0  0  0  0  0  0  0  0  0
  -25.0747  -34.0282   25.0566 H   0  0  0  0  0  0  0  0  0  0  0  0
  -22.7881  -31.3489   21.4131 H   0  0  0  0  0  0  0  0  0  0  0  0
  -23.3854  -35.9823   23.3648 H   0  0  0  0  0  0  0  0  0  0  0  0
  -24.3696  -36.8624   22.2204 H   0  0  0  0  0  0  0  0  0  0  0  0
  -23.7669  -37.6632   23.6516 H   0  0  0  0  0  0  0  0  0  0  0  0
  -25.9445  -31.6237   20.5691 H   0  0  0  0  0  0  0  0  0  0  0  0
  -26.7436  -31.0079   22.0108 H   0  0  0  0  0  0  0  0  0  0  0  0
  -28.0090  -29.1452   21.2057 H   0  0  0  0  0  0  0  0  0  0  0  0
  -26.1369  -26.0560   19.0719 H   0  0  0  0  0  0  0  0  0  0  0  0
  -24.0652  -27.2961   19.0997 H   0  0  0  0  0  0  0  0  0  0  0  0
  -23.6156  -30.5365   19.3930 H   0  0  0  0  0  0  0  0  0  0  0  0
  -22.7355  -29.1425   19.9945 H   0  0  0  0  0  0  0  0  0  0  0  0
  -25.1353  -36.2335   25.0565 H   0  0  0  0  0  0  0  0  0  0  0  0
  -21.0070  -28.3206   24.0793 H   0  0  0  0  0  0  0  0  0  0  0  0
  -20.5555  -26.2518   23.3550 H   0  0  0  0  0  0  0  0  0  0  0  0
  -21.5974  -26.8362   22.0454 H   0  0  0  0  0  0  0  0  0  0  0  0
  -19.6810  -25.6422   21.1488 H   0  0  0  0  0  0  0  0  0  0  0  0
  -19.6406  -27.3343   20.7034 H   0  0  0  0  0  0  0  0  0  0  0  0
  -17.4282  -26.6888   21.4113 H   0  0  0  0  0  0  0  0  0  0  0  0
  -18.0803  -26.0130   22.9049 H   0  0  0  0  0  0  0  0  0  0  0  0
  -19.7265  -30.6774   24.2204 H   0  0  0  0  0  0  0  0  0  0  0  0
  -17.5064  -31.5856   24.4483 H   0  0  0  0  0  0  0  0  0  0  0  0
  -15.5878  -30.2839   23.7407 H   0  0  0  0  0  0  0  0  0  0  0  0
  -15.9120  -28.0941   22.7766 H   0  0  0  0  0  0  0  0  0  0  0  0
  -24.5787  -30.7757   25.6817 H   0  0  0  0  0  0  0  0  0  0  0  0
  -25.0041  -32.2289   26.5536 H   0  0  0  0  0  0  0  0  0  0  0  0
  -25.8166  -30.7245   26.9138 H   0  0  0  0  0  0  0  0  0  0  0  0
  -26.2892  -29.7335   24.0803 H   0  0  0  0  0  0  0  0  0  0  0  0
  -27.4336  -29.7484   25.4006 H   0  0  0  0  0  0  0  0  0  0  0  0
  -27.8466  -30.4994   23.8779 H   0  0  0  0  0  0  0  0  0  0  0  0
  -27.2251  -33.3632   26.1242 H   0  0  0  0  0  0  0  0  0  0  0  0
  -28.3902  -32.6065   25.0645 H   0  0  0  0  0  0  0  0  0  0  0  0
  -27.9772  -31.8555   26.5872 H   0  0  0  0  0  0  0  0  0  0  0  0
  -28.2744  -38.0016   24.6863 H   0  0  0  0  0  0  0  0  0  0  0  0
  -28.0396  -36.2711   24.7461 H   0  0  0  0  0  0  0  0  0  0  0  0
  -27.1773  -37.3087   25.8564 H   0  0  0  0  0  0  0  0  0  0  0  0
  -20.9627  -29.9365   21.7352 H   0  0  0  0  0  0  0  0  0  0  0  0
  -26.0447  -38.2561   24.0273 H   0  0  0  0  0  0  0  0  0  0  0  0
  -27.0912  -21.9033   22.5637 H   0  0  0  0  0  0  0  0  0  0  0  0
  -31.0436  -19.3474   21.3784 H   0  0  0  0  0  0  0  0  0  0  0  0
  -24.9969  -19.1245   20.0698 H   0  0  0  0  0  0  0  0  0  0  0  0
  -26.6588  -18.9644   19.5545 H   0  0  0  0  0  0  0  0  0  0  0  0
  -25.9698  -20.5510   19.8021 H   0  0  0  0  0  0  0  0  0  0  0  0
  -32.2946  -27.8482   24.0102 H   0  0  0  0  0  0  0  0  0  0  0  0
  -32.5844  -26.6547   22.7674 H   0  0  0  0  0  0  0  0  0  0  0  0
  -31.4276  -26.3314   24.0365 H   0  0  0  0  0  0  0  0  0  0  0  0
  -25.7392  -20.0777   22.1926 H   0  0  0  0  0  0  0  0  0  0  0  0
  -26.4526  -18.4835   21.9200 H   0  0  0  0  0  0  0  0  0  0  0  0
  -31.0276  -24.1226   22.4082 H   0  0  0  0  0  0  0  0  0  0  0  0
  -29.8011  -23.9022   21.1712 H   0  0  0  0  0  0  0  0  0  0  0  0
  -31.1664  -28.4661   21.9363 H   0  0  0  0  0  0  0  0  0  0  0  0
  -30.0032  -28.1087   23.2201 H   0  0  0  0  0  0  0  0  0  0  0  0
  -29.3995  -28.1330   20.3006 H   0  0  0  0  0  0  0  0  0  0  0  0
  -28.1741  -27.4709   21.5196 H   0  0  0  0  0  0  0  0  0  0  0  0
  -30.8032  -26.2778   21.0149 H   0  0  0  0  0  0  0  0  0  0  0  0
  -27.9699  -17.9649   20.4299 H   0  0  0  0  0  0  0  0  0  0  0  0
  1 25  1  0
  1 30  2  0
  1 85  1  0
  2  3  1  0
  2 25  1  0
  2 89  1  0
  2 90  1  0
  3  4  1  0
  3 91  1  0
  3 92  1  0
  4  5  1  0
  4 93  1  0
  4 94  1  0
  5  6  1  0
  5 26  1  0
  5 95  1  6
  6 25  1  0
  6 96  1  0
  6 97  1  0
  7  8  2  0
  7 26  1  0
  7 29  1  0
  8  9  1  0
  8 22  1  0
  9 10  1  0
  9 27  2  0
 10 11  2  0
 10 15  1  0
 11 12  1  0
 11 98  1  0
 12 13  2  0
 12 99  1  0
 13 14  1  0
 13 31  1  0
 14 15  2  0
 14100  1  0
 15101  1  0
 16 17  2  0
 16 21  1  0
 16 31  1  0
 17 18  1  0
 17102  1  0
 18 19  2  0
 18103  1  0
 19 20  1  0
 19 24  1  0
 20 21  2  0
 20104  1  0
 21 23  1  0
 22 28  1  0
 22 32  2  0
 26 27  1  0
 28105  1  0
 28106  1  0
 29107  1  0
 29108  1  0
 33 34  1  0
 33 66  1  0
 33 70  2  0
 34 36  1  0
 34 59  1  0
 34109  1  6
 35 44  2  0
 35 45  1  0
 35 68  1  0
 36 56  1  0
 36110  1  0
 37 39  1  0
 37 47  1  0
 37 66  1  0
 37111  1  6
 38 43  2  0
 38 46  1  0
 38 47  1  0
 39 64  1  0
 39 67  2  0
 40 52  1  0
 40 53  2  0
 40 58  1  0
 41112  1  0
 41113  1  0
 41114  1  0
 42 43  1  0
 42 66  1  0
 42115  1  0
 42116  1  0
 43 44  1  0
 44117  1  0
 45 46  2  0
 45118  1  0
 46119  1  0
 47120  1  0
 47121  1  0
 48 41  1  0
 48 56  1  0
 48 65  1  0
 48122  1  1
 49 50  1  0
 49 53  1  0
 49 64  1  0
 49123  1  1
 50 51  1  0
 50124  1  0
 50125  1  0
 51 52  1  0
 51126  1  0
 51127  1  0
 52128  1  0
 52129  1  0
 53 54  1  0
 54 55  2  0
 54130  1  0
 55 57  1  0
 55131  1  0
 56 69  2  0
 57 58  2  0
 57132  1  0
 58133  1  0
 59 60  1  0
 59 61  1  0
 59 62  1  0
 60134  1  0
 60135  1  0
 60136  1  0
 61137  1  0
 61138  1  0
 61139  1  0
 62140  1  0
 62141  1  0
 62142  1  0
 63 65  1  0
 63143  1  0
 63144  1  0
 63145  1  0
 64146  1  0
 65147  1  0
 68 83  1  0
 71 73  2  0
 71 75  1  0
 71148  1  0
 72 74  2  0
 72 76  1  0
 72149  1  0
 73 74  1  0
 73 80  1  0
 74 85  1  0
 75 76  2  0
 75 87  1  0
 76 88  1  0
 77 81  1  0
 77 84  1  0
 77 86  2  0
 78 80  1  0
 78150  1  0
 78151  1  0
 78152  1  0
 79 82  1  0
 79153  1  0
 79154  1  0
 79155  1  0
 80156  1  0
 80157  1  0
 81 87  1  0
 81158  1  0
 81159  1  0
 82160  1  0
 82161  1  0
 83 84  1  0
 83162  1  0
 83163  1  0
 84 82  1  0
 84164  1  6
 85165  1  0
M  ISO  4   1 100  68 101  83 101  85 100
M  END
$$$$
43
     RDKit          3D

167175  0  0  0  0  0  0  0  0999 V2000
  -30.7652  -14.3608   20.6636 C   0  0  0  0  0  0  0  0  0100  0  0
  -30.4392  -12.2669   19.3775 C   0  0  0  0  0  0  0  0  0101  0  0
  -29.4791  -12.5281   18.1977 C   0  0  0  0  0  0  0  0  0102  0  0
  -27.9985  -12.3963   18.6038 C   0  0  0  0  0  0  0  0  0103  0  0
  -27.6639  -13.2170   19.8820 C   0  0  2  0  0  0  0  0  0104  0  0
  -28.6795  -12.9602   21.0279 C   0  0  0  0  0  0  0  0  0105  0  0
  -25.2633  -13.8245   20.5754 C   0  0  0  0  0  0  0  0  0106  0  0
  -24.1645  -13.0409   20.9408 C   0  0  0  0  0  0  0  0  0107  0  0
  -24.6400  -11.7009   20.8697 C   0  0  0  0  0  0  0  0  0108  0  0
  -23.9005  -10.4085   21.0420 C   0  0  0  0  0  0  0  0  0109  0  0
  -24.3588   -9.4123   21.9123 C   0  0  0  0  0  0  0  0  0110  0  0
  -23.6296   -8.2350   22.0803 C   0  0  0  0  0  0  0  0  0111  0  0
  -22.4385   -8.0419   21.3657 C   0  0  0  0  0  0  0  0  0112  0  0
  -22.0103   -9.0167   20.4678 C   0  0  0  0  0  0  0  0  0113  0  0
  -22.7317  -10.1925   20.3102 C   0  0  0  0  0  0  0  0  0114  0  0
  -21.6857   -6.0709   22.5391 C   0  0  0  0  0  0  0  0  0115  0  0
  -21.4064   -6.5490   23.8264 C   0  0  0  0  0  0  0  0  0116  0  0
  -21.3635   -5.6677   24.9085 C   0  0  0  0  0  0  0  0  0117  0  0
  -21.5973   -4.3067   24.7088 C   0  0  0  0  0  0  0  0  0118  0  0
  -21.8700   -3.8284   23.4282 C   0  0  0  0  0  0  0  0  0119  0  0
  -21.9144   -4.7056   22.3460 C   0  0  0  0  0  0  0  0  0120  0  0
  -22.8194  -13.5263   21.1763 C   0  0  0  0  0  0  0  0  0121  0  0
  -22.1559   -4.2206   21.1063 F   0  0  0  0  0  0  0  0  0122  0  0
  -21.5628   -3.4510   25.7555 F   0  0  0  0  0  0  0  0  0123  0  0
  -30.0261  -13.1803   20.4553 N   0  0  0  0  0  0  0  0  0124  0  0
  -26.2911  -12.9356   20.3443 N   0  0  0  0  0  0  0  0  0125  0  0
  -25.9236  -11.6675   20.5847 N   0  0  0  0  0  0  0  0  0126  0  0
  -22.0708  -12.7905   22.0005 N   0  0  0  0  0  0  0  0  0127  0  0
  -25.4117  -15.1773   20.4097 N   0  0  0  0  0  0  0  0  0128  0  0
  -31.7916  -14.6724   20.0536 O   0  0  0  0  0  0  0  0  0129  0  0
  -21.6670   -6.9022   21.4423 O   0  0  0  0  0  0  0  0  0130  0  0
  -22.3946  -14.5564   20.6568 O   0  0  0  0  0  0  0  0  0131  0  0
  -24.6048  -31.8614   23.2223 C   0  0  0  0  0  0  0  0  0100  0  0
  -25.8822  -32.4841   23.8616 C   0  0  1  0  0  0  0  0  0101  0  0
  -27.2536  -27.5042   20.1156 C   0  0  0  0  0  0  0  0  0102  0  0
  -25.5726  -33.8762   24.2210 N   0  0  0  0  0  0  0  0  0103  0  0
  -23.4066  -30.4859   21.5461 C   0  0  2  0  0  0  0  0  0104  0  0
  -24.8467  -28.9636   20.1247 C   0  0  0  0  0  0  0  0  0105  0  0
  -22.7412  -29.4652   22.5052 C   0  0  0  0  0  0  0  0  0106  0  0
  -18.0167  -28.1302   22.8626 C   0  0  0  0  0  0  0  0  0107  0  0
  -24.1342  -36.7390   23.2568 C   0  0  0  0  0  0  0  0  0108  0  0
  -25.9141  -30.8882   21.3456 C   0  0  0  0  0  0  0  0  0109  0  0
  -25.9930  -29.5029   20.7208 C   0  0  0  0  0  0  0  0  0110  0  0
  -27.1758  -28.7612   20.7331 C   0  0  0  0  0  0  0  0  0111  0  0
  -26.1032  -26.9836   19.5230 C   0  0  0  0  0  0  0  0  0112  0  0
  -24.9097  -27.7011   19.5331 C   0  0  0  0  0  0  0  0  0113  0  0
  -23.5715  -29.7899   20.1582 C   0  0  0  0  0  0  0  0  0114  0  0
  -25.3990  -36.3212   24.0232 C   0  0  1  0  0  0  0  0  0115  0  0
  -20.5793  -28.3813   23.1004 C   0  0  2  0  0  0  0  0  0116  0  0
  -20.6548  -26.9392   22.5411 C   0  0  0  0  0  0  0  0  0117  0  0
  -19.5615  -26.6407   21.5143 C   0  0  0  0  0  0  0  0  0118  0  0
  -18.1797  -26.7818   22.1673 C   0  0  0  0  0  0  0  0  0119  0  0
  -19.1385  -28.8769   23.2988 C   0  0  0  0  0  0  0  0  0120  0  0
  -18.9183  -30.1286   23.8878 C   0  0  0  0  0  0  0  0  0121  0  0
  -17.6396  -30.6493   24.0352 C   0  0  0  0  0  0  0  0  0122  0  0
  -25.9153  -34.9582   23.4993 C   0  0  0  0  0  0  0  0  0123  0  0
  -16.5415  -29.9068   23.6254 C   0  0  0  0  0  0  0  0  0124  0  0
  -16.7331  -28.6521   23.0586 C   0  0  0  0  0  0  0  0  0125  0  0
  -26.4583  -31.6439   25.0683 C   0  0  0  0  0  0  0  0  0126  0  0
  -25.3807  -31.3179   26.1374 C   0  0  0  0  0  0  0  0  0127  0  0
  -27.0530  -30.3024   24.5680 C   0  0  0  0  0  0  0  0  0128  0  0
  -27.6014  -32.4281   25.7651 C   0  0  0  0  0  0  0  0  0129  0  0
  -27.5629  -37.2220   24.8621 C   0  0  0  0  0  0  0  0  0130  0  0
  -21.4133  -29.3375   22.3735 N   0  0  0  0  0  0  0  0  0131  0  0
  -26.4706  -37.3372   23.9061 N   0  0  0  0  0  0  0  0  0132  0  0
  -24.6674  -31.0544   22.1178 N   0  0  0  0  0  0  0  0  0133  0  0
  -23.4259  -28.8150   23.2971 O   0  0  0  0  0  0  0  0  0134  0  0
  -28.3948  -26.7345   20.0089 O   0  0  0  0  0  0  0  0  0135  0  0
  -26.5870  -34.9065   22.4671 O   0  0  0  0  0  0  0  0  0136  0  0
  -23.5365  -32.1254   23.7833 O   0  0  0  0  0  0  0  0  0137  0  0
  -27.7487  -18.2907   20.1887 C   0  0  0  0  0  0  0  0  0  0  0  0
  -25.5450  -18.8397   21.0126 C   0  0  0  0  0  0  0  0  0  0  0  0
  -26.8760  -17.1702   22.1432 C   0  0  0  0  0  0  0  0  0  0  0  0
  -26.5705  -19.0301   20.0864 C   0  0  0  0  0  0  0  0  0  0  0  0
  -27.9015  -17.3607   21.2170 C   0  0  0  0  0  0  0  0  0  0  0  0
  -25.6977  -17.9097   22.0410 C   0  0  0  0  0  0  0  0  0  0  0  0
  -26.4071  -20.0131   18.9963 C   0  0  0  0  0  0  0  0  0  0  0  0
  -29.4182  -15.6476   22.2752 C   0  0  0  0  0  0  0  0  0  0  0  0
  -27.4398  -21.7571   20.5887 C   0  0  0  0  0  0  0  0  0  0  0  0
  -27.9047  -21.8098   18.1254 C   0  0  0  0  0  0  0  0  0  0  0  0
  -31.8849  -16.1545   22.1025 C   0  0  0  0  0  0  0  0  0  0  0  0
  -31.1257  -14.0134   23.1488 C   0  0  0  0  0  0  0  0  0  0  0  0
  -25.6285  -22.4098   18.9793 C   0  0  0  0  0  0  0  0  0  1  0  0
  -26.8482  -21.4824   19.1940 C   0  0  0  0  0  0  0  0  0  0  0  0
  -30.8222  -15.0469   22.0561 C   0  0  0  0  0  0  0  0  0  0  0  0
  -25.9066  -19.6337   17.8618 N   0  0  0  0  0  0  0  0  0  0  0  0
  -29.0800  -16.6209   21.3197 N   0  0  0  0  0  0  0  0  0  0  0  0
  -28.7016  -15.2718   23.2001 O   0  0  0  0  0  0  0  0  0  0  0  0
  -24.7119  -17.7246   22.9286 F   0  0  0  0  0  0  0  0  0  0  0  0
  -31.4485  -12.4701   19.0860 H   0  0  0  0  0  0  0  0  0  0  0  0
  -30.3970  -11.2460   19.6950 H   0  0  0  0  0  0  0  0  0  0  0  0
  -29.6870  -11.8204   17.4226 H   0  0  0  0  0  0  0  0  0  0  0  0
  -29.6375  -13.5326   17.8649 H   0  0  0  0  0  0  0  0  0  0  0  0
  -27.7830  -11.3650   18.7904 H   0  0  0  0  0  0  0  0  0  0  0  0
  -27.4028  -12.7801   17.8021 H   0  0  0  0  0  0  0  0  0  0  0  0
  -27.7353  -14.2503   19.6136 H   0  0  0  0  0  0  0  0  0  0  0  0
  -28.5890  -11.9550   21.3832 H   0  0  0  0  0  0  0  0  0  0  0  0
  -28.5005  -13.6134   21.8562 H   0  0  0  0  0  0  0  0  0  0  0  0
  -25.2399   -9.5495   22.4318 H   0  0  0  0  0  0  0  0  0  0  0  0
  -23.9663   -7.5070   22.7297 H   0  0  0  0  0  0  0  0  0  0  0  0
  -21.1515   -8.8641   19.9162 H   0  0  0  0  0  0  0  0  0  0  0  0
  -22.4016  -10.9115   19.6476 H   0  0  0  0  0  0  0  0  0  0  0  0
  -21.2319   -7.5552   23.9750 H   0  0  0  0  0  0  0  0  0  0  0  0
  -21.1589   -6.0228   25.8556 H   0  0  0  0  0  0  0  0  0  0  0  0
  -22.0396   -2.8212   23.2809 H   0  0  0  0  0  0  0  0  0  0  0  0
  -22.4401  -11.9703   22.4008 H   0  0  0  0  0  0  0  0  0  0  0  0
  -21.1493  -13.0679   22.2082 H   0  0  0  0  0  0  0  0  0  0  0  0
  -24.6538  -15.7807   20.5848 H   0  0  0  0  0  0  0  0  0  0  0  0
  -26.2762  -15.5453   20.1156 H   0  0  0  0  0  0  0  0  0  0  0  0
  -26.6778  -32.4663   23.1464 H   0  0  0  0  0  0  0  0  0  0  0  0
  -25.0747  -34.0282   25.0566 H   0  0  0  0  0  0  0  0  0  0  0  0
  -22.7881  -31.3489   21.4131 H   0  0  0  0  0  0  0  0  0  0  0  0
  -23.3854  -35.9823   23.3648 H   0  0  0  0  0  0  0  0  0  0  0  0
  -24.3696  -36.8624   22.2204 H   0  0  0  0  0  0  0  0  0  0  0  0
  -23.7669  -37.6632   23.6516 H   0  0  0  0  0  0  0  0  0  0  0  0
  -25.9445  -31.6237   20.5691 H   0  0  0  0  0  0  0  0  0  0  0  0
  -26.7436  -31.0079   22.0108 H   0  0  0  0  0  0  0  0  0  0  0  0
  -28.0090  -29.1452   21.2057 H   0  0  0  0  0  0  0  0  0  0  0  0
  -26.1369  -26.0560   19.0719 H   0  0  0  0  0  0  0  0  0  0  0  0
  -24.0652  -27.2961   19.0997 H   0  0  0  0  0  0  0  0  0  0  0  0
  -23.6156  -30.5365   19.3930 H   0  0  0  0  0  0  0  0  0  0  0  0
  -22.7355  -29.1425   19.9945 H   0  0  0  0  0  0  0  0  0  0  0  0
  -25.1353  -36.2335   25.0565 H   0  0  0  0  0  0  0  0  0  0  0  0
  -21.0070  -28.3206   24.0793 H   0  0  0  0  0  0  0  0  0  0  0  0
  -20.5555  -26.2518   23.3550 H   0  0  0  0  0  0  0  0  0  0  0  0
  -21.5974  -26.8362   22.0454 H   0  0  0  0  0  0  0  0  0  0  0  0
  -19.6810  -25.6422   21.1488 H   0  0  0  0  0  0  0  0  0  0  0  0
  -19.6406  -27.3343   20.7034 H   0  0  0  0  0  0  0  0  0  0  0  0
  -17.4282  -26.6888   21.4113 H   0  0  0  0  0  0  0  0  0  0  0  0
  -18.0803  -26.0130   22.9049 H   0  0  0  0  0  0  0  0  0  0  0  0
  -19.7265  -30.6774   24.2204 H   0  0  0  0  0  0  0  0  0  0  0  0
  -17.5064  -31.5856   24.4483 H   0  0  0  0  0  0  0  0  0  0  0  0
  -15.5878  -30.2839   23.7407 H   0  0  0  0  0  0  0  0  0  0  0  0
  -15.9120  -28.0941   22.7766 H   0  0  0  0  0  0  0  0  0  0  0  0
  -24.5787  -30.7757   25.6817 H   0  0  0  0  0  0  0  0  0  0  0  0
  -25.0041  -32.2289   26.5536 H   0  0  0  0  0  0  0  0  0  0  0  0
  -25.8166  -30.7245   26.9138 H   0  0  0  0  0  0  0  0  0  0  0  0
  -26.2892  -29.7335   24.0803 H   0  0  0  0  0  0  0  0  0  0  0  0
  -27.4336  -29.7484   25.4006 H   0  0  0  0  0  0  0  0  0  0  0  0
  -27.8466  -30.4994   23.8779 H   0  0  0  0  0  0  0  0  0  0  0  0
  -27.2251  -33.3632   26.1242 H   0  0  0  0  0  0  0  0  0  0  0  0
  -28.3902  -32.6065   25.0645 H   0  0  0  0  0  0  0  0  0  0  0  0
  -27.9772  -31.8555   26.5872 H   0  0  0  0  0  0  0  0  0  0  0  0
  -28.2744  -38.0016   24.6863 H   0  0  0  0  0  0  0  0  0  0  0  0
  -28.0396  -36.2711   24.7461 H   0  0  0  0  0  0  0  0  0  0  0  0
  -27.1773  -37.3087   25.8564 H   0  0  0  0  0  0  0  0  0  0  0  0
  -20.9627  -29.9365   21.7352 H   0  0  0  0  0  0  0  0  0  0  0  0
  -26.0447  -38.2561   24.0273 H   0  0  0  0  0  0  0  0  0  0  0  0
  -28.5075  -18.4317   19.5036 H   0  0  0  0  0  0  0  0  0  0  0  0
  -24.6733  -19.3869   20.9370 H   0  0  0  0  0  0  0  0  0  0  0  0
  -26.9891  -16.4822   22.9040 H   0  0  0  0  0  0  0  0  0  0  0  0
  -28.2851  -21.1210   20.7492 H   0  0  0  0  0  0  0  0  0  0  0  0
  -26.6989  -21.5609   21.3354 H   0  0  0  0  0  0  0  0  0  0  0  0
  -27.7466  -22.7803   20.6508 H   0  0  0  0  0  0  0  0  0  0  0  0
  -28.7563  -21.1761   18.2599 H   0  0  0  0  0  0  0  0  0  0  0  0
  -28.2029  -22.8330   18.2204 H   0  0  0  0  0  0  0  0  0  0  0  0
  -27.4899  -21.6480   17.1524 H   0  0  0  0  0  0  0  0  0  0  0  0
  -31.8926  -16.6008   23.0749 H   0  0  0  0  0  0  0  0  0  0  0  0
  -31.6555  -16.8998   21.3698 H   0  0  0  0  0  0  0  0  0  0  0  0
  -32.8470  -15.7346   21.8951 H   0  0  0  0  0  0  0  0  0  0  0  0
  -31.1616  -14.5008   24.1007 H   0  0  0  0  0  0  0  0  0  0  0  0
  -32.0694  -13.5502   22.9494 H   0  0  0  0  0  0  0  0  0  0  0  0
  -30.3577  -13.2684   23.1583 H   0  0  0  0  0  0  0  0  0  0  0  0
  -24.8346  -22.2367   19.6755 H   0  0  0  0  0  0  0  0  0  0  0  0
  -25.0906  -22.3491   18.0563 H   0  0  0  0  0  0  0  0  0  0  0  0
  -25.6258  -18.6986   17.7358 H   0  0  0  0  0  0  0  0  0  0  0  0
  -29.7626  -16.8044   20.6344 H   0  0  0  0  0  0  0  0  0  0  0  0
  1 25  1  0
  1 30  2  0
  1 85  1  0
  2  3  1  0
  2 25  1  0
  2 90  1  0
  2 91  1  0
  3  4  1  0
  3 92  1  0
  3 93  1  0
  4  5  1  0
  4 94  1  0
  4 95  1  0
  5  6  1  0
  5 26  1  0
  5 96  1  6
  6 25  1  0
  6 97  1  0
  6 98  1  0
  7  8  2  0
  7 26  1  0
  7 29  1  0
  8  9  1  0
  8 22  1  0
  9 10  1  0
  9 27  2  0
 10 11  2  0
 10 15  1  0
 11 12  1  0
 11 99  1  0
 12 13  2  0
 12100  1  0
 13 14  1  0
 13 31  1  0
 14 15  2  0
 14101  1  0
 15102  1  0
 16 17  2  0
 16 21  1  0
 16 31  1  0
 17 18  1  0
 17103  1  0
 18 19  2  0
 18104  1  0
 19 20  1  0
 19 24  1  0
 20 21  2  0
 20105  1  0
 21 23  1  0
 22 28  1  0
 22 32  2  0
 26 27  1  0
 28106  1  0
 28107  1  0
 29108  1  0
 29109  1  0
 33 34  1  0
 33 66  1  0
 33 70  2  0
 34 36  1  0
 34 59  1  0
 34110  1  6
 35 44  2  0
 35 45  1  0
 35 68  1  0
 36 56  1  0
 36111  1  0
 37 39  1  0
 37 47  1  0
 37 66  1  0
 37112  1  6
 38 43  2  0
 38 46  1  0
 38 47  1  0
 39 64  1  0
 39 67  2  0
 40 52  1  0
 40 53  2  0
 40 58  1  0
 41113  1  0
 41114  1  0
 41115  1  0
 42 43  1  0
 42 66  1  0
 42116  1  0
 42117  1  0
 43 44  1  0
 44118  1  0
 45 46  2  0
 45119  1  0
 46120  1  0
 47121  1  0
 47122  1  0
 48 41  1  0
 48 56  1  0
 48 65  1  0
 48123  1  1
 49 50  1  0
 49 53  1  0
 49 64  1  0
 49124  1  1
 50 51  1  0
 50125  1  0
 50126  1  0
 51 52  1  0
 51127  1  0
 51128  1  0
 52129  1  0
 52130  1  0
 53 54  1  0
 54 55  2  0
 54131  1  0
 55 57  1  0
 55132  1  0
 56 69  2  0
 57 58  2  0
 57133  1  0
 58134  1  0
 59 60  1  0
 59 61  1  0
 59 62  1  0
 60135  1  0
 60136  1  0
 60137  1  0
 61138  1  0
 61139  1  0
 61140  1  0
 62141  1  0
 62142  1  0
 62143  1  0
 63 65  1  0
 63144  1  0
 63145  1  0
 63146  1  0
 64147  1  0
 65148  1  0
 68 83  1  0
 71 74  2  0
 71 75  1  0
 71149  1  0
 72 74  1  0
 72 76  2  0
 72150  1  0
 73 75  2  0
 73 76  1  0
 73151  1  0
 74 77  1  0
 75 87  1  0
 76 89  1  0
 77 84  1  0
 77 86  2  0
 78 85  1  0
 78 87  1  0
 78 88  2  0
 79152  1  0
 79153  1  0
 79154  1  0
 80 84  1  0
 80155  1  0
 80156  1  0
 80157  1  0
 81158  1  0
 81159  1  0
 81160  1  0
 82 85  1  0
 82161  1  0
 82162  1  0
 82163  1  0
 83 84  1  0
 83164  1  0
 83165  1  0
 84 79  1  0
 85 81  1  0
 86166  1  0
 87167  1  0
M  ISO  4   1 100  68 101  83 101  85 100
M  END
$$$$
44
     RDKit          3D

157166  0  0  0  0  0  0  0  0999 V2000
  -30.7652  -14.3608   20.6636 C   0  0  0  0  0  0  0  0  0100  0  0
  -30.4392  -12.2669   19.3775 C   0  0  0  0  0  0  0  0  0101  0  0
  -29.4791  -12.5281   18.1977 C   0  0  0  0  0  0  0  0  0102  0  0
  -27.9985  -12.3963   18.6038 C   0  0  0  0  0  0  0  0  0103  0  0
  -27.6639  -13.2170   19.8820 C   0  0  2  0  0  0  0  0  0104  0  0
  -28.6795  -12.9602   21.0279 C   0  0  0  0  0  0  0  0  0105  0  0
  -25.2633  -13.8245   20.5754 C   0  0  0  0  0  0  0  0  0106  0  0
  -24.1645  -13.0409   20.9408 C   0  0  0  0  0  0  0  0  0107  0  0
  -24.6400  -11.7009   20.8697 C   0  0  0  0  0  0  0  0  0108  0  0
  -23.9005  -10.4085   21.0420 C   0  0  0  0  0  0  0  0  0109  0  0
  -24.3588   -9.4123   21.9123 C   0  0  0  0  0  0  0  0  0110  0  0
  -23.6296   -8.2350   22.0803 C   0  0  0  0  0  0  0  0  0111  0  0
  -22.4385   -8.0419   21.3657 C   0  0  0  0  0  0  0  0  0112  0  0
  -22.0103   -9.0167   20.4678 C   0  0  0  0  0  0  0  0  0113  0  0
  -22.7317  -10.1925   20.3102 C   0  0  0  0  0  0  0  0  0114  0  0
  -21.6857   -6.0709   22.5391 C   0  0  0  0  0  0  0  0  0115  0  0
  -21.4064   -6.5490   23.8264 C   0  0  0  0  0  0  0  0  0116  0  0
  -21.3635   -5.6677   24.9085 C   0  0  0  0  0  0  0  0  0117  0  0
  -21.5973   -4.3067   24.7088 C   0  0  0  0  0  0  0  0  0118  0  0
  -21.8700   -3.8284   23.4282 C   0  0  0  0  0  0  0  0  0119  0  0
  -21.9144   -4.7056   22.3460 C   0  0  0  0  0  0  0  0  0120  0  0
  -22.8194  -13.5263   21.1763 C   0  0  0  0  0  0  0  0  0121  0  0
  -22.1559   -4.2206   21.1063 F   0  0  0  0  0  0  0  0  0122  0  0
  -21.5628   -3.4510   25.7555 F   0  0  0  0  0  0  0  0  0123  0  0
  -30.0261  -13.1803   20.4553 N   0  0  0  0  0  0  0  0  0124  0  0
  -26.2911  -12.9356   20.3443 N   0  0  0  0  0  0  0  0  0125  0  0
  -25.9236  -11.6675   20.5847 N   0  0  0  0  0  0  0  0  0126  0  0
  -22.0708  -12.7905   22.0005 N   0  0  0  0  0  0  0  0  0127  0  0
  -25.4117  -15.1773   20.4097 N   0  0  0  0  0  0  0  0  0128  0  0
  -31.7916  -14.6724   20.0536 O   0  0  0  0  0  0  0  0  0129  0  0
  -21.6670   -6.9022   21.4423 O   0  0  0  0  0  0  0  0  0130  0  0
  -22.3946  -14.5564   20.6568 O   0  0  0  0  0  0  0  0  0131  0  0
  -24.6048  -31.8614   23.2223 C   0  0  0  0  0  0  0  0  0100  0  0
  -25.8822  -32.4841   23.8616 C   0  0  1  0  0  0  0  0  0101  0  0
  -27.2536  -27.5042   20.1156 C   0  0  0  0  0  0  0  0  0102  0  0
  -25.5726  -33.8762   24.2210 N   0  0  0  0  0  0  0  0  0103  0  0
  -23.4066  -30.4859   21.5461 C   0  0  2  0  0  0  0  0  0104  0  0
  -24.8467  -28.9636   20.1247 C   0  0  0  0  0  0  0  0  0105  0  0
  -22.7412  -29.4652   22.5052 C   0  0  0  0  0  0  0  0  0106  0  0
  -18.0167  -28.1302   22.8626 C   0  0  0  0  0  0  0  0  0107  0  0
  -24.1342  -36.7390   23.2568 C   0  0  0  0  0  0  0  0  0108  0  0
  -25.9141  -30.8882   21.3456 C   0  0  0  0  0  0  0  0  0109  0  0
  -25.9930  -29.5029   20.7208 C   0  0  0  0  0  0  0  0  0110  0  0
  -27.1758  -28.7612   20.7331 C   0  0  0  0  0  0  0  0  0111  0  0
  -26.1032  -26.9836   19.5230 C   0  0  0  0  0  0  0  0  0112  0  0
  -24.9097  -27.7011   19.5331 C   0  0  0  0  0  0  0  0  0113  0  0
  -23.5715  -29.7899   20.1582 C   0  0  0  0  0  0  0  0  0114  0  0
  -25.3990  -36.3212   24.0232 C   0  0  1  0  0  0  0  0  0115  0  0
  -20.5793  -28.3813   23.1004 C   0  0  2  0  0  0  0  0  0116  0  0
  -20.6548  -26.9392   22.5411 C   0  0  0  0  0  0  0  0  0117  0  0
  -19.5615  -26.6407   21.5143 C   0  0  0  0  0  0  0  0  0118  0  0
  -18.1797  -26.7818   22.1673 C   0  0  0  0  0  0  0  0  0119  0  0
  -19.1385  -28.8769   23.2988 C   0  0  0  0  0  0  0  0  0120  0  0
  -18.9183  -30.1286   23.8878 C   0  0  0  0  0  0  0  0  0121  0  0
  -17.6396  -30.6493   24.0352 C   0  0  0  0  0  0  0  0  0122  0  0
  -25.9153  -34.9582   23.4993 C   0  0  0  0  0  0  0  0  0123  0  0
  -16.5415  -29.9068   23.6254 C   0  0  0  0  0  0  0  0  0124  0  0
  -16.7331  -28.6521   23.0586 C   0  0  0  0  0  0  0  0  0125  0  0
  -26.4583  -31.6439   25.0683 C   0  0  0  0  0  0  0  0  0126  0  0
  -25.3807  -31.3179   26.1374 C   0  0  0  0  0  0  0  0  0127  0  0
  -27.0530  -30.3024   24.5680 C   0  0  0  0  0  0  0  0  0128  0  0
  -27.6014  -32.4281   25.7651 C   0  0  0  0  0  0  0  0  0129  0  0
  -27.5629  -37.2220   24.8621 C   0  0  0  0  0  0  0  0  0130  0  0
  -21.4133  -29.3375   22.3735 N   0  0  0  0  0  0  0  0  0131  0  0
  -26.4706  -37.3372   23.9061 N   0  0  0  0  0  0  0  0  0132  0  0
  -24.6674  -31.0544   22.1178 N   0  0  0  0  0  0  0  0  0133  0  0
  -23.4259  -28.8150   23.2971 O   0  0  0  0  0  0  0  0  0134  0  0
  -28.3948  -26.7345   20.0089 O   0  0  0  0  0  0  0  0  0135  0  0
  -26.5870  -34.9065   22.4671 O   0  0  0  0  0  0  0  0  0136  0  0
  -23.5365  -32.1254   23.7833 O   0  0  0  0  0  0  0  0  0137  0  0
  -28.4587  -20.7919   20.7234 C   0  0  0  0  0  0  0  0  0  0  0  0
  -30.5546  -19.0898   20.0214 C   0  0  0  0  0  0  0  0  0  0  0  0
  -28.1955  -19.4652   20.3829 C   0  0  0  0  0  0  0  0  0  0  0  0
  -29.7699  -21.2677   20.7128 C   0  0  0  0  0  0  0  0  0  0  0  0
  -29.2434  -18.6141   20.0320 C   0  0  0  0  0  0  0  0  0  0  0  0
  -30.8178  -20.4167   20.3619 C   0  0  0  0  0  0  0  0  0  0  0  0
  -29.8284  -24.8956   21.1672 C   0  0  0  0  0  0  0  0  0  0  0  0
  -29.2151  -26.0840   21.1637 C   0  0  0  0  0  0  0  0  0  1  0  0
  -30.9412  -24.5044   22.0872 C   0  0  0  0  0  0  0  0  0  0  0  0
  -29.4257  -23.7176   20.3319 C   0  0  0  0  0  0  0  0  0  0  0  0
  -30.7376  -23.0004   22.2463 C   0  0  0  0  0  0  0  0  0  0  0  0
  -26.7812  -18.9829   20.4018 C   0  0  0  0  0  0  0  0  0  0  0  0
  -29.9997  -22.5858   21.0554 N   0  0  0  0  0  0  0  0  0  0  0  0
  -28.9960  -17.2635   19.6820 N   0  0  0  0  0  0  0  0  0  0  0  0
  -32.4559  -20.9653   20.3366 Cl  0  0  0  0  0  0  0  0  0  0  0  0
  -31.4485  -12.4701   19.0860 H   0  0  0  0  0  0  0  0  0  0  0  0
  -30.3970  -11.2460   19.6950 H   0  0  0  0  0  0  0  0  0  0  0  0
  -29.6870  -11.8204   17.4226 H   0  0  0  0  0  0  0  0  0  0  0  0
  -29.6375  -13.5326   17.8649 H   0  0  0  0  0  0  0  0  0  0  0  0
  -27.7830  -11.3650   18.7904 H   0  0  0  0  0  0  0  0  0  0  0  0
  -27.4028  -12.7801   17.8021 H   0  0  0  0  0  0  0  0  0  0  0  0
  -27.7353  -14.2503   19.6136 H   0  0  0  0  0  0  0  0  0  0  0  0
  -28.5890  -11.9550   21.3832 H   0  0  0  0  0  0  0  0  0  0  0  0
  -28.5005  -13.6134   21.8562 H   0  0  0  0  0  0  0  0  0  0  0  0
  -25.2399   -9.5495   22.4318 H   0  0  0  0  0  0  0  0  0  0  0  0
  -23.9663   -7.5070   22.7297 H   0  0  0  0  0  0  0  0  0  0  0  0
  -21.1515   -8.8641   19.9162 H   0  0  0  0  0  0  0  0  0  0  0  0
  -22.4016  -10.9115   19.6476 H   0  0  0  0  0  0  0  0  0  0  0  0
  -21.2319   -7.5552   23.9750 H   0  0  0  0  0  0  0  0  0  0  0  0
  -21.1589   -6.0228   25.8556 H   0  0  0  0  0  0  0  0  0  0  0  0
  -22.0396   -2.8212   23.2809 H   0  0  0  0  0  0  0  0  0  0  0  0
  -22.4401  -11.9703   22.4008 H   0  0  0  0  0  0  0  0  0  0  0  0
  -21.1493  -13.0679   22.2082 H   0  0  0  0  0  0  0  0  0  0  0  0
  -24.6538  -15.7807   20.5848 H   0  0  0  0  0  0  0  0  0  0  0  0
  -26.2762  -15.5453   20.1156 H   0  0  0  0  0  0  0  0  0  0  0  0
  -26.6778  -32.4663   23.1464 H   0  0  0  0  0  0  0  0  0  0  0  0
  -25.0747  -34.0282   25.0566 H   0  0  0  0  0  0  0  0  0  0  0  0
  -22.7881  -31.3489   21.4131 H   0  0  0  0  0  0  0  0  0  0  0  0
  -23.3854  -35.9823   23.3648 H   0  0  0  0  0  0  0  0  0  0  0  0
  -24.3696  -36.8624   22.2204 H   0  0  0  0  0  0  0  0  0  0  0  0
  -23.7669  -37.6632   23.6516 H   0  0  0  0  0  0  0  0  0  0  0  0
  -25.9445  -31.6237   20.5691 H   0  0  0  0  0  0  0  0  0  0  0  0
  -26.7436  -31.0079   22.0108 H   0  0  0  0  0  0  0  0  0  0  0  0
  -28.0090  -29.1452   21.2057 H   0  0  0  0  0  0  0  0  0  0  0  0
  -26.1369  -26.0560   19.0719 H   0  0  0  0  0  0  0  0  0  0  0  0
  -24.0652  -27.2961   19.0997 H   0  0  0  0  0  0  0  0  0  0  0  0
  -23.6156  -30.5365   19.3930 H   0  0  0  0  0  0  0  0  0  0  0  0
  -22.7355  -29.1425   19.9945 H   0  0  0  0  0  0  0  0  0  0  0  0
  -25.1353  -36.2335   25.0565 H   0  0  0  0  0  0  0  0  0  0  0  0
  -21.0070  -28.3206   24.0793 H   0  0  0  0  0  0  0  0  0  0  0  0
  -20.5555  -26.2518   23.3550 H   0  0  0  0  0  0  0  0  0  0  0  0
  -21.5974  -26.8362   22.0454 H   0  0  0  0  0  0  0  0  0  0  0  0
  -19.6810  -25.6422   21.1488 H   0  0  0  0  0  0  0  0  0  0  0  0
  -19.6406  -27.3343   20.7034 H   0  0  0  0  0  0  0  0  0  0  0  0
  -17.4282  -26.6888   21.4113 H   0  0  0  0  0  0  0  0  0  0  0  0
  -18.0803  -26.0130   22.9049 H   0  0  0  0  0  0  0  0  0  0  0  0
  -19.7265  -30.6774   24.2204 H   0  0  0  0  0  0  0  0  0  0  0  0
  -17.5064  -31.5856   24.4483 H   0  0  0  0  0  0  0  0  0  0  0  0
  -15.5878  -30.2839   23.7407 H   0  0  0  0  0  0  0  0  0  0  0  0
  -15.9120  -28.0941   22.7766 H   0  0  0  0  0  0  0  0  0  0  0  0
  -24.5787  -30.7757   25.6817 H   0  0  0  0  0  0  0  0  0  0  0  0
  -25.0041  -32.2289   26.5536 H   0  0  0  0  0  0  0  0  0  0  0  0
  -25.8166  -30.7245   26.9138 H   0  0  0  0  0  0  0  0  0  0  0  0
  -26.2892  -29.7335   24.0803 H   0  0  0  0  0  0  0  0  0  0  0  0
  -27.4336  -29.7484   25.4006 H   0  0  0  0  0  0  0  0  0  0  0  0
  -27.8466  -30.4994   23.8779 H   0  0  0  0  0  0  0  0  0  0  0  0
  -27.2251  -33.3632   26.1242 H   0  0  0  0  0  0  0  0  0  0  0  0
  -28.3902  -32.6065   25.0645 H   0  0  0  0  0  0  0  0  0  0  0  0
  -27.9772  -31.8555   26.5872 H   0  0  0  0  0  0  0  0  0  0  0  0
  -28.2744  -38.0016   24.6863 H   0  0  0  0  0  0  0  0  0  0  0  0
  -28.0396  -36.2711   24.7461 H   0  0  0  0  0  0  0  0  0  0  0  0
  -27.1773  -37.3087   25.8564 H   0  0  0  0  0  0  0  0  0  0  0  0
  -20.9627  -29.9365   21.7352 H   0  0  0  0  0  0  0  0  0  0  0  0
  -26.0447  -38.2561   24.0273 H   0  0  0  0  0  0  0  0  0  0  0  0
  -27.6834  -21.4215   20.9832 H   0  0  0  0  0  0  0  0  0  0  0  0
  -31.3299  -18.4601   19.7617 H   0  0  0  0  0  0  0  0  0  0  0  0
  -29.2946  -26.6377   22.0310 H   0  0  0  0  0  0  0  0  0  0  0  0
  -30.8571  -25.0062   23.0285 H   0  0  0  0  0  0  0  0  0  0  0  0
  -31.9098  -24.7629   21.7133 H   0  0  0  0  0  0  0  0  0  0  0  0
  -29.8334  -23.7892   19.3452 H   0  0  0  0  0  0  0  0  0  0  0  0
  -28.3669  -23.6385   20.1996 H   0  0  0  0  0  0  0  0  0  0  0  0
  -30.1725  -22.7896   23.1302 H   0  0  0  0  0  0  0  0  0  0  0  0
  -31.6670  -22.4789   22.3427 H   0  0  0  0  0  0  0  0  0  0  0  0
  -26.1351  -19.7838   20.6951 H   0  0  0  0  0  0  0  0  0  0  0  0
  -26.6887  -18.1764   21.0989 H   0  0  0  0  0  0  0  0  0  0  0  0
  -26.5071  -18.6431   19.4249 H   0  0  0  0  0  0  0  0  0  0  0  0
  -28.2279  -17.1123   19.0849 H   0  0  0  0  0  0  0  0  0  0  0  0
  1 25  1  0
  1 30  2  0
  1 84  1  0
  2  3  1  0
  2 25  1  0
  2 86  1  0
  2 87  1  0
  3  4  1  0
  3 88  1  0
  3 89  1  0
  4  5  1  0
  4 90  1  0
  4 91  1  0
  5  6  1  0
  5 26  1  0
  5 92  1  6
  6 25  1  0
  6 93  1  0
  6 94  1  0
  7  8  2  0
  7 26  1  0
  7 29  1  0
  8  9  1  0
  8 22  1  0
  9 10  1  0
  9 27  2  0
 10 11  2  0
 10 15  1  0
 11 12  1  0
 11 95  1  0
 12 13  2  0
 12 96  1  0
 13 14  1  0
 13 31  1  0
 14 15  2  0
 14 97  1  0
 15 98  1  0
 16 17  2  0
 16 21  1  0
 16 31  1  0
 17 18  1  0
 17 99  1  0
 18 19  2  0
 18100  1  0
 19 20  1  0
 19 24  1  0
 20 21  2  0
 20101  1  0
 21 23  1  0
 22 28  1  0
 22 32  2  0
 26 27  1  0
 28102  1  0
 28103  1  0
 29104  1  0
 29105  1  0
 33 34  1  0
 33 66  1  0
 33 70  2  0
 34 36  1  0
 34 59  1  0
 34106  1  6
 35 44  2  0
 35 45  1  0
 35 68  1  0
 36 56  1  0
 36107  1  0
 37 39  1  0
 37 47  1  0
 37 66  1  0
 37108  1  6
 38 43  2  0
 38 46  1  0
 38 47  1  0
 39 64  1  0
 39 67  2  0
 40 52  1  0
 40 53  2  0
 40 58  1  0
 41109  1  0
 41110  1  0
 41111  1  0
 42 43  1  0
 42 66  1  0
 42112  1  0
 42113  1  0
 43 44  1  0
 44114  1  0
 45 46  2  0
 45115  1  0
 46116  1  0
 47117  1  0
 47118  1  0
 48 41  1  0
 48 56  1  0
 48 65  1  0
 48119  1  1
 49 50  1  0
 49 53  1  0
 49 64  1  0
 49120  1  1
 50 51  1  0
 50121  1  0
 50122  1  0
 51 52  1  0
 51123  1  0
 51124  1  0
 52125  1  0
 52126  1  0
 53 54  1  0
 54 55  2  0
 54127  1  0
 55 57  1  0
 55128  1  0
 56 69  2  0
 57 58  2  0
 57129  1  0
 58130  1  0
 59 60  1  0
 59 61  1  0
 59 62  1  0
 60131  1  0
 60132  1  0
 60133  1  0
 61134  1  0
 61135  1  0
 61136  1  0
 62137  1  0
 62138  1  0
 62139  1  0
 63 65  1  0
 63140  1  0
 63141  1  0
 63142  1  0
 64143  1  0
 65144  1  0
 68 78  1  0
 71 73  2  0
 71 74  1  0
 71145  1  0
 72 75  2  0
 72 76  1  0
 72146  1  0
 73 75  1  0
 73 82  1  0
 74 76  2  0
 74 83  1  0
 75 84  1  0
 76 85  1  0
 77 78  2  0
 77 79  1  0
 77 80  1  0
 78147  1  0
 79 81  1  0
 79148  1  0
 79149  1  0
 80 83  1  0
 80150  1  0
 80151  1  0
 81 83  1  0
 81152  1  0
 81153  1  0
 82154  1  0
 82155  1  0
 82156  1  0
 84157  1  0
M  ISO  4   1 100  68 101  78 101  84 100
M  END
$$$$
45
     RDKit          3D

159167  0  0  0  0  0  0  0  0999 V2000
  -30.7652  -14.3608   20.6636 C   0  0  0  0  0  0  0  0  0100  0  0
  -30.4392  -12.2669   19.3775 C   0  0  0  0  0  0  0  0  0101  0  0
  -29.4791  -12.5281   18.1977 C   0  0  0  0  0  0  0  0  0102  0  0
  -27.9985  -12.3963   18.6038 C   0  0  0  0  0  0  0  0  0103  0  0
  -27.6639  -13.2170   19.8820 C   0  0  2  0  0  0  0  0  0104  0  0
  -28.6795  -12.9602   21.0279 C   0  0  0  0  0  0  0  0  0105  0  0
  -25.2633  -13.8245   20.5754 C   0  0  0  0  0  0  0  0  0106  0  0
  -24.1645  -13.0409   20.9408 C   0  0  0  0  0  0  0  0  0107  0  0
  -24.6400  -11.7009   20.8697 C   0  0  0  0  0  0  0  0  0108  0  0
  -23.9005  -10.4085   21.0420 C   0  0  0  0  0  0  0  0  0109  0  0
  -24.3588   -9.4123   21.9123 C   0  0  0  0  0  0  0  0  0110  0  0
  -23.6296   -8.2350   22.0803 C   0  0  0  0  0  0  0  0  0111  0  0
  -22.4385   -8.0419   21.3657 C   0  0  0  0  0  0  0  0  0112  0  0
  -22.0103   -9.0167   20.4678 C   0  0  0  0  0  0  0  0  0113  0  0
  -22.7317  -10.1925   20.3102 C   0  0  0  0  0  0  0  0  0114  0  0
  -21.6857   -6.0709   22.5391 C   0  0  0  0  0  0  0  0  0115  0  0
  -21.4064   -6.5490   23.8264 C   0  0  0  0  0  0  0  0  0116  0  0
  -21.3635   -5.6677   24.9085 C   0  0  0  0  0  0  0  0  0117  0  0
  -21.5973   -4.3067   24.7088 C   0  0  0  0  0  0  0  0  0118  0  0
  -21.8700   -3.8284   23.4282 C   0  0  0  0  0  0  0  0  0119  0  0
  -21.9144   -4.7056   22.3460 C   0  0  0  0  0  0  0  0  0120  0  0
  -22.8194  -13.5263   21.1763 C   0  0  0  0  0  0  0  0  0121  0  0
  -22.1559   -4.2206   21.1063 F   0  0  0  0  0  0  0  0  0122  0  0
  -21.5628   -3.4510   25.7555 F   0  0  0  0  0  0  0  0  0123  0  0
  -30.0261  -13.1803   20.4553 N   0  0  0  0  0  0  0  0  0124  0  0
  -26.2911  -12.9356   20.3443 N   0  0  0  0  0  0  0  0  0125  0  0
  -25.9236  -11.6675   20.5847 N   0  0  0  0  0  0  0  0  0126  0  0
  -22.0708  -12.7905   22.0005 N   0  0  0  0  0  0  0  0  0127  0  0
  -25.4117  -15.1773   20.4097 N   0  0  0  0  0  0  0  0  0128  0  0
  -31.7916  -14.6724   20.0536 O   0  0  0  0  0  0  0  0  0129  0  0
  -21.6670   -6.9022   21.4423 O   0  0  0  0  0  0  0  0  0130  0  0
  -22.3946  -14.5564   20.6568 O   0  0  0  0  0  0  0  0  0131  0  0
  -24.6048  -31.8614   23.2223 C   0  0  0  0  0  0  0  0  0100  0  0
  -25.8822  -32.4841   23.8616 C   0  0  1  0  0  0  0  0  0101  0  0
  -27.2536  -27.5042   20.1156 C   0  0  0  0  0  0  0  0  0102  0  0
  -25.5726  -33.8762   24.2210 N   0  0  0  0  0  0  0  0  0103  0  0
  -23.4066  -30.4859   21.5461 C   0  0  2  0  0  0  0  0  0104  0  0
  -24.8467  -28.9636   20.1247 C   0  0  0  0  0  0  0  0  0105  0  0
  -22.7412  -29.4652   22.5052 C   0  0  0  0  0  0  0  0  0106  0  0
  -18.0167  -28.1302   22.8626 C   0  0  0  0  0  0  0  0  0107  0  0
  -24.1342  -36.7390   23.2568 C   0  0  0  0  0  0  0  0  0108  0  0
  -25.9141  -30.8882   21.3456 C   0  0  0  0  0  0  0  0  0109  0  0
  -25.9930  -29.5029   20.7208 C   0  0  0  0  0  0  0  0  0110  0  0
  -27.1758  -28.7612   20.7331 C   0  0  0  0  0  0  0  0  0111  0  0
  -26.1032  -26.9836   19.5230 C   0  0  0  0  0  0  0  0  0112  0  0
  -24.9097  -27.7011   19.5331 C   0  0  0  0  0  0  0  0  0113  0  0
  -23.5715  -29.7899   20.1582 C   0  0  0  0  0  0  0  0  0114  0  0
  -25.3990  -36.3212   24.0232 C   0  0  1  0  0  0  0  0  0115  0  0
  -20.5793  -28.3813   23.1004 C   0  0  2  0  0  0  0  0  0116  0  0
  -20.6548  -26.9392   22.5411 C   0  0  0  0  0  0  0  0  0117  0  0
  -19.5615  -26.6407   21.5143 C   0  0  0  0  0  0  0  0  0118  0  0
  -18.1797  -26.7818   22.1673 C   0  0  0  0  0  0  0  0  0119  0  0
  -19.1385  -28.8769   23.2988 C   0  0  0  0  0  0  0  0  0120  0  0
  -18.9183  -30.1286   23.8878 C   0  0  0  0  0  0  0  0  0121  0  0
  -17.6396  -30.6493   24.0352 C   0  0  0  0  0  0  0  0  0122  0  0
  -25.9153  -34.9582   23.4993 C   0  0  0  0  0  0  0  0  0123  0  0
  -16.5415  -29.9068   23.6254 C   0  0  0  0  0  0  0  0  0124  0  0
  -16.7331  -28.6521   23.0586 C   0  0  0  0  0  0  0  0  0125  0  0
  -26.4583  -31.6439   25.0683 C   0  0  0  0  0  0  0  0  0126  0  0
  -25.3807  -31.3179   26.1374 C   0  0  0  0  0  0  0  0  0127  0  0
  -27.0530  -30.3024   24.5680 C   0  0  0  0  0  0  0  0  0128  0  0
  -27.6014  -32.4281   25.7651 C   0  0  0  0  0  0  0  0  0129  0  0
  -27.5629  -37.2220   24.8621 C   0  0  0  0  0  0  0  0  0130  0  0
  -21.4133  -29.3375   22.3735 N   0  0  0  0  0  0  0  0  0131  0  0
  -26.4706  -37.3372   23.9061 N   0  0  0  0  0  0  0  0  0132  0  0
  -24.6674  -31.0544   22.1178 N   0  0  0  0  0  0  0  0  0133  0  0
  -23.4259  -28.8150   23.2971 O   0  0  0  0  0  0  0  0  0134  0  0
  -28.3948  -26.7345   20.0089 O   0  0  0  0  0  0  0  0  0135  0  0
  -26.5870  -34.9065   22.4671 O   0  0  0  0  0  0  0  0  0136  0  0
  -23.5365  -32.1254   23.7833 O   0  0  0  0  0  0  0  0  0137  0  0
  -29.1055  -19.7661   17.4099 C   0  0  0  0  0  0  0  0  0  0  0  0
  -29.2895  -18.5844   19.5091 C   0  0  0  0  0  0  0  0  0  0  0  0
  -28.8769  -18.5587   16.7502 C   0  0  0  0  0  0  0  0  0  0  0  0
  -28.8545  -17.3640   17.4699 C   0  0  0  0  0  0  0  0  0  0  0  0
  -29.0609  -17.3768   18.8494 C   0  0  0  0  0  0  0  0  0  0  0  0
  -29.3119  -19.7790   18.7894 C   0  0  0  0  0  0  0  0  0  0  0  0
  -27.6277  -22.5946   21.0009 C   0  0  0  0  0  0  0  0  0  0  0  0
  -28.6583  -18.5731   15.2726 C   0  0  0  0  0  0  0  0  0  0  0  0
  -28.6065  -16.0715   16.7574 C   0  0  0  0  0  0  0  0  0  0  0  0
  -28.6067  -23.1334   19.9683 C   0  0  0  0  0  0  0  0  0  0  0  0
  -27.2702  -23.5477   22.1247 C   0  0  0  0  0  0  0  0  0  1  0  0
  -28.9354  -22.1256   18.8763 C   0  0  0  0  0  0  0  0  0  0  0  0
  -29.0387  -16.1755   19.6004 N   0  0  0  0  0  0  0  0  0  0  0  0
  -27.1503  -21.4630   20.9356 O   0  0  0  0  0  0  0  0  0  0  0  0
  -29.5376  -20.9654   19.4367 O   0  0  0  0  0  0  0  0  0  0  0  0
  -31.4485  -12.4701   19.0860 H   0  0  0  0  0  0  0  0  0  0  0  0
  -30.3970  -11.2460   19.6950 H   0  0  0  0  0  0  0  0  0  0  0  0
  -29.6870  -11.8204   17.4226 H   0  0  0  0  0  0  0  0  0  0  0  0
  -29.6375  -13.5326   17.8649 H   0  0  0  0  0  0  0  0  0  0  0  0
  -27.7830  -11.3650   18.7904 H   0  0  0  0  0  0  0  0  0  0  0  0
  -27.4028  -12.7801   17.8021 H   0  0  0  0  0  0  0  0  0  0  0  0
  -27.7353  -14.2503   19.6136 H   0  0  0  0  0  0  0  0  0  0  0  0
  -28.5890  -11.9550   21.3832 H   0  0  0  0  0  0  0  0  0  0  0  0
  -28.5005  -13.6134   21.8562 H   0  0  0  0  0  0  0  0  0  0  0  0
  -25.2399   -9.5495   22.4318 H   0  0  0  0  0  0  0  0  0  0  0  0
  -23.9663   -7.5070   22.7297 H   0  0  0  0  0  0  0  0  0  0  0  0
  -21.1515   -8.8641   19.9162 H   0  0  0  0  0  0  0  0  0  0  0  0
  -22.4016  -10.9115   19.6476 H   0  0  0  0  0  0  0  0  0  0  0  0
  -21.2319   -7.5552   23.9750 H   0  0  0  0  0  0  0  0  0  0  0  0
  -21.1589   -6.0228   25.8556 H   0  0  0  0  0  0  0  0  0  0  0  0
  -22.0396   -2.8212   23.2809 H   0  0  0  0  0  0  0  0  0  0  0  0
  -22.4401  -11.9703   22.4008 H   0  0  0  0  0  0  0  0  0  0  0  0
  -21.1493  -13.0679   22.2082 H   0  0  0  0  0  0  0  0  0  0  0  0
  -24.6538  -15.7807   20.5848 H   0  0  0  0  0  0  0  0  0  0  0  0
  -26.2762  -15.5453   20.1156 H   0  0  0  0  0  0  0  0  0  0  0  0
  -26.6778  -32.4663   23.1464 H   0  0  0  0  0  0  0  0  0  0  0  0
  -25.0747  -34.0282   25.0566 H   0  0  0  0  0  0  0  0  0  0  0  0
  -22.7881  -31.3489   21.4131 H   0  0  0  0  0  0  0  0  0  0  0  0
  -23.3854  -35.9823   23.3648 H   0  0  0  0  0  0  0  0  0  0  0  0
  -24.3696  -36.8624   22.2204 H   0  0  0  0  0  0  0  0  0  0  0  0
  -23.7669  -37.6632   23.6516 H   0  0  0  0  0  0  0  0  0  0  0  0
  -25.9445  -31.6237   20.5691 H   0  0  0  0  0  0  0  0  0  0  0  0
  -26.7436  -31.0079   22.0108 H   0  0  0  0  0  0  0  0  0  0  0  0
  -28.0090  -29.1452   21.2057 H   0  0  0  0  0  0  0  0  0  0  0  0
  -26.1369  -26.0560   19.0719 H   0  0  0  0  0  0  0  0  0  0  0  0
  -24.0652  -27.2961   19.0997 H   0  0  0  0  0  0  0  0  0  0  0  0
  -23.6156  -30.5365   19.3930 H   0  0  0  0  0  0  0  0  0  0  0  0
  -22.7355  -29.1425   19.9945 H   0  0  0  0  0  0  0  0  0  0  0  0
  -25.1353  -36.2335   25.0565 H   0  0  0  0  0  0  0  0  0  0  0  0
  -21.0070  -28.3206   24.0793 H   0  0  0  0  0  0  0  0  0  0  0  0
  -20.5555  -26.2518   23.3550 H   0  0  0  0  0  0  0  0  0  0  0  0
  -21.5974  -26.8362   22.0454 H   0  0  0  0  0  0  0  0  0  0  0  0
  -19.6810  -25.6422   21.1488 H   0  0  0  0  0  0  0  0  0  0  0  0
  -19.6406  -27.3343   20.7034 H   0  0  0  0  0  0  0  0  0  0  0  0
  -17.4282  -26.6888   21.4113 H   0  0  0  0  0  0  0  0  0  0  0  0
  -18.0803  -26.0130   22.9049 H   0  0  0  0  0  0  0  0  0  0  0  0
  -19.7265  -30.6774   24.2204 H   0  0  0  0  0  0  0  0  0  0  0  0
  -17.5064  -31.5856   24.4483 H   0  0  0  0  0  0  0  0  0  0  0  0
  -15.5878  -30.2839   23.7407 H   0  0  0  0  0  0  0  0  0  0  0  0
  -15.9120  -28.0941   22.7766 H   0  0  0  0  0  0  0  0  0  0  0  0
  -24.5787  -30.7757   25.6817 H   0  0  0  0  0  0  0  0  0  0  0  0
  -25.0041  -32.2289   26.5536 H   0  0  0  0  0  0  0  0  0  0  0  0
  -25.8166  -30.7245   26.9138 H   0  0  0  0  0  0  0  0  0  0  0  0
  -26.2892  -29.7335   24.0803 H   0  0  0  0  0  0  0  0  0  0  0  0
  -27.4336  -29.7484   25.4006 H   0  0  0  0  0  0  0  0  0  0  0  0
  -27.8466  -30.4994   23.8779 H   0  0  0  0  0  0  0  0  0  0  0  0
  -27.2251  -33.3632   26.1242 H   0  0  0  0  0  0  0  0  0  0  0  0
  -28.3902  -32.6065   25.0645 H   0  0  0  0  0  0  0  0  0  0  0  0
  -27.9772  -31.8555   26.5872 H   0  0  0  0  0  0  0  0  0  0  0  0
  -28.2744  -38.0016   24.6863 H   0  0  0  0  0  0  0  0  0  0  0  0
  -28.0396  -36.2711   24.7461 H   0  0  0  0  0  0  0  0  0  0  0  0
  -27.1773  -37.3087   25.8564 H   0  0  0  0  0  0  0  0  0  0  0  0
  -20.9627  -29.9365   21.7352 H   0  0  0  0  0  0  0  0  0  0  0  0
  -26.0447  -38.2561   24.0273 H   0  0  0  0  0  0  0  0  0  0  0  0
  -29.1219  -20.6500   16.8774 H   0  0  0  0  0  0  0  0  0  0  0  0
  -29.4421  -18.5940   20.5297 H   0  0  0  0  0  0  0  0  0  0  0  0
  -28.7140  -19.5795   14.9136 H   0  0  0  0  0  0  0  0  0  0  0  0
  -27.6930  -18.1683   15.0509 H   0  0  0  0  0  0  0  0  0  0  0  0
  -29.4113  -17.9818   14.7949 H   0  0  0  0  0  0  0  0  0  0  0  0
  -28.4720  -16.2602   15.7128 H   0  0  0  0  0  0  0  0  0  0  0  0
  -27.7260  -15.6096   17.1527 H   0  0  0  0  0  0  0  0  0  0  0  0
  -29.4442  -15.4206   16.8973 H   0  0  0  0  0  0  0  0  0  0  0  0
  -29.5140  -23.4033   20.4672 H   0  0  0  0  0  0  0  0  0  0  0  0
  -28.1435  -23.9752   19.4974 H   0  0  0  0  0  0  0  0  0  0  0  0
  -27.8487  -23.3981   23.0123 H   0  0  0  0  0  0  0  0  0  0  0  0
  -26.2833  -23.5189   22.5371 H   0  0  0  0  0  0  0  0  0  0  0  0
  -29.6120  -22.5713   18.1774 H   0  0  0  0  0  0  0  0  0  0  0  0
  -28.0298  -21.8420   18.3820 H   0  0  0  0  0  0  0  0  0  0  0  0
  -28.1098  -15.9170   19.7994 H   0  0  0  0  0  0  0  0  0  0  0  0
  1 25  1  0
  1 30  2  0
  1 83  1  0
  2  3  1  0
  2 25  1  0
  2 86  1  0
  2 87  1  0
  3  4  1  0
  3 88  1  0
  3 89  1  0
  4  5  1  0
  4 90  1  0
  4 91  1  0
  5  6  1  0
  5 26  1  0
  5 92  1  6
  6 25  1  0
  6 93  1  0
  6 94  1  0
  7  8  2  0
  7 26  1  0
  7 29  1  0
  8  9  1  0
  8 22  1  0
  9 10  1  0
  9 27  2  0
 10 11  2  0
 10 15  1  0
 11 12  1  0
 11 95  1  0
 12 13  2  0
 12 96  1  0
 13 14  1  0
 13 31  1  0
 14 15  2  0
 14 97  1  0
 15 98  1  0
 16 17  2  0
 16 21  1  0
 16 31  1  0
 17 18  1  0
 17 99  1  0
 18 19  2  0
 18100  1  0
 19 20  1  0
 19 24  1  0
 20 21  2  0
 20101  1  0
 21 23  1  0
 22 28  1  0
 22 32  2  0
 26 27  1  0
 28102  1  0
 28103  1  0
 29104  1  0
 29105  1  0
 33 34  1  0
 33 66  1  0
 33 70  2  0
 34 36  1  0
 34 59  1  0
 34106  1  6
 35 44  2  0
 35 45  1  0
 35 68  1  0
 36 56  1  0
 36107  1  0
 37 39  1  0
 37 47  1  0
 37 66  1  0
 37108  1  6
 38 43  2  0
 38 46  1  0
 38 47  1  0
 39 64  1  0
 39 67  2  0
 40 52  1  0
 40 53  2  0
 40 58  1  0
 41109  1  0
 41110  1  0
 41111  1  0
 42 43  1  0
 42 66  1  0
 42112  1  0
 42113  1  0
 43 44  1  0
 44114  1  0
 45 46  2  0
 45115  1  0
 46116  1  0
 47117  1  0
 47118  1  0
 48 41  1  0
 48 56  1  0
 48 65  1  0
 48119  1  1
 49 50  1  0
 49 53  1  0
 49 64  1  0
 49120  1  1
 50 51  1  0
 50121  1  0
 50122  1  0
 51 52  1  0
 51123  1  0
 51124  1  0
 52125  1  0
 52126  1  0
 53 54  1  0
 54 55  2  0
 54127  1  0
 55 57  1  0
 55128  1  0
 56 69  2  0
 57 58  2  0
 57129  1  0
 58130  1  0
 59 60  1  0
 59 61  1  0
 59 62  1  0
 60131  1  0
 60132  1  0
 60133  1  0
 61134  1  0
 61135  1  0
 61136  1  0
 62137  1  0
 62138  1  0
 62139  1  0
 63 65  1  0
 63140  1  0
 63141  1  0
 63142  1  0
 64143  1  0
 65144  1  0
 68 81  1  0
 71 73  2  0
 71 76  1  0
 71145  1  0
 72 75  1  0
 72 76  2  0
 72146  1  0
 73 74  1  0
 73 78  1  0
 74 75  2  0
 74 79  1  0
 75 83  1  0
 76 85  1  0
 77 80  1  0
 77 81  1  0
 77 84  2  0
 78147  1  0
 78148  1  0
 78149  1  0
 79150  1  0
 79151  1  0
 79152  1  0
 80 82  1  0
 80153  1  0
 80154  1  0
 81155  1  0
 81156  1  0
 82 85  1  0
 82157  1  0
 82158  1  0
 83159  1  0
M  ISO  4   1 100  68 101  81 101  83 100
M  END
$$$$
46
     RDKit          3D

164172  0  0  0  0  0  0  0  0999 V2000
  -30.7652  -14.3608   20.6636 C   0  0  0  0  0  0  0  0  0100  0  0
  -30.4392  -12.2669   19.3775 C   0  0  0  0  0  0  0  0  0101  0  0
  -29.4791  -12.5281   18.1977 C   0  0  0  0  0  0  0  0  0102  0  0
  -27.9985  -12.3963   18.6038 C   0  0  0  0  0  0  0  0  0103  0  0
  -27.6639  -13.2170   19.8820 C   0  0  2  0  0  0  0  0  0104  0  0
  -28.6795  -12.9602   21.0279 C   0  0  0  0  0  0  0  0  0105  0  0
  -25.2633  -13.8245   20.5754 C   0  0  0  0  0  0  0  0  0106  0  0
  -24.1645  -13.0409   20.9408 C   0  0  0  0  0  0  0  0  0107  0  0
  -24.6400  -11.7009   20.8697 C   0  0  0  0  0  0  0  0  0108  0  0
  -23.9005  -10.4085   21.0420 C   0  0  0  0  0  0  0  0  0109  0  0
  -24.3588   -9.4123   21.9123 C   0  0  0  0  0  0  0  0  0110  0  0
  -23.6296   -8.2350   22.0803 C   0  0  0  0  0  0  0  0  0111  0  0
  -22.4385   -8.0419   21.3657 C   0  0  0  0  0  0  0  0  0112  0  0
  -22.0103   -9.0167   20.4678 C   0  0  0  0  0  0  0  0  0113  0  0
  -22.7317  -10.1925   20.3102 C   0  0  0  0  0  0  0  0  0114  0  0
  -21.6857   -6.0709   22.5391 C   0  0  0  0  0  0  0  0  0115  0  0
  -21.4064   -6.5490   23.8264 C   0  0  0  0  0  0  0  0  0116  0  0
  -21.3635   -5.6677   24.9085 C   0  0  0  0  0  0  0  0  0117  0  0
  -21.5973   -4.3067   24.7088 C   0  0  0  0  0  0  0  0  0118  0  0
  -21.8700   -3.8284   23.4282 C   0  0  0  0  0  0  0  0  0119  0  0
  -21.9144   -4.7056   22.3460 C   0  0  0  0  0  0  0  0  0120  0  0
  -22.8194  -13.5263   21.1763 C   0  0  0  0  0  0  0  0  0121  0  0
  -22.1559   -4.2206   21.1063 F   0  0  0  0  0  0  0  0  0122  0  0
  -21.5628   -3.4510   25.7555 F   0  0  0  0  0  0  0  0  0123  0  0
  -30.0261  -13.1803   20.4553 N   0  0  0  0  0  0  0  0  0124  0  0
  -26.2911  -12.9356   20.3443 N   0  0  0  0  0  0  0  0  0125  0  0
  -25.9236  -11.6675   20.5847 N   0  0  0  0  0  0  0  0  0126  0  0
  -22.0708  -12.7905   22.0005 N   0  0  0  0  0  0  0  0  0127  0  0
  -25.4117  -15.1773   20.4097 N   0  0  0  0  0  0  0  0  0128  0  0
  -31.7916  -14.6724   20.0536 O   0  0  0  0  0  0  0  0  0129  0  0
  -21.6670   -6.9022   21.4423 O   0  0  0  0  0  0  0  0  0130  0  0
  -22.3946  -14.5564   20.6568 O   0  0  0  0  0  0  0  0  0131  0  0
  -24.6048  -31.8614   23.2223 C   0  0  0  0  0  0  0  0  0100  0  0
  -25.8822  -32.4841   23.8616 C   0  0  1  0  0  0  0  0  0101  0  0
  -27.2536  -27.5042   20.1156 C   0  0  0  0  0  0  0  0  0102  0  0
  -25.5726  -33.8762   24.2210 N   0  0  0  0  0  0  0  0  0103  0  0
  -23.4066  -30.4859   21.5461 C   0  0  2  0  0  0  0  0  0104  0  0
  -24.8467  -28.9636   20.1247 C   0  0  0  0  0  0  0  0  0105  0  0
  -22.7412  -29.4652   22.5052 C   0  0  0  0  0  0  0  0  0106  0  0
  -18.0167  -28.1302   22.8626 C   0  0  0  0  0  0  0  0  0107  0  0
  -24.1342  -36.7390   23.2568 C   0  0  0  0  0  0  0  0  0108  0  0
  -25.9141  -30.8882   21.3456 C   0  0  0  0  0  0  0  0  0109  0  0
  -25.9930  -29.5029   20.7208 C   0  0  0  0  0  0  0  0  0110  0  0
  -27.1758  -28.7612   20.7331 C   0  0  0  0  0  0  0  0  0111  0  0
  -26.1032  -26.9836   19.5230 C   0  0  0  0  0  0  0  0  0112  0  0
  -24.9097  -27.7011   19.5331 C   0  0  0  0  0  0  0  0  0113  0  0
  -23.5715  -29.7899   20.1582 C   0  0  0  0  0  0  0  0  0114  0  0
  -25.3990  -36.3212   24.0232 C   0  0  1  0  0  0  0  0  0115  0  0
  -20.5793  -28.3813   23.1004 C   0  0  2  0  0  0  0  0  0116  0  0
  -20.6548  -26.9392   22.5411 C   0  0  0  0  0  0  0  0  0117  0  0
  -19.5615  -26.6407   21.5143 C   0  0  0  0  0  0  0  0  0118  0  0
  -18.1797  -26.7818   22.1673 C   0  0  0  0  0  0  0  0  0119  0  0
  -19.1385  -28.8769   23.2988 C   0  0  0  0  0  0  0  0  0120  0  0
  -18.9183  -30.1286   23.8878 C   0  0  0  0  0  0  0  0  0121  0  0
  -17.6396  -30.6493   24.0352 C   0  0  0  0  0  0  0  0  0122  0  0
  -25.9153  -34.9582   23.4993 C   0  0  0  0  0  0  0  0  0123  0  0
  -16.5415  -29.9068   23.6254 C   0  0  0  0  0  0  0  0  0124  0  0
  -16.7331  -28.6521   23.0586 C   0  0  0  0  0  0  0  0  0125  0  0
  -26.4583  -31.6439   25.0683 C   0  0  0  0  0  0  0  0  0126  0  0
  -25.3807  -31.3179   26.1374 C   0  0  0  0  0  0  0  0  0127  0  0
  -27.0530  -30.3024   24.5680 C   0  0  0  0  0  0  0  0  0128  0  0
  -27.6014  -32.4281   25.7651 C   0  0  0  0  0  0  0  0  0129  0  0
  -27.5629  -37.2220   24.8621 C   0  0  0  0  0  0  0  0  0130  0  0
  -21.4133  -29.3375   22.3735 N   0  0  0  0  0  0  0  0  0131  0  0
  -26.4706  -37.3372   23.9061 N   0  0  0  0  0  0  0  0  0132  0  0
  -24.6674  -31.0544   22.1178 N   0  0  0  0  0  0  0  0  0133  0  0
  -23.4259  -28.8150   23.2971 O   0  0  0  0  0  0  0  0  0134  0  0
  -28.3948  -26.7345   20.0089 O   0  0  0  0  0  0  0  0  0135  0  0
  -26.5870  -34.9065   22.4671 O   0  0  0  0  0  0  0  0  0136  0  0
  -23.5365  -32.1254   23.7833 O   0  0  0  0  0  0  0  0  0137  0  0
  -20.0754  -25.0497   24.9298 C   0  0  0  0  0  0  0  0  0  0  0  0
  -21.3899  -24.5852   24.9724 C   0  0  0  0  0  0  0  0  0  0  0  0
  -20.0086  -24.6423   22.5493 C   0  0  0  0  0  0  0  0  0  0  0  0
  -19.3847  -25.0782   23.7182 C   0  0  0  0  0  0  0  0  0  0  0  0
  -21.3232  -24.1779   22.5919 C   0  0  0  0  0  0  0  0  0  0  0  0
  -22.0138  -24.1493   23.8035 C   0  0  0  0  0  0  0  0  0  0  0  0
  -18.4007  -27.5128   22.0617 C   0  0  0  0  0  0  0  0  0  0  0  0
  -22.9417  -24.7523   20.7652 C   0  0  0  0  0  0  0  0  0  0  0  0
  -16.2923  -27.5048   23.4386 C   0  0  0  0  0  0  0  0  0  0  0  0
  -18.4754  -27.8792   24.5555 C   0  0  0  0  0  0  0  0  0  0  0  0
  -17.9605  -25.5841   23.6718 C   0  0  0  0  0  0  0  0  0  0  0  0
  -21.9676  -23.7199   21.3237 C   0  0  0  0  0  0  0  0  0  0  0  0
  -19.5875  -28.4638   22.0714 C   0  0  0  0  0  0  0  0  0  1  0  0
  -17.7812  -27.1050   23.4179 C   0  0  0  0  0  0  0  0  0  0  0  0
  -23.3496  -23.6812   23.8676 N   0  0  0  0  0  0  0  0  0  0  0  0
  -17.9705  -27.0624   20.9969 O   0  0  0  0  0  0  0  0  0  0  0  0
  -31.4485  -12.4701   19.0860 H   0  0  0  0  0  0  0  0  0  0  0  0
  -30.3970  -11.2460   19.6950 H   0  0  0  0  0  0  0  0  0  0  0  0
  -29.6870  -11.8204   17.4226 H   0  0  0  0  0  0  0  0  0  0  0  0
  -29.6375  -13.5326   17.8649 H   0  0  0  0  0  0  0  0  0  0  0  0
  -27.7830  -11.3650   18.7904 H   0  0  0  0  0  0  0  0  0  0  0  0
  -27.4028  -12.7801   17.8021 H   0  0  0  0  0  0  0  0  0  0  0  0
  -27.7353  -14.2503   19.6136 H   0  0  0  0  0  0  0  0  0  0  0  0
  -28.5890  -11.9550   21.3832 H   0  0  0  0  0  0  0  0  0  0  0  0
  -28.5005  -13.6134   21.8562 H   0  0  0  0  0  0  0  0  0  0  0  0
  -25.2399   -9.5495   22.4318 H   0  0  0  0  0  0  0  0  0  0  0  0
  -23.9663   -7.5070   22.7297 H   0  0  0  0  0  0  0  0  0  0  0  0
  -21.1515   -8.8641   19.9162 H   0  0  0  0  0  0  0  0  0  0  0  0
  -22.4016  -10.9115   19.6476 H   0  0  0  0  0  0  0  0  0  0  0  0
  -21.2319   -7.5552   23.9750 H   0  0  0  0  0  0  0  0  0  0  0  0
  -21.1589   -6.0228   25.8556 H   0  0  0  0  0  0  0  0  0  0  0  0
  -22.0396   -2.8212   23.2809 H   0  0  0  0  0  0  0  0  0  0  0  0
  -22.4401  -11.9703   22.4008 H   0  0  0  0  0  0  0  0  0  0  0  0
  -21.1493  -13.0679   22.2082 H   0  0  0  0  0  0  0  0  0  0  0  0
  -24.6538  -15.7807   20.5848 H   0  0  0  0  0  0  0  0  0  0  0  0
  -26.2762  -15.5453   20.1156 H   0  0  0  0  0  0  0  0  0  0  0  0
  -26.6778  -32.4663   23.1464 H   0  0  0  0  0  0  0  0  0  0  0  0
  -25.0747  -34.0282   25.0566 H   0  0  0  0  0  0  0  0  0  0  0  0
  -22.7881  -31.3489   21.4131 H   0  0  0  0  0  0  0  0  0  0  0  0
  -23.3854  -35.9823   23.3648 H   0  0  0  0  0  0  0  0  0  0  0  0
  -24.3696  -36.8624   22.2204 H   0  0  0  0  0  0  0  0  0  0  0  0
  -23.7669  -37.6632   23.6516 H   0  0  0  0  0  0  0  0  0  0  0  0
  -25.9445  -31.6237   20.5691 H   0  0  0  0  0  0  0  0  0  0  0  0
  -26.7436  -31.0079   22.0108 H   0  0  0  0  0  0  0  0  0  0  0  0
  -28.0090  -29.1452   21.2057 H   0  0  0  0  0  0  0  0  0  0  0  0
  -26.1369  -26.0560   19.0719 H   0  0  0  0  0  0  0  0  0  0  0  0
  -24.0652  -27.2961   19.0997 H   0  0  0  0  0  0  0  0  0  0  0  0
  -23.6156  -30.5365   19.3930 H   0  0  0  0  0  0  0  0  0  0  0  0
  -22.7355  -29.1425   19.9945 H   0  0  0  0  0  0  0  0  0  0  0  0
  -25.1353  -36.2335   25.0565 H   0  0  0  0  0  0  0  0  0  0  0  0
  -21.0070  -28.3206   24.0793 H   0  0  0  0  0  0  0  0  0  0  0  0
  -20.5555  -26.2518   23.3550 H   0  0  0  0  0  0  0  0  0  0  0  0
  -21.5974  -26.8362   22.0454 H   0  0  0  0  0  0  0  0  0  0  0  0
  -19.6810  -25.6422   21.1488 H   0  0  0  0  0  0  0  0  0  0  0  0
  -19.6406  -27.3343   20.7034 H   0  0  0  0  0  0  0  0  0  0  0  0
  -17.4282  -26.6888   21.4113 H   0  0  0  0  0  0  0  0  0  0  0  0
  -18.0803  -26.0130   22.9049 H   0  0  0  0  0  0  0  0  0  0  0  0
  -19.7265  -30.6774   24.2204 H   0  0  0  0  0  0  0  0  0  0  0  0
  -17.5064  -31.5856   24.4483 H   0  0  0  0  0  0  0  0  0  0  0  0
  -15.5878  -30.2839   23.7407 H   0  0  0  0  0  0  0  0  0  0  0  0
  -15.9120  -28.0941   22.7766 H   0  0  0  0  0  0  0  0  0  0  0  0
  -24.5787  -30.7757   25.6817 H   0  0  0  0  0  0  0  0  0  0  0  0
  -25.0041  -32.2289   26.5536 H   0  0  0  0  0  0  0  0  0  0  0  0
  -25.8166  -30.7245   26.9138 H   0  0  0  0  0  0  0  0  0  0  0  0
  -26.2892  -29.7335   24.0803 H   0  0  0  0  0  0  0  0  0  0  0  0
  -27.4336  -29.7484   25.4006 H   0  0  0  0  0  0  0  0  0  0  0  0
  -27.8466  -30.4994   23.8779 H   0  0  0  0  0  0  0  0  0  0  0  0
  -27.2251  -33.3632   26.1242 H   0  0  0  0  0  0  0  0  0  0  0  0
  -28.3902  -32.6065   25.0645 H   0  0  0  0  0  0  0  0  0  0  0  0
  -27.9772  -31.8555   26.5872 H   0  0  0  0  0  0  0  0  0  0  0  0
  -28.2744  -38.0016   24.6863 H   0  0  0  0  0  0  0  0  0  0  0  0
  -28.0396  -36.2711   24.7461 H   0  0  0  0  0  0  0  0  0  0  0  0
  -27.1773  -37.3087   25.8564 H   0  0  0  0  0  0  0  0  0  0  0  0
  -20.9627  -29.9365   21.7352 H   0  0  0  0  0  0  0  0  0  0  0  0
  -26.0447  -38.2561   24.0273 H   0  0  0  0  0  0  0  0  0  0  0  0
  -19.6138  -25.3723   25.7946 H   0  0  0  0  0  0  0  0  0  0  0  0
  -21.9009  -24.5640   25.8688 H   0  0  0  0  0  0  0  0  0  0  0  0
  -19.4976  -24.6634   21.6529 H   0  0  0  0  0  0  0  0  0  0  0  0
  -23.3759  -24.3803   19.8608 H   0  0  0  0  0  0  0  0  0  0  0  0
  -23.7144  -24.9379   21.4818 H   0  0  0  0  0  0  0  0  0  0  0  0
  -22.4182  -25.6629   20.5613 H   0  0  0  0  0  0  0  0  0  0  0  0
  -16.2028  -28.5562   23.2610 H   0  0  0  0  0  0  0  0  0  0  0  0
  -15.8725  -27.2674   24.3938 H   0  0  0  0  0  0  0  0  0  0  0  0
  -15.7683  -26.9683   22.6754 H   0  0  0  0  0  0  0  0  0  0  0  0
  -18.3599  -28.9306   24.3937 H   0  0  0  0  0  0  0  0  0  0  0  0
  -19.5166  -27.6329   24.5710 H   0  0  0  0  0  0  0  0  0  0  0  0
  -18.0317  -27.6116   25.4916 H   0  0  0  0  0  0  0  0  0  0  0  0
  -17.5014  -25.3535   24.6104 H   0  0  0  0  0  0  0  0  0  0  0  0
  -17.5115  -25.0985   22.8307 H   0  0  0  0  0  0  0  0  0  0  0  0
  -21.2046  -23.5375   20.5961 H   0  0  0  0  0  0  0  0  0  0  0  0
  -22.5212  -22.8301   21.5399 H   0  0  0  0  0  0  0  0  0  0  0  0
  -19.6173  -28.8428   23.0716 H   0  0  0  0  0  0  0  0  0  0  0  0
  -19.3353  -29.0314   21.2001 H   0  0  0  0  0  0  0  0  0  0  0  0
  -23.8876  -24.3512   24.3481 H   0  0  0  0  0  0  0  0  0  0  0  0
  1 25  1  0
  1 30  2  0
  1 85  1  0
  2  3  1  0
  2 25  1  0
  2 87  1  0
  2 88  1  0
  3  4  1  0
  3 89  1  0
  3 90  1  0
  4  5  1  0
  4 91  1  0
  4 92  1  0
  5  6  1  0
  5 26  1  0
  5 93  1  6
  6 25  1  0
  6 94  1  0
  6 95  1  0
  7  8  2  0
  7 26  1  0
  7 29  1  0
  8  9  1  0
  8 22  1  0
  9 10  1  0
  9 27  2  0
 10 11  2  0
 10 15  1  0
 11 12  1  0
 11 96  1  0
 12 13  2  0
 12 97  1  0
 13 14  1  0
 13 31  1  0
 14 15  2  0
 14 98  1  0
 15 99  1  0
 16 17  2  0
 16 21  1  0
 16 31  1  0
 17 18  1  0
 17100  1  0
 18 19  2  0
 18101  1  0
 19 20  1  0
 19 24  1  0
 20 21  2  0
 20102  1  0
 21 23  1  0
 22 28  1  0
 22 32  2  0
 26 27  1  0
 28103  1  0
 28104  1  0
 29105  1  0
 29106  1  0
 33 34  1  0
 33 66  1  0
 33 70  2  0
 34 36  1  0
 34 59  1  0
 34107  1  6
 35 44  2  0
 35 45  1  0
 35 68  1  0
 36 56  1  0
 36108  1  0
 37 39  1  0
 37 47  1  0
 37 66  1  0
 37109  1  6
 38 43  2  0
 38 46  1  0
 38 47  1  0
 39 64  1  0
 39 67  2  0
 40 52  1  0
 40 53  2  0
 40 58  1  0
 41110  1  0
 41111  1  0
 41112  1  0
 42 43  1  0
 42 66  1  0
 42113  1  0
 42114  1  0
 43 44  1  0
 44115  1  0
 45 46  2  0
 45116  1  0
 46117  1  0
 47118  1  0
 47119  1  0
 48 41  1  0
 48 56  1  0
 48 65  1  0
 48120  1  1
 49 50  1  0
 49 53  1  0
 49 64  1  0
 49121  1  1
 50 51  1  0
 50122  1  0
 50123  1  0
 51 52  1  0
 51124  1  0
 51125  1  0
 52126  1  0
 52127  1  0
 53 54  1  0
 54 55  2  0
 54128  1  0
 55 57  1  0
 55129  1  0
 56 69  2  0
 57 58  2  0
 57130  1  0
 58131  1  0
 59 60  1  0
 59 61  1  0
 59 62  1  0
 60132  1  0
 60133  1  0
 60134  1  0
 61135  1  0
 61136  1  0
 61137  1  0
 62138  1  0
 62139  1  0
 62140  1  0
 63 65  1  0
 63141  1  0
 63142  1  0
 63143  1  0
 64144  1  0
 65145  1  0
 68 83  1  0
 71 72  2  0
 71 74  1  0
 71146  1  0
 72 76  1  0
 72147  1  0
 73 74  2  0
 73 75  1  0
 73148  1  0
 74 81  1  0
 75 76  2  0
 75 82  1  0
 76 85  1  0
 77 83  1  0
 77 84  1  0
 77 86  2  0
 78 82  1  0
 78149  1  0
 78150  1  0
 78151  1  0
 79152  1  0
 79153  1  0
 79154  1  0
 80 84  1  0
 80155  1  0
 80156  1  0
 80157  1  0
 81 84  1  0
 81158  1  0
 81159  1  0
 82160  1  0
 82161  1  0
 83162  1  0
 83163  1  0
 84 79  1  0
 85164  1  0
M  ISO  4   1 100  68 101  83 101  85 100
M  END
$$$$
47
     RDKit          3D

157165  0  0  0  0  0  0  0  0999 V2000
  -30.7652  -14.3608   20.6636 C   0  0  0  0  0  0  0  0  0100  0  0
  -30.4392  -12.2669   19.3775 C   0  0  0  0  0  0  0  0  0101  0  0
  -29.4791  -12.5281   18.1977 C   0  0  0  0  0  0  0  0  0102  0  0
  -27.9985  -12.3963   18.6038 C   0  0  0  0  0  0  0  0  0103  0  0
  -27.6639  -13.2170   19.8820 C   0  0  2  0  0  0  0  0  0104  0  0
  -28.6795  -12.9602   21.0279 C   0  0  0  0  0  0  0  0  0105  0  0
  -25.2633  -13.8245   20.5754 C   0  0  0  0  0  0  0  0  0106  0  0
  -24.1645  -13.0409   20.9408 C   0  0  0  0  0  0  0  0  0107  0  0
  -24.6400  -11.7009   20.8697 C   0  0  0  0  0  0  0  0  0108  0  0
  -23.9005  -10.4085   21.0420 C   0  0  0  0  0  0  0  0  0109  0  0
  -24.3588   -9.4123   21.9123 C   0  0  0  0  0  0  0  0  0110  0  0
  -23.6296   -8.2350   22.0803 C   0  0  0  0  0  0  0  0  0111  0  0
  -22.4385   -8.0419   21.3657 C   0  0  0  0  0  0  0  0  0112  0  0
  -22.0103   -9.0167   20.4678 C   0  0  0  0  0  0  0  0  0113  0  0
  -22.7317  -10.1925   20.3102 C   0  0  0  0  0  0  0  0  0114  0  0
  -21.6857   -6.0709   22.5391 C   0  0  0  0  0  0  0  0  0115  0  0
  -21.4064   -6.5490   23.8264 C   0  0  0  0  0  0  0  0  0116  0  0
  -21.3635   -5.6677   24.9085 C   0  0  0  0  0  0  0  0  0117  0  0
  -21.5973   -4.3067   24.7088 C   0  0  0  0  0  0  0  0  0118  0  0
  -21.8700   -3.8284   23.4282 C   0  0  0  0  0  0  0  0  0119  0  0
  -21.9144   -4.7056   22.3460 C   0  0  0  0  0  0  0  0  0120  0  0
  -22.8194  -13.5263   21.1763 C   0  0  0  0  0  0  0  0  0121  0  0
  -22.1559   -4.2206   21.1063 F   0  0  0  0  0  0  0  0  0122  0  0
  -21.5628   -3.4510   25.7555 F   0  0  0  0  0  0  0  0  0123  0  0
  -30.0261  -13.1803   20.4553 N   0  0  0  0  0  0  0  0  0124  0  0
  -26.2911  -12.9356   20.3443 N   0  0  0  0  0  0  0  0  0125  0  0
  -25.9236  -11.6675   20.5847 N   0  0  0  0  0  0  0  0  0126  0  0
  -22.0708  -12.7905   22.0005 N   0  0  0  0  0  0  0  0  0127  0  0
  -25.4117  -15.1773   20.4097 N   0  0  0  0  0  0  0  0  0128  0  0
  -31.7916  -14.6724   20.0536 O   0  0  0  0  0  0  0  0  0129  0  0
  -21.6670   -6.9022   21.4423 O   0  0  0  0  0  0  0  0  0130  0  0
  -22.3946  -14.5564   20.6568 O   0  0  0  0  0  0  0  0  0131  0  0
  -24.6048  -31.8614   23.2223 C   0  0  0  0  0  0  0  0  0100  0  0
  -25.8822  -32.4841   23.8616 C   0  0  1  0  0  0  0  0  0101  0  0
  -27.2536  -27.5042   20.1156 C   0  0  0  0  0  0  0  0  0102  0  0
  -25.5726  -33.8762   24.2210 N   0  0  0  0  0  0  0  0  0103  0  0
  -23.4066  -30.4859   21.5461 C   0  0  2  0  0  0  0  0  0104  0  0
  -24.8467  -28.9636   20.1247 C   0  0  0  0  0  0  0  0  0105  0  0
  -22.7412  -29.4652   22.5052 C   0  0  0  0  0  0  0  0  0106  0  0
  -18.0167  -28.1302   22.8626 C   0  0  0  0  0  0  0  0  0107  0  0
  -24.1342  -36.7390   23.2568 C   0  0  0  0  0  0  0  0  0108  0  0
  -25.9141  -30.8882   21.3456 C   0  0  0  0  0  0  0  0  0109  0  0
  -25.9930  -29.5029   20.7208 C   0  0  0  0  0  0  0  0  0110  0  0
  -27.1758  -28.7612   20.7331 C   0  0  0  0  0  0  0  0  0111  0  0
  -26.1032  -26.9836   19.5230 C   0  0  0  0  0  0  0  0  0112  0  0
  -24.9097  -27.7011   19.5331 C   0  0  0  0  0  0  0  0  0113  0  0
  -23.5715  -29.7899   20.1582 C   0  0  0  0  0  0  0  0  0114  0  0
  -25.3990  -36.3212   24.0232 C   0  0  1  0  0  0  0  0  0115  0  0
  -20.5793  -28.3813   23.1004 C   0  0  2  0  0  0  0  0  0116  0  0
  -20.6548  -26.9392   22.5411 C   0  0  0  0  0  0  0  0  0117  0  0
  -19.5615  -26.6407   21.5143 C   0  0  0  0  0  0  0  0  0118  0  0
  -18.1797  -26.7818   22.1673 C   0  0  0  0  0  0  0  0  0119  0  0
  -19.1385  -28.8769   23.2988 C   0  0  0  0  0  0  0  0  0120  0  0
  -18.9183  -30.1286   23.8878 C   0  0  0  0  0  0  0  0  0121  0  0
  -17.6396  -30.6493   24.0352 C   0  0  0  0  0  0  0  0  0122  0  0
  -25.9153  -34.9582   23.4993 C   0  0  0  0  0  0  0  0  0123  0  0
  -16.5415  -29.9068   23.6254 C   0  0  0  0  0  0  0  0  0124  0  0
  -16.7331  -28.6521   23.0586 C   0  0  0  0  0  0  0  0  0125  0  0
  -26.4583  -31.6439   25.0683 C   0  0  0  0  0  0  0  0  0126  0  0
  -25.3807  -31.3179   26.1374 C   0  0  0  0  0  0  0  0  0127  0  0
  -27.0530  -30.3024   24.5680 C   0  0  0  0  0  0  0  0  0128  0  0
  -27.6014  -32.4281   25.7651 C   0  0  0  0  0  0  0  0  0129  0  0
  -27.5629  -37.2220   24.8621 C   0  0  0  0  0  0  0  0  0130  0  0
  -21.4133  -29.3375   22.3735 N   0  0  0  0  0  0  0  0  0131  0  0
  -26.4706  -37.3372   23.9061 N   0  0  0  0  0  0  0  0  0132  0  0
  -24.6674  -31.0544   22.1178 N   0  0  0  0  0  0  0  0  0133  0  0
  -23.4259  -28.8150   23.2971 O   0  0  0  0  0  0  0  0  0134  0  0
  -28.3948  -26.7345   20.0089 O   0  0  0  0  0  0  0  0  0135  0  0
  -26.5870  -34.9065   22.4671 O   0  0  0  0  0  0  0  0  0136  0  0
  -23.5365  -32.1254   23.7833 O   0  0  0  0  0  0  0  0  0137  0  0
  -30.5327  -18.3100   24.0422 C   0  0  0  0  0  0  0  0  0  0  0  0
  -31.9200  -18.3062   24.1872 C   0  0  0  0  0  0  0  0  0  0  0  0
  -32.0878  -16.5519   22.5345 C   0  0  0  0  0  0  0  0  0  0  0  0
  -29.9230  -17.4347   23.1435 C   0  0  0  0  0  0  0  0  0  0  0  0
  -30.7005  -16.5557   22.3896 C   0  0  0  0  0  0  0  0  0  0  0  0
  -32.6976  -17.4271   23.4333 C   0  0  0  0  0  0  0  0  0  0  0  0
  -28.4350  -17.4609   23.0090 C   0  0  0  0  0  0  0  0  0  0  0  0
  -36.9717  -17.3265   23.7388 C   0  0  0  0  0  0  0  0  0  0  0  0
  -36.0367  -19.2606   22.4071 C   0  0  0  0  0  0  0  0  0  1  0  0
  -34.8238  -17.0604   22.4330 C   0  0  0  0  0  0  0  0  0  0  0  0
  -36.1955  -17.7394   22.4823 C   0  0  2  0  0  0  0  0  0  0  0  0
  -30.0999  -15.6591   21.4714 N   0  0  0  0  0  0  0  0  0  0  0  0
  -34.0606  -17.4237   23.5760 O   0  0  0  0  0  0  0  0  0  0  0  0
  -31.4485  -12.4701   19.0860 H   0  0  0  0  0  0  0  0  0  0  0  0
  -30.3970  -11.2460   19.6950 H   0  0  0  0  0  0  0  0  0  0  0  0
  -29.6870  -11.8204   17.4226 H   0  0  0  0  0  0  0  0  0  0  0  0
  -29.6375  -13.5326   17.8649 H   0  0  0  0  0  0  0  0  0  0  0  0
  -27.7830  -11.3650   18.7904 H   0  0  0  0  0  0  0  0  0  0  0  0
  -27.4028  -12.7801   17.8021 H   0  0  0  0  0  0  0  0  0  0  0  0
  -27.7353  -14.2503   19.6136 H   0  0  0  0  0  0  0  0  0  0  0  0
  -28.5890  -11.9550   21.3832 H   0  0  0  0  0  0  0  0  0  0  0  0
  -28.5005  -13.6134   21.8562 H   0  0  0  0  0  0  0  0  0  0  0  0
  -25.2399   -9.5495   22.4318 H   0  0  0  0  0  0  0  0  0  0  0  0
  -23.9663   -7.5070   22.7297 H   0  0  0  0  0  0  0  0  0  0  0  0
  -21.1515   -8.8641   19.9162 H   0  0  0  0  0  0  0  0  0  0  0  0
  -22.4016  -10.9115   19.6476 H   0  0  0  0  0  0  0  0  0  0  0  0
  -21.2319   -7.5552   23.9750 H   0  0  0  0  0  0  0  0  0  0  0  0
  -21.1589   -6.0228   25.8556 H   0  0  0  0  0  0  0  0  0  0  0  0
  -22.0396   -2.8212   23.2809 H   0  0  0  0  0  0  0  0  0  0  0  0
  -22.4401  -11.9703   22.4008 H   0  0  0  0  0  0  0  0  0  0  0  0
  -21.1493  -13.0679   22.2082 H   0  0  0  0  0  0  0  0  0  0  0  0
  -24.6538  -15.7807   20.5848 H   0  0  0  0  0  0  0  0  0  0  0  0
  -26.2762  -15.5453   20.1156 H   0  0  0  0  0  0  0  0  0  0  0  0
  -26.6778  -32.4663   23.1464 H   0  0  0  0  0  0  0  0  0  0  0  0
  -25.0747  -34.0282   25.0566 H   0  0  0  0  0  0  0  0  0  0  0  0
  -22.7881  -31.3489   21.4131 H   0  0  0  0  0  0  0  0  0  0  0  0
  -23.3854  -35.9823   23.3648 H   0  0  0  0  0  0  0  0  0  0  0  0
  -24.3696  -36.8624   22.2204 H   0  0  0  0  0  0  0  0  0  0  0  0
  -23.7669  -37.6632   23.6516 H   0  0  0  0  0  0  0  0  0  0  0  0
  -25.9445  -31.6237   20.5691 H   0  0  0  0  0  0  0  0  0  0  0  0
  -26.7436  -31.0079   22.0108 H   0  0  0  0  0  0  0  0  0  0  0  0
  -28.0090  -29.1452   21.2057 H   0  0  0  0  0  0  0  0  0  0  0  0
  -26.1369  -26.0560   19.0719 H   0  0  0  0  0  0  0  0  0  0  0  0
  -24.0652  -27.2961   19.0997 H   0  0  0  0  0  0  0  0  0  0  0  0
  -23.6156  -30.5365   19.3930 H   0  0  0  0  0  0  0  0  0  0  0  0
  -22.7355  -29.1425   19.9945 H   0  0  0  0  0  0  0  0  0  0  0  0
  -25.1353  -36.2335   25.0565 H   0  0  0  0  0  0  0  0  0  0  0  0
  -21.0070  -28.3206   24.0793 H   0  0  0  0  0  0  0  0  0  0  0  0
  -20.5555  -26.2518   23.3550 H   0  0  0  0  0  0  0  0  0  0  0  0
  -21.5974  -26.8362   22.0454 H   0  0  0  0  0  0  0  0  0  0  0  0
  -19.6810  -25.6422   21.1488 H   0  0  0  0  0  0  0  0  0  0  0  0
  -19.6406  -27.3343   20.7034 H   0  0  0  0  0  0  0  0  0  0  0  0
  -17.4282  -26.6888   21.4113 H   0  0  0  0  0  0  0  0  0  0  0  0
  -18.0803  -26.0130   22.9049 H   0  0  0  0  0  0  0  0  0  0  0  0
  -19.7265  -30.6774   24.2204 H   0  0  0  0  0  0  0  0  0  0  0  0
  -17.5064  -31.5856   24.4483 H   0  0  0  0  0  0  0  0  0  0  0  0
  -15.5878  -30.2839   23.7407 H   0  0  0  0  0  0  0  0  0  0  0  0
  -15.9120  -28.0941   22.7766 H   0  0  0  0  0  0  0  0  0  0  0  0
  -24.5787  -30.7757   25.6817 H   0  0  0  0  0  0  0  0  0  0  0  0
  -25.0041  -32.2289   26.5536 H   0  0  0  0  0  0  0  0  0  0  0  0
  -25.8166  -30.7245   26.9138 H   0  0  0  0  0  0  0  0  0  0  0  0
  -26.2892  -29.7335   24.0803 H   0  0  0  0  0  0  0  0  0  0  0  0
  -27.4336  -29.7484   25.4006 H   0  0  0  0  0  0  0  0  0  0  0  0
  -27.8466  -30.4994   23.8779 H   0  0  0  0  0  0  0  0  0  0  0  0
  -27.2251  -33.3632   26.1242 H   0  0  0  0  0  0  0  0  0  0  0  0
  -28.3902  -32.6065   25.0645 H   0  0  0  0  0  0  0  0  0  0  0  0
  -27.9772  -31.8555   26.5872 H   0  0  0  0  0  0  0  0  0  0  0  0
  -28.2744  -38.0016   24.6863 H   0  0  0  0  0  0  0  0  0  0  0  0
  -28.0396  -36.2711   24.7461 H   0  0  0  0  0  0  0  0  0  0  0  0
  -27.1773  -37.3087   25.8564 H   0  0  0  0  0  0  0  0  0  0  0  0
  -20.9627  -29.9365   21.7352 H   0  0  0  0  0  0  0  0  0  0  0  0
  -26.0447  -38.2561   24.0273 H   0  0  0  0  0  0  0  0  0  0  0  0
  -29.9574  -18.9604   24.5999 H   0  0  0  0  0  0  0  0  0  0  0  0
  -32.3711  -18.9537   24.8522 H   0  0  0  0  0  0  0  0  0  0  0  0
  -32.6631  -15.9015   21.9767 H   0  0  0  0  0  0  0  0  0  0  0  0
  -28.0302  -18.1994   23.6690 H   0  0  0  0  0  0  0  0  0  0  0  0
  -28.0371  -16.5003   23.2616 H   0  0  0  0  0  0  0  0  0  0  0  0
  -28.1723  -17.7018   22.0001 H   0  0  0  0  0  0  0  0  0  0  0  0
  -37.9237  -17.8149   23.7465 H   0  0  0  0  0  0  0  0  0  0  0  0
  -37.1149  -16.2661   23.7372 H   0  0  0  0  0  0  0  0  0  0  0  0
  -36.4181  -17.6104   24.6094 H   0  0  0  0  0  0  0  0  0  0  0  0
  -36.8148  -19.5230   21.7211 H   0  0  0  0  0  0  0  0  0  0  0  0
  -35.8636  -19.3462   23.4595 H   0  0  0  0  0  0  0  0  0  0  0  0
  -34.9543  -15.9985   22.4169 H   0  0  0  0  0  0  0  0  0  0  0  0
  -34.3071  -17.3757   21.5507 H   0  0  0  0  0  0  0  0  0  0  0  0
  -36.7624  -17.4168   21.6341 H   0  0  0  0  0  0  0  0  0  0  0  0
  -29.1486  -15.8277   21.2823 H   0  0  0  0  0  0  0  0  0  0  0  0
  1 25  1  0
  1 30  2  0
  1 82  1  0
  2  3  1  0
  2 25  1  0
  2 84  1  0
  2 85  1  0
  3  4  1  0
  3 86  1  0
  3 87  1  0
  4  5  1  0
  4 88  1  0
  4 89  1  0
  5  6  1  0
  5 26  1  0
  5 90  1  6
  6 25  1  0
  6 91  1  0
  6 92  1  0
  7  8  2  0
  7 26  1  0
  7 29  1  0
  8  9  1  0
  8 22  1  0
  9 10  1  0
  9 27  2  0
 10 11  2  0
 10 15  1  0
 11 12  1  0
 11 93  1  0
 12 13  2  0
 12 94  1  0
 13 14  1  0
 13 31  1  0
 14 15  2  0
 14 95  1  0
 15 96  1  0
 16 17  2  0
 16 21  1  0
 16 31  1  0
 17 18  1  0
 17 97  1  0
 18 19  2  0
 18 98  1  0
 19 20  1  0
 19 24  1  0
 20 21  2  0
 20 99  1  0
 21 23  1  0
 22 28  1  0
 22 32  2  0
 26 27  1  0
 28100  1  0
 28101  1  0
 29102  1  0
 29103  1  0
 33 34  1  0
 33 66  1  0
 33 70  2  0
 34 36  1  0
 34 59  1  0
 34104  1  6
 35 44  2  0
 35 45  1  0
 35 68  1  0
 36 56  1  0
 36105  1  0
 37 39  1  0
 37 47  1  0
 37 66  1  0
 37106  1  6
 38 43  2  0
 38 46  1  0
 38 47  1  0
 39 64  1  0
 39 67  2  0
 40 52  1  0
 40 53  2  0
 40 58  1  0
 41107  1  0
 41108  1  0
 41109  1  0
 42 43  1  0
 42 66  1  0
 42110  1  0
 42111  1  0
 43 44  1  0
 44112  1  0
 45 46  2  0
 45113  1  0
 46114  1  0
 47115  1  0
 47116  1  0
 48 41  1  0
 48 56  1  0
 48 65  1  0
 48117  1  1
 49 50  1  0
 49 53  1  0
 49 64  1  0
 49118  1  1
 50 51  1  0
 50119  1  0
 50120  1  0
 51 52  1  0
 51121  1  0
 51122  1  0
 52123  1  0
 52124  1  0
 53 54  1  0
 54 55  2  0
 54125  1  0
 55 57  1  0
 55126  1  0
 56 69  2  0
 57 58  2  0
 57127  1  0
 58128  1  0
 59 60  1  0
 59 61  1  0
 59 62  1  0
 60129  1  0
 60130  1  0
 60131  1  0
 61132  1  0
 61133  1  0
 61134  1  0
 62135  1  0
 62136  1  0
 62137  1  0
 63 65  1  0
 63138  1  0
 63139  1  0
 63140  1  0
 64141  1  0
 65142  1  0
 68 79  1  0
 71 72  2  0
 71 74  1  0
 71143  1  0
 72 76  1  0
 72144  1  0
 73 75  1  0
 73 76  2  0
 73145  1  0
 74 75  2  0
 74 77  1  0
 75 82  1  0
 76 83  1  0
 77146  1  0
 77147  1  0
 77148  1  0
 78149  1  0
 78150  1  0
 78151  1  0
 79 81  1  0
 79152  1  0
 79153  1  0
 80 81  1  0
 80 83  1  0
 80154  1  0
 80155  1  0
 81 78  1  0
 81156  1  6
 82157  1  0
M  ISO  4   1 100  68 101  79 101  82 100
M  END
$$$$
48
     RDKit          3D

166174  0  0  0  0  0  0  0  0999 V2000
  -30.7652  -14.3608   20.6636 C   0  0  0  0  0  0  0  0  0100  0  0
  -30.4392  -12.2669   19.3775 C   0  0  0  0  0  0  0  0  0101  0  0
  -29.4791  -12.5281   18.1977 C   0  0  0  0  0  0  0  0  0102  0  0
  -27.9985  -12.3963   18.6038 C   0  0  0  0  0  0  0  0  0103  0  0
  -27.6639  -13.2170   19.8820 C   0  0  2  0  0  0  0  0  0104  0  0
  -28.6795  -12.9602   21.0279 C   0  0  0  0  0  0  0  0  0105  0  0
  -25.2633  -13.8245   20.5754 C   0  0  0  0  0  0  0  0  0106  0  0
  -24.1645  -13.0409   20.9408 C   0  0  0  0  0  0  0  0  0107  0  0
  -24.6400  -11.7009   20.8697 C   0  0  0  0  0  0  0  0  0108  0  0
  -23.9005  -10.4085   21.0420 C   0  0  0  0  0  0  0  0  0109  0  0
  -24.3588   -9.4123   21.9123 C   0  0  0  0  0  0  0  0  0110  0  0
  -23.6296   -8.2350   22.0803 C   0  0  0  0  0  0  0  0  0111  0  0
  -22.4385   -8.0419   21.3657 C   0  0  0  0  0  0  0  0  0112  0  0
  -22.0103   -9.0167   20.4678 C   0  0  0  0  0  0  0  0  0113  0  0
  -22.7317  -10.1925   20.3102 C   0  0  0  0  0  0  0  0  0114  0  0
  -21.6857   -6.0709   22.5391 C   0  0  0  0  0  0  0  0  0115  0  0
  -21.4064   -6.5490   23.8264 C   0  0  0  0  0  0  0  0  0116  0  0
  -21.3635   -5.6677   24.9085 C   0  0  0  0  0  0  0  0  0117  0  0
  -21.5973   -4.3067   24.7088 C   0  0  0  0  0  0  0  0  0118  0  0
  -21.8700   -3.8284   23.4282 C   0  0  0  0  0  0  0  0  0119  0  0
  -21.9144   -4.7056   22.3460 C   0  0  0  0  0  0  0  0  0120  0  0
  -22.8194  -13.5263   21.1763 C   0  0  0  0  0  0  0  0  0121  0  0
  -22.1559   -4.2206   21.1063 F   0  0  0  0  0  0  0  0  0122  0  0
  -21.5628   -3.4510   25.7555 F   0  0  0  0  0  0  0  0  0123  0  0
  -30.0261  -13.1803   20.4553 N   0  0  0  0  0  0  0  0  0124  0  0
  -26.2911  -12.9356   20.3443 N   0  0  0  0  0  0  0  0  0125  0  0
  -25.9236  -11.6675   20.5847 N   0  0  0  0  0  0  0  0  0126  0  0
  -22.0708  -12.7905   22.0005 N   0  0  0  0  0  0  0  0  0127  0  0
  -25.4117  -15.1773   20.4097 N   0  0  0  0  0  0  0  0  0128  0  0
  -31.7916  -14.6724   20.0536 O   0  0  0  0  0  0  0  0  0129  0  0
  -21.6670   -6.9022   21.4423 O   0  0  0  0  0  0  0  0  0130  0  0
  -22.3946  -14.5564   20.6568 O   0  0  0  0  0  0  0  0  0131  0  0
  -24.6048  -31.8614   23.2223 C   0  0  0  0  0  0  0  0  0100  0  0
  -25.8822  -32.4841   23.8616 C   0  0  1  0  0  0  0  0  0101  0  0
  -27.2536  -27.5042   20.1156 C   0  0  0  0  0  0  0  0  0102  0  0
  -25.5726  -33.8762   24.2210 N   0  0  0  0  0  0  0  0  0103  0  0
  -23.4066  -30.4859   21.5461 C   0  0  2  0  0  0  0  0  0104  0  0
  -24.8467  -28.9636   20.1247 C   0  0  0  0  0  0  0  0  0105  0  0
  -22.7412  -29.4652   22.5052 C   0  0  0  0  0  0  0  0  0106  0  0
  -18.0167  -28.1302   22.8626 C   0  0  0  0  0  0  0  0  0107  0  0
  -24.1342  -36.7390   23.2568 C   0  0  0  0  0  0  0  0  0108  0  0
  -25.9141  -30.8882   21.3456 C   0  0  0  0  0  0  0  0  0109  0  0
  -25.9930  -29.5029   20.7208 C   0  0  0  0  0  0  0  0  0110  0  0
  -27.1758  -28.7612   20.7331 C   0  0  0  0  0  0  0  0  0111  0  0
  -26.1032  -26.9836   19.5230 C   0  0  0  0  0  0  0  0  0112  0  0
  -24.9097  -27.7011   19.5331 C   0  0  0  0  0  0  0  0  0113  0  0
  -23.5715  -29.7899   20.1582 C   0  0  0  0  0  0  0  0  0114  0  0
  -25.3990  -36.3212   24.0232 C   0  0  1  0  0  0  0  0  0115  0  0
  -20.5793  -28.3813   23.1004 C   0  0  2  0  0  0  0  0  0116  0  0
  -20.6548  -26.9392   22.5411 C   0  0  0  0  0  0  0  0  0117  0  0
  -19.5615  -26.6407   21.5143 C   0  0  0  0  0  0  0  0  0118  0  0
  -18.1797  -26.7818   22.1673 C   0  0  0  0  0  0  0  0  0119  0  0
  -19.1385  -28.8769   23.2988 C   0  0  0  0  0  0  0  0  0120  0  0
  -18.9183  -30.1286   23.8878 C   0  0  0  0  0  0  0  0  0121  0  0
  -17.6396  -30.6493   24.0352 C   0  0  0  0  0  0  0  0  0122  0  0
  -25.9153  -34.9582   23.4993 C   0  0  0  0  0  0  0  0  0123  0  0
  -16.5415  -29.9068   23.6254 C   0  0  0  0  0  0  0  0  0124  0  0
  -16.7331  -28.6521   23.0586 C   0  0  0  0  0  0  0  0  0125  0  0
  -26.4583  -31.6439   25.0683 C   0  0  0  0  0  0  0  0  0126  0  0
  -25.3807  -31.3179   26.1374 C   0  0  0  0  0  0  0  0  0127  0  0
  -27.0530  -30.3024   24.5680 C   0  0  0  0  0  0  0  0  0128  0  0
  -27.6014  -32.4281   25.7651 C   0  0  0  0  0  0  0  0  0129  0  0
  -27.5629  -37.2220   24.8621 C   0  0  0  0  0  0  0  0  0130  0  0
  -21.4133  -29.3375   22.3735 N   0  0  0  0  0  0  0  0  0131  0  0
  -26.4706  -37.3372   23.9061 N   0  0  0  0  0  0  0  0  0132  0  0
  -24.6674  -31.0544   22.1178 N   0  0  0  0  0  0  0  0  0133  0  0
  -23.4259  -28.8150   23.2971 O   0  0  0  0  0  0  0  0  0134  0  0
  -28.3948  -26.7345   20.0089 O   0  0  0  0  0  0  0  0  0135  0  0
  -26.5870  -34.9065   22.4671 O   0  0  0  0  0  0  0  0  0136  0  0
  -23.5365  -32.1254   23.7833 O   0  0  0  0  0  0  0  0  0137  0  0
  -27.0184  -21.8135   15.4502 C   0  0  0  0  0  0  0  0  0  0  0  0
  -28.1138  -21.4789   17.5775 C   0  0  0  0  0  0  0  0  0  0  0  0
  -26.4036  -20.5673   15.5707 C   0  0  0  0  0  0  0  0  0  0  0  0
  -26.6438  -19.7769   16.6946 C   0  0  0  0  0  0  0  0  0  0  0  0
  -27.4989  -20.2326   17.6980 C   0  0  0  0  0  0  0  0  0  0  0  0
  -27.8736  -22.2693   16.4536 C   0  0  0  0  0  0  0  0  0  0  0  0
  -25.4920  -20.1034   14.4821 C   0  0  0  0  0  0  0  0  0  0  0  0
  -25.9798  -18.4415   16.8200 C   0  0  0  0  0  0  0  0  0  0  0  0
  -27.2625  -27.6124   16.4243 C   0  0  0  0  0  0  0  0  0  0  0  0
  -30.5919  -26.1367   19.0522 C   0  0  0  0  0  0  0  0  0  0  0  0
  -27.3627  -26.1370   16.7877 C   0  0  0  0  0  0  0  0  0  0  0  0
  -28.7670  -24.1848   17.5437 C   0  0  0  0  0  0  0  0  0  0  0  0
  -28.7618  -25.7063   17.2979 C   0  0  2  0  0  0  0  0  0  0  0  0
  -29.1970  -26.5002   18.5523 C   0  0  1  0  0  0  0  0  0  1  0  0
  -27.7541  -19.4477   18.8498 N   0  0  0  0  0  0  0  0  0  0  0  0
  -28.4779  -23.4926   16.3341 O   0  0  0  0  0  0  0  0  0  0  0  0
  -31.4485  -12.4701   19.0860 H   0  0  0  0  0  0  0  0  0  0  0  0
  -30.3970  -11.2460   19.6950 H   0  0  0  0  0  0  0  0  0  0  0  0
  -29.6870  -11.8204   17.4226 H   0  0  0  0  0  0  0  0  0  0  0  0
  -29.6375  -13.5326   17.8649 H   0  0  0  0  0  0  0  0  0  0  0  0
  -27.7830  -11.3650   18.7904 H   0  0  0  0  0  0  0  0  0  0  0  0
  -27.4028  -12.7801   17.8021 H   0  0  0  0  0  0  0  0  0  0  0  0
  -27.7353  -14.2503   19.6136 H   0  0  0  0  0  0  0  0  0  0  0  0
  -28.5890  -11.9550   21.3832 H   0  0  0  0  0  0  0  0  0  0  0  0
  -28.5005  -13.6134   21.8562 H   0  0  0  0  0  0  0  0  0  0  0  0
  -25.2399   -9.5495   22.4318 H   0  0  0  0  0  0  0  0  0  0  0  0
  -23.9663   -7.5070   22.7297 H   0  0  0  0  0  0  0  0  0  0  0  0
  -21.1515   -8.8641   19.9162 H   0  0  0  0  0  0  0  0  0  0  0  0
  -22.4016  -10.9115   19.6476 H   0  0  0  0  0  0  0  0  0  0  0  0
  -21.2319   -7.5552   23.9750 H   0  0  0  0  0  0  0  0  0  0  0  0
  -21.1589   -6.0228   25.8556 H   0  0  0  0  0  0  0  0  0  0  0  0
  -22.0396   -2.8212   23.2809 H   0  0  0  0  0  0  0  0  0  0  0  0
  -22.4401  -11.9703   22.4008 H   0  0  0  0  0  0  0  0  0  0  0  0
  -21.1493  -13.0679   22.2082 H   0  0  0  0  0  0  0  0  0  0  0  0
  -24.6538  -15.7807   20.5848 H   0  0  0  0  0  0  0  0  0  0  0  0
  -26.2762  -15.5453   20.1156 H   0  0  0  0  0  0  0  0  0  0  0  0
  -26.6778  -32.4663   23.1464 H   0  0  0  0  0  0  0  0  0  0  0  0
  -25.0747  -34.0282   25.0566 H   0  0  0  0  0  0  0  0  0  0  0  0
  -22.7881  -31.3489   21.4131 H   0  0  0  0  0  0  0  0  0  0  0  0
  -23.3854  -35.9823   23.3648 H   0  0  0  0  0  0  0  0  0  0  0  0
  -24.3696  -36.8624   22.2204 H   0  0  0  0  0  0  0  0  0  0  0  0
  -23.7669  -37.6632   23.6516 H   0  0  0  0  0  0  0  0  0  0  0  0
  -25.9445  -31.6237   20.5691 H   0  0  0  0  0  0  0  0  0  0  0  0
  -26.7436  -31.0079   22.0108 H   0  0  0  0  0  0  0  0  0  0  0  0
  -28.0090  -29.1452   21.2057 H   0  0  0  0  0  0  0  0  0  0  0  0
  -26.1369  -26.0560   19.0719 H   0  0  0  0  0  0  0  0  0  0  0  0
  -24.0652  -27.2961   19.0997 H   0  0  0  0  0  0  0  0  0  0  0  0
  -23.6156  -30.5365   19.3930 H   0  0  0  0  0  0  0  0  0  0  0  0
  -22.7355  -29.1425   19.9945 H   0  0  0  0  0  0  0  0  0  0  0  0
  -25.1353  -36.2335   25.0565 H   0  0  0  0  0  0  0  0  0  0  0  0
  -21.0070  -28.3206   24.0793 H   0  0  0  0  0  0  0  0  0  0  0  0
  -20.5555  -26.2518   23.3550 H   0  0  0  0  0  0  0  0  0  0  0  0
  -21.5974  -26.8362   22.0454 H   0  0  0  0  0  0  0  0  0  0  0  0
  -19.6810  -25.6422   21.1488 H   0  0  0  0  0  0  0  0  0  0  0  0
  -19.6406  -27.3343   20.7034 H   0  0  0  0  0  0  0  0  0  0  0  0
  -17.4282  -26.6888   21.4113 H   0  0  0  0  0  0  0  0  0  0  0  0
  -18.0803  -26.0130   22.9049 H   0  0  0  0  0  0  0  0  0  0  0  0
  -19.7265  -30.6774   24.2204 H   0  0  0  0  0  0  0  0  0  0  0  0
  -17.5064  -31.5856   24.4483 H   0  0  0  0  0  0  0  0  0  0  0  0
  -15.5878  -30.2839   23.7407 H   0  0  0  0  0  0  0  0  0  0  0  0
  -15.9120  -28.0941   22.7766 H   0  0  0  0  0  0  0  0  0  0  0  0
  -24.5787  -30.7757   25.6817 H   0  0  0  0  0  0  0  0  0  0  0  0
  -25.0041  -32.2289   26.5536 H   0  0  0  0  0  0  0  0  0  0  0  0
  -25.8166  -30.7245   26.9138 H   0  0  0  0  0  0  0  0  0  0  0  0
  -26.2892  -29.7335   24.0803 H   0  0  0  0  0  0  0  0  0  0  0  0
  -27.4336  -29.7484   25.4006 H   0  0  0  0  0  0  0  0  0  0  0  0
  -27.8466  -30.4994   23.8779 H   0  0  0  0  0  0  0  0  0  0  0  0
  -27.2251  -33.3632   26.1242 H   0  0  0  0  0  0  0  0  0  0  0  0
  -28.3902  -32.6065   25.0645 H   0  0  0  0  0  0  0  0  0  0  0  0
  -27.9772  -31.8555   26.5872 H   0  0  0  0  0  0  0  0  0  0  0  0
  -28.2744  -38.0016   24.6863 H   0  0  0  0  0  0  0  0  0  0  0  0
  -28.0396  -36.2711   24.7461 H   0  0  0  0  0  0  0  0  0  0  0  0
  -27.1773  -37.3087   25.8564 H   0  0  0  0  0  0  0  0  0  0  0  0
  -20.9627  -29.9365   21.7352 H   0  0  0  0  0  0  0  0  0  0  0  0
  -26.0447  -38.2561   24.0273 H   0  0  0  0  0  0  0  0  0  0  0  0
  -26.8406  -22.3983   14.6187 H   0  0  0  0  0  0  0  0  0  0  0  0
  -28.7464  -21.8161   18.3199 H   0  0  0  0  0  0  0  0  0  0  0  0
  -25.4427  -20.8490   13.7163 H   0  0  0  0  0  0  0  0  0  0  0  0
  -24.5136  -19.9381   14.8825 H   0  0  0  0  0  0  0  0  0  0  0  0
  -25.8667  -19.1908   14.0678 H   0  0  0  0  0  0  0  0  0  0  0  0
  -25.3665  -18.2660   15.9609 H   0  0  0  0  0  0  0  0  0  0  0  0
  -25.3725  -18.4265   17.7008 H   0  0  0  0  0  0  0  0  0  0  0  0
  -26.7256  -17.6773   16.8879 H   0  0  0  0  0  0  0  0  0  0  0  0
  -26.2718  -27.8292   16.0830 H   0  0  0  0  0  0  0  0  0  0  0  0
  -27.9642  -27.8371   15.6484 H   0  0  0  0  0  0  0  0  0  0  0  0
  -27.4811  -28.2077   17.2862 H   0  0  0  0  0  0  0  0  0  0  0  0
  -31.2340  -25.9539   18.2160 H   0  0  0  0  0  0  0  0  0  0  0  0
  -30.5356  -25.2564   19.6578 H   0  0  0  0  0  0  0  0  0  0  0  0
  -30.9844  -26.9449   19.6333 H   0  0  0  0  0  0  0  0  0  0  0  0
  -27.1296  -25.5597   15.9175 H   0  0  0  0  0  0  0  0  0  0  0  0
  -26.6755  -25.9688   17.5904 H   0  0  0  0  0  0  0  0  0  0  0  0
  -28.0256  -23.9422   18.2761 H   0  0  0  0  0  0  0  0  0  0  0  0
  -29.7344  -23.8900   17.8931 H   0  0  0  0  0  0  0  0  0  0  0  0
  -29.4868  -25.9365   16.5454 H   0  0  0  0  0  0  0  0  0  0  0  0
  -28.9722  -27.3862   17.9961 H   0  0  0  0  0  0  0  0  0  0  0  0
  -27.2967  -19.8483   19.6241 H   0  0  0  0  0  0  0  0  0  0  0  0
  1 25  1  0
  1 30  2  0
  1 85  1  0
  2  3  1  0
  2 25  1  0
  2 87  1  0
  2 88  1  0
  3  4  1  0
  3 89  1  0
  3 90  1  0
  4  5  1  0
  4 91  1  0
  4 92  1  0
  5  6  1  0
  5 26  1  0
  5 93  1  6
  6 25  1  0
  6 94  1  0
  6 95  1  0
  7  8  2  0
  7 26  1  0
  7 29  1  0
  8  9  1  0
  8 22  1  0
  9 10  1  0
  9 27  2  0
 10 11  2  0
 10 15  1  0
 11 12  1  0
 11 96  1  0
 12 13  2  0
 12 97  1  0
 13 14  1  0
 13 31  1  0
 14 15  2  0
 14 98  1  0
 15 99  1  0
 16 17  2  0
 16 21  1  0
 16 31  1  0
 17 18  1  0
 17100  1  0
 18 19  2  0
 18101  1  0
 19 20  1  0
 19 24  1  0
 20 21  2  0
 20102  1  0
 21 23  1  0
 22 28  1  0
 22 32  2  0
 26 27  1  0
 28103  1  0
 28104  1  0
 29105  1  0
 29106  1  0
 33 34  1  0
 33 66  1  0
 33 70  2  0
 34 36  1  0
 34 59  1  0
 34107  1  6
 35 44  2  0
 35 45  1  0
 35 68  1  0
 36 56  1  0
 36108  1  0
 37 39  1  0
 37 47  1  0
 37 66  1  0
 37109  1  6
 38 43  2  0
 38 46  1  0
 38 47  1  0
 39 64  1  0
 39 67  2  0
 40 52  1  0
 40 53  2  0
 40 58  1  0
 41110  1  0
 41111  1  0
 41112  1  0
 42 43  1  0
 42 66  1  0
 42113  1  0
 42114  1  0
 43 44  1  0
 44115  1  0
 45 46  2  0
 45116  1  0
 46117  1  0
 47118  1  0
 47119  1  0
 48 41  1  0
 48 56  1  0
 48 65  1  0
 48120  1  1
 49 50  1  0
 49 53  1  0
 49 64  1  0
 49121  1  1
 50 51  1  0
 50122  1  0
 50123  1  0
 51 52  1  0
 51124  1  0
 51125  1  0
 52126  1  0
 52127  1  0
 53 54  1  0
 54 55  2  0
 54128  1  0
 55 57  1  0
 55129  1  0
 56 69  2  0
 57 58  2  0
 57130  1  0
 58131  1  0
 59 60  1  0
 59 61  1  0
 59 62  1  0
 60132  1  0
 60133  1  0
 60134  1  0
 61135  1  0
 61136  1  0
 61137  1  0
 62138  1  0
 62139  1  0
 62140  1  0
 63 65  1  0
 63141  1  0
 63142  1  0
 63143  1  0
 64144  1  0
 65145  1  0
 68 84  1  0
 71 73  2  0
 71 76  1  0
 71146  1  0
 72 75  1  0
 72 76  2  0
 72147  1  0
 73 74  1  0
 73 77  1  0
 74 75  2  0
 74 78  1  0
 75 85  1  0
 76 86  1  0
 77148  1  0
 77149  1  0
 77150  1  0
 78151  1  0
 78152  1  0
 78153  1  0
 79 81  1  0
 79154  1  0
 79155  1  0
 79156  1  0
 80157  1  0
 80158  1  0
 80159  1  0
 81160  1  0
 81161  1  0
 82 83  1  0
 82 86  1  0
 82162  1  0
 82163  1  0
 83 81  1  0
 83 84  1  0
 83164  1  6
 84 80  1  0
 84165  1  6
 85166  1  0
M  ISO  4   1 100  68 101  84 101  85 100
M  END
$$$$
49
     RDKit          3D

162170  0  0  0  0  0  0  0  0999 V2000
  -30.7652  -14.3608   20.6636 C   0  0  0  0  0  0  0  0  0100  0  0
  -30.4392  -12.2669   19.3775 C   0  0  0  0  0  0  0  0  0101  0  0
  -29.4791  -12.5281   18.1977 C   0  0  0  0  0  0  0  0  0102  0  0
  -27.9985  -12.3963   18.6038 C   0  0  0  0  0  0  0  0  0103  0  0
  -27.6639  -13.2170   19.8820 C   0  0  2  0  0  0  0  0  0104  0  0
  -28.6795  -12.9602   21.0279 C   0  0  0  0  0  0  0  0  0105  0  0
  -25.2633  -13.8245   20.5754 C   0  0  0  0  0  0  0  0  0106  0  0
  -24.1645  -13.0409   20.9408 C   0  0  0  0  0  0  0  0  0107  0  0
  -24.6400  -11.7009   20.8697 C   0  0  0  0  0  0  0  0  0108  0  0
  -23.9005  -10.4085   21.0420 C   0  0  0  0  0  0  0  0  0109  0  0
  -24.3588   -9.4123   21.9123 C   0  0  0  0  0  0  0  0  0110  0  0
  -23.6296   -8.2350   22.0803 C   0  0  0  0  0  0  0  0  0111  0  0
  -22.4385   -8.0419   21.3657 C   0  0  0  0  0  0  0  0  0112  0  0
  -22.0103   -9.0167   20.4678 C   0  0  0  0  0  0  0  0  0113  0  0
  -22.7317  -10.1925   20.3102 C   0  0  0  0  0  0  0  0  0114  0  0
  -21.6857   -6.0709   22.5391 C   0  0  0  0  0  0  0  0  0115  0  0
  -21.4064   -6.5490   23.8264 C   0  0  0  0  0  0  0  0  0116  0  0
  -21.3635   -5.6677   24.9085 C   0  0  0  0  0  0  0  0  0117  0  0
  -21.5973   -4.3067   24.7088 C   0  0  0  0  0  0  0  0  0118  0  0
  -21.8700   -3.8284   23.4282 C   0  0  0  0  0  0  0  0  0119  0  0
  -21.9144   -4.7056   22.3460 C   0  0  0  0  0  0  0  0  0120  0  0
  -22.8194  -13.5263   21.1763 C   0  0  0  0  0  0  0  0  0121  0  0
  -22.1559   -4.2206   21.1063 F   0  0  0  0  0  0  0  0  0122  0  0
  -21.5628   -3.4510   25.7555 F   0  0  0  0  0  0  0  0  0123  0  0
  -30.0261  -13.1803   20.4553 N   0  0  0  0  0  0  0  0  0124  0  0
  -26.2911  -12.9356   20.3443 N   0  0  0  0  0  0  0  0  0125  0  0
  -25.9236  -11.6675   20.5847 N   0  0  0  0  0  0  0  0  0126  0  0
  -22.0708  -12.7905   22.0005 N   0  0  0  0  0  0  0  0  0127  0  0
  -25.4117  -15.1773   20.4097 N   0  0  0  0  0  0  0  0  0128  0  0
  -31.7916  -14.6724   20.0536 O   0  0  0  0  0  0  0  0  0129  0  0
  -21.6670   -6.9022   21.4423 O   0  0  0  0  0  0  0  0  0130  0  0
  -22.3946  -14.5564   20.6568 O   0  0  0  0  0  0  0  0  0131  0  0
  -24.6048  -31.8614   23.2223 C   0  0  0  0  0  0  0  0  0100  0  0
  -25.8822  -32.4841   23.8616 C   0  0  1  0  0  0  0  0  0101  0  0
  -27.2536  -27.5042   20.1156 C   0  0  0  0  0  0  0  0  0102  0  0
  -25.5726  -33.8762   24.2210 N   0  0  0  0  0  0  0  0  0103  0  0
  -23.4066  -30.4859   21.5461 C   0  0  2  0  0  0  0  0  0104  0  0
  -24.8467  -28.9636   20.1247 C   0  0  0  0  0  0  0  0  0105  0  0
  -22.7412  -29.4652   22.5052 C   0  0  0  0  0  0  0  0  0106  0  0
  -18.0167  -28.1302   22.8626 C   0  0  0  0  0  0  0  0  0107  0  0
  -24.1342  -36.7390   23.2568 C   0  0  0  0  0  0  0  0  0108  0  0
  -25.9141  -30.8882   21.3456 C   0  0  0  0  0  0  0  0  0109  0  0
  -25.9930  -29.5029   20.7208 C   0  0  0  0  0  0  0  0  0110  0  0
  -27.1758  -28.7612   20.7331 C   0  0  0  0  0  0  0  0  0111  0  0
  -26.1032  -26.9836   19.5230 C   0  0  0  0  0  0  0  0  0112  0  0
  -24.9097  -27.7011   19.5331 C   0  0  0  0  0  0  0  0  0113  0  0
  -23.5715  -29.7899   20.1582 C   0  0  0  0  0  0  0  0  0114  0  0
  -25.3990  -36.3212   24.0232 C   0  0  1  0  0  0  0  0  0115  0  0
  -20.5793  -28.3813   23.1004 C   0  0  2  0  0  0  0  0  0116  0  0
  -20.6548  -26.9392   22.5411 C   0  0  0  0  0  0  0  0  0117  0  0
  -19.5615  -26.6407   21.5143 C   0  0  0  0  0  0  0  0  0118  0  0
  -18.1797  -26.7818   22.1673 C   0  0  0  0  0  0  0  0  0119  0  0
  -19.1385  -28.8769   23.2988 C   0  0  0  0  0  0  0  0  0120  0  0
  -18.9183  -30.1286   23.8878 C   0  0  0  0  0  0  0  0  0121  0  0
  -17.6396  -30.6493   24.0352 C   0  0  0  0  0  0  0  0  0122  0  0
  -25.9153  -34.9582   23.4993 C   0  0  0  0  0  0  0  0  0123  0  0
  -16.5415  -29.9068   23.6254 C   0  0  0  0  0  0  0  0  0124  0  0
  -16.7331  -28.6521   23.0586 C   0  0  0  0  0  0  0  0  0125  0  0
  -26.4583  -31.6439   25.0683 C   0  0  0  0  0  0  0  0  0126  0  0
  -25.3807  -31.3179   26.1374 C   0  0  0  0  0  0  0  0  0127  0  0
  -27.0530  -30.3024   24.5680 C   0  0  0  0  0  0  0  0  0128  0  0
  -27.6014  -32.4281   25.7651 C   0  0  0  0  0  0  0  0  0129  0  0
  -27.5629  -37.2220   24.8621 C   0  0  0  0  0  0  0  0  0130  0  0
  -21.4133  -29.3375   22.3735 N   0  0  0  0  0  0  0  0  0131  0  0
  -26.4706  -37.3372   23.9061 N   0  0  0  0  0  0  0  0  0132  0  0
  -24.6674  -31.0544   22.1178 N   0  0  0  0  0  0  0  0  0133  0  0
  -23.4259  -28.8150   23.2971 O   0  0  0  0  0  0  0  0  0134  0  0
  -28.3948  -26.7345   20.0089 O   0  0  0  0  0  0  0  0  0135  0  0
  -26.5870  -34.9065   22.4671 O   0  0  0  0  0  0  0  0  0136  0  0
  -23.5365  -32.1254   23.7833 O   0  0  0  0  0  0  0  0  0137  0  0
  -26.8385  -29.7722   20.4446 C   0  0  0  0  0  0  0  0  0  0  0  0
  -27.7000  -29.3613   19.4275 C   0  0  0  0  0  0  0  0  0  0  0  0
  -26.2640  -28.8283   21.2959 C   0  0  0  0  0  0  0  0  0  0  0  0
  -27.4124  -27.0624   20.1127 C   0  0  0  0  0  0  0  0  0  0  0  0
  -27.9869  -28.0064   19.2615 C   0  0  0  0  0  0  0  0  0  0  0  0
  -26.5509  -27.4734   21.1299 C   0  0  0  0  0  0  0  0  0  0  0  0
  -29.5621  -22.9628   19.8625 C   0  0  0  0  0  0  0  0  0  0  0  0
  -32.1794  -26.4085   19.9858 C   0  0  0  0  0  0  0  0  0  0  0  0
  -28.9183  -27.5627   18.1617 C   0  0  0  0  0  0  0  0  0  0  0  0
  -29.9409  -21.7833   20.7345 C   0  0  0  0  0  0  0  0  0  1  0  0
  -30.0315  -24.3195   20.3464 C   0  0  0  0  0  0  0  0  0  0  0  0
  -30.3933  -27.5046   18.5851 C   0  0  0  0  0  0  0  0  0  0  0  0
  -30.6875  -26.4770   19.6849 C   0  0  1  0  0  0  0  0  0  0  0  0
  -25.9677  -26.5148   21.9952 N   0  0  0  0  0  0  0  0  0  0  0  0
  -28.9133  -22.8273   18.8263 O   0  0  0  0  0  0  0  0  0  0  0  0
  -30.2450  -25.1922   19.2571 O   0  0  0  0  0  0  0  0  0  0  0  0
  -31.4485  -12.4701   19.0860 H   0  0  0  0  0  0  0  0  0  0  0  0
  -30.3970  -11.2460   19.6950 H   0  0  0  0  0  0  0  0  0  0  0  0
  -29.6870  -11.8204   17.4226 H   0  0  0  0  0  0  0  0  0  0  0  0
  -29.6375  -13.5326   17.8649 H   0  0  0  0  0  0  0  0  0  0  0  0
  -27.7830  -11.3650   18.7904 H   0  0  0  0  0  0  0  0  0  0  0  0
  -27.4028  -12.7801   17.8021 H   0  0  0  0  0  0  0  0  0  0  0  0
  -27.7353  -14.2503   19.6136 H   0  0  0  0  0  0  0  0  0  0  0  0
  -28.5890  -11.9550   21.3832 H   0  0  0  0  0  0  0  0  0  0  0  0
  -28.5005  -13.6134   21.8562 H   0  0  0  0  0  0  0  0  0  0  0  0
  -25.2399   -9.5495   22.4318 H   0  0  0  0  0  0  0  0  0  0  0  0
  -23.9663   -7.5070   22.7297 H   0  0  0  0  0  0  0  0  0  0  0  0
  -21.1515   -8.8641   19.9162 H   0  0  0  0  0  0  0  0  0  0  0  0
  -22.4016  -10.9115   19.6476 H   0  0  0  0  0  0  0  0  0  0  0  0
  -21.2319   -7.5552   23.9750 H   0  0  0  0  0  0  0  0  0  0  0  0
  -21.1589   -6.0228   25.8556 H   0  0  0  0  0  0  0  0  0  0  0  0
  -22.0396   -2.8212   23.2809 H   0  0  0  0  0  0  0  0  0  0  0  0
  -22.4401  -11.9703   22.4008 H   0  0  0  0  0  0  0  0  0  0  0  0
  -21.1493  -13.0679   22.2082 H   0  0  0  0  0  0  0  0  0  0  0  0
  -24.6538  -15.7807   20.5848 H   0  0  0  0  0  0  0  0  0  0  0  0
  -26.2762  -15.5453   20.1156 H   0  0  0  0  0  0  0  0  0  0  0  0
  -26.6778  -32.4663   23.1464 H   0  0  0  0  0  0  0  0  0  0  0  0
  -25.0747  -34.0282   25.0566 H   0  0  0  0  0  0  0  0  0  0  0  0
  -22.7881  -31.3489   21.4131 H   0  0  0  0  0  0  0  0  0  0  0  0
  -23.3854  -35.9823   23.3648 H   0  0  0  0  0  0  0  0  0  0  0  0
  -24.3696  -36.8624   22.2204 H   0  0  0  0  0  0  0  0  0  0  0  0
  -23.7669  -37.6632   23.6516 H   0  0  0  0  0  0  0  0  0  0  0  0
  -25.9445  -31.6237   20.5691 H   0  0  0  0  0  0  0  0  0  0  0  0
  -26.7436  -31.0079   22.0108 H   0  0  0  0  0  0  0  0  0  0  0  0
  -28.0090  -29.1452   21.2057 H   0  0  0  0  0  0  0  0  0  0  0  0
  -26.1369  -26.0560   19.0719 H   0  0  0  0  0  0  0  0  0  0  0  0
  -24.0652  -27.2961   19.0997 H   0  0  0  0  0  0  0  0  0  0  0  0
  -23.6156  -30.5365   19.3930 H   0  0  0  0  0  0  0  0  0  0  0  0
  -22.7355  -29.1425   19.9945 H   0  0  0  0  0  0  0  0  0  0  0  0
  -25.1353  -36.2335   25.0565 H   0  0  0  0  0  0  0  0  0  0  0  0
  -21.0070  -28.3206   24.0793 H   0  0  0  0  0  0  0  0  0  0  0  0
  -20.5555  -26.2518   23.3550 H   0  0  0  0  0  0  0  0  0  0  0  0
  -21.5974  -26.8362   22.0454 H   0  0  0  0  0  0  0  0  0  0  0  0
  -19.6810  -25.6422   21.1488 H   0  0  0  0  0  0  0  0  0  0  0  0
  -19.6406  -27.3343   20.7034 H   0  0  0  0  0  0  0  0  0  0  0  0
  -17.4282  -26.6888   21.4113 H   0  0  0  0  0  0  0  0  0  0  0  0
  -18.0803  -26.0130   22.9049 H   0  0  0  0  0  0  0  0  0  0  0  0
  -19.7265  -30.6774   24.2204 H   0  0  0  0  0  0  0  0  0  0  0  0
  -17.5064  -31.5856   24.4483 H   0  0  0  0  0  0  0  0  0  0  0  0
  -15.5878  -30.2839   23.7407 H   0  0  0  0  0  0  0  0  0  0  0  0
  -15.9120  -28.0941   22.7766 H   0  0  0  0  0  0  0  0  0  0  0  0
  -24.5787  -30.7757   25.6817 H   0  0  0  0  0  0  0  0  0  0  0  0
  -25.0041  -32.2289   26.5536 H   0  0  0  0  0  0  0  0  0  0  0  0
  -25.8166  -30.7245   26.9138 H   0  0  0  0  0  0  0  0  0  0  0  0
  -26.2892  -29.7335   24.0803 H   0  0  0  0  0  0  0  0  0  0  0  0
  -27.4336  -29.7484   25.4006 H   0  0  0  0  0  0  0  0  0  0  0  0
  -27.8466  -30.4994   23.8779 H   0  0  0  0  0  0  0  0  0  0  0  0
  -27.2251  -33.3632   26.1242 H   0  0  0  0  0  0  0  0  0  0  0  0
  -28.3902  -32.6065   25.0645 H   0  0  0  0  0  0  0  0  0  0  0  0
  -27.9772  -31.8555   26.5872 H   0  0  0  0  0  0  0  0  0  0  0  0
  -28.2744  -38.0016   24.6863 H   0  0  0  0  0  0  0  0  0  0  0  0
  -28.0396  -36.2711   24.7461 H   0  0  0  0  0  0  0  0  0  0  0  0
  -27.1773  -37.3087   25.8564 H   0  0  0  0  0  0  0  0  0  0  0  0
  -20.9627  -29.9365   21.7352 H   0  0  0  0  0  0  0  0  0  0  0  0
  -26.0447  -38.2561   24.0273 H   0  0  0  0  0  0  0  0  0  0  0  0
  -26.6261  -30.7746   20.5673 H   0  0  0  0  0  0  0  0  0  0  0  0
  -28.1251  -30.0597   18.7978 H   0  0  0  0  0  0  0  0  0  0  0  0
  -25.6267  -29.1324   22.0485 H   0  0  0  0  0  0  0  0  0  0  0  0
  -27.6247  -26.0600   19.9899 H   0  0  0  0  0  0  0  0  0  0  0  0
  -32.5227  -27.3692   20.3083 H   0  0  0  0  0  0  0  0  0  0  0  0
  -32.7086  -26.1189   19.1020 H   0  0  0  0  0  0  0  0  0  0  0  0
  -32.3548  -25.6892   20.7583 H   0  0  0  0  0  0  0  0  0  0  0  0
  -28.8282  -28.2491   17.3458 H   0  0  0  0  0  0  0  0  0  0  0  0
  -28.6316  -26.5675   17.8929 H   0  0  0  0  0  0  0  0  0  0  0  0
  -30.9485  -21.4942   20.9489 H   0  0  0  0  0  0  0  0  0  0  0  0
  -29.6744  -20.8062   21.0798 H   0  0  0  0  0  0  0  0  0  0  0  0
  -30.9475  -24.2019   20.8868 H   0  0  0  0  0  0  0  0  0  0  0  0
  -29.2775  -24.7383   20.9797 H   0  0  0  0  0  0  0  0  0  0  0  0
  -30.6787  -28.4716   18.9433 H   0  0  0  0  0  0  0  0  0  0  0  0
  -30.9508  -27.2030   17.7230 H   0  0  0  0  0  0  0  0  0  0  0  0
  -30.1711  -26.7767   20.5728 H   0  0  0  0  0  0  0  0  0  0  0  0
  -25.2614  -26.7411   22.6426 H   0  0  0  0  0  0  0  0  0  0  0  0
  1 25  1  0
  1 30  2  0
  1 84  1  0
  2  3  1  0
  2 25  1  0
  2 87  1  0
  2 88  1  0
  3  4  1  0
  3 89  1  0
  3 90  1  0
  4  5  1  0
  4 91  1  0
  4 92  1  0
  5  6  1  0
  5 26  1  0
  5 93  1  6
  6 25  1  0
  6 94  1  0
  6 95  1  0
  7  8  2  0
  7 26  1  0
  7 29  1  0
  8  9  1  0
  8 22  1  0
  9 10  1  0
  9 27  2  0
 10 11  2  0
 10 15  1  0
 11 12  1  0
 11 96  1  0
 12 13  2  0
 12 97  1  0
 13 14  1  0
 13 31  1  0
 14 15  2  0
 14 98  1  0
 15 99  1  0
 16 17  2  0
 16 21  1  0
 16 31  1  0
 17 18  1  0
 17100  1  0
 18 19  2  0
 18101  1  0
 19 20  1  0
 19 24  1  0
 20 21  2  0
 20102  1  0
 21 23  1  0
 22 28  1  0
 22 32  2  0
 26 27  1  0
 28103  1  0
 28104  1  0
 29105  1  0
 29106  1  0
 33 34  1  0
 33 66  1  0
 33 70  2  0
 34 36  1  0
 34 59  1  0
 34107  1  6
 35 44  2  0
 35 45  1  0
 35 68  1  0
 36 56  1  0
 36108  1  0
 37 39  1  0
 37 47  1  0
 37 66  1  0
 37109  1  6
 38 43  2  0
 38 46  1  0
 38 47  1  0
 39 64  1  0
 39 67  2  0
 40 52  1  0
 40 53  2  0
 40 58  1  0
 41110  1  0
 41111  1  0
 41112  1  0
 42 43  1  0
 42 66  1  0
 42113  1  0
 42114  1  0
 43 44  1  0
 44115  1  0
 45 46  2  0
 45116  1  0
 46117  1  0
 47118  1  0
 47119  1  0
 48 41  1  0
 48 56  1  0
 48 65  1  0
 48120  1  1
 49 50  1  0
 49 53  1  0
 49 64  1  0
 49121  1  1
 50 51  1  0
 50122  1  0
 50123  1  0
 51 52  1  0
 51124  1  0
 51125  1  0
 52126  1  0
 52127  1  0
 53 54  1  0
 54 55  2  0
 54128  1  0
 55 57  1  0
 55129  1  0
 56 69  2  0
 57 58  2  0
 57130  1  0
 58131  1  0
 59 60  1  0
 59 61  1  0
 59 62  1  0
 60132  1  0
 60133  1  0
 60134  1  0
 61135  1  0
 61136  1  0
 61137  1  0
 62138  1  0
 62139  1  0
 62140  1  0
 63 65  1  0
 63141  1  0
 63142  1  0
 63143  1  0
 64144  1  0
 65145  1  0
 68 80  1  0
 71 72  2  0
 71 73  1  0
 71146  1  0
 72 75  1  0
 72147  1  0
 73 76  2  0
 73148  1  0
 74 75  2  0
 74 76  1  0
 74149  1  0
 75 79  1  0
 76 84  1  0
 77 80  1  0
 77 81  1  0
 77 85  2  0
 78150  1  0
 78151  1  0
 78152  1  0
 79 82  1  0
 79153  1  0
 79154  1  0
 80155  1  0
 80156  1  0
 81 86  1  0
 81157  1  0
 81158  1  0
 82 83  1  0
 82159  1  0
 82160  1  0
 83 78  1  0
 83 86  1  0
 83161  1  1
 84162  1  0
M  ISO  4   1 100  68 101  80 101  84 100
M  END
$$$$
50
     RDKit          3D

172180  0  0  0  0  0  0  0  0999 V2000
  -30.7652  -14.3608   20.6636 C   0  0  0  0  0  0  0  0  0100  0  0
  -30.4392  -12.2669   19.3775 C   0  0  0  0  0  0  0  0  0101  0  0
  -29.4791  -12.5281   18.1977 C   0  0  0  0  0  0  0  0  0102  0  0
  -27.9985  -12.3963   18.6038 C   0  0  0  0  0  0  0  0  0103  0  0
  -27.6639  -13.2170   19.8820 C   0  0  2  0  0  0  0  0  0104  0  0
  -28.6795  -12.9602   21.0279 C   0  0  0  0  0  0  0  0  0105  0  0
  -25.2633  -13.8245   20.5754 C   0  0  0  0  0  0  0  0  0106  0  0
  -24.1645  -13.0409   20.9408 C   0  0  0  0  0  0  0  0  0107  0  0
  -24.6400  -11.7009   20.8697 C   0  0  0  0  0  0  0  0  0108  0  0
  -23.9005  -10.4085   21.0420 C   0  0  0  0  0  0  0  0  0109  0  0
  -24.3588   -9.4123   21.9123 C   0  0  0  0  0  0  0  0  0110  0  0
  -23.6296   -8.2350   22.0803 C   0  0  0  0  0  0  0  0  0111  0  0
  -22.4385   -8.0419   21.3657 C   0  0  0  0  0  0  0  0  0112  0  0
  -22.0103   -9.0167   20.4678 C   0  0  0  0  0  0  0  0  0113  0  0
  -22.7317  -10.1925   20.3102 C   0  0  0  0  0  0  0  0  0114  0  0
  -21.6857   -6.0709   22.5391 C   0  0  0  0  0  0  0  0  0115  0  0
  -21.4064   -6.5490   23.8264 C   0  0  0  0  0  0  0  0  0116  0  0
  -21.3635   -5.6677   24.9085 C   0  0  0  0  0  0  0  0  0117  0  0
  -21.5973   -4.3067   24.7088 C   0  0  0  0  0  0  0  0  0118  0  0
  -21.8700   -3.8284   23.4282 C   0  0  0  0  0  0  0  0  0119  0  0
  -21.9144   -4.7056   22.3460 C   0  0  0  0  0  0  0  0  0120  0  0
  -22.8194  -13.5263   21.1763 C   0  0  0  0  0  0  0  0  0121  0  0
  -22.1559   -4.2206   21.1063 F   0  0  0  0  0  0  0  0  0122  0  0
  -21.5628   -3.4510   25.7555 F   0  0  0  0  0  0  0  0  0123  0  0
  -30.0261  -13.1803   20.4553 N   0  0  0  0  0  0  0  0  0124  0  0
  -26.2911  -12.9356   20.3443 N   0  0  0  0  0  0  0  0  0125  0  0
  -25.9236  -11.6675   20.5847 N   0  0  0  0  0  0  0  0  0126  0  0
  -22.0708  -12.7905   22.0005 N   0  0  0  0  0  0  0  0  0127  0  0
  -25.4117  -15.1773   20.4097 N   0  0  0  0  0  0  0  0  0128  0  0
  -31.7916  -14.6724   20.0536 O   0  0  0  0  0  0  0  0  0129  0  0
  -21.6670   -6.9022   21.4423 O   0  0  0  0  0  0  0  0  0130  0  0
  -22.3946  -14.5564   20.6568 O   0  0  0  0  0  0  0  0  0131  0  0
  -24.6048  -31.8614   23.2223 C   0  0  0  0  0  0  0  0  0100  0  0
  -25.8822  -32.4841   23.8616 C   0  0  1  0  0  0  0  0  0101  0  0
  -27.2536  -27.5042   20.1156 C   0  0  0  0  0  0  0  0  0102  0  0
  -25.5726  -33.8762   24.2210 N   0  0  0  0  0  0  0  0  0103  0  0
  -23.4066  -30.4859   21.5461 C   0  0  2  0  0  0  0  0  0104  0  0
  -24.8467  -28.9636   20.1247 C   0  0  0  0  0  0  0  0  0105  0  0
  -22.7412  -29.4652   22.5052 C   0  0  0  0  0  0  0  0  0106  0  0
  -18.0167  -28.1302   22.8626 C   0  0  0  0  0  0  0  0  0107  0  0
  -24.1342  -36.7390   23.2568 C   0  0  0  0  0  0  0  0  0108  0  0
  -25.9141  -30.8882   21.3456 C   0  0  0  0  0  0  0  0  0109  0  0
  -25.9930  -29.5029   20.7208 C   0  0  0  0  0  0  0  0  0110  0  0
  -27.1758  -28.7612   20.7331 C   0  0  0  0  0  0  0  0  0111  0  0
  -26.1032  -26.9836   19.5230 C   0  0  0  0  0  0  0  0  0112  0  0
  -24.9097  -27.7011   19.5331 C   0  0  0  0  0  0  0  0  0113  0  0
  -23.5715  -29.7899   20.1582 C   0  0  0  0  0  0  0  0  0114  0  0
  -25.3990  -36.3212   24.0232 C   0  0  1  0  0  0  0  0  0115  0  0
  -20.5793  -28.3813   23.1004 C   0  0  2  0  0  0  0  0  0116  0  0
  -20.6548  -26.9392   22.5411 C   0  0  0  0  0  0  0  0  0117  0  0
  -19.5615  -26.6407   21.5143 C   0  0  0  0  0  0  0  0  0118  0  0
  -18.1797  -26.7818   22.1673 C   0  0  0  0  0  0  0  0  0119  0  0
  -19.1385  -28.8769   23.2988 C   0  0  0  0  0  0  0  0  0120  0  0
  -18.9183  -30.1286   23.8878 C   0  0  0  0  0  0  0  0  0121  0  0
  -17.6396  -30.6493   24.0352 C   0  0  0  0  0  0  0  0  0122  0  0
  -25.9153  -34.9582   23.4993 C   0  0  0  0  0  0  0  0  0123  0  0
  -16.5415  -29.9068   23.6254 C   0  0  0  0  0  0  0  0  0124  0  0
  -16.7331  -28.6521   23.0586 C   0  0  0  0  0  0  0  0  0125  0  0
  -26.4583  -31.6439   25.0683 C   0  0  0  0  0  0  0  0  0126  0  0
  -25.3807  -31.3179   26.1374 C   0  0  0  0  0  0  0  0  0127  0  0
  -27.0530  -30.3024   24.5680 C   0  0  0  0  0  0  0  0  0128  0  0
  -27.6014  -32.4281   25.7651 C   0  0  0  0  0  0  0  0  0129  0  0
  -27.5629  -37.2220   24.8621 C   0  0  0  0  0  0  0  0  0130  0  0
  -21.4133  -29.3375   22.3735 N   0  0  0  0  0  0  0  0  0131  0  0
  -26.4706  -37.3372   23.9061 N   0  0  0  0  0  0  0  0  0132  0  0
  -24.6674  -31.0544   22.1178 N   0  0  0  0  0  0  0  0  0133  0  0
  -23.4259  -28.8150   23.2971 O   0  0  0  0  0  0  0  0  0134  0  0
  -28.3948  -26.7345   20.0089 O   0  0  0  0  0  0  0  0  0135  0  0
  -26.5870  -34.9065   22.4671 O   0  0  0  0  0  0  0  0  0136  0  0
  -23.5365  -32.1254   23.7833 O   0  0  0  0  0  0  0  0  0137  0  0
  -29.7279  -19.3109   21.8332 C   0  0  0  0  0  0  0  0  0  0  0  0
  -31.1479  -17.5528   20.3040 C   0  0  0  0  0  0  0  0  0  0  0  0
  -29.5014  -17.9463   21.9746 C   0  0  0  0  0  0  0  0  0  0  0  0
  -30.2208  -17.0438   21.1991 C   0  0  0  0  0  0  0  0  0  0  0  0
  -30.6772  -19.7183   20.9099 C   0  0  0  0  0  0  0  0  0  0  0  0
  -32.1289  -24.0875   20.8075 C   0  0  0  0  0  0  0  0  0  0  0  0
  -32.0024  -23.2350   21.8388 C   0  0  0  0  0  0  0  0  0  0  0  0
  -26.1523  -16.5454   23.2883 C   0  0  0  0  0  0  0  0  0  0  0  0
  -33.3903  -26.1961   20.3548 C   0  0  0  0  0  0  0  0  0  0  0  0
  -33.4403  -21.2905   21.1496 C   0  0  0  0  0  0  0  0  0  0  0  0
  -30.6286  -23.2753   23.7066 C   0  0  0  0  0  0  0  0  0  0  0  0
  -28.4842  -17.4784   22.9630 C   0  0  0  0  0  0  0  0  0  0  0  0
  -30.9495  -21.1933   20.7292 C   0  0  0  0  0  0  0  0  0  0  0  0
  -27.1745  -17.0530   22.2837 C   0  0  0  0  0  0  0  0  0  0  0  0
  -32.1090  -25.5868   20.9096 C   0  0  1  0  0  0  0  0  0  1  0  0
  -32.0619  -21.7279   21.6582 C   0  0  2  0  0  0  0  0  0  0  0  0
  -31.3956  -18.8715   20.1388 N   0  0  0  0  0  0  0  0  0  0  0  0
  -30.0269  -15.6444   21.3069 N   0  0  0  0  0  0  0  0  0  0  0  0
  -31.8339  -23.7087   23.1275 O   0  0  0  0  0  0  0  0  0  0  0  0
  -31.4485  -12.4701   19.0860 H   0  0  0  0  0  0  0  0  0  0  0  0
  -30.3970  -11.2460   19.6950 H   0  0  0  0  0  0  0  0  0  0  0  0
  -29.6870  -11.8204   17.4226 H   0  0  0  0  0  0  0  0  0  0  0  0
  -29.6375  -13.5326   17.8649 H   0  0  0  0  0  0  0  0  0  0  0  0
  -27.7830  -11.3650   18.7904 H   0  0  0  0  0  0  0  0  0  0  0  0
  -27.4028  -12.7801   17.8021 H   0  0  0  0  0  0  0  0  0  0  0  0
  -27.7353  -14.2503   19.6136 H   0  0  0  0  0  0  0  0  0  0  0  0
  -28.5890  -11.9550   21.3832 H   0  0  0  0  0  0  0  0  0  0  0  0
  -28.5005  -13.6134   21.8562 H   0  0  0  0  0  0  0  0  0  0  0  0
  -25.2399   -9.5495   22.4318 H   0  0  0  0  0  0  0  0  0  0  0  0
  -23.9663   -7.5070   22.7297 H   0  0  0  0  0  0  0  0  0  0  0  0
  -21.1515   -8.8641   19.9162 H   0  0  0  0  0  0  0  0  0  0  0  0
  -22.4016  -10.9115   19.6476 H   0  0  0  0  0  0  0  0  0  0  0  0
  -21.2319   -7.5552   23.9750 H   0  0  0  0  0  0  0  0  0  0  0  0
  -21.1589   -6.0228   25.8556 H   0  0  0  0  0  0  0  0  0  0  0  0
  -22.0396   -2.8212   23.2809 H   0  0  0  0  0  0  0  0  0  0  0  0
  -22.4401  -11.9703   22.4008 H   0  0  0  0  0  0  0  0  0  0  0  0
  -21.1493  -13.0679   22.2082 H   0  0  0  0  0  0  0  0  0  0  0  0
  -24.6538  -15.7807   20.5848 H   0  0  0  0  0  0  0  0  0  0  0  0
  -26.2762  -15.5453   20.1156 H   0  0  0  0  0  0  0  0  0  0  0  0
  -26.6778  -32.4663   23.1464 H   0  0  0  0  0  0  0  0  0  0  0  0
  -25.0747  -34.0282   25.0566 H   0  0  0  0  0  0  0  0  0  0  0  0
  -22.7881  -31.3489   21.4131 H   0  0  0  0  0  0  0  0  0  0  0  0
  -23.3854  -35.9823   23.3648 H   0  0  0  0  0  0  0  0  0  0  0  0
  -24.3696  -36.8624   22.2204 H   0  0  0  0  0  0  0  0  0  0  0  0
  -23.7669  -37.6632   23.6516 H   0  0  0  0  0  0  0  0  0  0  0  0
  -25.9445  -31.6237   20.5691 H   0  0  0  0  0  0  0  0  0  0  0  0
  -26.7436  -31.0079   22.0108 H   0  0  0  0  0  0  0  0  0  0  0  0
  -28.0090  -29.1452   21.2057 H   0  0  0  0  0  0  0  0  0  0  0  0
  -26.1369  -26.0560   19.0719 H   0  0  0  0  0  0  0  0  0  0  0  0
  -24.0652  -27.2961   19.0997 H   0  0  0  0  0  0  0  0  0  0  0  0
  -23.6156  -30.5365   19.3930 H   0  0  0  0  0  0  0  0  0  0  0  0
  -22.7355  -29.1425   19.9945 H   0  0  0  0  0  0  0  0  0  0  0  0
  -25.1353  -36.2335   25.0565 H   0  0  0  0  0  0  0  0  0  0  0  0
  -21.0070  -28.3206   24.0793 H   0  0  0  0  0  0  0  0  0  0  0  0
  -20.5555  -26.2518   23.3550 H   0  0  0  0  0  0  0  0  0  0  0  0
  -21.5974  -26.8362   22.0454 H   0  0  0  0  0  0  0  0  0  0  0  0
  -19.6810  -25.6422   21.1488 H   0  0  0  0  0  0  0  0  0  0  0  0
  -19.6406  -27.3343   20.7034 H   0  0  0  0  0  0  0  0  0  0  0  0
  -17.4282  -26.6888   21.4113 H   0  0  0  0  0  0  0  0  0  0  0  0
  -18.0803  -26.0130   22.9049 H   0  0  0  0  0  0  0  0  0  0  0  0
  -19.7265  -30.6774   24.2204 H   0  0  0  0  0  0  0  0  0  0  0  0
  -17.5064  -31.5856   24.4483 H   0  0  0  0  0  0  0  0  0  0  0  0
  -15.5878  -30.2839   23.7407 H   0  0  0  0  0  0  0  0  0  0  0  0
  -15.9120  -28.0941   22.7766 H   0  0  0  0  0  0  0  0  0  0  0  0
  -24.5787  -30.7757   25.6817 H   0  0  0  0  0  0  0  0  0  0  0  0
  -25.0041  -32.2289   26.5536 H   0  0  0  0  0  0  0  0  0  0  0  0
  -25.8166  -30.7245   26.9138 H   0  0  0  0  0  0  0  0  0  0  0  0
  -26.2892  -29.7335   24.0803 H   0  0  0  0  0  0  0  0  0  0  0  0
  -27.4336  -29.7484   25.4006 H   0  0  0  0  0  0  0  0  0  0  0  0
  -27.8466  -30.4994   23.8779 H   0  0  0  0  0  0  0  0  0  0  0  0
  -27.2251  -33.3632   26.1242 H   0  0  0  0  0  0  0  0  0  0  0  0
  -28.3902  -32.6065   25.0645 H   0  0  0  0  0  0  0  0  0  0  0  0
  -27.9772  -31.8555   26.5872 H   0  0  0  0  0  0  0  0  0  0  0  0
  -28.2744  -38.0016   24.6863 H   0  0  0  0  0  0  0  0  0  0  0  0
  -28.0396  -36.2711   24.7461 H   0  0  0  0  0  0  0  0  0  0  0  0
  -27.1773  -37.3087   25.8564 H   0  0  0  0  0  0  0  0  0  0  0  0
  -20.9627  -29.9365   21.7352 H   0  0  0  0  0  0  0  0  0  0  0  0
  -26.0447  -38.2561   24.0273 H   0  0  0  0  0  0  0  0  0  0  0  0
  -29.2054  -19.9985   22.3982 H   0  0  0  0  0  0  0  0  0  0  0  0
  -31.6824  -16.8839   19.7278 H   0  0  0  0  0  0  0  0  0  0  0  0
  -32.2497  -23.6787   19.8676 H   0  0  0  0  0  0  0  0  0  0  0  0
  -25.2581  -16.2607   22.7743 H   0  0  0  0  0  0  0  0  0  0  0  0
  -25.9282  -17.3201   23.9915 H   0  0  0  0  0  0  0  0  0  0  0  0
  -26.5513  -15.6982   23.8060 H   0  0  0  0  0  0  0  0  0  0  0  0
  -34.2357  -25.6893   20.7712 H   0  0  0  0  0  0  0  0  0  0  0  0
  -33.4332  -27.2334   20.6137 H   0  0  0  0  0  0  0  0  0  0  0  0
  -33.4020  -26.0935   19.2898 H   0  0  0  0  0  0  0  0  0  0  0  0
  -34.1982  -21.6686   21.8035 H   0  0  0  0  0  0  0  0  0  0  0  0
  -33.5953  -21.6757   20.1635 H   0  0  0  0  0  0  0  0  0  0  0  0
  -33.4895  -20.2219   21.1269 H   0  0  0  0  0  0  0  0  0  0  0  0
  -30.5480  -23.6681   24.6986 H   0  0  0  0  0  0  0  0  0  0  0  0
  -30.6152  -22.2060   23.7442 H   0  0  0  0  0  0  0  0  0  0  0  0
  -29.8051  -23.6219   23.1178 H   0  0  0  0  0  0  0  0  0  0  0  0
  -28.2758  -18.2743   23.6471 H   0  0  0  0  0  0  0  0  0  0  0  0
  -28.8848  -16.6261   23.4709 H   0  0  0  0  0  0  0  0  0  0  0  0
  -30.0482  -21.7325   20.9335 H   0  0  0  0  0  0  0  0  0  0  0  0
  -31.2835  -21.3328   19.7223 H   0  0  0  0  0  0  0  0  0  0  0  0
  -26.7633  -17.8953   21.7676 H   0  0  0  0  0  0  0  0  0  0  0  0
  -27.3969  -16.2555   21.6059 H   0  0  0  0  0  0  0  0  0  0  0  0
  -32.2209  -26.0405   21.8722 H   0  0  0  0  0  0  0  0  0  0  0  0
  -31.8959  -21.2998   22.6246 H   0  0  0  0  0  0  0  0  0  0  0  0
  -29.2812  -15.4027   21.9025 H   0  0  0  0  0  0  0  0  0  0  0  0
  1 25  1  0
  1 30  2  0
  1 88  1  0
  2  3  1  0
  2 25  1  0
  2 90  1  0
  2 91  1  0
  3  4  1  0
  3 92  1  0
  3 93  1  0
  4  5  1  0
  4 94  1  0
  4 95  1  0
  5  6  1  0
  5 26  1  0
  5 96  1  6
  6 25  1  0
  6 97  1  0
  6 98  1  0
  7  8  2  0
  7 26  1  0
  7 29  1  0
  8  9  1  0
  8 22  1  0
  9 10  1  0
  9 27  2  0
 10 11  2  0
 10 15  1  0
 11 12  1  0
 11 99  1  0
 12 13  2  0
 12100  1  0
 13 14  1  0
 13 31  1  0
 14 15  2  0
 14101  1  0
 15102  1  0
 16 17  2  0
 16 21  1  0
 16 31  1  0
 17 18  1  0
 17103  1  0
 18 19  2  0
 18104  1  0
 19 20  1  0
 19 24  1  0
 20 21  2  0
 20105  1  0
 21 23  1  0
 22 28  1  0
 22 32  2  0
 26 27  1  0
 28106  1  0
 28107  1  0
 29108  1  0
 29109  1  0
 33 34  1  0
 33 66  1  0
 33 70  2  0
 34 36  1  0
 34 59  1  0
 34110  1  6
 35 44  2  0
 35 45  1  0
 35 68  1  0
 36 56  1  0
 36111  1  0
 37 39  1  0
 37 47  1  0
 37 66  1  0
 37112  1  6
 38 43  2  0
 38 46  1  0
 38 47  1  0
 39 64  1  0
 39 67  2  0
 40 52  1  0
 40 53  2  0
 40 58  1  0
 41113  1  0
 41114  1  0
 41115  1  0
 42 43  1  0
 42 66  1  0
 42116  1  0
 42117  1  0
 43 44  1  0
 44118  1  0
 45 46  2  0
 45119  1  0
 46120  1  0
 47121  1  0
 47122  1  0
 48 41  1  0
 48 56  1  0
 48 65  1  0
 48123  1  1
 49 50  1  0
 49 53  1  0
 49 64  1  0
 49124  1  1
 50 51  1  0
 50125  1  0
 50126  1  0
 51 52  1  0
 51127  1  0
 51128  1  0
 52129  1  0
 52130  1  0
 53 54  1  0
 54 55  2  0
 54131  1  0
 55 57  1  0
 55132  1  0
 56 69  2  0
 57 58  2  0
 57133  1  0
 58134  1  0
 59 60  1  0
 59 61  1  0
 59 62  1  0
 60135  1  0
 60136  1  0
 60137  1  0
 61138  1  0
 61139  1  0
 61140  1  0
 62141  1  0
 62142  1  0
 62143  1  0
 63 65  1  0
 63144  1  0
 63145  1  0
 63146  1  0
 64147  1  0
 65148  1  0
 68 85  1  0
 71 73  2  0
 71 75  1  0
 71149  1  0
 72 74  2  0
 72 87  1  0
 72150  1  0
 73 74  1  0
 73 82  1  0
 74 88  1  0
 75 83  1  0
 75 87  2  0
 76 77  2  0
 76 85  1  0
 76151  1  0
 77 86  1  0
 77 89  1  0
 78 84  1  0
 78152  1  0
 78153  1  0
 78154  1  0
 79155  1  0
 79156  1  0
 79157  1  0
 80158  1  0
 80159  1  0
 80160  1  0
 81 89  1  0
 81161  1  0
 81162  1  0
 81163  1  0
 82 84  1  0
 82164  1  0
 82165  1  0
 83 86  1  0
 83166  1  0
 83167  1  0
 84168  1  0
 84169  1  0
 85 79  1  0
 85170  1  1
 86 80  1  0
 86171  1  1
 88172  1  0
M  ISO  4   1 100  68 101  85 101  88 100
M  END
$$$$
51
     RDKit          3D

162170  0  0  0  0  0  0  0  0999 V2000
  -30.7652  -14.3608   20.6636 C   0  0  0  0  0  0  0  0  0100  0  0
  -30.4392  -12.2669   19.3775 C   0  0  0  0  0  0  0  0  0101  0  0
  -29.4791  -12.5281   18.1977 C   0  0  0  0  0  0  0  0  0102  0  0
  -27.9985  -12.3963   18.6038 C   0  0  0  0  0  0  0  0  0103  0  0
  -27.6639  -13.2170   19.8820 C   0  0  2  0  0  0  0  0  0104  0  0
  -28.6795  -12.9602   21.0279 C   0  0  0  0  0  0  0  0  0105  0  0
  -25.2633  -13.8245   20.5754 C   0  0  0  0  0  0  0  0  0106  0  0
  -24.1645  -13.0409   20.9408 C   0  0  0  0  0  0  0  0  0107  0  0
  -24.6400  -11.7009   20.8697 C   0  0  0  0  0  0  0  0  0108  0  0
  -23.9005  -10.4085   21.0420 C   0  0  0  0  0  0  0  0  0109  0  0
  -24.3588   -9.4123   21.9123 C   0  0  0  0  0  0  0  0  0110  0  0
  -23.6296   -8.2350   22.0803 C   0  0  0  0  0  0  0  0  0111  0  0
  -22.4385   -8.0419   21.3657 C   0  0  0  0  0  0  0  0  0112  0  0
  -22.0103   -9.0167   20.4678 C   0  0  0  0  0  0  0  0  0113  0  0
  -22.7317  -10.1925   20.3102 C   0  0  0  0  0  0  0  0  0114  0  0
  -21.6857   -6.0709   22.5391 C   0  0  0  0  0  0  0  0  0115  0  0
  -21.4064   -6.5490   23.8264 C   0  0  0  0  0  0  0  0  0116  0  0
  -21.3635   -5.6677   24.9085 C   0  0  0  0  0  0  0  0  0117  0  0
  -21.5973   -4.3067   24.7088 C   0  0  0  0  0  0  0  0  0118  0  0
  -21.8700   -3.8284   23.4282 C   0  0  0  0  0  0  0  0  0119  0  0
  -21.9144   -4.7056   22.3460 C   0  0  0  0  0  0  0  0  0120  0  0
  -22.8194  -13.5263   21.1763 C   0  0  0  0  0  0  0  0  0121  0  0
  -22.1559   -4.2206   21.1063 F   0  0  0  0  0  0  0  0  0122  0  0
  -21.5628   -3.4510   25.7555 F   0  0  0  0  0  0  0  0  0123  0  0
  -30.0261  -13.1803   20.4553 N   0  0  0  0  0  0  0  0  0124  0  0
  -26.2911  -12.9356   20.3443 N   0  0  0  0  0  0  0  0  0125  0  0
  -25.9236  -11.6675   20.5847 N   0  0  0  0  0  0  0  0  0126  0  0
  -22.0708  -12.7905   22.0005 N   0  0  0  0  0  0  0  0  0127  0  0
  -25.4117  -15.1773   20.4097 N   0  0  0  0  0  0  0  0  0128  0  0
  -31.7916  -14.6724   20.0536 O   0  0  0  0  0  0  0  0  0129  0  0
  -21.6670   -6.9022   21.4423 O   0  0  0  0  0  0  0  0  0130  0  0
  -22.3946  -14.5564   20.6568 O   0  0  0  0  0  0  0  0  0131  0  0
  -24.6048  -31.8614   23.2223 C   0  0  0  0  0  0  0  0  0100  0  0
  -25.8822  -32.4841   23.8616 C   0  0  1  0  0  0  0  0  0101  0  0
  -27.2536  -27.5042   20.1156 C   0  0  0  0  0  0  0  0  0102  0  0
  -25.5726  -33.8762   24.2210 N   0  0  0  0  0  0  0  0  0103  0  0
  -23.4066  -30.4859   21.5461 C   0  0  2  0  0  0  0  0  0104  0  0
  -24.8467  -28.9636   20.1247 C   0  0  0  0  0  0  0  0  0105  0  0
  -22.7412  -29.4652   22.5052 C   0  0  0  0  0  0  0  0  0106  0  0
  -18.0167  -28.1302   22.8626 C   0  0  0  0  0  0  0  0  0107  0  0
  -24.1342  -36.7390   23.2568 C   0  0  0  0  0  0  0  0  0108  0  0
  -25.9141  -30.8882   21.3456 C   0  0  0  0  0  0  0  0  0109  0  0
  -25.9930  -29.5029   20.7208 C   0  0  0  0  0  0  0  0  0110  0  0
  -27.1758  -28.7612   20.7331 C   0  0  0  0  0  0  0  0  0111  0  0
  -26.1032  -26.9836   19.5230 C   0  0  0  0  0  0  0  0  0112  0  0
  -24.9097  -27.7011   19.5331 C   0  0  0  0  0  0  0  0  0113  0  0
  -23.5715  -29.7899   20.1582 C   0  0  0  0  0  0  0  0  0114  0  0
  -25.3990  -36.3212   24.0232 C   0  0  1  0  0  0  0  0  0115  0  0
  -20.5793  -28.3813   23.1004 C   0  0  2  0  0  0  0  0  0116  0  0
  -20.6548  -26.9392   22.5411 C   0  0  0  0  0  0  0  0  0117  0  0
  -19.5615  -26.6407   21.5143 C   0  0  0  0  0  0  0  0  0118  0  0
  -18.1797  -26.7818   22.1673 C   0  0  0  0  0  0  0  0  0119  0  0
  -19.1385  -28.8769   23.2988 C   0  0  0  0  0  0  0  0  0120  0  0
  -18.9183  -30.1286   23.8878 C   0  0  0  0  0  0  0  0  0121  0  0
  -17.6396  -30.6493   24.0352 C   0  0  0  0  0  0  0  0  0122  0  0
  -25.9153  -34.9582   23.4993 C   0  0  0  0  0  0  0  0  0123  0  0
  -16.5415  -29.9068   23.6254 C   0  0  0  0  0  0  0  0  0124  0  0
  -16.7331  -28.6521   23.0586 C   0  0  0  0  0  0  0  0  0125  0  0
  -26.4583  -31.6439   25.0683 C   0  0  0  0  0  0  0  0  0126  0  0
  -25.3807  -31.3179   26.1374 C   0  0  0  0  0  0  0  0  0127  0  0
  -27.0530  -30.3024   24.5680 C   0  0  0  0  0  0  0  0  0128  0  0
  -27.6014  -32.4281   25.7651 C   0  0  0  0  0  0  0  0  0129  0  0
  -27.5629  -37.2220   24.8621 C   0  0  0  0  0  0  0  0  0130  0  0
  -21.4133  -29.3375   22.3735 N   0  0  0  0  0  0  0  0  0131  0  0
  -26.4706  -37.3372   23.9061 N   0  0  0  0  0  0  0  0  0132  0  0
  -24.6674  -31.0544   22.1178 N   0  0  0  0  0  0  0  0  0133  0  0
  -23.4259  -28.8150   23.2971 O   0  0  0  0  0  0  0  0  0134  0  0
  -28.3948  -26.7345   20.0089 O   0  0  0  0  0  0  0  0  0135  0  0
  -26.5870  -34.9065   22.4671 O   0  0  0  0  0  0  0  0  0136  0  0
  -23.5365  -32.1254   23.7833 O   0  0  0  0  0  0  0  0  0137  0  0
  -23.6958  -23.7166   22.9998 C   0  0  0  0  0  0  0  0  0  0  0  0
  -22.9212  -24.8925   24.9630 C   0  0  0  0  0  0  0  0  0  0  0  0
  -25.2893  -24.7082   24.5212 C   0  0  0  0  0  0  0  0  0  0  0  0
  -22.6482  -24.1700   23.8015 C   0  0  0  0  0  0  0  0  0  0  0  0
  -25.0163  -23.9857   23.3597 C   0  0  0  0  0  0  0  0  0  0  0  0
  -24.2417  -25.1616   25.3229 C   0  0  0  0  0  0  0  0  0  0  0  0
  -21.2369  -23.8805   23.4188 C   0  0  0  0  0  0  0  0  0  0  0  0
  -18.2893  -24.6507   20.1891 C   0  0  0  0  0  0  0  0  0  0  0  0
  -17.5461  -26.6453   21.4968 C   0  0  0  0  0  0  0  0  0  0  0  0
  -20.6804  -24.3785   22.0922 C   0  0  0  0  0  0  0  0  0  0  0  0
  -19.4955  -25.3197   22.3299 C   0  0  0  0  0  0  0  0  0  0  0  0
  -19.6921  -26.7275   20.1876 C   0  0  0  0  0  0  0  0  0  1  0  0
  -18.7782  -25.8295   21.0492 C   0  0  0  0  0  0  0  0  0  0  0  0
  -20.4706  -23.2040   24.2160 N   0  0  0  0  0  0  0  0  0  0  0  0
  -26.0807  -23.5253   22.5455 N   0  0  0  0  0  0  0  0  0  0  0  0
  -24.5040  -25.8528   26.4398 F   0  0  0  0  0  0  0  0  0  0  0  0
  -31.4485  -12.4701   19.0860 H   0  0  0  0  0  0  0  0  0  0  0  0
  -30.3970  -11.2460   19.6950 H   0  0  0  0  0  0  0  0  0  0  0  0
  -29.6870  -11.8204   17.4226 H   0  0  0  0  0  0  0  0  0  0  0  0
  -29.6375  -13.5326   17.8649 H   0  0  0  0  0  0  0  0  0  0  0  0
  -27.7830  -11.3650   18.7904 H   0  0  0  0  0  0  0  0  0  0  0  0
  -27.4028  -12.7801   17.8021 H   0  0  0  0  0  0  0  0  0  0  0  0
  -27.7353  -14.2503   19.6136 H   0  0  0  0  0  0  0  0  0  0  0  0
  -28.5890  -11.9550   21.3832 H   0  0  0  0  0  0  0  0  0  0  0  0
  -28.5005  -13.6134   21.8562 H   0  0  0  0  0  0  0  0  0  0  0  0
  -25.2399   -9.5495   22.4318 H   0  0  0  0  0  0  0  0  0  0  0  0
  -23.9663   -7.5070   22.7297 H   0  0  0  0  0  0  0  0  0  0  0  0
  -21.1515   -8.8641   19.9162 H   0  0  0  0  0  0  0  0  0  0  0  0
  -22.4016  -10.9115   19.6476 H   0  0  0  0  0  0  0  0  0  0  0  0
  -21.2319   -7.5552   23.9750 H   0  0  0  0  0  0  0  0  0  0  0  0
  -21.1589   -6.0228   25.8556 H   0  0  0  0  0  0  0  0  0  0  0  0
  -22.0396   -2.8212   23.2809 H   0  0  0  0  0  0  0  0  0  0  0  0
  -22.4401  -11.9703   22.4008 H   0  0  0  0  0  0  0  0  0  0  0  0
  -21.1493  -13.0679   22.2082 H   0  0  0  0  0  0  0  0  0  0  0  0
  -24.6538  -15.7807   20.5848 H   0  0  0  0  0  0  0  0  0  0  0  0
  -26.2762  -15.5453   20.1156 H   0  0  0  0  0  0  0  0  0  0  0  0
  -26.6778  -32.4663   23.1464 H   0  0  0  0  0  0  0  0  0  0  0  0
  -25.0747  -34.0282   25.0566 H   0  0  0  0  0  0  0  0  0  0  0  0
  -22.7881  -31.3489   21.4131 H   0  0  0  0  0  0  0  0  0  0  0  0
  -23.3854  -35.9823   23.3648 H   0  0  0  0  0  0  0  0  0  0  0  0
  -24.3696  -36.8624   22.2204 H   0  0  0  0  0  0  0  0  0  0  0  0
  -23.7669  -37.6632   23.6516 H   0  0  0  0  0  0  0  0  0  0  0  0
  -25.9445  -31.6237   20.5691 H   0  0  0  0  0  0  0  0  0  0  0  0
  -26.7436  -31.0079   22.0108 H   0  0  0  0  0  0  0  0  0  0  0  0
  -28.0090  -29.1452   21.2057 H   0  0  0  0  0  0  0  0  0  0  0  0
  -26.1369  -26.0560   19.0719 H   0  0  0  0  0  0  0  0  0  0  0  0
  -24.0652  -27.2961   19.0997 H   0  0  0  0  0  0  0  0  0  0  0  0
  -23.6156  -30.5365   19.3930 H   0  0  0  0  0  0  0  0  0  0  0  0
  -22.7355  -29.1425   19.9945 H   0  0  0  0  0  0  0  0  0  0  0  0
  -25.1353  -36.2335   25.0565 H   0  0  0  0  0  0  0  0  0  0  0  0
  -21.0070  -28.3206   24.0793 H   0  0  0  0  0  0  0  0  0  0  0  0
  -20.5555  -26.2518   23.3550 H   0  0  0  0  0  0  0  0  0  0  0  0
  -21.5974  -26.8362   22.0454 H   0  0  0  0  0  0  0  0  0  0  0  0
  -19.6810  -25.6422   21.1488 H   0  0  0  0  0  0  0  0  0  0  0  0
  -19.6406  -27.3343   20.7034 H   0  0  0  0  0  0  0  0  0  0  0  0
  -17.4282  -26.6888   21.4113 H   0  0  0  0  0  0  0  0  0  0  0  0
  -18.0803  -26.0130   22.9049 H   0  0  0  0  0  0  0  0  0  0  0  0
  -19.7265  -30.6774   24.2204 H   0  0  0  0  0  0  0  0  0  0  0  0
  -17.5064  -31.5856   24.4483 H   0  0  0  0  0  0  0  0  0  0  0  0
  -15.5878  -30.2839   23.7407 H   0  0  0  0  0  0  0  0  0  0  0  0
  -15.9120  -28.0941   22.7766 H   0  0  0  0  0  0  0  0  0  0  0  0
  -24.5787  -30.7757   25.6817 H   0  0  0  0  0  0  0  0  0  0  0  0
  -25.0041  -32.2289   26.5536 H   0  0  0  0  0  0  0  0  0  0  0  0
  -25.8166  -30.7245   26.9138 H   0  0  0  0  0  0  0  0  0  0  0  0
  -26.2892  -29.7335   24.0803 H   0  0  0  0  0  0  0  0  0  0  0  0
  -27.4336  -29.7484   25.4006 H   0  0  0  0  0  0  0  0  0  0  0  0
  -27.8466  -30.4994   23.8779 H   0  0  0  0  0  0  0  0  0  0  0  0
  -27.2251  -33.3632   26.1242 H   0  0  0  0  0  0  0  0  0  0  0  0
  -28.3902  -32.6065   25.0645 H   0  0  0  0  0  0  0  0  0  0  0  0
  -27.9772  -31.8555   26.5872 H   0  0  0  0  0  0  0  0  0  0  0  0
  -28.2744  -38.0016   24.6863 H   0  0  0  0  0  0  0  0  0  0  0  0
  -28.0396  -36.2711   24.7461 H   0  0  0  0  0  0  0  0  0  0  0  0
  -27.1773  -37.3087   25.8564 H   0  0  0  0  0  0  0  0  0  0  0  0
  -20.9627  -29.9365   21.7352 H   0  0  0  0  0  0  0  0  0  0  0  0
  -26.0447  -38.2561   24.0273 H   0  0  0  0  0  0  0  0  0  0  0  0
  -23.4939  -23.1821   22.1404 H   0  0  0  0  0  0  0  0  0  0  0  0
  -22.1462  -25.2280   25.5561 H   0  0  0  0  0  0  0  0  0  0  0  0
  -26.2663  -24.9073   24.7874 H   0  0  0  0  0  0  0  0  0  0  0  0
  -17.6542  -24.0204   20.7758 H   0  0  0  0  0  0  0  0  0  0  0  0
  -19.1312  -24.0873   19.8446 H   0  0  0  0  0  0  0  0  0  0  0  0
  -17.7426  -25.0249   19.3489 H   0  0  0  0  0  0  0  0  0  0  0  0
  -16.9080  -26.0286   22.0947 H   0  0  0  0  0  0  0  0  0  0  0  0
  -17.0098  -26.9833   20.6348 H   0  0  0  0  0  0  0  0  0  0  0  0
  -17.8666  -27.4893   22.0711 H   0  0  0  0  0  0  0  0  0  0  0  0
  -20.3548  -23.5418   21.5101 H   0  0  0  0  0  0  0  0  0  0  0  0
  -21.4484  -24.9118   21.5719 H   0  0  0  0  0  0  0  0  0  0  0  0
  -19.8544  -26.1720   22.8680 H   0  0  0  0  0  0  0  0  0  0  0  0
  -18.7679  -24.7463   22.8654 H   0  0  0  0  0  0  0  0  0  0  0  0
  -19.4217  -27.7286   20.4513 H   0  0  0  0  0  0  0  0  0  0  0  0
  -19.5023  -26.2933   19.2283 H   0  0  0  0  0  0  0  0  0  0  0  0
  -20.8210  -22.8775   25.0762 H   0  0  0  0  0  0  0  0  0  0  0  0
  -26.4830  -24.2557   22.0222 H   0  0  0  0  0  0  0  0  0  0  0  0
  1 25  1  0
  1 30  2  0
  1 85  1  0
  2  3  1  0
  2 25  1  0
  2 87  1  0
  2 88  1  0
  3  4  1  0
  3 89  1  0
  3 90  1  0
  4  5  1  0
  4 91  1  0
  4 92  1  0
  5  6  1  0
  5 26  1  0
  5 93  1  6
  6 25  1  0
  6 94  1  0
  6 95  1  0
  7  8  2  0
  7 26  1  0
  7 29  1  0
  8  9  1  0
  8 22  1  0
  9 10  1  0
  9 27  2  0
 10 11  2  0
 10 15  1  0
 11 12  1  0
 11 96  1  0
 12 13  2  0
 12 97  1  0
 13 14  1  0
 13 31  1  0
 14 15  2  0
 14 98  1  0
 15 99  1  0
 16 17  2  0
 16 21  1  0
 16 31  1  0
 17 18  1  0
 17100  1  0
 18 19  2  0
 18101  1  0
 19 20  1  0
 19 24  1  0
 20 21  2  0
 20102  1  0
 21 23  1  0
 22 28  1  0
 22 32  2  0
 26 27  1  0
 28103  1  0
 28104  1  0
 29105  1  0
 29106  1  0
 33 34  1  0
 33 66  1  0
 33 70  2  0
 34 36  1  0
 34 59  1  0
 34107  1  6
 35 44  2  0
 35 45  1  0
 35 68  1  0
 36 56  1  0
 36108  1  0
 37 39  1  0
 37 47  1  0
 37 66  1  0
 37109  1  6
 38 43  2  0
 38 46  1  0
 38 47  1  0
 39 64  1  0
 39 67  2  0
 40 52  1  0
 40 53  2  0
 40 58  1  0
 41110  1  0
 41111  1  0
 41112  1  0
 42 43  1  0
 42 66  1  0
 42113  1  0
 42114  1  0
 43 44  1  0
 44115  1  0
 45 46  2  0
 45116  1  0
 46117  1  0
 47118  1  0
 47119  1  0
 48 41  1  0
 48 56  1  0
 48 65  1  0
 48120  1  1
 49 50  1  0
 49 53  1  0
 49 64  1  0
 49121  1  1
 50 51  1  0
 50122  1  0
 50123  1  0
 51 52  1  0
 51124  1  0
 51125  1  0
 52126  1  0
 52127  1  0
 53 54  1  0
 54 55  2  0
 54128  1  0
 55 57  1  0
 55129  1  0
 56 69  2  0
 57 58  2  0
 57130  1  0
 58131  1  0
 59 60  1  0
 59 61  1  0
 59 62  1  0
 60132  1  0
 60133  1  0
 60134  1  0
 61135  1  0
 61136  1  0
 61137  1  0
 62138  1  0
 62139  1  0
 62140  1  0
 63 65  1  0
 63141  1  0
 63142  1  0
 63143  1  0
 64144  1  0
 65145  1  0
 68 82  1  0
 71 74  2  0
 71 75  1  0
 71146  1  0
 72 74  1  0
 72 76  2  0
 72147  1  0
 73 75  2  0
 73 76  1  0
 73148  1  0
 74 77  1  0
 75 85  1  0
 76 86  1  0
 77 80  1  0
 77 84  2  0
 78149  1  0
 78150  1  0
 78151  1  0
 79 83  1  0
 79152  1  0
 79153  1  0
 79154  1  0
 80 81  1  0
 80155  1  0
 80156  1  0
 81 83  1  0
 81157  1  0
 81158  1  0
 82 83  1  0
 82159  1  0
 82160  1  0
 83 78  1  0
 84161  1  0
 85162  1  0
M  ISO  4   1 100  68 101  82 101  85 100
M  END
$$$$
52
     RDKit          3D

164172  0  0  0  0  0  0  0  0999 V2000
  -30.7652  -14.3608   20.6636 C   0  0  0  0  0  0  0  0  0100  0  0
  -30.4392  -12.2669   19.3775 C   0  0  0  0  0  0  0  0  0101  0  0
  -29.4791  -12.5281   18.1977 C   0  0  0  0  0  0  0  0  0102  0  0
  -27.9985  -12.3963   18.6038 C   0  0  0  0  0  0  0  0  0103  0  0
  -27.6639  -13.2170   19.8820 C   0  0  2  0  0  0  0  0  0104  0  0
  -28.6795  -12.9602   21.0279 C   0  0  0  0  0  0  0  0  0105  0  0
  -25.2633  -13.8245   20.5754 C   0  0  0  0  0  0  0  0  0106  0  0
  -24.1645  -13.0409   20.9408 C   0  0  0  0  0  0  0  0  0107  0  0
  -24.6400  -11.7009   20.8697 C   0  0  0  0  0  0  0  0  0108  0  0
  -23.9005  -10.4085   21.0420 C   0  0  0  0  0  0  0  0  0109  0  0
  -24.3588   -9.4123   21.9123 C   0  0  0  0  0  0  0  0  0110  0  0
  -23.6296   -8.2350   22.0803 C   0  0  0  0  0  0  0  0  0111  0  0
  -22.4385   -8.0419   21.3657 C   0  0  0  0  0  0  0  0  0112  0  0
  -22.0103   -9.0167   20.4678 C   0  0  0  0  0  0  0  0  0113  0  0
  -22.7317  -10.1925   20.3102 C   0  0  0  0  0  0  0  0  0114  0  0
  -21.6857   -6.0709   22.5391 C   0  0  0  0  0  0  0  0  0115  0  0
  -21.4064   -6.5490   23.8264 C   0  0  0  0  0  0  0  0  0116  0  0
  -21.3635   -5.6677   24.9085 C   0  0  0  0  0  0  0  0  0117  0  0
  -21.5973   -4.3067   24.7088 C   0  0  0  0  0  0  0  0  0118  0  0
  -21.8700   -3.8284   23.4282 C   0  0  0  0  0  0  0  0  0119  0  0
  -21.9144   -4.7056   22.3460 C   0  0  0  0  0  0  0  0  0120  0  0
  -22.8194  -13.5263   21.1763 C   0  0  0  0  0  0  0  0  0121  0  0
  -22.1559   -4.2206   21.1063 F   0  0  0  0  0  0  0  0  0122  0  0
  -21.5628   -3.4510   25.7555 F   0  0  0  0  0  0  0  0  0123  0  0
  -30.0261  -13.1803   20.4553 N   0  0  0  0  0  0  0  0  0124  0  0
  -26.2911  -12.9356   20.3443 N   0  0  0  0  0  0  0  0  0125  0  0
  -25.9236  -11.6675   20.5847 N   0  0  0  0  0  0  0  0  0126  0  0
  -22.0708  -12.7905   22.0005 N   0  0  0  0  0  0  0  0  0127  0  0
  -25.4117  -15.1773   20.4097 N   0  0  0  0  0  0  0  0  0128  0  0
  -31.7916  -14.6724   20.0536 O   0  0  0  0  0  0  0  0  0129  0  0
  -21.6670   -6.9022   21.4423 O   0  0  0  0  0  0  0  0  0130  0  0
  -22.3946  -14.5564   20.6568 O   0  0  0  0  0  0  0  0  0131  0  0
  -24.6048  -31.8614   23.2223 C   0  0  0  0  0  0  0  0  0100  0  0
  -25.8822  -32.4841   23.8616 C   0  0  1  0  0  0  0  0  0101  0  0
  -27.2536  -27.5042   20.1156 C   0  0  0  0  0  0  0  0  0102  0  0
  -25.5726  -33.8762   24.2210 N   0  0  0  0  0  0  0  0  0103  0  0
  -23.4066  -30.4859   21.5461 C   0  0  2  0  0  0  0  0  0104  0  0
  -24.8467  -28.9636   20.1247 C   0  0  0  0  0  0  0  0  0105  0  0
  -22.7412  -29.4652   22.5052 C   0  0  0  0  0  0  0  0  0106  0  0
  -18.0167  -28.1302   22.8626 C   0  0  0  0  0  0  0  0  0107  0  0
  -24.1342  -36.7390   23.2568 C   0  0  0  0  0  0  0  0  0108  0  0
  -25.9141  -30.8882   21.3456 C   0  0  0  0  0  0  0  0  0109  0  0
  -25.9930  -29.5029   20.7208 C   0  0  0  0  0  0  0  0  0110  0  0
  -27.1758  -28.7612   20.7331 C   0  0  0  0  0  0  0  0  0111  0  0
  -26.1032  -26.9836   19.5230 C   0  0  0  0  0  0  0  0  0112  0  0
  -24.9097  -27.7011   19.5331 C   0  0  0  0  0  0  0  0  0113  0  0
  -23.5715  -29.7899   20.1582 C   0  0  0  0  0  0  0  0  0114  0  0
  -25.3990  -36.3212   24.0232 C   0  0  1  0  0  0  0  0  0115  0  0
  -20.5793  -28.3813   23.1004 C   0  0  2  0  0  0  0  0  0116  0  0
  -20.6548  -26.9392   22.5411 C   0  0  0  0  0  0  0  0  0117  0  0
  -19.5615  -26.6407   21.5143 C   0  0  0  0  0  0  0  0  0118  0  0
  -18.1797  -26.7818   22.1673 C   0  0  0  0  0  0  0  0  0119  0  0
  -19.1385  -28.8769   23.2988 C   0  0  0  0  0  0  0  0  0120  0  0
  -18.9183  -30.1286   23.8878 C   0  0  0  0  0  0  0  0  0121  0  0
  -17.6396  -30.6493   24.0352 C   0  0  0  0  0  0  0  0  0122  0  0
  -25.9153  -34.9582   23.4993 C   0  0  0  0  0  0  0  0  0123  0  0
  -16.5415  -29.9068   23.6254 C   0  0  0  0  0  0  0  0  0124  0  0
  -16.7331  -28.6521   23.0586 C   0  0  0  0  0  0  0  0  0125  0  0
  -26.4583  -31.6439   25.0683 C   0  0  0  0  0  0  0  0  0126  0  0
  -25.3807  -31.3179   26.1374 C   0  0  0  0  0  0  0  0  0127  0  0
  -27.0530  -30.3024   24.5680 C   0  0  0  0  0  0  0  0  0128  0  0
  -27.6014  -32.4281   25.7651 C   0  0  0  0  0  0  0  0  0129  0  0
  -27.5629  -37.2220   24.8621 C   0  0  0  0  0  0  0  0  0130  0  0
  -21.4133  -29.3375   22.3735 N   0  0  0  0  0  0  0  0  0131  0  0
  -26.4706  -37.3372   23.9061 N   0  0  0  0  0  0  0  0  0132  0  0
  -24.6674  -31.0544   22.1178 N   0  0  0  0  0  0  0  0  0133  0  0
  -23.4259  -28.8150   23.2971 O   0  0  0  0  0  0  0  0  0134  0  0
  -28.3948  -26.7345   20.0089 O   0  0  0  0  0  0  0  0  0135  0  0
  -26.5870  -34.9065   22.4671 O   0  0  0  0  0  0  0  0  0136  0  0
  -23.5365  -32.1254   23.7833 O   0  0  0  0  0  0  0  0  0137  0  0
  -28.4716  -21.7806   22.5449 C   0  0  0  0  0  0  0  0  0  0  0  0
  -28.4980  -23.1634   22.3639 C   0  0  0  0  0  0  0  0  0  0  0  0
  -29.7472  -22.8716   20.3165 C   0  0  0  0  0  0  0  0  0  0  0  0
  -29.0831  -20.9433   21.6117 C   0  0  0  0  0  0  0  0  0  0  0  0
  -29.7209  -21.4888   20.4976 C   0  0  0  0  0  0  0  0  0  0  0  0
  -29.1357  -23.7089   21.2497 C   0  0  0  0  0  0  0  0  0  0  0  0
  -30.4055  -18.1450   17.5529 C   0  0  0  0  0  0  0  0  0  0  0  0
  -29.0425  -19.4660   21.8274 C   0  0  0  0  0  0  0  0  0  0  0  0
  -29.2540  -19.5955   15.8410 C   0  0  0  0  0  0  0  0  0  0  0  0
  -31.5074  -20.2221   16.6898 C   0  0  0  0  0  0  0  0  0  0  0  0
  -30.3872  -20.6027   19.4740 C   0  0  0  0  0  0  0  0  0  0  0  0
  -29.2029  -17.3036   17.9532 C   0  0  0  0  0  0  0  0  0  1  0  0
  -29.5209  -20.4504   18.2156 C   0  0  0  0  0  0  0  0  0  0  0  0
  -30.1578  -19.5989   17.0893 C   0  0  0  0  0  0  0  0  0  0  0  0
  -29.1610  -25.1135   21.0644 N   0  0  0  0  0  0  0  0  0  0  0  0
  -31.5435  -17.6723   17.6084 O   0  0  0  0  0  0  0  0  0  0  0  0
  -31.4485  -12.4701   19.0860 H   0  0  0  0  0  0  0  0  0  0  0  0
  -30.3970  -11.2460   19.6950 H   0  0  0  0  0  0  0  0  0  0  0  0
  -29.6870  -11.8204   17.4226 H   0  0  0  0  0  0  0  0  0  0  0  0
  -29.6375  -13.5326   17.8649 H   0  0  0  0  0  0  0  0  0  0  0  0
  -27.7830  -11.3650   18.7904 H   0  0  0  0  0  0  0  0  0  0  0  0
  -27.4028  -12.7801   17.8021 H   0  0  0  0  0  0  0  0  0  0  0  0
  -27.7353  -14.2503   19.6136 H   0  0  0  0  0  0  0  0  0  0  0  0
  -28.5890  -11.9550   21.3832 H   0  0  0  0  0  0  0  0  0  0  0  0
  -28.5005  -13.6134   21.8562 H   0  0  0  0  0  0  0  0  0  0  0  0
  -25.2399   -9.5495   22.4318 H   0  0  0  0  0  0  0  0  0  0  0  0
  -23.9663   -7.5070   22.7297 H   0  0  0  0  0  0  0  0  0  0  0  0
  -21.1515   -8.8641   19.9162 H   0  0  0  0  0  0  0  0  0  0  0  0
  -22.4016  -10.9115   19.6476 H   0  0  0  0  0  0  0  0  0  0  0  0
  -21.2319   -7.5552   23.9750 H   0  0  0  0  0  0  0  0  0  0  0  0
  -21.1589   -6.0228   25.8556 H   0  0  0  0  0  0  0  0  0  0  0  0
  -22.0396   -2.8212   23.2809 H   0  0  0  0  0  0  0  0  0  0  0  0
  -22.4401  -11.9703   22.4008 H   0  0  0  0  0  0  0  0  0  0  0  0
  -21.1493  -13.0679   22.2082 H   0  0  0  0  0  0  0  0  0  0  0  0
  -24.6538  -15.7807   20.5848 H   0  0  0  0  0  0  0  0  0  0  0  0
  -26.2762  -15.5453   20.1156 H   0  0  0  0  0  0  0  0  0  0  0  0
  -26.6778  -32.4663   23.1464 H   0  0  0  0  0  0  0  0  0  0  0  0
  -25.0747  -34.0282   25.0566 H   0  0  0  0  0  0  0  0  0  0  0  0
  -22.7881  -31.3489   21.4131 H   0  0  0  0  0  0  0  0  0  0  0  0
  -23.3854  -35.9823   23.3648 H   0  0  0  0  0  0  0  0  0  0  0  0
  -24.3696  -36.8624   22.2204 H   0  0  0  0  0  0  0  0  0  0  0  0
  -23.7669  -37.6632   23.6516 H   0  0  0  0  0  0  0  0  0  0  0  0
  -25.9445  -31.6237   20.5691 H   0  0  0  0  0  0  0  0  0  0  0  0
  -26.7436  -31.0079   22.0108 H   0  0  0  0  0  0  0  0  0  0  0  0
  -28.0090  -29.1452   21.2057 H   0  0  0  0  0  0  0  0  0  0  0  0
  -26.1369  -26.0560   19.0719 H   0  0  0  0  0  0  0  0  0  0  0  0
  -24.0652  -27.2961   19.0997 H   0  0  0  0  0  0  0  0  0  0  0  0
  -23.6156  -30.5365   19.3930 H   0  0  0  0  0  0  0  0  0  0  0  0
  -22.7355  -29.1425   19.9945 H   0  0  0  0  0  0  0  0  0  0  0  0
  -25.1353  -36.2335   25.0565 H   0  0  0  0  0  0  0  0  0  0  0  0
  -21.0070  -28.3206   24.0793 H   0  0  0  0  0  0  0  0  0  0  0  0
  -20.5555  -26.2518   23.3550 H   0  0  0  0  0  0  0  0  0  0  0  0
  -21.5974  -26.8362   22.0454 H   0  0  0  0  0  0  0  0  0  0  0  0
  -19.6810  -25.6422   21.1488 H   0  0  0  0  0  0  0  0  0  0  0  0
  -19.6406  -27.3343   20.7034 H   0  0  0  0  0  0  0  0  0  0  0  0
  -17.4282  -26.6888   21.4113 H   0  0  0  0  0  0  0  0  0  0  0  0
  -18.0803  -26.0130   22.9049 H   0  0  0  0  0  0  0  0  0  0  0  0
  -19.7265  -30.6774   24.2204 H   0  0  0  0  0  0  0  0  0  0  0  0
  -17.5064  -31.5856   24.4483 H   0  0  0  0  0  0  0  0  0  0  0  0
  -15.5878  -30.2839   23.7407 H   0  0  0  0  0  0  0  0  0  0  0  0
  -15.9120  -28.0941   22.7766 H   0  0  0  0  0  0  0  0  0  0  0  0
  -24.5787  -30.7757   25.6817 H   0  0  0  0  0  0  0  0  0  0  0  0
  -25.0041  -32.2289   26.5536 H   0  0  0  0  0  0  0  0  0  0  0  0
  -25.8166  -30.7245   26.9138 H   0  0  0  0  0  0  0  0  0  0  0  0
  -26.2892  -29.7335   24.0803 H   0  0  0  0  0  0  0  0  0  0  0  0
  -27.4336  -29.7484   25.4006 H   0  0  0  0  0  0  0  0  0  0  0  0
  -27.8466  -30.4994   23.8779 H   0  0  0  0  0  0  0  0  0  0  0  0
  -27.2251  -33.3632   26.1242 H   0  0  0  0  0  0  0  0  0  0  0  0
  -28.3902  -32.6065   25.0645 H   0  0  0  0  0  0  0  0  0  0  0  0
  -27.9772  -31.8555   26.5872 H   0  0  0  0  0  0  0  0  0  0  0  0
  -28.2744  -38.0016   24.6863 H   0  0  0  0  0  0  0  0  0  0  0  0
  -28.0396  -36.2711   24.7461 H   0  0  0  0  0  0  0  0  0  0  0  0
  -27.1773  -37.3087   25.8564 H   0  0  0  0  0  0  0  0  0  0  0  0
  -20.9627  -29.9365   21.7352 H   0  0  0  0  0  0  0  0  0  0  0  0
  -26.0447  -38.2561   24.0273 H   0  0  0  0  0  0  0  0  0  0  0  0
  -27.9997  -21.3770   23.3692 H   0  0  0  0  0  0  0  0  0  0  0  0
  -28.0457  -23.7829   23.0543 H   0  0  0  0  0  0  0  0  0  0  0  0
  -30.2190  -23.2752   19.4922 H   0  0  0  0  0  0  0  0  0  0  0  0
  -28.5113  -19.2520   22.7312 H   0  0  0  0  0  0  0  0  0  0  0  0
  -30.0410  -19.0890   21.9028 H   0  0  0  0  0  0  0  0  0  0  0  0
  -28.5461  -18.9986   21.0027 H   0  0  0  0  0  0  0  0  0  0  0  0
  -29.7078  -19.0038   15.0737 H   0  0  0  0  0  0  0  0  0  0  0  0
  -29.1270  -20.5982   15.4899 H   0  0  0  0  0  0  0  0  0  0  0  0
  -28.2997  -19.1821   16.0927 H   0  0  0  0  0  0  0  0  0  0  0  0
  -31.9533  -19.6386   15.9116 H   0  0  0  0  0  0  0  0  0  0  0  0
  -32.1575  -20.2398   17.5395 H   0  0  0  0  0  0  0  0  0  0  0  0
  -31.3495  -21.2211   16.3406 H   0  0  0  0  0  0  0  0  0  0  0  0
  -30.5501  -19.6363   19.9035 H   0  0  0  0  0  0  0  0  0  0  0  0
  -31.3152  -21.0540   19.1912 H   0  0  0  0  0  0  0  0  0  0  0  0
  -29.3024  -16.6032   18.7559 H   0  0  0  0  0  0  0  0  0  0  0  0
  -28.5801  -16.6248   17.4089 H   0  0  0  0  0  0  0  0  0  0  0  0
  -29.3262  -21.4273   17.8250 H   0  0  0  0  0  0  0  0  0  0  0  0
  -28.6347  -19.9338   18.5200 H   0  0  0  0  0  0  0  0  0  0  0  0
  -29.0968  -26.0948   21.0178 H   0  0  0  0  0  0  0  0  0  0  0  0
  1 25  1  0
  1 30  2  0
  1 85  1  0
  2  3  1  0
  2 25  1  0
  2 87  1  0
  2 88  1  0
  3  4  1  0
  3 89  1  0
  3 90  1  0
  4  5  1  0
  4 91  1  0
  4 92  1  0
  5  6  1  0
  5 26  1  0
  5 93  1  6
  6 25  1  0
  6 94  1  0
  6 95  1  0
  7  8  2  0
  7 26  1  0
  7 29  1  0
  8  9  1  0
  8 22  1  0
  9 10  1  0
  9 27  2  0
 10 11  2  0
 10 15  1  0
 11 12  1  0
 11 96  1  0
 12 13  2  0
 12 97  1  0
 13 14  1  0
 13 31  1  0
 14 15  2  0
 14 98  1  0
 15 99  1  0
 16 17  2  0
 16 21  1  0
 16 31  1  0
 17 18  1  0
 17100  1  0
 18 19  2  0
 18101  1  0
 19 20  1  0
 19 24  1  0
 20 21  2  0
 20102  1  0
 21 23  1  0
 22 28  1  0
 22 32  2  0
 26 27  1  0
 28103  1  0
 28104  1  0
 29105  1  0
 29106  1  0
 33 34  1  0
 33 66  1  0
 33 70  2  0
 34 36  1  0
 34 59  1  0
 34107  1  6
 35 44  2  0
 35 45  1  0
 35 68  1  0
 36 56  1  0
 36108  1  0
 37 39  1  0
 37 47  1  0
 37 66  1  0
 37109  1  6
 38 43  2  0
 38 46  1  0
 38 47  1  0
 39 64  1  0
 39 67  2  0
 40 52  1  0
 40 53  2  0
 40 58  1  0
 41110  1  0
 41111  1  0
 41112  1  0
 42 43  1  0
 42 66  1  0
 42113  1  0
 42114  1  0
 43 44  1  0
 44115  1  0
 45 46  2  0
 45116  1  0
 46117  1  0
 47118  1  0
 47119  1  0
 48 41  1  0
 48 56  1  0
 48 65  1  0
 48120  1  1
 49 50  1  0
 49 53  1  0
 49 64  1  0
 49121  1  1
 50 51  1  0
 50122  1  0
 50123  1  0
 51 52  1  0
 51124  1  0
 51125  1  0
 52126  1  0
 52127  1  0
 53 54  1  0
 54 55  2  0
 54128  1  0
 55 57  1  0
 55129  1  0
 56 69  2  0
 57 58  2  0
 57130  1  0
 58131  1  0
 59 60  1  0
 59 61  1  0
 59 62  1  0
 60132  1  0
 60133  1  0
 60134  1  0
 61135  1  0
 61136  1  0
 61137  1  0
 62138  1  0
 62139  1  0
 62140  1  0
 63 65  1  0
 63141  1  0
 63142  1  0
 63143  1  0
 64144  1  0
 65145  1  0
 68 82  1  0
 71 72  2  0
 71 74  1  0
 71146  1  0
 72 76  1  0
 72147  1  0
 73 75  1  0
 73 76  2  0
 73148  1  0
 74 75  2  0
 74 78  1  0
 75 81  1  0
 76 85  1  0
 77 82  1  0
 77 84  1  0
 77 86  2  0
 78149  1  0
 78150  1  0
 78151  1  0
 79152  1  0
 79153  1  0
 79154  1  0
 80 84  1  0
 80155  1  0
 80156  1  0
 80157  1  0
 81 83  1  0
 81158  1  0
 81159  1  0
 82160  1  0
 82161  1  0
 83 84  1  0
 83162  1  0
 83163  1  0
 84 79  1  0
 85164  1  0
M  ISO  4   1 100  68 101  82 101  85 100
M  END
$$$$
53
     RDKit          3D

167175  0  0  0  0  0  0  0  0999 V2000
  -30.7652  -14.3608   20.6636 C   0  0  0  0  0  0  0  0  0100  0  0
  -30.4392  -12.2669   19.3775 C   0  0  0  0  0  0  0  0  0101  0  0
  -29.4791  -12.5281   18.1977 C   0  0  0  0  0  0  0  0  0102  0  0
  -27.9985  -12.3963   18.6038 C   0  0  0  0  0  0  0  0  0103  0  0
  -27.6639  -13.2170   19.8820 C   0  0  2  0  0  0  0  0  0104  0  0
  -28.6795  -12.9602   21.0279 C   0  0  0  0  0  0  0  0  0105  0  0
  -25.2633  -13.8245   20.5754 C   0  0  0  0  0  0  0  0  0106  0  0
  -24.1645  -13.0409   20.9408 C   0  0  0  0  0  0  0  0  0107  0  0
  -24.6400  -11.7009   20.8697 C   0  0  0  0  0  0  0  0  0108  0  0
  -23.9005  -10.4085   21.0420 C   0  0  0  0  0  0  0  0  0109  0  0
  -24.3588   -9.4123   21.9123 C   0  0  0  0  0  0  0  0  0110  0  0
  -23.6296   -8.2350   22.0803 C   0  0  0  0  0  0  0  0  0111  0  0
  -22.4385   -8.0419   21.3657 C   0  0  0  0  0  0  0  0  0112  0  0
  -22.0103   -9.0167   20.4678 C   0  0  0  0  0  0  0  0  0113  0  0
  -22.7317  -10.1925   20.3102 C   0  0  0  0  0  0  0  0  0114  0  0
  -21.6857   -6.0709   22.5391 C   0  0  0  0  0  0  0  0  0115  0  0
  -21.4064   -6.5490   23.8264 C   0  0  0  0  0  0  0  0  0116  0  0
  -21.3635   -5.6677   24.9085 C   0  0  0  0  0  0  0  0  0117  0  0
  -21.5973   -4.3067   24.7088 C   0  0  0  0  0  0  0  0  0118  0  0
  -21.8700   -3.8284   23.4282 C   0  0  0  0  0  0  0  0  0119  0  0
  -21.9144   -4.7056   22.3460 C   0  0  0  0  0  0  0  0  0120  0  0
  -22.8194  -13.5263   21.1763 C   0  0  0  0  0  0  0  0  0121  0  0
  -22.1559   -4.2206   21.1063 F   0  0  0  0  0  0  0  0  0122  0  0
  -21.5628   -3.4510   25.7555 F   0  0  0  0  0  0  0  0  0123  0  0
  -30.0261  -13.1803   20.4553 N   0  0  0  0  0  0  0  0  0124  0  0
  -26.2911  -12.9356   20.3443 N   0  0  0  0  0  0  0  0  0125  0  0
  -25.9236  -11.6675   20.5847 N   0  0  0  0  0  0  0  0  0126  0  0
  -22.0708  -12.7905   22.0005 N   0  0  0  0  0  0  0  0  0127  0  0
  -25.4117  -15.1773   20.4097 N   0  0  0  0  0  0  0  0  0128  0  0
  -31.7916  -14.6724   20.0536 O   0  0  0  0  0  0  0  0  0129  0  0
  -21.6670   -6.9022   21.4423 O   0  0  0  0  0  0  0  0  0130  0  0
  -22.3946  -14.5564   20.6568 O   0  0  0  0  0  0  0  0  0131  0  0
  -24.6048  -31.8614   23.2223 C   0  0  0  0  0  0  0  0  0100  0  0
  -25.8822  -32.4841   23.8616 C   0  0  1  0  0  0  0  0  0101  0  0
  -27.2536  -27.5042   20.1156 C   0  0  0  0  0  0  0  0  0102  0  0
  -25.5726  -33.8762   24.2210 N   0  0  0  0  0  0  0  0  0103  0  0
  -23.4066  -30.4859   21.5461 C   0  0  2  0  0  0  0  0  0104  0  0
  -24.8467  -28.9636   20.1247 C   0  0  0  0  0  0  0  0  0105  0  0
  -22.7412  -29.4652   22.5052 C   0  0  0  0  0  0  0  0  0106  0  0
  -18.0167  -28.1302   22.8626 C   0  0  0  0  0  0  0  0  0107  0  0
  -24.1342  -36.7390   23.2568 C   0  0  0  0  0  0  0  0  0108  0  0
  -25.9141  -30.8882   21.3456 C   0  0  0  0  0  0  0  0  0109  0  0
  -25.9930  -29.5029   20.7208 C   0  0  0  0  0  0  0  0  0110  0  0
  -27.1758  -28.7612   20.7331 C   0  0  0  0  0  0  0  0  0111  0  0
  -26.1032  -26.9836   19.5230 C   0  0  0  0  0  0  0  0  0112  0  0
  -24.9097  -27.7011   19.5331 C   0  0  0  0  0  0  0  0  0113  0  0
  -23.5715  -29.7899   20.1582 C   0  0  0  0  0  0  0  0  0114  0  0
  -25.3990  -36.3212   24.0232 C   0  0  1  0  0  0  0  0  0115  0  0
  -20.5793  -28.3813   23.1004 C   0  0  2  0  0  0  0  0  0116  0  0
  -20.6548  -26.9392   22.5411 C   0  0  0  0  0  0  0  0  0117  0  0
  -19.5615  -26.6407   21.5143 C   0  0  0  0  0  0  0  0  0118  0  0
  -18.1797  -26.7818   22.1673 C   0  0  0  0  0  0  0  0  0119  0  0
  -19.1385  -28.8769   23.2988 C   0  0  0  0  0  0  0  0  0120  0  0
  -18.9183  -30.1286   23.8878 C   0  0  0  0  0  0  0  0  0121  0  0
  -17.6396  -30.6493   24.0352 C   0  0  0  0  0  0  0  0  0122  0  0
  -25.9153  -34.9582   23.4993 C   0  0  0  0  0  0  0  0  0123  0  0
  -16.5415  -29.9068   23.6254 C   0  0  0  0  0  0  0  0  0124  0  0
  -16.7331  -28.6521   23.0586 C   0  0  0  0  0  0  0  0  0125  0  0
  -26.4583  -31.6439   25.0683 C   0  0  0  0  0  0  0  0  0126  0  0
  -25.3807  -31.3179   26.1374 C   0  0  0  0  0  0  0  0  0127  0  0
  -27.0530  -30.3024   24.5680 C   0  0  0  0  0  0  0  0  0128  0  0
  -27.6014  -32.4281   25.7651 C   0  0  0  0  0  0  0  0  0129  0  0
  -27.5629  -37.2220   24.8621 C   0  0  0  0  0  0  0  0  0130  0  0
  -21.4133  -29.3375   22.3735 N   0  0  0  0  0  0  0  0  0131  0  0
  -26.4706  -37.3372   23.9061 N   0  0  0  0  0  0  0  0  0132  0  0
  -24.6674  -31.0544   22.1178 N   0  0  0  0  0  0  0  0  0133  0  0
  -23.4259  -28.8150   23.2971 O   0  0  0  0  0  0  0  0  0134  0  0
  -28.3948  -26.7345   20.0089 O   0  0  0  0  0  0  0  0  0135  0  0
  -26.5870  -34.9065   22.4671 O   0  0  0  0  0  0  0  0  0136  0  0
  -23.5365  -32.1254   23.7833 O   0  0  0  0  0  0  0  0  0137  0  0
  -31.2123  -19.1915   23.7857 C   0  0  0  0  0  0  0  0  0  0  0  0
  -31.6248  -17.2910   22.3523 C   0  0  0  0  0  0  0  0  0  0  0  0
  -29.3616  -18.0411   22.7426 C   0  0  0  0  0  0  0  0  0  0  0  0
  -32.1042  -18.3080   23.1778 C   0  0  0  0  0  0  0  0  0  0  0  0
  -29.8410  -19.0581   23.5681 C   0  0  0  0  0  0  0  0  0  0  0  0
  -30.2534  -17.1575   22.1347 C   0  0  0  0  0  0  0  0  0  0  0  0
  -27.5674  -20.9397   22.2740 C   0  0  0  0  0  0  0  0  0  0  0  0
  -33.5704  -18.4507   23.4107 C   0  0  0  0  0  0  0  0  0  0  0  0
  -28.0518  -22.4025   24.2195 C   0  0  0  0  0  0  0  0  0  0  0  0
  -27.5723  -21.0121   18.3276 C   0  0  0  0  0  0  0  0  0  0  0  0
  -26.6575  -19.2903   19.8893 C   0  0  0  0  0  0  0  0  0  0  0  0
  -28.8755  -20.0149   24.2262 C   0  0  0  0  0  0  0  0  0  0  0  0
  -28.0353  -21.1523   20.8375 C   0  0  0  0  0  0  0  0  0  0  0  0
  -28.5889  -21.2560   23.3664 C   0  0  1  0  0  0  0  0  0  0  0  0
  -27.0293  -20.7699   19.7383 C   0  0  0  0  0  0  0  0  0  1  0  0
  -29.7664  -16.1244   21.2960 N   0  0  0  0  0  0  0  0  0  0  0  0
  -26.4485  -20.5108   22.5540 O   0  0  0  0  0  0  0  0  0  0  0  0
  -31.4485  -12.4701   19.0860 H   0  0  0  0  0  0  0  0  0  0  0  0
  -30.3970  -11.2460   19.6950 H   0  0  0  0  0  0  0  0  0  0  0  0
  -29.6870  -11.8204   17.4226 H   0  0  0  0  0  0  0  0  0  0  0  0
  -29.6375  -13.5326   17.8649 H   0  0  0  0  0  0  0  0  0  0  0  0
  -27.7830  -11.3650   18.7904 H   0  0  0  0  0  0  0  0  0  0  0  0
  -27.4028  -12.7801   17.8021 H   0  0  0  0  0  0  0  0  0  0  0  0
  -27.7353  -14.2503   19.6136 H   0  0  0  0  0  0  0  0  0  0  0  0
  -28.5890  -11.9550   21.3832 H   0  0  0  0  0  0  0  0  0  0  0  0
  -28.5005  -13.6134   21.8562 H   0  0  0  0  0  0  0  0  0  0  0  0
  -25.2399   -9.5495   22.4318 H   0  0  0  0  0  0  0  0  0  0  0  0
  -23.9663   -7.5070   22.7297 H   0  0  0  0  0  0  0  0  0  0  0  0
  -21.1515   -8.8641   19.9162 H   0  0  0  0  0  0  0  0  0  0  0  0
  -22.4016  -10.9115   19.6476 H   0  0  0  0  0  0  0  0  0  0  0  0
  -21.2319   -7.5552   23.9750 H   0  0  0  0  0  0  0  0  0  0  0  0
  -21.1589   -6.0228   25.8556 H   0  0  0  0  0  0  0  0  0  0  0  0
  -22.0396   -2.8212   23.2809 H   0  0  0  0  0  0  0  0  0  0  0  0
  -22.4401  -11.9703   22.4008 H   0  0  0  0  0  0  0  0  0  0  0  0
  -21.1493  -13.0679   22.2082 H   0  0  0  0  0  0  0  0  0  0  0  0
  -24.6538  -15.7807   20.5848 H   0  0  0  0  0  0  0  0  0  0  0  0
  -26.2762  -15.5453   20.1156 H   0  0  0  0  0  0  0  0  0  0  0  0
  -26.6778  -32.4663   23.1464 H   0  0  0  0  0  0  0  0  0  0  0  0
  -25.0747  -34.0282   25.0566 H   0  0  0  0  0  0  0  0  0  0  0  0
  -22.7881  -31.3489   21.4131 H   0  0  0  0  0  0  0  0  0  0  0  0
  -23.3854  -35.9823   23.3648 H   0  0  0  0  0  0  0  0  0  0  0  0
  -24.3696  -36.8624   22.2204 H   0  0  0  0  0  0  0  0  0  0  0  0
  -23.7669  -37.6632   23.6516 H   0  0  0  0  0  0  0  0  0  0  0  0
  -25.9445  -31.6237   20.5691 H   0  0  0  0  0  0  0  0  0  0  0  0
  -26.7436  -31.0079   22.0108 H   0  0  0  0  0  0  0  0  0  0  0  0
  -28.0090  -29.1452   21.2057 H   0  0  0  0  0  0  0  0  0  0  0  0
  -26.1369  -26.0560   19.0719 H   0  0  0  0  0  0  0  0  0  0  0  0
  -24.0652  -27.2961   19.0997 H   0  0  0  0  0  0  0  0  0  0  0  0
  -23.6156  -30.5365   19.3930 H   0  0  0  0  0  0  0  0  0  0  0  0
  -22.7355  -29.1425   19.9945 H   0  0  0  0  0  0  0  0  0  0  0  0
  -25.1353  -36.2335   25.0565 H   0  0  0  0  0  0  0  0  0  0  0  0
  -21.0070  -28.3206   24.0793 H   0  0  0  0  0  0  0  0  0  0  0  0
  -20.5555  -26.2518   23.3550 H   0  0  0  0  0  0  0  0  0  0  0  0
  -21.5974  -26.8362   22.0454 H   0  0  0  0  0  0  0  0  0  0  0  0
  -19.6810  -25.6422   21.1488 H   0  0  0  0  0  0  0  0  0  0  0  0
  -19.6406  -27.3343   20.7034 H   0  0  0  0  0  0  0  0  0  0  0  0
  -17.4282  -26.6888   21.4113 H   0  0  0  0  0  0  0  0  0  0  0  0
  -18.0803  -26.0130   22.9049 H   0  0  0  0  0  0  0  0  0  0  0  0
  -19.7265  -30.6774   24.2204 H   0  0  0  0  0  0  0  0  0  0  0  0
  -17.5064  -31.5856   24.4483 H   0  0  0  0  0  0  0  0  0  0  0  0
  -15.5878  -30.2839   23.7407 H   0  0  0  0  0  0  0  0  0  0  0  0
  -15.9120  -28.0941   22.7766 H   0  0  0  0  0  0  0  0  0  0  0  0
  -24.5787  -30.7757   25.6817 H   0  0  0  0  0  0  0  0  0  0  0  0
  -25.0041  -32.2289   26.5536 H   0  0  0  0  0  0  0  0  0  0  0  0
  -25.8166  -30.7245   26.9138 H   0  0  0  0  0  0  0  0  0  0  0  0
  -26.2892  -29.7335   24.0803 H   0  0  0  0  0  0  0  0  0  0  0  0
  -27.4336  -29.7484   25.4006 H   0  0  0  0  0  0  0  0  0  0  0  0
  -27.8466  -30.4994   23.8779 H   0  0  0  0  0  0  0  0  0  0  0  0
  -27.2251  -33.3632   26.1242 H   0  0  0  0  0  0  0  0  0  0  0  0
  -28.3902  -32.6065   25.0645 H   0  0  0  0  0  0  0  0  0  0  0  0
  -27.9772  -31.8555   26.5872 H   0  0  0  0  0  0  0  0  0  0  0  0
  -28.2744  -38.0016   24.6863 H   0  0  0  0  0  0  0  0  0  0  0  0
  -28.0396  -36.2711   24.7461 H   0  0  0  0  0  0  0  0  0  0  0  0
  -27.1773  -37.3087   25.8564 H   0  0  0  0  0  0  0  0  0  0  0  0
  -20.9627  -29.9365   21.7352 H   0  0  0  0  0  0  0  0  0  0  0  0
  -26.0447  -38.2561   24.0273 H   0  0  0  0  0  0  0  0  0  0  0  0
  -31.5670  -19.9439   24.3965 H   0  0  0  0  0  0  0  0  0  0  0  0
  -32.2847  -16.6373   21.9025 H   0  0  0  0  0  0  0  0  0  0  0  0
  -28.3470  -17.9424   22.5816 H   0  0  0  0  0  0  0  0  0  0  0  0
  -33.7487  -19.2785   24.0649 H   0  0  0  0  0  0  0  0  0  0  0  0
  -34.0649  -18.6208   22.4772 H   0  0  0  0  0  0  0  0  0  0  0  0
  -33.9494  -17.5552   23.8571 H   0  0  0  0  0  0  0  0  0  0  0  0
  -27.8614  -23.2516   23.5968 H   0  0  0  0  0  0  0  0  0  0  0  0
  -28.7746  -22.6616   24.9647 H   0  0  0  0  0  0  0  0  0  0  0  0
  -27.1429  -22.0979   24.6949 H   0  0  0  0  0  0  0  0  0  0  0  0
  -27.5398  -20.0987   17.7712 H   0  0  0  0  0  0  0  0  0  0  0  0
  -28.5835  -21.3566   18.3889 H   0  0  0  0  0  0  0  0  0  0  0  0
  -26.9732  -21.7503   17.8367 H   0  0  0  0  0  0  0  0  0  0  0  0
  -26.6906  -18.8147   18.9314 H   0  0  0  0  0  0  0  0  0  0  0  0
  -25.6700  -19.2101   20.2934 H   0  0  0  0  0  0  0  0  0  0  0  0
  -27.3524  -18.8134   20.5485 H   0  0  0  0  0  0  0  0  0  0  0  0
  -29.2921  -20.3337   25.1588 H   0  0  0  0  0  0  0  0  0  0  0  0
  -27.9497  -19.4960   24.3622 H   0  0  0  0  0  0  0  0  0  0  0  0
  -28.9190  -20.5671   20.6908 H   0  0  0  0  0  0  0  0  0  0  0  0
  -28.1873  -22.2066   20.7361 H   0  0  0  0  0  0  0  0  0  0  0  0
  -29.5152  -21.5488   22.9178 H   0  0  0  0  0  0  0  0  0  0  0  0
  -28.8467  -16.2391   20.9639 H   0  0  0  0  0  0  0  0  0  0  0  0
  1 25  1  0
  1 30  2  0
  1 86  1  0
  2  3  1  0
  2 25  1  0
  2 88  1  0
  2 89  1  0
  3  4  1  0
  3 90  1  0
  3 91  1  0
  4  5  1  0
  4 92  1  0
  4 93  1  0
  5  6  1  0
  5 26  1  0
  5 94  1  6
  6 25  1  0
  6 95  1  0
  6 96  1  0
  7  8  2  0
  7 26  1  0
  7 29  1  0
  8  9  1  0
  8 22  1  0
  9 10  1  0
  9 27  2  0
 10 11  2  0
 10 15  1  0
 11 12  1  0
 11 97  1  0
 12 13  2  0
 12 98  1  0
 13 14  1  0
 13 31  1  0
 14 15  2  0
 14 99  1  0
 15100  1  0
 16 17  2  0
 16 21  1  0
 16 31  1  0
 17 18  1  0
 17101  1  0
 18 19  2  0
 18102  1  0
 19 20  1  0
 19 24  1  0
 20 21  2  0
 20103  1  0
 21 23  1  0
 22 28  1  0
 22 32  2  0
 26 27  1  0
 28104  1  0
 28105  1  0
 29106  1  0
 29107  1  0
 33 34  1  0
 33 66  1  0
 33 70  2  0
 34 36  1  0
 34 59  1  0
 34108  1  6
 35 44  2  0
 35 45  1  0
 35 68  1  0
 36 56  1  0
 36109  1  0
 37 39  1  0
 37 47  1  0
 37 66  1  0
 37110  1  6
 38 43  2  0
 38 46  1  0
 38 47  1  0
 39 64  1  0
 39 67  2  0
 40 52  1  0
 40 53  2  0
 40 58  1  0
 41111  1  0
 41112  1  0
 41113  1  0
 42 43  1  0
 42 66  1  0
 42114  1  0
 42115  1  0
 43 44  1  0
 44116  1  0
 45 46  2  0
 45117  1  0
 46118  1  0
 47119  1  0
 47120  1  0
 48 41  1  0
 48 56  1  0
 48 65  1  0
 48121  1  1
 49 50  1  0
 49 53  1  0
 49 64  1  0
 49122  1  1
 50 51  1  0
 50123  1  0
 50124  1  0
 51 52  1  0
 51125  1  0
 51126  1  0
 52127  1  0
 52128  1  0
 53 54  1  0
 54 55  2  0
 54129  1  0
 55 57  1  0
 55130  1  0
 56 69  2  0
 57 58  2  0
 57131  1  0
 58132  1  0
 59 60  1  0
 59 61  1  0
 59 62  1  0
 60133  1  0
 60134  1  0
 60135  1  0
 61136  1  0
 61137  1  0
 61138  1  0
 62139  1  0
 62140  1  0
 62141  1  0
 63 65  1  0
 63142  1  0
 63143  1  0
 63144  1  0
 64145  1  0
 65146  1  0
 68 85  1  0
 71 74  2  0
 71 75  1  0
 71147  1  0
 72 74  1  0
 72 76  2  0
 72148  1  0
 73 75  2  0
 73 76  1  0
 73149  1  0
 74 78  1  0
 75 82  1  0
 76 86  1  0
 77 83  1  0
 77 84  1  0
 77 87  2  0
 78150  1  0
 78151  1  0
 78152  1  0
 79153  1  0
 79154  1  0
 79155  1  0
 80156  1  0
 80157  1  0
 80158  1  0
 81 85  1  0
 81159  1  0
 81160  1  0
 81161  1  0
 82 84  1  0
 82162  1  0
 82163  1  0
 83 85  1  0
 83164  1  0
 83165  1  0
 84 79  1  0
 84166  1  6
 85 80  1  0
 86167  1  0
M  ISO  4   1 100  68 101  85 101  86 100
M  END
$$$$
54
     RDKit          3D

161169  0  0  0  0  0  0  0  0999 V2000
  -30.7652  -14.3608   20.6636 C   0  0  0  0  0  0  0  0  0100  0  0
  -30.4392  -12.2669   19.3775 C   0  0  0  0  0  0  0  0  0101  0  0
  -29.4791  -12.5281   18.1977 C   0  0  0  0  0  0  0  0  0102  0  0
  -27.9985  -12.3963   18.6038 C   0  0  0  0  0  0  0  0  0103  0  0
  -27.6639  -13.2170   19.8820 C   0  0  2  0  0  0  0  0  0104  0  0
  -28.6795  -12.9602   21.0279 C   0  0  0  0  0  0  0  0  0105  0  0
  -25.2633  -13.8245   20.5754 C   0  0  0  0  0  0  0  0  0106  0  0
  -24.1645  -13.0409   20.9408 C   0  0  0  0  0  0  0  0  0107  0  0
  -24.6400  -11.7009   20.8697 C   0  0  0  0  0  0  0  0  0108  0  0
  -23.9005  -10.4085   21.0420 C   0  0  0  0  0  0  0  0  0109  0  0
  -24.3588   -9.4123   21.9123 C   0  0  0  0  0  0  0  0  0110  0  0
  -23.6296   -8.2350   22.0803 C   0  0  0  0  0  0  0  0  0111  0  0
  -22.4385   -8.0419   21.3657 C   0  0  0  0  0  0  0  0  0112  0  0
  -22.0103   -9.0167   20.4678 C   0  0  0  0  0  0  0  0  0113  0  0
  -22.7317  -10.1925   20.3102 C   0  0  0  0  0  0  0  0  0114  0  0
  -21.6857   -6.0709   22.5391 C   0  0  0  0  0  0  0  0  0115  0  0
  -21.4064   -6.5490   23.8264 C   0  0  0  0  0  0  0  0  0116  0  0
  -21.3635   -5.6677   24.9085 C   0  0  0  0  0  0  0  0  0117  0  0
  -21.5973   -4.3067   24.7088 C   0  0  0  0  0  0  0  0  0118  0  0
  -21.8700   -3.8284   23.4282 C   0  0  0  0  0  0  0  0  0119  0  0
  -21.9144   -4.7056   22.3460 C   0  0  0  0  0  0  0  0  0120  0  0
  -22.8194  -13.5263   21.1763 C   0  0  0  0  0  0  0  0  0121  0  0
  -22.1559   -4.2206   21.1063 F   0  0  0  0  0  0  0  0  0122  0  0
  -21.5628   -3.4510   25.7555 F   0  0  0  0  0  0  0  0  0123  0  0
  -30.0261  -13.1803   20.4553 N   0  0  0  0  0  0  0  0  0124  0  0
  -26.2911  -12.9356   20.3443 N   0  0  0  0  0  0  0  0  0125  0  0
  -25.9236  -11.6675   20.5847 N   0  0  0  0  0  0  0  0  0126  0  0
  -22.0708  -12.7905   22.0005 N   0  0  0  0  0  0  0  0  0127  0  0
  -25.4117  -15.1773   20.4097 N   0  0  0  0  0  0  0  0  0128  0  0
  -31.7916  -14.6724   20.0536 O   0  0  0  0  0  0  0  0  0129  0  0
  -21.6670   -6.9022   21.4423 O   0  0  0  0  0  0  0  0  0130  0  0
  -22.3946  -14.5564   20.6568 O   0  0  0  0  0  0  0  0  0131  0  0
  -24.6048  -31.8614   23.2223 C   0  0  0  0  0  0  0  0  0100  0  0
  -25.8822  -32.4841   23.8616 C   0  0  1  0  0  0  0  0  0101  0  0
  -27.2536  -27.5042   20.1156 C   0  0  0  0  0  0  0  0  0102  0  0
  -25.5726  -33.8762   24.2210 N   0  0  0  0  0  0  0  0  0103  0  0
  -23.4066  -30.4859   21.5461 C   0  0  2  0  0  0  0  0  0104  0  0
  -24.8467  -28.9636   20.1247 C   0  0  0  0  0  0  0  0  0105  0  0
  -22.7412  -29.4652   22.5052 C   0  0  0  0  0  0  0  0  0106  0  0
  -18.0167  -28.1302   22.8626 C   0  0  0  0  0  0  0  0  0107  0  0
  -24.1342  -36.7390   23.2568 C   0  0  0  0  0  0  0  0  0108  0  0
  -25.9141  -30.8882   21.3456 C   0  0  0  0  0  0  0  0  0109  0  0
  -25.9930  -29.5029   20.7208 C   0  0  0  0  0  0  0  0  0110  0  0
  -27.1758  -28.7612   20.7331 C   0  0  0  0  0  0  0  0  0111  0  0
  -26.1032  -26.9836   19.5230 C   0  0  0  0  0  0  0  0  0112  0  0
  -24.9097  -27.7011   19.5331 C   0  0  0  0  0  0  0  0  0113  0  0
  -23.5715  -29.7899   20.1582 C   0  0  0  0  0  0  0  0  0114  0  0
  -25.3990  -36.3212   24.0232 C   0  0  1  0  0  0  0  0  0115  0  0
  -20.5793  -28.3813   23.1004 C   0  0  2  0  0  0  0  0  0116  0  0
  -20.6548  -26.9392   22.5411 C   0  0  0  0  0  0  0  0  0117  0  0
  -19.5615  -26.6407   21.5143 C   0  0  0  0  0  0  0  0  0118  0  0
  -18.1797  -26.7818   22.1673 C   0  0  0  0  0  0  0  0  0119  0  0
  -19.1385  -28.8769   23.2988 C   0  0  0  0  0  0  0  0  0120  0  0
  -18.9183  -30.1286   23.8878 C   0  0  0  0  0  0  0  0  0121  0  0
  -17.6396  -30.6493   24.0352 C   0  0  0  0  0  0  0  0  0122  0  0
  -25.9153  -34.9582   23.4993 C   0  0  0  0  0  0  0  0  0123  0  0
  -16.5415  -29.9068   23.6254 C   0  0  0  0  0  0  0  0  0124  0  0
  -16.7331  -28.6521   23.0586 C   0  0  0  0  0  0  0  0  0125  0  0
  -26.4583  -31.6439   25.0683 C   0  0  0  0  0  0  0  0  0126  0  0
  -25.3807  -31.3179   26.1374 C   0  0  0  0  0  0  0  0  0127  0  0
  -27.0530  -30.3024   24.5680 C   0  0  0  0  0  0  0  0  0128  0  0
  -27.6014  -32.4281   25.7651 C   0  0  0  0  0  0  0  0  0129  0  0
  -27.5629  -37.2220   24.8621 C   0  0  0  0  0  0  0  0  0130  0  0
  -21.4133  -29.3375   22.3735 N   0  0  0  0  0  0  0  0  0131  0  0
  -26.4706  -37.3372   23.9061 N   0  0  0  0  0  0  0  0  0132  0  0
  -24.6674  -31.0544   22.1178 N   0  0  0  0  0  0  0  0  0133  0  0
  -23.4259  -28.8150   23.2971 O   0  0  0  0  0  0  0  0  0134  0  0
  -28.3948  -26.7345   20.0089 O   0  0  0  0  0  0  0  0  0135  0  0
  -26.5870  -34.9065   22.4671 O   0  0  0  0  0  0  0  0  0136  0  0
  -23.5365  -32.1254   23.7833 O   0  0  0  0  0  0  0  0  0137  0  0
  -31.0699  -19.3470   20.8499 C   0  0  0  0  0  0  0  0  0  0  0  0
  -29.6501  -18.1002   22.2035 C   0  0  0  0  0  0  0  0  0  0  0  0
  -30.1296  -19.3960   21.8554 C   0  0  0  0  0  0  0  0  0  0  0  0
  -30.2421  -17.1100   21.4505 C   0  0  0  0  0  0  0  0  0  0  0  0
  -28.6638  -17.8179   23.2166 C   0  0  0  0  0  0  0  0  0  0  0  0
  -27.3934  -17.1274   22.7921 C   0  0  0  0  0  0  0  0  0  0  0  0
  -27.5459  -22.3691   24.0574 C   0  0  0  0  0  0  0  0  0  0  0  0
  -26.4138  -22.8312   21.8682 C   0  0  0  0  0  0  0  0  0  0  0  0
  -29.6701  -20.6796   22.5039 C   0  0  0  0  0  0  0  0  0  0  0  0
  -28.2945  -21.1111   21.9765 C   0  0  0  0  0  0  0  0  0  0  0  0
  -28.7691  -23.5812   22.2201 C   0  0  0  0  0  0  0  0  0  1  0  0
  -27.7504  -22.4577   22.5335 C   0  0  0  0  0  0  0  0  0  0  0  0
  -30.0731  -15.7032   21.4546 N   0  0  0  0  0  0  0  0  0  0  0  0
  -28.7676  -18.1003   24.4196 O   0  0  0  0  0  0  0  0  0  0  0  0
  -31.3712  -17.7435   20.3297 S   0  0  0  0  0  0  0  0  0  0  0  0
  -31.4485  -12.4701   19.0860 H   0  0  0  0  0  0  0  0  0  0  0  0
  -30.3970  -11.2460   19.6950 H   0  0  0  0  0  0  0  0  0  0  0  0
  -29.6870  -11.8204   17.4226 H   0  0  0  0  0  0  0  0  0  0  0  0
  -29.6375  -13.5326   17.8649 H   0  0  0  0  0  0  0  0  0  0  0  0
  -27.7830  -11.3650   18.7904 H   0  0  0  0  0  0  0  0  0  0  0  0
  -27.4028  -12.7801   17.8021 H   0  0  0  0  0  0  0  0  0  0  0  0
  -27.7353  -14.2503   19.6136 H   0  0  0  0  0  0  0  0  0  0  0  0
  -28.5890  -11.9550   21.3832 H   0  0  0  0  0  0  0  0  0  0  0  0
  -28.5005  -13.6134   21.8562 H   0  0  0  0  0  0  0  0  0  0  0  0
  -25.2399   -9.5495   22.4318 H   0  0  0  0  0  0  0  0  0  0  0  0
  -23.9663   -7.5070   22.7297 H   0  0  0  0  0  0  0  0  0  0  0  0
  -21.1515   -8.8641   19.9162 H   0  0  0  0  0  0  0  0  0  0  0  0
  -22.4016  -10.9115   19.6476 H   0  0  0  0  0  0  0  0  0  0  0  0
  -21.2319   -7.5552   23.9750 H   0  0  0  0  0  0  0  0  0  0  0  0
  -21.1589   -6.0228   25.8556 H   0  0  0  0  0  0  0  0  0  0  0  0
  -22.0396   -2.8212   23.2809 H   0  0  0  0  0  0  0  0  0  0  0  0
  -22.4401  -11.9703   22.4008 H   0  0  0  0  0  0  0  0  0  0  0  0
  -21.1493  -13.0679   22.2082 H   0  0  0  0  0  0  0  0  0  0  0  0
  -24.6538  -15.7807   20.5848 H   0  0  0  0  0  0  0  0  0  0  0  0
  -26.2762  -15.5453   20.1156 H   0  0  0  0  0  0  0  0  0  0  0  0
  -26.6778  -32.4663   23.1464 H   0  0  0  0  0  0  0  0  0  0  0  0
  -25.0747  -34.0282   25.0566 H   0  0  0  0  0  0  0  0  0  0  0  0
  -22.7881  -31.3489   21.4131 H   0  0  0  0  0  0  0  0  0  0  0  0
  -23.3854  -35.9823   23.3648 H   0  0  0  0  0  0  0  0  0  0  0  0
  -24.3696  -36.8624   22.2204 H   0  0  0  0  0  0  0  0  0  0  0  0
  -23.7669  -37.6632   23.6516 H   0  0  0  0  0  0  0  0  0  0  0  0
  -25.9445  -31.6237   20.5691 H   0  0  0  0  0  0  0  0  0  0  0  0
  -26.7436  -31.0079   22.0108 H   0  0  0  0  0  0  0  0  0  0  0  0
  -28.0090  -29.1452   21.2057 H   0  0  0  0  0  0  0  0  0  0  0  0
  -26.1369  -26.0560   19.0719 H   0  0  0  0  0  0  0  0  0  0  0  0
  -24.0652  -27.2961   19.0997 H   0  0  0  0  0  0  0  0  0  0  0  0
  -23.6156  -30.5365   19.3930 H   0  0  0  0  0  0  0  0  0  0  0  0
  -22.7355  -29.1425   19.9945 H   0  0  0  0  0  0  0  0  0  0  0  0
  -25.1353  -36.2335   25.0565 H   0  0  0  0  0  0  0  0  0  0  0  0
  -21.0070  -28.3206   24.0793 H   0  0  0  0  0  0  0  0  0  0  0  0
  -20.5555  -26.2518   23.3550 H   0  0  0  0  0  0  0  0  0  0  0  0
  -21.5974  -26.8362   22.0454 H   0  0  0  0  0  0  0  0  0  0  0  0
  -19.6810  -25.6422   21.1488 H   0  0  0  0  0  0  0  0  0  0  0  0
  -19.6406  -27.3343   20.7034 H   0  0  0  0  0  0  0  0  0  0  0  0
  -17.4282  -26.6888   21.4113 H   0  0  0  0  0  0  0  0  0  0  0  0
  -18.0803  -26.0130   22.9049 H   0  0  0  0  0  0  0  0  0  0  0  0
  -19.7265  -30.6774   24.2204 H   0  0  0  0  0  0  0  0  0  0  0  0
  -17.5064  -31.5856   24.4483 H   0  0  0  0  0  0  0  0  0  0  0  0
  -15.5878  -30.2839   23.7407 H   0  0  0  0  0  0  0  0  0  0  0  0
  -15.9120  -28.0941   22.7766 H   0  0  0  0  0  0  0  0  0  0  0  0
  -24.5787  -30.7757   25.6817 H   0  0  0  0  0  0  0  0  0  0  0  0
  -25.0041  -32.2289   26.5536 H   0  0  0  0  0  0  0  0  0  0  0  0
  -25.8166  -30.7245   26.9138 H   0  0  0  0  0  0  0  0  0  0  0  0
  -26.2892  -29.7335   24.0803 H   0  0  0  0  0  0  0  0  0  0  0  0
  -27.4336  -29.7484   25.4006 H   0  0  0  0  0  0  0  0  0  0  0  0
  -27.8466  -30.4994   23.8779 H   0  0  0  0  0  0  0  0  0  0  0  0
  -27.2251  -33.3632   26.1242 H   0  0  0  0  0  0  0  0  0  0  0  0
  -28.3902  -32.6065   25.0645 H   0  0  0  0  0  0  0  0  0  0  0  0
  -27.9772  -31.8555   26.5872 H   0  0  0  0  0  0  0  0  0  0  0  0
  -28.2744  -38.0016   24.6863 H   0  0  0  0  0  0  0  0  0  0  0  0
  -28.0396  -36.2711   24.7461 H   0  0  0  0  0  0  0  0  0  0  0  0
  -27.1773  -37.3087   25.8564 H   0  0  0  0  0  0  0  0  0  0  0  0
  -20.9627  -29.9365   21.7352 H   0  0  0  0  0  0  0  0  0  0  0  0
  -26.0447  -38.2561   24.0273 H   0  0  0  0  0  0  0  0  0  0  0  0
  -31.5376  -20.1786   20.4565 H   0  0  0  0  0  0  0  0  0  0  0  0
  -27.4247  -16.9387   21.7393 H   0  0  0  0  0  0  0  0  0  0  0  0
  -26.5550  -17.7528   23.0176 H   0  0  0  0  0  0  0  0  0  0  0  0
  -27.2985  -16.2004   23.3179 H   0  0  0  0  0  0  0  0  0  0  0  0
  -26.8425  -21.5937   24.2784 H   0  0  0  0  0  0  0  0  0  0  0  0
  -27.1732  -23.3034   24.4222 H   0  0  0  0  0  0  0  0  0  0  0  0
  -28.4800  -22.1486   24.5304 H   0  0  0  0  0  0  0  0  0  0  0  0
  -25.6900  -22.0694   22.0696 H   0  0  0  0  0  0  0  0  0  0  0  0
  -26.5540  -22.9195   20.8111 H   0  0  0  0  0  0  0  0  0  0  0  0
  -26.0682  -23.7644   22.2613 H   0  0  0  0  0  0  0  0  0  0  0  0
  -30.3815  -21.4505   22.2930 H   0  0  0  0  0  0  0  0  0  0  0  0
  -29.5906  -20.5151   23.5582 H   0  0  0  0  0  0  0  0  0  0  0  0
  -27.5914  -20.3441   22.2260 H   0  0  0  0  0  0  0  0  0  0  0  0
  -28.4192  -21.2599   20.9243 H   0  0  0  0  0  0  0  0  0  0  0  0
  -29.6058  -23.0645   21.7983 H   0  0  0  0  0  0  0  0  0  0  0  0
  -28.7350  -24.0712   23.1707 H   0  0  0  0  0  0  0  0  0  0  0  0
  -29.3668  -15.4269   22.0824 H   0  0  0  0  0  0  0  0  0  0  0  0
  1 25  1  0
  1 30  2  0
  1 83  1  0
  2  3  1  0
  2 25  1  0
  2 86  1  0
  2 87  1  0
  3  4  1  0
  3 88  1  0
  3 89  1  0
  4  5  1  0
  4 90  1  0
  4 91  1  0
  5  6  1  0
  5 26  1  0
  5 92  1  6
  6 25  1  0
  6 93  1  0
  6 94  1  0
  7  8  2  0
  7 26  1  0
  7 29  1  0
  8  9  1  0
  8 22  1  0
  9 10  1  0
  9 27  2  0
 10 11  2  0
 10 15  1  0
 11 12  1  0
 11 95  1  0
 12 13  2  0
 12 96  1  0
 13 14  1  0
 13 31  1  0
 14 15  2  0
 14 97  1  0
 15 98  1  0
 16 17  2  0
 16 21  1  0
 16 31  1  0
 17 18  1  0
 17 99  1  0
 18 19  2  0
 18100  1  0
 19 20  1  0
 19 24  1  0
 20 21  2  0
 20101  1  0
 21 23  1  0
 22 28  1  0
 22 32  2  0
 26 27  1  0
 28102  1  0
 28103  1  0
 29104  1  0
 29105  1  0
 33 34  1  0
 33 66  1  0
 33 70  2  0
 34 36  1  0
 34 59  1  0
 34106  1  6
 35 44  2  0
 35 45  1  0
 35 68  1  0
 36 56  1  0
 36107  1  0
 37 39  1  0
 37 47  1  0
 37 66  1  0
 37108  1  6
 38 43  2  0
 38 46  1  0
 38 47  1  0
 39 64  1  0
 39 67  2  0
 40 52  1  0
 40 53  2  0
 40 58  1  0
 41109  1  0
 41110  1  0
 41111  1  0
 42 43  1  0
 42 66  1  0
 42112  1  0
 42113  1  0
 43 44  1  0
 44114  1  0
 45 46  2  0
 45115  1  0
 46116  1  0
 47117  1  0
 47118  1  0
 48 41  1  0
 48 56  1  0
 48 65  1  0
 48119  1  1
 49 50  1  0
 49 53  1  0
 49 64  1  0
 49120  1  1
 50 51  1  0
 50121  1  0
 50122  1  0
 51 52  1  0
 51123  1  0
 51124  1  0
 52125  1  0
 52126  1  0
 53 54  1  0
 54 55  2  0
 54127  1  0
 55 57  1  0
 55128  1  0
 56 69  2  0
 57 58  2  0
 57129  1  0
 58130  1  0
 59 60  1  0
 59 61  1  0
 59 62  1  0
 60131  1  0
 60132  1  0
 60133  1  0
 61134  1  0
 61135  1  0
 61136  1  0
 62137  1  0
 62138  1  0
 62139  1  0
 63 65  1  0
 63140  1  0
 63141  1  0
 63142  1  0
 64143  1  0
 65144  1  0
 68 81  1  0
 71 73  2  0
 71 85  1  0
 71145  1  0
 72 73  1  0
 72 74  2  0
 72 75  1  0
 73 79  1  0
 74 83  1  0
 74 85  1  0
 75 76  1  0
 75 84  2  0
 76146  1  0
 76147  1  0
 76148  1  0
 77149  1  0
 77150  1  0
 77151  1  0
 78 82  1  0
 78152  1  0
 78153  1  0
 78154  1  0
 79 80  1  0
 79155  1  0
 79156  1  0
 80 82  1  0
 80157  1  0
 80158  1  0
 81 82  1  0
 81159  1  0
 81160  1  0
 82 77  1  0
 83161  1  0
M  ISO  4   1 100  68 101  81 101  83 100
M  END
$$$$
55
     RDKit          3D

163171  0  0  0  0  0  0  0  0999 V2000
  -30.7652  -14.3608   20.6636 C   0  0  0  0  0  0  0  0  0100  0  0
  -30.4392  -12.2669   19.3775 C   0  0  0  0  0  0  0  0  0101  0  0
  -29.4791  -12.5281   18.1977 C   0  0  0  0  0  0  0  0  0102  0  0
  -27.9985  -12.3963   18.6038 C   0  0  0  0  0  0  0  0  0103  0  0
  -27.6639  -13.2170   19.8820 C   0  0  2  0  0  0  0  0  0104  0  0
  -28.6795  -12.9602   21.0279 C   0  0  0  0  0  0  0  0  0105  0  0
  -25.2633  -13.8245   20.5754 C   0  0  0  0  0  0  0  0  0106  0  0
  -24.1645  -13.0409   20.9408 C   0  0  0  0  0  0  0  0  0107  0  0
  -24.6400  -11.7009   20.8697 C   0  0  0  0  0  0  0  0  0108  0  0
  -23.9005  -10.4085   21.0420 C   0  0  0  0  0  0  0  0  0109  0  0
  -24.3588   -9.4123   21.9123 C   0  0  0  0  0  0  0  0  0110  0  0
  -23.6296   -8.2350   22.0803 C   0  0  0  0  0  0  0  0  0111  0  0
  -22.4385   -8.0419   21.3657 C   0  0  0  0  0  0  0  0  0112  0  0
  -22.0103   -9.0167   20.4678 C   0  0  0  0  0  0  0  0  0113  0  0
  -22.7317  -10.1925   20.3102 C   0  0  0  0  0  0  0  0  0114  0  0
  -21.6857   -6.0709   22.5391 C   0  0  0  0  0  0  0  0  0115  0  0
  -21.4064   -6.5490   23.8264 C   0  0  0  0  0  0  0  0  0116  0  0
  -21.3635   -5.6677   24.9085 C   0  0  0  0  0  0  0  0  0117  0  0
  -21.5973   -4.3067   24.7088 C   0  0  0  0  0  0  0  0  0118  0  0
  -21.8700   -3.8284   23.4282 C   0  0  0  0  0  0  0  0  0119  0  0
  -21.9144   -4.7056   22.3460 C   0  0  0  0  0  0  0  0  0120  0  0
  -22.8194  -13.5263   21.1763 C   0  0  0  0  0  0  0  0  0121  0  0
  -22.1559   -4.2206   21.1063 F   0  0  0  0  0  0  0  0  0122  0  0
  -21.5628   -3.4510   25.7555 F   0  0  0  0  0  0  0  0  0123  0  0
  -30.0261  -13.1803   20.4553 N   0  0  0  0  0  0  0  0  0124  0  0
  -26.2911  -12.9356   20.3443 N   0  0  0  0  0  0  0  0  0125  0  0
  -25.9236  -11.6675   20.5847 N   0  0  0  0  0  0  0  0  0126  0  0
  -22.0708  -12.7905   22.0005 N   0  0  0  0  0  0  0  0  0127  0  0
  -25.4117  -15.1773   20.4097 N   0  0  0  0  0  0  0  0  0128  0  0
  -31.7916  -14.6724   20.0536 O   0  0  0  0  0  0  0  0  0129  0  0
  -21.6670   -6.9022   21.4423 O   0  0  0  0  0  0  0  0  0130  0  0
  -22.3946  -14.5564   20.6568 O   0  0  0  0  0  0  0  0  0131  0  0
  -24.6048  -31.8614   23.2223 C   0  0  0  0  0  0  0  0  0100  0  0
  -25.8822  -32.4841   23.8616 C   0  0  1  0  0  0  0  0  0101  0  0
  -27.2536  -27.5042   20.1156 C   0  0  0  0  0  0  0  0  0102  0  0
  -25.5726  -33.8762   24.2210 N   0  0  0  0  0  0  0  0  0103  0  0
  -23.4066  -30.4859   21.5461 C   0  0  2  0  0  0  0  0  0104  0  0
  -24.8467  -28.9636   20.1247 C   0  0  0  0  0  0  0  0  0105  0  0
  -22.7412  -29.4652   22.5052 C   0  0  0  0  0  0  0  0  0106  0  0
  -18.0167  -28.1302   22.8626 C   0  0  0  0  0  0  0  0  0107  0  0
  -24.1342  -36.7390   23.2568 C   0  0  0  0  0  0  0  0  0108  0  0
  -25.9141  -30.8882   21.3456 C   0  0  0  0  0  0  0  0  0109  0  0
  -25.9930  -29.5029   20.7208 C   0  0  0  0  0  0  0  0  0110  0  0
  -27.1758  -28.7612   20.7331 C   0  0  0  0  0  0  0  0  0111  0  0
  -26.1032  -26.9836   19.5230 C   0  0  0  0  0  0  0  0  0112  0  0
  -24.9097  -27.7011   19.5331 C   0  0  0  0  0  0  0  0  0113  0  0
  -23.5715  -29.7899   20.1582 C   0  0  0  0  0  0  0  0  0114  0  0
  -25.3990  -36.3212   24.0232 C   0  0  1  0  0  0  0  0  0115  0  0
  -20.5793  -28.3813   23.1004 C   0  0  2  0  0  0  0  0  0116  0  0
  -20.6548  -26.9392   22.5411 C   0  0  0  0  0  0  0  0  0117  0  0
  -19.5615  -26.6407   21.5143 C   0  0  0  0  0  0  0  0  0118  0  0
  -18.1797  -26.7818   22.1673 C   0  0  0  0  0  0  0  0  0119  0  0
  -19.1385  -28.8769   23.2988 C   0  0  0  0  0  0  0  0  0120  0  0
  -18.9183  -30.1286   23.8878 C   0  0  0  0  0  0  0  0  0121  0  0
  -17.6396  -30.6493   24.0352 C   0  0  0  0  0  0  0  0  0122  0  0
  -25.9153  -34.9582   23.4993 C   0  0  0  0  0  0  0  0  0123  0  0
  -16.5415  -29.9068   23.6254 C   0  0  0  0  0  0  0  0  0124  0  0
  -16.7331  -28.6521   23.0586 C   0  0  0  0  0  0  0  0  0125  0  0
  -26.4583  -31.6439   25.0683 C   0  0  0  0  0  0  0  0  0126  0  0
  -25.3807  -31.3179   26.1374 C   0  0  0  0  0  0  0  0  0127  0  0
  -27.0530  -30.3024   24.5680 C   0  0  0  0  0  0  0  0  0128  0  0
  -27.6014  -32.4281   25.7651 C   0  0  0  0  0  0  0  0  0129  0  0
  -27.5629  -37.2220   24.8621 C   0  0  0  0  0  0  0  0  0130  0  0
  -21.4133  -29.3375   22.3735 N   0  0  0  0  0  0  0  0  0131  0  0
  -26.4706  -37.3372   23.9061 N   0  0  0  0  0  0  0  0  0132  0  0
  -24.6674  -31.0544   22.1178 N   0  0  0  0  0  0  0  0  0133  0  0
  -23.4259  -28.8150   23.2971 O   0  0  0  0  0  0  0  0  0134  0  0
  -28.3948  -26.7345   20.0089 O   0  0  0  0  0  0  0  0  0135  0  0
  -26.5870  -34.9065   22.4671 O   0  0  0  0  0  0  0  0  0136  0  0
  -23.5365  -32.1254   23.7833 O   0  0  0  0  0  0  0  0  0137  0  0
  -19.2022  -23.4087   19.8090 C   0  0  0  0  0  0  0  0  0  0  0  0
  -18.8347  -24.6445   20.3413 C   0  0  0  0  0  0  0  0  0  0  0  0
  -20.4194  -24.3412   22.1396 C   0  0  0  0  0  0  0  0  0  0  0  0
  -20.1783  -22.6391   20.4421 C   0  0  0  0  0  0  0  0  0  0  0  0
  -20.7869  -23.1054   21.6073 C   0  0  0  0  0  0  0  0  0  0  0  0
  -19.4433  -25.1108   21.5065 C   0  0  0  0  0  0  0  0  0  0  0  0
  -20.5519  -21.3193   19.8494 C   0  0  0  0  0  0  0  0  0  0  0  0
  -16.0909  -27.4753   23.7156 C   0  0  0  0  0  0  0  0  0  0  0  0
  -16.7376  -29.1573   21.1906 C   0  0  0  0  0  0  0  0  0  0  0  0
  -17.3776  -28.2589   23.4853 C   0  0  0  0  0  0  0  0  0  0  0  0
  -19.1188  -29.2685   22.0057 C   0  0  0  0  0  0  0  0  0  1  0  0
  -18.0808  -27.0519   21.3286 C   0  0  0  0  0  0  0  0  0  0  0  0
  -17.8205  -28.4192   22.0027 C   0  0  2  0  0  0  0  0  0  0  0  0
  -21.7804  -22.3385   22.2649 N   0  0  0  0  0  0  0  0  0  0  0  0
  -19.0820  -26.3250   22.0291 O   0  0  0  0  0  0  0  0  0  0  0  0
  -31.4485  -12.4701   19.0860 H   0  0  0  0  0  0  0  0  0  0  0  0
  -30.3970  -11.2460   19.6950 H   0  0  0  0  0  0  0  0  0  0  0  0
  -29.6870  -11.8204   17.4226 H   0  0  0  0  0  0  0  0  0  0  0  0
  -29.6375  -13.5326   17.8649 H   0  0  0  0  0  0  0  0  0  0  0  0
  -27.7830  -11.3650   18.7904 H   0  0  0  0  0  0  0  0  0  0  0  0
  -27.4028  -12.7801   17.8021 H   0  0  0  0  0  0  0  0  0  0  0  0
  -27.7353  -14.2503   19.6136 H   0  0  0  0  0  0  0  0  0  0  0  0
  -28.5890  -11.9550   21.3832 H   0  0  0  0  0  0  0  0  0  0  0  0
  -28.5005  -13.6134   21.8562 H   0  0  0  0  0  0  0  0  0  0  0  0
  -25.2399   -9.5495   22.4318 H   0  0  0  0  0  0  0  0  0  0  0  0
  -23.9663   -7.5070   22.7297 H   0  0  0  0  0  0  0  0  0  0  0  0
  -21.1515   -8.8641   19.9162 H   0  0  0  0  0  0  0  0  0  0  0  0
  -22.4016  -10.9115   19.6476 H   0  0  0  0  0  0  0  0  0  0  0  0
  -21.2319   -7.5552   23.9750 H   0  0  0  0  0  0  0  0  0  0  0  0
  -21.1589   -6.0228   25.8556 H   0  0  0  0  0  0  0  0  0  0  0  0
  -22.0396   -2.8212   23.2809 H   0  0  0  0  0  0  0  0  0  0  0  0
  -22.4401  -11.9703   22.4008 H   0  0  0  0  0  0  0  0  0  0  0  0
  -21.1493  -13.0679   22.2082 H   0  0  0  0  0  0  0  0  0  0  0  0
  -24.6538  -15.7807   20.5848 H   0  0  0  0  0  0  0  0  0  0  0  0
  -26.2762  -15.5453   20.1156 H   0  0  0  0  0  0  0  0  0  0  0  0
  -26.6778  -32.4663   23.1464 H   0  0  0  0  0  0  0  0  0  0  0  0
  -25.0747  -34.0282   25.0566 H   0  0  0  0  0  0  0  0  0  0  0  0
  -22.7881  -31.3489   21.4131 H   0  0  0  0  0  0  0  0  0  0  0  0
  -23.3854  -35.9823   23.3648 H   0  0  0  0  0  0  0  0  0  0  0  0
  -24.3696  -36.8624   22.2204 H   0  0  0  0  0  0  0  0  0  0  0  0
  -23.7669  -37.6632   23.6516 H   0  0  0  0  0  0  0  0  0  0  0  0
  -25.9445  -31.6237   20.5691 H   0  0  0  0  0  0  0  0  0  0  0  0
  -26.7436  -31.0079   22.0108 H   0  0  0  0  0  0  0  0  0  0  0  0
  -28.0090  -29.1452   21.2057 H   0  0  0  0  0  0  0  0  0  0  0  0
  -26.1369  -26.0560   19.0719 H   0  0  0  0  0  0  0  0  0  0  0  0
  -24.0652  -27.2961   19.0997 H   0  0  0  0  0  0  0  0  0  0  0  0
  -23.6156  -30.5365   19.3930 H   0  0  0  0  0  0  0  0  0  0  0  0
  -22.7355  -29.1425   19.9945 H   0  0  0  0  0  0  0  0  0  0  0  0
  -25.1353  -36.2335   25.0565 H   0  0  0  0  0  0  0  0  0  0  0  0
  -21.0070  -28.3206   24.0793 H   0  0  0  0  0  0  0  0  0  0  0  0
  -20.5555  -26.2518   23.3550 H   0  0  0  0  0  0  0  0  0  0  0  0
  -21.5974  -26.8362   22.0454 H   0  0  0  0  0  0  0  0  0  0  0  0
  -19.6810  -25.6422   21.1488 H   0  0  0  0  0  0  0  0  0  0  0  0
  -19.6406  -27.3343   20.7034 H   0  0  0  0  0  0  0  0  0  0  0  0
  -17.4282  -26.6888   21.4113 H   0  0  0  0  0  0  0  0  0  0  0  0
  -18.0803  -26.0130   22.9049 H   0  0  0  0  0  0  0  0  0  0  0  0
  -19.7265  -30.6774   24.2204 H   0  0  0  0  0  0  0  0  0  0  0  0
  -17.5064  -31.5856   24.4483 H   0  0  0  0  0  0  0  0  0  0  0  0
  -15.5878  -30.2839   23.7407 H   0  0  0  0  0  0  0  0  0  0  0  0
  -15.9120  -28.0941   22.7766 H   0  0  0  0  0  0  0  0  0  0  0  0
  -24.5787  -30.7757   25.6817 H   0  0  0  0  0  0  0  0  0  0  0  0
  -25.0041  -32.2289   26.5536 H   0  0  0  0  0  0  0  0  0  0  0  0
  -25.8166  -30.7245   26.9138 H   0  0  0  0  0  0  0  0  0  0  0  0
  -26.2892  -29.7335   24.0803 H   0  0  0  0  0  0  0  0  0  0  0  0
  -27.4336  -29.7484   25.4006 H   0  0  0  0  0  0  0  0  0  0  0  0
  -27.8466  -30.4994   23.8779 H   0  0  0  0  0  0  0  0  0  0  0  0
  -27.2251  -33.3632   26.1242 H   0  0  0  0  0  0  0  0  0  0  0  0
  -28.3902  -32.6065   25.0645 H   0  0  0  0  0  0  0  0  0  0  0  0
  -27.9772  -31.8555   26.5872 H   0  0  0  0  0  0  0  0  0  0  0  0
  -28.2744  -38.0016   24.6863 H   0  0  0  0  0  0  0  0  0  0  0  0
  -28.0396  -36.2711   24.7461 H   0  0  0  0  0  0  0  0  0  0  0  0
  -27.1773  -37.3087   25.8564 H   0  0  0  0  0  0  0  0  0  0  0  0
  -20.9627  -29.9365   21.7352 H   0  0  0  0  0  0  0  0  0  0  0  0
  -26.0447  -38.2561   24.0273 H   0  0  0  0  0  0  0  0  0  0  0  0
  -18.7520  -23.0637   18.9468 H   0  0  0  0  0  0  0  0  0  0  0  0
  -18.1125  -25.2138   19.8730 H   0  0  0  0  0  0  0  0  0  0  0  0
  -20.8696  -24.6862   23.0018 H   0  0  0  0  0  0  0  0  0  0  0  0
  -19.9741  -21.1491   18.9651 H   0  0  0  0  0  0  0  0  0  0  0  0
  -20.3566  -20.5419   20.5582 H   0  0  0  0  0  0  0  0  0  0  0  0
  -21.5925  -21.3218   19.6005 H   0  0  0  0  0  0  0  0  0  0  0  0
  -15.8846  -27.4286   24.7645 H   0  0  0  0  0  0  0  0  0  0  0  0
  -16.2033  -26.4837   23.3297 H   0  0  0  0  0  0  0  0  0  0  0  0
  -15.2814  -27.9635   23.2143 H   0  0  0  0  0  0  0  0  0  0  0  0
  -16.5410  -30.1082   21.6400 H   0  0  0  0  0  0  0  0  0  0  0  0
  -15.8400  -28.5749   21.1810 H   0  0  0  0  0  0  0  0  0  0  0  0
  -17.0802  -29.3010   20.1872 H   0  0  0  0  0  0  0  0  0  0  0  0
  -18.1644  -27.7584   24.0100 H   0  0  0  0  0  0  0  0  0  0  0  0
  -17.1794  -29.2500   23.8366 H   0  0  0  0  0  0  0  0  0  0  0  0
  -19.1667  -29.6647   22.9985 H   0  0  0  0  0  0  0  0  0  0  0  0
  -18.9286  -29.8117   21.1037 H   0  0  0  0  0  0  0  0  0  0  0  0
  -18.4047  -27.2134   20.3217 H   0  0  0  0  0  0  0  0  0  0  0  0
  -17.1734  -26.4851   21.3421 H   0  0  0  0  0  0  0  0  0  0  0  0
  -21.7157  -22.5275   23.2289 H   0  0  0  0  0  0  0  0  0  0  0  0
  1 25  1  0
  1 30  2  0
  1 84  1  0
  2  3  1  0
  2 25  1  0
  2 86  1  0
  2 87  1  0
  3  4  1  0
  3 88  1  0
  3 89  1  0
  4  5  1  0
  4 90  1  0
  4 91  1  0
  5  6  1  0
  5 26  1  0
  5 92  1  6
  6 25  1  0
  6 93  1  0
  6 94  1  0
  7  8  2  0
  7 26  1  0
  7 29  1  0
  8  9  1  0
  8 22  1  0
  9 10  1  0
  9 27  2  0
 10 11  2  0
 10 15  1  0
 11 12  1  0
 11 95  1  0
 12 13  2  0
 12 96  1  0
 13 14  1  0
 13 31  1  0
 14 15  2  0
 14 97  1  0
 15 98  1  0
 16 17  2  0
 16 21  1  0
 16 31  1  0
 17 18  1  0
 17 99  1  0
 18 19  2  0
 18100  1  0
 19 20  1  0
 19 24  1  0
 20 21  2  0
 20101  1  0
 21 23  1  0
 22 28  1  0
 22 32  2  0
 26 27  1  0
 28102  1  0
 28103  1  0
 29104  1  0
 29105  1  0
 33 34  1  0
 33 66  1  0
 33 70  2  0
 34 36  1  0
 34 59  1  0
 34106  1  6
 35 44  2  0
 35 45  1  0
 35 68  1  0
 36 56  1  0
 36107  1  0
 37 39  1  0
 37 47  1  0
 37 66  1  0
 37108  1  6
 38 43  2  0
 38 46  1  0
 38 47  1  0
 39 64  1  0
 39 67  2  0
 40 52  1  0
 40 53  2  0
 40 58  1  0
 41109  1  0
 41110  1  0
 41111  1  0
 42 43  1  0
 42 66  1  0
 42112  1  0
 42113  1  0
 43 44  1  0
 44114  1  0
 45 46  2  0
 45115  1  0
 46116  1  0
 47117  1  0
 47118  1  0
 48 41  1  0
 48 56  1  0
 48 65  1  0
 48119  1  1
 49 50  1  0
 49 53  1  0
 49 64  1  0
 49120  1  1
 50 51  1  0
 50121  1  0
 50122  1  0
 51 52  1  0
 51123  1  0
 51124  1  0
 52125  1  0
 52126  1  0
 53 54  1  0
 54 55  2  0
 54127  1  0
 55 57  1  0
 55128  1  0
 56 69  2  0
 57 58  2  0
 57129  1  0
 58130  1  0
 59 60  1  0
 59 61  1  0
 59 62  1  0
 60131  1  0
 60132  1  0
 60133  1  0
 61134  1  0
 61135  1  0
 61136  1  0
 62137  1  0
 62138  1  0
 62139  1  0
 63 65  1  0
 63140  1  0
 63141  1  0
 63142  1  0
 64143  1  0
 65144  1  0
 68 81  1  0
 71 72  2  0
 71 74  1  0
 71145  1  0
 72 76  1  0
 72146  1  0
 73 75  1  0
 73 76  2  0
 73147  1  0
 74 75  2  0
 74 77  1  0
 75 84  1  0
 76 85  1  0
 77148  1  0
 77149  1  0
 77150  1  0
 78 80  1  0
 78151  1  0
 78152  1  0
 78153  1  0
 79154  1  0
 79155  1  0
 79156  1  0
 83 80  1  1
 80157  1  0
 80158  1  0
 81 83  1  0
 81159  1  0
 81160  1  0
 82 83  1  0
 82 85  1  0
 82161  1  0
 82162  1  0
 83 79  1  0
 84163  1  0
M  ISO  4   1 100  68 101  81 101  84 100
M  END
$$$$
56
     RDKit          3D

173181  0  0  0  0  0  0  0  0999 V2000
  -30.7652  -14.3608   20.6636 C   0  0  0  0  0  0  0  0  0100  0  0
  -30.4392  -12.2669   19.3775 C   0  0  0  0  0  0  0  0  0101  0  0
  -29.4791  -12.5281   18.1977 C   0  0  0  0  0  0  0  0  0102  0  0
  -27.9985  -12.3963   18.6038 C   0  0  0  0  0  0  0  0  0103  0  0
  -27.6639  -13.2170   19.8820 C   0  0  2  0  0  0  0  0  0104  0  0
  -28.6795  -12.9602   21.0279 C   0  0  0  0  0  0  0  0  0105  0  0
  -25.2633  -13.8245   20.5754 C   0  0  0  0  0  0  0  0  0106  0  0
  -24.1645  -13.0409   20.9408 C   0  0  0  0  0  0  0  0  0107  0  0
  -24.6400  -11.7009   20.8697 C   0  0  0  0  0  0  0  0  0108  0  0
  -23.9005  -10.4085   21.0420 C   0  0  0  0  0  0  0  0  0109  0  0
  -24.3588   -9.4123   21.9123 C   0  0  0  0  0  0  0  0  0110  0  0
  -23.6296   -8.2350   22.0803 C   0  0  0  0  0  0  0  0  0111  0  0
  -22.4385   -8.0419   21.3657 C   0  0  0  0  0  0  0  0  0112  0  0
  -22.0103   -9.0167   20.4678 C   0  0  0  0  0  0  0  0  0113  0  0
  -22.7317  -10.1925   20.3102 C   0  0  0  0  0  0  0  0  0114  0  0
  -21.6857   -6.0709   22.5391 C   0  0  0  0  0  0  0  0  0115  0  0
  -21.4064   -6.5490   23.8264 C   0  0  0  0  0  0  0  0  0116  0  0
  -21.3635   -5.6677   24.9085 C   0  0  0  0  0  0  0  0  0117  0  0
  -21.5973   -4.3067   24.7088 C   0  0  0  0  0  0  0  0  0118  0  0
  -21.8700   -3.8284   23.4282 C   0  0  0  0  0  0  0  0  0119  0  0
  -21.9144   -4.7056   22.3460 C   0  0  0  0  0  0  0  0  0120  0  0
  -22.8194  -13.5263   21.1763 C   0  0  0  0  0  0  0  0  0121  0  0
  -22.1559   -4.2206   21.1063 F   0  0  0  0  0  0  0  0  0122  0  0
  -21.5628   -3.4510   25.7555 F   0  0  0  0  0  0  0  0  0123  0  0
  -30.0261  -13.1803   20.4553 N   0  0  0  0  0  0  0  0  0124  0  0
  -26.2911  -12.9356   20.3443 N   0  0  0  0  0  0  0  0  0125  0  0
  -25.9236  -11.6675   20.5847 N   0  0  0  0  0  0  0  0  0126  0  0
  -22.0708  -12.7905   22.0005 N   0  0  0  0  0  0  0  0  0127  0  0
  -25.4117  -15.1773   20.4097 N   0  0  0  0  0  0  0  0  0128  0  0
  -31.7916  -14.6724   20.0536 O   0  0  0  0  0  0  0  0  0129  0  0
  -21.6670   -6.9022   21.4423 O   0  0  0  0  0  0  0  0  0130  0  0
  -22.3946  -14.5564   20.6568 O   0  0  0  0  0  0  0  0  0131  0  0
  -24.6048  -31.8614   23.2223 C   0  0  0  0  0  0  0  0  0100  0  0
  -25.8822  -32.4841   23.8616 C   0  0  1  0  0  0  0  0  0101  0  0
  -27.2536  -27.5042   20.1156 C   0  0  0  0  0  0  0  0  0102  0  0
  -25.5726  -33.8762   24.2210 N   0  0  0  0  0  0  0  0  0103  0  0
  -23.4066  -30.4859   21.5461 C   0  0  2  0  0  0  0  0  0104  0  0
  -24.8467  -28.9636   20.1247 C   0  0  0  0  0  0  0  0  0105  0  0
  -22.7412  -29.4652   22.5052 C   0  0  0  0  0  0  0  0  0106  0  0
  -18.0167  -28.1302   22.8626 C   0  0  0  0  0  0  0  0  0107  0  0
  -24.1342  -36.7390   23.2568 C   0  0  0  0  0  0  0  0  0108  0  0
  -25.9141  -30.8882   21.3456 C   0  0  0  0  0  0  0  0  0109  0  0
  -25.9930  -29.5029   20.7208 C   0  0  0  0  0  0  0  0  0110  0  0
  -27.1758  -28.7612   20.7331 C   0  0  0  0  0  0  0  0  0111  0  0
  -26.1032  -26.9836   19.5230 C   0  0  0  0  0  0  0  0  0112  0  0
  -24.9097  -27.7011   19.5331 C   0  0  0  0  0  0  0  0  0113  0  0
  -23.5715  -29.7899   20.1582 C   0  0  0  0  0  0  0  0  0114  0  0
  -25.3990  -36.3212   24.0232 C   0  0  1  0  0  0  0  0  0115  0  0
  -20.5793  -28.3813   23.1004 C   0  0  2  0  0  0  0  0  0116  0  0
  -20.6548  -26.9392   22.5411 C   0  0  0  0  0  0  0  0  0117  0  0
  -19.5615  -26.6407   21.5143 C   0  0  0  0  0  0  0  0  0118  0  0
  -18.1797  -26.7818   22.1673 C   0  0  0  0  0  0  0  0  0119  0  0
  -19.1385  -28.8769   23.2988 C   0  0  0  0  0  0  0  0  0120  0  0
  -18.9183  -30.1286   23.8878 C   0  0  0  0  0  0  0  0  0121  0  0
  -17.6396  -30.6493   24.0352 C   0  0  0  0  0  0  0  0  0122  0  0
  -25.9153  -34.9582   23.4993 C   0  0  0  0  0  0  0  0  0123  0  0
  -16.5415  -29.9068   23.6254 C   0  0  0  0  0  0  0  0  0124  0  0
  -16.7331  -28.6521   23.0586 C   0  0  0  0  0  0  0  0  0125  0  0
  -26.4583  -31.6439   25.0683 C   0  0  0  0  0  0  0  0  0126  0  0
  -25.3807  -31.3179   26.1374 C   0  0  0  0  0  0  0  0  0127  0  0
  -27.0530  -30.3024   24.5680 C   0  0  0  0  0  0  0  0  0128  0  0
  -27.6014  -32.4281   25.7651 C   0  0  0  0  0  0  0  0  0129  0  0
  -27.5629  -37.2220   24.8621 C   0  0  0  0  0  0  0  0  0130  0  0
  -21.4133  -29.3375   22.3735 N   0  0  0  0  0  0  0  0  0131  0  0
  -26.4706  -37.3372   23.9061 N   0  0  0  0  0  0  0  0  0132  0  0
  -24.6674  -31.0544   22.1178 N   0  0  0  0  0  0  0  0  0133  0  0
  -23.4259  -28.8150   23.2971 O   0  0  0  0  0  0  0  0  0134  0  0
  -28.3948  -26.7345   20.0089 O   0  0  0  0  0  0  0  0  0135  0  0
  -26.5870  -34.9065   22.4671 O   0  0  0  0  0  0  0  0  0136  0  0
  -23.5365  -32.1254   23.7833 O   0  0  0  0  0  0  0  0  0137  0  0
  -29.0756  -17.7148   23.4927 C   0  0  0  0  0  0  0  0  0  0  0  0
  -31.3302  -17.3814   24.2943 C   0  0  0  0  0  0  0  0  0  0  0  0
  -30.3980  -17.3383   23.2576 C   0  0  0  0  0  0  0  0  0  0  0  0
  -28.6855  -18.1345   24.7644 C   0  0  0  0  0  0  0  0  0  0  0  0
  -29.6177  -18.1777   25.8011 C   0  0  0  0  0  0  0  0  0  0  0  0
  -30.9401  -17.8011   25.5661 C   0  0  0  0  0  0  0  0  0  0  0  0
  -29.0179  -17.4618   28.1280 C   0  0  0  0  0  0  0  0  0  0  0  0
  -27.6592  -22.4369   24.5049 C   0  0  0  0  0  0  0  0  0  0  0  0
  -30.6093  -17.9717   20.8254 C   0  0  0  0  0  0  0  0  0  0  0  0
  -25.5283  -20.4141   25.2269 C   0  0  0  0  0  0  0  0  0  0  0  0
  -27.2458  -18.5374   24.9921 C   0  0  0  0  0  0  0  0  0  0  0  0
  -29.1951  -18.6294   27.1638 C   0  0  0  0  0  0  0  0  0  0  0  0
  -27.9280  -20.9884   24.8962 C   0  0  0  0  0  0  0  0  0  0  0  0
  -26.5674  -19.9626   22.9807 C   0  0  0  0  0  0  0  0  0  1  0  0
  -30.8152  -16.8915   21.8974 C   0  0  2  0  0  0  0  0  0  0  0  0
  -26.8197  -19.9583   24.5074 C   0  0  2  0  0  0  0  0  0  0  0  0
  -31.8984  -17.8368   26.6029 N   0  0  0  0  0  0  0  0  0  0  0  0
  -30.1492  -15.6705   21.5019 N   0  0  0  0  0  0  0  0  0  0  0  0
  -31.4485  -12.4701   19.0860 H   0  0  0  0  0  0  0  0  0  0  0  0
  -30.3970  -11.2460   19.6950 H   0  0  0  0  0  0  0  0  0  0  0  0
  -29.6870  -11.8204   17.4226 H   0  0  0  0  0  0  0  0  0  0  0  0
  -29.6375  -13.5326   17.8649 H   0  0  0  0  0  0  0  0  0  0  0  0
  -27.7830  -11.3650   18.7904 H   0  0  0  0  0  0  0  0  0  0  0  0
  -27.4028  -12.7801   17.8021 H   0  0  0  0  0  0  0  0  0  0  0  0
  -27.7353  -14.2503   19.6136 H   0  0  0  0  0  0  0  0  0  0  0  0
  -28.5890  -11.9550   21.3832 H   0  0  0  0  0  0  0  0  0  0  0  0
  -28.5005  -13.6134   21.8562 H   0  0  0  0  0  0  0  0  0  0  0  0
  -25.2399   -9.5495   22.4318 H   0  0  0  0  0  0  0  0  0  0  0  0
  -23.9663   -7.5070   22.7297 H   0  0  0  0  0  0  0  0  0  0  0  0
  -21.1515   -8.8641   19.9162 H   0  0  0  0  0  0  0  0  0  0  0  0
  -22.4016  -10.9115   19.6476 H   0  0  0  0  0  0  0  0  0  0  0  0
  -21.2319   -7.5552   23.9750 H   0  0  0  0  0  0  0  0  0  0  0  0
  -21.1589   -6.0228   25.8556 H   0  0  0  0  0  0  0  0  0  0  0  0
  -22.0396   -2.8212   23.2809 H   0  0  0  0  0  0  0  0  0  0  0  0
  -22.4401  -11.9703   22.4008 H   0  0  0  0  0  0  0  0  0  0  0  0
  -21.1493  -13.0679   22.2082 H   0  0  0  0  0  0  0  0  0  0  0  0
  -24.6538  -15.7807   20.5848 H   0  0  0  0  0  0  0  0  0  0  0  0
  -26.2762  -15.5453   20.1156 H   0  0  0  0  0  0  0  0  0  0  0  0
  -26.6778  -32.4663   23.1464 H   0  0  0  0  0  0  0  0  0  0  0  0
  -25.0747  -34.0282   25.0566 H   0  0  0  0  0  0  0  0  0  0  0  0
  -22.7881  -31.3489   21.4131 H   0  0  0  0  0  0  0  0  0  0  0  0
  -23.3854  -35.9823   23.3648 H   0  0  0  0  0  0  0  0  0  0  0  0
  -24.3696  -36.8624   22.2204 H   0  0  0  0  0  0  0  0  0  0  0  0
  -23.7669  -37.6632   23.6516 H   0  0  0  0  0  0  0  0  0  0  0  0
  -25.9445  -31.6237   20.5691 H   0  0  0  0  0  0  0  0  0  0  0  0
  -26.7436  -31.0079   22.0108 H   0  0  0  0  0  0  0  0  0  0  0  0
  -28.0090  -29.1452   21.2057 H   0  0  0  0  0  0  0  0  0  0  0  0
  -26.1369  -26.0560   19.0719 H   0  0  0  0  0  0  0  0  0  0  0  0
  -24.0652  -27.2961   19.0997 H   0  0  0  0  0  0  0  0  0  0  0  0
  -23.6156  -30.5365   19.3930 H   0  0  0  0  0  0  0  0  0  0  0  0
  -22.7355  -29.1425   19.9945 H   0  0  0  0  0  0  0  0  0  0  0  0
  -25.1353  -36.2335   25.0565 H   0  0  0  0  0  0  0  0  0  0  0  0
  -21.0070  -28.3206   24.0793 H   0  0  0  0  0  0  0  0  0  0  0  0
  -20.5555  -26.2518   23.3550 H   0  0  0  0  0  0  0  0  0  0  0  0
  -21.5974  -26.8362   22.0454 H   0  0  0  0  0  0  0  0  0  0  0  0
  -19.6810  -25.6422   21.1488 H   0  0  0  0  0  0  0  0  0  0  0  0
  -19.6406  -27.3343   20.7034 H   0  0  0  0  0  0  0  0  0  0  0  0
  -17.4282  -26.6888   21.4113 H   0  0  0  0  0  0  0  0  0  0  0  0
  -18.0803  -26.0130   22.9049 H   0  0  0  0  0  0  0  0  0  0  0  0
  -19.7265  -30.6774   24.2204 H   0  0  0  0  0  0  0  0  0  0  0  0
  -17.5064  -31.5856   24.4483 H   0  0  0  0  0  0  0  0  0  0  0  0
  -15.5878  -30.2839   23.7407 H   0  0  0  0  0  0  0  0  0  0  0  0
  -15.9120  -28.0941   22.7766 H   0  0  0  0  0  0  0  0  0  0  0  0
  -24.5787  -30.7757   25.6817 H   0  0  0  0  0  0  0  0  0  0  0  0
  -25.0041  -32.2289   26.5536 H   0  0  0  0  0  0  0  0  0  0  0  0
  -25.8166  -30.7245   26.9138 H   0  0  0  0  0  0  0  0  0  0  0  0
  -26.2892  -29.7335   24.0803 H   0  0  0  0  0  0  0  0  0  0  0  0
  -27.4336  -29.7484   25.4006 H   0  0  0  0  0  0  0  0  0  0  0  0
  -27.8466  -30.4994   23.8779 H   0  0  0  0  0  0  0  0  0  0  0  0
  -27.2251  -33.3632   26.1242 H   0  0  0  0  0  0  0  0  0  0  0  0
  -28.3902  -32.6065   25.0645 H   0  0  0  0  0  0  0  0  0  0  0  0
  -27.9772  -31.8555   26.5872 H   0  0  0  0  0  0  0  0  0  0  0  0
  -28.2744  -38.0016   24.6863 H   0  0  0  0  0  0  0  0  0  0  0  0
  -28.0396  -36.2711   24.7461 H   0  0  0  0  0  0  0  0  0  0  0  0
  -27.1773  -37.3087   25.8564 H   0  0  0  0  0  0  0  0  0  0  0  0
  -20.9627  -29.9365   21.7352 H   0  0  0  0  0  0  0  0  0  0  0  0
  -26.0447  -38.2561   24.0273 H   0  0  0  0  0  0  0  0  0  0  0  0
  -28.3859  -17.6828   22.7257 H   0  0  0  0  0  0  0  0  0  0  0  0
  -32.3085  -17.1028   24.1204 H   0  0  0  0  0  0  0  0  0  0  0  0
  -28.7166  -17.8325   29.0855 H   0  0  0  0  0  0  0  0  0  0  0  0
  -29.9444  -16.9354   28.2248 H   0  0  0  0  0  0  0  0  0  0  0  0
  -28.2683  -16.7981   27.7505 H   0  0  0  0  0  0  0  0  0  0  0  0
  -28.4788  -23.0491   24.8186 H   0  0  0  0  0  0  0  0  0  0  0  0
  -26.7608  -22.7735   24.9787 H   0  0  0  0  0  0  0  0  0  0  0  0
  -27.5493  -22.5049   23.4427 H   0  0  0  0  0  0  0  0  0  0  0  0
  -31.1049  -18.8712   21.1257 H   0  0  0  0  0  0  0  0  0  0  0  0
  -29.5631  -18.1630   20.7082 H   0  0  0  0  0  0  0  0  0  0  0  0
  -31.0164  -17.6335   19.8955 H   0  0  0  0  0  0  0  0  0  0  0  0
  -25.6907  -20.4152   26.2845 H   0  0  0  0  0  0  0  0  0  0  0  0
  -24.7311  -19.7412   24.9891 H   0  0  0  0  0  0  0  0  0  0  0  0
  -25.2699  -21.4012   24.9047 H   0  0  0  0  0  0  0  0  0  0  0  0
  -27.0595  -18.4866   26.0445 H   0  0  0  0  0  0  0  0  0  0  0  0
  -26.6711  -17.8584   24.3975 H   0  0  0  0  0  0  0  0  0  0  0  0
  -28.2651  -19.1519   27.0807 H   0  0  0  0  0  0  0  0  0  0  0  0
  -29.9642  -19.2632   27.5531 H   0  0  0  0  0  0  0  0  0  0  0  0
  -28.0497  -20.9533   25.9587 H   0  0  0  0  0  0  0  0  0  0  0  0
  -28.7987  -20.6974   24.3465 H   0  0  0  0  0  0  0  0  0  0  0  0
  -25.5330  -19.7630   22.7936 H   0  0  0  0  0  0  0  0  0  0  0  0
  -27.1752  -19.2084   22.5261 H   0  0  0  0  0  0  0  0  0  0  0  0
  -31.8657  -16.7010   21.9688 H   0  0  0  0  0  0  0  0  0  0  0  0
  -32.8284  -17.5683   26.4231 H   0  0  0  0  0  0  0  0  0  0  0  0
  -31.6365  -18.1302   27.5054 H   0  0  0  0  0  0  0  0  0  0  0  0
  -29.2023  -15.6004   21.7620 H   0  0  0  0  0  0  0  0  0  0  0  0
  1 25  1  0
  1 30  2  0
  1 88  1  0
  2  3  1  0
  2 25  1  0
  2 89  1  0
  2 90  1  0
  3  4  1  0
  3 91  1  0
  3 92  1  0
  4  5  1  0
  4 93  1  0
  4 94  1  0
  5  6  1  0
  5 26  1  0
  5 95  1  6
  6 25  1  0
  6 96  1  0
  6 97  1  0
  7  8  2  0
  7 26  1  0
  7 29  1  0
  8  9  1  0
  8 22  1  0
  9 10  1  0
  9 27  2  0
 10 11  2  0
 10 15  1  0
 11 12  1  0
 11 98  1  0
 12 13  2  0
 12 99  1  0
 13 14  1  0
 13 31  1  0
 14 15  2  0
 14100  1  0
 15101  1  0
 16 17  2  0
 16 21  1  0
 16 31  1  0
 17 18  1  0
 17102  1  0
 18 19  2  0
 18103  1  0
 19 20  1  0
 19 24  1  0
 20 21  2  0
 20104  1  0
 21 23  1  0
 22 28  1  0
 22 32  2  0
 26 27  1  0
 28105  1  0
 28106  1  0
 29107  1  0
 29108  1  0
 33 34  1  0
 33 66  1  0
 33 70  2  0
 34 36  1  0
 34 59  1  0
 34109  1  6
 35 44  2  0
 35 45  1  0
 35 68  1  0
 36 56  1  0
 36110  1  0
 37 39  1  0
 37 47  1  0
 37 66  1  0
 37111  1  6
 38 43  2  0
 38 46  1  0
 38 47  1  0
 39 64  1  0
 39 67  2  0
 40 52  1  0
 40 53  2  0
 40 58  1  0
 41112  1  0
 41113  1  0
 41114  1  0
 42 43  1  0
 42 66  1  0
 42115  1  0
 42116  1  0
 43 44  1  0
 44117  1  0
 45 46  2  0
 45118  1  0
 46119  1  0
 47120  1  0
 47121  1  0
 48 41  1  0
 48 56  1  0
 48 65  1  0
 48122  1  1
 49 50  1  0
 49 53  1  0
 49 64  1  0
 49123  1  1
 50 51  1  0
 50124  1  0
 50125  1  0
 51 52  1  0
 51126  1  0
 51127  1  0
 52128  1  0
 52129  1  0
 53 54  1  0
 54 55  2  0
 54130  1  0
 55 57  1  0
 55131  1  0
 56 69  2  0
 57 58  2  0
 57132  1  0
 58133  1  0
 59 60  1  0
 59 61  1  0
 59 62  1  0
 60134  1  0
 60135  1  0
 60136  1  0
 61137  1  0
 61138  1  0
 61139  1  0
 62140  1  0
 62141  1  0
 62142  1  0
 63 65  1  0
 63143  1  0
 63144  1  0
 63145  1  0
 64146  1  0
 65147  1  0
 68 84  1  0
 71 73  2  0
 71 74  1  0
 71148  1  0
 72 73  1  0
 72 76  2  0
 72149  1  0
 73 85  1  0
 74 75  2  0
 74 81  1  0
 75 76  1  0
 75 82  1  0
 76 87  1  0
 77 82  1  0
 77150  1  0
 77151  1  0
 77152  1  0
 78 83  1  0
 78153  1  0
 78154  1  0
 78155  1  0
 79156  1  0
 79157  1  0
 79158  1  0
 80159  1  0
 80160  1  0
 80161  1  0
 86 81  1  1
 81162  1  0
 81163  1  0
 82164  1  0
 82165  1  0
 83 86  1  0
 83166  1  0
 83167  1  0
 84 86  1  0
 84168  1  0
 84169  1  0
 85 79  1  0
 85 88  1  0
 85170  1  1
 86 80  1  0
 87171  1  0
 87172  1  0
 88173  1  0
M  ISO  4   1 100  68 101  84 101  88 100
M  END
$$$$
57
     RDKit          3D

160168  0  0  0  0  0  0  0  0999 V2000
  -30.7652  -14.3608   20.6636 C   0  0  0  0  0  0  0  0  0100  0  0
  -30.4392  -12.2669   19.3775 C   0  0  0  0  0  0  0  0  0101  0  0
  -29.4791  -12.5281   18.1977 C   0  0  0  0  0  0  0  0  0102  0  0
  -27.9985  -12.3963   18.6038 C   0  0  0  0  0  0  0  0  0103  0  0
  -27.6639  -13.2170   19.8820 C   0  0  2  0  0  0  0  0  0104  0  0
  -28.6795  -12.9602   21.0279 C   0  0  0  0  0  0  0  0  0105  0  0
  -25.2633  -13.8245   20.5754 C   0  0  0  0  0  0  0  0  0106  0  0
  -24.1645  -13.0409   20.9408 C   0  0  0  0  0  0  0  0  0107  0  0
  -24.6400  -11.7009   20.8697 C   0  0  0  0  0  0  0  0  0108  0  0
  -23.9005  -10.4085   21.0420 C   0  0  0  0  0  0  0  0  0109  0  0
  -24.3588   -9.4123   21.9123 C   0  0  0  0  0  0  0  0  0110  0  0
  -23.6296   -8.2350   22.0803 C   0  0  0  0  0  0  0  0  0111  0  0
  -22.4385   -8.0419   21.3657 C   0  0  0  0  0  0  0  0  0112  0  0
  -22.0103   -9.0167   20.4678 C   0  0  0  0  0  0  0  0  0113  0  0
  -22.7317  -10.1925   20.3102 C   0  0  0  0  0  0  0  0  0114  0  0
  -21.6857   -6.0709   22.5391 C   0  0  0  0  0  0  0  0  0115  0  0
  -21.4064   -6.5490   23.8264 C   0  0  0  0  0  0  0  0  0116  0  0
  -21.3635   -5.6677   24.9085 C   0  0  0  0  0  0  0  0  0117  0  0
  -21.5973   -4.3067   24.7088 C   0  0  0  0  0  0  0  0  0118  0  0
  -21.8700   -3.8284   23.4282 C   0  0  0  0  0  0  0  0  0119  0  0
  -21.9144   -4.7056   22.3460 C   0  0  0  0  0  0  0  0  0120  0  0
  -22.8194  -13.5263   21.1763 C   0  0  0  0  0  0  0  0  0121  0  0
  -22.1559   -4.2206   21.1063 F   0  0  0  0  0  0  0  0  0122  0  0
  -21.5628   -3.4510   25.7555 F   0  0  0  0  0  0  0  0  0123  0  0
  -30.0261  -13.1803   20.4553 N   0  0  0  0  0  0  0  0  0124  0  0
  -26.2911  -12.9356   20.3443 N   0  0  0  0  0  0  0  0  0125  0  0
  -25.9236  -11.6675   20.5847 N   0  0  0  0  0  0  0  0  0126  0  0
  -22.0708  -12.7905   22.0005 N   0  0  0  0  0  0  0  0  0127  0  0
  -25.4117  -15.1773   20.4097 N   0  0  0  0  0  0  0  0  0128  0  0
  -31.7916  -14.6724   20.0536 O   0  0  0  0  0  0  0  0  0129  0  0
  -21.6670   -6.9022   21.4423 O   0  0  0  0  0  0  0  0  0130  0  0
  -22.3946  -14.5564   20.6568 O   0  0  0  0  0  0  0  0  0131  0  0
  -24.6048  -31.8614   23.2223 C   0  0  0  0  0  0  0  0  0100  0  0
  -25.8822  -32.4841   23.8616 C   0  0  1  0  0  0  0  0  0101  0  0
  -27.2536  -27.5042   20.1156 C   0  0  0  0  0  0  0  0  0102  0  0
  -25.5726  -33.8762   24.2210 N   0  0  0  0  0  0  0  0  0103  0  0
  -23.4066  -30.4859   21.5461 C   0  0  2  0  0  0  0  0  0104  0  0
  -24.8467  -28.9636   20.1247 C   0  0  0  0  0  0  0  0  0105  0  0
  -22.7412  -29.4652   22.5052 C   0  0  0  0  0  0  0  0  0106  0  0
  -18.0167  -28.1302   22.8626 C   0  0  0  0  0  0  0  0  0107  0  0
  -24.1342  -36.7390   23.2568 C   0  0  0  0  0  0  0  0  0108  0  0
  -25.9141  -30.8882   21.3456 C   0  0  0  0  0  0  0  0  0109  0  0
  -25.9930  -29.5029   20.7208 C   0  0  0  0  0  0  0  0  0110  0  0
  -27.1758  -28.7612   20.7331 C   0  0  0  0  0  0  0  0  0111  0  0
  -26.1032  -26.9836   19.5230 C   0  0  0  0  0  0  0  0  0112  0  0
  -24.9097  -27.7011   19.5331 C   0  0  0  0  0  0  0  0  0113  0  0
  -23.5715  -29.7899   20.1582 C   0  0  0  0  0  0  0  0  0114  0  0
  -25.3990  -36.3212   24.0232 C   0  0  1  0  0  0  0  0  0115  0  0
  -20.5793  -28.3813   23.1004 C   0  0  2  0  0  0  0  0  0116  0  0
  -20.6548  -26.9392   22.5411 C   0  0  0  0  0  0  0  0  0117  0  0
  -19.5615  -26.6407   21.5143 C   0  0  0  0  0  0  0  0  0118  0  0
  -18.1797  -26.7818   22.1673 C   0  0  0  0  0  0  0  0  0119  0  0
  -19.1385  -28.8769   23.2988 C   0  0  0  0  0  0  0  0  0120  0  0
  -18.9183  -30.1286   23.8878 C   0  0  0  0  0  0  0  0  0121  0  0
  -17.6396  -30.6493   24.0352 C   0  0  0  0  0  0  0  0  0122  0  0
  -25.9153  -34.9582   23.4993 C   0  0  0  0  0  0  0  0  0123  0  0
  -16.5415  -29.9068   23.6254 C   0  0  0  0  0  0  0  0  0124  0  0
  -16.7331  -28.6521   23.0586 C   0  0  0  0  0  0  0  0  0125  0  0
  -26.4583  -31.6439   25.0683 C   0  0  0  0  0  0  0  0  0126  0  0
  -25.3807  -31.3179   26.1374 C   0  0  0  0  0  0  0  0  0127  0  0
  -27.0530  -30.3024   24.5680 C   0  0  0  0  0  0  0  0  0128  0  0
  -27.6014  -32.4281   25.7651 C   0  0  0  0  0  0  0  0  0129  0  0
  -27.5629  -37.2220   24.8621 C   0  0  0  0  0  0  0  0  0130  0  0
  -21.4133  -29.3375   22.3735 N   0  0  0  0  0  0  0  0  0131  0  0
  -26.4706  -37.3372   23.9061 N   0  0  0  0  0  0  0  0  0132  0  0
  -24.6674  -31.0544   22.1178 N   0  0  0  0  0  0  0  0  0133  0  0
  -23.4259  -28.8150   23.2971 O   0  0  0  0  0  0  0  0  0134  0  0
  -28.3948  -26.7345   20.0089 O   0  0  0  0  0  0  0  0  0135  0  0
  -26.5870  -34.9065   22.4671 O   0  0  0  0  0  0  0  0  0136  0  0
  -23.5365  -32.1254   23.7833 O   0  0  0  0  0  0  0  0  0137  0  0
  -29.7070  -18.0614   22.0131 C   0  0  0  0  0  0  0  0  0  0  0  0
  -32.0914  -18.8371   20.9368 C   0  0  0  0  0  0  0  0  0  0  0  0
  -30.1700  -19.3526   22.2402 C   0  0  0  0  0  0  0  0  0  0  0  0
  -31.3840  -19.7558   21.6954 C   0  0  0  0  0  0  0  0  0  0  0  0
  -30.4894  -17.2186   21.2402 C   0  0  0  0  0  0  0  0  0  0  0  0
  -29.3679  -20.2603   23.0489 C   0  0  0  0  0  0  0  0  0  0  0  0
  -33.2672  -23.6762   20.7694 C   0  0  0  0  0  0  0  0  0  0  0  0
  -31.5458  -24.2089   22.5131 C   0  0  0  0  0  0  0  0  0  0  0  0
  -31.9370  -21.1444   21.9080 C   0  0  0  0  0  0  0  0  0  0  0  0
  -31.2304  -22.1708   21.0116 C   0  0  0  0  0  0  0  0  0  0  0  0
  -30.9896  -24.5148   20.0984 C   0  0  0  0  0  0  0  0  0  1  0  0
  -31.7647  -23.6288   21.1045 C   0  0  0  0  0  0  0  0  0  0  0  0
  -31.6739  -17.5744   20.6943 N   0  0  0  0  0  0  0  0  0  0  0  0
  -30.0088  -15.9050   21.0136 N   0  0  0  0  0  0  0  0  0  0  0  0
  -28.2870  -19.9387   23.5475 O   0  0  0  0  0  0  0  0  0  0  0  0
  -31.4485  -12.4701   19.0860 H   0  0  0  0  0  0  0  0  0  0  0  0
  -30.3970  -11.2460   19.6950 H   0  0  0  0  0  0  0  0  0  0  0  0
  -29.6870  -11.8204   17.4226 H   0  0  0  0  0  0  0  0  0  0  0  0
  -29.6375  -13.5326   17.8649 H   0  0  0  0  0  0  0  0  0  0  0  0
  -27.7830  -11.3650   18.7904 H   0  0  0  0  0  0  0  0  0  0  0  0
  -27.4028  -12.7801   17.8021 H   0  0  0  0  0  0  0  0  0  0  0  0
  -27.7353  -14.2503   19.6136 H   0  0  0  0  0  0  0  0  0  0  0  0
  -28.5890  -11.9550   21.3832 H   0  0  0  0  0  0  0  0  0  0  0  0
  -28.5005  -13.6134   21.8562 H   0  0  0  0  0  0  0  0  0  0  0  0
  -25.2399   -9.5495   22.4318 H   0  0  0  0  0  0  0  0  0  0  0  0
  -23.9663   -7.5070   22.7297 H   0  0  0  0  0  0  0  0  0  0  0  0
  -21.1515   -8.8641   19.9162 H   0  0  0  0  0  0  0  0  0  0  0  0
  -22.4016  -10.9115   19.6476 H   0  0  0  0  0  0  0  0  0  0  0  0
  -21.2319   -7.5552   23.9750 H   0  0  0  0  0  0  0  0  0  0  0  0
  -21.1589   -6.0228   25.8556 H   0  0  0  0  0  0  0  0  0  0  0  0
  -22.0396   -2.8212   23.2809 H   0  0  0  0  0  0  0  0  0  0  0  0
  -22.4401  -11.9703   22.4008 H   0  0  0  0  0  0  0  0  0  0  0  0
  -21.1493  -13.0679   22.2082 H   0  0  0  0  0  0  0  0  0  0  0  0
  -24.6538  -15.7807   20.5848 H   0  0  0  0  0  0  0  0  0  0  0  0
  -26.2762  -15.5453   20.1156 H   0  0  0  0  0  0  0  0  0  0  0  0
  -26.6778  -32.4663   23.1464 H   0  0  0  0  0  0  0  0  0  0  0  0
  -25.0747  -34.0282   25.0566 H   0  0  0  0  0  0  0  0  0  0  0  0
  -22.7881  -31.3489   21.4131 H   0  0  0  0  0  0  0  0  0  0  0  0
  -23.3854  -35.9823   23.3648 H   0  0  0  0  0  0  0  0  0  0  0  0
  -24.3696  -36.8624   22.2204 H   0  0  0  0  0  0  0  0  0  0  0  0
  -23.7669  -37.6632   23.6516 H   0  0  0  0  0  0  0  0  0  0  0  0
  -25.9445  -31.6237   20.5691 H   0  0  0  0  0  0  0  0  0  0  0  0
  -26.7436  -31.0079   22.0108 H   0  0  0  0  0  0  0  0  0  0  0  0
  -28.0090  -29.1452   21.2057 H   0  0  0  0  0  0  0  0  0  0  0  0
  -26.1369  -26.0560   19.0719 H   0  0  0  0  0  0  0  0  0  0  0  0
  -24.0652  -27.2961   19.0997 H   0  0  0  0  0  0  0  0  0  0  0  0
  -23.6156  -30.5365   19.3930 H   0  0  0  0  0  0  0  0  0  0  0  0
  -22.7355  -29.1425   19.9945 H   0  0  0  0  0  0  0  0  0  0  0  0
  -25.1353  -36.2335   25.0565 H   0  0  0  0  0  0  0  0  0  0  0  0
  -21.0070  -28.3206   24.0793 H   0  0  0  0  0  0  0  0  0  0  0  0
  -20.5555  -26.2518   23.3550 H   0  0  0  0  0  0  0  0  0  0  0  0
  -21.5974  -26.8362   22.0454 H   0  0  0  0  0  0  0  0  0  0  0  0
  -19.6810  -25.6422   21.1488 H   0  0  0  0  0  0  0  0  0  0  0  0
  -19.6406  -27.3343   20.7034 H   0  0  0  0  0  0  0  0  0  0  0  0
  -17.4282  -26.6888   21.4113 H   0  0  0  0  0  0  0  0  0  0  0  0
  -18.0803  -26.0130   22.9049 H   0  0  0  0  0  0  0  0  0  0  0  0
  -19.7265  -30.6774   24.2204 H   0  0  0  0  0  0  0  0  0  0  0  0
  -17.5064  -31.5856   24.4483 H   0  0  0  0  0  0  0  0  0  0  0  0
  -15.5878  -30.2839   23.7407 H   0  0  0  0  0  0  0  0  0  0  0  0
  -15.9120  -28.0941   22.7766 H   0  0  0  0  0  0  0  0  0  0  0  0
  -24.5787  -30.7757   25.6817 H   0  0  0  0  0  0  0  0  0  0  0  0
  -25.0041  -32.2289   26.5536 H   0  0  0  0  0  0  0  0  0  0  0  0
  -25.8166  -30.7245   26.9138 H   0  0  0  0  0  0  0  0  0  0  0  0
  -26.2892  -29.7335   24.0803 H   0  0  0  0  0  0  0  0  0  0  0  0
  -27.4336  -29.7484   25.4006 H   0  0  0  0  0  0  0  0  0  0  0  0
  -27.8466  -30.4994   23.8779 H   0  0  0  0  0  0  0  0  0  0  0  0
  -27.2251  -33.3632   26.1242 H   0  0  0  0  0  0  0  0  0  0  0  0
  -28.3902  -32.6065   25.0645 H   0  0  0  0  0  0  0  0  0  0  0  0
  -27.9772  -31.8555   26.5872 H   0  0  0  0  0  0  0  0  0  0  0  0
  -28.2744  -38.0016   24.6863 H   0  0  0  0  0  0  0  0  0  0  0  0
  -28.0396  -36.2711   24.7461 H   0  0  0  0  0  0  0  0  0  0  0  0
  -27.1773  -37.3087   25.8564 H   0  0  0  0  0  0  0  0  0  0  0  0
  -20.9627  -29.9365   21.7352 H   0  0  0  0  0  0  0  0  0  0  0  0
  -26.0447  -38.2561   24.0273 H   0  0  0  0  0  0  0  0  0  0  0  0
  -28.8089  -17.7409   22.4078 H   0  0  0  0  0  0  0  0  0  0  0  0
  -32.9926  -19.1352   20.5319 H   0  0  0  0  0  0  0  0  0  0  0  0
  -29.7204  -21.2164   23.2121 H   0  0  0  0  0  0  0  0  0  0  0  0
  -33.8067  -23.0651   21.4625 H   0  0  0  0  0  0  0  0  0  0  0  0
  -33.6161  -24.6855   20.8371 H   0  0  0  0  0  0  0  0  0  0  0  0
  -33.4227  -23.3110   19.7757 H   0  0  0  0  0  0  0  0  0  0  0  0
  -32.0722  -23.6137   23.2297 H   0  0  0  0  0  0  0  0  0  0  0  0
  -30.5008  -24.2027   22.7430 H   0  0  0  0  0  0  0  0  0  0  0  0
  -31.9122  -25.2137   22.5459 H   0  0  0  0  0  0  0  0  0  0  0  0
  -32.9820  -21.1421   21.6781 H   0  0  0  0  0  0  0  0  0  0  0  0
  -31.7740  -21.4196   22.9291 H   0  0  0  0  0  0  0  0  0  0  0  0
  -30.1944  -22.1827   21.2789 H   0  0  0  0  0  0  0  0  0  0  0  0
  -31.4155  -21.8559   20.0059 H   0  0  0  0  0  0  0  0  0  0  0  0
  -30.6686  -23.7876   19.3822 H   0  0  0  0  0  0  0  0  0  0  0  0
  -31.7167  -25.2976   20.1580 H   0  0  0  0  0  0  0  0  0  0  0  0
  -29.0274  -15.8451   21.0640 H   0  0  0  0  0  0  0  0  0  0  0  0
  1 25  1  0
  1 30  2  0
  1 84  1  0
  2  3  1  0
  2 25  1  0
  2 86  1  0
  2 87  1  0
  3  4  1  0
  3 88  1  0
  3 89  1  0
  4  5  1  0
  4 90  1  0
  4 91  1  0
  5  6  1  0
  5 26  1  0
  5 92  1  6
  6 25  1  0
  6 93  1  0
  6 94  1  0
  7  8  2  0
  7 26  1  0
  7 29  1  0
  8  9  1  0
  8 22  1  0
  9 10  1  0
  9 27  2  0
 10 11  2  0
 10 15  1  0
 11 12  1  0
 11 95  1  0
 12 13  2  0
 12 96  1  0
 13 14  1  0
 13 31  1  0
 14 15  2  0
 14 97  1  0
 15 98  1  0
 16 17  2  0
 16 21  1  0
 16 31  1  0
 17 18  1  0
 17 99  1  0
 18 19  2  0
 18100  1  0
 19 20  1  0
 19 24  1  0
 20 21  2  0
 20101  1  0
 21 23  1  0
 22 28  1  0
 22 32  2  0
 26 27  1  0
 28102  1  0
 28103  1  0
 29104  1  0
 29105  1  0
 33 34  1  0
 33 66  1  0
 33 70  2  0
 34 36  1  0
 34 59  1  0
 34106  1  6
 35 44  2  0
 35 45  1  0
 35 68  1  0
 36 56  1  0
 36107  1  0
 37 39  1  0
 37 47  1  0
 37 66  1  0
 37108  1  6
 38 43  2  0
 38 46  1  0
 38 47  1  0
 39 64  1  0
 39 67  2  0
 40 52  1  0
 40 53  2  0
 40 58  1  0
 41109  1  0
 41110  1  0
 41111  1  0
 42 43  1  0
 42 66  1  0
 42112  1  0
 42113  1  0
 43 44  1  0
 44114  1  0
 45 46  2  0
 45115  1  0
 46116  1  0
 47117  1  0
 47118  1  0
 48 41  1  0
 48 56  1  0
 48 65  1  0
 48119  1  1
 49 50  1  0
 49 53  1  0
 49 64  1  0
 49120  1  1
 50 51  1  0
 50121  1  0
 50122  1  0
 51 52  1  0
 51123  1  0
 51124  1  0
 52125  1  0
 52126  1  0
 53 54  1  0
 54 55  2  0
 54127  1  0
 55 57  1  0
 55128  1  0
 56 69  2  0
 57 58  2  0
 57129  1  0
 58130  1  0
 59 60  1  0
 59 61  1  0
 59 62  1  0
 60131  1  0
 60132  1  0
 60133  1  0
 61134  1  0
 61135  1  0
 61136  1  0
 62137  1  0
 62138  1  0
 62139  1  0
 63 65  1  0
 63140  1  0
 63141  1  0
 63142  1  0
 64143  1  0
 65144  1  0
 68 81  1  0
 71 73  2  0
 71 75  1  0
 71145  1  0
 72 74  2  0
 72 83  1  0
 72146  1  0
 73 74  1  0
 73 76  1  0
 74 79  1  0
 75 83  2  0
 75 84  1  0
 76 85  2  0
 76147  1  0
 77148  1  0
 77149  1  0
 77150  1  0
 78 82  1  0
 78151  1  0
 78152  1  0
 78153  1  0
 79 80  1  0
 79154  1  0
 79155  1  0
 80 82  1  0
 80156  1  0
 80157  1  0
 81 82  1  0
 81158  1  0
 81159  1  0
 82 77  1  0
 84160  1  0
M  ISO  4   1 100  68 101  81 101  84 100
M  END
$$$$
58
     RDKit          3D

165173  0  0  0  0  0  0  0  0999 V2000
  -30.7652  -14.3608   20.6636 C   0  0  0  0  0  0  0  0  0100  0  0
  -30.4392  -12.2669   19.3775 C   0  0  0  0  0  0  0  0  0101  0  0
  -29.4791  -12.5281   18.1977 C   0  0  0  0  0  0  0  0  0102  0  0
  -27.9985  -12.3963   18.6038 C   0  0  0  0  0  0  0  0  0103  0  0
  -27.6639  -13.2170   19.8820 C   0  0  2  0  0  0  0  0  0104  0  0
  -28.6795  -12.9602   21.0279 C   0  0  0  0  0  0  0  0  0105  0  0
  -25.2633  -13.8245   20.5754 C   0  0  0  0  0  0  0  0  0106  0  0
  -24.1645  -13.0409   20.9408 C   0  0  0  0  0  0  0  0  0107  0  0
  -24.6400  -11.7009   20.8697 C   0  0  0  0  0  0  0  0  0108  0  0
  -23.9005  -10.4085   21.0420 C   0  0  0  0  0  0  0  0  0109  0  0
  -24.3588   -9.4123   21.9123 C   0  0  0  0  0  0  0  0  0110  0  0
  -23.6296   -8.2350   22.0803 C   0  0  0  0  0  0  0  0  0111  0  0
  -22.4385   -8.0419   21.3657 C   0  0  0  0  0  0  0  0  0112  0  0
  -22.0103   -9.0167   20.4678 C   0  0  0  0  0  0  0  0  0113  0  0
  -22.7317  -10.1925   20.3102 C   0  0  0  0  0  0  0  0  0114  0  0
  -21.6857   -6.0709   22.5391 C   0  0  0  0  0  0  0  0  0115  0  0
  -21.4064   -6.5490   23.8264 C   0  0  0  0  0  0  0  0  0116  0  0
  -21.3635   -5.6677   24.9085 C   0  0  0  0  0  0  0  0  0117  0  0
  -21.5973   -4.3067   24.7088 C   0  0  0  0  0  0  0  0  0118  0  0
  -21.8700   -3.8284   23.4282 C   0  0  0  0  0  0  0  0  0119  0  0
  -21.9144   -4.7056   22.3460 C   0  0  0  0  0  0  0  0  0120  0  0
  -22.8194  -13.5263   21.1763 C   0  0  0  0  0  0  0  0  0121  0  0
  -22.1559   -4.2206   21.1063 F   0  0  0  0  0  0  0  0  0122  0  0
  -21.5628   -3.4510   25.7555 F   0  0  0  0  0  0  0  0  0123  0  0
  -30.0261  -13.1803   20.4553 N   0  0  0  0  0  0  0  0  0124  0  0
  -26.2911  -12.9356   20.3443 N   0  0  0  0  0  0  0  0  0125  0  0
  -25.9236  -11.6675   20.5847 N   0  0  0  0  0  0  0  0  0126  0  0
  -22.0708  -12.7905   22.0005 N   0  0  0  0  0  0  0  0  0127  0  0
  -25.4117  -15.1773   20.4097 N   0  0  0  0  0  0  0  0  0128  0  0
  -31.7916  -14.6724   20.0536 O   0  0  0  0  0  0  0  0  0129  0  0
  -21.6670   -6.9022   21.4423 O   0  0  0  0  0  0  0  0  0130  0  0
  -22.3946  -14.5564   20.6568 O   0  0  0  0  0  0  0  0  0131  0  0
  -24.6048  -31.8614   23.2223 C   0  0  0  0  0  0  0  0  0100  0  0
  -25.8822  -32.4841   23.8616 C   0  0  1  0  0  0  0  0  0101  0  0
  -27.2536  -27.5042   20.1156 C   0  0  0  0  0  0  0  0  0102  0  0
  -25.5726  -33.8762   24.2210 N   0  0  0  0  0  0  0  0  0103  0  0
  -23.4066  -30.4859   21.5461 C   0  0  2  0  0  0  0  0  0104  0  0
  -24.8467  -28.9636   20.1247 C   0  0  0  0  0  0  0  0  0105  0  0
  -22.7412  -29.4652   22.5052 C   0  0  0  0  0  0  0  0  0106  0  0
  -18.0167  -28.1302   22.8626 C   0  0  0  0  0  0  0  0  0107  0  0
  -24.1342  -36.7390   23.2568 C   0  0  0  0  0  0  0  0  0108  0  0
  -25.9141  -30.8882   21.3456 C   0  0  0  0  0  0  0  0  0109  0  0
  -25.9930  -29.5029   20.7208 C   0  0  0  0  0  0  0  0  0110  0  0
  -27.1758  -28.7612   20.7331 C   0  0  0  0  0  0  0  0  0111  0  0
  -26.1032  -26.9836   19.5230 C   0  0  0  0  0  0  0  0  0112  0  0
  -24.9097  -27.7011   19.5331 C   0  0  0  0  0  0  0  0  0113  0  0
  -23.5715  -29.7899   20.1582 C   0  0  0  0  0  0  0  0  0114  0  0
  -25.3990  -36.3212   24.0232 C   0  0  1  0  0  0  0  0  0115  0  0
  -20.5793  -28.3813   23.1004 C   0  0  2  0  0  0  0  0  0116  0  0
  -20.6548  -26.9392   22.5411 C   0  0  0  0  0  0  0  0  0117  0  0
  -19.5615  -26.6407   21.5143 C   0  0  0  0  0  0  0  0  0118  0  0
  -18.1797  -26.7818   22.1673 C   0  0  0  0  0  0  0  0  0119  0  0
  -19.1385  -28.8769   23.2988 C   0  0  0  0  0  0  0  0  0120  0  0
  -18.9183  -30.1286   23.8878 C   0  0  0  0  0  0  0  0  0121  0  0
  -17.6396  -30.6493   24.0352 C   0  0  0  0  0  0  0  0  0122  0  0
  -25.9153  -34.9582   23.4993 C   0  0  0  0  0  0  0  0  0123  0  0
  -16.5415  -29.9068   23.6254 C   0  0  0  0  0  0  0  0  0124  0  0
  -16.7331  -28.6521   23.0586 C   0  0  0  0  0  0  0  0  0125  0  0
  -26.4583  -31.6439   25.0683 C   0  0  0  0  0  0  0  0  0126  0  0
  -25.3807  -31.3179   26.1374 C   0  0  0  0  0  0  0  0  0127  0  0
  -27.0530  -30.3024   24.5680 C   0  0  0  0  0  0  0  0  0128  0  0
  -27.6014  -32.4281   25.7651 C   0  0  0  0  0  0  0  0  0129  0  0
  -27.5629  -37.2220   24.8621 C   0  0  0  0  0  0  0  0  0130  0  0
  -21.4133  -29.3375   22.3735 N   0  0  0  0  0  0  0  0  0131  0  0
  -26.4706  -37.3372   23.9061 N   0  0  0  0  0  0  0  0  0132  0  0
  -24.6674  -31.0544   22.1178 N   0  0  0  0  0  0  0  0  0133  0  0
  -23.4259  -28.8150   23.2971 O   0  0  0  0  0  0  0  0  0134  0  0
  -28.3948  -26.7345   20.0089 O   0  0  0  0  0  0  0  0  0135  0  0
  -26.5870  -34.9065   22.4671 O   0  0  0  0  0  0  0  0  0136  0  0
  -23.5365  -32.1254   23.7833 O   0  0  0  0  0  0  0  0  0137  0  0
  -20.5568  -23.8764   17.5025 C   0  0  0  0  0  0  0  0  0  0  0  0
  -20.3208  -25.0164   18.2709 C   0  0  0  0  0  0  0  0  0  0  0  0
  -21.6345  -23.0434   17.8033 C   0  0  0  0  0  0  0  0  0  0  0  0
  -22.2401  -24.4905   19.6408 C   0  0  0  0  0  0  0  0  0  0  0  0
  -21.1624  -25.3235   19.3400 C   0  0  0  0  0  0  0  0  0  0  0  0
  -22.4761  -23.3505   18.8724 C   0  0  0  0  0  0  0  0  0  0  0  0
  -18.6670  -28.4643   21.7236 C   0  0  0  0  0  0  0  0  0  0  0  0
  -22.6352  -26.4304   23.0139 C   0  0  0  0  0  0  0  0  0  0  0  0
  -21.5546  -27.6908   24.8851 C   0  0  0  0  0  0  0  0  0  0  0  0
  -20.9066  -26.5567   20.1708 C   0  0  0  0  0  0  0  0  0  0  0  0
  -19.9813  -26.3159   21.3743 C   0  0  0  0  0  0  0  0  0  0  0  0
  -21.0366  -28.3718   22.5189 C   0  0  0  0  0  0  0  0  0  0  0  0
  -19.7492  -27.5346   22.2935 C   0  0  1  0  0  0  0  0  0  0  0  0
  -22.1202  -27.7981   23.4625 C   0  0  0  0  0  0  0  0  0  1  0  0
  -23.5703  -22.5037   19.1781 N   0  0  0  0  0  0  0  0  0  0  0  0
  -31.4485  -12.4701   19.0860 H   0  0  0  0  0  0  0  0  0  0  0  0
  -30.3970  -11.2460   19.6950 H   0  0  0  0  0  0  0  0  0  0  0  0
  -29.6870  -11.8204   17.4226 H   0  0  0  0  0  0  0  0  0  0  0  0
  -29.6375  -13.5326   17.8649 H   0  0  0  0  0  0  0  0  0  0  0  0
  -27.7830  -11.3650   18.7904 H   0  0  0  0  0  0  0  0  0  0  0  0
  -27.4028  -12.7801   17.8021 H   0  0  0  0  0  0  0  0  0  0  0  0
  -27.7353  -14.2503   19.6136 H   0  0  0  0  0  0  0  0  0  0  0  0
  -28.5890  -11.9550   21.3832 H   0  0  0  0  0  0  0  0  0  0  0  0
  -28.5005  -13.6134   21.8562 H   0  0  0  0  0  0  0  0  0  0  0  0
  -25.2399   -9.5495   22.4318 H   0  0  0  0  0  0  0  0  0  0  0  0
  -23.9663   -7.5070   22.7297 H   0  0  0  0  0  0  0  0  0  0  0  0
  -21.1515   -8.8641   19.9162 H   0  0  0  0  0  0  0  0  0  0  0  0
  -22.4016  -10.9115   19.6476 H   0  0  0  0  0  0  0  0  0  0  0  0
  -21.2319   -7.5552   23.9750 H   0  0  0  0  0  0  0  0  0  0  0  0
  -21.1589   -6.0228   25.8556 H   0  0  0  0  0  0  0  0  0  0  0  0
  -22.0396   -2.8212   23.2809 H   0  0  0  0  0  0  0  0  0  0  0  0
  -22.4401  -11.9703   22.4008 H   0  0  0  0  0  0  0  0  0  0  0  0
  -21.1493  -13.0679   22.2082 H   0  0  0  0  0  0  0  0  0  0  0  0
  -24.6538  -15.7807   20.5848 H   0  0  0  0  0  0  0  0  0  0  0  0
  -26.2762  -15.5453   20.1156 H   0  0  0  0  0  0  0  0  0  0  0  0
  -26.6778  -32.4663   23.1464 H   0  0  0  0  0  0  0  0  0  0  0  0
  -25.0747  -34.0282   25.0566 H   0  0  0  0  0  0  0  0  0  0  0  0
  -22.7881  -31.3489   21.4131 H   0  0  0  0  0  0  0  0  0  0  0  0
  -23.3854  -35.9823   23.3648 H   0  0  0  0  0  0  0  0  0  0  0  0
  -24.3696  -36.8624   22.2204 H   0  0  0  0  0  0  0  0  0  0  0  0
  -23.7669  -37.6632   23.6516 H   0  0  0  0  0  0  0  0  0  0  0  0
  -25.9445  -31.6237   20.5691 H   0  0  0  0  0  0  0  0  0  0  0  0
  -26.7436  -31.0079   22.0108 H   0  0  0  0  0  0  0  0  0  0  0  0
  -28.0090  -29.1452   21.2057 H   0  0  0  0  0  0  0  0  0  0  0  0
  -26.1369  -26.0560   19.0719 H   0  0  0  0  0  0  0  0  0  0  0  0
  -24.0652  -27.2961   19.0997 H   0  0  0  0  0  0  0  0  0  0  0  0
  -23.6156  -30.5365   19.3930 H   0  0  0  0  0  0  0  0  0  0  0  0
  -22.7355  -29.1425   19.9945 H   0  0  0  0  0  0  0  0  0  0  0  0
  -25.1353  -36.2335   25.0565 H   0  0  0  0  0  0  0  0  0  0  0  0
  -21.0070  -28.3206   24.0793 H   0  0  0  0  0  0  0  0  0  0  0  0
  -20.5555  -26.2518   23.3550 H   0  0  0  0  0  0  0  0  0  0  0  0
  -21.5974  -26.8362   22.0454 H   0  0  0  0  0  0  0  0  0  0  0  0
  -19.6810  -25.6422   21.1488 H   0  0  0  0  0  0  0  0  0  0  0  0
  -19.6406  -27.3343   20.7034 H   0  0  0  0  0  0  0  0  0  0  0  0
  -17.4282  -26.6888   21.4113 H   0  0  0  0  0  0  0  0  0  0  0  0
  -18.0803  -26.0130   22.9049 H   0  0  0  0  0  0  0  0  0  0  0  0
  -19.7265  -30.6774   24.2204 H   0  0  0  0  0  0  0  0  0  0  0  0
  -17.5064  -31.5856   24.4483 H   0  0  0  0  0  0  0  0  0  0  0  0
  -15.5878  -30.2839   23.7407 H   0  0  0  0  0  0  0  0  0  0  0  0
  -15.9120  -28.0941   22.7766 H   0  0  0  0  0  0  0  0  0  0  0  0
  -24.5787  -30.7757   25.6817 H   0  0  0  0  0  0  0  0  0  0  0  0
  -25.0041  -32.2289   26.5536 H   0  0  0  0  0  0  0  0  0  0  0  0
  -25.8166  -30.7245   26.9138 H   0  0  0  0  0  0  0  0  0  0  0  0
  -26.2892  -29.7335   24.0803 H   0  0  0  0  0  0  0  0  0  0  0  0
  -27.4336  -29.7484   25.4006 H   0  0  0  0  0  0  0  0  0  0  0  0
  -27.8466  -30.4994   23.8779 H   0  0  0  0  0  0  0  0  0  0  0  0
  -27.2251  -33.3632   26.1242 H   0  0  0  0  0  0  0  0  0  0  0  0
  -28.3902  -32.6065   25.0645 H   0  0  0  0  0  0  0  0  0  0  0  0
  -27.9772  -31.8555   26.5872 H   0  0  0  0  0  0  0  0  0  0  0  0
  -28.2744  -38.0016   24.6863 H   0  0  0  0  0  0  0  0  0  0  0  0
  -28.0396  -36.2711   24.7461 H   0  0  0  0  0  0  0  0  0  0  0  0
  -27.1773  -37.3087   25.8564 H   0  0  0  0  0  0  0  0  0  0  0  0
  -20.9627  -29.9365   21.7352 H   0  0  0  0  0  0  0  0  0  0  0  0
  -26.0447  -38.2561   24.0273 H   0  0  0  0  0  0  0  0  0  0  0  0
  -19.9341  -23.6493   16.7115 H   0  0  0  0  0  0  0  0  0  0  0  0
  -19.5235  -25.6326   18.0484 H   0  0  0  0  0  0  0  0  0  0  0  0
  -21.8091  -22.1999   17.2349 H   0  0  0  0  0  0  0  0  0  0  0  0
  -22.8628  -24.7176   20.4318 H   0  0  0  0  0  0  0  0  0  0  0  0
  -17.7683  -27.9072   21.5599 H   0  0  0  0  0  0  0  0  0  0  0  0
  -19.0043  -28.8778   20.7961 H   0  0  0  0  0  0  0  0  0  0  0  0
  -18.4747  -29.2555   22.4179 H   0  0  0  0  0  0  0  0  0  0  0  0
  -21.9290  -25.6753   23.2898 H   0  0  0  0  0  0  0  0  0  0  0  0
  -23.5741  -26.2303   23.4864 H   0  0  0  0  0  0  0  0  0  0  0  0
  -22.7629  -26.4283   21.9515 H   0  0  0  0  0  0  0  0  0  0  0  0
  -20.5219  -27.9706   24.8804 H   0  0  0  0  0  0  0  0  0  0  0  0
  -22.0982  -28.3441   25.5353 H   0  0  0  0  0  0  0  0  0  0  0  0
  -21.6494  -26.6829   25.2315 H   0  0  0  0  0  0  0  0  0  0  0  0
  -20.4575  -27.2983   19.5436 H   0  0  0  0  0  0  0  0  0  0  0  0
  -21.8520  -26.8684   20.5633 H   0  0  0  0  0  0  0  0  0  0  0  0
  -20.4087  -25.5339   21.9665 H   0  0  0  0  0  0  0  0  0  0  0  0
  -19.0237  -26.0739   20.9627 H   0  0  0  0  0  0  0  0  0  0  0  0
  -20.7352  -29.3176   22.9183 H   0  0  0  0  0  0  0  0  0  0  0  0
  -21.5073  -28.4019   21.5585 H   0  0  0  0  0  0  0  0  0  0  0  0
  -19.4344  -27.1285   23.2321 H   0  0  0  0  0  0  0  0  0  0  0  0
  -24.1357  -23.2086   19.5688 H   0  0  0  0  0  0  0  0  0  0  0  0
  1 25  1  0
  1 30  2  0
  1 85  1  0
  2  3  1  0
  2 25  1  0
  2 86  1  0
  2 87  1  0
  3  4  1  0
  3 88  1  0
  3 89  1  0
  4  5  1  0
  4 90  1  0
  4 91  1  0
  5  6  1  0
  5 26  1  0
  5 92  1  6
  6 25  1  0
  6 93  1  0
  6 94  1  0
  7  8  2  0
  7 26  1  0
  7 29  1  0
  8  9  1  0
  8 22  1  0
  9 10  1  0
  9 27  2  0
 10 11  2  0
 10 15  1  0
 11 12  1  0
 11 95  1  0
 12 13  2  0
 12 96  1  0
 13 14  1  0
 13 31  1  0
 14 15  2  0
 14 97  1  0
 15 98  1  0
 16 17  2  0
 16 21  1  0
 16 31  1  0
 17 18  1  0
 17 99  1  0
 18 19  2  0
 18100  1  0
 19 20  1  0
 19 24  1  0
 20 21  2  0
 20101  1  0
 21 23  1  0
 22 28  1  0
 22 32  2  0
 26 27  1  0
 28102  1  0
 28103  1  0
 29104  1  0
 29105  1  0
 33 34  1  0
 33 66  1  0
 33 70  2  0
 34 36  1  0
 34 59  1  0
 34106  1  6
 35 44  2  0
 35 45  1  0
 35 68  1  0
 36 56  1  0
 36107  1  0
 37 39  1  0
 37 47  1  0
 37 66  1  0
 37108  1  6
 38 43  2  0
 38 46  1  0
 38 47  1  0
 39 64  1  0
 39 67  2  0
 40 52  1  0
 40 53  2  0
 40 58  1  0
 41109  1  0
 41110  1  0
 41111  1  0
 42 43  1  0
 42 66  1  0
 42112  1  0
 42113  1  0
 43 44  1  0
 44114  1  0
 45 46  2  0
 45115  1  0
 46116  1  0
 47117  1  0
 47118  1  0
 48 41  1  0
 48 56  1  0
 48 65  1  0
 48119  1  1
 49 50  1  0
 49 53  1  0
 49 64  1  0
 49120  1  1
 50 51  1  0
 50121  1  0
 50122  1  0
 51 52  1  0
 51123  1  0
 51124  1  0
 52125  1  0
 52126  1  0
 53 54  1  0
 54 55  2  0
 54127  1  0
 55 57  1  0
 55128  1  0
 56 69  2  0
 57 58  2  0
 57129  1  0
 58130  1  0
 59 60  1  0
 59 61  1  0
 59 62  1  0
 60131  1  0
 60132  1  0
 60133  1  0
 61134  1  0
 61135  1  0
 61136  1  0
 62137  1  0
 62138  1  0
 62139  1  0
 63 65  1  0
 63140  1  0
 63141  1  0
 63142  1  0
 64143  1  0
 65144  1  0
 68 84  1  0
 71 72  2  0
 71 73  1  0
 71145  1  0
 72 75  1  0
 72146  1  0
 73 76  2  0
 73147  1  0
 74 75  2  0
 74 76  1  0
 74148  1  0
 75 80  1  0
 76 85  1  0
 77149  1  0
 77150  1  0
 77151  1  0
 78152  1  0
 78153  1  0
 78154  1  0
 79 84  1  0
 79155  1  0
 79156  1  0
 79157  1  0
 80 81  1  0
 80158  1  0
 80159  1  0
 81 83  1  0
 81160  1  0
 81161  1  0
 82 83  1  0
 82 84  1  0
 82162  1  0
 82163  1  0
 83 77  1  0
 83164  1  1
 84 78  1  0
 85165  1  0
M  ISO  4   1 100  68 101  84 101  85 100
M  END
$$$$
59
     RDKit          3D

156164  0  0  0  0  0  0  0  0999 V2000
  -30.7652  -14.3608   20.6636 C   0  0  0  0  0  0  0  0  0100  0  0
  -30.4392  -12.2669   19.3775 C   0  0  0  0  0  0  0  0  0101  0  0
  -29.4791  -12.5281   18.1977 C   0  0  0  0  0  0  0  0  0102  0  0
  -27.9985  -12.3963   18.6038 C   0  0  0  0  0  0  0  0  0103  0  0
  -27.6639  -13.2170   19.8820 C   0  0  2  0  0  0  0  0  0104  0  0
  -28.6795  -12.9602   21.0279 C   0  0  0  0  0  0  0  0  0105  0  0
  -25.2633  -13.8245   20.5754 C   0  0  0  0  0  0  0  0  0106  0  0
  -24.1645  -13.0409   20.9408 C   0  0  0  0  0  0  0  0  0107  0  0
  -24.6400  -11.7009   20.8697 C   0  0  0  0  0  0  0  0  0108  0  0
  -23.9005  -10.4085   21.0420 C   0  0  0  0  0  0  0  0  0109  0  0
  -24.3588   -9.4123   21.9123 C   0  0  0  0  0  0  0  0  0110  0  0
  -23.6296   -8.2350   22.0803 C   0  0  0  0  0  0  0  0  0111  0  0
  -22.4385   -8.0419   21.3657 C   0  0  0  0  0  0  0  0  0112  0  0
  -22.0103   -9.0167   20.4678 C   0  0  0  0  0  0  0  0  0113  0  0
  -22.7317  -10.1925   20.3102 C   0  0  0  0  0  0  0  0  0114  0  0
  -21.6857   -6.0709   22.5391 C   0  0  0  0  0  0  0  0  0115  0  0
  -21.4064   -6.5490   23.8264 C   0  0  0  0  0  0  0  0  0116  0  0
  -21.3635   -5.6677   24.9085 C   0  0  0  0  0  0  0  0  0117  0  0
  -21.5973   -4.3067   24.7088 C   0  0  0  0  0  0  0  0  0118  0  0
  -21.8700   -3.8284   23.4282 C   0  0  0  0  0  0  0  0  0119  0  0
  -21.9144   -4.7056   22.3460 C   0  0  0  0  0  0  0  0  0120  0  0
  -22.8194  -13.5263   21.1763 C   0  0  0  0  0  0  0  0  0121  0  0
  -22.1559   -4.2206   21.1063 F   0  0  0  0  0  0  0  0  0122  0  0
  -21.5628   -3.4510   25.7555 F   0  0  0  0  0  0  0  0  0123  0  0
  -30.0261  -13.1803   20.4553 N   0  0  0  0  0  0  0  0  0124  0  0
  -26.2911  -12.9356   20.3443 N   0  0  0  0  0  0  0  0  0125  0  0
  -25.9236  -11.6675   20.5847 N   0  0  0  0  0  0  0  0  0126  0  0
  -22.0708  -12.7905   22.0005 N   0  0  0  0  0  0  0  0  0127  0  0
  -25.4117  -15.1773   20.4097 N   0  0  0  0  0  0  0  0  0128  0  0
  -31.7916  -14.6724   20.0536 O   0  0  0  0  0  0  0  0  0129  0  0
  -21.6670   -6.9022   21.4423 O   0  0  0  0  0  0  0  0  0130  0  0
  -22.3946  -14.5564   20.6568 O   0  0  0  0  0  0  0  0  0131  0  0
  -24.6048  -31.8614   23.2223 C   0  0  0  0  0  0  0  0  0100  0  0
  -25.8822  -32.4841   23.8616 C   0  0  1  0  0  0  0  0  0101  0  0
  -27.2536  -27.5042   20.1156 C   0  0  0  0  0  0  0  0  0102  0  0
  -25.5726  -33.8762   24.2210 N   0  0  0  0  0  0  0  0  0103  0  0
  -23.4066  -30.4859   21.5461 C   0  0  2  0  0  0  0  0  0104  0  0
  -24.8467  -28.9636   20.1247 C   0  0  0  0  0  0  0  0  0105  0  0
  -22.7412  -29.4652   22.5052 C   0  0  0  0  0  0  0  0  0106  0  0
  -18.0167  -28.1302   22.8626 C   0  0  0  0  0  0  0  0  0107  0  0
  -24.1342  -36.7390   23.2568 C   0  0  0  0  0  0  0  0  0108  0  0
  -25.9141  -30.8882   21.3456 C   0  0  0  0  0  0  0  0  0109  0  0
  -25.9930  -29.5029   20.7208 C   0  0  0  0  0  0  0  0  0110  0  0
  -27.1758  -28.7612   20.7331 C   0  0  0  0  0  0  0  0  0111  0  0
  -26.1032  -26.9836   19.5230 C   0  0  0  0  0  0  0  0  0112  0  0
  -24.9097  -27.7011   19.5331 C   0  0  0  0  0  0  0  0  0113  0  0
  -23.5715  -29.7899   20.1582 C   0  0  0  0  0  0  0  0  0114  0  0
  -25.3990  -36.3212   24.0232 C   0  0  1  0  0  0  0  0  0115  0  0
  -20.5793  -28.3813   23.1004 C   0  0  2  0  0  0  0  0  0116  0  0
  -20.6548  -26.9392   22.5411 C   0  0  0  0  0  0  0  0  0117  0  0
  -19.5615  -26.6407   21.5143 C   0  0  0  0  0  0  0  0  0118  0  0
  -18.1797  -26.7818   22.1673 C   0  0  0  0  0  0  0  0  0119  0  0
  -19.1385  -28.8769   23.2988 C   0  0  0  0  0  0  0  0  0120  0  0
  -18.9183  -30.1286   23.8878 C   0  0  0  0  0  0  0  0  0121  0  0
  -17.6396  -30.6493   24.0352 C   0  0  0  0  0  0  0  0  0122  0  0
  -25.9153  -34.9582   23.4993 C   0  0  0  0  0  0  0  0  0123  0  0
  -16.5415  -29.9068   23.6254 C   0  0  0  0  0  0  0  0  0124  0  0
  -16.7331  -28.6521   23.0586 C   0  0  0  0  0  0  0  0  0125  0  0
  -26.4583  -31.6439   25.0683 C   0  0  0  0  0  0  0  0  0126  0  0
  -25.3807  -31.3179   26.1374 C   0  0  0  0  0  0  0  0  0127  0  0
  -27.0530  -30.3024   24.5680 C   0  0  0  0  0  0  0  0  0128  0  0
  -27.6014  -32.4281   25.7651 C   0  0  0  0  0  0  0  0  0129  0  0
  -27.5629  -37.2220   24.8621 C   0  0  0  0  0  0  0  0  0130  0  0
  -21.4133  -29.3375   22.3735 N   0  0  0  0  0  0  0  0  0131  0  0
  -26.4706  -37.3372   23.9061 N   0  0  0  0  0  0  0  0  0132  0  0
  -24.6674  -31.0544   22.1178 N   0  0  0  0  0  0  0  0  0133  0  0
  -23.4259  -28.8150   23.2971 O   0  0  0  0  0  0  0  0  0134  0  0
  -28.3948  -26.7345   20.0089 O   0  0  0  0  0  0  0  0  0135  0  0
  -26.5870  -34.9065   22.4671 O   0  0  0  0  0  0  0  0  0136  0  0
  -23.5365  -32.1254   23.7833 O   0  0  0  0  0  0  0  0  0137  0  0
  -28.8358  -23.2131   20.2036 C   0  0  0  0  0  0  0  0  0  0  0  0
  -28.0268  -23.2795   17.5345 C   0  0  0  0  0  0  0  0  0  0  0  0
  -29.5983  -23.9024   19.2607 C   0  0  0  0  0  0  0  0  0  0  0  0
  -29.1937  -23.9357   17.9262 C   0  0  0  0  0  0  0  0  0  0  0  0
  -27.2644  -22.5901   18.4774 C   0  0  0  0  0  0  0  0  0  0  0  0
  -27.6689  -22.5568   19.8119 C   0  0  0  0  0  0  0  0  0  0  0  0
  -30.8457  -24.5931   19.7077 C   0  0  0  0  0  0  0  0  0  0  0  0
  -29.9909  -24.6673   16.8958 C   0  0  0  0  0  0  0  0  0  0  0  0
  -31.0058  -26.0977   19.5339 C   0  0  0  0  0  0  0  0  0  0  0  0
  -30.5562  -26.8798   20.7656 C   0  0  0  0  0  0  0  0  0  0  0  0
  -29.1119  -26.5974   21.1607 C   0  0  0  0  0  0  0  0  0  1  0  0
  -31.8057  -23.9136   20.2525 N   0  0  0  0  0  0  0  0  0  0  0  0
  -26.0795  -21.9243   18.0767 N   0  0  0  0  0  0  0  0  0  0  0  0
  -26.9443  -21.8963   20.7263 F   0  0  0  0  0  0  0  0  0  0  0  0
  -31.4485  -12.4701   19.0860 H   0  0  0  0  0  0  0  0  0  0  0  0
  -30.3970  -11.2460   19.6950 H   0  0  0  0  0  0  0  0  0  0  0  0
  -29.6870  -11.8204   17.4226 H   0  0  0  0  0  0  0  0  0  0  0  0
  -29.6375  -13.5326   17.8649 H   0  0  0  0  0  0  0  0  0  0  0  0
  -27.7830  -11.3650   18.7904 H   0  0  0  0  0  0  0  0  0  0  0  0
  -27.4028  -12.7801   17.8021 H   0  0  0  0  0  0  0  0  0  0  0  0
  -27.7353  -14.2503   19.6136 H   0  0  0  0  0  0  0  0  0  0  0  0
  -28.5890  -11.9550   21.3832 H   0  0  0  0  0  0  0  0  0  0  0  0
  -28.5005  -13.6134   21.8562 H   0  0  0  0  0  0  0  0  0  0  0  0
  -25.2399   -9.5495   22.4318 H   0  0  0  0  0  0  0  0  0  0  0  0
  -23.9663   -7.5070   22.7297 H   0  0  0  0  0  0  0  0  0  0  0  0
  -21.1515   -8.8641   19.9162 H   0  0  0  0  0  0  0  0  0  0  0  0
  -22.4016  -10.9115   19.6476 H   0  0  0  0  0  0  0  0  0  0  0  0
  -21.2319   -7.5552   23.9750 H   0  0  0  0  0  0  0  0  0  0  0  0
  -21.1589   -6.0228   25.8556 H   0  0  0  0  0  0  0  0  0  0  0  0
  -22.0396   -2.8212   23.2809 H   0  0  0  0  0  0  0  0  0  0  0  0
  -22.4401  -11.9703   22.4008 H   0  0  0  0  0  0  0  0  0  0  0  0
  -21.1493  -13.0679   22.2082 H   0  0  0  0  0  0  0  0  0  0  0  0
  -24.6538  -15.7807   20.5848 H   0  0  0  0  0  0  0  0  0  0  0  0
  -26.2762  -15.5453   20.1156 H   0  0  0  0  0  0  0  0  0  0  0  0
  -26.6778  -32.4663   23.1464 H   0  0  0  0  0  0  0  0  0  0  0  0
  -25.0747  -34.0282   25.0566 H   0  0  0  0  0  0  0  0  0  0  0  0
  -22.7881  -31.3489   21.4131 H   0  0  0  0  0  0  0  0  0  0  0  0
  -23.3854  -35.9823   23.3648 H   0  0  0  0  0  0  0  0  0  0  0  0
  -24.3696  -36.8624   22.2204 H   0  0  0  0  0  0  0  0  0  0  0  0
  -23.7669  -37.6632   23.6516 H   0  0  0  0  0  0  0  0  0  0  0  0
  -25.9445  -31.6237   20.5691 H   0  0  0  0  0  0  0  0  0  0  0  0
  -26.7436  -31.0079   22.0108 H   0  0  0  0  0  0  0  0  0  0  0  0
  -28.0090  -29.1452   21.2057 H   0  0  0  0  0  0  0  0  0  0  0  0
  -26.1369  -26.0560   19.0719 H   0  0  0  0  0  0  0  0  0  0  0  0
  -24.0652  -27.2961   19.0997 H   0  0  0  0  0  0  0  0  0  0  0  0
  -23.6156  -30.5365   19.3930 H   0  0  0  0  0  0  0  0  0  0  0  0
  -22.7355  -29.1425   19.9945 H   0  0  0  0  0  0  0  0  0  0  0  0
  -25.1353  -36.2335   25.0565 H   0  0  0  0  0  0  0  0  0  0  0  0
  -21.0070  -28.3206   24.0793 H   0  0  0  0  0  0  0  0  0  0  0  0
  -20.5555  -26.2518   23.3550 H   0  0  0  0  0  0  0  0  0  0  0  0
  -21.5974  -26.8362   22.0454 H   0  0  0  0  0  0  0  0  0  0  0  0
  -19.6810  -25.6422   21.1488 H   0  0  0  0  0  0  0  0  0  0  0  0
  -19.6406  -27.3343   20.7034 H   0  0  0  0  0  0  0  0  0  0  0  0
  -17.4282  -26.6888   21.4113 H   0  0  0  0  0  0  0  0  0  0  0  0
  -18.0803  -26.0130   22.9049 H   0  0  0  0  0  0  0  0  0  0  0  0
  -19.7265  -30.6774   24.2204 H   0  0  0  0  0  0  0  0  0  0  0  0
  -17.5064  -31.5856   24.4483 H   0  0  0  0  0  0  0  0  0  0  0  0
  -15.5878  -30.2839   23.7407 H   0  0  0  0  0  0  0  0  0  0  0  0
  -15.9120  -28.0941   22.7766 H   0  0  0  0  0  0  0  0  0  0  0  0
  -24.5787  -30.7757   25.6817 H   0  0  0  0  0  0  0  0  0  0  0  0
  -25.0041  -32.2289   26.5536 H   0  0  0  0  0  0  0  0  0  0  0  0
  -25.8166  -30.7245   26.9138 H   0  0  0  0  0  0  0  0  0  0  0  0
  -26.2892  -29.7335   24.0803 H   0  0  0  0  0  0  0  0  0  0  0  0
  -27.4336  -29.7484   25.4006 H   0  0  0  0  0  0  0  0  0  0  0  0
  -27.8466  -30.4994   23.8779 H   0  0  0  0  0  0  0  0  0  0  0  0
  -27.2251  -33.3632   26.1242 H   0  0  0  0  0  0  0  0  0  0  0  0
  -28.3902  -32.6065   25.0645 H   0  0  0  0  0  0  0  0  0  0  0  0
  -27.9772  -31.8555   26.5872 H   0  0  0  0  0  0  0  0  0  0  0  0
  -28.2744  -38.0016   24.6863 H   0  0  0  0  0  0  0  0  0  0  0  0
  -28.0396  -36.2711   24.7461 H   0  0  0  0  0  0  0  0  0  0  0  0
  -27.1773  -37.3087   25.8564 H   0  0  0  0  0  0  0  0  0  0  0  0
  -20.9627  -29.9365   21.7352 H   0  0  0  0  0  0  0  0  0  0  0  0
  -26.0447  -38.2561   24.0273 H   0  0  0  0  0  0  0  0  0  0  0  0
  -29.1349  -23.1887   21.1910 H   0  0  0  0  0  0  0  0  0  0  0  0
  -27.7276  -23.3041   16.5471 H   0  0  0  0  0  0  0  0  0  0  0  0
  -29.5146  -24.5720   15.9424 H   0  0  0  0  0  0  0  0  0  0  0  0
  -30.9757  -24.2519   16.8456 H   0  0  0  0  0  0  0  0  0  0  0  0
  -30.0533  -25.7019   17.1615 H   0  0  0  0  0  0  0  0  0  0  0  0
  -30.4190  -26.4106   18.6957 H   0  0  0  0  0  0  0  0  0  0  0  0
  -32.0459  -26.2986   19.3831 H   0  0  0  0  0  0  0  0  0  0  0  0
  -30.6543  -27.9251   20.5594 H   0  0  0  0  0  0  0  0  0  0  0  0
  -31.1756  -26.5717   21.5819 H   0  0  0  0  0  0  0  0  0  0  0  0
  -28.7794  -27.3000   21.8960 H   0  0  0  0  0  0  0  0  0  0  0  0
  -28.9970  -25.6244   21.5909 H   0  0  0  0  0  0  0  0  0  0  0  0
  -31.7146  -22.9405   20.3705 H   0  0  0  0  0  0  0  0  0  0  0  0
  -25.1961  -22.1523   17.7068 H   0  0  0  0  0  0  0  0  0  0  0  0
  1 25  1  0
  1 30  2  0
  1 83  1  0
  2  3  1  0
  2 25  1  0
  2 85  1  0
  2 86  1  0
  3  4  1  0
  3 87  1  0
  3 88  1  0
  4  5  1  0
  4 89  1  0
  4 90  1  0
  5  6  1  0
  5 26  1  0
  5 91  1  6
  6 25  1  0
  6 92  1  0
  6 93  1  0
  7  8  2  0
  7 26  1  0
  7 29  1  0
  8  9  1  0
  8 22  1  0
  9 10  1  0
  9 27  2  0
 10 11  2  0
 10 15  1  0
 11 12  1  0
 11 94  1  0
 12 13  2  0
 12 95  1  0
 13 14  1  0
 13 31  1  0
 14 15  2  0
 14 96  1  0
 15 97  1  0
 16 17  2  0
 16 21  1  0
 16 31  1  0
 17 18  1  0
 17 98  1  0
 18 19  2  0
 18 99  1  0
 19 20  1  0
 19 24  1  0
 20 21  2  0
 20100  1  0
 21 23  1  0
 22 28  1  0
 22 32  2  0
 26 27  1  0
 28101  1  0
 28102  1  0
 29103  1  0
 29104  1  0
 33 34  1  0
 33 66  1  0
 33 70  2  0
 34 36  1  0
 34 59  1  0
 34105  1  6
 35 44  2  0
 35 45  1  0
 35 68  1  0
 36 56  1  0
 36106  1  0
 37 39  1  0
 37 47  1  0
 37 66  1  0
 37107  1  6
 38 43  2  0
 38 46  1  0
 38 47  1  0
 39 64  1  0
 39 67  2  0
 40 52  1  0
 40 53  2  0
 40 58  1  0
 41108  1  0
 41109  1  0
 41110  1  0
 42 43  1  0
 42 66  1  0
 42111  1  0
 42112  1  0
 43 44  1  0
 44113  1  0
 45 46  2  0
 45114  1  0
 46115  1  0
 47116  1  0
 47117  1  0
 48 41  1  0
 48 56  1  0
 48 65  1  0
 48118  1  1
 49 50  1  0
 49 53  1  0
 49 64  1  0
 49119  1  1
 50 51  1  0
 50120  1  0
 50121  1  0
 51 52  1  0
 51122  1  0
 51123  1  0
 52124  1  0
 52125  1  0
 53 54  1  0
 54 55  2  0
 54126  1  0
 55 57  1  0
 55127  1  0
 56 69  2  0
 57 58  2  0
 57128  1  0
 58129  1  0
 59 60  1  0
 59 61  1  0
 59 62  1  0
 60130  1  0
 60131  1  0
 60132  1  0
 61133  1  0
 61134  1  0
 61135  1  0
 62136  1  0
 62137  1  0
 62138  1  0
 63 65  1  0
 63139  1  0
 63140  1  0
 63141  1  0
 64142  1  0
 65143  1  0
 68 81  1  0
 71 73  2  0
 71 76  1  0
 71144  1  0
 72 74  2  0
 72 75  1  0
 72145  1  0
 73 74  1  0
 73 77  1  0
 74 78  1  0
 75 76  2  0
 75 83  1  0
 76 84  1  0
 77 79  1  0
 77 82  2  0
 78146  1  0
 78147  1  0
 78148  1  0
 79 80  1  0
 79149  1  0
 79150  1  0
 80 81  1  0
 80151  1  0
 80152  1  0
 81153  1  0
 81154  1  0
 82155  1  0
 83156  1  0
M  ISO  4   1 100  68 101  81 101  83 100
M  END
$$$$
60
     RDKit          3D

161169  0  0  0  0  0  0  0  0999 V2000
  -30.7652  -14.3608   20.6636 C   0  0  0  0  0  0  0  0  0100  0  0
  -30.4392  -12.2669   19.3775 C   0  0  0  0  0  0  0  0  0101  0  0
  -29.4791  -12.5281   18.1977 C   0  0  0  0  0  0  0  0  0102  0  0
  -27.9985  -12.3963   18.6038 C   0  0  0  0  0  0  0  0  0103  0  0
  -27.6639  -13.2170   19.8820 C   0  0  2  0  0  0  0  0  0104  0  0
  -28.6795  -12.9602   21.0279 C   0  0  0  0  0  0  0  0  0105  0  0
  -25.2633  -13.8245   20.5754 C   0  0  0  0  0  0  0  0  0106  0  0
  -24.1645  -13.0409   20.9408 C   0  0  0  0  0  0  0  0  0107  0  0
  -24.6400  -11.7009   20.8697 C   0  0  0  0  0  0  0  0  0108  0  0
  -23.9005  -10.4085   21.0420 C   0  0  0  0  0  0  0  0  0109  0  0
  -24.3588   -9.4123   21.9123 C   0  0  0  0  0  0  0  0  0110  0  0
  -23.6296   -8.2350   22.0803 C   0  0  0  0  0  0  0  0  0111  0  0
  -22.4385   -8.0419   21.3657 C   0  0  0  0  0  0  0  0  0112  0  0
  -22.0103   -9.0167   20.4678 C   0  0  0  0  0  0  0  0  0113  0  0
  -22.7317  -10.1925   20.3102 C   0  0  0  0  0  0  0  0  0114  0  0
  -21.6857   -6.0709   22.5391 C   0  0  0  0  0  0  0  0  0115  0  0
  -21.4064   -6.5490   23.8264 C   0  0  0  0  0  0  0  0  0116  0  0
  -21.3635   -5.6677   24.9085 C   0  0  0  0  0  0  0  0  0117  0  0
  -21.5973   -4.3067   24.7088 C   0  0  0  0  0  0  0  0  0118  0  0
  -21.8700   -3.8284   23.4282 C   0  0  0  0  0  0  0  0  0119  0  0
  -21.9144   -4.7056   22.3460 C   0  0  0  0  0  0  0  0  0120  0  0
  -22.8194  -13.5263   21.1763 C   0  0  0  0  0  0  0  0  0121  0  0
  -22.1559   -4.2206   21.1063 F   0  0  0  0  0  0  0  0  0122  0  0
  -21.5628   -3.4510   25.7555 F   0  0  0  0  0  0  0  0  0123  0  0
  -30.0261  -13.1803   20.4553 N   0  0  0  0  0  0  0  0  0124  0  0
  -26.2911  -12.9356   20.3443 N   0  0  0  0  0  0  0  0  0125  0  0
  -25.9236  -11.6675   20.5847 N   0  0  0  0  0  0  0  0  0126  0  0
  -22.0708  -12.7905   22.0005 N   0  0  0  0  0  0  0  0  0127  0  0
  -25.4117  -15.1773   20.4097 N   0  0  0  0  0  0  0  0  0128  0  0
  -31.7916  -14.6724   20.0536 O   0  0  0  0  0  0  0  0  0129  0  0
  -21.6670   -6.9022   21.4423 O   0  0  0  0  0  0  0  0  0130  0  0
  -22.3946  -14.5564   20.6568 O   0  0  0  0  0  0  0  0  0131  0  0
  -24.6048  -31.8614   23.2223 C   0  0  0  0  0  0  0  0  0100  0  0
  -25.8822  -32.4841   23.8616 C   0  0  1  0  0  0  0  0  0101  0  0
  -27.2536  -27.5042   20.1156 C   0  0  0  0  0  0  0  0  0102  0  0
  -25.5726  -33.8762   24.2210 N   0  0  0  0  0  0  0  0  0103  0  0
  -23.4066  -30.4859   21.5461 C   0  0  2  0  0  0  0  0  0104  0  0
  -24.8467  -28.9636   20.1247 C   0  0  0  0  0  0  0  0  0105  0  0
  -22.7412  -29.4652   22.5052 C   0  0  0  0  0  0  0  0  0106  0  0
  -18.0167  -28.1302   22.8626 C   0  0  0  0  0  0  0  0  0107  0  0
  -24.1342  -36.7390   23.2568 C   0  0  0  0  0  0  0  0  0108  0  0
  -25.9141  -30.8882   21.3456 C   0  0  0  0  0  0  0  0  0109  0  0
  -25.9930  -29.5029   20.7208 C   0  0  0  0  0  0  0  0  0110  0  0
  -27.1758  -28.7612   20.7331 C   0  0  0  0  0  0  0  0  0111  0  0
  -26.1032  -26.9836   19.5230 C   0  0  0  0  0  0  0  0  0112  0  0
  -24.9097  -27.7011   19.5331 C   0  0  0  0  0  0  0  0  0113  0  0
  -23.5715  -29.7899   20.1582 C   0  0  0  0  0  0  0  0  0114  0  0
  -25.3990  -36.3212   24.0232 C   0  0  1  0  0  0  0  0  0115  0  0
  -20.5793  -28.3813   23.1004 C   0  0  2  0  0  0  0  0  0116  0  0
  -20.6548  -26.9392   22.5411 C   0  0  0  0  0  0  0  0  0117  0  0
  -19.5615  -26.6407   21.5143 C   0  0  0  0  0  0  0  0  0118  0  0
  -18.1797  -26.7818   22.1673 C   0  0  0  0  0  0  0  0  0119  0  0
  -19.1385  -28.8769   23.2988 C   0  0  0  0  0  0  0  0  0120  0  0
  -18.9183  -30.1286   23.8878 C   0  0  0  0  0  0  0  0  0121  0  0
  -17.6396  -30.6493   24.0352 C   0  0  0  0  0  0  0  0  0122  0  0
  -25.9153  -34.9582   23.4993 C   0  0  0  0  0  0  0  0  0123  0  0
  -16.5415  -29.9068   23.6254 C   0  0  0  0  0  0  0  0  0124  0  0
  -16.7331  -28.6521   23.0586 C   0  0  0  0  0  0  0  0  0125  0  0
  -26.4583  -31.6439   25.0683 C   0  0  0  0  0  0  0  0  0126  0  0
  -25.3807  -31.3179   26.1374 C   0  0  0  0  0  0  0  0  0127  0  0
  -27.0530  -30.3024   24.5680 C   0  0  0  0  0  0  0  0  0128  0  0
  -27.6014  -32.4281   25.7651 C   0  0  0  0  0  0  0  0  0129  0  0
  -27.5629  -37.2220   24.8621 C   0  0  0  0  0  0  0  0  0130  0  0
  -21.4133  -29.3375   22.3735 N   0  0  0  0  0  0  0  0  0131  0  0
  -26.4706  -37.3372   23.9061 N   0  0  0  0  0  0  0  0  0132  0  0
  -24.6674  -31.0544   22.1178 N   0  0  0  0  0  0  0  0  0133  0  0
  -23.4259  -28.8150   23.2971 O   0  0  0  0  0  0  0  0  0134  0  0
  -28.3948  -26.7345   20.0089 O   0  0  0  0  0  0  0  0  0135  0  0
  -26.5870  -34.9065   22.4671 O   0  0  0  0  0  0  0  0  0136  0  0
  -23.5365  -32.1254   23.7833 O   0  0  0  0  0  0  0  0  0137  0  0
  -30.6962  -21.5623   19.6331 C   0  0  0  0  0  0  0  0  0  0  0  0
  -31.8479  -21.9374   17.5426 C   0  0  0  0  0  0  0  0  0  0  0  0
  -30.2108  -22.8696   19.6003 C   0  0  0  0  0  0  0  0  0  0  0  0
  -31.5148  -21.0963   18.6043 C   0  0  0  0  0  0  0  0  0  0  0  0
  -30.5439  -23.7108   18.5386 C   0  0  0  0  0  0  0  0  0  0  0  0
  -31.3624  -23.2447   17.5098 C   0  0  0  0  0  0  0  0  0  0  0  0
  -29.3580  -23.3254   20.6910 C   0  0  0  0  0  0  0  0  0  0  0  0
  -28.5059  -22.2990   21.3759 C   0  0  0  0  0  0  0  0  0  0  0  0
  -30.9573  -18.8830   16.4629 C   0  0  0  0  0  0  0  0  0  0  0  0
  -31.9279  -17.2457   18.0708 C   0  0  0  0  0  0  0  0  0  0  0  0
  -32.0407  -19.6803   18.6392 C   0  0  0  0  0  0  0  0  0  0  0  0
  -29.7961  -18.4514   18.6645 C   0  0  0  0  0  0  0  0  0  1  0  0
  -31.1654  -18.5857   17.9605 C   0  0  0  0  0  0  0  0  0  0  0  0
  -30.0609  -25.0418   18.4869 N   0  0  0  0  0  0  0  0  0  0  0  0
  -29.2834  -24.4887   21.0862 O   0  0  0  0  0  0  0  0  0  0  0  0
  -31.6895  -24.0435   16.4838 F   0  0  0  0  0  0  0  0  0  0  0  0
  -31.4485  -12.4701   19.0860 H   0  0  0  0  0  0  0  0  0  0  0  0
  -30.3970  -11.2460   19.6950 H   0  0  0  0  0  0  0  0  0  0  0  0
  -29.6870  -11.8204   17.4226 H   0  0  0  0  0  0  0  0  0  0  0  0
  -29.6375  -13.5326   17.8649 H   0  0  0  0  0  0  0  0  0  0  0  0
  -27.7830  -11.3650   18.7904 H   0  0  0  0  0  0  0  0  0  0  0  0
  -27.4028  -12.7801   17.8021 H   0  0  0  0  0  0  0  0  0  0  0  0
  -27.7353  -14.2503   19.6136 H   0  0  0  0  0  0  0  0  0  0  0  0
  -28.5890  -11.9550   21.3832 H   0  0  0  0  0  0  0  0  0  0  0  0
  -28.5005  -13.6134   21.8562 H   0  0  0  0  0  0  0  0  0  0  0  0
  -25.2399   -9.5495   22.4318 H   0  0  0  0  0  0  0  0  0  0  0  0
  -23.9663   -7.5070   22.7297 H   0  0  0  0  0  0  0  0  0  0  0  0
  -21.1515   -8.8641   19.9162 H   0  0  0  0  0  0  0  0  0  0  0  0
  -22.4016  -10.9115   19.6476 H   0  0  0  0  0  0  0  0  0  0  0  0
  -21.2319   -7.5552   23.9750 H   0  0  0  0  0  0  0  0  0  0  0  0
  -21.1589   -6.0228   25.8556 H   0  0  0  0  0  0  0  0  0  0  0  0
  -22.0396   -2.8212   23.2809 H   0  0  0  0  0  0  0  0  0  0  0  0
  -22.4401  -11.9703   22.4008 H   0  0  0  0  0  0  0  0  0  0  0  0
  -21.1493  -13.0679   22.2082 H   0  0  0  0  0  0  0  0  0  0  0  0
  -24.6538  -15.7807   20.5848 H   0  0  0  0  0  0  0  0  0  0  0  0
  -26.2762  -15.5453   20.1156 H   0  0  0  0  0  0  0  0  0  0  0  0
  -26.6778  -32.4663   23.1464 H   0  0  0  0  0  0  0  0  0  0  0  0
  -25.0747  -34.0282   25.0566 H   0  0  0  0  0  0  0  0  0  0  0  0
  -22.7881  -31.3489   21.4131 H   0  0  0  0  0  0  0  0  0  0  0  0
  -23.3854  -35.9823   23.3648 H   0  0  0  0  0  0  0  0  0  0  0  0
  -24.3696  -36.8624   22.2204 H   0  0  0  0  0  0  0  0  0  0  0  0
  -23.7669  -37.6632   23.6516 H   0  0  0  0  0  0  0  0  0  0  0  0
  -25.9445  -31.6237   20.5691 H   0  0  0  0  0  0  0  0  0  0  0  0
  -26.7436  -31.0079   22.0108 H   0  0  0  0  0  0  0  0  0  0  0  0
  -28.0090  -29.1452   21.2057 H   0  0  0  0  0  0  0  0  0  0  0  0
  -26.1369  -26.0560   19.0719 H   0  0  0  0  0  0  0  0  0  0  0  0
  -24.0652  -27.2961   19.0997 H   0  0  0  0  0  0  0  0  0  0  0  0
  -23.6156  -30.5365   19.3930 H   0  0  0  0  0  0  0  0  0  0  0  0
  -22.7355  -29.1425   19.9945 H   0  0  0  0  0  0  0  0  0  0  0  0
  -25.1353  -36.2335   25.0565 H   0  0  0  0  0  0  0  0  0  0  0  0
  -21.0070  -28.3206   24.0793 H   0  0  0  0  0  0  0  0  0  0  0  0
  -20.5555  -26.2518   23.3550 H   0  0  0  0  0  0  0  0  0  0  0  0
  -21.5974  -26.8362   22.0454 H   0  0  0  0  0  0  0  0  0  0  0  0
  -19.6810  -25.6422   21.1488 H   0  0  0  0  0  0  0  0  0  0  0  0
  -19.6406  -27.3343   20.7034 H   0  0  0  0  0  0  0  0  0  0  0  0
  -17.4282  -26.6888   21.4113 H   0  0  0  0  0  0  0  0  0  0  0  0
  -18.0803  -26.0130   22.9049 H   0  0  0  0  0  0  0  0  0  0  0  0
  -19.7265  -30.6774   24.2204 H   0  0  0  0  0  0  0  0  0  0  0  0
  -17.5064  -31.5856   24.4483 H   0  0  0  0  0  0  0  0  0  0  0  0
  -15.5878  -30.2839   23.7407 H   0  0  0  0  0  0  0  0  0  0  0  0
  -15.9120  -28.0941   22.7766 H   0  0  0  0  0  0  0  0  0  0  0  0
  -24.5787  -30.7757   25.6817 H   0  0  0  0  0  0  0  0  0  0  0  0
  -25.0041  -32.2289   26.5536 H   0  0  0  0  0  0  0  0  0  0  0  0
  -25.8166  -30.7245   26.9138 H   0  0  0  0  0  0  0  0  0  0  0  0
  -26.2892  -29.7335   24.0803 H   0  0  0  0  0  0  0  0  0  0  0  0
  -27.4336  -29.7484   25.4006 H   0  0  0  0  0  0  0  0  0  0  0  0
  -27.8466  -30.4994   23.8779 H   0  0  0  0  0  0  0  0  0  0  0  0
  -27.2251  -33.3632   26.1242 H   0  0  0  0  0  0  0  0  0  0  0  0
  -28.3902  -32.6065   25.0645 H   0  0  0  0  0  0  0  0  0  0  0  0
  -27.9772  -31.8555   26.5872 H   0  0  0  0  0  0  0  0  0  0  0  0
  -28.2744  -38.0016   24.6863 H   0  0  0  0  0  0  0  0  0  0  0  0
  -28.0396  -36.2711   24.7461 H   0  0  0  0  0  0  0  0  0  0  0  0
  -27.1773  -37.3087   25.8564 H   0  0  0  0  0  0  0  0  0  0  0  0
  -20.9627  -29.9365   21.7352 H   0  0  0  0  0  0  0  0  0  0  0  0
  -26.0447  -38.2561   24.0273 H   0  0  0  0  0  0  0  0  0  0  0  0
  -30.4497  -20.9399   20.4185 H   0  0  0  0  0  0  0  0  0  0  0  0
  -32.4535  -21.5926   16.7814 H   0  0  0  0  0  0  0  0  0  0  0  0
  -28.6741  -21.3409   20.9302 H   0  0  0  0  0  0  0  0  0  0  0  0
  -27.4746  -22.5647   21.2719 H   0  0  0  0  0  0  0  0  0  0  0  0
  -28.7610  -22.2591   22.4143 H   0  0  0  0  0  0  0  0  0  0  0  0
  -31.9087  -18.9747   15.9819 H   0  0  0  0  0  0  0  0  0  0  0  0
  -30.4125  -19.7974   16.3531 H   0  0  0  0  0  0  0  0  0  0  0  0
  -30.4062  -18.0834   16.0138 H   0  0  0  0  0  0  0  0  0  0  0  0
  -32.8769  -17.3343   17.5845 H   0  0  0  0  0  0  0  0  0  0  0  0
  -31.3577  -16.4712   17.6018 H   0  0  0  0  0  0  0  0  0  0  0  0
  -32.0770  -17.0040   19.1024 H   0  0  0  0  0  0  0  0  0  0  0  0
  -32.1621  -19.4060   19.6663 H   0  0  0  0  0  0  0  0  0  0  0  0
  -32.9463  -19.7054   18.0698 H   0  0  0  0  0  0  0  0  0  0  0  0
  -29.8607  -17.8965   19.5771 H   0  0  0  0  0  0  0  0  0  0  0  0
  -29.0367  -17.9249   18.1249 H   0  0  0  0  0  0  0  0  0  0  0  0
  -29.8587  -25.9981   18.3693 H   0  0  0  0  0  0  0  0  0  0  0  0
  1 25  1  0
  1 30  2  0
  1 84  1  0
  2  3  1  0
  2 25  1  0
  2 87  1  0
  2 88  1  0
  3  4  1  0
  3 89  1  0
  3 90  1  0
  4  5  1  0
  4 91  1  0
  4 92  1  0
  5  6  1  0
  5 26  1  0
  5 93  1  6
  6 25  1  0
  6 94  1  0
  6 95  1  0
  7  8  2  0
  7 26  1  0
  7 29  1  0
  8  9  1  0
  8 22  1  0
  9 10  1  0
  9 27  2  0
 10 11  2  0
 10 15  1  0
 11 12  1  0
 11 96  1  0
 12 13  2  0
 12 97  1  0
 13 14  1  0
 13 31  1  0
 14 15  2  0
 14 98  1  0
 15 99  1  0
 16 17  2  0
 16 21  1  0
 16 31  1  0
 17 18  1  0
 17100  1  0
 18 19  2  0
 18101  1  0
 19 20  1  0
 19 24  1  0
 20 21  2  0
 20102  1  0
 21 23  1  0
 22 28  1  0
 22 32  2  0
 26 27  1  0
 28103  1  0
 28104  1  0
 29105  1  0
 29106  1  0
 33 34  1  0
 33 66  1  0
 33 70  2  0
 34 36  1  0
 34 59  1  0
 34107  1  6
 35 44  2  0
 35 45  1  0
 35 68  1  0
 36 56  1  0
 36108  1  0
 37 39  1  0
 37 47  1  0
 37 66  1  0
 37109  1  6
 38 43  2  0
 38 46  1  0
 38 47  1  0
 39 64  1  0
 39 67  2  0
 40 52  1  0
 40 53  2  0
 40 58  1  0
 41110  1  0
 41111  1  0
 41112  1  0
 42 43  1  0
 42 66  1  0
 42113  1  0
 42114  1  0
 43 44  1  0
 44115  1  0
 45 46  2  0
 45116  1  0
 46117  1  0
 47118  1  0
 47119  1  0
 48 41  1  0
 48 56  1  0
 48 65  1  0
 48120  1  1
 49 50  1  0
 49 53  1  0
 49 64  1  0
 49121  1  1
 50 51  1  0
 50122  1  0
 50123  1  0
 51 52  1  0
 51124  1  0
 51125  1  0
 52126  1  0
 52127  1  0
 53 54  1  0
 54 55  2  0
 54128  1  0
 55 57  1  0
 55129  1  0
 56 69  2  0
 57 58  2  0
 57130  1  0
 58131  1  0
 59 60  1  0
 59 61  1  0
 59 62  1  0
 60132  1  0
 60133  1  0
 60134  1  0
 61135  1  0
 61136  1  0
 61137  1  0
 62138  1  0
 62139  1  0
 62140  1  0
 63 65  1  0
 63141  1  0
 63142  1  0
 63143  1  0
 64144  1  0
 65145  1  0
 68 82  1  0
 71 73  2  0
 71 74  1  0
 71146  1  0
 72 74  2  0
 72 76  1  0
 72147  1  0
 73 75  1  0
 73 77  1  0
 74 81  1  0
 75 76  2  0
 75 84  1  0
 76 86  1  0
 77 78  1  0
 77 85  2  0
 78148  1  0
 78149  1  0
 78150  1  0
 79151  1  0
 79152  1  0
 79153  1  0
 80 83  1  0
 80154  1  0
 80155  1  0
 80156  1  0
 81 83  1  0
 81157  1  0
 81158  1  0
 82 83  1  0
 82159  1  0
 82160  1  0
 83 79  1  0
 84161  1  0
M  ISO  4   1 100  68 101  82 101  84 100
M  END
$$$$
61
     RDKit          3D

147155  0  0  0  0  0  0  0  0999 V2000
  -30.7652  -14.3608   20.6636 C   0  0  0  0  0  0  0  0  0100  0  0
  -30.4392  -12.2669   19.3775 C   0  0  0  0  0  0  0  0  0101  0  0
  -29.4791  -12.5281   18.1977 C   0  0  0  0  0  0  0  0  0102  0  0
  -27.9985  -12.3963   18.6038 C   0  0  0  0  0  0  0  0  0103  0  0
  -27.6639  -13.2170   19.8820 C   0  0  2  0  0  0  0  0  0104  0  0
  -28.6795  -12.9602   21.0279 C   0  0  0  0  0  0  0  0  0105  0  0
  -25.2633  -13.8245   20.5754 C   0  0  0  0  0  0  0  0  0106  0  0
  -24.1645  -13.0409   20.9408 C   0  0  0  0  0  0  0  0  0107  0  0
  -24.6400  -11.7009   20.8697 C   0  0  0  0  0  0  0  0  0108  0  0
  -23.9005  -10.4085   21.0420 C   0  0  0  0  0  0  0  0  0109  0  0
  -24.3588   -9.4123   21.9123 C   0  0  0  0  0  0  0  0  0110  0  0
  -23.6296   -8.2350   22.0803 C   0  0  0  0  0  0  0  0  0111  0  0
  -22.4385   -8.0419   21.3657 C   0  0  0  0  0  0  0  0  0112  0  0
  -22.0103   -9.0167   20.4678 C   0  0  0  0  0  0  0  0  0113  0  0
  -22.7317  -10.1925   20.3102 C   0  0  0  0  0  0  0  0  0114  0  0
  -21.6857   -6.0709   22.5391 C   0  0  0  0  0  0  0  0  0115  0  0
  -21.4064   -6.5490   23.8264 C   0  0  0  0  0  0  0  0  0116  0  0
  -21.3635   -5.6677   24.9085 C   0  0  0  0  0  0  0  0  0117  0  0
  -21.5973   -4.3067   24.7088 C   0  0  0  0  0  0  0  0  0118  0  0
  -21.8700   -3.8284   23.4282 C   0  0  0  0  0  0  0  0  0119  0  0
  -21.9144   -4.7056   22.3460 C   0  0  0  0  0  0  0  0  0120  0  0
  -22.8194  -13.5263   21.1763 C   0  0  0  0  0  0  0  0  0121  0  0
  -22.1559   -4.2206   21.1063 F   0  0  0  0  0  0  0  0  0122  0  0
  -21.5628   -3.4510   25.7555 F   0  0  0  0  0  0  0  0  0123  0  0
  -30.0261  -13.1803   20.4553 N   0  0  0  0  0  0  0  0  0124  0  0
  -26.2911  -12.9356   20.3443 N   0  0  0  0  0  0  0  0  0125  0  0
  -25.9236  -11.6675   20.5847 N   0  0  0  0  0  0  0  0  0126  0  0
  -22.0708  -12.7905   22.0005 N   0  0  0  0  0  0  0  0  0127  0  0
  -25.4117  -15.1773   20.4097 N   0  0  0  0  0  0  0  0  0128  0  0
  -31.7916  -14.6724   20.0536 O   0  0  0  0  0  0  0  0  0129  0  0
  -21.6670   -6.9022   21.4423 O   0  0  0  0  0  0  0  0  0130  0  0
  -22.3946  -14.5564   20.6568 O   0  0  0  0  0  0  0  0  0131  0  0
  -24.6048  -31.8614   23.2223 C   0  0  0  0  0  0  0  0  0100  0  0
  -25.8822  -32.4841   23.8616 C   0  0  1  0  0  0  0  0  0101  0  0
  -27.2536  -27.5042   20.1156 C   0  0  0  0  0  0  0  0  0102  0  0
  -25.5726  -33.8762   24.2210 N   0  0  0  0  0  0  0  0  0103  0  0
  -23.4066  -30.4859   21.5461 C   0  0  2  0  0  0  0  0  0104  0  0
  -24.8467  -28.9636   20.1247 C   0  0  0  0  0  0  0  0  0105  0  0
  -22.7412  -29.4652   22.5052 C   0  0  0  0  0  0  0  0  0106  0  0
  -18.0167  -28.1302   22.8626 C   0  0  0  0  0  0  0  0  0107  0  0
  -24.1342  -36.7390   23.2568 C   0  0  0  0  0  0  0  0  0108  0  0
  -25.9141  -30.8882   21.3456 C   0  0  0  0  0  0  0  0  0109  0  0
  -25.9930  -29.5029   20.7208 C   0  0  0  0  0  0  0  0  0110  0  0
  -27.1758  -28.7612   20.7331 C   0  0  0  0  0  0  0  0  0111  0  0
  -26.1032  -26.9836   19.5230 C   0  0  0  0  0  0  0  0  0112  0  0
  -24.9097  -27.7011   19.5331 C   0  0  0  0  0  0  0  0  0113  0  0
  -23.5715  -29.7899   20.1582 C   0  0  0  0  0  0  0  0  0114  0  0
  -25.3990  -36.3212   24.0232 C   0  0  1  0  0  0  0  0  0115  0  0
  -20.5793  -28.3813   23.1004 C   0  0  2  0  0  0  0  0  0116  0  0
  -20.6548  -26.9392   22.5411 C   0  0  0  0  0  0  0  0  0117  0  0
  -19.5615  -26.6407   21.5143 C   0  0  0  0  0  0  0  0  0118  0  0
  -18.1797  -26.7818   22.1673 C   0  0  0  0  0  0  0  0  0119  0  0
  -19.1385  -28.8769   23.2988 C   0  0  0  0  0  0  0  0  0120  0  0
  -18.9183  -30.1286   23.8878 C   0  0  0  0  0  0  0  0  0121  0  0
  -17.6396  -30.6493   24.0352 C   0  0  0  0  0  0  0  0  0122  0  0
  -25.9153  -34.9582   23.4993 C   0  0  0  0  0  0  0  0  0123  0  0
  -16.5415  -29.9068   23.6254 C   0  0  0  0  0  0  0  0  0124  0  0
  -16.7331  -28.6521   23.0586 C   0  0  0  0  0  0  0  0  0125  0  0
  -26.4583  -31.6439   25.0683 C   0  0  0  0  0  0  0  0  0126  0  0
  -25.3807  -31.3179   26.1374 C   0  0  0  0  0  0  0  0  0127  0  0
  -27.0530  -30.3024   24.5680 C   0  0  0  0  0  0  0  0  0128  0  0
  -27.6014  -32.4281   25.7651 C   0  0  0  0  0  0  0  0  0129  0  0
  -27.5629  -37.2220   24.8621 C   0  0  0  0  0  0  0  0  0130  0  0
  -21.4133  -29.3375   22.3735 N   0  0  0  0  0  0  0  0  0131  0  0
  -26.4706  -37.3372   23.9061 N   0  0  0  0  0  0  0  0  0132  0  0
  -24.6674  -31.0544   22.1178 N   0  0  0  0  0  0  0  0  0133  0  0
  -23.4259  -28.8150   23.2971 O   0  0  0  0  0  0  0  0  0134  0  0
  -28.3948  -26.7345   20.0089 O   0  0  0  0  0  0  0  0  0135  0  0
  -26.5870  -34.9065   22.4671 O   0  0  0  0  0  0  0  0  0136  0  0
  -23.5365  -32.1254   23.7833 O   0  0  0  0  0  0  0  0  0137  0  0
  -28.8147  -24.5498   18.1427 C   0  0  0  0  0  0  0  0  0  0  0  0
  -29.8614  -24.7492   19.0184 C   0  0  0  0  0  0  0  0  0  0  0  0
  -29.2408  -22.7574   19.6946 C   0  0  0  0  0  0  0  0  0  0  0  0
  -31.3119  -27.8580   20.1984 C   0  0  0  0  0  0  0  0  0  0  0  0
  -29.9761  -28.5627   20.0214 C   0  0  0  0  0  0  0  0  0  1  0  0
  -31.1596  -26.3451   20.2115 C   0  0  0  0  0  0  0  0  0  0  0  0
  -30.1069  -23.7227   19.9093 N   0  0  0  0  0  0  0  0  0  0  0  0
  -29.1326  -21.5217   20.3796 N   0  0  0  0  0  0  0  0  0  0  0  0
  -30.5950  -25.9065   18.9832 O   0  0  0  0  0  0  0  0  0  0  0  0
  -28.1030  -23.0172   18.4364 S   0  0  0  0  0  0  0  0  0  0  0  0
  -31.4485  -12.4701   19.0860 H   0  0  0  0  0  0  0  0  0  0  0  0
  -30.3970  -11.2460   19.6950 H   0  0  0  0  0  0  0  0  0  0  0  0
  -29.6870  -11.8204   17.4226 H   0  0  0  0  0  0  0  0  0  0  0  0
  -29.6375  -13.5326   17.8649 H   0  0  0  0  0  0  0  0  0  0  0  0
  -27.7830  -11.3650   18.7904 H   0  0  0  0  0  0  0  0  0  0  0  0
  -27.4028  -12.7801   17.8021 H   0  0  0  0  0  0  0  0  0  0  0  0
  -27.7353  -14.2503   19.6136 H   0  0  0  0  0  0  0  0  0  0  0  0
  -28.5890  -11.9550   21.3832 H   0  0  0  0  0  0  0  0  0  0  0  0
  -28.5005  -13.6134   21.8562 H   0  0  0  0  0  0  0  0  0  0  0  0
  -25.2399   -9.5495   22.4318 H   0  0  0  0  0  0  0  0  0  0  0  0
  -23.9663   -7.5070   22.7297 H   0  0  0  0  0  0  0  0  0  0  0  0
  -21.1515   -8.8641   19.9162 H   0  0  0  0  0  0  0  0  0  0  0  0
  -22.4016  -10.9115   19.6476 H   0  0  0  0  0  0  0  0  0  0  0  0
  -21.2319   -7.5552   23.9750 H   0  0  0  0  0  0  0  0  0  0  0  0
  -21.1589   -6.0228   25.8556 H   0  0  0  0  0  0  0  0  0  0  0  0
  -22.0396   -2.8212   23.2809 H   0  0  0  0  0  0  0  0  0  0  0  0
  -22.4401  -11.9703   22.4008 H   0  0  0  0  0  0  0  0  0  0  0  0
  -21.1493  -13.0679   22.2082 H   0  0  0  0  0  0  0  0  0  0  0  0
  -24.6538  -15.7807   20.5848 H   0  0  0  0  0  0  0  0  0  0  0  0
  -26.2762  -15.5453   20.1156 H   0  0  0  0  0  0  0  0  0  0  0  0
  -26.6778  -32.4663   23.1464 H   0  0  0  0  0  0  0  0  0  0  0  0
  -25.0747  -34.0282   25.0566 H   0  0  0  0  0  0  0  0  0  0  0  0
  -22.7881  -31.3489   21.4131 H   0  0  0  0  0  0  0  0  0  0  0  0
  -23.3854  -35.9823   23.3648 H   0  0  0  0  0  0  0  0  0  0  0  0
  -24.3696  -36.8624   22.2204 H   0  0  0  0  0  0  0  0  0  0  0  0
  -23.7669  -37.6632   23.6516 H   0  0  0  0  0  0  0  0  0  0  0  0
  -25.9445  -31.6237   20.5691 H   0  0  0  0  0  0  0  0  0  0  0  0
  -26.7436  -31.0079   22.0108 H   0  0  0  0  0  0  0  0  0  0  0  0
  -28.0090  -29.1452   21.2057 H   0  0  0  0  0  0  0  0  0  0  0  0
  -26.1369  -26.0560   19.0719 H   0  0  0  0  0  0  0  0  0  0  0  0
  -24.0652  -27.2961   19.0997 H   0  0  0  0  0  0  0  0  0  0  0  0
  -23.6156  -30.5365   19.3930 H   0  0  0  0  0  0  0  0  0  0  0  0
  -22.7355  -29.1425   19.9945 H   0  0  0  0  0  0  0  0  0  0  0  0
  -25.1353  -36.2335   25.0565 H   0  0  0  0  0  0  0  0  0  0  0  0
  -21.0070  -28.3206   24.0793 H   0  0  0  0  0  0  0  0  0  0  0  0
  -20.5555  -26.2518   23.3550 H   0  0  0  0  0  0  0  0  0  0  0  0
  -21.5974  -26.8362   22.0454 H   0  0  0  0  0  0  0  0  0  0  0  0
  -19.6810  -25.6422   21.1488 H   0  0  0  0  0  0  0  0  0  0  0  0
  -19.6406  -27.3343   20.7034 H   0  0  0  0  0  0  0  0  0  0  0  0
  -17.4282  -26.6888   21.4113 H   0  0  0  0  0  0  0  0  0  0  0  0
  -18.0803  -26.0130   22.9049 H   0  0  0  0  0  0  0  0  0  0  0  0
  -19.7265  -30.6774   24.2204 H   0  0  0  0  0  0  0  0  0  0  0  0
  -17.5064  -31.5856   24.4483 H   0  0  0  0  0  0  0  0  0  0  0  0
  -15.5878  -30.2839   23.7407 H   0  0  0  0  0  0  0  0  0  0  0  0
  -15.9120  -28.0941   22.7766 H   0  0  0  0  0  0  0  0  0  0  0  0
  -24.5787  -30.7757   25.6817 H   0  0  0  0  0  0  0  0  0  0  0  0
  -25.0041  -32.2289   26.5536 H   0  0  0  0  0  0  0  0  0  0  0  0
  -25.8166  -30.7245   26.9138 H   0  0  0  0  0  0  0  0  0  0  0  0
  -26.2892  -29.7335   24.0803 H   0  0  0  0  0  0  0  0  0  0  0  0
  -27.4336  -29.7484   25.4006 H   0  0  0  0  0  0  0  0  0  0  0  0
  -27.8466  -30.4994   23.8779 H   0  0  0  0  0  0  0  0  0  0  0  0
  -27.2251  -33.3632   26.1242 H   0  0  0  0  0  0  0  0  0  0  0  0
  -28.3902  -32.6065   25.0645 H   0  0  0  0  0  0  0  0  0  0  0  0
  -27.9772  -31.8555   26.5872 H   0  0  0  0  0  0  0  0  0  0  0  0
  -28.2744  -38.0016   24.6863 H   0  0  0  0  0  0  0  0  0  0  0  0
  -28.0396  -36.2711   24.7461 H   0  0  0  0  0  0  0  0  0  0  0  0
  -27.1773  -37.3087   25.8564 H   0  0  0  0  0  0  0  0  0  0  0  0
  -20.9627  -29.9365   21.7352 H   0  0  0  0  0  0  0  0  0  0  0  0
  -26.0447  -38.2561   24.0273 H   0  0  0  0  0  0  0  0  0  0  0  0
  -28.5068  -25.2202   17.4211 H   0  0  0  0  0  0  0  0  0  0  0  0
  -31.7469  -28.1696   21.1250 H   0  0  0  0  0  0  0  0  0  0  0  0
  -31.9367  -28.1204   19.3703 H   0  0  0  0  0  0  0  0  0  0  0  0
  -29.9459  -29.1037   19.0987 H   0  0  0  0  0  0  0  0  0  0  0  0
  -29.7772  -29.2872   20.7833 H   0  0  0  0  0  0  0  0  0  0  0  0
  -30.5182  -26.0598   21.0190 H   0  0  0  0  0  0  0  0  0  0  0  0
  -32.1218  -25.8947   20.3383 H   0  0  0  0  0  0  0  0  0  0  0  0
  -28.5937  -21.7062   21.1826 H   0  0  0  0  0  0  0  0  0  0  0  0
  1 25  1  0
  1 30  2  0
  1 78  1  0
  2  3  1  0
  2 25  1  0
  2 81  1  0
  2 82  1  0
  3  4  1  0
  3 83  1  0
  3 84  1  0
  4  5  1  0
  4 85  1  0
  4 86  1  0
  5  6  1  0
  5 26  1  0
  5 87  1  6
  6 25  1  0
  6 88  1  0
  6 89  1  0
  7  8  2  0
  7 26  1  0
  7 29  1  0
  8  9  1  0
  8 22  1  0
  9 10  1  0
  9 27  2  0
 10 11  2  0
 10 15  1  0
 11 12  1  0
 11 90  1  0
 12 13  2  0
 12 91  1  0
 13 14  1  0
 13 31  1  0
 14 15  2  0
 14 92  1  0
 15 93  1  0
 16 17  2  0
 16 21  1  0
 16 31  1  0
 17 18  1  0
 17 94  1  0
 18 19  2  0
 18 95  1  0
 19 20  1  0
 19 24  1  0
 20 21  2  0
 20 96  1  0
 21 23  1  0
 22 28  1  0
 22 32  2  0
 26 27  1  0
 28 97  1  0
 28 98  1  0
 29 99  1  0
 29100  1  0
 33 34  1  0
 33 66  1  0
 33 70  2  0
 34 36  1  0
 34 59  1  0
 34101  1  6
 35 44  2  0
 35 45  1  0
 35 68  1  0
 36 56  1  0
 36102  1  0
 37 39  1  0
 37 47  1  0
 37 66  1  0
 37103  1  6
 38 43  2  0
 38 46  1  0
 38 47  1  0
 39 64  1  0
 39 67  2  0
 40 52  1  0
 40 53  2  0
 40 58  1  0
 41104  1  0
 41105  1  0
 41106  1  0
 42 43  1  0
 42 66  1  0
 42107  1  0
 42108  1  0
 43 44  1  0
 44109  1  0
 45 46  2  0
 45110  1  0
 46111  1  0
 47112  1  0
 47113  1  0
 48 41  1  0
 48 56  1  0
 48 65  1  0
 48114  1  1
 49 50  1  0
 49 53  1  0
 49 64  1  0
 49115  1  1
 50 51  1  0
 50116  1  0
 50117  1  0
 51 52  1  0
 51118  1  0
 51119  1  0
 52120  1  0
 52121  1  0
 53 54  1  0
 54 55  2  0
 54122  1  0
 55 57  1  0
 55123  1  0
 56 69  2  0
 57 58  2  0
 57124  1  0
 58125  1  0
 59 60  1  0
 59 61  1  0
 59 62  1  0
 60126  1  0
 60127  1  0
 60128  1  0
 61129  1  0
 61130  1  0
 61131  1  0
 62132  1  0
 62133  1  0
 62134  1  0
 63 65  1  0
 63135  1  0
 63136  1  0
 63137  1  0
 64138  1  0
 65139  1  0
 68 75  1  0
 71 72  2  0
 71 80  1  0
 71140  1  0
 72 77  1  0
 72 79  1  0
 73 77  2  0
 73 78  1  0
 73 80  1  0
 74 75  1  0
 74 76  1  0
 74141  1  0
 74142  1  0
 75143  1  0
 75144  1  0
 76 79  1  0
 76145  1  0
 76146  1  0
 78147  1  0
M  ISO  4   1 100  68 101  75 101  78 100
M  END
$$$$
62
     RDKit          3D

160169  0  0  0  0  0  0  0  0999 V2000
  -30.7652  -14.3608   20.6636 C   0  0  0  0  0  0  0  0  0100  0  0
  -30.4392  -12.2669   19.3775 C   0  0  0  0  0  0  0  0  0101  0  0
  -29.4791  -12.5281   18.1977 C   0  0  0  0  0  0  0  0  0102  0  0
  -27.9985  -12.3963   18.6038 C   0  0  0  0  0  0  0  0  0103  0  0
  -27.6639  -13.2170   19.8820 C   0  0  2  0  0  0  0  0  0104  0  0
  -28.6795  -12.9602   21.0279 C   0  0  0  0  0  0  0  0  0105  0  0
  -25.2633  -13.8245   20.5754 C   0  0  0  0  0  0  0  0  0106  0  0
  -24.1645  -13.0409   20.9408 C   0  0  0  0  0  0  0  0  0107  0  0
  -24.6400  -11.7009   20.8697 C   0  0  0  0  0  0  0  0  0108  0  0
  -23.9005  -10.4085   21.0420 C   0  0  0  0  0  0  0  0  0109  0  0
  -24.3588   -9.4123   21.9123 C   0  0  0  0  0  0  0  0  0110  0  0
  -23.6296   -8.2350   22.0803 C   0  0  0  0  0  0  0  0  0111  0  0
  -22.4385   -8.0419   21.3657 C   0  0  0  0  0  0  0  0  0112  0  0
  -22.0103   -9.0167   20.4678 C   0  0  0  0  0  0  0  0  0113  0  0
  -22.7317  -10.1925   20.3102 C   0  0  0  0  0  0  0  0  0114  0  0
  -21.6857   -6.0709   22.5391 C   0  0  0  0  0  0  0  0  0115  0  0
  -21.4064   -6.5490   23.8264 C   0  0  0  0  0  0  0  0  0116  0  0
  -21.3635   -5.6677   24.9085 C   0  0  0  0  0  0  0  0  0117  0  0
  -21.5973   -4.3067   24.7088 C   0  0  0  0  0  0  0  0  0118  0  0
  -21.8700   -3.8284   23.4282 C   0  0  0  0  0  0  0  0  0119  0  0
  -21.9144   -4.7056   22.3460 C   0  0  0  0  0  0  0  0  0120  0  0
  -22.8194  -13.5263   21.1763 C   0  0  0  0  0  0  0  0  0121  0  0
  -22.1559   -4.2206   21.1063 F   0  0  0  0  0  0  0  0  0122  0  0
  -21.5628   -3.4510   25.7555 F   0  0  0  0  0  0  0  0  0123  0  0
  -30.0261  -13.1803   20.4553 N   0  0  0  0  0  0  0  0  0124  0  0
  -26.2911  -12.9356   20.3443 N   0  0  0  0  0  0  0  0  0125  0  0
  -25.9236  -11.6675   20.5847 N   0  0  0  0  0  0  0  0  0126  0  0
  -22.0708  -12.7905   22.0005 N   0  0  0  0  0  0  0  0  0127  0  0
  -25.4117  -15.1773   20.4097 N   0  0  0  0  0  0  0  0  0128  0  0
  -31.7916  -14.6724   20.0536 O   0  0  0  0  0  0  0  0  0129  0  0
  -21.6670   -6.9022   21.4423 O   0  0  0  0  0  0  0  0  0130  0  0
  -22.3946  -14.5564   20.6568 O   0  0  0  0  0  0  0  0  0131  0  0
  -24.6048  -31.8614   23.2223 C   0  0  0  0  0  0  0  0  0100  0  0
  -25.8822  -32.4841   23.8616 C   0  0  1  0  0  0  0  0  0101  0  0
  -27.2536  -27.5042   20.1156 C   0  0  0  0  0  0  0  0  0102  0  0
  -25.5726  -33.8762   24.2210 N   0  0  0  0  0  0  0  0  0103  0  0
  -23.4066  -30.4859   21.5461 C   0  0  2  0  0  0  0  0  0104  0  0
  -24.8467  -28.9636   20.1247 C   0  0  0  0  0  0  0  0  0105  0  0
  -22.7412  -29.4652   22.5052 C   0  0  0  0  0  0  0  0  0106  0  0
  -18.0167  -28.1302   22.8626 C   0  0  0  0  0  0  0  0  0107  0  0
  -24.1342  -36.7390   23.2568 C   0  0  0  0  0  0  0  0  0108  0  0
  -25.9141  -30.8882   21.3456 C   0  0  0  0  0  0  0  0  0109  0  0
  -25.9930  -29.5029   20.7208 C   0  0  0  0  0  0  0  0  0110  0  0
  -27.1758  -28.7612   20.7331 C   0  0  0  0  0  0  0  0  0111  0  0
  -26.1032  -26.9836   19.5230 C   0  0  0  0  0  0  0  0  0112  0  0
  -24.9097  -27.7011   19.5331 C   0  0  0  0  0  0  0  0  0113  0  0
  -23.5715  -29.7899   20.1582 C   0  0  0  0  0  0  0  0  0114  0  0
  -25.3990  -36.3212   24.0232 C   0  0  1  0  0  0  0  0  0115  0  0
  -20.5793  -28.3813   23.1004 C   0  0  2  0  0  0  0  0  0116  0  0
  -20.6548  -26.9392   22.5411 C   0  0  0  0  0  0  0  0  0117  0  0
  -19.5615  -26.6407   21.5143 C   0  0  0  0  0  0  0  0  0118  0  0
  -18.1797  -26.7818   22.1673 C   0  0  0  0  0  0  0  0  0119  0  0
  -19.1385  -28.8769   23.2988 C   0  0  0  0  0  0  0  0  0120  0  0
  -18.9183  -30.1286   23.8878 C   0  0  0  0  0  0  0  0  0121  0  0
  -17.6396  -30.6493   24.0352 C   0  0  0  0  0  0  0  0  0122  0  0
  -25.9153  -34.9582   23.4993 C   0  0  0  0  0  0  0  0  0123  0  0
  -16.5415  -29.9068   23.6254 C   0  0  0  0  0  0  0  0  0124  0  0
  -16.7331  -28.6521   23.0586 C   0  0  0  0  0  0  0  0  0125  0  0
  -26.4583  -31.6439   25.0683 C   0  0  0  0  0  0  0  0  0126  0  0
  -25.3807  -31.3179   26.1374 C   0  0  0  0  0  0  0  0  0127  0  0
  -27.0530  -30.3024   24.5680 C   0  0  0  0  0  0  0  0  0128  0  0
  -27.6014  -32.4281   25.7651 C   0  0  0  0  0  0  0  0  0129  0  0
  -27.5629  -37.2220   24.8621 C   0  0  0  0  0  0  0  0  0130  0  0
  -21.4133  -29.3375   22.3735 N   0  0  0  0  0  0  0  0  0131  0  0
  -26.4706  -37.3372   23.9061 N   0  0  0  0  0  0  0  0  0132  0  0
  -24.6674  -31.0544   22.1178 N   0  0  0  0  0  0  0  0  0133  0  0
  -23.4259  -28.8150   23.2971 O   0  0  0  0  0  0  0  0  0134  0  0
  -28.3948  -26.7345   20.0089 O   0  0  0  0  0  0  0  0  0135  0  0
  -26.5870  -34.9065   22.4671 O   0  0  0  0  0  0  0  0  0136  0  0
  -23.5365  -32.1254   23.7833 O   0  0  0  0  0  0  0  0  0137  0  0
  -27.5243  -22.4876   20.9397 C   0  0  0  0  0  0  0  0  0  0  0  0
  -28.9832  -24.0359   19.2308 C   0  0  0  0  0  0  0  0  0  0  0  0
  -27.7456  -24.5019   19.6443 C   0  0  0  0  0  0  0  0  0  0  0  0
  -27.0085  -23.7070   20.5150 C   0  0  0  0  0  0  0  0  0  0  0  0
  -28.7717  -22.1116   20.4680 C   0  0  0  0  0  0  0  0  0  0  0  0
  -30.1764  -18.6661   20.4206 C   0  0  0  0  0  0  0  0  0  0  0  0
  -30.2603  -18.3410   21.8928 C   0  0  0  0  0  0  0  0  0  0  0  0
  -30.1744  -20.1265   20.0293 C   0  0  0  0  0  0  0  0  0  0  0  0
  -29.4070  -20.6621   22.3504 C   0  0  0  0  0  0  0  0  0  0  0  0
  -29.2568  -19.1734   22.6881 C   0  0  1  0  0  0  0  0  0  0  0  0
  -27.2450  -25.8175   19.1554 C   0  0  0  0  0  0  0  0  0  0  0  0
  -27.8202  -18.6882   22.4699 C   0  0  0  0  0  0  0  0  0  1  0  0
  -29.5171  -22.8570   19.6216 N   0  0  0  0  0  0  0  0  0  0  0  0
  -29.2779  -20.8818   20.9041 N   0  0  0  0  0  0  0  0  0  0  0  0
  -25.7352  -24.1217   20.9782 N   0  0  0  0  0  0  0  0  0  0  0  0
  -30.2224  -17.7775   19.5694 O   0  0  0  0  0  0  0  0  0  0  0  0
  -31.4485  -12.4701   19.0860 H   0  0  0  0  0  0  0  0  0  0  0  0
  -30.3970  -11.2460   19.6950 H   0  0  0  0  0  0  0  0  0  0  0  0
  -29.6870  -11.8204   17.4226 H   0  0  0  0  0  0  0  0  0  0  0  0
  -29.6375  -13.5326   17.8649 H   0  0  0  0  0  0  0  0  0  0  0  0
  -27.7830  -11.3650   18.7904 H   0  0  0  0  0  0  0  0  0  0  0  0
  -27.4028  -12.7801   17.8021 H   0  0  0  0  0  0  0  0  0  0  0  0
  -27.7353  -14.2503   19.6136 H   0  0  0  0  0  0  0  0  0  0  0  0
  -28.5890  -11.9550   21.3832 H   0  0  0  0  0  0  0  0  0  0  0  0
  -28.5005  -13.6134   21.8562 H   0  0  0  0  0  0  0  0  0  0  0  0
  -25.2399   -9.5495   22.4318 H   0  0  0  0  0  0  0  0  0  0  0  0
  -23.9663   -7.5070   22.7297 H   0  0  0  0  0  0  0  0  0  0  0  0
  -21.1515   -8.8641   19.9162 H   0  0  0  0  0  0  0  0  0  0  0  0
  -22.4016  -10.9115   19.6476 H   0  0  0  0  0  0  0  0  0  0  0  0
  -21.2319   -7.5552   23.9750 H   0  0  0  0  0  0  0  0  0  0  0  0
  -21.1589   -6.0228   25.8556 H   0  0  0  0  0  0  0  0  0  0  0  0
  -22.0396   -2.8212   23.2809 H   0  0  0  0  0  0  0  0  0  0  0  0
  -22.4401  -11.9703   22.4008 H   0  0  0  0  0  0  0  0  0  0  0  0
  -21.1493  -13.0679   22.2082 H   0  0  0  0  0  0  0  0  0  0  0  0
  -24.6538  -15.7807   20.5848 H   0  0  0  0  0  0  0  0  0  0  0  0
  -26.2762  -15.5453   20.1156 H   0  0  0  0  0  0  0  0  0  0  0  0
  -26.6778  -32.4663   23.1464 H   0  0  0  0  0  0  0  0  0  0  0  0
  -25.0747  -34.0282   25.0566 H   0  0  0  0  0  0  0  0  0  0  0  0
  -22.7881  -31.3489   21.4131 H   0  0  0  0  0  0  0  0  0  0  0  0
  -23.3854  -35.9823   23.3648 H   0  0  0  0  0  0  0  0  0  0  0  0
  -24.3696  -36.8624   22.2204 H   0  0  0  0  0  0  0  0  0  0  0  0
  -23.7669  -37.6632   23.6516 H   0  0  0  0  0  0  0  0  0  0  0  0
  -25.9445  -31.6237   20.5691 H   0  0  0  0  0  0  0  0  0  0  0  0
  -26.7436  -31.0079   22.0108 H   0  0  0  0  0  0  0  0  0  0  0  0
  -28.0090  -29.1452   21.2057 H   0  0  0  0  0  0  0  0  0  0  0  0
  -26.1369  -26.0560   19.0719 H   0  0  0  0  0  0  0  0  0  0  0  0
  -24.0652  -27.2961   19.0997 H   0  0  0  0  0  0  0  0  0  0  0  0
  -23.6156  -30.5365   19.3930 H   0  0  0  0  0  0  0  0  0  0  0  0
  -22.7355  -29.1425   19.9945 H   0  0  0  0  0  0  0  0  0  0  0  0
  -25.1353  -36.2335   25.0565 H   0  0  0  0  0  0  0  0  0  0  0  0
  -21.0070  -28.3206   24.0793 H   0  0  0  0  0  0  0  0  0  0  0  0
  -20.5555  -26.2518   23.3550 H   0  0  0  0  0  0  0  0  0  0  0  0
  -21.5974  -26.8362   22.0454 H   0  0  0  0  0  0  0  0  0  0  0  0
  -19.6810  -25.6422   21.1488 H   0  0  0  0  0  0  0  0  0  0  0  0
  -19.6406  -27.3343   20.7034 H   0  0  0  0  0  0  0  0  0  0  0  0
  -17.4282  -26.6888   21.4113 H   0  0  0  0  0  0  0  0  0  0  0  0
  -18.0803  -26.0130   22.9049 H   0  0  0  0  0  0  0  0  0  0  0  0
  -19.7265  -30.6774   24.2204 H   0  0  0  0  0  0  0  0  0  0  0  0
  -17.5064  -31.5856   24.4483 H   0  0  0  0  0  0  0  0  0  0  0  0
  -15.5878  -30.2839   23.7407 H   0  0  0  0  0  0  0  0  0  0  0  0
  -15.9120  -28.0941   22.7766 H   0  0  0  0  0  0  0  0  0  0  0  0
  -24.5787  -30.7757   25.6817 H   0  0  0  0  0  0  0  0  0  0  0  0
  -25.0041  -32.2289   26.5536 H   0  0  0  0  0  0  0  0  0  0  0  0
  -25.8166  -30.7245   26.9138 H   0  0  0  0  0  0  0  0  0  0  0  0
  -26.2892  -29.7335   24.0803 H   0  0  0  0  0  0  0  0  0  0  0  0
  -27.4336  -29.7484   25.4006 H   0  0  0  0  0  0  0  0  0  0  0  0
  -27.8466  -30.4994   23.8779 H   0  0  0  0  0  0  0  0  0  0  0  0
  -27.2251  -33.3632   26.1242 H   0  0  0  0  0  0  0  0  0  0  0  0
  -28.3902  -32.6065   25.0645 H   0  0  0  0  0  0  0  0  0  0  0  0
  -27.9772  -31.8555   26.5872 H   0  0  0  0  0  0  0  0  0  0  0  0
  -28.2744  -38.0016   24.6863 H   0  0  0  0  0  0  0  0  0  0  0  0
  -28.0396  -36.2711   24.7461 H   0  0  0  0  0  0  0  0  0  0  0  0
  -27.1773  -37.3087   25.8564 H   0  0  0  0  0  0  0  0  0  0  0  0
  -20.9627  -29.9365   21.7352 H   0  0  0  0  0  0  0  0  0  0  0  0
  -26.0447  -38.2561   24.0273 H   0  0  0  0  0  0  0  0  0  0  0  0
  -26.9948  -21.8817   21.5859 H   0  0  0  0  0  0  0  0  0  0  0  0
  -29.5312  -24.6251   18.5846 H   0  0  0  0  0  0  0  0  0  0  0  0
  -31.2487  -18.5532   22.2435 H   0  0  0  0  0  0  0  0  0  0  0  0
  -30.0321  -17.3046   22.0295 H   0  0  0  0  0  0  0  0  0  0  0  0
  -29.8424  -20.2207   19.0165 H   0  0  0  0  0  0  0  0  0  0  0  0
  -31.1665  -20.5155   20.1258 H   0  0  0  0  0  0  0  0  0  0  0  0
  -30.3698  -20.9999   22.6724 H   0  0  0  0  0  0  0  0  0  0  0  0
  -28.6353  -21.2081   22.8516 H   0  0  0  0  0  0  0  0  0  0  0  0
  -29.4720  -19.0453   23.7284 H   0  0  0  0  0  0  0  0  0  0  0  0
  -27.9698  -26.2538   18.5003 H   0  0  0  0  0  0  0  0  0  0  0  0
  -27.0798  -26.4682   19.9886 H   0  0  0  0  0  0  0  0  0  0  0  0
  -26.3259  -25.6751   18.6263 H   0  0  0  0  0  0  0  0  0  0  0  0
  -27.2275  -18.4676   23.3330 H   0  0  0  0  0  0  0  0  0  0  0  0
  -27.4566  -17.8319   21.9412 H   0  0  0  0  0  0  0  0  0  0  0  0
  -25.0068  -24.7560   21.1691 H   0  0  0  0  0  0  0  0  0  0  0  0
  1 25  1  0
  1 30  2  0
  1 85  1  0
  2  3  1  0
  2 25  1  0
  2 87  1  0
  2 88  1  0
  3  4  1  0
  3 89  1  0
  3 90  1  0
  4  5  1  0
  4 91  1  0
  4 92  1  0
  5  6  1  0
  5 26  1  0
  5 93  1  6
  6 25  1  0
  6 94  1  0
  6 95  1  0
  7  8  2  0
  7 26  1  0
  7 29  1  0
  8  9  1  0
  8 22  1  0
  9 10  1  0
  9 27  2  0
 10 11  2  0
 10 15  1  0
 11 12  1  0
 11 96  1  0
 12 13  2  0
 12 97  1  0
 13 14  1  0
 13 31  1  0
 14 15  2  0
 14 98  1  0
 15 99  1  0
 16 17  2  0
 16 21  1  0
 16 31  1  0
 17 18  1  0
 17100  1  0
 18 19  2  0
 18101  1  0
 19 20  1  0
 19 24  1  0
 20 21  2  0
 20102  1  0
 21 23  1  0
 22 28  1  0
 22 32  2  0
 26 27  1  0
 28103  1  0
 28104  1  0
 29105  1  0
 29106  1  0
 33 34  1  0
 33 66  1  0
 33 70  2  0
 34 36  1  0
 34 59  1  0
 34107  1  6
 35 44  2  0
 35 45  1  0
 35 68  1  0
 36 56  1  0
 36108  1  0
 37 39  1  0
 37 47  1  0
 37 66  1  0
 37109  1  6
 38 43  2  0
 38 46  1  0
 38 47  1  0
 39 64  1  0
 39 67  2  0
 40 52  1  0
 40 53  2  0
 40 58  1  0
 41110  1  0
 41111  1  0
 41112  1  0
 42 43  1  0
 42 66  1  0
 42113  1  0
 42114  1  0
 43 44  1  0
 44115  1  0
 45 46  2  0
 45116  1  0
 46117  1  0
 47118  1  0
 47119  1  0
 48 41  1  0
 48 56  1  0
 48 65  1  0
 48120  1  1
 49 50  1  0
 49 53  1  0
 49 64  1  0
 49121  1  1
 50 51  1  0
 50122  1  0
 50123  1  0
 51 52  1  0
 51124  1  0
 51125  1  0
 52126  1  0
 52127  1  0
 53 54  1  0
 54 55  2  0
 54128  1  0
 55 57  1  0
 55129  1  0
 56 69  2  0
 57 58  2  0
 57130  1  0
 58131  1  0
 59 60  1  0
 59 61  1  0
 59 62  1  0
 60132  1  0
 60133  1  0
 60134  1  0
 61135  1  0
 61136  1  0
 61137  1  0
 62138  1  0
 62139  1  0
 62140  1  0
 63 65  1  0
 63141  1  0
 63142  1  0
 63143  1  0
 64144  1  0
 65145  1  0
 68 82  1  0
 71 74  2  0
 71 75  1  0
 71146  1  0
 72 73  2  0
 72 83  1  0
 72147  1  0
 73 74  1  0
 73 81  1  0
 74 85  1  0
 75 83  2  0
 75 84  1  0
 76 77  1  0
 76 78  1  0
 76 86  2  0
 77 80  1  0
 77148  1  0
 77149  1  0
 78 84  1  0
 78150  1  0
 78151  1  0
 79 80  1  0
 79 84  1  0
 79152  1  0
 79153  1  0
 80 82  1  0
 80154  1  1
 81155  1  0
 81156  1  0
 81157  1  0
 82158  1  0
 82159  1  0
 85160  1  0
M  ISO  4   1 100  68 101  82 101  85 100
M  END
$$$$
63
     RDKit          3D

161169  0  0  0  0  0  0  0  0999 V2000
  -30.7652  -14.3608   20.6636 C   0  0  0  0  0  0  0  0  0100  0  0
  -30.4392  -12.2669   19.3775 C   0  0  0  0  0  0  0  0  0101  0  0
  -29.4791  -12.5281   18.1977 C   0  0  0  0  0  0  0  0  0102  0  0
  -27.9985  -12.3963   18.6038 C   0  0  0  0  0  0  0  0  0103  0  0
  -27.6639  -13.2170   19.8820 C   0  0  2  0  0  0  0  0  0104  0  0
  -28.6795  -12.9602   21.0279 C   0  0  0  0  0  0  0  0  0105  0  0
  -25.2633  -13.8245   20.5754 C   0  0  0  0  0  0  0  0  0106  0  0
  -24.1645  -13.0409   20.9408 C   0  0  0  0  0  0  0  0  0107  0  0
  -24.6400  -11.7009   20.8697 C   0  0  0  0  0  0  0  0  0108  0  0
  -23.9005  -10.4085   21.0420 C   0  0  0  0  0  0  0  0  0109  0  0
  -24.3588   -9.4123   21.9123 C   0  0  0  0  0  0  0  0  0110  0  0
  -23.6296   -8.2350   22.0803 C   0  0  0  0  0  0  0  0  0111  0  0
  -22.4385   -8.0419   21.3657 C   0  0  0  0  0  0  0  0  0112  0  0
  -22.0103   -9.0167   20.4678 C   0  0  0  0  0  0  0  0  0113  0  0
  -22.7317  -10.1925   20.3102 C   0  0  0  0  0  0  0  0  0114  0  0
  -21.6857   -6.0709   22.5391 C   0  0  0  0  0  0  0  0  0115  0  0
  -21.4064   -6.5490   23.8264 C   0  0  0  0  0  0  0  0  0116  0  0
  -21.3635   -5.6677   24.9085 C   0  0  0  0  0  0  0  0  0117  0  0
  -21.5973   -4.3067   24.7088 C   0  0  0  0  0  0  0  0  0118  0  0
  -21.8700   -3.8284   23.4282 C   0  0  0  0  0  0  0  0  0119  0  0
  -21.9144   -4.7056   22.3460 C   0  0  0  0  0  0  0  0  0120  0  0
  -22.8194  -13.5263   21.1763 C   0  0  0  0  0  0  0  0  0121  0  0
  -22.1559   -4.2206   21.1063 F   0  0  0  0  0  0  0  0  0122  0  0
  -21.5628   -3.4510   25.7555 F   0  0  0  0  0  0  0  0  0123  0  0
  -30.0261  -13.1803   20.4553 N   0  0  0  0  0  0  0  0  0124  0  0
  -26.2911  -12.9356   20.3443 N   0  0  0  0  0  0  0  0  0125  0  0
  -25.9236  -11.6675   20.5847 N   0  0  0  0  0  0  0  0  0126  0  0
  -22.0708  -12.7905   22.0005 N   0  0  0  0  0  0  0  0  0127  0  0
  -25.4117  -15.1773   20.4097 N   0  0  0  0  0  0  0  0  0128  0  0
  -31.7916  -14.6724   20.0536 O   0  0  0  0  0  0  0  0  0129  0  0
  -21.6670   -6.9022   21.4423 O   0  0  0  0  0  0  0  0  0130  0  0
  -22.3946  -14.5564   20.6568 O   0  0  0  0  0  0  0  0  0131  0  0
  -24.6048  -31.8614   23.2223 C   0  0  0  0  0  0  0  0  0100  0  0
  -25.8822  -32.4841   23.8616 C   0  0  1  0  0  0  0  0  0101  0  0
  -27.2536  -27.5042   20.1156 C   0  0  0  0  0  0  0  0  0102  0  0
  -25.5726  -33.8762   24.2210 N   0  0  0  0  0  0  0  0  0103  0  0
  -23.4066  -30.4859   21.5461 C   0  0  2  0  0  0  0  0  0104  0  0
  -24.8467  -28.9636   20.1247 C   0  0  0  0  0  0  0  0  0105  0  0
  -22.7412  -29.4652   22.5052 C   0  0  0  0  0  0  0  0  0106  0  0
  -18.0167  -28.1302   22.8626 C   0  0  0  0  0  0  0  0  0107  0  0
  -24.1342  -36.7390   23.2568 C   0  0  0  0  0  0  0  0  0108  0  0
  -25.9141  -30.8882   21.3456 C   0  0  0  0  0  0  0  0  0109  0  0
  -25.9930  -29.5029   20.7208 C   0  0  0  0  0  0  0  0  0110  0  0
  -27.1758  -28.7612   20.7331 C   0  0  0  0  0  0  0  0  0111  0  0
  -26.1032  -26.9836   19.5230 C   0  0  0  0  0  0  0  0  0112  0  0
  -24.9097  -27.7011   19.5331 C   0  0  0  0  0  0  0  0  0113  0  0
  -23.5715  -29.7899   20.1582 C   0  0  0  0  0  0  0  0  0114  0  0
  -25.3990  -36.3212   24.0232 C   0  0  1  0  0  0  0  0  0115  0  0
  -20.5793  -28.3813   23.1004 C   0  0  2  0  0  0  0  0  0116  0  0
  -20.6548  -26.9392   22.5411 C   0  0  0  0  0  0  0  0  0117  0  0
  -19.5615  -26.6407   21.5143 C   0  0  0  0  0  0  0  0  0118  0  0
  -18.1797  -26.7818   22.1673 C   0  0  0  0  0  0  0  0  0119  0  0
  -19.1385  -28.8769   23.2988 C   0  0  0  0  0  0  0  0  0120  0  0
  -18.9183  -30.1286   23.8878 C   0  0  0  0  0  0  0  0  0121  0  0
  -17.6396  -30.6493   24.0352 C   0  0  0  0  0  0  0  0  0122  0  0
  -25.9153  -34.9582   23.4993 C   0  0  0  0  0  0  0  0  0123  0  0
  -16.5415  -29.9068   23.6254 C   0  0  0  0  0  0  0  0  0124  0  0
  -16.7331  -28.6521   23.0586 C   0  0  0  0  0  0  0  0  0125  0  0
  -26.4583  -31.6439   25.0683 C   0  0  0  0  0  0  0  0  0126  0  0
  -25.3807  -31.3179   26.1374 C   0  0  0  0  0  0  0  0  0127  0  0
  -27.0530  -30.3024   24.5680 C   0  0  0  0  0  0  0  0  0128  0  0
  -27.6014  -32.4281   25.7651 C   0  0  0  0  0  0  0  0  0129  0  0
  -27.5629  -37.2220   24.8621 C   0  0  0  0  0  0  0  0  0130  0  0
  -21.4133  -29.3375   22.3735 N   0  0  0  0  0  0  0  0  0131  0  0
  -26.4706  -37.3372   23.9061 N   0  0  0  0  0  0  0  0  0132  0  0
  -24.6674  -31.0544   22.1178 N   0  0  0  0  0  0  0  0  0133  0  0
  -23.4259  -28.8150   23.2971 O   0  0  0  0  0  0  0  0  0134  0  0
  -28.3948  -26.7345   20.0089 O   0  0  0  0  0  0  0  0  0135  0  0
  -26.5870  -34.9065   22.4671 O   0  0  0  0  0  0  0  0  0136  0  0
  -23.5365  -32.1254   23.7833 O   0  0  0  0  0  0  0  0  0137  0  0
  -19.5545  -25.1941   24.5871 C   0  0  0  0  0  0  0  0  0  0  0  0
  -19.9674  -26.5248   24.6513 C   0  0  0  0  0  0  0  0  0  0  0  0
  -19.5416  -24.5261   23.3625 C   0  0  0  0  0  0  0  0  0  0  0  0
  -20.3544  -26.5199   22.2665 C   0  0  0  0  0  0  0  0  0  0  0  0
  -20.3673  -27.1878   23.4911 C   0  0  0  0  0  0  0  0  0  0  0  0
  -19.9415  -25.1891   22.2023 C   0  0  0  0  0  0  0  0  0  0  0  0
  -20.8075  -28.6049   23.5600 C   0  0  0  0  0  0  0  0  0  0  0  0
  -21.1319  -24.0286   18.0780 C   0  0  0  0  0  0  0  0  0  0  0  0
  -20.3820  -21.8827   19.1364 C   0  0  0  0  0  0  0  0  0  0  0  0
  -19.9275  -24.4663   20.8768 C   0  0  0  0  0  0  0  0  0  0  0  0
  -21.2687  -23.7705   20.6054 C   0  0  0  0  0  0  0  0  0  0  0  0
  -22.8121  -22.4546   19.0980 C   0  0  0  0  0  0  0  0  0  1  0  0
  -21.3867  -23.0443   19.2348 C   0  0  0  0  0  0  0  0  0  0  0  0
  -21.7039  -29.0060   22.5690 N   0  0  0  0  0  0  0  0  0  0  0  0
  -20.3433  -29.3336   24.4327 O   0  0  0  0  0  0  0  0  0  0  0  0
  -31.4485  -12.4701   19.0860 H   0  0  0  0  0  0  0  0  0  0  0  0
  -30.3970  -11.2460   19.6950 H   0  0  0  0  0  0  0  0  0  0  0  0
  -29.6870  -11.8204   17.4226 H   0  0  0  0  0  0  0  0  0  0  0  0
  -29.6375  -13.5326   17.8649 H   0  0  0  0  0  0  0  0  0  0  0  0
  -27.7830  -11.3650   18.7904 H   0  0  0  0  0  0  0  0  0  0  0  0
  -27.4028  -12.7801   17.8021 H   0  0  0  0  0  0  0  0  0  0  0  0
  -27.7353  -14.2503   19.6136 H   0  0  0  0  0  0  0  0  0  0  0  0
  -28.5890  -11.9550   21.3832 H   0  0  0  0  0  0  0  0  0  0  0  0
  -28.5005  -13.6134   21.8562 H   0  0  0  0  0  0  0  0  0  0  0  0
  -25.2399   -9.5495   22.4318 H   0  0  0  0  0  0  0  0  0  0  0  0
  -23.9663   -7.5070   22.7297 H   0  0  0  0  0  0  0  0  0  0  0  0
  -21.1515   -8.8641   19.9162 H   0  0  0  0  0  0  0  0  0  0  0  0
  -22.4016  -10.9115   19.6476 H   0  0  0  0  0  0  0  0  0  0  0  0
  -21.2319   -7.5552   23.9750 H   0  0  0  0  0  0  0  0  0  0  0  0
  -21.1589   -6.0228   25.8556 H   0  0  0  0  0  0  0  0  0  0  0  0
  -22.0396   -2.8212   23.2809 H   0  0  0  0  0  0  0  0  0  0  0  0
  -22.4401  -11.9703   22.4008 H   0  0  0  0  0  0  0  0  0  0  0  0
  -21.1493  -13.0679   22.2082 H   0  0  0  0  0  0  0  0  0  0  0  0
  -24.6538  -15.7807   20.5848 H   0  0  0  0  0  0  0  0  0  0  0  0
  -26.2762  -15.5453   20.1156 H   0  0  0  0  0  0  0  0  0  0  0  0
  -26.6778  -32.4663   23.1464 H   0  0  0  0  0  0  0  0  0  0  0  0
  -25.0747  -34.0282   25.0566 H   0  0  0  0  0  0  0  0  0  0  0  0
  -22.7881  -31.3489   21.4131 H   0  0  0  0  0  0  0  0  0  0  0  0
  -23.3854  -35.9823   23.3648 H   0  0  0  0  0  0  0  0  0  0  0  0
  -24.3696  -36.8624   22.2204 H   0  0  0  0  0  0  0  0  0  0  0  0
  -23.7669  -37.6632   23.6516 H   0  0  0  0  0  0  0  0  0  0  0  0
  -25.9445  -31.6237   20.5691 H   0  0  0  0  0  0  0  0  0  0  0  0
  -26.7436  -31.0079   22.0108 H   0  0  0  0  0  0  0  0  0  0  0  0
  -28.0090  -29.1452   21.2057 H   0  0  0  0  0  0  0  0  0  0  0  0
  -26.1369  -26.0560   19.0719 H   0  0  0  0  0  0  0  0  0  0  0  0
  -24.0652  -27.2961   19.0997 H   0  0  0  0  0  0  0  0  0  0  0  0
  -23.6156  -30.5365   19.3930 H   0  0  0  0  0  0  0  0  0  0  0  0
  -22.7355  -29.1425   19.9945 H   0  0  0  0  0  0  0  0  0  0  0  0
  -25.1353  -36.2335   25.0565 H   0  0  0  0  0  0  0  0  0  0  0  0
  -21.0070  -28.3206   24.0793 H   0  0  0  0  0  0  0  0  0  0  0  0
  -20.5555  -26.2518   23.3550 H   0  0  0  0  0  0  0  0  0  0  0  0
  -21.5974  -26.8362   22.0454 H   0  0  0  0  0  0  0  0  0  0  0  0
  -19.6810  -25.6422   21.1488 H   0  0  0  0  0  0  0  0  0  0  0  0
  -19.6406  -27.3343   20.7034 H   0  0  0  0  0  0  0  0  0  0  0  0
  -17.4282  -26.6888   21.4113 H   0  0  0  0  0  0  0  0  0  0  0  0
  -18.0803  -26.0130   22.9049 H   0  0  0  0  0  0  0  0  0  0  0  0
  -19.7265  -30.6774   24.2204 H   0  0  0  0  0  0  0  0  0  0  0  0
  -17.5064  -31.5856   24.4483 H   0  0  0  0  0  0  0  0  0  0  0  0
  -15.5878  -30.2839   23.7407 H   0  0  0  0  0  0  0  0  0  0  0  0
  -15.9120  -28.0941   22.7766 H   0  0  0  0  0  0  0  0  0  0  0  0
  -24.5787  -30.7757   25.6817 H   0  0  0  0  0  0  0  0  0  0  0  0
  -25.0041  -32.2289   26.5536 H   0  0  0  0  0  0  0  0  0  0  0  0
  -25.8166  -30.7245   26.9138 H   0  0  0  0  0  0  0  0  0  0  0  0
  -26.2892  -29.7335   24.0803 H   0  0  0  0  0  0  0  0  0  0  0  0
  -27.4336  -29.7484   25.4006 H   0  0  0  0  0  0  0  0  0  0  0  0
  -27.8466  -30.4994   23.8779 H   0  0  0  0  0  0  0  0  0  0  0  0
  -27.2251  -33.3632   26.1242 H   0  0  0  0  0  0  0  0  0  0  0  0
  -28.3902  -32.6065   25.0645 H   0  0  0  0  0  0  0  0  0  0  0  0
  -27.9772  -31.8555   26.5872 H   0  0  0  0  0  0  0  0  0  0  0  0
  -28.2744  -38.0016   24.6863 H   0  0  0  0  0  0  0  0  0  0  0  0
  -28.0396  -36.2711   24.7461 H   0  0  0  0  0  0  0  0  0  0  0  0
  -27.1773  -37.3087   25.8564 H   0  0  0  0  0  0  0  0  0  0  0  0
  -20.9627  -29.9365   21.7352 H   0  0  0  0  0  0  0  0  0  0  0  0
  -26.0447  -38.2561   24.0273 H   0  0  0  0  0  0  0  0  0  0  0  0
  -19.2585  -24.7037   25.4455 H   0  0  0  0  0  0  0  0  0  0  0  0
  -19.9770  -27.0189   25.5573 H   0  0  0  0  0  0  0  0  0  0  0  0
  -19.2362  -23.5415   23.3150 H   0  0  0  0  0  0  0  0  0  0  0  0
  -20.6503  -27.0104   21.4081 H   0  0  0  0  0  0  0  0  0  0  0  0
  -20.1477  -24.4385   18.1687 H   0  0  0  0  0  0  0  0  0  0  0  0
  -21.2186  -23.5124   17.1448 H   0  0  0  0  0  0  0  0  0  0  0  0
  -21.8524  -24.8188   18.1168 H   0  0  0  0  0  0  0  0  0  0  0  0
  -19.3863  -22.2636   19.2281 H   0  0  0  0  0  0  0  0  0  0  0  0
  -20.5694  -21.1814   19.9225 H   0  0  0  0  0  0  0  0  0  0  0  0
  -20.4917  -21.3954   18.1901 H   0  0  0  0  0  0  0  0  0  0  0  0
  -19.7377  -25.1734   20.0965 H   0  0  0  0  0  0  0  0  0  0  0  0
  -19.1608  -23.7206   20.9074 H   0  0  0  0  0  0  0  0  0  0  0  0
  -21.4246  -23.0450   21.3763 H   0  0  0  0  0  0  0  0  0  0  0  0
  -22.0027  -24.5489   20.5872 H   0  0  0  0  0  0  0  0  0  0  0  0
  -22.8888  -22.0439   18.1130 H   0  0  0  0  0  0  0  0  0  0  0  0
  -22.8833  -21.7618   19.9103 H   0  0  0  0  0  0  0  0  0  0  0  0
  -21.7953  -29.8721   22.1100 H   0  0  0  0  0  0  0  0  0  0  0  0
  1 25  1  0
  1 30  2  0
  1 84  1  0
  2  3  1  0
  2 25  1  0
  2 86  1  0
  2 87  1  0
  3  4  1  0
  3 88  1  0
  3 89  1  0
  4  5  1  0
  4 90  1  0
  4 91  1  0
  5  6  1  0
  5 26  1  0
  5 92  1  6
  6 25  1  0
  6 93  1  0
  6 94  1  0
  7  8  2  0
  7 26  1  0
  7 29  1  0
  8  9  1  0
  8 22  1  0
  9 10  1  0
  9 27  2  0
 10 11  2  0
 10 15  1  0
 11 12  1  0
 11 95  1  0
 12 13  2  0
 12 96  1  0
 13 14  1  0
 13 31  1  0
 14 15  2  0
 14 97  1  0
 15 98  1  0
 16 17  2  0
 16 21  1  0
 16 31  1  0
 17 18  1  0
 17 99  1  0
 18 19  2  0
 18100  1  0
 19 20  1  0
 19 24  1  0
 20 21  2  0
 20101  1  0
 21 23  1  0
 22 28  1  0
 22 32  2  0
 26 27  1  0
 28102  1  0
 28103  1  0
 29104  1  0
 29105  1  0
 33 34  1  0
 33 66  1  0
 33 70  2  0
 34 36  1  0
 34 59  1  0
 34106  1  6
 35 44  2  0
 35 45  1  0
 35 68  1  0
 36 56  1  0
 36107  1  0
 37 39  1  0
 37 47  1  0
 37 66  1  0
 37108  1  6
 38 43  2  0
 38 46  1  0
 38 47  1  0
 39 64  1  0
 39 67  2  0
 40 52  1  0
 40 53  2  0
 40 58  1  0
 41109  1  0
 41110  1  0
 41111  1  0
 42 43  1  0
 42 66  1  0
 42112  1  0
 42113  1  0
 43 44  1  0
 44114  1  0
 45 46  2  0
 45115  1  0
 46116  1  0
 47117  1  0
 47118  1  0
 48 41  1  0
 48 56  1  0
 48 65  1  0
 48119  1  1
 49 50  1  0
 49 53  1  0
 49 64  1  0
 49120  1  1
 50 51  1  0
 50121  1  0
 50122  1  0
 51 52  1  0
 51123  1  0
 51124  1  0
 52125  1  0
 52126  1  0
 53 54  1  0
 54 55  2  0
 54127  1  0
 55 57  1  0
 55128  1  0
 56 69  2  0
 57 58  2  0
 57129  1  0
 58130  1  0
 59 60  1  0
 59 61  1  0
 59 62  1  0
 60131  1  0
 60132  1  0
 60133  1  0
 61134  1  0
 61135  1  0
 61136  1  0
 62137  1  0
 62138  1  0
 62139  1  0
 63 65  1  0
 63140  1  0
 63141  1  0
 63142  1  0
 64143  1  0
 65144  1  0
 68 82  1  0
 71 72  2  0
 71 73  1  0
 71145  1  0
 72 75  1  0
 72146  1  0
 73 76  2  0
 73147  1  0
 74 75  2  0
 74 76  1  0
 74148  1  0
 75 77  1  0
 76 80  1  0
 77 84  1  0
 77 85  2  0
 78149  1  0
 78150  1  0
 78151  1  0
 79 83  1  0
 79152  1  0
 79153  1  0
 79154  1  0
 80 81  1  0
 80155  1  0
 80156  1  0
 81 83  1  0
 81157  1  0
 81158  1  0
 82 83  1  0
 82159  1  0
 82160  1  0
 83 78  1  0
 84161  1  0
M  ISO  4   1 100  68 101  82 101  84 100
M  END
$$$$
64
     RDKit          3D

149157  0  0  0  0  0  0  0  0999 V2000
  -30.7652  -14.3608   20.6636 C   0  0  0  0  0  0  0  0  0100  0  0
  -30.4392  -12.2669   19.3775 C   0  0  0  0  0  0  0  0  0101  0  0
  -29.4791  -12.5281   18.1977 C   0  0  0  0  0  0  0  0  0102  0  0
  -27.9985  -12.3963   18.6038 C   0  0  0  0  0  0  0  0  0103  0  0
  -27.6639  -13.2170   19.8820 C   0  0  2  0  0  0  0  0  0104  0  0
  -28.6795  -12.9602   21.0279 C   0  0  0  0  0  0  0  0  0105  0  0
  -25.2633  -13.8245   20.5754 C   0  0  0  0  0  0  0  0  0106  0  0
  -24.1645  -13.0409   20.9408 C   0  0  0  0  0  0  0  0  0107  0  0
  -24.6400  -11.7009   20.8697 C   0  0  0  0  0  0  0  0  0108  0  0
  -23.9005  -10.4085   21.0420 C   0  0  0  0  0  0  0  0  0109  0  0
  -24.3588   -9.4123   21.9123 C   0  0  0  0  0  0  0  0  0110  0  0
  -23.6296   -8.2350   22.0803 C   0  0  0  0  0  0  0  0  0111  0  0
  -22.4385   -8.0419   21.3657 C   0  0  0  0  0  0  0  0  0112  0  0
  -22.0103   -9.0167   20.4678 C   0  0  0  0  0  0  0  0  0113  0  0
  -22.7317  -10.1925   20.3102 C   0  0  0  0  0  0  0  0  0114  0  0
  -21.6857   -6.0709   22.5391 C   0  0  0  0  0  0  0  0  0115  0  0
  -21.4064   -6.5490   23.8264 C   0  0  0  0  0  0  0  0  0116  0  0
  -21.3635   -5.6677   24.9085 C   0  0  0  0  0  0  0  0  0117  0  0
  -21.5973   -4.3067   24.7088 C   0  0  0  0  0  0  0  0  0118  0  0
  -21.8700   -3.8284   23.4282 C   0  0  0  0  0  0  0  0  0119  0  0
  -21.9144   -4.7056   22.3460 C   0  0  0  0  0  0  0  0  0120  0  0
  -22.8194  -13.5263   21.1763 C   0  0  0  0  0  0  0  0  0121  0  0
  -22.1559   -4.2206   21.1063 F   0  0  0  0  0  0  0  0  0122  0  0
  -21.5628   -3.4510   25.7555 F   0  0  0  0  0  0  0  0  0123  0  0
  -30.0261  -13.1803   20.4553 N   0  0  0  0  0  0  0  0  0124  0  0
  -26.2911  -12.9356   20.3443 N   0  0  0  0  0  0  0  0  0125  0  0
  -25.9236  -11.6675   20.5847 N   0  0  0  0  0  0  0  0  0126  0  0
  -22.0708  -12.7905   22.0005 N   0  0  0  0  0  0  0  0  0127  0  0
  -25.4117  -15.1773   20.4097 N   0  0  0  0  0  0  0  0  0128  0  0
  -31.7916  -14.6724   20.0536 O   0  0  0  0  0  0  0  0  0129  0  0
  -21.6670   -6.9022   21.4423 O   0  0  0  0  0  0  0  0  0130  0  0
  -22.3946  -14.5564   20.6568 O   0  0  0  0  0  0  0  0  0131  0  0
  -24.6048  -31.8614   23.2223 C   0  0  0  0  0  0  0  0  0100  0  0
  -25.8822  -32.4841   23.8616 C   0  0  1  0  0  0  0  0  0101  0  0
  -27.2536  -27.5042   20.1156 C   0  0  0  0  0  0  0  0  0102  0  0
  -25.5726  -33.8762   24.2210 N   0  0  0  0  0  0  0  0  0103  0  0
  -23.4066  -30.4859   21.5461 C   0  0  2  0  0  0  0  0  0104  0  0
  -24.8467  -28.9636   20.1247 C   0  0  0  0  0  0  0  0  0105  0  0
  -22.7412  -29.4652   22.5052 C   0  0  0  0  0  0  0  0  0106  0  0
  -18.0167  -28.1302   22.8626 C   0  0  0  0  0  0  0  0  0107  0  0
  -24.1342  -36.7390   23.2568 C   0  0  0  0  0  0  0  0  0108  0  0
  -25.9141  -30.8882   21.3456 C   0  0  0  0  0  0  0  0  0109  0  0
  -25.9930  -29.5029   20.7208 C   0  0  0  0  0  0  0  0  0110  0  0
  -27.1758  -28.7612   20.7331 C   0  0  0  0  0  0  0  0  0111  0  0
  -26.1032  -26.9836   19.5230 C   0  0  0  0  0  0  0  0  0112  0  0
  -24.9097  -27.7011   19.5331 C   0  0  0  0  0  0  0  0  0113  0  0
  -23.5715  -29.7899   20.1582 C   0  0  0  0  0  0  0  0  0114  0  0
  -25.3990  -36.3212   24.0232 C   0  0  1  0  0  0  0  0  0115  0  0
  -20.5793  -28.3813   23.1004 C   0  0  2  0  0  0  0  0  0116  0  0
  -20.6548  -26.9392   22.5411 C   0  0  0  0  0  0  0  0  0117  0  0
  -19.5615  -26.6407   21.5143 C   0  0  0  0  0  0  0  0  0118  0  0
  -18.1797  -26.7818   22.1673 C   0  0  0  0  0  0  0  0  0119  0  0
  -19.1385  -28.8769   23.2988 C   0  0  0  0  0  0  0  0  0120  0  0
  -18.9183  -30.1286   23.8878 C   0  0  0  0  0  0  0  0  0121  0  0
  -17.6396  -30.6493   24.0352 C   0  0  0  0  0  0  0  0  0122  0  0
  -25.9153  -34.9582   23.4993 C   0  0  0  0  0  0  0  0  0123  0  0
  -16.5415  -29.9068   23.6254 C   0  0  0  0  0  0  0  0  0124  0  0
  -16.7331  -28.6521   23.0586 C   0  0  0  0  0  0  0  0  0125  0  0
  -26.4583  -31.6439   25.0683 C   0  0  0  0  0  0  0  0  0126  0  0
  -25.3807  -31.3179   26.1374 C   0  0  0  0  0  0  0  0  0127  0  0
  -27.0530  -30.3024   24.5680 C   0  0  0  0  0  0  0  0  0128  0  0
  -27.6014  -32.4281   25.7651 C   0  0  0  0  0  0  0  0  0129  0  0
  -27.5629  -37.2220   24.8621 C   0  0  0  0  0  0  0  0  0130  0  0
  -21.4133  -29.3375   22.3735 N   0  0  0  0  0  0  0  0  0131  0  0
  -26.4706  -37.3372   23.9061 N   0  0  0  0  0  0  0  0  0132  0  0
  -24.6674  -31.0544   22.1178 N   0  0  0  0  0  0  0  0  0133  0  0
  -23.4259  -28.8150   23.2971 O   0  0  0  0  0  0  0  0  0134  0  0
  -28.3948  -26.7345   20.0089 O   0  0  0  0  0  0  0  0  0135  0  0
  -26.5870  -34.9065   22.4671 O   0  0  0  0  0  0  0  0  0136  0  0
  -23.5365  -32.1254   23.7833 O   0  0  0  0  0  0  0  0  0137  0  0
  -29.0497  -24.8648   16.6534 C   0  0  0  0  0  0  0  0  0  0  0  0
  -29.6272  -23.7805   17.3751 C   0  0  0  0  0  0  0  0  0  0  0  0
  -27.7436  -24.6114   16.2963 C   0  0  0  0  0  0  0  0  0  0  0  0
  -28.7403  -22.7396   17.5424 C   0  0  0  0  0  0  0  0  0  0  0  0
  -26.7935  -25.4803   15.5410 C   0  0  0  0  0  0  0  0  0  0  0  0
  -27.2690  -26.8469   15.0714 C   0  0  0  0  0  0  0  0  0  0  0  0
  -26.1327  -27.8659   15.0147 C   0  0  0  0  0  0  0  0  0  0  0  0
  -25.5202  -28.1019   16.3877 C   0  0  0  0  0  0  0  0  0  1  0  0
  -28.8917  -21.4872   18.1876 N   0  0  0  0  0  0  0  0  0  0  0  0
  -25.6559  -25.0726   15.3173 O   0  0  0  0  0  0  0  0  0  0  0  0
  -27.2186  -23.0715   16.8307 S   0  0  0  0  0  0  0  0  0  0  0  0
  -31.4485  -12.4701   19.0860 H   0  0  0  0  0  0  0  0  0  0  0  0
  -30.3970  -11.2460   19.6950 H   0  0  0  0  0  0  0  0  0  0  0  0
  -29.6870  -11.8204   17.4226 H   0  0  0  0  0  0  0  0  0  0  0  0
  -29.6375  -13.5326   17.8649 H   0  0  0  0  0  0  0  0  0  0  0  0
  -27.7830  -11.3650   18.7904 H   0  0  0  0  0  0  0  0  0  0  0  0
  -27.4028  -12.7801   17.8021 H   0  0  0  0  0  0  0  0  0  0  0  0
  -27.7353  -14.2503   19.6136 H   0  0  0  0  0  0  0  0  0  0  0  0
  -28.5890  -11.9550   21.3832 H   0  0  0  0  0  0  0  0  0  0  0  0
  -28.5005  -13.6134   21.8562 H   0  0  0  0  0  0  0  0  0  0  0  0
  -25.2399   -9.5495   22.4318 H   0  0  0  0  0  0  0  0  0  0  0  0
  -23.9663   -7.5070   22.7297 H   0  0  0  0  0  0  0  0  0  0  0  0
  -21.1515   -8.8641   19.9162 H   0  0  0  0  0  0  0  0  0  0  0  0
  -22.4016  -10.9115   19.6476 H   0  0  0  0  0  0  0  0  0  0  0  0
  -21.2319   -7.5552   23.9750 H   0  0  0  0  0  0  0  0  0  0  0  0
  -21.1589   -6.0228   25.8556 H   0  0  0  0  0  0  0  0  0  0  0  0
  -22.0396   -2.8212   23.2809 H   0  0  0  0  0  0  0  0  0  0  0  0
  -22.4401  -11.9703   22.4008 H   0  0  0  0  0  0  0  0  0  0  0  0
  -21.1493  -13.0679   22.2082 H   0  0  0  0  0  0  0  0  0  0  0  0
  -24.6538  -15.7807   20.5848 H   0  0  0  0  0  0  0  0  0  0  0  0
  -26.2762  -15.5453   20.1156 H   0  0  0  0  0  0  0  0  0  0  0  0
  -26.6778  -32.4663   23.1464 H   0  0  0  0  0  0  0  0  0  0  0  0
  -25.0747  -34.0282   25.0566 H   0  0  0  0  0  0  0  0  0  0  0  0
  -22.7881  -31.3489   21.4131 H   0  0  0  0  0  0  0  0  0  0  0  0
  -23.3854  -35.9823   23.3648 H   0  0  0  0  0  0  0  0  0  0  0  0
  -24.3696  -36.8624   22.2204 H   0  0  0  0  0  0  0  0  0  0  0  0
  -23.7669  -37.6632   23.6516 H   0  0  0  0  0  0  0  0  0  0  0  0
  -25.9445  -31.6237   20.5691 H   0  0  0  0  0  0  0  0  0  0  0  0
  -26.7436  -31.0079   22.0108 H   0  0  0  0  0  0  0  0  0  0  0  0
  -28.0090  -29.1452   21.2057 H   0  0  0  0  0  0  0  0  0  0  0  0
  -26.1369  -26.0560   19.0719 H   0  0  0  0  0  0  0  0  0  0  0  0
  -24.0652  -27.2961   19.0997 H   0  0  0  0  0  0  0  0  0  0  0  0
  -23.6156  -30.5365   19.3930 H   0  0  0  0  0  0  0  0  0  0  0  0
  -22.7355  -29.1425   19.9945 H   0  0  0  0  0  0  0  0  0  0  0  0
  -25.1353  -36.2335   25.0565 H   0  0  0  0  0  0  0  0  0  0  0  0
  -21.0070  -28.3206   24.0793 H   0  0  0  0  0  0  0  0  0  0  0  0
  -20.5555  -26.2518   23.3550 H   0  0  0  0  0  0  0  0  0  0  0  0
  -21.5974  -26.8362   22.0454 H   0  0  0  0  0  0  0  0  0  0  0  0
  -19.6810  -25.6422   21.1488 H   0  0  0  0  0  0  0  0  0  0  0  0
  -19.6406  -27.3343   20.7034 H   0  0  0  0  0  0  0  0  0  0  0  0
  -17.4282  -26.6888   21.4113 H   0  0  0  0  0  0  0  0  0  0  0  0
  -18.0803  -26.0130   22.9049 H   0  0  0  0  0  0  0  0  0  0  0  0
  -19.7265  -30.6774   24.2204 H   0  0  0  0  0  0  0  0  0  0  0  0
  -17.5064  -31.5856   24.4483 H   0  0  0  0  0  0  0  0  0  0  0  0
  -15.5878  -30.2839   23.7407 H   0  0  0  0  0  0  0  0  0  0  0  0
  -15.9120  -28.0941   22.7766 H   0  0  0  0  0  0  0  0  0  0  0  0
  -24.5787  -30.7757   25.6817 H   0  0  0  0  0  0  0  0  0  0  0  0
  -25.0041  -32.2289   26.5536 H   0  0  0  0  0  0  0  0  0  0  0  0
  -25.8166  -30.7245   26.9138 H   0  0  0  0  0  0  0  0  0  0  0  0
  -26.2892  -29.7335   24.0803 H   0  0  0  0  0  0  0  0  0  0  0  0
  -27.4336  -29.7484   25.4006 H   0  0  0  0  0  0  0  0  0  0  0  0
  -27.8466  -30.4994   23.8779 H   0  0  0  0  0  0  0  0  0  0  0  0
  -27.2251  -33.3632   26.1242 H   0  0  0  0  0  0  0  0  0  0  0  0
  -28.3902  -32.6065   25.0645 H   0  0  0  0  0  0  0  0  0  0  0  0
  -27.9772  -31.8555   26.5872 H   0  0  0  0  0  0  0  0  0  0  0  0
  -28.2744  -38.0016   24.6863 H   0  0  0  0  0  0  0  0  0  0  0  0
  -28.0396  -36.2711   24.7461 H   0  0  0  0  0  0  0  0  0  0  0  0
  -27.1773  -37.3087   25.8564 H   0  0  0  0  0  0  0  0  0  0  0  0
  -20.9627  -29.9365   21.7352 H   0  0  0  0  0  0  0  0  0  0  0  0
  -26.0447  -38.2561   24.0273 H   0  0  0  0  0  0  0  0  0  0  0  0
  -29.5510  -25.7375   16.4250 H   0  0  0  0  0  0  0  0  0  0  0  0
  -30.5960  -23.7754   17.7307 H   0  0  0  0  0  0  0  0  0  0  0  0
  -27.6914  -26.7473   14.0934 H   0  0  0  0  0  0  0  0  0  0  0  0
  -27.9932  -27.2018   15.7745 H   0  0  0  0  0  0  0  0  0  0  0  0
  -25.3735  -27.5025   14.3540 H   0  0  0  0  0  0  0  0  0  0  0  0
  -26.5337  -28.7939   14.6640 H   0  0  0  0  0  0  0  0  0  0  0  0
  -24.6061  -27.5495   16.4519 H   0  0  0  0  0  0  0  0  0  0  0  0
  -25.3610  -29.1552   16.4882 H   0  0  0  0  0  0  0  0  0  0  0  0
  -28.2124  -21.6537   18.8804 H   0  0  0  0  0  0  0  0  0  0  0  0
  1 25  1  0
  1 30  2  0
  1 79  1  0
  2  3  1  0
  2 25  1  0
  2 82  1  0
  2 83  1  0
  3  4  1  0
  3 84  1  0
  3 85  1  0
  4  5  1  0
  4 86  1  0
  4 87  1  0
  5  6  1  0
  5 26  1  0
  5 88  1  6
  6 25  1  0
  6 89  1  0
  6 90  1  0
  7  8  2  0
  7 26  1  0
  7 29  1  0
  8  9  1  0
  8 22  1  0
  9 10  1  0
  9 27  2  0
 10 11  2  0
 10 15  1  0
 11 12  1  0
 11 91  1  0
 12 13  2  0
 12 92  1  0
 13 14  1  0
 13 31  1  0
 14 15  2  0
 14 93  1  0
 15 94  1  0
 16 17  2  0
 16 21  1  0
 16 31  1  0
 17 18  1  0
 17 95  1  0
 18 19  2  0
 18 96  1  0
 19 20  1  0
 19 24  1  0
 20 21  2  0
 20 97  1  0
 21 23  1  0
 22 28  1  0
 22 32  2  0
 26 27  1  0
 28 98  1  0
 28 99  1  0
 29100  1  0
 29101  1  0
 33 34  1  0
 33 66  1  0
 33 70  2  0
 34 36  1  0
 34 59  1  0
 34102  1  6
 35 44  2  0
 35 45  1  0
 35 68  1  0
 36 56  1  0
 36103  1  0
 37 39  1  0
 37 47  1  0
 37 66  1  0
 37104  1  6
 38 43  2  0
 38 46  1  0
 38 47  1  0
 39 64  1  0
 39 67  2  0
 40 52  1  0
 40 53  2  0
 40 58  1  0
 41105  1  0
 41106  1  0
 41107  1  0
 42 43  1  0
 42 66  1  0
 42108  1  0
 42109  1  0
 43 44  1  0
 44110  1  0
 45 46  2  0
 45111  1  0
 46112  1  0
 47113  1  0
 47114  1  0
 48 41  1  0
 48 56  1  0
 48 65  1  0
 48115  1  1
 49 50  1  0
 49 53  1  0
 49 64  1  0
 49116  1  1
 50 51  1  0
 50117  1  0
 50118  1  0
 51 52  1  0
 51119  1  0
 51120  1  0
 52121  1  0
 52122  1  0
 53 54  1  0
 54 55  2  0
 54123  1  0
 55 57  1  0
 55124  1  0
 56 69  2  0
 57 58  2  0
 57125  1  0
 58126  1  0
 59 60  1  0
 59 61  1  0
 59 62  1  0
 60127  1  0
 60128  1  0
 60129  1  0
 61130  1  0
 61131  1  0
 61132  1  0
 62133  1  0
 62134  1  0
 62135  1  0
 63 65  1  0
 63136  1  0
 63137  1  0
 63138  1  0
 64139  1  0
 65140  1  0
 68 78  1  0
 71 72  1  0
 71 73  2  0
 71141  1  0
 72 74  2  0
 72142  1  0
 73 75  1  0
 73 81  1  0
 74 79  1  0
 74 81  1  0
 75 76  1  0
 75 80  2  0
 76 77  1  0
 76143  1  0
 76144  1  0
 77 78  1  0
 77145  1  0
 77146  1  0
 78147  1  0
 78148  1  0
 79149  1  0
M  ISO  4   1 100  68 101  78 101  79 100
M  END
$$$$
65
     RDKit          3D

165173  0  0  0  0  0  0  0  0999 V2000
  -30.7652  -14.3608   20.6636 C   0  0  0  0  0  0  0  0  0100  0  0
  -30.4392  -12.2669   19.3775 C   0  0  0  0  0  0  0  0  0101  0  0
  -29.4791  -12.5281   18.1977 C   0  0  0  0  0  0  0  0  0102  0  0
  -27.9985  -12.3963   18.6038 C   0  0  0  0  0  0  0  0  0103  0  0
  -27.6639  -13.2170   19.8820 C   0  0  2  0  0  0  0  0  0104  0  0
  -28.6795  -12.9602   21.0279 C   0  0  0  0  0  0  0  0  0105  0  0
  -25.2633  -13.8245   20.5754 C   0  0  0  0  0  0  0  0  0106  0  0
  -24.1645  -13.0409   20.9408 C   0  0  0  0  0  0  0  0  0107  0  0
  -24.6400  -11.7009   20.8697 C   0  0  0  0  0  0  0  0  0108  0  0
  -23.9005  -10.4085   21.0420 C   0  0  0  0  0  0  0  0  0109  0  0
  -24.3588   -9.4123   21.9123 C   0  0  0  0  0  0  0  0  0110  0  0
  -23.6296   -8.2350   22.0803 C   0  0  0  0  0  0  0  0  0111  0  0
  -22.4385   -8.0419   21.3657 C   0  0  0  0  0  0  0  0  0112  0  0
  -22.0103   -9.0167   20.4678 C   0  0  0  0  0  0  0  0  0113  0  0
  -22.7317  -10.1925   20.3102 C   0  0  0  0  0  0  0  0  0114  0  0
  -21.6857   -6.0709   22.5391 C   0  0  0  0  0  0  0  0  0115  0  0
  -21.4064   -6.5490   23.8264 C   0  0  0  0  0  0  0  0  0116  0  0
  -21.3635   -5.6677   24.9085 C   0  0  0  0  0  0  0  0  0117  0  0
  -21.5973   -4.3067   24.7088 C   0  0  0  0  0  0  0  0  0118  0  0
  -21.8700   -3.8284   23.4282 C   0  0  0  0  0  0  0  0  0119  0  0
  -21.9144   -4.7056   22.3460 C   0  0  0  0  0  0  0  0  0120  0  0
  -22.8194  -13.5263   21.1763 C   0  0  0  0  0  0  0  0  0121  0  0
  -22.1559   -4.2206   21.1063 F   0  0  0  0  0  0  0  0  0122  0  0
  -21.5628   -3.4510   25.7555 F   0  0  0  0  0  0  0  0  0123  0  0
  -30.0261  -13.1803   20.4553 N   0  0  0  0  0  0  0  0  0124  0  0
  -26.2911  -12.9356   20.3443 N   0  0  0  0  0  0  0  0  0125  0  0
  -25.9236  -11.6675   20.5847 N   0  0  0  0  0  0  0  0  0126  0  0
  -22.0708  -12.7905   22.0005 N   0  0  0  0  0  0  0  0  0127  0  0
  -25.4117  -15.1773   20.4097 N   0  0  0  0  0  0  0  0  0128  0  0
  -31.7916  -14.6724   20.0536 O   0  0  0  0  0  0  0  0  0129  0  0
  -21.6670   -6.9022   21.4423 O   0  0  0  0  0  0  0  0  0130  0  0
  -22.3946  -14.5564   20.6568 O   0  0  0  0  0  0  0  0  0131  0  0
  -24.6048  -31.8614   23.2223 C   0  0  0  0  0  0  0  0  0100  0  0
  -25.8822  -32.4841   23.8616 C   0  0  1  0  0  0  0  0  0101  0  0
  -27.2536  -27.5042   20.1156 C   0  0  0  0  0  0  0  0  0102  0  0
  -25.5726  -33.8762   24.2210 N   0  0  0  0  0  0  0  0  0103  0  0
  -23.4066  -30.4859   21.5461 C   0  0  2  0  0  0  0  0  0104  0  0
  -24.8467  -28.9636   20.1247 C   0  0  0  0  0  0  0  0  0105  0  0
  -22.7412  -29.4652   22.5052 C   0  0  0  0  0  0  0  0  0106  0  0
  -18.0167  -28.1302   22.8626 C   0  0  0  0  0  0  0  0  0107  0  0
  -24.1342  -36.7390   23.2568 C   0  0  0  0  0  0  0  0  0108  0  0
  -25.9141  -30.8882   21.3456 C   0  0  0  0  0  0  0  0  0109  0  0
  -25.9930  -29.5029   20.7208 C   0  0  0  0  0  0  0  0  0110  0  0
  -27.1758  -28.7612   20.7331 C   0  0  0  0  0  0  0  0  0111  0  0
  -26.1032  -26.9836   19.5230 C   0  0  0  0  0  0  0  0  0112  0  0
  -24.9097  -27.7011   19.5331 C   0  0  0  0  0  0  0  0  0113  0  0
  -23.5715  -29.7899   20.1582 C   0  0  0  0  0  0  0  0  0114  0  0
  -25.3990  -36.3212   24.0232 C   0  0  1  0  0  0  0  0  0115  0  0
  -20.5793  -28.3813   23.1004 C   0  0  2  0  0  0  0  0  0116  0  0
  -20.6548  -26.9392   22.5411 C   0  0  0  0  0  0  0  0  0117  0  0
  -19.5615  -26.6407   21.5143 C   0  0  0  0  0  0  0  0  0118  0  0
  -18.1797  -26.7818   22.1673 C   0  0  0  0  0  0  0  0  0119  0  0
  -19.1385  -28.8769   23.2988 C   0  0  0  0  0  0  0  0  0120  0  0
  -18.9183  -30.1286   23.8878 C   0  0  0  0  0  0  0  0  0121  0  0
  -17.6396  -30.6493   24.0352 C   0  0  0  0  0  0  0  0  0122  0  0
  -25.9153  -34.9582   23.4993 C   0  0  0  0  0  0  0  0  0123  0  0
  -16.5415  -29.9068   23.6254 C   0  0  0  0  0  0  0  0  0124  0  0
  -16.7331  -28.6521   23.0586 C   0  0  0  0  0  0  0  0  0125  0  0
  -26.4583  -31.6439   25.0683 C   0  0  0  0  0  0  0  0  0126  0  0
  -25.3807  -31.3179   26.1374 C   0  0  0  0  0  0  0  0  0127  0  0
  -27.0530  -30.3024   24.5680 C   0  0  0  0  0  0  0  0  0128  0  0
  -27.6014  -32.4281   25.7651 C   0  0  0  0  0  0  0  0  0129  0  0
  -27.5629  -37.2220   24.8621 C   0  0  0  0  0  0  0  0  0130  0  0
  -21.4133  -29.3375   22.3735 N   0  0  0  0  0  0  0  0  0131  0  0
  -26.4706  -37.3372   23.9061 N   0  0  0  0  0  0  0  0  0132  0  0
  -24.6674  -31.0544   22.1178 N   0  0  0  0  0  0  0  0  0133  0  0
  -23.4259  -28.8150   23.2971 O   0  0  0  0  0  0  0  0  0134  0  0
  -28.3948  -26.7345   20.0089 O   0  0  0  0  0  0  0  0  0135  0  0
  -26.5870  -34.9065   22.4671 O   0  0  0  0  0  0  0  0  0136  0  0
  -23.5365  -32.1254   23.7833 O   0  0  0  0  0  0  0  0  0137  0  0
  -29.3333  -19.9869   18.4692 C   0  0  0  0  0  0  0  0  0  0  0  0
  -27.4563  -18.4892   18.7348 C   0  0  0  0  0  0  0  0  0  0  0  0
  -27.0943  -20.7603   17.9943 C   0  0  0  0  0  0  0  0  0  0  0  0
  -28.8284  -18.7307   18.8046 C   0  0  0  0  0  0  0  0  0  0  0  0
  -28.4663  -21.0018   18.0641 C   0  0  0  0  0  0  0  0  0  0  0  0
  -26.5893  -19.5040   18.3296 C   0  0  0  0  0  0  0  0  0  0  0  0
  -29.6979  -16.6405   18.4782 C   0  0  0  0  0  0  0  0  0  0  0  0
  -31.8990  -15.6278   18.0073 C   0  0  0  0  0  0  0  0  0  0  0  0
  -32.1435  -24.3240   17.4959 C   0  0  0  0  0  0  0  0  0  0  0  0
  -30.1828  -24.3355   15.9454 C   0  0  0  0  0  0  0  0  0  0  0  0
  -30.3717  -22.5867   17.7762 C   0  0  0  0  0  0  0  0  0  0  0  0
  -29.8789  -25.0382   18.3355 C   0  0  0  0  0  0  0  0  0  1  0  0
  -30.5975  -15.4684   18.7797 C   0  0  1  0  0  0  0  0  0  0  0  0
  -30.6257  -24.0656   17.3953 C   0  0  0  0  0  0  0  0  0  0  0  0
  -29.6974  -17.7122   19.2084 N   0  0  0  0  0  0  0  0  0  0  0  0
  -28.9672  -22.2495   17.7318 N   0  0  0  0  0  0  0  0  0  0  0  0
  -25.2720  -19.2710   18.2609 F   0  0  0  0  0  0  0  0  0  0  0  0
  -31.4485  -12.4701   19.0860 H   0  0  0  0  0  0  0  0  0  0  0  0
  -30.3970  -11.2460   19.6950 H   0  0  0  0  0  0  0  0  0  0  0  0
  -29.6870  -11.8204   17.4226 H   0  0  0  0  0  0  0  0  0  0  0  0
  -29.6375  -13.5326   17.8649 H   0  0  0  0  0  0  0  0  0  0  0  0
  -27.7830  -11.3650   18.7904 H   0  0  0  0  0  0  0  0  0  0  0  0
  -27.4028  -12.7801   17.8021 H   0  0  0  0  0  0  0  0  0  0  0  0
  -27.7353  -14.2503   19.6136 H   0  0  0  0  0  0  0  0  0  0  0  0
  -28.5890  -11.9550   21.3832 H   0  0  0  0  0  0  0  0  0  0  0  0
  -28.5005  -13.6134   21.8562 H   0  0  0  0  0  0  0  0  0  0  0  0
  -25.2399   -9.5495   22.4318 H   0  0  0  0  0  0  0  0  0  0  0  0
  -23.9663   -7.5070   22.7297 H   0  0  0  0  0  0  0  0  0  0  0  0
  -21.1515   -8.8641   19.9162 H   0  0  0  0  0  0  0  0  0  0  0  0
  -22.4016  -10.9115   19.6476 H   0  0  0  0  0  0  0  0  0  0  0  0
  -21.2319   -7.5552   23.9750 H   0  0  0  0  0  0  0  0  0  0  0  0
  -21.1589   -6.0228   25.8556 H   0  0  0  0  0  0  0  0  0  0  0  0
  -22.0396   -2.8212   23.2809 H   0  0  0  0  0  0  0  0  0  0  0  0
  -22.4401  -11.9703   22.4008 H   0  0  0  0  0  0  0  0  0  0  0  0
  -21.1493  -13.0679   22.2082 H   0  0  0  0  0  0  0  0  0  0  0  0
  -24.6538  -15.7807   20.5848 H   0  0  0  0  0  0  0  0  0  0  0  0
  -26.2762  -15.5453   20.1156 H   0  0  0  0  0  0  0  0  0  0  0  0
  -26.6778  -32.4663   23.1464 H   0  0  0  0  0  0  0  0  0  0  0  0
  -25.0747  -34.0282   25.0566 H   0  0  0  0  0  0  0  0  0  0  0  0
  -22.7881  -31.3489   21.4131 H   0  0  0  0  0  0  0  0  0  0  0  0
  -23.3854  -35.9823   23.3648 H   0  0  0  0  0  0  0  0  0  0  0  0
  -24.3696  -36.8624   22.2204 H   0  0  0  0  0  0  0  0  0  0  0  0
  -23.7669  -37.6632   23.6516 H   0  0  0  0  0  0  0  0  0  0  0  0
  -25.9445  -31.6237   20.5691 H   0  0  0  0  0  0  0  0  0  0  0  0
  -26.7436  -31.0079   22.0108 H   0  0  0  0  0  0  0  0  0  0  0  0
  -28.0090  -29.1452   21.2057 H   0  0  0  0  0  0  0  0  0  0  0  0
  -26.1369  -26.0560   19.0719 H   0  0  0  0  0  0  0  0  0  0  0  0
  -24.0652  -27.2961   19.0997 H   0  0  0  0  0  0  0  0  0  0  0  0
  -23.6156  -30.5365   19.3930 H   0  0  0  0  0  0  0  0  0  0  0  0
  -22.7355  -29.1425   19.9945 H   0  0  0  0  0  0  0  0  0  0  0  0
  -25.1353  -36.2335   25.0565 H   0  0  0  0  0  0  0  0  0  0  0  0
  -21.0070  -28.3206   24.0793 H   0  0  0  0  0  0  0  0  0  0  0  0
  -20.5555  -26.2518   23.3550 H   0  0  0  0  0  0  0  0  0  0  0  0
  -21.5974  -26.8362   22.0454 H   0  0  0  0  0  0  0  0  0  0  0  0
  -19.6810  -25.6422   21.1488 H   0  0  0  0  0  0  0  0  0  0  0  0
  -19.6406  -27.3343   20.7034 H   0  0  0  0  0  0  0  0  0  0  0  0
  -17.4282  -26.6888   21.4113 H   0  0  0  0  0  0  0  0  0  0  0  0
  -18.0803  -26.0130   22.9049 H   0  0  0  0  0  0  0  0  0  0  0  0
  -19.7265  -30.6774   24.2204 H   0  0  0  0  0  0  0  0  0  0  0  0
  -17.5064  -31.5856   24.4483 H   0  0  0  0  0  0  0  0  0  0  0  0
  -15.5878  -30.2839   23.7407 H   0  0  0  0  0  0  0  0  0  0  0  0
  -15.9120  -28.0941   22.7766 H   0  0  0  0  0  0  0  0  0  0  0  0
  -24.5787  -30.7757   25.6817 H   0  0  0  0  0  0  0  0  0  0  0  0
  -25.0041  -32.2289   26.5536 H   0  0  0  0  0  0  0  0  0  0  0  0
  -25.8166  -30.7245   26.9138 H   0  0  0  0  0  0  0  0  0  0  0  0
  -26.2892  -29.7335   24.0803 H   0  0  0  0  0  0  0  0  0  0  0  0
  -27.4336  -29.7484   25.4006 H   0  0  0  0  0  0  0  0  0  0  0  0
  -27.8466  -30.4994   23.8779 H   0  0  0  0  0  0  0  0  0  0  0  0
  -27.2251  -33.3632   26.1242 H   0  0  0  0  0  0  0  0  0  0  0  0
  -28.3902  -32.6065   25.0645 H   0  0  0  0  0  0  0  0  0  0  0  0
  -27.9772  -31.8555   26.5872 H   0  0  0  0  0  0  0  0  0  0  0  0
  -28.2744  -38.0016   24.6863 H   0  0  0  0  0  0  0  0  0  0  0  0
  -28.0396  -36.2711   24.7461 H   0  0  0  0  0  0  0  0  0  0  0  0
  -27.1773  -37.3087   25.8564 H   0  0  0  0  0  0  0  0  0  0  0  0
  -20.9627  -29.9365   21.7352 H   0  0  0  0  0  0  0  0  0  0  0  0
  -26.0447  -38.2561   24.0273 H   0  0  0  0  0  0  0  0  0  0  0  0
  -30.3484  -20.1655   18.5207 H   0  0  0  0  0  0  0  0  0  0  0  0
  -27.0827  -17.5598   18.9829 H   0  0  0  0  0  0  0  0  0  0  0  0
  -26.4528  -21.5111   17.6946 H   0  0  0  0  0  0  0  0  0  0  0  0
  -29.0633  -16.5882   17.6660 H   0  0  0  0  0  0  0  0  0  0  0  0
  -31.7152  -16.1785   17.1085 H   0  0  0  0  0  0  0  0  0  0  0  0
  -32.2879  -14.6620   17.7606 H   0  0  0  0  0  0  0  0  0  0  0  0
  -32.6090  -16.1549   18.6097 H   0  0  0  0  0  0  0  0  0  0  0  0
  -32.6636  -23.6519   16.8458 H   0  0  0  0  0  0  0  0  0  0  0  0
  -32.4661  -24.1665   18.5039 H   0  0  0  0  0  0  0  0  0  0  0  0
  -32.3534  -25.3329   17.2078 H   0  0  0  0  0  0  0  0  0  0  0  0
  -30.6947  -23.6665   15.2857 H   0  0  0  0  0  0  0  0  0  0  0  0
  -30.4186  -25.3455   15.6826 H   0  0  0  0  0  0  0  0  0  0  0  0
  -29.1273  -24.1820   15.8605 H   0  0  0  0  0  0  0  0  0  0  0  0
  -30.7362  -22.4180   18.7679 H   0  0  0  0  0  0  0  0  0  0  0  0
  -30.8821  -21.9703   17.0660 H   0  0  0  0  0  0  0  0  0  0  0  0
  -30.2810  -25.8799   17.8113 H   0  0  0  0  0  0  0  0  0  0  0  0
  -29.5145  -24.1984   18.8895 H   0  0  0  0  0  0  0  0  0  0  0  0
  -29.9165  -14.7031   18.4708 H   0  0  0  0  0  0  0  0  0  0  0  0
  -28.3308  -22.9456   17.4495 H   0  0  0  0  0  0  0  0  0  0  0  0
  1 25  1  0
  1 30  2  0
  1 83  1  0
  2  3  1  0
  2 25  1  0
  2 88  1  0
  2 89  1  0
  3  4  1  0
  3 90  1  0
  3 91  1  0
  4  5  1  0
  4 92  1  0
  4 93  1  0
  5  6  1  0
  5 26  1  0
  5 94  1  6
  6 25  1  0
  6 95  1  0
  6 96  1  0
  7  8  2  0
  7 26  1  0
  7 29  1  0
  8  9  1  0
  8 22  1  0
  9 10  1  0
  9 27  2  0
 10 11  2  0
 10 15  1  0
 11 12  1  0
 11 97  1  0
 12 13  2  0
 12 98  1  0
 13 14  1  0
 13 31  1  0
 14 15  2  0
 14 99  1  0
 15100  1  0
 16 17  2  0
 16 21  1  0
 16 31  1  0
 17 18  1  0
 17101  1  0
 18 19  2  0
 18102  1  0
 19 20  1  0
 19 24  1  0
 20 21  2  0
 20103  1  0
 21 23  1  0
 22 28  1  0
 22 32  2  0
 26 27  1  0
 28104  1  0
 28105  1  0
 29106  1  0
 29107  1  0
 33 34  1  0
 33 66  1  0
 33 70  2  0
 34 36  1  0
 34 59  1  0
 34108  1  6
 35 44  2  0
 35 45  1  0
 35 68  1  0
 36 56  1  0
 36109  1  0
 37 39  1  0
 37 47  1  0
 37 66  1  0
 37110  1  6
 38 43  2  0
 38 46  1  0
 38 47  1  0
 39 64  1  0
 39 67  2  0
 40 52  1  0
 40 53  2  0
 40 58  1  0
 41111  1  0
 41112  1  0
 41113  1  0
 42 43  1  0
 42 66  1  0
 42114  1  0
 42115  1  0
 43 44  1  0
 44116  1  0
 45 46  2  0
 45117  1  0
 46118  1  0
 47119  1  0
 47120  1  0
 48 41  1  0
 48 56  1  0
 48 65  1  0
 48121  1  1
 49 50  1  0
 49 53  1  0
 49 64  1  0
 49122  1  1
 50 51  1  0
 50123  1  0
 50124  1  0
 51 52  1  0
 51125  1  0
 51126  1  0
 52127  1  0
 52128  1  0
 53 54  1  0
 54 55  2  0
 54129  1  0
 55 57  1  0
 55130  1  0
 56 69  2  0
 57 58  2  0
 57131  1  0
 58132  1  0
 59 60  1  0
 59 61  1  0
 59 62  1  0
 60133  1  0
 60134  1  0
 60135  1  0
 61136  1  0
 61137  1  0
 61138  1  0
 62139  1  0
 62140  1  0
 62141  1  0
 63 65  1  0
 63142  1  0
 63143  1  0
 63144  1  0
 64145  1  0
 65146  1  0
 68 82  1  0
 71 74  2  0
 71 75  1  0
 71147  1  0
 72 74  1  0
 72 76  2  0
 72148  1  0
 73 75  2  0
 73 76  1  0
 73149  1  0
 74 85  1  0
 75 86  1  0
 76 87  1  0
 77 83  1  0
 77 85  2  0
 77150  1  0
 78151  1  0
 78152  1  0
 78153  1  0
 79154  1  0
 79155  1  0
 79156  1  0
 80 84  1  0
 80157  1  0
 80158  1  0
 80159  1  0
 81 84  1  0
 81 86  1  0
 81160  1  0
 81161  1  0
 82 84  1  0
 82162  1  0
 82163  1  0
 83 78  1  0
 83164  1  6
 84 79  1  0
 86165  1  0
M  ISO  4   1 100  68 101  82 101  83 100
M  END
$$$$
66
     RDKit          3D

168176  0  0  0  0  0  0  0  0999 V2000
  -30.7652  -14.3608   20.6636 C   0  0  0  0  0  0  0  0  0100  0  0
  -30.4392  -12.2669   19.3775 C   0  0  0  0  0  0  0  0  0101  0  0
  -29.4791  -12.5281   18.1977 C   0  0  0  0  0  0  0  0  0102  0  0
  -27.9985  -12.3963   18.6038 C   0  0  0  0  0  0  0  0  0103  0  0
  -27.6639  -13.2170   19.8820 C   0  0  2  0  0  0  0  0  0104  0  0
  -28.6795  -12.9602   21.0279 C   0  0  0  0  0  0  0  0  0105  0  0
  -25.2633  -13.8245   20.5754 C   0  0  0  0  0  0  0  0  0106  0  0
  -24.1645  -13.0409   20.9408 C   0  0  0  0  0  0  0  0  0107  0  0
  -24.6400  -11.7009   20.8697 C   0  0  0  0  0  0  0  0  0108  0  0
  -23.9005  -10.4085   21.0420 C   0  0  0  0  0  0  0  0  0109  0  0
  -24.3588   -9.4123   21.9123 C   0  0  0  0  0  0  0  0  0110  0  0
  -23.6296   -8.2350   22.0803 C   0  0  0  0  0  0  0  0  0111  0  0
  -22.4385   -8.0419   21.3657 C   0  0  0  0  0  0  0  0  0112  0  0
  -22.0103   -9.0167   20.4678 C   0  0  0  0  0  0  0  0  0113  0  0
  -22.7317  -10.1925   20.3102 C   0  0  0  0  0  0  0  0  0114  0  0
  -21.6857   -6.0709   22.5391 C   0  0  0  0  0  0  0  0  0115  0  0
  -21.4064   -6.5490   23.8264 C   0  0  0  0  0  0  0  0  0116  0  0
  -21.3635   -5.6677   24.9085 C   0  0  0  0  0  0  0  0  0117  0  0
  -21.5973   -4.3067   24.7088 C   0  0  0  0  0  0  0  0  0118  0  0
  -21.8700   -3.8284   23.4282 C   0  0  0  0  0  0  0  0  0119  0  0
  -21.9144   -4.7056   22.3460 C   0  0  0  0  0  0  0  0  0120  0  0
  -22.8194  -13.5263   21.1763 C   0  0  0  0  0  0  0  0  0121  0  0
  -22.1559   -4.2206   21.1063 F   0  0  0  0  0  0  0  0  0122  0  0
  -21.5628   -3.4510   25.7555 F   0  0  0  0  0  0  0  0  0123  0  0
  -30.0261  -13.1803   20.4553 N   0  0  0  0  0  0  0  0  0124  0  0
  -26.2911  -12.9356   20.3443 N   0  0  0  0  0  0  0  0  0125  0  0
  -25.9236  -11.6675   20.5847 N   0  0  0  0  0  0  0  0  0126  0  0
  -22.0708  -12.7905   22.0005 N   0  0  0  0  0  0  0  0  0127  0  0
  -25.4117  -15.1773   20.4097 N   0  0  0  0  0  0  0  0  0128  0  0
  -31.7916  -14.6724   20.0536 O   0  0  0  0  0  0  0  0  0129  0  0
  -21.6670   -6.9022   21.4423 O   0  0  0  0  0  0  0  0  0130  0  0
  -22.3946  -14.5564   20.6568 O   0  0  0  0  0  0  0  0  0131  0  0
  -24.6048  -31.8614   23.2223 C   0  0  0  0  0  0  0  0  0100  0  0
  -25.8822  -32.4841   23.8616 C   0  0  1  0  0  0  0  0  0101  0  0
  -27.2536  -27.5042   20.1156 C   0  0  0  0  0  0  0  0  0102  0  0
  -25.5726  -33.8762   24.2210 N   0  0  0  0  0  0  0  0  0103  0  0
  -23.4066  -30.4859   21.5461 C   0  0  2  0  0  0  0  0  0104  0  0
  -24.8467  -28.9636   20.1247 C   0  0  0  0  0  0  0  0  0105  0  0
  -22.7412  -29.4652   22.5052 C   0  0  0  0  0  0  0  0  0106  0  0
  -18.0167  -28.1302   22.8626 C   0  0  0  0  0  0  0  0  0107  0  0
  -24.1342  -36.7390   23.2568 C   0  0  0  0  0  0  0  0  0108  0  0
  -25.9141  -30.8882   21.3456 C   0  0  0  0  0  0  0  0  0109  0  0
  -25.9930  -29.5029   20.7208 C   0  0  0  0  0  0  0  0  0110  0  0
  -27.1758  -28.7612   20.7331 C   0  0  0  0  0  0  0  0  0111  0  0
  -26.1032  -26.9836   19.5230 C   0  0  0  0  0  0  0  0  0112  0  0
  -24.9097  -27.7011   19.5331 C   0  0  0  0  0  0  0  0  0113  0  0
  -23.5715  -29.7899   20.1582 C   0  0  0  0  0  0  0  0  0114  0  0
  -25.3990  -36.3212   24.0232 C   0  0  1  0  0  0  0  0  0115  0  0
  -20.5793  -28.3813   23.1004 C   0  0  2  0  0  0  0  0  0116  0  0
  -20.6548  -26.9392   22.5411 C   0  0  0  0  0  0  0  0  0117  0  0
  -19.5615  -26.6407   21.5143 C   0  0  0  0  0  0  0  0  0118  0  0
  -18.1797  -26.7818   22.1673 C   0  0  0  0  0  0  0  0  0119  0  0
  -19.1385  -28.8769   23.2988 C   0  0  0  0  0  0  0  0  0120  0  0
  -18.9183  -30.1286   23.8878 C   0  0  0  0  0  0  0  0  0121  0  0
  -17.6396  -30.6493   24.0352 C   0  0  0  0  0  0  0  0  0122  0  0
  -25.9153  -34.9582   23.4993 C   0  0  0  0  0  0  0  0  0123  0  0
  -16.5415  -29.9068   23.6254 C   0  0  0  0  0  0  0  0  0124  0  0
  -16.7331  -28.6521   23.0586 C   0  0  0  0  0  0  0  0  0125  0  0
  -26.4583  -31.6439   25.0683 C   0  0  0  0  0  0  0  0  0126  0  0
  -25.3807  -31.3179   26.1374 C   0  0  0  0  0  0  0  0  0127  0  0
  -27.0530  -30.3024   24.5680 C   0  0  0  0  0  0  0  0  0128  0  0
  -27.6014  -32.4281   25.7651 C   0  0  0  0  0  0  0  0  0129  0  0
  -27.5629  -37.2220   24.8621 C   0  0  0  0  0  0  0  0  0130  0  0
  -21.4133  -29.3375   22.3735 N   0  0  0  0  0  0  0  0  0131  0  0
  -26.4706  -37.3372   23.9061 N   0  0  0  0  0  0  0  0  0132  0  0
  -24.6674  -31.0544   22.1178 N   0  0  0  0  0  0  0  0  0133  0  0
  -23.4259  -28.8150   23.2971 O   0  0  0  0  0  0  0  0  0134  0  0
  -28.3948  -26.7345   20.0089 O   0  0  0  0  0  0  0  0  0135  0  0
  -26.5870  -34.9065   22.4671 O   0  0  0  0  0  0  0  0  0136  0  0
  -23.5365  -32.1254   23.7833 O   0  0  0  0  0  0  0  0  0137  0  0
  -28.7653  -21.7132   17.1748 C   0  0  0  0  0  0  0  0  0  0  0  0
  -29.1767  -21.0633   19.4651 C   0  0  0  0  0  0  0  0  0  0  0  0
  -28.8985  -20.3839   16.7736 C   0  0  0  0  0  0  0  0  0  0  0  0
  -29.1707  -19.3943   17.7182 C   0  0  0  0  0  0  0  0  0  0  0  0
  -29.3098  -19.7340   19.0639 C   0  0  0  0  0  0  0  0  0  0  0  0
  -28.9044  -22.0529   18.5205 C   0  0  0  0  0  0  0  0  0  0  0  0
  -28.7477  -20.0604   15.3613 C   0  0  0  0  0  0  0  0  0  0  0  0
  -27.4351  -20.3885   14.7135 C   0  0  0  0  0  0  0  0  0  0  0  0
  -30.9265  -16.0716   16.8338 C   0  0  0  0  0  0  0  0  0  0  0  0
  -30.6474  -25.7223   21.1862 C   0  0  0  0  0  0  0  0  0  0  0  0
  -29.3146  -17.9677   17.2872 C   0  0  0  0  0  0  0  0  0  0  0  0
  -30.7842  -17.5299   17.2400 C   0  0  0  0  0  0  0  0  0  0  0  0
  -28.5553  -26.0691   19.8109 C   0  0  0  0  0  0  0  0  0  1  0  0
  -29.5216  -23.7626   20.0540 C   0  0  0  0  0  0  0  0  0  0  0  0
  -29.8443  -25.2570   19.9654 C   0  0  2  0  0  0  0  0  0  0  0  0
  -29.5864  -18.7452   20.0405 N   0  0  0  0  0  0  0  0  0  0  0  0
  -29.6149  -19.5343   14.6630 O   0  0  0  0  0  0  0  0  0  0  0  0
  -28.7734  -23.3589   18.9147 O   0  0  0  0  0  0  0  0  0  0  0  0
  -31.4485  -12.4701   19.0860 H   0  0  0  0  0  0  0  0  0  0  0  0
  -30.3970  -11.2460   19.6950 H   0  0  0  0  0  0  0  0  0  0  0  0
  -29.6870  -11.8204   17.4226 H   0  0  0  0  0  0  0  0  0  0  0  0
  -29.6375  -13.5326   17.8649 H   0  0  0  0  0  0  0  0  0  0  0  0
  -27.7830  -11.3650   18.7904 H   0  0  0  0  0  0  0  0  0  0  0  0
  -27.4028  -12.7801   17.8021 H   0  0  0  0  0  0  0  0  0  0  0  0
  -27.7353  -14.2503   19.6136 H   0  0  0  0  0  0  0  0  0  0  0  0
  -28.5890  -11.9550   21.3832 H   0  0  0  0  0  0  0  0  0  0  0  0
  -28.5005  -13.6134   21.8562 H   0  0  0  0  0  0  0  0  0  0  0  0
  -25.2399   -9.5495   22.4318 H   0  0  0  0  0  0  0  0  0  0  0  0
  -23.9663   -7.5070   22.7297 H   0  0  0  0  0  0  0  0  0  0  0  0
  -21.1515   -8.8641   19.9162 H   0  0  0  0  0  0  0  0  0  0  0  0
  -22.4016  -10.9115   19.6476 H   0  0  0  0  0  0  0  0  0  0  0  0
  -21.2319   -7.5552   23.9750 H   0  0  0  0  0  0  0  0  0  0  0  0
  -21.1589   -6.0228   25.8556 H   0  0  0  0  0  0  0  0  0  0  0  0
  -22.0396   -2.8212   23.2809 H   0  0  0  0  0  0  0  0  0  0  0  0
  -22.4401  -11.9703   22.4008 H   0  0  0  0  0  0  0  0  0  0  0  0
  -21.1493  -13.0679   22.2082 H   0  0  0  0  0  0  0  0  0  0  0  0
  -24.6538  -15.7807   20.5848 H   0  0  0  0  0  0  0  0  0  0  0  0
  -26.2762  -15.5453   20.1156 H   0  0  0  0  0  0  0  0  0  0  0  0
  -26.6778  -32.4663   23.1464 H   0  0  0  0  0  0  0  0  0  0  0  0
  -25.0747  -34.0282   25.0566 H   0  0  0  0  0  0  0  0  0  0  0  0
  -22.7881  -31.3489   21.4131 H   0  0  0  0  0  0  0  0  0  0  0  0
  -23.3854  -35.9823   23.3648 H   0  0  0  0  0  0  0  0  0  0  0  0
  -24.3696  -36.8624   22.2204 H   0  0  0  0  0  0  0  0  0  0  0  0
  -23.7669  -37.6632   23.6516 H   0  0  0  0  0  0  0  0  0  0  0  0
  -25.9445  -31.6237   20.5691 H   0  0  0  0  0  0  0  0  0  0  0  0
  -26.7436  -31.0079   22.0108 H   0  0  0  0  0  0  0  0  0  0  0  0
  -28.0090  -29.1452   21.2057 H   0  0  0  0  0  0  0  0  0  0  0  0
  -26.1369  -26.0560   19.0719 H   0  0  0  0  0  0  0  0  0  0  0  0
  -24.0652  -27.2961   19.0997 H   0  0  0  0  0  0  0  0  0  0  0  0
  -23.6156  -30.5365   19.3930 H   0  0  0  0  0  0  0  0  0  0  0  0
  -22.7355  -29.1425   19.9945 H   0  0  0  0  0  0  0  0  0  0  0  0
  -25.1353  -36.2335   25.0565 H   0  0  0  0  0  0  0  0  0  0  0  0
  -21.0070  -28.3206   24.0793 H   0  0  0  0  0  0  0  0  0  0  0  0
  -20.5555  -26.2518   23.3550 H   0  0  0  0  0  0  0  0  0  0  0  0
  -21.5974  -26.8362   22.0454 H   0  0  0  0  0  0  0  0  0  0  0  0
  -19.6810  -25.6422   21.1488 H   0  0  0  0  0  0  0  0  0  0  0  0
  -19.6406  -27.3343   20.7034 H   0  0  0  0  0  0  0  0  0  0  0  0
  -17.4282  -26.6888   21.4113 H   0  0  0  0  0  0  0  0  0  0  0  0
  -18.0803  -26.0130   22.9049 H   0  0  0  0  0  0  0  0  0  0  0  0
  -19.7265  -30.6774   24.2204 H   0  0  0  0  0  0  0  0  0  0  0  0
  -17.5064  -31.5856   24.4483 H   0  0  0  0  0  0  0  0  0  0  0  0
  -15.5878  -30.2839   23.7407 H   0  0  0  0  0  0  0  0  0  0  0  0
  -15.9120  -28.0941   22.7766 H   0  0  0  0  0  0  0  0  0  0  0  0
  -24.5787  -30.7757   25.6817 H   0  0  0  0  0  0  0  0  0  0  0  0
  -25.0041  -32.2289   26.5536 H   0  0  0  0  0  0  0  0  0  0  0  0
  -25.8166  -30.7245   26.9138 H   0  0  0  0  0  0  0  0  0  0  0  0
  -26.2892  -29.7335   24.0803 H   0  0  0  0  0  0  0  0  0  0  0  0
  -27.4336  -29.7484   25.4006 H   0  0  0  0  0  0  0  0  0  0  0  0
  -27.8466  -30.4994   23.8779 H   0  0  0  0  0  0  0  0  0  0  0  0
  -27.2251  -33.3632   26.1242 H   0  0  0  0  0  0  0  0  0  0  0  0
  -28.3902  -32.6065   25.0645 H   0  0  0  0  0  0  0  0  0  0  0  0
  -27.9772  -31.8555   26.5872 H   0  0  0  0  0  0  0  0  0  0  0  0
  -28.2744  -38.0016   24.6863 H   0  0  0  0  0  0  0  0  0  0  0  0
  -28.0396  -36.2711   24.7461 H   0  0  0  0  0  0  0  0  0  0  0  0
  -27.1773  -37.3087   25.8564 H   0  0  0  0  0  0  0  0  0  0  0  0
  -20.9627  -29.9365   21.7352 H   0  0  0  0  0  0  0  0  0  0  0  0
  -26.0447  -38.2561   24.0273 H   0  0  0  0  0  0  0  0  0  0  0  0
  -28.5638  -22.4454   16.4760 H   0  0  0  0  0  0  0  0  0  0  0  0
  -29.2797  -21.3146   20.4607 H   0  0  0  0  0  0  0  0  0  0  0  0
  -26.7840  -20.8374   15.4342 H   0  0  0  0  0  0  0  0  0  0  0  0
  -26.9881  -19.4914   14.3390 H   0  0  0  0  0  0  0  0  0  0  0  0
  -27.5969  -21.0707   13.9052 H   0  0  0  0  0  0  0  0  0  0  0  0
  -31.9630  -15.8067   16.8129 H   0  0  0  0  0  0  0  0  0  0  0  0
  -30.5023  -15.9291   15.8619 H   0  0  0  0  0  0  0  0  0  0  0  0
  -30.4144  -15.4528   17.5407 H   0  0  0  0  0  0  0  0  0  0  0  0
  -30.8580  -26.7676   21.0973 H   0  0  0  0  0  0  0  0  0  0  0  0
  -31.5663  -25.1765   21.2378 H   0  0  0  0  0  0  0  0  0  0  0  0
  -30.0783  -25.5475   22.0753 H   0  0  0  0  0  0  0  0  0  0  0  0
  -28.8890  -17.8564   16.3118 H   0  0  0  0  0  0  0  0  0  0  0  0
  -28.8081  -17.3528   18.0015 H   0  0  0  0  0  0  0  0  0  0  0  0
  -31.3045  -18.1393   16.5308 H   0  0  0  0  0  0  0  0  0  0  0  0
  -31.1966  -17.6436   18.2208 H   0  0  0  0  0  0  0  0  0  0  0  0
  -27.8157  -25.4709   20.3008 H   0  0  0  0  0  0  0  0  0  0  0  0
  -28.6489  -26.2640   18.7630 H   0  0  0  0  0  0  0  0  0  0  0  0
  -28.9492  -23.5754   20.9384 H   0  0  0  0  0  0  0  0  0  0  0  0
  -30.4355  -23.2072   20.0892 H   0  0  0  0  0  0  0  0  0  0  0  0
  -30.4520  -25.4203   19.1000 H   0  0  0  0  0  0  0  0  0  0  0  0
  -29.4869  -19.1604   20.9276 H   0  0  0  0  0  0  0  0  0  0  0  0
  1 25  1  0
  1 30  2  0
  1 86  1  0
  2  3  1  0
  2 25  1  0
  2 89  1  0
  2 90  1  0
  3  4  1  0
  3 91  1  0
  3 92  1  0
  4  5  1  0
  4 93  1  0
  4 94  1  0
  5  6  1  0
  5 26  1  0
  5 95  1  6
  6 25  1  0
  6 96  1  0
  6 97  1  0
  7  8  2  0
  7 26  1  0
  7 29  1  0
  8  9  1  0
  8 22  1  0
  9 10  1  0
  9 27  2  0
 10 11  2  0
 10 15  1  0
 11 12  1  0
 11 98  1  0
 12 13  2  0
 12 99  1  0
 13 14  1  0
 13 31  1  0
 14 15  2  0
 14100  1  0
 15101  1  0
 16 17  2  0
 16 21  1  0
 16 31  1  0
 17 18  1  0
 17102  1  0
 18 19  2  0
 18103  1  0
 19 20  1  0
 19 24  1  0
 20 21  2  0
 20104  1  0
 21 23  1  0
 22 28  1  0
 22 32  2  0
 26 27  1  0
 28105  1  0
 28106  1  0
 29107  1  0
 29108  1  0
 33 34  1  0
 33 66  1  0
 33 70  2  0
 34 36  1  0
 34 59  1  0
 34109  1  6
 35 44  2  0
 35 45  1  0
 35 68  1  0
 36 56  1  0
 36110  1  0
 37 39  1  0
 37 47  1  0
 37 66  1  0
 37111  1  6
 38 43  2  0
 38 46  1  0
 38 47  1  0
 39 64  1  0
 39 67  2  0
 40 52  1  0
 40 53  2  0
 40 58  1  0
 41112  1  0
 41113  1  0
 41114  1  0
 42 43  1  0
 42 66  1  0
 42115  1  0
 42116  1  0
 43 44  1  0
 44117  1  0
 45 46  2  0
 45118  1  0
 46119  1  0
 47120  1  0
 47121  1  0
 48 41  1  0
 48 56  1  0
 48 65  1  0
 48122  1  1
 49 50  1  0
 49 53  1  0
 49 64  1  0
 49123  1  1
 50 51  1  0
 50124  1  0
 50125  1  0
 51 52  1  0
 51126  1  0
 51127  1  0
 52128  1  0
 52129  1  0
 53 54  1  0
 54 55  2  0
 54130  1  0
 55 57  1  0
 55131  1  0
 56 69  2  0
 57 58  2  0
 57132  1  0
 58133  1  0
 59 60  1  0
 59 61  1  0
 59 62  1  0
 60134  1  0
 60135  1  0
 60136  1  0
 61137  1  0
 61138  1  0
 61139  1  0
 62140  1  0
 62141  1  0
 62142  1  0
 63 65  1  0
 63143  1  0
 63144  1  0
 63145  1  0
 64146  1  0
 65147  1  0
 68 83  1  0
 71 73  2  0
 71 76  1  0
 71148  1  0
 72 75  1  0
 72 76  2  0
 72149  1  0
 73 74  1  0
 73 77  1  0
 74 75  2  0
 74 81  1  0
 75 86  1  0
 76 88  1  0
 77 78  1  0
 77 87  2  0
 78150  1  0
 78151  1  0
 78152  1  0
 79 82  1  0
 79153  1  0
 79154  1  0
 79155  1  0
 80156  1  0
 80157  1  0
 80158  1  0
 81 82  1  0
 81159  1  0
 81160  1  0
 82161  1  0
 82162  1  0
 83 85  1  0
 83163  1  0
 83164  1  0
 84 85  1  0
 84 88  1  0
 84165  1  0
 84166  1  0
 85 80  1  0
 85167  1  6
 86168  1  0
M  ISO  4   1 100  68 101  83 101  86 100
M  END
$$$$
67
     RDKit          3D

167175  0  0  0  0  0  0  0  0999 V2000
  -30.7652  -14.3608   20.6636 C   0  0  0  0  0  0  0  0  0100  0  0
  -30.4392  -12.2669   19.3775 C   0  0  0  0  0  0  0  0  0101  0  0
  -29.4791  -12.5281   18.1977 C   0  0  0  0  0  0  0  0  0102  0  0
  -27.9985  -12.3963   18.6038 C   0  0  0  0  0  0  0  0  0103  0  0
  -27.6639  -13.2170   19.8820 C   0  0  2  0  0  0  0  0  0104  0  0
  -28.6795  -12.9602   21.0279 C   0  0  0  0  0  0  0  0  0105  0  0
  -25.2633  -13.8245   20.5754 C   0  0  0  0  0  0  0  0  0106  0  0
  -24.1645  -13.0409   20.9408 C   0  0  0  0  0  0  0  0  0107  0  0
  -24.6400  -11.7009   20.8697 C   0  0  0  0  0  0  0  0  0108  0  0
  -23.9005  -10.4085   21.0420 C   0  0  0  0  0  0  0  0  0109  0  0
  -24.3588   -9.4123   21.9123 C   0  0  0  0  0  0  0  0  0110  0  0
  -23.6296   -8.2350   22.0803 C   0  0  0  0  0  0  0  0  0111  0  0
  -22.4385   -8.0419   21.3657 C   0  0  0  0  0  0  0  0  0112  0  0
  -22.0103   -9.0167   20.4678 C   0  0  0  0  0  0  0  0  0113  0  0
  -22.7317  -10.1925   20.3102 C   0  0  0  0  0  0  0  0  0114  0  0
  -21.6857   -6.0709   22.5391 C   0  0  0  0  0  0  0  0  0115  0  0
  -21.4064   -6.5490   23.8264 C   0  0  0  0  0  0  0  0  0116  0  0
  -21.3635   -5.6677   24.9085 C   0  0  0  0  0  0  0  0  0117  0  0
  -21.5973   -4.3067   24.7088 C   0  0  0  0  0  0  0  0  0118  0  0
  -21.8700   -3.8284   23.4282 C   0  0  0  0  0  0  0  0  0119  0  0
  -21.9144   -4.7056   22.3460 C   0  0  0  0  0  0  0  0  0120  0  0
  -22.8194  -13.5263   21.1763 C   0  0  0  0  0  0  0  0  0121  0  0
  -22.1559   -4.2206   21.1063 F   0  0  0  0  0  0  0  0  0122  0  0
  -21.5628   -3.4510   25.7555 F   0  0  0  0  0  0  0  0  0123  0  0
  -30.0261  -13.1803   20.4553 N   0  0  0  0  0  0  0  0  0124  0  0
  -26.2911  -12.9356   20.3443 N   0  0  0  0  0  0  0  0  0125  0  0
  -25.9236  -11.6675   20.5847 N   0  0  0  0  0  0  0  0  0126  0  0
  -22.0708  -12.7905   22.0005 N   0  0  0  0  0  0  0  0  0127  0  0
  -25.4117  -15.1773   20.4097 N   0  0  0  0  0  0  0  0  0128  0  0
  -31.7916  -14.6724   20.0536 O   0  0  0  0  0  0  0  0  0129  0  0
  -21.6670   -6.9022   21.4423 O   0  0  0  0  0  0  0  0  0130  0  0
  -22.3946  -14.5564   20.6568 O   0  0  0  0  0  0  0  0  0131  0  0
  -24.6048  -31.8614   23.2223 C   0  0  0  0  0  0  0  0  0100  0  0
  -25.8822  -32.4841   23.8616 C   0  0  1  0  0  0  0  0  0101  0  0
  -27.2536  -27.5042   20.1156 C   0  0  0  0  0  0  0  0  0102  0  0
  -25.5726  -33.8762   24.2210 N   0  0  0  0  0  0  0  0  0103  0  0
  -23.4066  -30.4859   21.5461 C   0  0  2  0  0  0  0  0  0104  0  0
  -24.8467  -28.9636   20.1247 C   0  0  0  0  0  0  0  0  0105  0  0
  -22.7412  -29.4652   22.5052 C   0  0  0  0  0  0  0  0  0106  0  0
  -18.0167  -28.1302   22.8626 C   0  0  0  0  0  0  0  0  0107  0  0
  -24.1342  -36.7390   23.2568 C   0  0  0  0  0  0  0  0  0108  0  0
  -25.9141  -30.8882   21.3456 C   0  0  0  0  0  0  0  0  0109  0  0
  -25.9930  -29.5029   20.7208 C   0  0  0  0  0  0  0  0  0110  0  0
  -27.1758  -28.7612   20.7331 C   0  0  0  0  0  0  0  0  0111  0  0
  -26.1032  -26.9836   19.5230 C   0  0  0  0  0  0  0  0  0112  0  0
  -24.9097  -27.7011   19.5331 C   0  0  0  0  0  0  0  0  0113  0  0
  -23.5715  -29.7899   20.1582 C   0  0  0  0  0  0  0  0  0114  0  0
  -25.3990  -36.3212   24.0232 C   0  0  1  0  0  0  0  0  0115  0  0
  -20.5793  -28.3813   23.1004 C   0  0  2  0  0  0  0  0  0116  0  0
  -20.6548  -26.9392   22.5411 C   0  0  0  0  0  0  0  0  0117  0  0
  -19.5615  -26.6407   21.5143 C   0  0  0  0  0  0  0  0  0118  0  0
  -18.1797  -26.7818   22.1673 C   0  0  0  0  0  0  0  0  0119  0  0
  -19.1385  -28.8769   23.2988 C   0  0  0  0  0  0  0  0  0120  0  0
  -18.9183  -30.1286   23.8878 C   0  0  0  0  0  0  0  0  0121  0  0
  -17.6396  -30.6493   24.0352 C   0  0  0  0  0  0  0  0  0122  0  0
  -25.9153  -34.9582   23.4993 C   0  0  0  0  0  0  0  0  0123  0  0
  -16.5415  -29.9068   23.6254 C   0  0  0  0  0  0  0  0  0124  0  0
  -16.7331  -28.6521   23.0586 C   0  0  0  0  0  0  0  0  0125  0  0
  -26.4583  -31.6439   25.0683 C   0  0  0  0  0  0  0  0  0126  0  0
  -25.3807  -31.3179   26.1374 C   0  0  0  0  0  0  0  0  0127  0  0
  -27.0530  -30.3024   24.5680 C   0  0  0  0  0  0  0  0  0128  0  0
  -27.6014  -32.4281   25.7651 C   0  0  0  0  0  0  0  0  0129  0  0
  -27.5629  -37.2220   24.8621 C   0  0  0  0  0  0  0  0  0130  0  0
  -21.4133  -29.3375   22.3735 N   0  0  0  0  0  0  0  0  0131  0  0
  -26.4706  -37.3372   23.9061 N   0  0  0  0  0  0  0  0  0132  0  0
  -24.6674  -31.0544   22.1178 N   0  0  0  0  0  0  0  0  0133  0  0
  -23.4259  -28.8150   23.2971 O   0  0  0  0  0  0  0  0  0134  0  0
  -28.3948  -26.7345   20.0089 O   0  0  0  0  0  0  0  0  0135  0  0
  -26.5870  -34.9065   22.4671 O   0  0  0  0  0  0  0  0  0136  0  0
  -23.5365  -32.1254   23.7833 O   0  0  0  0  0  0  0  0  0137  0  0
  -30.4958  -19.7163   17.5093 C   0  0  0  0  0  0  0  0  0  0  0  0
  -30.3793  -18.4063   17.9740 C   0  0  0  0  0  0  0  0  0  0  0  0
  -28.0932  -18.3336   17.1958 C   0  0  0  0  0  0  0  0  0  0  0  0
  -29.4110  -20.3350   16.8879 C   0  0  0  0  0  0  0  0  0  0  0  0
  -28.2097  -19.6436   16.7311 C   0  0  0  0  0  0  0  0  0  0  0  0
  -29.1780  -17.7149   17.8172 C   0  0  0  0  0  0  0  0  0  0  0  0
  -29.5636  -21.7356   16.4017 C   0  0  0  0  0  0  0  0  0  0  0  0
  -28.9425  -24.6882   18.8316 C   0  0  0  0  0  0  0  0  0  0  0  0
  -26.8363  -19.7941   14.6389 C   0  0  0  0  0  0  0  0  0  0  0  0
  -26.5598  -25.4801   19.2003 C   0  0  0  0  0  0  0  0  0  0  0  0
  -28.0334  -26.6238   17.5046 C   0  0  0  0  0  0  0  0  0  0  0  0
  -27.0322  -20.2832   16.0705 C   0  0  0  0  0  0  0  0  0  0  0  0
  -29.9063  -22.8537   17.3728 C   0  0  0  0  0  0  0  0  0  0  0  0
  -28.6399  -23.5474   17.8678 C   0  0  0  0  0  0  0  0  0  0  0  0
  -27.9846  -25.8885   18.8397 C   0  0  0  0  0  0  0  0  0  1  0  0
  -29.4016  -22.0118   15.1458 N   0  0  0  0  0  0  0  0  0  0  0  0
  -29.0606  -16.3842   18.2896 N   0  0  0  0  0  0  0  0  0  0  0  0
  -29.9201  -24.6515   19.5819 O   0  0  0  0  0  0  0  0  0  0  0  0
  -31.4485  -12.4701   19.0860 H   0  0  0  0  0  0  0  0  0  0  0  0
  -30.3970  -11.2460   19.6950 H   0  0  0  0  0  0  0  0  0  0  0  0
  -29.6870  -11.8204   17.4226 H   0  0  0  0  0  0  0  0  0  0  0  0
  -29.6375  -13.5326   17.8649 H   0  0  0  0  0  0  0  0  0  0  0  0
  -27.7830  -11.3650   18.7904 H   0  0  0  0  0  0  0  0  0  0  0  0
  -27.4028  -12.7801   17.8021 H   0  0  0  0  0  0  0  0  0  0  0  0
  -27.7353  -14.2503   19.6136 H   0  0  0  0  0  0  0  0  0  0  0  0
  -28.5890  -11.9550   21.3832 H   0  0  0  0  0  0  0  0  0  0  0  0
  -28.5005  -13.6134   21.8562 H   0  0  0  0  0  0  0  0  0  0  0  0
  -25.2399   -9.5495   22.4318 H   0  0  0  0  0  0  0  0  0  0  0  0
  -23.9663   -7.5070   22.7297 H   0  0  0  0  0  0  0  0  0  0  0  0
  -21.1515   -8.8641   19.9162 H   0  0  0  0  0  0  0  0  0  0  0  0
  -22.4016  -10.9115   19.6476 H   0  0  0  0  0  0  0  0  0  0  0  0
  -21.2319   -7.5552   23.9750 H   0  0  0  0  0  0  0  0  0  0  0  0
  -21.1589   -6.0228   25.8556 H   0  0  0  0  0  0  0  0  0  0  0  0
  -22.0396   -2.8212   23.2809 H   0  0  0  0  0  0  0  0  0  0  0  0
  -22.4401  -11.9703   22.4008 H   0  0  0  0  0  0  0  0  0  0  0  0
  -21.1493  -13.0679   22.2082 H   0  0  0  0  0  0  0  0  0  0  0  0
  -24.6538  -15.7807   20.5848 H   0  0  0  0  0  0  0  0  0  0  0  0
  -26.2762  -15.5453   20.1156 H   0  0  0  0  0  0  0  0  0  0  0  0
  -26.6778  -32.4663   23.1464 H   0  0  0  0  0  0  0  0  0  0  0  0
  -25.0747  -34.0282   25.0566 H   0  0  0  0  0  0  0  0  0  0  0  0
  -22.7881  -31.3489   21.4131 H   0  0  0  0  0  0  0  0  0  0  0  0
  -23.3854  -35.9823   23.3648 H   0  0  0  0  0  0  0  0  0  0  0  0
  -24.3696  -36.8624   22.2204 H   0  0  0  0  0  0  0  0  0  0  0  0
  -23.7669  -37.6632   23.6516 H   0  0  0  0  0  0  0  0  0  0  0  0
  -25.9445  -31.6237   20.5691 H   0  0  0  0  0  0  0  0  0  0  0  0
  -26.7436  -31.0079   22.0108 H   0  0  0  0  0  0  0  0  0  0  0  0
  -28.0090  -29.1452   21.2057 H   0  0  0  0  0  0  0  0  0  0  0  0
  -26.1369  -26.0560   19.0719 H   0  0  0  0  0  0  0  0  0  0  0  0
  -24.0652  -27.2961   19.0997 H   0  0  0  0  0  0  0  0  0  0  0  0
  -23.6156  -30.5365   19.3930 H   0  0  0  0  0  0  0  0  0  0  0  0
  -22.7355  -29.1425   19.9945 H   0  0  0  0  0  0  0  0  0  0  0  0
  -25.1353  -36.2335   25.0565 H   0  0  0  0  0  0  0  0  0  0  0  0
  -21.0070  -28.3206   24.0793 H   0  0  0  0  0  0  0  0  0  0  0  0
  -20.5555  -26.2518   23.3550 H   0  0  0  0  0  0  0  0  0  0  0  0
  -21.5974  -26.8362   22.0454 H   0  0  0  0  0  0  0  0  0  0  0  0
  -19.6810  -25.6422   21.1488 H   0  0  0  0  0  0  0  0  0  0  0  0
  -19.6406  -27.3343   20.7034 H   0  0  0  0  0  0  0  0  0  0  0  0
  -17.4282  -26.6888   21.4113 H   0  0  0  0  0  0  0  0  0  0  0  0
  -18.0803  -26.0130   22.9049 H   0  0  0  0  0  0  0  0  0  0  0  0
  -19.7265  -30.6774   24.2204 H   0  0  0  0  0  0  0  0  0  0  0  0
  -17.5064  -31.5856   24.4483 H   0  0  0  0  0  0  0  0  0  0  0  0
  -15.5878  -30.2839   23.7407 H   0  0  0  0  0  0  0  0  0  0  0  0
  -15.9120  -28.0941   22.7766 H   0  0  0  0  0  0  0  0  0  0  0  0
  -24.5787  -30.7757   25.6817 H   0  0  0  0  0  0  0  0  0  0  0  0
  -25.0041  -32.2289   26.5536 H   0  0  0  0  0  0  0  0  0  0  0  0
  -25.8166  -30.7245   26.9138 H   0  0  0  0  0  0  0  0  0  0  0  0
  -26.2892  -29.7335   24.0803 H   0  0  0  0  0  0  0  0  0  0  0  0
  -27.4336  -29.7484   25.4006 H   0  0  0  0  0  0  0  0  0  0  0  0
  -27.8466  -30.4994   23.8779 H   0  0  0  0  0  0  0  0  0  0  0  0
  -27.2251  -33.3632   26.1242 H   0  0  0  0  0  0  0  0  0  0  0  0
  -28.3902  -32.6065   25.0645 H   0  0  0  0  0  0  0  0  0  0  0  0
  -27.9772  -31.8555   26.5872 H   0  0  0  0  0  0  0  0  0  0  0  0
  -28.2744  -38.0016   24.6863 H   0  0  0  0  0  0  0  0  0  0  0  0
  -28.0396  -36.2711   24.7461 H   0  0  0  0  0  0  0  0  0  0  0  0
  -27.1773  -37.3087   25.8564 H   0  0  0  0  0  0  0  0  0  0  0  0
  -20.9627  -29.9365   21.7352 H   0  0  0  0  0  0  0  0  0  0  0  0
  -26.0447  -38.2561   24.0273 H   0  0  0  0  0  0  0  0  0  0  0  0
  -31.3846  -20.2278   17.6252 H   0  0  0  0  0  0  0  0  0  0  0  0
  -31.1819  -17.9486   18.4338 H   0  0  0  0  0  0  0  0  0  0  0  0
  -27.2044  -17.8221   17.0799 H   0  0  0  0  0  0  0  0  0  0  0  0
  -25.9844  -20.2789   14.2098 H   0  0  0  0  0  0  0  0  0  0  0  0
  -26.6804  -18.7355   14.6418 H   0  0  0  0  0  0  0  0  0  0  0  0
  -27.7067  -20.0248   14.0609 H   0  0  0  0  0  0  0  0  0  0  0  0
  -26.1584  -24.8627   18.4240 H   0  0  0  0  0  0  0  0  0  0  0  0
  -25.9544  -26.3557   19.3086 H   0  0  0  0  0  0  0  0  0  0  0  0
  -26.5672  -24.9354   20.1213 H   0  0  0  0  0  0  0  0  0  0  0  0
  -27.7295  -25.9613   16.7212 H   0  0  0  0  0  0  0  0  0  0  0  0
  -29.0319  -26.9609   17.3193 H   0  0  0  0  0  0  0  0  0  0  0  0
  -27.3731  -27.4651   17.5364 H   0  0  0  0  0  0  0  0  0  0  0  0
  -27.1796  -21.3429   16.0551 H   0  0  0  0  0  0  0  0  0  0  0  0
  -26.1591  -20.0187   16.6296 H   0  0  0  0  0  0  0  0  0  0  0  0
  -30.5283  -23.5700   16.8779 H   0  0  0  0  0  0  0  0  0  0  0  0
  -30.4186  -22.4337   18.2131 H   0  0  0  0  0  0  0  0  0  0  0  0
  -28.1114  -23.9407   17.0247 H   0  0  0  0  0  0  0  0  0  0  0  0
  -28.0545  -22.8223   18.3935 H   0  0  0  0  0  0  0  0  0  0  0  0
  -29.1795  -21.2948   14.5088 H   0  0  0  0  0  0  0  0  0  0  0  0
  -28.3240  -15.8997   17.8515 H   0  0  0  0  0  0  0  0  0  0  0  0
  1 25  1  0
  1 30  2  0
  1 87  1  0
  2  3  1  0
  2 25  1  0
  2 89  1  0
  2 90  1  0
  3  4  1  0
  3 91  1  0
  3 92  1  0
  4  5  1  0
  4 93  1  0
  4 94  1  0
  5  6  1  0
  5 26  1  0
  5 95  1  6
  6 25  1  0
  6 96  1  0
  6 97  1  0
  7  8  2  0
  7 26  1  0
  7 29  1  0
  8  9  1  0
  8 22  1  0
  9 10  1  0
  9 27  2  0
 10 11  2  0
 10 15  1  0
 11 12  1  0
 11 98  1  0
 12 13  2  0
 12 99  1  0
 13 14  1  0
 13 31  1  0
 14 15  2  0
 14100  1  0
 15101  1  0
 16 17  2  0
 16 21  1  0
 16 31  1  0
 17 18  1  0
 17102  1  0
 18 19  2  0
 18103  1  0
 19 20  1  0
 19 24  1  0
 20 21  2  0
 20104  1  0
 21 23  1  0
 22 28  1  0
 22 32  2  0
 26 27  1  0
 28105  1  0
 28106  1  0
 29107  1  0
 29108  1  0
 33 34  1  0
 33 66  1  0
 33 70  2  0
 34 36  1  0
 34 59  1  0
 34109  1  6
 35 44  2  0
 35 45  1  0
 35 68  1  0
 36 56  1  0
 36110  1  0
 37 39  1  0
 37 47  1  0
 37 66  1  0
 37111  1  6
 38 43  2  0
 38 46  1  0
 38 47  1  0
 39 64  1  0
 39 67  2  0
 40 52  1  0
 40 53  2  0
 40 58  1  0
 41112  1  0
 41113  1  0
 41114  1  0
 42 43  1  0
 42 66  1  0
 42115  1  0
 42116  1  0
 43 44  1  0
 44117  1  0
 45 46  2  0
 45118  1  0
 46119  1  0
 47120  1  0
 47121  1  0
 48 41  1  0
 48 56  1  0
 48 65  1  0
 48122  1  1
 49 50  1  0
 49 53  1  0
 49 64  1  0
 49123  1  1
 50 51  1  0
 50124  1  0
 50125  1  0
 51 52  1  0
 51126  1  0
 51127  1  0
 52128  1  0
 52129  1  0
 53 54  1  0
 54 55  2  0
 54130  1  0
 55 57  1  0
 55131  1  0
 56 69  2  0
 57 58  2  0
 57132  1  0
 58133  1  0
 59 60  1  0
 59 61  1  0
 59 62  1  0
 60134  1  0
 60135  1  0
 60136  1  0
 61137  1  0
 61138  1  0
 61139  1  0
 62140  1  0
 62141  1  0
 62142  1  0
 63 65  1  0
 63143  1  0
 63144  1  0
 63145  1  0
 64146  1  0
 65147  1  0
 68 85  1  0
 71 72  2  0
 71 74  1  0
 71148  1  0
 72 76  1  0
 72149  1  0
 73 75  1  0
 73 76  2  0
 73150  1  0
 74 75  2  0
 74 77  1  0
 75 82  1  0
 76 87  1  0
 77 83  1  0
 77 86  2  0
 78 84  1  0
 78 85  1  0
 78 88  2  0
 79 82  1  0
 79151  1  0
 79152  1  0
 79153  1  0
 80154  1  0
 80155  1  0
 80156  1  0
 81 85  1  0
 81157  1  0
 81158  1  0
 81159  1  0
 82160  1  0
 82161  1  0
 83 84  1  0
 83162  1  0
 83163  1  0
 84164  1  0
 84165  1  0
 85 80  1  0
 86166  1  0
 87167  1  0
M  ISO  4   1 100  68 101  85 101  87 100
M  END
$$$$
68
     RDKit          3D

168176  0  0  0  0  0  0  0  0999 V2000
  -30.7652  -14.3608   20.6636 C   0  0  0  0  0  0  0  0  0100  0  0
  -30.4392  -12.2669   19.3775 C   0  0  0  0  0  0  0  0  0101  0  0
  -29.4791  -12.5281   18.1977 C   0  0  0  0  0  0  0  0  0102  0  0
  -27.9985  -12.3963   18.6038 C   0  0  0  0  0  0  0  0  0103  0  0
  -27.6639  -13.2170   19.8820 C   0  0  2  0  0  0  0  0  0104  0  0
  -28.6795  -12.9602   21.0279 C   0  0  0  0  0  0  0  0  0105  0  0
  -25.2633  -13.8245   20.5754 C   0  0  0  0  0  0  0  0  0106  0  0
  -24.1645  -13.0409   20.9408 C   0  0  0  0  0  0  0  0  0107  0  0
  -24.6400  -11.7009   20.8697 C   0  0  0  0  0  0  0  0  0108  0  0
  -23.9005  -10.4085   21.0420 C   0  0  0  0  0  0  0  0  0109  0  0
  -24.3588   -9.4123   21.9123 C   0  0  0  0  0  0  0  0  0110  0  0
  -23.6296   -8.2350   22.0803 C   0  0  0  0  0  0  0  0  0111  0  0
  -22.4385   -8.0419   21.3657 C   0  0  0  0  0  0  0  0  0112  0  0
  -22.0103   -9.0167   20.4678 C   0  0  0  0  0  0  0  0  0113  0  0
  -22.7317  -10.1925   20.3102 C   0  0  0  0  0  0  0  0  0114  0  0
  -21.6857   -6.0709   22.5391 C   0  0  0  0  0  0  0  0  0115  0  0
  -21.4064   -6.5490   23.8264 C   0  0  0  0  0  0  0  0  0116  0  0
  -21.3635   -5.6677   24.9085 C   0  0  0  0  0  0  0  0  0117  0  0
  -21.5973   -4.3067   24.7088 C   0  0  0  0  0  0  0  0  0118  0  0
  -21.8700   -3.8284   23.4282 C   0  0  0  0  0  0  0  0  0119  0  0
  -21.9144   -4.7056   22.3460 C   0  0  0  0  0  0  0  0  0120  0  0
  -22.8194  -13.5263   21.1763 C   0  0  0  0  0  0  0  0  0121  0  0
  -22.1559   -4.2206   21.1063 F   0  0  0  0  0  0  0  0  0122  0  0
  -21.5628   -3.4510   25.7555 F   0  0  0  0  0  0  0  0  0123  0  0
  -30.0261  -13.1803   20.4553 N   0  0  0  0  0  0  0  0  0124  0  0
  -26.2911  -12.9356   20.3443 N   0  0  0  0  0  0  0  0  0125  0  0
  -25.9236  -11.6675   20.5847 N   0  0  0  0  0  0  0  0  0126  0  0
  -22.0708  -12.7905   22.0005 N   0  0  0  0  0  0  0  0  0127  0  0
  -25.4117  -15.1773   20.4097 N   0  0  0  0  0  0  0  0  0128  0  0
  -31.7916  -14.6724   20.0536 O   0  0  0  0  0  0  0  0  0129  0  0
  -21.6670   -6.9022   21.4423 O   0  0  0  0  0  0  0  0  0130  0  0
  -22.3946  -14.5564   20.6568 O   0  0  0  0  0  0  0  0  0131  0  0
  -24.6048  -31.8614   23.2223 C   0  0  0  0  0  0  0  0  0100  0  0
  -25.8822  -32.4841   23.8616 C   0  0  1  0  0  0  0  0  0101  0  0
  -27.2536  -27.5042   20.1156 C   0  0  0  0  0  0  0  0  0102  0  0
  -25.5726  -33.8762   24.2210 N   0  0  0  0  0  0  0  0  0103  0  0
  -23.4066  -30.4859   21.5461 C   0  0  2  0  0  0  0  0  0104  0  0
  -24.8467  -28.9636   20.1247 C   0  0  0  0  0  0  0  0  0105  0  0
  -22.7412  -29.4652   22.5052 C   0  0  0  0  0  0  0  0  0106  0  0
  -18.0167  -28.1302   22.8626 C   0  0  0  0  0  0  0  0  0107  0  0
  -24.1342  -36.7390   23.2568 C   0  0  0  0  0  0  0  0  0108  0  0
  -25.9141  -30.8882   21.3456 C   0  0  0  0  0  0  0  0  0109  0  0
  -25.9930  -29.5029   20.7208 C   0  0  0  0  0  0  0  0  0110  0  0
  -27.1758  -28.7612   20.7331 C   0  0  0  0  0  0  0  0  0111  0  0
  -26.1032  -26.9836   19.5230 C   0  0  0  0  0  0  0  0  0112  0  0
  -24.9097  -27.7011   19.5331 C   0  0  0  0  0  0  0  0  0113  0  0
  -23.5715  -29.7899   20.1582 C   0  0  0  0  0  0  0  0  0114  0  0
  -25.3990  -36.3212   24.0232 C   0  0  1  0  0  0  0  0  0115  0  0
  -20.5793  -28.3813   23.1004 C   0  0  2  0  0  0  0  0  0116  0  0
  -20.6548  -26.9392   22.5411 C   0  0  0  0  0  0  0  0  0117  0  0
  -19.5615  -26.6407   21.5143 C   0  0  0  0  0  0  0  0  0118  0  0
  -18.1797  -26.7818   22.1673 C   0  0  0  0  0  0  0  0  0119  0  0
  -19.1385  -28.8769   23.2988 C   0  0  0  0  0  0  0  0  0120  0  0
  -18.9183  -30.1286   23.8878 C   0  0  0  0  0  0  0  0  0121  0  0
  -17.6396  -30.6493   24.0352 C   0  0  0  0  0  0  0  0  0122  0  0
  -25.9153  -34.9582   23.4993 C   0  0  0  0  0  0  0  0  0123  0  0
  -16.5415  -29.9068   23.6254 C   0  0  0  0  0  0  0  0  0124  0  0
  -16.7331  -28.6521   23.0586 C   0  0  0  0  0  0  0  0  0125  0  0
  -26.4583  -31.6439   25.0683 C   0  0  0  0  0  0  0  0  0126  0  0
  -25.3807  -31.3179   26.1374 C   0  0  0  0  0  0  0  0  0127  0  0
  -27.0530  -30.3024   24.5680 C   0  0  0  0  0  0  0  0  0128  0  0
  -27.6014  -32.4281   25.7651 C   0  0  0  0  0  0  0  0  0129  0  0
  -27.5629  -37.2220   24.8621 C   0  0  0  0  0  0  0  0  0130  0  0
  -21.4133  -29.3375   22.3735 N   0  0  0  0  0  0  0  0  0131  0  0
  -26.4706  -37.3372   23.9061 N   0  0  0  0  0  0  0  0  0132  0  0
  -24.6674  -31.0544   22.1178 N   0  0  0  0  0  0  0  0  0133  0  0
  -23.4259  -28.8150   23.2971 O   0  0  0  0  0  0  0  0  0134  0  0
  -28.3948  -26.7345   20.0089 O   0  0  0  0  0  0  0  0  0135  0  0
  -26.5870  -34.9065   22.4671 O   0  0  0  0  0  0  0  0  0136  0  0
  -23.5365  -32.1254   23.7833 O   0  0  0  0  0  0  0  0  0137  0  0
  -28.1814  -20.5550   19.2568 C   0  0  0  0  0  0  0  0  0  0  0  0
  -25.8744  -20.6422   20.8230 C   0  0  0  0  0  0  0  0  0  0  0  0
  -27.7308  -19.4020   19.8996 C   0  0  0  0  0  0  0  0  0  0  0  0
  -27.4785  -21.7517   19.3972 C   0  0  0  0  0  0  0  0  0  0  0  0
  -26.5773  -19.4455   20.6826 C   0  0  0  0  0  0  0  0  0  0  0  0
  -26.3250  -21.7952   20.1802 C   0  0  0  0  0  0  0  0  0  0  0  0
  -29.9353  -18.2424   20.2862 C   0  0  0  0  0  0  0  0  0  0  0  0
  -28.5422  -17.6610   18.2672 C   0  0  0  0  0  0  0  0  0  0  0  0
  -30.2435  -24.7164   17.4152 C   0  0  0  0  0  0  0  0  0  0  0  0
  -30.8383  -25.5226   19.7138 C   0  0  0  0  0  0  0  0  0  0  0  0
  -27.9685  -22.9980   18.7001 C   0  0  0  0  0  0  0  0  0  0  0  0
  -29.1611  -23.6200   19.4399 C   0  0  0  0  0  0  0  0  0  0  0  0
  -28.5644  -25.9892   18.7942 C   0  0  0  0  0  0  0  0  0  1  0  0
  -28.5036  -18.1338   19.7315 C   0  0  0  0  0  0  0  0  0  0  0  0
  -29.7089  -24.9470   18.8410 C   0  0  0  0  0  0  0  0  0  0  0  0
  -26.1037  -18.2852   21.3437 N   0  0  0  0  0  0  0  0  0  0  0  0
  -25.6430  -22.9405   20.3210 F   0  0  0  0  0  0  0  0  0  0  0  0
  -31.4485  -12.4701   19.0860 H   0  0  0  0  0  0  0  0  0  0  0  0
  -30.3970  -11.2460   19.6950 H   0  0  0  0  0  0  0  0  0  0  0  0
  -29.6870  -11.8204   17.4226 H   0  0  0  0  0  0  0  0  0  0  0  0
  -29.6375  -13.5326   17.8649 H   0  0  0  0  0  0  0  0  0  0  0  0
  -27.7830  -11.3650   18.7904 H   0  0  0  0  0  0  0  0  0  0  0  0
  -27.4028  -12.7801   17.8021 H   0  0  0  0  0  0  0  0  0  0  0  0
  -27.7353  -14.2503   19.6136 H   0  0  0  0  0  0  0  0  0  0  0  0
  -28.5890  -11.9550   21.3832 H   0  0  0  0  0  0  0  0  0  0  0  0
  -28.5005  -13.6134   21.8562 H   0  0  0  0  0  0  0  0  0  0  0  0
  -25.2399   -9.5495   22.4318 H   0  0  0  0  0  0  0  0  0  0  0  0
  -23.9663   -7.5070   22.7297 H   0  0  0  0  0  0  0  0  0  0  0  0
  -21.1515   -8.8641   19.9162 H   0  0  0  0  0  0  0  0  0  0  0  0
  -22.4016  -10.9115   19.6476 H   0  0  0  0  0  0  0  0  0  0  0  0
  -21.2319   -7.5552   23.9750 H   0  0  0  0  0  0  0  0  0  0  0  0
  -21.1589   -6.0228   25.8556 H   0  0  0  0  0  0  0  0  0  0  0  0
  -22.0396   -2.8212   23.2809 H   0  0  0  0  0  0  0  0  0  0  0  0
  -22.4401  -11.9703   22.4008 H   0  0  0  0  0  0  0  0  0  0  0  0
  -21.1493  -13.0679   22.2082 H   0  0  0  0  0  0  0  0  0  0  0  0
  -24.6538  -15.7807   20.5848 H   0  0  0  0  0  0  0  0  0  0  0  0
  -26.2762  -15.5453   20.1156 H   0  0  0  0  0  0  0  0  0  0  0  0
  -26.6778  -32.4663   23.1464 H   0  0  0  0  0  0  0  0  0  0  0  0
  -25.0747  -34.0282   25.0566 H   0  0  0  0  0  0  0  0  0  0  0  0
  -22.7881  -31.3489   21.4131 H   0  0  0  0  0  0  0  0  0  0  0  0
  -23.3854  -35.9823   23.3648 H   0  0  0  0  0  0  0  0  0  0  0  0
  -24.3696  -36.8624   22.2204 H   0  0  0  0  0  0  0  0  0  0  0  0
  -23.7669  -37.6632   23.6516 H   0  0  0  0  0  0  0  0  0  0  0  0
  -25.9445  -31.6237   20.5691 H   0  0  0  0  0  0  0  0  0  0  0  0
  -26.7436  -31.0079   22.0108 H   0  0  0  0  0  0  0  0  0  0  0  0
  -28.0090  -29.1452   21.2057 H   0  0  0  0  0  0  0  0  0  0  0  0
  -26.1369  -26.0560   19.0719 H   0  0  0  0  0  0  0  0  0  0  0  0
  -24.0652  -27.2961   19.0997 H   0  0  0  0  0  0  0  0  0  0  0  0
  -23.6156  -30.5365   19.3930 H   0  0  0  0  0  0  0  0  0  0  0  0
  -22.7355  -29.1425   19.9945 H   0  0  0  0  0  0  0  0  0  0  0  0
  -25.1353  -36.2335   25.0565 H   0  0  0  0  0  0  0  0  0  0  0  0
  -21.0070  -28.3206   24.0793 H   0  0  0  0  0  0  0  0  0  0  0  0
  -20.5555  -26.2518   23.3550 H   0  0  0  0  0  0  0  0  0  0  0  0
  -21.5974  -26.8362   22.0454 H   0  0  0  0  0  0  0  0  0  0  0  0
  -19.6810  -25.6422   21.1488 H   0  0  0  0  0  0  0  0  0  0  0  0
  -19.6406  -27.3343   20.7034 H   0  0  0  0  0  0  0  0  0  0  0  0
  -17.4282  -26.6888   21.4113 H   0  0  0  0  0  0  0  0  0  0  0  0
  -18.0803  -26.0130   22.9049 H   0  0  0  0  0  0  0  0  0  0  0  0
  -19.7265  -30.6774   24.2204 H   0  0  0  0  0  0  0  0  0  0  0  0
  -17.5064  -31.5856   24.4483 H   0  0  0  0  0  0  0  0  0  0  0  0
  -15.5878  -30.2839   23.7407 H   0  0  0  0  0  0  0  0  0  0  0  0
  -15.9120  -28.0941   22.7766 H   0  0  0  0  0  0  0  0  0  0  0  0
  -24.5787  -30.7757   25.6817 H   0  0  0  0  0  0  0  0  0  0  0  0
  -25.0041  -32.2289   26.5536 H   0  0  0  0  0  0  0  0  0  0  0  0
  -25.8166  -30.7245   26.9138 H   0  0  0  0  0  0  0  0  0  0  0  0
  -26.2892  -29.7335   24.0803 H   0  0  0  0  0  0  0  0  0  0  0  0
  -27.4336  -29.7484   25.4006 H   0  0  0  0  0  0  0  0  0  0  0  0
  -27.8466  -30.4994   23.8779 H   0  0  0  0  0  0  0  0  0  0  0  0
  -27.2251  -33.3632   26.1242 H   0  0  0  0  0  0  0  0  0  0  0  0
  -28.3902  -32.6065   25.0645 H   0  0  0  0  0  0  0  0  0  0  0  0
  -27.9772  -31.8555   26.5872 H   0  0  0  0  0  0  0  0  0  0  0  0
  -28.2744  -38.0016   24.6863 H   0  0  0  0  0  0  0  0  0  0  0  0
  -28.0396  -36.2711   24.7461 H   0  0  0  0  0  0  0  0  0  0  0  0
  -27.1773  -37.3087   25.8564 H   0  0  0  0  0  0  0  0  0  0  0  0
  -20.9627  -29.9365   21.7352 H   0  0  0  0  0  0  0  0  0  0  0  0
  -26.0447  -38.2561   24.0273 H   0  0  0  0  0  0  0  0  0  0  0  0
  -29.0348  -20.5227   18.6774 H   0  0  0  0  0  0  0  0  0  0  0  0
  -25.0210  -20.6745   21.4024 H   0  0  0  0  0  0  0  0  0  0  0  0
  -29.8996  -18.5714   21.3037 H   0  0  0  0  0  0  0  0  0  0  0  0
  -30.4913  -18.9465   19.7030 H   0  0  0  0  0  0  0  0  0  0  0  0
  -30.4103  -17.2849   20.2374 H   0  0  0  0  0  0  0  0  0  0  0  0
  -27.5437  -17.5882   17.8895 H   0  0  0  0  0  0  0  0  0  0  0  0
  -29.0143  -16.7023   18.2143 H   0  0  0  0  0  0  0  0  0  0  0  0
  -29.0953  -18.3639   17.6799 H   0  0  0  0  0  0  0  0  0  0  0  0
  -31.0348  -23.9967   17.4430 H   0  0  0  0  0  0  0  0  0  0  0  0
  -30.6142  -25.6389   17.0197 H   0  0  0  0  0  0  0  0  0  0  0  0
  -29.4529  -24.3534   16.7922 H   0  0  0  0  0  0  0  0  0  0  0  0
  -31.6441  -24.8204   19.7630 H   0  0  0  0  0  0  0  0  0  0  0  0
  -30.4672  -25.7093   20.6998 H   0  0  0  0  0  0  0  0  0  0  0  0
  -31.1888  -26.4383   19.2853 H   0  0  0  0  0  0  0  0  0  0  0  0
  -27.1720  -23.7115   18.6614 H   0  0  0  0  0  0  0  0  0  0  0  0
  -28.2858  -22.7302   17.7140 H   0  0  0  0  0  0  0  0  0  0  0  0
  -29.9575  -22.9054   19.4389 H   0  0  0  0  0  0  0  0  0  0  0  0
  -28.8014  -23.8675   20.4167 H   0  0  0  0  0  0  0  0  0  0  0  0
  -27.6500  -25.4737   18.5868 H   0  0  0  0  0  0  0  0  0  0  0  0
  -28.8245  -26.6963   18.0344 H   0  0  0  0  0  0  0  0  0  0  0  0
  -27.9779  -17.3996   20.3056 H   0  0  0  0  0  0  0  0  0  0  0  0
  -25.2419  -18.1444   21.7984 H   0  0  0  0  0  0  0  0  0  0  0  0
  1 25  1  0
  1 30  2  0
  1 86  1  0
  2  3  1  0
  2 25  1  0
  2 88  1  0
  2 89  1  0
  3  4  1  0
  3 90  1  0
  3 91  1  0
  4  5  1  0
  4 92  1  0
  4 93  1  0
  5  6  1  0
  5 26  1  0
  5 94  1  6
  6 25  1  0
  6 95  1  0
  6 96  1  0
  7  8  2  0
  7 26  1  0
  7 29  1  0
  8  9  1  0
  8 22  1  0
  9 10  1  0
  9 27  2  0
 10 11  2  0
 10 15  1  0
 11 12  1  0
 11 97  1  0
 12 13  2  0
 12 98  1  0
 13 14  1  0
 13 31  1  0
 14 15  2  0
 14 99  1  0
 15100  1  0
 16 17  2  0
 16 21  1  0
 16 31  1  0
 17 18  1  0
 17101  1  0
 18 19  2  0
 18102  1  0
 19 20  1  0
 19 24  1  0
 20 21  2  0
 20103  1  0
 21 23  1  0
 22 28  1  0
 22 32  2  0
 26 27  1  0
 28104  1  0
 28105  1  0
 29106  1  0
 29107  1  0
 33 34  1  0
 33 66  1  0
 33 70  2  0
 34 36  1  0
 34 59  1  0
 34108  1  6
 35 44  2  0
 35 45  1  0
 35 68  1  0
 36 56  1  0
 36109  1  0
 37 39  1  0
 37 47  1  0
 37 66  1  0
 37110  1  6
 38 43  2  0
 38 46  1  0
 38 47  1  0
 39 64  1  0
 39 67  2  0
 40 52  1  0
 40 53  2  0
 40 58  1  0
 41111  1  0
 41112  1  0
 41113  1  0
 42 43  1  0
 42 66  1  0
 42114  1  0
 42115  1  0
 43 44  1  0
 44116  1  0
 45 46  2  0
 45117  1  0
 46118  1  0
 47119  1  0
 47120  1  0
 48 41  1  0
 48 56  1  0
 48 65  1  0
 48121  1  1
 49 50  1  0
 49 53  1  0
 49 64  1  0
 49122  1  1
 50 51  1  0
 50123  1  0
 50124  1  0
 51 52  1  0
 51125  1  0
 51126  1  0
 52127  1  0
 52128  1  0
 53 54  1  0
 54 55  2  0
 54129  1  0
 55 57  1  0
 55130  1  0
 56 69  2  0
 57 58  2  0
 57131  1  0
 58132  1  0
 59 60  1  0
 59 61  1  0
 59 62  1  0
 60133  1  0
 60134  1  0
 60135  1  0
 61136  1  0
 61137  1  0
 61138  1  0
 62139  1  0
 62140  1  0
 62141  1  0
 63 65  1  0
 63142  1  0
 63143  1  0
 63144  1  0
 64145  1  0
 65146  1  0
 68 83  1  0
 71 73  2  0
 71 74  1  0
 71147  1  0
 72 75  2  0
 72 76  1  0
 72148  1  0
 73 75  1  0
 73 84  1  0
 74 76  2  0
 74 81  1  0
 75 86  1  0
 76 87  1  0
 77149  1  0
 77150  1  0
 77151  1  0
 78 84  1  0
 78152  1  0
 78153  1  0
 78154  1  0
 79155  1  0
 79156  1  0
 79157  1  0
 80 85  1  0
 80158  1  0
 80159  1  0
 80160  1  0
 81 82  1  0
 81161  1  0
 81162  1  0
 82 85  1  0
 82163  1  0
 82164  1  0
 83 85  1  0
 83165  1  0
 83166  1  0
 84 77  1  0
 84167  1  0
 85 79  1  0
 86168  1  0
M  ISO  4   1 100  68 101  83 101  86 100
M  END
$$$$
69
     RDKit          3D

154162  0  0  0  0  0  0  0  0999 V2000
  -30.7652  -14.3608   20.6636 C   0  0  0  0  0  0  0  0  0100  0  0
  -30.4392  -12.2669   19.3775 C   0  0  0  0  0  0  0  0  0101  0  0
  -29.4791  -12.5281   18.1977 C   0  0  0  0  0  0  0  0  0102  0  0
  -27.9985  -12.3963   18.6038 C   0  0  0  0  0  0  0  0  0103  0  0
  -27.6639  -13.2170   19.8820 C   0  0  2  0  0  0  0  0  0104  0  0
  -28.6795  -12.9602   21.0279 C   0  0  0  0  0  0  0  0  0105  0  0
  -25.2633  -13.8245   20.5754 C   0  0  0  0  0  0  0  0  0106  0  0
  -24.1645  -13.0409   20.9408 C   0  0  0  0  0  0  0  0  0107  0  0
  -24.6400  -11.7009   20.8697 C   0  0  0  0  0  0  0  0  0108  0  0
  -23.9005  -10.4085   21.0420 C   0  0  0  0  0  0  0  0  0109  0  0
  -24.3588   -9.4123   21.9123 C   0  0  0  0  0  0  0  0  0110  0  0
  -23.6296   -8.2350   22.0803 C   0  0  0  0  0  0  0  0  0111  0  0
  -22.4385   -8.0419   21.3657 C   0  0  0  0  0  0  0  0  0112  0  0
  -22.0103   -9.0167   20.4678 C   0  0  0  0  0  0  0  0  0113  0  0
  -22.7317  -10.1925   20.3102 C   0  0  0  0  0  0  0  0  0114  0  0
  -21.6857   -6.0709   22.5391 C   0  0  0  0  0  0  0  0  0115  0  0
  -21.4064   -6.5490   23.8264 C   0  0  0  0  0  0  0  0  0116  0  0
  -21.3635   -5.6677   24.9085 C   0  0  0  0  0  0  0  0  0117  0  0
  -21.5973   -4.3067   24.7088 C   0  0  0  0  0  0  0  0  0118  0  0
  -21.8700   -3.8284   23.4282 C   0  0  0  0  0  0  0  0  0119  0  0
  -21.9144   -4.7056   22.3460 C   0  0  0  0  0  0  0  0  0120  0  0
  -22.8194  -13.5263   21.1763 C   0  0  0  0  0  0  0  0  0121  0  0
  -22.1559   -4.2206   21.1063 F   0  0  0  0  0  0  0  0  0122  0  0
  -21.5628   -3.4510   25.7555 F   0  0  0  0  0  0  0  0  0123  0  0
  -30.0261  -13.1803   20.4553 N   0  0  0  0  0  0  0  0  0124  0  0
  -26.2911  -12.9356   20.3443 N   0  0  0  0  0  0  0  0  0125  0  0
  -25.9236  -11.6675   20.5847 N   0  0  0  0  0  0  0  0  0126  0  0
  -22.0708  -12.7905   22.0005 N   0  0  0  0  0  0  0  0  0127  0  0
  -25.4117  -15.1773   20.4097 N   0  0  0  0  0  0  0  0  0128  0  0
  -31.7916  -14.6724   20.0536 O   0  0  0  0  0  0  0  0  0129  0  0
  -21.6670   -6.9022   21.4423 O   0  0  0  0  0  0  0  0  0130  0  0
  -22.3946  -14.5564   20.6568 O   0  0  0  0  0  0  0  0  0131  0  0
  -24.6048  -31.8614   23.2223 C   0  0  0  0  0  0  0  0  0100  0  0
  -25.8822  -32.4841   23.8616 C   0  0  1  0  0  0  0  0  0101  0  0
  -27.2536  -27.5042   20.1156 C   0  0  0  0  0  0  0  0  0102  0  0
  -25.5726  -33.8762   24.2210 N   0  0  0  0  0  0  0  0  0103  0  0
  -23.4066  -30.4859   21.5461 C   0  0  2  0  0  0  0  0  0104  0  0
  -24.8467  -28.9636   20.1247 C   0  0  0  0  0  0  0  0  0105  0  0
  -22.7412  -29.4652   22.5052 C   0  0  0  0  0  0  0  0  0106  0  0
  -18.0167  -28.1302   22.8626 C   0  0  0  0  0  0  0  0  0107  0  0
  -24.1342  -36.7390   23.2568 C   0  0  0  0  0  0  0  0  0108  0  0
  -25.9141  -30.8882   21.3456 C   0  0  0  0  0  0  0  0  0109  0  0
  -25.9930  -29.5029   20.7208 C   0  0  0  0  0  0  0  0  0110  0  0
  -27.1758  -28.7612   20.7331 C   0  0  0  0  0  0  0  0  0111  0  0
  -26.1032  -26.9836   19.5230 C   0  0  0  0  0  0  0  0  0112  0  0
  -24.9097  -27.7011   19.5331 C   0  0  0  0  0  0  0  0  0113  0  0
  -23.5715  -29.7899   20.1582 C   0  0  0  0  0  0  0  0  0114  0  0
  -25.3990  -36.3212   24.0232 C   0  0  1  0  0  0  0  0  0115  0  0
  -20.5793  -28.3813   23.1004 C   0  0  2  0  0  0  0  0  0116  0  0
  -20.6548  -26.9392   22.5411 C   0  0  0  0  0  0  0  0  0117  0  0
  -19.5615  -26.6407   21.5143 C   0  0  0  0  0  0  0  0  0118  0  0
  -18.1797  -26.7818   22.1673 C   0  0  0  0  0  0  0  0  0119  0  0
  -19.1385  -28.8769   23.2988 C   0  0  0  0  0  0  0  0  0120  0  0
  -18.9183  -30.1286   23.8878 C   0  0  0  0  0  0  0  0  0121  0  0
  -17.6396  -30.6493   24.0352 C   0  0  0  0  0  0  0  0  0122  0  0
  -25.9153  -34.9582   23.4993 C   0  0  0  0  0  0  0  0  0123  0  0
  -16.5415  -29.9068   23.6254 C   0  0  0  0  0  0  0  0  0124  0  0
  -16.7331  -28.6521   23.0586 C   0  0  0  0  0  0  0  0  0125  0  0
  -26.4583  -31.6439   25.0683 C   0  0  0  0  0  0  0  0  0126  0  0
  -25.3807  -31.3179   26.1374 C   0  0  0  0  0  0  0  0  0127  0  0
  -27.0530  -30.3024   24.5680 C   0  0  0  0  0  0  0  0  0128  0  0
  -27.6014  -32.4281   25.7651 C   0  0  0  0  0  0  0  0  0129  0  0
  -27.5629  -37.2220   24.8621 C   0  0  0  0  0  0  0  0  0130  0  0
  -21.4133  -29.3375   22.3735 N   0  0  0  0  0  0  0  0  0131  0  0
  -26.4706  -37.3372   23.9061 N   0  0  0  0  0  0  0  0  0132  0  0
  -24.6674  -31.0544   22.1178 N   0  0  0  0  0  0  0  0  0133  0  0
  -23.4259  -28.8150   23.2971 O   0  0  0  0  0  0  0  0  0134  0  0
  -28.3948  -26.7345   20.0089 O   0  0  0  0  0  0  0  0  0135  0  0
  -26.5870  -34.9065   22.4671 O   0  0  0  0  0  0  0  0  0136  0  0
  -23.5365  -32.1254   23.7833 O   0  0  0  0  0  0  0  0  0137  0  0
  -30.0385  -17.8905   22.6721 C   0  0  0  0  0  0  0  0  0  0  0  0
  -32.1125  -18.4422   22.0632 C   0  0  0  0  0  0  0  0  0  0  0  0
  -31.0268  -18.8985   22.7739 C   0  0  0  0  0  0  0  0  0  0  0  0
  -30.5906  -16.8902   21.9062 C   0  0  0  0  0  0  0  0  0  0  0  0
  -30.9473  -20.1859   23.4831 C   0  0  0  0  0  0  0  0  0  0  0  0
  -29.8811  -20.6223   24.1721 C   0  0  0  0  0  0  0  0  0  0  0  0
  -30.5887  -21.0133   27.0810 C   0  0  0  0  0  0  0  0  0  0  0  0
  -28.1295  -21.2698   26.6537 C   0  0  0  0  0  0  0  0  0  0  0  0
  -29.8375  -21.9535   24.8763 C   0  0  0  0  0  0  0  0  0  0  0  0
  -29.5172  -21.8582   26.3829 C   0  0  0  0  0  0  0  0  0  1  0  0
  -30.0732  -15.6440   21.4738 N   0  0  0  0  0  0  0  0  0  0  0  0
  -31.8547  -17.2188   21.5310 O   0  0  0  0  0  0  0  0  0  0  0  0
  -31.4485  -12.4701   19.0860 H   0  0  0  0  0  0  0  0  0  0  0  0
  -30.3970  -11.2460   19.6950 H   0  0  0  0  0  0  0  0  0  0  0  0
  -29.6870  -11.8204   17.4226 H   0  0  0  0  0  0  0  0  0  0  0  0
  -29.6375  -13.5326   17.8649 H   0  0  0  0  0  0  0  0  0  0  0  0
  -27.7830  -11.3650   18.7904 H   0  0  0  0  0  0  0  0  0  0  0  0
  -27.4028  -12.7801   17.8021 H   0  0  0  0  0  0  0  0  0  0  0  0
  -27.7353  -14.2503   19.6136 H   0  0  0  0  0  0  0  0  0  0  0  0
  -28.5890  -11.9550   21.3832 H   0  0  0  0  0  0  0  0  0  0  0  0
  -28.5005  -13.6134   21.8562 H   0  0  0  0  0  0  0  0  0  0  0  0
  -25.2399   -9.5495   22.4318 H   0  0  0  0  0  0  0  0  0  0  0  0
  -23.9663   -7.5070   22.7297 H   0  0  0  0  0  0  0  0  0  0  0  0
  -21.1515   -8.8641   19.9162 H   0  0  0  0  0  0  0  0  0  0  0  0
  -22.4016  -10.9115   19.6476 H   0  0  0  0  0  0  0  0  0  0  0  0
  -21.2319   -7.5552   23.9750 H   0  0  0  0  0  0  0  0  0  0  0  0
  -21.1589   -6.0228   25.8556 H   0  0  0  0  0  0  0  0  0  0  0  0
  -22.0396   -2.8212   23.2809 H   0  0  0  0  0  0  0  0  0  0  0  0
  -22.4401  -11.9703   22.4008 H   0  0  0  0  0  0  0  0  0  0  0  0
  -21.1493  -13.0679   22.2082 H   0  0  0  0  0  0  0  0  0  0  0  0
  -24.6538  -15.7807   20.5848 H   0  0  0  0  0  0  0  0  0  0  0  0
  -26.2762  -15.5453   20.1156 H   0  0  0  0  0  0  0  0  0  0  0  0
  -26.6778  -32.4663   23.1464 H   0  0  0  0  0  0  0  0  0  0  0  0
  -25.0747  -34.0282   25.0566 H   0  0  0  0  0  0  0  0  0  0  0  0
  -22.7881  -31.3489   21.4131 H   0  0  0  0  0  0  0  0  0  0  0  0
  -23.3854  -35.9823   23.3648 H   0  0  0  0  0  0  0  0  0  0  0  0
  -24.3696  -36.8624   22.2204 H   0  0  0  0  0  0  0  0  0  0  0  0
  -23.7669  -37.6632   23.6516 H   0  0  0  0  0  0  0  0  0  0  0  0
  -25.9445  -31.6237   20.5691 H   0  0  0  0  0  0  0  0  0  0  0  0
  -26.7436  -31.0079   22.0108 H   0  0  0  0  0  0  0  0  0  0  0  0
  -28.0090  -29.1452   21.2057 H   0  0  0  0  0  0  0  0  0  0  0  0
  -26.1369  -26.0560   19.0719 H   0  0  0  0  0  0  0  0  0  0  0  0
  -24.0652  -27.2961   19.0997 H   0  0  0  0  0  0  0  0  0  0  0  0
  -23.6156  -30.5365   19.3930 H   0  0  0  0  0  0  0  0  0  0  0  0
  -22.7355  -29.1425   19.9945 H   0  0  0  0  0  0  0  0  0  0  0  0
  -25.1353  -36.2335   25.0565 H   0  0  0  0  0  0  0  0  0  0  0  0
  -21.0070  -28.3206   24.0793 H   0  0  0  0  0  0  0  0  0  0  0  0
  -20.5555  -26.2518   23.3550 H   0  0  0  0  0  0  0  0  0  0  0  0
  -21.5974  -26.8362   22.0454 H   0  0  0  0  0  0  0  0  0  0  0  0
  -19.6810  -25.6422   21.1488 H   0  0  0  0  0  0  0  0  0  0  0  0
  -19.6406  -27.3343   20.7034 H   0  0  0  0  0  0  0  0  0  0  0  0
  -17.4282  -26.6888   21.4113 H   0  0  0  0  0  0  0  0  0  0  0  0
  -18.0803  -26.0130   22.9049 H   0  0  0  0  0  0  0  0  0  0  0  0
  -19.7265  -30.6774   24.2204 H   0  0  0  0  0  0  0  0  0  0  0  0
  -17.5064  -31.5856   24.4483 H   0  0  0  0  0  0  0  0  0  0  0  0
  -15.5878  -30.2839   23.7407 H   0  0  0  0  0  0  0  0  0  0  0  0
  -15.9120  -28.0941   22.7766 H   0  0  0  0  0  0  0  0  0  0  0  0
  -24.5787  -30.7757   25.6817 H   0  0  0  0  0  0  0  0  0  0  0  0
  -25.0041  -32.2289   26.5536 H   0  0  0  0  0  0  0  0  0  0  0  0
  -25.8166  -30.7245   26.9138 H   0  0  0  0  0  0  0  0  0  0  0  0
  -26.2892  -29.7335   24.0803 H   0  0  0  0  0  0  0  0  0  0  0  0
  -27.4336  -29.7484   25.4006 H   0  0  0  0  0  0  0  0  0  0  0  0
  -27.8466  -30.4994   23.8779 H   0  0  0  0  0  0  0  0  0  0  0  0
  -27.2251  -33.3632   26.1242 H   0  0  0  0  0  0  0  0  0  0  0  0
  -28.3902  -32.6065   25.0645 H   0  0  0  0  0  0  0  0  0  0  0  0
  -27.9772  -31.8555   26.5872 H   0  0  0  0  0  0  0  0  0  0  0  0
  -28.2744  -38.0016   24.6863 H   0  0  0  0  0  0  0  0  0  0  0  0
  -28.0396  -36.2711   24.7461 H   0  0  0  0  0  0  0  0  0  0  0  0
  -27.1773  -37.3087   25.8564 H   0  0  0  0  0  0  0  0  0  0  0  0
  -20.9627  -29.9365   21.7352 H   0  0  0  0  0  0  0  0  0  0  0  0
  -26.0447  -38.2561   24.0273 H   0  0  0  0  0  0  0  0  0  0  0  0
  -29.0943  -17.9034   23.0884 H   0  0  0  0  0  0  0  0  0  0  0  0
  -32.9995  -18.9574   21.9499 H   0  0  0  0  0  0  0  0  0  0  0  0
  -31.7755  -20.8007   23.4479 H   0  0  0  0  0  0  0  0  0  0  0  0
  -29.0484  -20.0147   24.2220 H   0  0  0  0  0  0  0  0  0  0  0  0
  -30.1654  -20.5420   27.9434 H   0  0  0  0  0  0  0  0  0  0  0  0
  -31.4001  -21.6431   27.3809 H   0  0  0  0  0  0  0  0  0  0  0  0
  -30.9485  -20.2650   26.4061 H   0  0  0  0  0  0  0  0  0  0  0  0
  -28.1812  -20.6045   27.4901 H   0  0  0  0  0  0  0  0  0  0  0  0
  -27.7953  -20.7326   25.7908 H   0  0  0  0  0  0  0  0  0  0  0  0
  -27.4424  -22.0612   26.8694 H   0  0  0  0  0  0  0  0  0  0  0  0
  -29.0859  -22.5559   24.4103 H   0  0  0  0  0  0  0  0  0  0  0  0
  -30.8162  -22.3782   24.7948 H   0  0  0  0  0  0  0  0  0  0  0  0
  -29.1230  -15.5098   21.6938 H   0  0  0  0  0  0  0  0  0  0  0  0
  1 25  1  0
  1 30  2  0
  1 81  1  0
  2  3  1  0
  2 25  1  0
  2 83  1  0
  2 84  1  0
  3  4  1  0
  3 85  1  0
  3 86  1  0
  4  5  1  0
  4 87  1  0
  4 88  1  0
  5  6  1  0
  5 26  1  0
  5 89  1  6
  6 25  1  0
  6 90  1  0
  6 91  1  0
  7  8  2  0
  7 26  1  0
  7 29  1  0
  8  9  1  0
  8 22  1  0
  9 10  1  0
  9 27  2  0
 10 11  2  0
 10 15  1  0
 11 12  1  0
 11 92  1  0
 12 13  2  0
 12 93  1  0
 13 14  1  0
 13 31  1  0
 14 15  2  0
 14 94  1  0
 15 95  1  0
 16 17  2  0
 16 21  1  0
 16 31  1  0
 17 18  1  0
 17 96  1  0
 18 19  2  0
 18 97  1  0
 19 20  1  0
 19 24  1  0
 20 21  2  0
 20 98  1  0
 21 23  1  0
 22 28  1  0
 22 32  2  0
 26 27  1  0
 28 99  1  0
 28100  1  0
 29101  1  0
 29102  1  0
 33 34  1  0
 33 66  1  0
 33 70  2  0
 34 36  1  0
 34 59  1  0
 34103  1  6
 35 44  2  0
 35 45  1  0
 35 68  1  0
 36 56  1  0
 36104  1  0
 37 39  1  0
 37 47  1  0
 37 66  1  0
 37105  1  6
 38 43  2  0
 38 46  1  0
 38 47  1  0
 39 64  1  0
 39 67  2  0
 40 52  1  0
 40 53  2  0
 40 58  1  0
 41106  1  0
 41107  1  0
 41108  1  0
 42 43  1  0
 42 66  1  0
 42109  1  0
 42110  1  0
 43 44  1  0
 44111  1  0
 45 46  2  0
 45112  1  0
 46113  1  0
 47114  1  0
 47115  1  0
 48 41  1  0
 48 56  1  0
 48 65  1  0
 48116  1  1
 49 50  1  0
 49 53  1  0
 49 64  1  0
 49117  1  1
 50 51  1  0
 50118  1  0
 50119  1  0
 51 52  1  0
 51120  1  0
 51121  1  0
 52122  1  0
 52123  1  0
 53 54  1  0
 54 55  2  0
 54124  1  0
 55 57  1  0
 55125  1  0
 56 69  2  0
 57 58  2  0
 57126  1  0
 58127  1  0
 59 60  1  0
 59 61  1  0
 59 62  1  0
 60128  1  0
 60129  1  0
 60130  1  0
 61131  1  0
 61132  1  0
 61133  1  0
 62134  1  0
 62135  1  0
 62136  1  0
 63 65  1  0
 63137  1  0
 63138  1  0
 63139  1  0
 64140  1  0
 65141  1  0
 68 80  1  0
 71 73  1  0
 71 74  2  0
 71142  1  0
 72 73  2  0
 72 82  1  0
 72143  1  0
 73 75  1  0
 74 81  1  0
 74 82  1  0
 75 76  2  0
 75144  1  0
 76 79  1  0
 76145  1  0
 77146  1  0
 77147  1  0
 77148  1  0
 78 80  1  0
 78149  1  0
 78150  1  0
 78151  1  0
 79 80  1  0
 79152  1  0
 79153  1  0
 80 77  1  0
 81154  1  0
M  ISO  4   1 100  68 101  80 101  81 100
M  END
$$$$
70
     RDKit          3D

171179  0  0  0  0  0  0  0  0999 V2000
  -30.7652  -14.3608   20.6636 C   0  0  0  0  0  0  0  0  0100  0  0
  -30.4392  -12.2669   19.3775 C   0  0  0  0  0  0  0  0  0101  0  0
  -29.4791  -12.5281   18.1977 C   0  0  0  0  0  0  0  0  0102  0  0
  -27.9985  -12.3963   18.6038 C   0  0  0  0  0  0  0  0  0103  0  0
  -27.6639  -13.2170   19.8820 C   0  0  2  0  0  0  0  0  0104  0  0
  -28.6795  -12.9602   21.0279 C   0  0  0  0  0  0  0  0  0105  0  0
  -25.2633  -13.8245   20.5754 C   0  0  0  0  0  0  0  0  0106  0  0
  -24.1645  -13.0409   20.9408 C   0  0  0  0  0  0  0  0  0107  0  0
  -24.6400  -11.7009   20.8697 C   0  0  0  0  0  0  0  0  0108  0  0
  -23.9005  -10.4085   21.0420 C   0  0  0  0  0  0  0  0  0109  0  0
  -24.3588   -9.4123   21.9123 C   0  0  0  0  0  0  0  0  0110  0  0
  -23.6296   -8.2350   22.0803 C   0  0  0  0  0  0  0  0  0111  0  0
  -22.4385   -8.0419   21.3657 C   0  0  0  0  0  0  0  0  0112  0  0
  -22.0103   -9.0167   20.4678 C   0  0  0  0  0  0  0  0  0113  0  0
  -22.7317  -10.1925   20.3102 C   0  0  0  0  0  0  0  0  0114  0  0
  -21.6857   -6.0709   22.5391 C   0  0  0  0  0  0  0  0  0115  0  0
  -21.4064   -6.5490   23.8264 C   0  0  0  0  0  0  0  0  0116  0  0
  -21.3635   -5.6677   24.9085 C   0  0  0  0  0  0  0  0  0117  0  0
  -21.5973   -4.3067   24.7088 C   0  0  0  0  0  0  0  0  0118  0  0
  -21.8700   -3.8284   23.4282 C   0  0  0  0  0  0  0  0  0119  0  0
  -21.9144   -4.7056   22.3460 C   0  0  0  0  0  0  0  0  0120  0  0
  -22.8194  -13.5263   21.1763 C   0  0  0  0  0  0  0  0  0121  0  0
  -22.1559   -4.2206   21.1063 F   0  0  0  0  0  0  0  0  0122  0  0
  -21.5628   -3.4510   25.7555 F   0  0  0  0  0  0  0  0  0123  0  0
  -30.0261  -13.1803   20.4553 N   0  0  0  0  0  0  0  0  0124  0  0
  -26.2911  -12.9356   20.3443 N   0  0  0  0  0  0  0  0  0125  0  0
  -25.9236  -11.6675   20.5847 N   0  0  0  0  0  0  0  0  0126  0  0
  -22.0708  -12.7905   22.0005 N   0  0  0  0  0  0  0  0  0127  0  0
  -25.4117  -15.1773   20.4097 N   0  0  0  0  0  0  0  0  0128  0  0
  -31.7916  -14.6724   20.0536 O   0  0  0  0  0  0  0  0  0129  0  0
  -21.6670   -6.9022   21.4423 O   0  0  0  0  0  0  0  0  0130  0  0
  -22.3946  -14.5564   20.6568 O   0  0  0  0  0  0  0  0  0131  0  0
  -24.6048  -31.8614   23.2223 C   0  0  0  0  0  0  0  0  0100  0  0
  -25.8822  -32.4841   23.8616 C   0  0  1  0  0  0  0  0  0101  0  0
  -27.2536  -27.5042   20.1156 C   0  0  0  0  0  0  0  0  0102  0  0
  -25.5726  -33.8762   24.2210 N   0  0  0  0  0  0  0  0  0103  0  0
  -23.4066  -30.4859   21.5461 C   0  0  2  0  0  0  0  0  0104  0  0
  -24.8467  -28.9636   20.1247 C   0  0  0  0  0  0  0  0  0105  0  0
  -22.7412  -29.4652   22.5052 C   0  0  0  0  0  0  0  0  0106  0  0
  -18.0167  -28.1302   22.8626 C   0  0  0  0  0  0  0  0  0107  0  0
  -24.1342  -36.7390   23.2568 C   0  0  0  0  0  0  0  0  0108  0  0
  -25.9141  -30.8882   21.3456 C   0  0  0  0  0  0  0  0  0109  0  0
  -25.9930  -29.5029   20.7208 C   0  0  0  0  0  0  0  0  0110  0  0
  -27.1758  -28.7612   20.7331 C   0  0  0  0  0  0  0  0  0111  0  0
  -26.1032  -26.9836   19.5230 C   0  0  0  0  0  0  0  0  0112  0  0
  -24.9097  -27.7011   19.5331 C   0  0  0  0  0  0  0  0  0113  0  0
  -23.5715  -29.7899   20.1582 C   0  0  0  0  0  0  0  0  0114  0  0
  -25.3990  -36.3212   24.0232 C   0  0  1  0  0  0  0  0  0115  0  0
  -20.5793  -28.3813   23.1004 C   0  0  2  0  0  0  0  0  0116  0  0
  -20.6548  -26.9392   22.5411 C   0  0  0  0  0  0  0  0  0117  0  0
  -19.5615  -26.6407   21.5143 C   0  0  0  0  0  0  0  0  0118  0  0
  -18.1797  -26.7818   22.1673 C   0  0  0  0  0  0  0  0  0119  0  0
  -19.1385  -28.8769   23.2988 C   0  0  0  0  0  0  0  0  0120  0  0
  -18.9183  -30.1286   23.8878 C   0  0  0  0  0  0  0  0  0121  0  0
  -17.6396  -30.6493   24.0352 C   0  0  0  0  0  0  0  0  0122  0  0
  -25.9153  -34.9582   23.4993 C   0  0  0  0  0  0  0  0  0123  0  0
  -16.5415  -29.9068   23.6254 C   0  0  0  0  0  0  0  0  0124  0  0
  -16.7331  -28.6521   23.0586 C   0  0  0  0  0  0  0  0  0125  0  0
  -26.4583  -31.6439   25.0683 C   0  0  0  0  0  0  0  0  0126  0  0
  -25.3807  -31.3179   26.1374 C   0  0  0  0  0  0  0  0  0127  0  0
  -27.0530  -30.3024   24.5680 C   0  0  0  0  0  0  0  0  0128  0  0
  -27.6014  -32.4281   25.7651 C   0  0  0  0  0  0  0  0  0129  0  0
  -27.5629  -37.2220   24.8621 C   0  0  0  0  0  0  0  0  0130  0  0
  -21.4133  -29.3375   22.3735 N   0  0  0  0  0  0  0  0  0131  0  0
  -26.4706  -37.3372   23.9061 N   0  0  0  0  0  0  0  0  0132  0  0
  -24.6674  -31.0544   22.1178 N   0  0  0  0  0  0  0  0  0133  0  0
  -23.4259  -28.8150   23.2971 O   0  0  0  0  0  0  0  0  0134  0  0
  -28.3948  -26.7345   20.0089 O   0  0  0  0  0  0  0  0  0135  0  0
  -26.5870  -34.9065   22.4671 O   0  0  0  0  0  0  0  0  0136  0  0
  -23.5365  -32.1254   23.7833 O   0  0  0  0  0  0  0  0  0137  0  0
  -26.0626  -23.2154   23.5277 C   0  0  0  0  0  0  0  0  0  0  0  0
  -26.8288  -22.4568   22.6429 C   0  0  0  0  0  0  0  0  0  0  0  0
  -24.0539  -22.1727   22.6822 C   0  0  0  0  0  0  0  0  0  0  0  0
  -24.6751  -23.0734   23.5474 C   0  0  0  0  0  0  0  0  0  0  0  0
  -24.8201  -21.4141   21.7974 C   0  0  0  0  0  0  0  0  0  0  0  0
  -26.2076  -21.5561   21.7777 C   0  0  0  0  0  0  0  0  0  0  0  0
  -22.4782  -24.2373   24.0711 C   0  0  0  0  0  0  0  0  0  0  0  0
  -21.5182  -24.3945   24.9941 C   0  0  0  0  0  0  0  0  0  0  0  0
  -23.8609  -23.8808   24.4873 C   0  0  0  0  0  0  0  0  0  0  0  0
  -24.0271  -20.9920   19.4566 C   0  0  0  0  0  0  0  0  0  0  0  0
  -19.1996  -23.5530   25.0299 C   0  0  0  0  0  0  0  0  0  0  0  0
  -18.1584  -26.4106   24.8556 C   0  0  0  0  0  0  0  0  0  0  0  0
  -19.6830  -26.1231   26.8136 C   0  0  0  0  0  0  0  0  0  0  0  0
  -24.1284  -20.4571   20.8815 C   0  0  0  0  0  0  0  0  0  0  0  0
  -20.5037  -27.2908   24.7610 C   0  0  0  0  0  0  0  0  0  1  0  0
  -20.0843  -24.7501   24.6498 C   0  0  1  0  0  0  0  0  0  0  0  0
  -19.6195  -26.1209   25.2721 C   0  0  0  0  0  0  0  0  0  0  0  0
  -27.0034  -20.7947   20.8862 N   0  0  0  0  0  0  0  0  0  0  0  0
  -24.3280  -24.2070   25.5728 O   0  0  0  0  0  0  0  0  0  0  0  0
  -31.4485  -12.4701   19.0860 H   0  0  0  0  0  0  0  0  0  0  0  0
  -30.3970  -11.2460   19.6950 H   0  0  0  0  0  0  0  0  0  0  0  0
  -29.6870  -11.8204   17.4226 H   0  0  0  0  0  0  0  0  0  0  0  0
  -29.6375  -13.5326   17.8649 H   0  0  0  0  0  0  0  0  0  0  0  0
  -27.7830  -11.3650   18.7904 H   0  0  0  0  0  0  0  0  0  0  0  0
  -27.4028  -12.7801   17.8021 H   0  0  0  0  0  0  0  0  0  0  0  0
  -27.7353  -14.2503   19.6136 H   0  0  0  0  0  0  0  0  0  0  0  0
  -28.5890  -11.9550   21.3832 H   0  0  0  0  0  0  0  0  0  0  0  0
  -28.5005  -13.6134   21.8562 H   0  0  0  0  0  0  0  0  0  0  0  0
  -25.2399   -9.5495   22.4318 H   0  0  0  0  0  0  0  0  0  0  0  0
  -23.9663   -7.5070   22.7297 H   0  0  0  0  0  0  0  0  0  0  0  0
  -21.1515   -8.8641   19.9162 H   0  0  0  0  0  0  0  0  0  0  0  0
  -22.4016  -10.9115   19.6476 H   0  0  0  0  0  0  0  0  0  0  0  0
  -21.2319   -7.5552   23.9750 H   0  0  0  0  0  0  0  0  0  0  0  0
  -21.1589   -6.0228   25.8556 H   0  0  0  0  0  0  0  0  0  0  0  0
  -22.0396   -2.8212   23.2809 H   0  0  0  0  0  0  0  0  0  0  0  0
  -22.4401  -11.9703   22.4008 H   0  0  0  0  0  0  0  0  0  0  0  0
  -21.1493  -13.0679   22.2082 H   0  0  0  0  0  0  0  0  0  0  0  0
  -24.6538  -15.7807   20.5848 H   0  0  0  0  0  0  0  0  0  0  0  0
  -26.2762  -15.5453   20.1156 H   0  0  0  0  0  0  0  0  0  0  0  0
  -26.6778  -32.4663   23.1464 H   0  0  0  0  0  0  0  0  0  0  0  0
  -25.0747  -34.0282   25.0566 H   0  0  0  0  0  0  0  0  0  0  0  0
  -22.7881  -31.3489   21.4131 H   0  0  0  0  0  0  0  0  0  0  0  0
  -23.3854  -35.9823   23.3648 H   0  0  0  0  0  0  0  0  0  0  0  0
  -24.3696  -36.8624   22.2204 H   0  0  0  0  0  0  0  0  0  0  0  0
  -23.7669  -37.6632   23.6516 H   0  0  0  0  0  0  0  0  0  0  0  0
  -25.9445  -31.6237   20.5691 H   0  0  0  0  0  0  0  0  0  0  0  0
  -26.7436  -31.0079   22.0108 H   0  0  0  0  0  0  0  0  0  0  0  0
  -28.0090  -29.1452   21.2057 H   0  0  0  0  0  0  0  0  0  0  0  0
  -26.1369  -26.0560   19.0719 H   0  0  0  0  0  0  0  0  0  0  0  0
  -24.0652  -27.2961   19.0997 H   0  0  0  0  0  0  0  0  0  0  0  0
  -23.6156  -30.5365   19.3930 H   0  0  0  0  0  0  0  0  0  0  0  0
  -22.7355  -29.1425   19.9945 H   0  0  0  0  0  0  0  0  0  0  0  0
  -25.1353  -36.2335   25.0565 H   0  0  0  0  0  0  0  0  0  0  0  0
  -21.0070  -28.3206   24.0793 H   0  0  0  0  0  0  0  0  0  0  0  0
  -20.5555  -26.2518   23.3550 H   0  0  0  0  0  0  0  0  0  0  0  0
  -21.5974  -26.8362   22.0454 H   0  0  0  0  0  0  0  0  0  0  0  0
  -19.6810  -25.6422   21.1488 H   0  0  0  0  0  0  0  0  0  0  0  0
  -19.6406  -27.3343   20.7034 H   0  0  0  0  0  0  0  0  0  0  0  0
  -17.4282  -26.6888   21.4113 H   0  0  0  0  0  0  0  0  0  0  0  0
  -18.0803  -26.0130   22.9049 H   0  0  0  0  0  0  0  0  0  0  0  0
  -19.7265  -30.6774   24.2204 H   0  0  0  0  0  0  0  0  0  0  0  0
  -17.5064  -31.5856   24.4483 H   0  0  0  0  0  0  0  0  0  0  0  0
  -15.5878  -30.2839   23.7407 H   0  0  0  0  0  0  0  0  0  0  0  0
  -15.9120  -28.0941   22.7766 H   0  0  0  0  0  0  0  0  0  0  0  0
  -24.5787  -30.7757   25.6817 H   0  0  0  0  0  0  0  0  0  0  0  0
  -25.0041  -32.2289   26.5536 H   0  0  0  0  0  0  0  0  0  0  0  0
  -25.8166  -30.7245   26.9138 H   0  0  0  0  0  0  0  0  0  0  0  0
  -26.2892  -29.7335   24.0803 H   0  0  0  0  0  0  0  0  0  0  0  0
  -27.4336  -29.7484   25.4006 H   0  0  0  0  0  0  0  0  0  0  0  0
  -27.8466  -30.4994   23.8779 H   0  0  0  0  0  0  0  0  0  0  0  0
  -27.2251  -33.3632   26.1242 H   0  0  0  0  0  0  0  0  0  0  0  0
  -28.3902  -32.6065   25.0645 H   0  0  0  0  0  0  0  0  0  0  0  0
  -27.9772  -31.8555   26.5872 H   0  0  0  0  0  0  0  0  0  0  0  0
  -28.2744  -38.0016   24.6863 H   0  0  0  0  0  0  0  0  0  0  0  0
  -28.0396  -36.2711   24.7461 H   0  0  0  0  0  0  0  0  0  0  0  0
  -27.1773  -37.3087   25.8564 H   0  0  0  0  0  0  0  0  0  0  0  0
  -20.9627  -29.9365   21.7352 H   0  0  0  0  0  0  0  0  0  0  0  0
  -26.0447  -38.2561   24.0273 H   0  0  0  0  0  0  0  0  0  0  0  0
  -26.5222  -23.8818   24.1678 H   0  0  0  0  0  0  0  0  0  0  0  0
  -27.8553  -22.5619   22.6283 H   0  0  0  0  0  0  0  0  0  0  0  0
  -23.0274  -22.0676   22.6968 H   0  0  0  0  0  0  0  0  0  0  0  0
  -22.2574  -24.3638   23.0710 H   0  0  0  0  0  0  0  0  0  0  0  0
  -21.7672  -24.2673   25.9875 H   0  0  0  0  0  0  0  0  0  0  0  0
  -23.5263  -20.2743   18.8410 H   0  0  0  0  0  0  0  0  0  0  0  0
  -25.0095  -21.1687   19.0713 H   0  0  0  0  0  0  0  0  0  0  0  0
  -23.4744  -21.9082   19.4580 H   0  0  0  0  0  0  0  0  0  0  0  0
  -19.5820  -22.6663   24.5689 H   0  0  0  0  0  0  0  0  0  0  0  0
  -18.1993  -23.7274   24.6925 H   0  0  0  0  0  0  0  0  0  0  0  0
  -19.2014  -23.4315   26.0930 H   0  0  0  0  0  0  0  0  0  0  0  0
  -17.8447  -27.3418   25.2792 H   0  0  0  0  0  0  0  0  0  0  0  0
  -17.5240  -25.6255   25.2107 H   0  0  0  0  0  0  0  0  0  0  0  0
  -18.0957  -26.4649   23.7888 H   0  0  0  0  0  0  0  0  0  0  0  0
  -19.3581  -27.0735   27.1826 H   0  0  0  0  0  0  0  0  0  0  0  0
  -20.6893  -25.9429   27.1294 H   0  0  0  0  0  0  0  0  0  0  0  0
  -19.0456  -25.3544   27.1979 H   0  0  0  0  0  0  0  0  0  0  0  0
  -23.1411  -20.2776   21.2529 H   0  0  0  0  0  0  0  0  0  0  0  0
  -24.7045  -19.5559   20.8532 H   0  0  0  0  0  0  0  0  0  0  0  0
  -20.7536  -27.8476   25.6399 H   0  0  0  0  0  0  0  0  0  0  0  0
  -19.8662  -27.6508   23.9807 H   0  0  0  0  0  0  0  0  0  0  0  0
  -19.9943  -24.9239   23.5978 H   0  0  0  0  0  0  0  0  0  0  0  0
  -27.0855  -21.2630   20.0241 H   0  0  0  0  0  0  0  0  0  0  0  0
  1 25  1  0
  1 30  2  0
  1 88  1  0
  2  3  1  0
  2 25  1  0
  2 90  1  0
  2 91  1  0
  3  4  1  0
  3 92  1  0
  3 93  1  0
  4  5  1  0
  4 94  1  0
  4 95  1  0
  5  6  1  0
  5 26  1  0
  5 96  1  6
  6 25  1  0
  6 97  1  0
  6 98  1  0
  7  8  2  0
  7 26  1  0
  7 29  1  0
  8  9  1  0
  8 22  1  0
  9 10  1  0
  9 27  2  0
 10 11  2  0
 10 15  1  0
 11 12  1  0
 11 99  1  0
 12 13  2  0
 12100  1  0
 13 14  1  0
 13 31  1  0
 14 15  2  0
 14101  1  0
 15102  1  0
 16 17  2  0
 16 21  1  0
 16 31  1  0
 17 18  1  0
 17103  1  0
 18 19  2  0
 18104  1  0
 19 20  1  0
 19 24  1  0
 20 21  2  0
 20105  1  0
 21 23  1  0
 22 28  1  0
 22 32  2  0
 26 27  1  0
 28106  1  0
 28107  1  0
 29108  1  0
 29109  1  0
 33 34  1  0
 33 66  1  0
 33 70  2  0
 34 36  1  0
 34 59  1  0
 34110  1  6
 35 44  2  0
 35 45  1  0
 35 68  1  0
 36 56  1  0
 36111  1  0
 37 39  1  0
 37 47  1  0
 37 66  1  0
 37112  1  6
 38 43  2  0
 38 46  1  0
 38 47  1  0
 39 64  1  0
 39 67  2  0
 40 52  1  0
 40 53  2  0
 40 58  1  0
 41113  1  0
 41114  1  0
 41115  1  0
 42 43  1  0
 42 66  1  0
 42116  1  0
 42117  1  0
 43 44  1  0
 44118  1  0
 45 46  2  0
 45119  1  0
 46120  1  0
 47121  1  0
 47122  1  0
 48 41  1  0
 48 56  1  0
 48 65  1  0
 48123  1  1
 49 50  1  0
 49 53  1  0
 49 64  1  0
 49124  1  1
 50 51  1  0
 50125  1  0
 50126  1  0
 51 52  1  0
 51127  1  0
 51128  1  0
 52129  1  0
 52130  1  0
 53 54  1  0
 54 55  2  0
 54131  1  0
 55 57  1  0
 55132  1  0
 56 69  2  0
 57 58  2  0
 57133  1  0
 58134  1  0
 59 60  1  0
 59 61  1  0
 59 62  1  0
 60135  1  0
 60136  1  0
 60137  1  0
 61138  1  0
 61139  1  0
 61140  1  0
 62141  1  0
 62142  1  0
 62143  1  0
 63 65  1  0
 63144  1  0
 63145  1  0
 63146  1  0
 64147  1  0
 65148  1  0
 68 85  1  0
 71 72  2  0
 71 74  1  0
 71149  1  0
 72 76  1  0
 72150  1  0
 73 74  2  0
 73 75  1  0
 73151  1  0
 74 79  1  0
 75 76  2  0
 75 84  1  0
 76 88  1  0
 77 78  2  0
 77 79  1  0
 77152  1  0
 78 86  1  0
 78153  1  0
 79 89  2  0
 80 84  1  0
 80154  1  0
 80155  1  0
 80156  1  0
 81157  1  0
 81158  1  0
 81159  1  0
 82160  1  0
 82161  1  0
 82162  1  0
 83 87  1  0
 83163  1  0
 83164  1  0
 83165  1  0
 84166  1  0
 84167  1  0
 85 87  1  0
 85168  1  0
 85169  1  0
 86 81  1  0
 86 87  1  0
 86170  1  6
 87 82  1  0
 88171  1  0
M  ISO  4   1 100  68 101  85 101  88 100
M  END
$$$$
71
     RDKit          3D

158166  0  0  0  0  0  0  0  0999 V2000
  -30.7652  -14.3608   20.6636 C   0  0  0  0  0  0  0  0  0100  0  0
  -30.4392  -12.2669   19.3775 C   0  0  0  0  0  0  0  0  0101  0  0
  -29.4791  -12.5281   18.1977 C   0  0  0  0  0  0  0  0  0102  0  0
  -27.9985  -12.3963   18.6038 C   0  0  0  0  0  0  0  0  0103  0  0
  -27.6639  -13.2170   19.8820 C   0  0  2  0  0  0  0  0  0104  0  0
  -28.6795  -12.9602   21.0279 C   0  0  0  0  0  0  0  0  0105  0  0
  -25.2633  -13.8245   20.5754 C   0  0  0  0  0  0  0  0  0106  0  0
  -24.1645  -13.0409   20.9408 C   0  0  0  0  0  0  0  0  0107  0  0
  -24.6400  -11.7009   20.8697 C   0  0  0  0  0  0  0  0  0108  0  0
  -23.9005  -10.4085   21.0420 C   0  0  0  0  0  0  0  0  0109  0  0
  -24.3588   -9.4123   21.9123 C   0  0  0  0  0  0  0  0  0110  0  0
  -23.6296   -8.2350   22.0803 C   0  0  0  0  0  0  0  0  0111  0  0
  -22.4385   -8.0419   21.3657 C   0  0  0  0  0  0  0  0  0112  0  0
  -22.0103   -9.0167   20.4678 C   0  0  0  0  0  0  0  0  0113  0  0
  -22.7317  -10.1925   20.3102 C   0  0  0  0  0  0  0  0  0114  0  0
  -21.6857   -6.0709   22.5391 C   0  0  0  0  0  0  0  0  0115  0  0
  -21.4064   -6.5490   23.8264 C   0  0  0  0  0  0  0  0  0116  0  0
  -21.3635   -5.6677   24.9085 C   0  0  0  0  0  0  0  0  0117  0  0
  -21.5973   -4.3067   24.7088 C   0  0  0  0  0  0  0  0  0118  0  0
  -21.8700   -3.8284   23.4282 C   0  0  0  0  0  0  0  0  0119  0  0
  -21.9144   -4.7056   22.3460 C   0  0  0  0  0  0  0  0  0120  0  0
  -22.8194  -13.5263   21.1763 C   0  0  0  0  0  0  0  0  0121  0  0
  -22.1559   -4.2206   21.1063 F   0  0  0  0  0  0  0  0  0122  0  0
  -21.5628   -3.4510   25.7555 F   0  0  0  0  0  0  0  0  0123  0  0
  -30.0261  -13.1803   20.4553 N   0  0  0  0  0  0  0  0  0124  0  0
  -26.2911  -12.9356   20.3443 N   0  0  0  0  0  0  0  0  0125  0  0
  -25.9236  -11.6675   20.5847 N   0  0  0  0  0  0  0  0  0126  0  0
  -22.0708  -12.7905   22.0005 N   0  0  0  0  0  0  0  0  0127  0  0
  -25.4117  -15.1773   20.4097 N   0  0  0  0  0  0  0  0  0128  0  0
  -31.7916  -14.6724   20.0536 O   0  0  0  0  0  0  0  0  0129  0  0
  -21.6670   -6.9022   21.4423 O   0  0  0  0  0  0  0  0  0130  0  0
  -22.3946  -14.5564   20.6568 O   0  0  0  0  0  0  0  0  0131  0  0
  -24.6048  -31.8614   23.2223 C   0  0  0  0  0  0  0  0  0100  0  0
  -25.8822  -32.4841   23.8616 C   0  0  1  0  0  0  0  0  0101  0  0
  -27.2536  -27.5042   20.1156 C   0  0  0  0  0  0  0  0  0102  0  0
  -25.5726  -33.8762   24.2210 N   0  0  0  0  0  0  0  0  0103  0  0
  -23.4066  -30.4859   21.5461 C   0  0  2  0  0  0  0  0  0104  0  0
  -24.8467  -28.9636   20.1247 C   0  0  0  0  0  0  0  0  0105  0  0
  -22.7412  -29.4652   22.5052 C   0  0  0  0  0  0  0  0  0106  0  0
  -18.0167  -28.1302   22.8626 C   0  0  0  0  0  0  0  0  0107  0  0
  -24.1342  -36.7390   23.2568 C   0  0  0  0  0  0  0  0  0108  0  0
  -25.9141  -30.8882   21.3456 C   0  0  0  0  0  0  0  0  0109  0  0
  -25.9930  -29.5029   20.7208 C   0  0  0  0  0  0  0  0  0110  0  0
  -27.1758  -28.7612   20.7331 C   0  0  0  0  0  0  0  0  0111  0  0
  -26.1032  -26.9836   19.5230 C   0  0  0  0  0  0  0  0  0112  0  0
  -24.9097  -27.7011   19.5331 C   0  0  0  0  0  0  0  0  0113  0  0
  -23.5715  -29.7899   20.1582 C   0  0  0  0  0  0  0  0  0114  0  0
  -25.3990  -36.3212   24.0232 C   0  0  1  0  0  0  0  0  0115  0  0
  -20.5793  -28.3813   23.1004 C   0  0  2  0  0  0  0  0  0116  0  0
  -20.6548  -26.9392   22.5411 C   0  0  0  0  0  0  0  0  0117  0  0
  -19.5615  -26.6407   21.5143 C   0  0  0  0  0  0  0  0  0118  0  0
  -18.1797  -26.7818   22.1673 C   0  0  0  0  0  0  0  0  0119  0  0
  -19.1385  -28.8769   23.2988 C   0  0  0  0  0  0  0  0  0120  0  0
  -18.9183  -30.1286   23.8878 C   0  0  0  0  0  0  0  0  0121  0  0
  -17.6396  -30.6493   24.0352 C   0  0  0  0  0  0  0  0  0122  0  0
  -25.9153  -34.9582   23.4993 C   0  0  0  0  0  0  0  0  0123  0  0
  -16.5415  -29.9068   23.6254 C   0  0  0  0  0  0  0  0  0124  0  0
  -16.7331  -28.6521   23.0586 C   0  0  0  0  0  0  0  0  0125  0  0
  -26.4583  -31.6439   25.0683 C   0  0  0  0  0  0  0  0  0126  0  0
  -25.3807  -31.3179   26.1374 C   0  0  0  0  0  0  0  0  0127  0  0
  -27.0530  -30.3024   24.5680 C   0  0  0  0  0  0  0  0  0128  0  0
  -27.6014  -32.4281   25.7651 C   0  0  0  0  0  0  0  0  0129  0  0
  -27.5629  -37.2220   24.8621 C   0  0  0  0  0  0  0  0  0130  0  0
  -21.4133  -29.3375   22.3735 N   0  0  0  0  0  0  0  0  0131  0  0
  -26.4706  -37.3372   23.9061 N   0  0  0  0  0  0  0  0  0132  0  0
  -24.6674  -31.0544   22.1178 N   0  0  0  0  0  0  0  0  0133  0  0
  -23.4259  -28.8150   23.2971 O   0  0  0  0  0  0  0  0  0134  0  0
  -28.3948  -26.7345   20.0089 O   0  0  0  0  0  0  0  0  0135  0  0
  -26.5870  -34.9065   22.4671 O   0  0  0  0  0  0  0  0  0136  0  0
  -23.5365  -32.1254   23.7833 O   0  0  0  0  0  0  0  0  0137  0  0
  -31.3075  -14.4993   26.2365 C   0  0  0  0  0  0  0  0  0  0  0  0
  -32.0720  -14.4980   24.0416 C   0  0  0  0  0  0  0  0  0  0  0  0
  -32.2144  -15.0398   25.3516 C   0  0  0  0  0  0  0  0  0  0  0  0
  -31.0618  -13.5637   23.9751 C   0  0  0  0  0  0  0  0  0  0  0  0
  -32.8703  -14.8584   22.8963 C   0  0  0  0  0  0  0  0  0  0  0  0
  -32.3919  -15.9965   22.0322 C   0  0  0  0  0  0  0  0  0  0  0  0
  -31.9378  -20.4923   26.0004 C   0  0  0  0  0  0  0  0  0  0  0  0
  -33.2331  -16.0824   25.7377 C   0  0  0  0  0  0  0  0  0  0  0  0
  -32.6226  -17.3431   26.3614 C   0  0  0  0  0  0  0  0  0  0  0  0
  -31.6364  -18.0564   25.4263 C   0  0  0  0  0  0  0  0  0  0  0  0
  -31.0086  -19.2887   26.0853 C   0  0  2  0  0  0  0  0  0  1  0  0
  -30.5766  -12.7845   22.8957 N   0  0  0  0  0  0  0  0  0  0  0  0
  -33.9256  -14.3052   22.5526 O   0  0  0  0  0  0  0  0  0  0  0  0
  -30.2900  -13.3433   25.4877 S   0  0  0  0  0  0  0  0  0  0  0  0
  -31.4485  -12.4701   19.0860 H   0  0  0  0  0  0  0  0  0  0  0  0
  -30.3970  -11.2460   19.6950 H   0  0  0  0  0  0  0  0  0  0  0  0
  -29.6870  -11.8204   17.4226 H   0  0  0  0  0  0  0  0  0  0  0  0
  -29.6375  -13.5326   17.8649 H   0  0  0  0  0  0  0  0  0  0  0  0
  -27.7830  -11.3650   18.7904 H   0  0  0  0  0  0  0  0  0  0  0  0
  -27.4028  -12.7801   17.8021 H   0  0  0  0  0  0  0  0  0  0  0  0
  -27.7353  -14.2503   19.6136 H   0  0  0  0  0  0  0  0  0  0  0  0
  -28.5890  -11.9550   21.3832 H   0  0  0  0  0  0  0  0  0  0  0  0
  -28.5005  -13.6134   21.8562 H   0  0  0  0  0  0  0  0  0  0  0  0
  -25.2399   -9.5495   22.4318 H   0  0  0  0  0  0  0  0  0  0  0  0
  -23.9663   -7.5070   22.7297 H   0  0  0  0  0  0  0  0  0  0  0  0
  -21.1515   -8.8641   19.9162 H   0  0  0  0  0  0  0  0  0  0  0  0
  -22.4016  -10.9115   19.6476 H   0  0  0  0  0  0  0  0  0  0  0  0
  -21.2319   -7.5552   23.9750 H   0  0  0  0  0  0  0  0  0  0  0  0
  -21.1589   -6.0228   25.8556 H   0  0  0  0  0  0  0  0  0  0  0  0
  -22.0396   -2.8212   23.2809 H   0  0  0  0  0  0  0  0  0  0  0  0
  -22.4401  -11.9703   22.4008 H   0  0  0  0  0  0  0  0  0  0  0  0
  -21.1493  -13.0679   22.2082 H   0  0  0  0  0  0  0  0  0  0  0  0
  -24.6538  -15.7807   20.5848 H   0  0  0  0  0  0  0  0  0  0  0  0
  -26.2762  -15.5453   20.1156 H   0  0  0  0  0  0  0  0  0  0  0  0
  -26.6778  -32.4663   23.1464 H   0  0  0  0  0  0  0  0  0  0  0  0
  -25.0747  -34.0282   25.0566 H   0  0  0  0  0  0  0  0  0  0  0  0
  -22.7881  -31.3489   21.4131 H   0  0  0  0  0  0  0  0  0  0  0  0
  -23.3854  -35.9823   23.3648 H   0  0  0  0  0  0  0  0  0  0  0  0
  -24.3696  -36.8624   22.2204 H   0  0  0  0  0  0  0  0  0  0  0  0
  -23.7669  -37.6632   23.6516 H   0  0  0  0  0  0  0  0  0  0  0  0
  -25.9445  -31.6237   20.5691 H   0  0  0  0  0  0  0  0  0  0  0  0
  -26.7436  -31.0079   22.0108 H   0  0  0  0  0  0  0  0  0  0  0  0
  -28.0090  -29.1452   21.2057 H   0  0  0  0  0  0  0  0  0  0  0  0
  -26.1369  -26.0560   19.0719 H   0  0  0  0  0  0  0  0  0  0  0  0
  -24.0652  -27.2961   19.0997 H   0  0  0  0  0  0  0  0  0  0  0  0
  -23.6156  -30.5365   19.3930 H   0  0  0  0  0  0  0  0  0  0  0  0
  -22.7355  -29.1425   19.9945 H   0  0  0  0  0  0  0  0  0  0  0  0
  -25.1353  -36.2335   25.0565 H   0  0  0  0  0  0  0  0  0  0  0  0
  -21.0070  -28.3206   24.0793 H   0  0  0  0  0  0  0  0  0  0  0  0
  -20.5555  -26.2518   23.3550 H   0  0  0  0  0  0  0  0  0  0  0  0
  -21.5974  -26.8362   22.0454 H   0  0  0  0  0  0  0  0  0  0  0  0
  -19.6810  -25.6422   21.1488 H   0  0  0  0  0  0  0  0  0  0  0  0
  -19.6406  -27.3343   20.7034 H   0  0  0  0  0  0  0  0  0  0  0  0
  -17.4282  -26.6888   21.4113 H   0  0  0  0  0  0  0  0  0  0  0  0
  -18.0803  -26.0130   22.9049 H   0  0  0  0  0  0  0  0  0  0  0  0
  -19.7265  -30.6774   24.2204 H   0  0  0  0  0  0  0  0  0  0  0  0
  -17.5064  -31.5856   24.4483 H   0  0  0  0  0  0  0  0  0  0  0  0
  -15.5878  -30.2839   23.7407 H   0  0  0  0  0  0  0  0  0  0  0  0
  -15.9120  -28.0941   22.7766 H   0  0  0  0  0  0  0  0  0  0  0  0
  -24.5787  -30.7757   25.6817 H   0  0  0  0  0  0  0  0  0  0  0  0
  -25.0041  -32.2289   26.5536 H   0  0  0  0  0  0  0  0  0  0  0  0
  -25.8166  -30.7245   26.9138 H   0  0  0  0  0  0  0  0  0  0  0  0
  -26.2892  -29.7335   24.0803 H   0  0  0  0  0  0  0  0  0  0  0  0
  -27.4336  -29.7484   25.4006 H   0  0  0  0  0  0  0  0  0  0  0  0
  -27.8466  -30.4994   23.8779 H   0  0  0  0  0  0  0  0  0  0  0  0
  -27.2251  -33.3632   26.1242 H   0  0  0  0  0  0  0  0  0  0  0  0
  -28.3902  -32.6065   25.0645 H   0  0  0  0  0  0  0  0  0  0  0  0
  -27.9772  -31.8555   26.5872 H   0  0  0  0  0  0  0  0  0  0  0  0
  -28.2744  -38.0016   24.6863 H   0  0  0  0  0  0  0  0  0  0  0  0
  -28.0396  -36.2711   24.7461 H   0  0  0  0  0  0  0  0  0  0  0  0
  -27.1773  -37.3087   25.8564 H   0  0  0  0  0  0  0  0  0  0  0  0
  -20.9627  -29.9365   21.7352 H   0  0  0  0  0  0  0  0  0  0  0  0
  -26.0447  -38.2561   24.0273 H   0  0  0  0  0  0  0  0  0  0  0  0
  -31.2483  -14.7603   27.2332 H   0  0  0  0  0  0  0  0  0  0  0  0
  -31.4789  -16.3873   22.4304 H   0  0  0  0  0  0  0  0  0  0  0  0
  -32.2240  -15.6423   21.0366 H   0  0  0  0  0  0  0  0  0  0  0  0
  -33.1331  -16.7680   22.0160 H   0  0  0  0  0  0  0  0  0  0  0  0
  -32.7775  -20.3409   26.6461 H   0  0  0  0  0  0  0  0  0  0  0  0
  -31.4098  -21.3726   26.3024 H   0  0  0  0  0  0  0  0  0  0  0  0
  -32.2790  -20.6091   24.9930 H   0  0  0  0  0  0  0  0  0  0  0  0
  -33.7729  -16.3682   24.8592 H   0  0  0  0  0  0  0  0  0  0  0  0
  -33.8641  -15.6413   26.4808 H   0  0  0  0  0  0  0  0  0  0  0  0
  -33.4139  -18.0212   26.6040 H   0  0  0  0  0  0  0  0  0  0  0  0
  -32.0774  -17.0389   27.2304 H   0  0  0  0  0  0  0  0  0  0  0  0
  -30.8575  -17.3729   25.1596 H   0  0  0  0  0  0  0  0  0  0  0  0
  -32.1775  -18.3832   24.5630 H   0  0  0  0  0  0  0  0  0  0  0  0
  -30.4757  -18.7726   26.8564 H   0  0  0  0  0  0  0  0  0  0  0  0
  -30.2390  -11.8607   22.9393 H   0  0  0  0  0  0  0  0  0  0  0  0
  1 25  1  0
  1 30  2  0
  1 82  1  0
  2  3  1  0
  2 25  1  0
  2 85  1  0
  2 86  1  0
  3  4  1  0
  3 87  1  0
  3 88  1  0
  4  5  1  0
  4 89  1  0
  4 90  1  0
  5  6  1  0
  5 26  1  0
  5 91  1  6
  6 25  1  0
  6 92  1  0
  6 93  1  0
  7  8  2  0
  7 26  1  0
  7 29  1  0
  8  9  1  0
  8 22  1  0
  9 10  1  0
  9 27  2  0
 10 11  2  0
 10 15  1  0
 11 12  1  0
 11 94  1  0
 12 13  2  0
 12 95  1  0
 13 14  1  0
 13 31  1  0
 14 15  2  0
 14 96  1  0
 15 97  1  0
 16 17  2  0
 16 21  1  0
 16 31  1  0
 17 18  1  0
 17 98  1  0
 18 19  2  0
 18 99  1  0
 19 20  1  0
 19 24  1  0
 20 21  2  0
 20100  1  0
 21 23  1  0
 22 28  1  0
 22 32  2  0
 26 27  1  0
 28101  1  0
 28102  1  0
 29103  1  0
 29104  1  0
 33 34  1  0
 33 66  1  0
 33 70  2  0
 34 36  1  0
 34 59  1  0
 34105  1  6
 35 44  2  0
 35 45  1  0
 35 68  1  0
 36 56  1  0
 36106  1  0
 37 39  1  0
 37 47  1  0
 37 66  1  0
 37107  1  6
 38 43  2  0
 38 46  1  0
 38 47  1  0
 39 64  1  0
 39 67  2  0
 40 52  1  0
 40 53  2  0
 40 58  1  0
 41108  1  0
 41109  1  0
 41110  1  0
 42 43  1  0
 42 66  1  0
 42111  1  0
 42112  1  0
 43 44  1  0
 44113  1  0
 45 46  2  0
 45114  1  0
 46115  1  0
 47116  1  0
 47117  1  0
 48 41  1  0
 48 56  1  0
 48 65  1  0
 48118  1  1
 49 50  1  0
 49 53  1  0
 49 64  1  0
 49119  1  1
 50 51  1  0
 50120  1  0
 50121  1  0
 51 52  1  0
 51122  1  0
 51123  1  0
 52124  1  0
 52125  1  0
 53 54  1  0
 54 55  2  0
 54126  1  0
 55 57  1  0
 55127  1  0
 56 69  2  0
 57 58  2  0
 57128  1  0
 58129  1  0
 59 60  1  0
 59 61  1  0
 59 62  1  0
 60130  1  0
 60131  1  0
 60132  1  0
 61133  1  0
 61134  1  0
 61135  1  0
 62136  1  0
 62137  1  0
 62138  1  0
 63 65  1  0
 63139  1  0
 63140  1  0
 63141  1  0
 64142  1  0
 65143  1  0
 68 81  1  0
 71 73  2  0
 71 84  1  0
 71144  1  0
 72 73  1  0
 72 74  2  0
 72 75  1  0
 73 78  1  0
 74 82  1  0
 74 84  1  0
 75 76  1  0
 75 83  2  0
 76145  1  0
 76146  1  0
 76147  1  0
 77148  1  0
 77149  1  0
 77150  1  0
 78 79  1  0
 78151  1  0
 78152  1  0
 79 80  1  0
 79153  1  0
 79154  1  0
 80 81  1  0
 80155  1  0
 80156  1  0
 81 77  1  0
 81157  1  1
 82158  1  0
M  ISO  4   1 100  68 101  81 101  82 100
M  END
$$$$
72
     RDKit          3D

156164  0  0  0  0  0  0  0  0999 V2000
  -30.7652  -14.3608   20.6636 C   0  0  0  0  0  0  0  0  0100  0  0
  -30.4392  -12.2669   19.3775 C   0  0  0  0  0  0  0  0  0101  0  0
  -29.4791  -12.5281   18.1977 C   0  0  0  0  0  0  0  0  0102  0  0
  -27.9985  -12.3963   18.6038 C   0  0  0  0  0  0  0  0  0103  0  0
  -27.6639  -13.2170   19.8820 C   0  0  2  0  0  0  0  0  0104  0  0
  -28.6795  -12.9602   21.0279 C   0  0  0  0  0  0  0  0  0105  0  0
  -25.2633  -13.8245   20.5754 C   0  0  0  0  0  0  0  0  0106  0  0
  -24.1645  -13.0409   20.9408 C   0  0  0  0  0  0  0  0  0107  0  0
  -24.6400  -11.7009   20.8697 C   0  0  0  0  0  0  0  0  0108  0  0
  -23.9005  -10.4085   21.0420 C   0  0  0  0  0  0  0  0  0109  0  0
  -24.3588   -9.4123   21.9123 C   0  0  0  0  0  0  0  0  0110  0  0
  -23.6296   -8.2350   22.0803 C   0  0  0  0  0  0  0  0  0111  0  0
  -22.4385   -8.0419   21.3657 C   0  0  0  0  0  0  0  0  0112  0  0
  -22.0103   -9.0167   20.4678 C   0  0  0  0  0  0  0  0  0113  0  0
  -22.7317  -10.1925   20.3102 C   0  0  0  0  0  0  0  0  0114  0  0
  -21.6857   -6.0709   22.5391 C   0  0  0  0  0  0  0  0  0115  0  0
  -21.4064   -6.5490   23.8264 C   0  0  0  0  0  0  0  0  0116  0  0
  -21.3635   -5.6677   24.9085 C   0  0  0  0  0  0  0  0  0117  0  0
  -21.5973   -4.3067   24.7088 C   0  0  0  0  0  0  0  0  0118  0  0
  -21.8700   -3.8284   23.4282 C   0  0  0  0  0  0  0  0  0119  0  0
  -21.9144   -4.7056   22.3460 C   0  0  0  0  0  0  0  0  0120  0  0
  -22.8194  -13.5263   21.1763 C   0  0  0  0  0  0  0  0  0121  0  0
  -22.1559   -4.2206   21.1063 F   0  0  0  0  0  0  0  0  0122  0  0
  -21.5628   -3.4510   25.7555 F   0  0  0  0  0  0  0  0  0123  0  0
  -30.0261  -13.1803   20.4553 N   0  0  0  0  0  0  0  0  0124  0  0
  -26.2911  -12.9356   20.3443 N   0  0  0  0  0  0  0  0  0125  0  0
  -25.9236  -11.6675   20.5847 N   0  0  0  0  0  0  0  0  0126  0  0
  -22.0708  -12.7905   22.0005 N   0  0  0  0  0  0  0  0  0127  0  0
  -25.4117  -15.1773   20.4097 N   0  0  0  0  0  0  0  0  0128  0  0
  -31.7916  -14.6724   20.0536 O   0  0  0  0  0  0  0  0  0129  0  0
  -21.6670   -6.9022   21.4423 O   0  0  0  0  0  0  0  0  0130  0  0
  -22.3946  -14.5564   20.6568 O   0  0  0  0  0  0  0  0  0131  0  0
  -24.6048  -31.8614   23.2223 C   0  0  0  0  0  0  0  0  0100  0  0
  -25.8822  -32.4841   23.8616 C   0  0  1  0  0  0  0  0  0101  0  0
  -27.2536  -27.5042   20.1156 C   0  0  0  0  0  0  0  0  0102  0  0
  -25.5726  -33.8762   24.2210 N   0  0  0  0  0  0  0  0  0103  0  0
  -23.4066  -30.4859   21.5461 C   0  0  2  0  0  0  0  0  0104  0  0
  -24.8467  -28.9636   20.1247 C   0  0  0  0  0  0  0  0  0105  0  0
  -22.7412  -29.4652   22.5052 C   0  0  0  0  0  0  0  0  0106  0  0
  -18.0167  -28.1302   22.8626 C   0  0  0  0  0  0  0  0  0107  0  0
  -24.1342  -36.7390   23.2568 C   0  0  0  0  0  0  0  0  0108  0  0
  -25.9141  -30.8882   21.3456 C   0  0  0  0  0  0  0  0  0109  0  0
  -25.9930  -29.5029   20.7208 C   0  0  0  0  0  0  0  0  0110  0  0
  -27.1758  -28.7612   20.7331 C   0  0  0  0  0  0  0  0  0111  0  0
  -26.1032  -26.9836   19.5230 C   0  0  0  0  0  0  0  0  0112  0  0
  -24.9097  -27.7011   19.5331 C   0  0  0  0  0  0  0  0  0113  0  0
  -23.5715  -29.7899   20.1582 C   0  0  0  0  0  0  0  0  0114  0  0
  -25.3990  -36.3212   24.0232 C   0  0  1  0  0  0  0  0  0115  0  0
  -20.5793  -28.3813   23.1004 C   0  0  2  0  0  0  0  0  0116  0  0
  -20.6548  -26.9392   22.5411 C   0  0  0  0  0  0  0  0  0117  0  0
  -19.5615  -26.6407   21.5143 C   0  0  0  0  0  0  0  0  0118  0  0
  -18.1797  -26.7818   22.1673 C   0  0  0  0  0  0  0  0  0119  0  0
  -19.1385  -28.8769   23.2988 C   0  0  0  0  0  0  0  0  0120  0  0
  -18.9183  -30.1286   23.8878 C   0  0  0  0  0  0  0  0  0121  0  0
  -17.6396  -30.6493   24.0352 C   0  0  0  0  0  0  0  0  0122  0  0
  -25.9153  -34.9582   23.4993 C   0  0  0  0  0  0  0  0  0123  0  0
  -16.5415  -29.9068   23.6254 C   0  0  0  0  0  0  0  0  0124  0  0
  -16.7331  -28.6521   23.0586 C   0  0  0  0  0  0  0  0  0125  0  0
  -26.4583  -31.6439   25.0683 C   0  0  0  0  0  0  0  0  0126  0  0
  -25.3807  -31.3179   26.1374 C   0  0  0  0  0  0  0  0  0127  0  0
  -27.0530  -30.3024   24.5680 C   0  0  0  0  0  0  0  0  0128  0  0
  -27.6014  -32.4281   25.7651 C   0  0  0  0  0  0  0  0  0129  0  0
  -27.5629  -37.2220   24.8621 C   0  0  0  0  0  0  0  0  0130  0  0
  -21.4133  -29.3375   22.3735 N   0  0  0  0  0  0  0  0  0131  0  0
  -26.4706  -37.3372   23.9061 N   0  0  0  0  0  0  0  0  0132  0  0
  -24.6674  -31.0544   22.1178 N   0  0  0  0  0  0  0  0  0133  0  0
  -23.4259  -28.8150   23.2971 O   0  0  0  0  0  0  0  0  0134  0  0
  -28.3948  -26.7345   20.0089 O   0  0  0  0  0  0  0  0  0135  0  0
  -26.5870  -34.9065   22.4671 O   0  0  0  0  0  0  0  0  0136  0  0
  -23.5365  -32.1254   23.7833 O   0  0  0  0  0  0  0  0  0137  0  0
  -27.5977  -20.6946   23.1544 C   0  0  0  0  0  0  0  0  0  0  0  0
  -27.9512  -21.0322   20.4078 C   0  0  0  0  0  0  0  0  0  0  0  0
  -27.2675  -19.6621   22.2766 C   0  0  0  0  0  0  0  0  0  0  0  0
  -28.2814  -22.0647   21.2855 C   0  0  0  0  0  0  0  0  0  0  0  0
  -28.1047  -21.8960   22.6588 C   0  0  0  0  0  0  0  0  0  0  0  0
  -27.4442  -19.8309   20.9033 C   0  0  0  0  0  0  0  0  0  0  0  0
  -26.7252  -18.3765   22.8120 C   0  0  0  0  0  0  0  0  0  0  0  0
  -30.5985  -16.1887   23.6121 C   0  0  0  0  0  0  0  0  0  0  0  0
  -27.1246  -17.8785   24.1950 C   0  0  0  0  0  0  0  0  0  0  0  0
  -28.6262  -17.5958   24.3075 C   0  0  0  0  0  0  0  0  0  0  0  0
  -29.1202  -16.4772   23.3825 C   0  0  1  0  0  0  0  0  0  1  0  0
  -25.9077  -17.6680   22.0976 N   0  0  0  0  0  0  0  0  0  0  0  0
  -28.7970  -23.2840   20.7802 N   0  0  0  0  0  0  0  0  0  0  0  0
  -28.4185  -22.8816   23.5118 F   0  0  0  0  0  0  0  0  0  0  0  0
  -27.1314  -18.8450   20.0500 F   0  0  0  0  0  0  0  0  0  0  0  0
  -31.4485  -12.4701   19.0860 H   0  0  0  0  0  0  0  0  0  0  0  0
  -30.3970  -11.2460   19.6950 H   0  0  0  0  0  0  0  0  0  0  0  0
  -29.6870  -11.8204   17.4226 H   0  0  0  0  0  0  0  0  0  0  0  0
  -29.6375  -13.5326   17.8649 H   0  0  0  0  0  0  0  0  0  0  0  0
  -27.7830  -11.3650   18.7904 H   0  0  0  0  0  0  0  0  0  0  0  0
  -27.4028  -12.7801   17.8021 H   0  0  0  0  0  0  0  0  0  0  0  0
  -27.7353  -14.2503   19.6136 H   0  0  0  0  0  0  0  0  0  0  0  0
  -28.5890  -11.9550   21.3832 H   0  0  0  0  0  0  0  0  0  0  0  0
  -28.5005  -13.6134   21.8562 H   0  0  0  0  0  0  0  0  0  0  0  0
  -25.2399   -9.5495   22.4318 H   0  0  0  0  0  0  0  0  0  0  0  0
  -23.9663   -7.5070   22.7297 H   0  0  0  0  0  0  0  0  0  0  0  0
  -21.1515   -8.8641   19.9162 H   0  0  0  0  0  0  0  0  0  0  0  0
  -22.4016  -10.9115   19.6476 H   0  0  0  0  0  0  0  0  0  0  0  0
  -21.2319   -7.5552   23.9750 H   0  0  0  0  0  0  0  0  0  0  0  0
  -21.1589   -6.0228   25.8556 H   0  0  0  0  0  0  0  0  0  0  0  0
  -22.0396   -2.8212   23.2809 H   0  0  0  0  0  0  0  0  0  0  0  0
  -22.4401  -11.9703   22.4008 H   0  0  0  0  0  0  0  0  0  0  0  0
  -21.1493  -13.0679   22.2082 H   0  0  0  0  0  0  0  0  0  0  0  0
  -24.6538  -15.7807   20.5848 H   0  0  0  0  0  0  0  0  0  0  0  0
  -26.2762  -15.5453   20.1156 H   0  0  0  0  0  0  0  0  0  0  0  0
  -26.6778  -32.4663   23.1464 H   0  0  0  0  0  0  0  0  0  0  0  0
  -25.0747  -34.0282   25.0566 H   0  0  0  0  0  0  0  0  0  0  0  0
  -22.7881  -31.3489   21.4131 H   0  0  0  0  0  0  0  0  0  0  0  0
  -23.3854  -35.9823   23.3648 H   0  0  0  0  0  0  0  0  0  0  0  0
  -24.3696  -36.8624   22.2204 H   0  0  0  0  0  0  0  0  0  0  0  0
  -23.7669  -37.6632   23.6516 H   0  0  0  0  0  0  0  0  0  0  0  0
  -25.9445  -31.6237   20.5691 H   0  0  0  0  0  0  0  0  0  0  0  0
  -26.7436  -31.0079   22.0108 H   0  0  0  0  0  0  0  0  0  0  0  0
  -28.0090  -29.1452   21.2057 H   0  0  0  0  0  0  0  0  0  0  0  0
  -26.1369  -26.0560   19.0719 H   0  0  0  0  0  0  0  0  0  0  0  0
  -24.0652  -27.2961   19.0997 H   0  0  0  0  0  0  0  0  0  0  0  0
  -23.6156  -30.5365   19.3930 H   0  0  0  0  0  0  0  0  0  0  0  0
  -22.7355  -29.1425   19.9945 H   0  0  0  0  0  0  0  0  0  0  0  0
  -25.1353  -36.2335   25.0565 H   0  0  0  0  0  0  0  0  0  0  0  0
  -21.0070  -28.3206   24.0793 H   0  0  0  0  0  0  0  0  0  0  0  0
  -20.5555  -26.2518   23.3550 H   0  0  0  0  0  0  0  0  0  0  0  0
  -21.5974  -26.8362   22.0454 H   0  0  0  0  0  0  0  0  0  0  0  0
  -19.6810  -25.6422   21.1488 H   0  0  0  0  0  0  0  0  0  0  0  0
  -19.6406  -27.3343   20.7034 H   0  0  0  0  0  0  0  0  0  0  0  0
  -17.4282  -26.6888   21.4113 H   0  0  0  0  0  0  0  0  0  0  0  0
  -18.0803  -26.0130   22.9049 H   0  0  0  0  0  0  0  0  0  0  0  0
  -19.7265  -30.6774   24.2204 H   0  0  0  0  0  0  0  0  0  0  0  0
  -17.5064  -31.5856   24.4483 H   0  0  0  0  0  0  0  0  0  0  0  0
  -15.5878  -30.2839   23.7407 H   0  0  0  0  0  0  0  0  0  0  0  0
  -15.9120  -28.0941   22.7766 H   0  0  0  0  0  0  0  0  0  0  0  0
  -24.5787  -30.7757   25.6817 H   0  0  0  0  0  0  0  0  0  0  0  0
  -25.0041  -32.2289   26.5536 H   0  0  0  0  0  0  0  0  0  0  0  0
  -25.8166  -30.7245   26.9138 H   0  0  0  0  0  0  0  0  0  0  0  0
  -26.2892  -29.7335   24.0803 H   0  0  0  0  0  0  0  0  0  0  0  0
  -27.4336  -29.7484   25.4006 H   0  0  0  0  0  0  0  0  0  0  0  0
  -27.8466  -30.4994   23.8779 H   0  0  0  0  0  0  0  0  0  0  0  0
  -27.2251  -33.3632   26.1242 H   0  0  0  0  0  0  0  0  0  0  0  0
  -28.3902  -32.6065   25.0645 H   0  0  0  0  0  0  0  0  0  0  0  0
  -27.9772  -31.8555   26.5872 H   0  0  0  0  0  0  0  0  0  0  0  0
  -28.2744  -38.0016   24.6863 H   0  0  0  0  0  0  0  0  0  0  0  0
  -28.0396  -36.2711   24.7461 H   0  0  0  0  0  0  0  0  0  0  0  0
  -27.1773  -37.3087   25.8564 H   0  0  0  0  0  0  0  0  0  0  0  0
  -20.9627  -29.9365   21.7352 H   0  0  0  0  0  0  0  0  0  0  0  0
  -26.0447  -38.2561   24.0273 H   0  0  0  0  0  0  0  0  0  0  0  0
  -27.4669  -20.5697   24.1704 H   0  0  0  0  0  0  0  0  0  0  0  0
  -28.0820  -21.1570   19.3918 H   0  0  0  0  0  0  0  0  0  0  0  0
  -30.7170  -15.1798   23.9483 H   0  0  0  0  0  0  0  0  0  0  0  0
  -30.9818  -16.8589   24.3530 H   0  0  0  0  0  0  0  0  0  0  0  0
  -31.1349  -16.3248   22.6963 H   0  0  0  0  0  0  0  0  0  0  0  0
  -26.5893  -16.9755   24.4021 H   0  0  0  0  0  0  0  0  0  0  0  0
  -26.8858  -18.6485   24.8986 H   0  0  0  0  0  0  0  0  0  0  0  0
  -28.8415  -17.3169   25.3178 H   0  0  0  0  0  0  0  0  0  0  0  0
  -29.1331  -18.4901   24.0106 H   0  0  0  0  0  0  0  0  0  0  0  0
  -28.7451  -15.5166   23.0970 H   0  0  0  0  0  0  0  0  0  0  0  0
  -25.6411  -17.9779   21.2020 H   0  0  0  0  0  0  0  0  0  0  0  0
  -28.8750  -24.2487   20.5996 H   0  0  0  0  0  0  0  0  0  0  0  0
  1 25  1  0
  1 30  2  0
  1 83  1  0
  2  3  1  0
  2 25  1  0
  2 86  1  0
  2 87  1  0
  3  4  1  0
  3 88  1  0
  3 89  1  0
  4  5  1  0
  4 90  1  0
  4 91  1  0
  5  6  1  0
  5 26  1  0
  5 92  1  6
  6 25  1  0
  6 93  1  0
  6 94  1  0
  7  8  2  0
  7 26  1  0
  7 29  1  0
  8  9  1  0
  8 22  1  0
  9 10  1  0
  9 27  2  0
 10 11  2  0
 10 15  1  0
 11 12  1  0
 11 95  1  0
 12 13  2  0
 12 96  1  0
 13 14  1  0
 13 31  1  0
 14 15  2  0
 14 97  1  0
 15 98  1  0
 16 17  2  0
 16 21  1  0
 16 31  1  0
 17 18  1  0
 17 99  1  0
 18 19  2  0
 18100  1  0
 19 20  1  0
 19 24  1  0
 20 21  2  0
 20101  1  0
 21 23  1  0
 22 28  1  0
 22 32  2  0
 26 27  1  0
 28102  1  0
 28103  1  0
 29104  1  0
 29105  1  0
 33 34  1  0
 33 66  1  0
 33 70  2  0
 34 36  1  0
 34 59  1  0
 34106  1  6
 35 44  2  0
 35 45  1  0
 35 68  1  0
 36 56  1  0
 36107  1  0
 37 39  1  0
 37 47  1  0
 37 66  1  0
 37108  1  6
 38 43  2  0
 38 46  1  0
 38 47  1  0
 39 64  1  0
 39 67  2  0
 40 52  1  0
 40 53  2  0
 40 58  1  0
 41109  1  0
 41110  1  0
 41111  1  0
 42 43  1  0
 42 66  1  0
 42112  1  0
 42113  1  0
 43 44  1  0
 44114  1  0
 45 46  2  0
 45115  1  0
 46116  1  0
 47117  1  0
 47118  1  0
 48 41  1  0
 48 56  1  0
 48 65  1  0
 48119  1  1
 49 50  1  0
 49 53  1  0
 49 64  1  0
 49120  1  1
 50 51  1  0
 50121  1  0
 50122  1  0
 51 52  1  0
 51123  1  0
 51124  1  0
 52125  1  0
 52126  1  0
 53 54  1  0
 54 55  2  0
 54127  1  0
 55 57  1  0
 55128  1  0
 56 69  2  0
 57 58  2  0
 57129  1  0
 58130  1  0
 59 60  1  0
 59 61  1  0
 59 62  1  0
 60131  1  0
 60132  1  0
 60133  1  0
 61134  1  0
 61135  1  0
 61136  1  0
 62137  1  0
 62138  1  0
 62139  1  0
 63 65  1  0
 63140  1  0
 63141  1  0
 63142  1  0
 64143  1  0
 65144  1  0
 68 81  1  0
 71 73  2  0
 71 75  1  0
 71145  1  0
 72 74  1  0
 72 76  2  0
 72146  1  0
 73 76  1  0
 73 77  1  0
 74 75  2  0
 74 83  1  0
 75 84  1  0
 76 85  1  0
 77 79  1  0
 77 82  2  0
 78147  1  0
 78148  1  0
 78149  1  0
 79 80  1  0
 79150  1  0
 79151  1  0
 80 81  1  0
 80152  1  0
 80153  1  0
 81 78  1  0
 81154  1  6
 82155  1  0
 83156  1  0
M  ISO  4   1 100  68 101  81 101  83 100
M  END
$$$$
73
     RDKit          3D

169177  0  0  0  0  0  0  0  0999 V2000
  -30.7652  -14.3608   20.6636 C   0  0  0  0  0  0  0  0  0100  0  0
  -30.4392  -12.2669   19.3775 C   0  0  0  0  0  0  0  0  0101  0  0
  -29.4791  -12.5281   18.1977 C   0  0  0  0  0  0  0  0  0102  0  0
  -27.9985  -12.3963   18.6038 C   0  0  0  0  0  0  0  0  0103  0  0
  -27.6639  -13.2170   19.8820 C   0  0  2  0  0  0  0  0  0104  0  0
  -28.6795  -12.9602   21.0279 C   0  0  0  0  0  0  0  0  0105  0  0
  -25.2633  -13.8245   20.5754 C   0  0  0  0  0  0  0  0  0106  0  0
  -24.1645  -13.0409   20.9408 C   0  0  0  0  0  0  0  0  0107  0  0
  -24.6400  -11.7009   20.8697 C   0  0  0  0  0  0  0  0  0108  0  0
  -23.9005  -10.4085   21.0420 C   0  0  0  0  0  0  0  0  0109  0  0
  -24.3588   -9.4123   21.9123 C   0  0  0  0  0  0  0  0  0110  0  0
  -23.6296   -8.2350   22.0803 C   0  0  0  0  0  0  0  0  0111  0  0
  -22.4385   -8.0419   21.3657 C   0  0  0  0  0  0  0  0  0112  0  0
  -22.0103   -9.0167   20.4678 C   0  0  0  0  0  0  0  0  0113  0  0
  -22.7317  -10.1925   20.3102 C   0  0  0  0  0  0  0  0  0114  0  0
  -21.6857   -6.0709   22.5391 C   0  0  0  0  0  0  0  0  0115  0  0
  -21.4064   -6.5490   23.8264 C   0  0  0  0  0  0  0  0  0116  0  0
  -21.3635   -5.6677   24.9085 C   0  0  0  0  0  0  0  0  0117  0  0
  -21.5973   -4.3067   24.7088 C   0  0  0  0  0  0  0  0  0118  0  0
  -21.8700   -3.8284   23.4282 C   0  0  0  0  0  0  0  0  0119  0  0
  -21.9144   -4.7056   22.3460 C   0  0  0  0  0  0  0  0  0120  0  0
  -22.8194  -13.5263   21.1763 C   0  0  0  0  0  0  0  0  0121  0  0
  -22.1559   -4.2206   21.1063 F   0  0  0  0  0  0  0  0  0122  0  0
  -21.5628   -3.4510   25.7555 F   0  0  0  0  0  0  0  0  0123  0  0
  -30.0261  -13.1803   20.4553 N   0  0  0  0  0  0  0  0  0124  0  0
  -26.2911  -12.9356   20.3443 N   0  0  0  0  0  0  0  0  0125  0  0
  -25.9236  -11.6675   20.5847 N   0  0  0  0  0  0  0  0  0126  0  0
  -22.0708  -12.7905   22.0005 N   0  0  0  0  0  0  0  0  0127  0  0
  -25.4117  -15.1773   20.4097 N   0  0  0  0  0  0  0  0  0128  0  0
  -31.7916  -14.6724   20.0536 O   0  0  0  0  0  0  0  0  0129  0  0
  -21.6670   -6.9022   21.4423 O   0  0  0  0  0  0  0  0  0130  0  0
  -22.3946  -14.5564   20.6568 O   0  0  0  0  0  0  0  0  0131  0  0
  -24.6048  -31.8614   23.2223 C   0  0  0  0  0  0  0  0  0100  0  0
  -25.8822  -32.4841   23.8616 C   0  0  1  0  0  0  0  0  0101  0  0
  -27.2536  -27.5042   20.1156 C   0  0  0  0  0  0  0  0  0102  0  0
  -25.5726  -33.8762   24.2210 N   0  0  0  0  0  0  0  0  0103  0  0
  -23.4066  -30.4859   21.5461 C   0  0  2  0  0  0  0  0  0104  0  0
  -24.8467  -28.9636   20.1247 C   0  0  0  0  0  0  0  0  0105  0  0
  -22.7412  -29.4652   22.5052 C   0  0  0  0  0  0  0  0  0106  0  0
  -18.0167  -28.1302   22.8626 C   0  0  0  0  0  0  0  0  0107  0  0
  -24.1342  -36.7390   23.2568 C   0  0  0  0  0  0  0  0  0108  0  0
  -25.9141  -30.8882   21.3456 C   0  0  0  0  0  0  0  0  0109  0  0
  -25.9930  -29.5029   20.7208 C   0  0  0  0  0  0  0  0  0110  0  0
  -27.1758  -28.7612   20.7331 C   0  0  0  0  0  0  0  0  0111  0  0
  -26.1032  -26.9836   19.5230 C   0  0  0  0  0  0  0  0  0112  0  0
  -24.9097  -27.7011   19.5331 C   0  0  0  0  0  0  0  0  0113  0  0
  -23.5715  -29.7899   20.1582 C   0  0  0  0  0  0  0  0  0114  0  0
  -25.3990  -36.3212   24.0232 C   0  0  1  0  0  0  0  0  0115  0  0
  -20.5793  -28.3813   23.1004 C   0  0  2  0  0  0  0  0  0116  0  0
  -20.6548  -26.9392   22.5411 C   0  0  0  0  0  0  0  0  0117  0  0
  -19.5615  -26.6407   21.5143 C   0  0  0  0  0  0  0  0  0118  0  0
  -18.1797  -26.7818   22.1673 C   0  0  0  0  0  0  0  0  0119  0  0
  -19.1385  -28.8769   23.2988 C   0  0  0  0  0  0  0  0  0120  0  0
  -18.9183  -30.1286   23.8878 C   0  0  0  0  0  0  0  0  0121  0  0
  -17.6396  -30.6493   24.0352 C   0  0  0  0  0  0  0  0  0122  0  0
  -25.9153  -34.9582   23.4993 C   0  0  0  0  0  0  0  0  0123  0  0
  -16.5415  -29.9068   23.6254 C   0  0  0  0  0  0  0  0  0124  0  0
  -16.7331  -28.6521   23.0586 C   0  0  0  0  0  0  0  0  0125  0  0
  -26.4583  -31.6439   25.0683 C   0  0  0  0  0  0  0  0  0126  0  0
  -25.3807  -31.3179   26.1374 C   0  0  0  0  0  0  0  0  0127  0  0
  -27.0530  -30.3024   24.5680 C   0  0  0  0  0  0  0  0  0128  0  0
  -27.6014  -32.4281   25.7651 C   0  0  0  0  0  0  0  0  0129  0  0
  -27.5629  -37.2220   24.8621 C   0  0  0  0  0  0  0  0  0130  0  0
  -21.4133  -29.3375   22.3735 N   0  0  0  0  0  0  0  0  0131  0  0
  -26.4706  -37.3372   23.9061 N   0  0  0  0  0  0  0  0  0132  0  0
  -24.6674  -31.0544   22.1178 N   0  0  0  0  0  0  0  0  0133  0  0
  -23.4259  -28.8150   23.2971 O   0  0  0  0  0  0  0  0  0134  0  0
  -28.3948  -26.7345   20.0089 O   0  0  0  0  0  0  0  0  0135  0  0
  -26.5870  -34.9065   22.4671 O   0  0  0  0  0  0  0  0  0136  0  0
  -23.5365  -32.1254   23.7833 O   0  0  0  0  0  0  0  0  0137  0  0
  -25.1610  -20.3542   17.7850 C   0  0  0  0  0  0  0  0  0  0  0  0
  -24.8322  -21.5486   18.4260 C   0  0  0  0  0  0  0  0  0  0  0  0
  -25.4319  -19.2109   18.5368 C   0  0  0  0  0  0  0  0  0  0  0  0
  -25.0454  -20.4565   20.5705 C   0  0  0  0  0  0  0  0  0  0  0  0
  -24.7744  -21.5998   19.8187 C   0  0  0  0  0  0  0  0  0  0  0  0
  -25.3741  -19.2620   19.9295 C   0  0  0  0  0  0  0  0  0  0  0  0
  -22.8757  -24.3659   23.5307 C   0  0  0  0  0  0  0  0  0  0  0  0
  -22.2027  -23.9067   22.4623 C   0  0  0  0  0  0  0  0  0  0  0  0
  -21.2188  -22.7779   22.6082 C   0  0  0  0  0  0  0  0  0  0  0  0
  -25.4881  -23.9653   20.2442 C   0  0  0  0  0  0  0  0  0  0  0  0
  -20.5254  -26.2738   21.3473 C   0  0  0  0  0  0  0  0  0  0  0  0
  -21.1465  -25.1566   20.4933 C   0  0  0  0  0  0  0  0  0  0  0  0
  -23.0196  -23.4400   20.1232 C   0  0  0  0  0  0  0  0  0  0  0  0
  -21.4200  -27.4942   21.5373 C   0  0  0  0  0  0  0  0  0  1  0  0
  -24.4164  -22.9005   20.5160 C   0  0  1  0  0  0  0  0  0  0  0  0
  -22.4249  -24.5108   21.0768 C   0  0  2  0  0  0  0  0  0  0  0  0
  -25.6487  -18.1003   20.6928 N   0  0  0  0  0  0  0  0  0  0  0  0
  -31.4485  -12.4701   19.0860 H   0  0  0  0  0  0  0  0  0  0  0  0
  -30.3970  -11.2460   19.6950 H   0  0  0  0  0  0  0  0  0  0  0  0
  -29.6870  -11.8204   17.4226 H   0  0  0  0  0  0  0  0  0  0  0  0
  -29.6375  -13.5326   17.8649 H   0  0  0  0  0  0  0  0  0  0  0  0
  -27.7830  -11.3650   18.7904 H   0  0  0  0  0  0  0  0  0  0  0  0
  -27.4028  -12.7801   17.8021 H   0  0  0  0  0  0  0  0  0  0  0  0
  -27.7353  -14.2503   19.6136 H   0  0  0  0  0  0  0  0  0  0  0  0
  -28.5890  -11.9550   21.3832 H   0  0  0  0  0  0  0  0  0  0  0  0
  -28.5005  -13.6134   21.8562 H   0  0  0  0  0  0  0  0  0  0  0  0
  -25.2399   -9.5495   22.4318 H   0  0  0  0  0  0  0  0  0  0  0  0
  -23.9663   -7.5070   22.7297 H   0  0  0  0  0  0  0  0  0  0  0  0
  -21.1515   -8.8641   19.9162 H   0  0  0  0  0  0  0  0  0  0  0  0
  -22.4016  -10.9115   19.6476 H   0  0  0  0  0  0  0  0  0  0  0  0
  -21.2319   -7.5552   23.9750 H   0  0  0  0  0  0  0  0  0  0  0  0
  -21.1589   -6.0228   25.8556 H   0  0  0  0  0  0  0  0  0  0  0  0
  -22.0396   -2.8212   23.2809 H   0  0  0  0  0  0  0  0  0  0  0  0
  -22.4401  -11.9703   22.4008 H   0  0  0  0  0  0  0  0  0  0  0  0
  -21.1493  -13.0679   22.2082 H   0  0  0  0  0  0  0  0  0  0  0  0
  -24.6538  -15.7807   20.5848 H   0  0  0  0  0  0  0  0  0  0  0  0
  -26.2762  -15.5453   20.1156 H   0  0  0  0  0  0  0  0  0  0  0  0
  -26.6778  -32.4663   23.1464 H   0  0  0  0  0  0  0  0  0  0  0  0
  -25.0747  -34.0282   25.0566 H   0  0  0  0  0  0  0  0  0  0  0  0
  -22.7881  -31.3489   21.4131 H   0  0  0  0  0  0  0  0  0  0  0  0
  -23.3854  -35.9823   23.3648 H   0  0  0  0  0  0  0  0  0  0  0  0
  -24.3696  -36.8624   22.2204 H   0  0  0  0  0  0  0  0  0  0  0  0
  -23.7669  -37.6632   23.6516 H   0  0  0  0  0  0  0  0  0  0  0  0
  -25.9445  -31.6237   20.5691 H   0  0  0  0  0  0  0  0  0  0  0  0
  -26.7436  -31.0079   22.0108 H   0  0  0  0  0  0  0  0  0  0  0  0
  -28.0090  -29.1452   21.2057 H   0  0  0  0  0  0  0  0  0  0  0  0
  -26.1369  -26.0560   19.0719 H   0  0  0  0  0  0  0  0  0  0  0  0
  -24.0652  -27.2961   19.0997 H   0  0  0  0  0  0  0  0  0  0  0  0
  -23.6156  -30.5365   19.3930 H   0  0  0  0  0  0  0  0  0  0  0  0
  -22.7355  -29.1425   19.9945 H   0  0  0  0  0  0  0  0  0  0  0  0
  -25.1353  -36.2335   25.0565 H   0  0  0  0  0  0  0  0  0  0  0  0
  -21.0070  -28.3206   24.0793 H   0  0  0  0  0  0  0  0  0  0  0  0
  -20.5555  -26.2518   23.3550 H   0  0  0  0  0  0  0  0  0  0  0  0
  -21.5974  -26.8362   22.0454 H   0  0  0  0  0  0  0  0  0  0  0  0
  -19.6810  -25.6422   21.1488 H   0  0  0  0  0  0  0  0  0  0  0  0
  -19.6406  -27.3343   20.7034 H   0  0  0  0  0  0  0  0  0  0  0  0
  -17.4282  -26.6888   21.4113 H   0  0  0  0  0  0  0  0  0  0  0  0
  -18.0803  -26.0130   22.9049 H   0  0  0  0  0  0  0  0  0  0  0  0
  -19.7265  -30.6774   24.2204 H   0  0  0  0  0  0  0  0  0  0  0  0
  -17.5064  -31.5856   24.4483 H   0  0  0  0  0  0  0  0  0  0  0  0
  -15.5878  -30.2839   23.7407 H   0  0  0  0  0  0  0  0  0  0  0  0
  -15.9120  -28.0941   22.7766 H   0  0  0  0  0  0  0  0  0  0  0  0
  -24.5787  -30.7757   25.6817 H   0  0  0  0  0  0  0  0  0  0  0  0
  -25.0041  -32.2289   26.5536 H   0  0  0  0  0  0  0  0  0  0  0  0
  -25.8166  -30.7245   26.9138 H   0  0  0  0  0  0  0  0  0  0  0  0
  -26.2892  -29.7335   24.0803 H   0  0  0  0  0  0  0  0  0  0  0  0
  -27.4336  -29.7484   25.4006 H   0  0  0  0  0  0  0  0  0  0  0  0
  -27.8466  -30.4994   23.8779 H   0  0  0  0  0  0  0  0  0  0  0  0
  -27.2251  -33.3632   26.1242 H   0  0  0  0  0  0  0  0  0  0  0  0
  -28.3902  -32.6065   25.0645 H   0  0  0  0  0  0  0  0  0  0  0  0
  -27.9772  -31.8555   26.5872 H   0  0  0  0  0  0  0  0  0  0  0  0
  -28.2744  -38.0016   24.6863 H   0  0  0  0  0  0  0  0  0  0  0  0
  -28.0396  -36.2711   24.7461 H   0  0  0  0  0  0  0  0  0  0  0  0
  -27.1773  -37.3087   25.8564 H   0  0  0  0  0  0  0  0  0  0  0  0
  -20.9627  -29.9365   21.7352 H   0  0  0  0  0  0  0  0  0  0  0  0
  -26.0447  -38.2561   24.0273 H   0  0  0  0  0  0  0  0  0  0  0  0
  -25.2038  -20.3164   16.7546 H   0  0  0  0  0  0  0  0  0  0  0  0
  -24.6317  -22.3945   17.8698 H   0  0  0  0  0  0  0  0  0  0  0  0
  -25.6751  -18.3272   18.0626 H   0  0  0  0  0  0  0  0  0  0  0  0
  -25.0027  -20.4944   21.6009 H   0  0  0  0  0  0  0  0  0  0  0  0
  -22.7151  -23.9479   24.4605 H   0  0  0  0  0  0  0  0  0  0  0  0
  -23.5533  -25.1366   23.4215 H   0  0  0  0  0  0  0  0  0  0  0  0
  -21.1790  -22.4695   23.6320 H   0  0  0  0  0  0  0  0  0  0  0  0
  -21.5281  -21.9542   21.9993 H   0  0  0  0  0  0  0  0  0  0  0  0
  -20.2495  -23.1072   22.2970 H   0  0  0  0  0  0  0  0  0  0  0  0
  -26.4488  -23.5826   20.5189 H   0  0  0  0  0  0  0  0  0  0  0  0
  -25.2749  -24.8412   20.8207 H   0  0  0  0  0  0  0  0  0  0  0  0
  -25.4876  -24.2144   19.2036 H   0  0  0  0  0  0  0  0  0  0  0  0
  -20.3000  -25.8708   22.3125 H   0  0  0  0  0  0  0  0  0  0  0  0
  -19.6564  -26.6115   20.8223 H   0  0  0  0  0  0  0  0  0  0  0  0
  -21.3917  -25.5693   19.5370 H   0  0  0  0  0  0  0  0  0  0  0  0
  -20.4151  -24.3768   20.4494 H   0  0  0  0  0  0  0  0  0  0  0  0
  -22.3425  -22.6120   20.0940 H   0  0  0  0  0  0  0  0  0  0  0  0
  -23.1472  -23.9260   19.1785 H   0  0  0  0  0  0  0  0  0  0  0  0
  -21.3461  -27.7904   22.5628 H   0  0  0  0  0  0  0  0  0  0  0  0
  -21.0602  -28.2114   20.8295 H   0  0  0  0  0  0  0  0  0  0  0  0
  -24.3792  -22.6821   21.5628 H   0  0  0  0  0  0  0  0  0  0  0  0
  -23.1295  -25.3096   21.1781 H   0  0  0  0  0  0  0  0  0  0  0  0
  -24.9390  -17.8345   21.3212 H   0  0  0  0  0  0  0  0  0  0  0  0
  1 25  1  0
  1 30  2  0
  1 87  1  0
  2  3  1  0
  2 25  1  0
  2 88  1  0
  2 89  1  0
  3  4  1  0
  3 90  1  0
  3 91  1  0
  4  5  1  0
  4 92  1  0
  4 93  1  0
  5  6  1  0
  5 26  1  0
  5 94  1  6
  6 25  1  0
  6 95  1  0
  6 96  1  0
  7  8  2  0
  7 26  1  0
  7 29  1  0
  8  9  1  0
  8 22  1  0
  9 10  1  0
  9 27  2  0
 10 11  2  0
 10 15  1  0
 11 12  1  0
 11 97  1  0
 12 13  2  0
 12 98  1  0
 13 14  1  0
 13 31  1  0
 14 15  2  0
 14 99  1  0
 15100  1  0
 16 17  2  0
 16 21  1  0
 16 31  1  0
 17 18  1  0
 17101  1  0
 18 19  2  0
 18102  1  0
 19 20  1  0
 19 24  1  0
 20 21  2  0
 20103  1  0
 21 23  1  0
 22 28  1  0
 22 32  2  0
 26 27  1  0
 28104  1  0
 28105  1  0
 29106  1  0
 29107  1  0
 33 34  1  0
 33 66  1  0
 33 70  2  0
 34 36  1  0
 34 59  1  0
 34108  1  6
 35 44  2  0
 35 45  1  0
 35 68  1  0
 36 56  1  0
 36109  1  0
 37 39  1  0
 37 47  1  0
 37 66  1  0
 37110  1  6
 38 43  2  0
 38 46  1  0
 38 47  1  0
 39 64  1  0
 39 67  2  0
 40 52  1  0
 40 53  2  0
 40 58  1  0
 41111  1  0
 41112  1  0
 41113  1  0
 42 43  1  0
 42 66  1  0
 42114  1  0
 42115  1  0
 43 44  1  0
 44116  1  0
 45 46  2  0
 45117  1  0
 46118  1  0
 47119  1  0
 47120  1  0
 48 41  1  0
 48 56  1  0
 48 65  1  0
 48121  1  1
 49 50  1  0
 49 53  1  0
 49 64  1  0
 49122  1  1
 50 51  1  0
 50123  1  0
 50124  1  0
 51 52  1  0
 51125  1  0
 51126  1  0
 52127  1  0
 52128  1  0
 53 54  1  0
 54 55  2  0
 54129  1  0
 55 57  1  0
 55130  1  0
 56 69  2  0
 57 58  2  0
 57131  1  0
 58132  1  0
 59 60  1  0
 59 61  1  0
 59 62  1  0
 60133  1  0
 60134  1  0
 60135  1  0
 61136  1  0
 61137  1  0
 61138  1  0
 62139  1  0
 62140  1  0
 62141  1  0
 63 65  1  0
 63142  1  0
 63143  1  0
 63144  1  0
 64145  1  0
 65146  1  0
 68 84  1  0
 71 72  2  0
 71 73  1  0
 71147  1  0
 72 75  1  0
 72148  1  0
 73 76  2  0
 73149  1  0
 74 75  2  0
 74 76  1  0
 74150  1  0
 75 85  1  0
 76 87  1  0
 77 78  2  0
 77151  1  0
 77152  1  0
 78 79  1  0
 78 86  1  0
 79153  1  0
 79154  1  0
 79155  1  0
 80156  1  0
 80157  1  0
 80158  1  0
 81 82  1  0
 81 84  1  0
 81159  1  0
 81160  1  0
 82161  1  0
 82162  1  0
 83 85  1  0
 83 86  1  0
 83163  1  0
 83164  1  0
 84165  1  0
 84166  1  0
 85 80  1  0
 85167  1  1
 86 82  1  0
 86168  1  1
 87169  1  0
M  ISO  4   1 100  68 101  84 101  87 100
M  END
$$$$
74
     RDKit          3D

168176  0  0  0  0  0  0  0  0999 V2000
  -30.7652  -14.3608   20.6636 C   0  0  0  0  0  0  0  0  0100  0  0
  -30.4392  -12.2669   19.3775 C   0  0  0  0  0  0  0  0  0101  0  0
  -29.4791  -12.5281   18.1977 C   0  0  0  0  0  0  0  0  0102  0  0
  -27.9985  -12.3963   18.6038 C   0  0  0  0  0  0  0  0  0103  0  0
  -27.6639  -13.2170   19.8820 C   0  0  2  0  0  0  0  0  0104  0  0
  -28.6795  -12.9602   21.0279 C   0  0  0  0  0  0  0  0  0105  0  0
  -25.2633  -13.8245   20.5754 C   0  0  0  0  0  0  0  0  0106  0  0
  -24.1645  -13.0409   20.9408 C   0  0  0  0  0  0  0  0  0107  0  0
  -24.6400  -11.7009   20.8697 C   0  0  0  0  0  0  0  0  0108  0  0
  -23.9005  -10.4085   21.0420 C   0  0  0  0  0  0  0  0  0109  0  0
  -24.3588   -9.4123   21.9123 C   0  0  0  0  0  0  0  0  0110  0  0
  -23.6296   -8.2350   22.0803 C   0  0  0  0  0  0  0  0  0111  0  0
  -22.4385   -8.0419   21.3657 C   0  0  0  0  0  0  0  0  0112  0  0
  -22.0103   -9.0167   20.4678 C   0  0  0  0  0  0  0  0  0113  0  0
  -22.7317  -10.1925   20.3102 C   0  0  0  0  0  0  0  0  0114  0  0
  -21.6857   -6.0709   22.5391 C   0  0  0  0  0  0  0  0  0115  0  0
  -21.4064   -6.5490   23.8264 C   0  0  0  0  0  0  0  0  0116  0  0
  -21.3635   -5.6677   24.9085 C   0  0  0  0  0  0  0  0  0117  0  0
  -21.5973   -4.3067   24.7088 C   0  0  0  0  0  0  0  0  0118  0  0
  -21.8700   -3.8284   23.4282 C   0  0  0  0  0  0  0  0  0119  0  0
  -21.9144   -4.7056   22.3460 C   0  0  0  0  0  0  0  0  0120  0  0
  -22.8194  -13.5263   21.1763 C   0  0  0  0  0  0  0  0  0121  0  0
  -22.1559   -4.2206   21.1063 F   0  0  0  0  0  0  0  0  0122  0  0
  -21.5628   -3.4510   25.7555 F   0  0  0  0  0  0  0  0  0123  0  0
  -30.0261  -13.1803   20.4553 N   0  0  0  0  0  0  0  0  0124  0  0
  -26.2911  -12.9356   20.3443 N   0  0  0  0  0  0  0  0  0125  0  0
  -25.9236  -11.6675   20.5847 N   0  0  0  0  0  0  0  0  0126  0  0
  -22.0708  -12.7905   22.0005 N   0  0  0  0  0  0  0  0  0127  0  0
  -25.4117  -15.1773   20.4097 N   0  0  0  0  0  0  0  0  0128  0  0
  -31.7916  -14.6724   20.0536 O   0  0  0  0  0  0  0  0  0129  0  0
  -21.6670   -6.9022   21.4423 O   0  0  0  0  0  0  0  0  0130  0  0
  -22.3946  -14.5564   20.6568 O   0  0  0  0  0  0  0  0  0131  0  0
  -24.6048  -31.8614   23.2223 C   0  0  0  0  0  0  0  0  0100  0  0
  -25.8822  -32.4841   23.8616 C   0  0  1  0  0  0  0  0  0101  0  0
  -27.2536  -27.5042   20.1156 C   0  0  0  0  0  0  0  0  0102  0  0
  -25.5726  -33.8762   24.2210 N   0  0  0  0  0  0  0  0  0103  0  0
  -23.4066  -30.4859   21.5461 C   0  0  2  0  0  0  0  0  0104  0  0
  -24.8467  -28.9636   20.1247 C   0  0  0  0  0  0  0  0  0105  0  0
  -22.7412  -29.4652   22.5052 C   0  0  0  0  0  0  0  0  0106  0  0
  -18.0167  -28.1302   22.8626 C   0  0  0  0  0  0  0  0  0107  0  0
  -24.1342  -36.7390   23.2568 C   0  0  0  0  0  0  0  0  0108  0  0
  -25.9141  -30.8882   21.3456 C   0  0  0  0  0  0  0  0  0109  0  0
  -25.9930  -29.5029   20.7208 C   0  0  0  0  0  0  0  0  0110  0  0
  -27.1758  -28.7612   20.7331 C   0  0  0  0  0  0  0  0  0111  0  0
  -26.1032  -26.9836   19.5230 C   0  0  0  0  0  0  0  0  0112  0  0
  -24.9097  -27.7011   19.5331 C   0  0  0  0  0  0  0  0  0113  0  0
  -23.5715  -29.7899   20.1582 C   0  0  0  0  0  0  0  0  0114  0  0
  -25.3990  -36.3212   24.0232 C   0  0  1  0  0  0  0  0  0115  0  0
  -20.5793  -28.3813   23.1004 C   0  0  2  0  0  0  0  0  0116  0  0
  -20.6548  -26.9392   22.5411 C   0  0  0  0  0  0  0  0  0117  0  0
  -19.5615  -26.6407   21.5143 C   0  0  0  0  0  0  0  0  0118  0  0
  -18.1797  -26.7818   22.1673 C   0  0  0  0  0  0  0  0  0119  0  0
  -19.1385  -28.8769   23.2988 C   0  0  0  0  0  0  0  0  0120  0  0
  -18.9183  -30.1286   23.8878 C   0  0  0  0  0  0  0  0  0121  0  0
  -17.6396  -30.6493   24.0352 C   0  0  0  0  0  0  0  0  0122  0  0
  -25.9153  -34.9582   23.4993 C   0  0  0  0  0  0  0  0  0123  0  0
  -16.5415  -29.9068   23.6254 C   0  0  0  0  0  0  0  0  0124  0  0
  -16.7331  -28.6521   23.0586 C   0  0  0  0  0  0  0  0  0125  0  0
  -26.4583  -31.6439   25.0683 C   0  0  0  0  0  0  0  0  0126  0  0
  -25.3807  -31.3179   26.1374 C   0  0  0  0  0  0  0  0  0127  0  0
  -27.0530  -30.3024   24.5680 C   0  0  0  0  0  0  0  0  0128  0  0
  -27.6014  -32.4281   25.7651 C   0  0  0  0  0  0  0  0  0129  0  0
  -27.5629  -37.2220   24.8621 C   0  0  0  0  0  0  0  0  0130  0  0
  -21.4133  -29.3375   22.3735 N   0  0  0  0  0  0  0  0  0131  0  0
  -26.4706  -37.3372   23.9061 N   0  0  0  0  0  0  0  0  0132  0  0
  -24.6674  -31.0544   22.1178 N   0  0  0  0  0  0  0  0  0133  0  0
  -23.4259  -28.8150   23.2971 O   0  0  0  0  0  0  0  0  0134  0  0
  -28.3948  -26.7345   20.0089 O   0  0  0  0  0  0  0  0  0135  0  0
  -26.5870  -34.9065   22.4671 O   0  0  0  0  0  0  0  0  0136  0  0
  -23.5365  -32.1254   23.7833 O   0  0  0  0  0  0  0  0  0137  0  0
  -32.6639  -17.4276   23.4354 C   0  0  0  0  0  0  0  0  0  0  0  0
  -32.0567  -16.5375   22.5497 C   0  0  0  0  0  0  0  0  0  0  0  0
  -31.8863  -18.3351   24.1549 C   0  0  0  0  0  0  0  0  0  0  0  0
  -29.8943  -17.4623   23.1027 C   0  0  0  0  0  0  0  0  0  0  0  0
  -30.6719  -16.5548   22.3833 C   0  0  0  0  0  0  0  0  0  0  0  0
  -30.5015  -18.3524   23.9885 C   0  0  0  0  0  0  0  0  0  0  0  0
  -28.7821  -21.4567   24.7244 C   0  0  0  0  0  0  0  0  0  0  0  0
  -27.9904  -18.1827   21.6389 C   0  0  0  0  0  0  0  0  0  0  0  0
  -28.0589  -25.5643   23.2199 C   0  0  0  0  0  0  0  0  0  0  0  0
  -28.5657  -25.8340   25.6621 C   0  0  0  0  0  0  0  0  0  0  0  0
  -28.4081  -17.4895   22.9310 C   0  0  0  0  0  0  0  0  0  0  0  0
  -28.9248  -22.9575   24.5670 C   0  0  0  0  0  0  0  0  0  0  0  0
  -30.0300  -20.6245   24.5092 C   0  0  0  0  0  0  0  0  0  0  0  0
  -27.5982  -23.6606   24.8552 C   0  0  0  0  0  0  0  0  0  0  0  0
  -27.6275  -25.1863   24.6386 C   0  0  0  0  0  0  0  0  0  1  0  0
  -30.0757  -15.6421   21.4782 N   0  0  0  0  0  0  0  0  0  0  0  0
  -27.7022  -20.9515   25.0304 O   0  0  0  0  0  0  0  0  0  0  0  0
  -29.7523  -19.2538   24.7066 O   0  0  0  0  0  0  0  0  0  0  0  0
  -31.4485  -12.4701   19.0860 H   0  0  0  0  0  0  0  0  0  0  0  0
  -30.3970  -11.2460   19.6950 H   0  0  0  0  0  0  0  0  0  0  0  0
  -29.6870  -11.8204   17.4226 H   0  0  0  0  0  0  0  0  0  0  0  0
  -29.6375  -13.5326   17.8649 H   0  0  0  0  0  0  0  0  0  0  0  0
  -27.7830  -11.3650   18.7904 H   0  0  0  0  0  0  0  0  0  0  0  0
  -27.4028  -12.7801   17.8021 H   0  0  0  0  0  0  0  0  0  0  0  0
  -27.7353  -14.2503   19.6136 H   0  0  0  0  0  0  0  0  0  0  0  0
  -28.5890  -11.9550   21.3832 H   0  0  0  0  0  0  0  0  0  0  0  0
  -28.5005  -13.6134   21.8562 H   0  0  0  0  0  0  0  0  0  0  0  0
  -25.2399   -9.5495   22.4318 H   0  0  0  0  0  0  0  0  0  0  0  0
  -23.9663   -7.5070   22.7297 H   0  0  0  0  0  0  0  0  0  0  0  0
  -21.1515   -8.8641   19.9162 H   0  0  0  0  0  0  0  0  0  0  0  0
  -22.4016  -10.9115   19.6476 H   0  0  0  0  0  0  0  0  0  0  0  0
  -21.2319   -7.5552   23.9750 H   0  0  0  0  0  0  0  0  0  0  0  0
  -21.1589   -6.0228   25.8556 H   0  0  0  0  0  0  0  0  0  0  0  0
  -22.0396   -2.8212   23.2809 H   0  0  0  0  0  0  0  0  0  0  0  0
  -22.4401  -11.9703   22.4008 H   0  0  0  0  0  0  0  0  0  0  0  0
  -21.1493  -13.0679   22.2082 H   0  0  0  0  0  0  0  0  0  0  0  0
  -24.6538  -15.7807   20.5848 H   0  0  0  0  0  0  0  0  0  0  0  0
  -26.2762  -15.5453   20.1156 H   0  0  0  0  0  0  0  0  0  0  0  0
  -26.6778  -32.4663   23.1464 H   0  0  0  0  0  0  0  0  0  0  0  0
  -25.0747  -34.0282   25.0566 H   0  0  0  0  0  0  0  0  0  0  0  0
  -22.7881  -31.3489   21.4131 H   0  0  0  0  0  0  0  0  0  0  0  0
  -23.3854  -35.9823   23.3648 H   0  0  0  0  0  0  0  0  0  0  0  0
  -24.3696  -36.8624   22.2204 H   0  0  0  0  0  0  0  0  0  0  0  0
  -23.7669  -37.6632   23.6516 H   0  0  0  0  0  0  0  0  0  0  0  0
  -25.9445  -31.6237   20.5691 H   0  0  0  0  0  0  0  0  0  0  0  0
  -26.7436  -31.0079   22.0108 H   0  0  0  0  0  0  0  0  0  0  0  0
  -28.0090  -29.1452   21.2057 H   0  0  0  0  0  0  0  0  0  0  0  0
  -26.1369  -26.0560   19.0719 H   0  0  0  0  0  0  0  0  0  0  0  0
  -24.0652  -27.2961   19.0997 H   0  0  0  0  0  0  0  0  0  0  0  0
  -23.6156  -30.5365   19.3930 H   0  0  0  0  0  0  0  0  0  0  0  0
  -22.7355  -29.1425   19.9945 H   0  0  0  0  0  0  0  0  0  0  0  0
  -25.1353  -36.2335   25.0565 H   0  0  0  0  0  0  0  0  0  0  0  0
  -21.0070  -28.3206   24.0793 H   0  0  0  0  0  0  0  0  0  0  0  0
  -20.5555  -26.2518   23.3550 H   0  0  0  0  0  0  0  0  0  0  0  0
  -21.5974  -26.8362   22.0454 H   0  0  0  0  0  0  0  0  0  0  0  0
  -19.6810  -25.6422   21.1488 H   0  0  0  0  0  0  0  0  0  0  0  0
  -19.6406  -27.3343   20.7034 H   0  0  0  0  0  0  0  0  0  0  0  0
  -17.4282  -26.6888   21.4113 H   0  0  0  0  0  0  0  0  0  0  0  0
  -18.0803  -26.0130   22.9049 H   0  0  0  0  0  0  0  0  0  0  0  0
  -19.7265  -30.6774   24.2204 H   0  0  0  0  0  0  0  0  0  0  0  0
  -17.5064  -31.5856   24.4483 H   0  0  0  0  0  0  0  0  0  0  0  0
  -15.5878  -30.2839   23.7407 H   0  0  0  0  0  0  0  0  0  0  0  0
  -15.9120  -28.0941   22.7766 H   0  0  0  0  0  0  0  0  0  0  0  0
  -24.5787  -30.7757   25.6817 H   0  0  0  0  0  0  0  0  0  0  0  0
  -25.0041  -32.2289   26.5536 H   0  0  0  0  0  0  0  0  0  0  0  0
  -25.8166  -30.7245   26.9138 H   0  0  0  0  0  0  0  0  0  0  0  0
  -26.2892  -29.7335   24.0803 H   0  0  0  0  0  0  0  0  0  0  0  0
  -27.4336  -29.7484   25.4006 H   0  0  0  0  0  0  0  0  0  0  0  0
  -27.8466  -30.4994   23.8779 H   0  0  0  0  0  0  0  0  0  0  0  0
  -27.2251  -33.3632   26.1242 H   0  0  0  0  0  0  0  0  0  0  0  0
  -28.3902  -32.6065   25.0645 H   0  0  0  0  0  0  0  0  0  0  0  0
  -27.9772  -31.8555   26.5872 H   0  0  0  0  0  0  0  0  0  0  0  0
  -28.2744  -38.0016   24.6863 H   0  0  0  0  0  0  0  0  0  0  0  0
  -28.0396  -36.2711   24.7461 H   0  0  0  0  0  0  0  0  0  0  0  0
  -27.1773  -37.3087   25.8564 H   0  0  0  0  0  0  0  0  0  0  0  0
  -20.9627  -29.9365   21.7352 H   0  0  0  0  0  0  0  0  0  0  0  0
  -26.0447  -38.2561   24.0273 H   0  0  0  0  0  0  0  0  0  0  0  0
  -33.6885  -17.4148   23.5584 H   0  0  0  0  0  0  0  0  0  0  0  0
  -32.6320  -15.8661   22.0175 H   0  0  0  0  0  0  0  0  0  0  0  0
  -32.3356  -18.9936   24.8103 H   0  0  0  0  0  0  0  0  0  0  0  0
  -26.9233  -18.1776   21.5603 H   0  0  0  0  0  0  0  0  0  0  0  0
  -28.4121  -17.6640   20.8034 H   0  0  0  0  0  0  0  0  0  0  0  0
  -28.3427  -19.1930   21.6462 H   0  0  0  0  0  0  0  0  0  0  0  0
  -29.0330  -25.1666   23.0254 H   0  0  0  0  0  0  0  0  0  0  0  0
  -28.0836  -26.6299   23.1266 H   0  0  0  0  0  0  0  0  0  0  0  0
  -27.3618  -25.1607   22.5157 H   0  0  0  0  0  0  0  0  0  0  0  0
  -28.3451  -25.4550   26.6381 H   0  0  0  0  0  0  0  0  0  0  0  0
  -28.4270  -26.8949   25.6517 H   0  0  0  0  0  0  0  0  0  0  0  0
  -29.5802  -25.6044   25.4113 H   0  0  0  0  0  0  0  0  0  0  0  0
  -27.9751  -18.0123   23.7581 H   0  0  0  0  0  0  0  0  0  0  0  0
  -28.0639  -16.4773   22.8870 H   0  0  0  0  0  0  0  0  0  0  0  0
  -29.2286  -23.1781   23.5650 H   0  0  0  0  0  0  0  0  0  0  0  0
  -29.6578  -23.3079   25.2633 H   0  0  0  0  0  0  0  0  0  0  0  0
  -30.7835  -20.9343   25.2029 H   0  0  0  0  0  0  0  0  0  0  0  0
  -30.3711  -20.7667   23.5051 H   0  0  0  0  0  0  0  0  0  0  0  0
  -27.3339  -23.4721   25.8748 H   0  0  0  0  0  0  0  0  0  0  0  0
  -26.8860  -23.2666   24.1606 H   0  0  0  0  0  0  0  0  0  0  0  0
  -29.1170  -15.7849   21.3055 H   0  0  0  0  0  0  0  0  0  0  0  0
  1 25  1  0
  1 30  2  0
  1 86  1  0
  2  3  1  0
  2 25  1  0
  2 89  1  0
  2 90  1  0
  3  4  1  0
  3 91  1  0
  3 92  1  0
  4  5  1  0
  4 93  1  0
  4 94  1  0
  5  6  1  0
  5 26  1  0
  5 95  1  6
  6 25  1  0
  6 96  1  0
  6 97  1  0
  7  8  2  0
  7 26  1  0
  7 29  1  0
  8  9  1  0
  8 22  1  0
  9 10  1  0
  9 27  2  0
 10 11  2  0
 10 15  1  0
 11 12  1  0
 11 98  1  0
 12 13  2  0
 12 99  1  0
 13 14  1  0
 13 31  1  0
 14 15  2  0
 14100  1  0
 15101  1  0
 16 17  2  0
 16 21  1  0
 16 31  1  0
 17 18  1  0
 17102  1  0
 18 19  2  0
 18103  1  0
 19 20  1  0
 19 24  1  0
 20 21  2  0
 20104  1  0
 21 23  1  0
 22 28  1  0
 22 32  2  0
 26 27  1  0
 28105  1  0
 28106  1  0
 29107  1  0
 29108  1  0
 33 34  1  0
 33 66  1  0
 33 70  2  0
 34 36  1  0
 34 59  1  0
 34109  1  6
 35 44  2  0
 35 45  1  0
 35 68  1  0
 36 56  1  0
 36110  1  0
 37 39  1  0
 37 47  1  0
 37 66  1  0
 37111  1  6
 38 43  2  0
 38 46  1  0
 38 47  1  0
 39 64  1  0
 39 67  2  0
 40 52  1  0
 40 53  2  0
 40 58  1  0
 41112  1  0
 41113  1  0
 41114  1  0
 42 43  1  0
 42 66  1  0
 42115  1  0
 42116  1  0
 43 44  1  0
 44117  1  0
 45 46  2  0
 45118  1  0
 46119  1  0
 47120  1  0
 47121  1  0
 48 41  1  0
 48 56  1  0
 48 65  1  0
 48122  1  1
 49 50  1  0
 49 53  1  0
 49 64  1  0
 49123  1  1
 50 51  1  0
 50124  1  0
 50125  1  0
 51 52  1  0
 51126  1  0
 51127  1  0
 52128  1  0
 52129  1  0
 53 54  1  0
 54 55  2  0
 54130  1  0
 55 57  1  0
 55131  1  0
 56 69  2  0
 57 58  2  0
 57132  1  0
 58133  1  0
 59 60  1  0
 59 61  1  0
 59 62  1  0
 60134  1  0
 60135  1  0
 60136  1  0
 61137  1  0
 61138  1  0
 61139  1  0
 62140  1  0
 62141  1  0
 62142  1  0
 63 65  1  0
 63143  1  0
 63144  1  0
 63145  1  0
 64146  1  0
 65147  1  0
 68 85  1  0
 71 72  2  0
 71 73  1  0
 71148  1  0
 72 75  1  0
 72149  1  0
 73 76  2  0
 73150  1  0
 74 75  2  0
 74 76  1  0
 74 81  1  0
 75 86  1  0
 76 88  1  0
 77 82  1  0
 77 83  1  0
 77 87  2  0
 78 81  1  0
 78151  1  0
 78152  1  0
 78153  1  0
 79154  1  0
 79155  1  0
 79156  1  0
 80 85  1  0
 80157  1  0
 80158  1  0
 80159  1  0
 81160  1  0
 81161  1  0
 82 84  1  0
 82162  1  0
 82163  1  0
 83 88  1  0
 83164  1  0
 83165  1  0
 84 85  1  0
 84166  1  0
 84167  1  0
 85 79  1  0
 86168  1  0
M  ISO  4   1 100  68 101  85 101  86 100
M  END
$$$$
75
     RDKit          3D

159167  0  0  0  0  0  0  0  0999 V2000
  -30.7652  -14.3608   20.6636 C   0  0  0  0  0  0  0  0  0100  0  0
  -30.4392  -12.2669   19.3775 C   0  0  0  0  0  0  0  0  0101  0  0
  -29.4791  -12.5281   18.1977 C   0  0  0  0  0  0  0  0  0102  0  0
  -27.9985  -12.3963   18.6038 C   0  0  0  0  0  0  0  0  0103  0  0
  -27.6639  -13.2170   19.8820 C   0  0  2  0  0  0  0  0  0104  0  0
  -28.6795  -12.9602   21.0279 C   0  0  0  0  0  0  0  0  0105  0  0
  -25.2633  -13.8245   20.5754 C   0  0  0  0  0  0  0  0  0106  0  0
  -24.1645  -13.0409   20.9408 C   0  0  0  0  0  0  0  0  0107  0  0
  -24.6400  -11.7009   20.8697 C   0  0  0  0  0  0  0  0  0108  0  0
  -23.9005  -10.4085   21.0420 C   0  0  0  0  0  0  0  0  0109  0  0
  -24.3588   -9.4123   21.9123 C   0  0  0  0  0  0  0  0  0110  0  0
  -23.6296   -8.2350   22.0803 C   0  0  0  0  0  0  0  0  0111  0  0
  -22.4385   -8.0419   21.3657 C   0  0  0  0  0  0  0  0  0112  0  0
  -22.0103   -9.0167   20.4678 C   0  0  0  0  0  0  0  0  0113  0  0
  -22.7317  -10.1925   20.3102 C   0  0  0  0  0  0  0  0  0114  0  0
  -21.6857   -6.0709   22.5391 C   0  0  0  0  0  0  0  0  0115  0  0
  -21.4064   -6.5490   23.8264 C   0  0  0  0  0  0  0  0  0116  0  0
  -21.3635   -5.6677   24.9085 C   0  0  0  0  0  0  0  0  0117  0  0
  -21.5973   -4.3067   24.7088 C   0  0  0  0  0  0  0  0  0118  0  0
  -21.8700   -3.8284   23.4282 C   0  0  0  0  0  0  0  0  0119  0  0
  -21.9144   -4.7056   22.3460 C   0  0  0  0  0  0  0  0  0120  0  0
  -22.8194  -13.5263   21.1763 C   0  0  0  0  0  0  0  0  0121  0  0
  -22.1559   -4.2206   21.1063 F   0  0  0  0  0  0  0  0  0122  0  0
  -21.5628   -3.4510   25.7555 F   0  0  0  0  0  0  0  0  0123  0  0
  -30.0261  -13.1803   20.4553 N   0  0  0  0  0  0  0  0  0124  0  0
  -26.2911  -12.9356   20.3443 N   0  0  0  0  0  0  0  0  0125  0  0
  -25.9236  -11.6675   20.5847 N   0  0  0  0  0  0  0  0  0126  0  0
  -22.0708  -12.7905   22.0005 N   0  0  0  0  0  0  0  0  0127  0  0
  -25.4117  -15.1773   20.4097 N   0  0  0  0  0  0  0  0  0128  0  0
  -31.7916  -14.6724   20.0536 O   0  0  0  0  0  0  0  0  0129  0  0
  -21.6670   -6.9022   21.4423 O   0  0  0  0  0  0  0  0  0130  0  0
  -22.3946  -14.5564   20.6568 O   0  0  0  0  0  0  0  0  0131  0  0
  -24.6048  -31.8614   23.2223 C   0  0  0  0  0  0  0  0  0100  0  0
  -25.8822  -32.4841   23.8616 C   0  0  1  0  0  0  0  0  0101  0  0
  -27.2536  -27.5042   20.1156 C   0  0  0  0  0  0  0  0  0102  0  0
  -25.5726  -33.8762   24.2210 N   0  0  0  0  0  0  0  0  0103  0  0
  -23.4066  -30.4859   21.5461 C   0  0  2  0  0  0  0  0  0104  0  0
  -24.8467  -28.9636   20.1247 C   0  0  0  0  0  0  0  0  0105  0  0
  -22.7412  -29.4652   22.5052 C   0  0  0  0  0  0  0  0  0106  0  0
  -18.0167  -28.1302   22.8626 C   0  0  0  0  0  0  0  0  0107  0  0
  -24.1342  -36.7390   23.2568 C   0  0  0  0  0  0  0  0  0108  0  0
  -25.9141  -30.8882   21.3456 C   0  0  0  0  0  0  0  0  0109  0  0
  -25.9930  -29.5029   20.7208 C   0  0  0  0  0  0  0  0  0110  0  0
  -27.1758  -28.7612   20.7331 C   0  0  0  0  0  0  0  0  0111  0  0
  -26.1032  -26.9836   19.5230 C   0  0  0  0  0  0  0  0  0112  0  0
  -24.9097  -27.7011   19.5331 C   0  0  0  0  0  0  0  0  0113  0  0
  -23.5715  -29.7899   20.1582 C   0  0  0  0  0  0  0  0  0114  0  0
  -25.3990  -36.3212   24.0232 C   0  0  1  0  0  0  0  0  0115  0  0
  -20.5793  -28.3813   23.1004 C   0  0  2  0  0  0  0  0  0116  0  0
  -20.6548  -26.9392   22.5411 C   0  0  0  0  0  0  0  0  0117  0  0
  -19.5615  -26.6407   21.5143 C   0  0  0  0  0  0  0  0  0118  0  0
  -18.1797  -26.7818   22.1673 C   0  0  0  0  0  0  0  0  0119  0  0
  -19.1385  -28.8769   23.2988 C   0  0  0  0  0  0  0  0  0120  0  0
  -18.9183  -30.1286   23.8878 C   0  0  0  0  0  0  0  0  0121  0  0
  -17.6396  -30.6493   24.0352 C   0  0  0  0  0  0  0  0  0122  0  0
  -25.9153  -34.9582   23.4993 C   0  0  0  0  0  0  0  0  0123  0  0
  -16.5415  -29.9068   23.6254 C   0  0  0  0  0  0  0  0  0124  0  0
  -16.7331  -28.6521   23.0586 C   0  0  0  0  0  0  0  0  0125  0  0
  -26.4583  -31.6439   25.0683 C   0  0  0  0  0  0  0  0  0126  0  0
  -25.3807  -31.3179   26.1374 C   0  0  0  0  0  0  0  0  0127  0  0
  -27.0530  -30.3024   24.5680 C   0  0  0  0  0  0  0  0  0128  0  0
  -27.6014  -32.4281   25.7651 C   0  0  0  0  0  0  0  0  0129  0  0
  -27.5629  -37.2220   24.8621 C   0  0  0  0  0  0  0  0  0130  0  0
  -21.4133  -29.3375   22.3735 N   0  0  0  0  0  0  0  0  0131  0  0
  -26.4706  -37.3372   23.9061 N   0  0  0  0  0  0  0  0  0132  0  0
  -24.6674  -31.0544   22.1178 N   0  0  0  0  0  0  0  0  0133  0  0
  -23.4259  -28.8150   23.2971 O   0  0  0  0  0  0  0  0  0134  0  0
  -28.3948  -26.7345   20.0089 O   0  0  0  0  0  0  0  0  0135  0  0
  -26.5870  -34.9065   22.4671 O   0  0  0  0  0  0  0  0  0136  0  0
  -23.5365  -32.1254   23.7833 O   0  0  0  0  0  0  0  0  0137  0  0
  -21.0943  -23.8064   22.5043 C   0  0  0  0  0  0  0  0  0  0  0  0
  -19.3919  -22.7890   23.7163 C   0  0  0  0  0  0  0  0  0  0  0  0
  -20.0321  -23.9767   23.4385 C   0  0  0  0  0  0  0  0  0  0  0  0
  -21.2258  -22.4948   22.1037 C   0  0  0  0  0  0  0  0  0  0  0  0
  -17.9675  -27.2913   21.0196 C   0  0  0  0  0  0  0  0  0  0  0  0
  -18.3874  -27.4605   24.1293 C   0  0  0  0  0  0  0  0  0  0  0  0
  -17.2334  -25.4213   23.2962 C   0  0  0  0  0  0  0  0  0  0  0  0
  -19.6532  -25.3060   24.0528 C   0  0  0  0  0  0  0  0  0  0  0  0
  -20.3646  -27.2800   21.7430 C   0  0  0  0  0  0  0  0  0  1  0  0
  -19.0298  -26.5128   21.8218 C   0  0  1  0  0  0  0  0  0  0  0  0
  -18.5864  -26.1711   23.2958 C   0  0  0  0  0  0  0  0  0  0  0  0
  -22.1354  -21.8877   21.2027 N   0  0  0  0  0  0  0  0  0  0  0  0
  -20.0714  -21.4756   22.8526 S   0  0  0  0  0  0  0  0  0  0  0  0
  -31.4485  -12.4701   19.0860 H   0  0  0  0  0  0  0  0  0  0  0  0
  -30.3970  -11.2460   19.6950 H   0  0  0  0  0  0  0  0  0  0  0  0
  -29.6870  -11.8204   17.4226 H   0  0  0  0  0  0  0  0  0  0  0  0
  -29.6375  -13.5326   17.8649 H   0  0  0  0  0  0  0  0  0  0  0  0
  -27.7830  -11.3650   18.7904 H   0  0  0  0  0  0  0  0  0  0  0  0
  -27.4028  -12.7801   17.8021 H   0  0  0  0  0  0  0  0  0  0  0  0
  -27.7353  -14.2503   19.6136 H   0  0  0  0  0  0  0  0  0  0  0  0
  -28.5890  -11.9550   21.3832 H   0  0  0  0  0  0  0  0  0  0  0  0
  -28.5005  -13.6134   21.8562 H   0  0  0  0  0  0  0  0  0  0  0  0
  -25.2399   -9.5495   22.4318 H   0  0  0  0  0  0  0  0  0  0  0  0
  -23.9663   -7.5070   22.7297 H   0  0  0  0  0  0  0  0  0  0  0  0
  -21.1515   -8.8641   19.9162 H   0  0  0  0  0  0  0  0  0  0  0  0
  -22.4016  -10.9115   19.6476 H   0  0  0  0  0  0  0  0  0  0  0  0
  -21.2319   -7.5552   23.9750 H   0  0  0  0  0  0  0  0  0  0  0  0
  -21.1589   -6.0228   25.8556 H   0  0  0  0  0  0  0  0  0  0  0  0
  -22.0396   -2.8212   23.2809 H   0  0  0  0  0  0  0  0  0  0  0  0
  -22.4401  -11.9703   22.4008 H   0  0  0  0  0  0  0  0  0  0  0  0
  -21.1493  -13.0679   22.2082 H   0  0  0  0  0  0  0  0  0  0  0  0
  -24.6538  -15.7807   20.5848 H   0  0  0  0  0  0  0  0  0  0  0  0
  -26.2762  -15.5453   20.1156 H   0  0  0  0  0  0  0  0  0  0  0  0
  -26.6778  -32.4663   23.1464 H   0  0  0  0  0  0  0  0  0  0  0  0
  -25.0747  -34.0282   25.0566 H   0  0  0  0  0  0  0  0  0  0  0  0
  -22.7881  -31.3489   21.4131 H   0  0  0  0  0  0  0  0  0  0  0  0
  -23.3854  -35.9823   23.3648 H   0  0  0  0  0  0  0  0  0  0  0  0
  -24.3696  -36.8624   22.2204 H   0  0  0  0  0  0  0  0  0  0  0  0
  -23.7669  -37.6632   23.6516 H   0  0  0  0  0  0  0  0  0  0  0  0
  -25.9445  -31.6237   20.5691 H   0  0  0  0  0  0  0  0  0  0  0  0
  -26.7436  -31.0079   22.0108 H   0  0  0  0  0  0  0  0  0  0  0  0
  -28.0090  -29.1452   21.2057 H   0  0  0  0  0  0  0  0  0  0  0  0
  -26.1369  -26.0560   19.0719 H   0  0  0  0  0  0  0  0  0  0  0  0
  -24.0652  -27.2961   19.0997 H   0  0  0  0  0  0  0  0  0  0  0  0
  -23.6156  -30.5365   19.3930 H   0  0  0  0  0  0  0  0  0  0  0  0
  -22.7355  -29.1425   19.9945 H   0  0  0  0  0  0  0  0  0  0  0  0
  -25.1353  -36.2335   25.0565 H   0  0  0  0  0  0  0  0  0  0  0  0
  -21.0070  -28.3206   24.0793 H   0  0  0  0  0  0  0  0  0  0  0  0
  -20.5555  -26.2518   23.3550 H   0  0  0  0  0  0  0  0  0  0  0  0
  -21.5974  -26.8362   22.0454 H   0  0  0  0  0  0  0  0  0  0  0  0
  -19.6810  -25.6422   21.1488 H   0  0  0  0  0  0  0  0  0  0  0  0
  -19.6406  -27.3343   20.7034 H   0  0  0  0  0  0  0  0  0  0  0  0
  -17.4282  -26.6888   21.4113 H   0  0  0  0  0  0  0  0  0  0  0  0
  -18.0803  -26.0130   22.9049 H   0  0  0  0  0  0  0  0  0  0  0  0
  -19.7265  -30.6774   24.2204 H   0  0  0  0  0  0  0  0  0  0  0  0
  -17.5064  -31.5856   24.4483 H   0  0  0  0  0  0  0  0  0  0  0  0
  -15.5878  -30.2839   23.7407 H   0  0  0  0  0  0  0  0  0  0  0  0
  -15.9120  -28.0941   22.7766 H   0  0  0  0  0  0  0  0  0  0  0  0
  -24.5787  -30.7757   25.6817 H   0  0  0  0  0  0  0  0  0  0  0  0
  -25.0041  -32.2289   26.5536 H   0  0  0  0  0  0  0  0  0  0  0  0
  -25.8166  -30.7245   26.9138 H   0  0  0  0  0  0  0  0  0  0  0  0
  -26.2892  -29.7335   24.0803 H   0  0  0  0  0  0  0  0  0  0  0  0
  -27.4336  -29.7484   25.4006 H   0  0  0  0  0  0  0  0  0  0  0  0
  -27.8466  -30.4994   23.8779 H   0  0  0  0  0  0  0  0  0  0  0  0
  -27.2251  -33.3632   26.1242 H   0  0  0  0  0  0  0  0  0  0  0  0
  -28.3902  -32.6065   25.0645 H   0  0  0  0  0  0  0  0  0  0  0  0
  -27.9772  -31.8555   26.5872 H   0  0  0  0  0  0  0  0  0  0  0  0
  -28.2744  -38.0016   24.6863 H   0  0  0  0  0  0  0  0  0  0  0  0
  -28.0396  -36.2711   24.7461 H   0  0  0  0  0  0  0  0  0  0  0  0
  -27.1773  -37.3087   25.8564 H   0  0  0  0  0  0  0  0  0  0  0  0
  -20.9627  -29.9365   21.7352 H   0  0  0  0  0  0  0  0  0  0  0  0
  -26.0447  -38.2561   24.0273 H   0  0  0  0  0  0  0  0  0  0  0  0
  -21.6946  -24.5752   22.1673 H   0  0  0  0  0  0  0  0  0  0  0  0
  -18.5966  -22.7011   24.3680 H   0  0  0  0  0  0  0  0  0  0  0  0
  -18.3367  -27.4865   20.0345 H   0  0  0  0  0  0  0  0  0  0  0  0
  -17.7571  -28.2178   21.5117 H   0  0  0  0  0  0  0  0  0  0  0  0
  -17.0716  -26.7097   20.9560 H   0  0  0  0  0  0  0  0  0  0  0  0
  -18.0875  -27.2002   25.1229 H   0  0  0  0  0  0  0  0  0  0  0  0
  -17.6306  -28.0655   23.6752 H   0  0  0  0  0  0  0  0  0  0  0  0
  -19.3066  -28.0070   24.1658 H   0  0  0  0  0  0  0  0  0  0  0  0
  -16.9495  -25.1984   24.3035 H   0  0  0  0  0  0  0  0  0  0  0  0
  -17.3302  -24.5105   22.7430 H   0  0  0  0  0  0  0  0  0  0  0  0
  -16.4846  -26.0364   22.8424 H   0  0  0  0  0  0  0  0  0  0  0  0
  -20.5459  -25.8909   24.1287 H   0  0  0  0  0  0  0  0  0  0  0  0
  -19.1919  -25.0558   24.9853 H   0  0  0  0  0  0  0  0  0  0  0  0
  -20.4173  -27.6609   22.7415 H   0  0  0  0  0  0  0  0  0  0  0  0
  -20.1567  -27.5524   20.7294 H   0  0  0  0  0  0  0  0  0  0  0  0
  -19.1577  -25.5487   21.3757 H   0  0  0  0  0  0  0  0  0  0  0  0
  -21.9652  -22.2380   20.2985 H   0  0  0  0  0  0  0  0  0  0  0  0
  1 25  1  0
  1 30  2  0
  1 82  1  0
  2  3  1  0
  2 25  1  0
  2 84  1  0
  2 85  1  0
  3  4  1  0
  3 86  1  0
  3 87  1  0
  4  5  1  0
  4 88  1  0
  4 89  1  0
  5  6  1  0
  5 26  1  0
  5 90  1  6
  6 25  1  0
  6 91  1  0
  6 92  1  0
  7  8  2  0
  7 26  1  0
  7 29  1  0
  8  9  1  0
  8 22  1  0
  9 10  1  0
  9 27  2  0
 10 11  2  0
 10 15  1  0
 11 12  1  0
 11 93  1  0
 12 13  2  0
 12 94  1  0
 13 14  1  0
 13 31  1  0
 14 15  2  0
 14 95  1  0
 15 96  1  0
 16 17  2  0
 16 21  1  0
 16 31  1  0
 17 18  1  0
 17 97  1  0
 18 19  2  0
 18 98  1  0
 19 20  1  0
 19 24  1  0
 20 21  2  0
 20 99  1  0
 21 23  1  0
 22 28  1  0
 22 32  2  0
 26 27  1  0
 28100  1  0
 28101  1  0
 29102  1  0
 29103  1  0
 33 34  1  0
 33 66  1  0
 33 70  2  0
 34 36  1  0
 34 59  1  0
 34104  1  6
 35 44  2  0
 35 45  1  0
 35 68  1  0
 36 56  1  0
 36105  1  0
 37 39  1  0
 37 47  1  0
 37 66  1  0
 37106  1  6
 38 43  2  0
 38 46  1  0
 38 47  1  0
 39 64  1  0
 39 67  2  0
 40 52  1  0
 40 53  2  0
 40 58  1  0
 41107  1  0
 41108  1  0
 41109  1  0
 42 43  1  0
 42 66  1  0
 42110  1  0
 42111  1  0
 43 44  1  0
 44112  1  0
 45 46  2  0
 45113  1  0
 46114  1  0
 47115  1  0
 47116  1  0
 48 41  1  0
 48 56  1  0
 48 65  1  0
 48117  1  1
 49 50  1  0
 49 53  1  0
 49 64  1  0
 49118  1  1
 50 51  1  0
 50119  1  0
 50120  1  0
 51 52  1  0
 51121  1  0
 51122  1  0
 52123  1  0
 52124  1  0
 53 54  1  0
 54 55  2  0
 54125  1  0
 55 57  1  0
 55126  1  0
 56 69  2  0
 57 58  2  0
 57127  1  0
 58128  1  0
 59 60  1  0
 59 61  1  0
 59 62  1  0
 60129  1  0
 60130  1  0
 60131  1  0
 61132  1  0
 61133  1  0
 61134  1  0
 62135  1  0
 62136  1  0
 62137  1  0
 63 65  1  0
 63138  1  0
 63139  1  0
 63140  1  0
 64141  1  0
 65142  1  0
 68 79  1  0
 71 73  1  0
 71 74  2  0
 71143  1  0
 72 73  2  0
 72 83  1  0
 72144  1  0
 73 78  1  0
 74 82  1  0
 74 83  1  0
 75145  1  0
 75146  1  0
 75147  1  0
 76148  1  0
 76149  1  0
 76150  1  0
 77 81  1  0
 77151  1  0
 77152  1  0
 77153  1  0
 78 81  1  0
 78154  1  0
 78155  1  0
 79 80  1  0
 79156  1  0
 79157  1  0
 80 75  1  0
 80 81  1  0
 80158  1  6
 81 76  1  0
 82159  1  0
M  ISO  4   1 100  68 101  79 101  82 100
M  END
$$$$
76
     RDKit          3D

165173  0  0  0  0  0  0  0  0999 V2000
  -30.7652  -14.3608   20.6636 C   0  0  0  0  0  0  0  0  0100  0  0
  -30.4392  -12.2669   19.3775 C   0  0  0  0  0  0  0  0  0101  0  0
  -29.4791  -12.5281   18.1977 C   0  0  0  0  0  0  0  0  0102  0  0
  -27.9985  -12.3963   18.6038 C   0  0  0  0  0  0  0  0  0103  0  0
  -27.6639  -13.2170   19.8820 C   0  0  2  0  0  0  0  0  0104  0  0
  -28.6795  -12.9602   21.0279 C   0  0  0  0  0  0  0  0  0105  0  0
  -25.2633  -13.8245   20.5754 C   0  0  0  0  0  0  0  0  0106  0  0
  -24.1645  -13.0409   20.9408 C   0  0  0  0  0  0  0  0  0107  0  0
  -24.6400  -11.7009   20.8697 C   0  0  0  0  0  0  0  0  0108  0  0
  -23.9005  -10.4085   21.0420 C   0  0  0  0  0  0  0  0  0109  0  0
  -24.3588   -9.4123   21.9123 C   0  0  0  0  0  0  0  0  0110  0  0
  -23.6296   -8.2350   22.0803 C   0  0  0  0  0  0  0  0  0111  0  0
  -22.4385   -8.0419   21.3657 C   0  0  0  0  0  0  0  0  0112  0  0
  -22.0103   -9.0167   20.4678 C   0  0  0  0  0  0  0  0  0113  0  0
  -22.7317  -10.1925   20.3102 C   0  0  0  0  0  0  0  0  0114  0  0
  -21.6857   -6.0709   22.5391 C   0  0  0  0  0  0  0  0  0115  0  0
  -21.4064   -6.5490   23.8264 C   0  0  0  0  0  0  0  0  0116  0  0
  -21.3635   -5.6677   24.9085 C   0  0  0  0  0  0  0  0  0117  0  0
  -21.5973   -4.3067   24.7088 C   0  0  0  0  0  0  0  0  0118  0  0
  -21.8700   -3.8284   23.4282 C   0  0  0  0  0  0  0  0  0119  0  0
  -21.9144   -4.7056   22.3460 C   0  0  0  0  0  0  0  0  0120  0  0
  -22.8194  -13.5263   21.1763 C   0  0  0  0  0  0  0  0  0121  0  0
  -22.1559   -4.2206   21.1063 F   0  0  0  0  0  0  0  0  0122  0  0
  -21.5628   -3.4510   25.7555 F   0  0  0  0  0  0  0  0  0123  0  0
  -30.0261  -13.1803   20.4553 N   0  0  0  0  0  0  0  0  0124  0  0
  -26.2911  -12.9356   20.3443 N   0  0  0  0  0  0  0  0  0125  0  0
  -25.9236  -11.6675   20.5847 N   0  0  0  0  0  0  0  0  0126  0  0
  -22.0708  -12.7905   22.0005 N   0  0  0  0  0  0  0  0  0127  0  0
  -25.4117  -15.1773   20.4097 N   0  0  0  0  0  0  0  0  0128  0  0
  -31.7916  -14.6724   20.0536 O   0  0  0  0  0  0  0  0  0129  0  0
  -21.6670   -6.9022   21.4423 O   0  0  0  0  0  0  0  0  0130  0  0
  -22.3946  -14.5564   20.6568 O   0  0  0  0  0  0  0  0  0131  0  0
  -24.6048  -31.8614   23.2223 C   0  0  0  0  0  0  0  0  0100  0  0
  -25.8822  -32.4841   23.8616 C   0  0  1  0  0  0  0  0  0101  0  0
  -27.2536  -27.5042   20.1156 C   0  0  0  0  0  0  0  0  0102  0  0
  -25.5726  -33.8762   24.2210 N   0  0  0  0  0  0  0  0  0103  0  0
  -23.4066  -30.4859   21.5461 C   0  0  2  0  0  0  0  0  0104  0  0
  -24.8467  -28.9636   20.1247 C   0  0  0  0  0  0  0  0  0105  0  0
  -22.7412  -29.4652   22.5052 C   0  0  0  0  0  0  0  0  0106  0  0
  -18.0167  -28.1302   22.8626 C   0  0  0  0  0  0  0  0  0107  0  0
  -24.1342  -36.7390   23.2568 C   0  0  0  0  0  0  0  0  0108  0  0
  -25.9141  -30.8882   21.3456 C   0  0  0  0  0  0  0  0  0109  0  0
  -25.9930  -29.5029   20.7208 C   0  0  0  0  0  0  0  0  0110  0  0
  -27.1758  -28.7612   20.7331 C   0  0  0  0  0  0  0  0  0111  0  0
  -26.1032  -26.9836   19.5230 C   0  0  0  0  0  0  0  0  0112  0  0
  -24.9097  -27.7011   19.5331 C   0  0  0  0  0  0  0  0  0113  0  0
  -23.5715  -29.7899   20.1582 C   0  0  0  0  0  0  0  0  0114  0  0
  -25.3990  -36.3212   24.0232 C   0  0  1  0  0  0  0  0  0115  0  0
  -20.5793  -28.3813   23.1004 C   0  0  2  0  0  0  0  0  0116  0  0
  -20.6548  -26.9392   22.5411 C   0  0  0  0  0  0  0  0  0117  0  0
  -19.5615  -26.6407   21.5143 C   0  0  0  0  0  0  0  0  0118  0  0
  -18.1797  -26.7818   22.1673 C   0  0  0  0  0  0  0  0  0119  0  0
  -19.1385  -28.8769   23.2988 C   0  0  0  0  0  0  0  0  0120  0  0
  -18.9183  -30.1286   23.8878 C   0  0  0  0  0  0  0  0  0121  0  0
  -17.6396  -30.6493   24.0352 C   0  0  0  0  0  0  0  0  0122  0  0
  -25.9153  -34.9582   23.4993 C   0  0  0  0  0  0  0  0  0123  0  0
  -16.5415  -29.9068   23.6254 C   0  0  0  0  0  0  0  0  0124  0  0
  -16.7331  -28.6521   23.0586 C   0  0  0  0  0  0  0  0  0125  0  0
  -26.4583  -31.6439   25.0683 C   0  0  0  0  0  0  0  0  0126  0  0
  -25.3807  -31.3179   26.1374 C   0  0  0  0  0  0  0  0  0127  0  0
  -27.0530  -30.3024   24.5680 C   0  0  0  0  0  0  0  0  0128  0  0
  -27.6014  -32.4281   25.7651 C   0  0  0  0  0  0  0  0  0129  0  0
  -27.5629  -37.2220   24.8621 C   0  0  0  0  0  0  0  0  0130  0  0
  -21.4133  -29.3375   22.3735 N   0  0  0  0  0  0  0  0  0131  0  0
  -26.4706  -37.3372   23.9061 N   0  0  0  0  0  0  0  0  0132  0  0
  -24.6674  -31.0544   22.1178 N   0  0  0  0  0  0  0  0  0133  0  0
  -23.4259  -28.8150   23.2971 O   0  0  0  0  0  0  0  0  0134  0  0
  -28.3948  -26.7345   20.0089 O   0  0  0  0  0  0  0  0  0135  0  0
  -26.5870  -34.9065   22.4671 O   0  0  0  0  0  0  0  0  0136  0  0
  -23.5365  -32.1254   23.7833 O   0  0  0  0  0  0  0  0  0137  0  0
  -30.3468  -19.6838   16.6621 C   0  0  0  0  0  0  0  0  0  0  0  0
  -29.0375  -19.5178   18.6857 C   0  0  0  0  0  0  0  0  0  0  0  0
  -29.1751  -17.6349   17.1781 C   0  0  0  0  0  0  0  0  0  0  0  0
  -29.8645  -20.2561   17.8392 C   0  0  0  0  0  0  0  0  0  0  0  0
  -30.0020  -18.3732   16.3316 C   0  0  0  0  0  0  0  0  0  0  0  0
  -28.6928  -18.2072   18.3553 C   0  0  0  0  0  0  0  0  0  0  0  0
  -30.5930  -25.4275   17.1555 C   0  0  0  0  0  0  0  0  0  0  0  0
  -30.2329  -21.6515   18.1916 C   0  0  0  0  0  0  0  0  0  0  0  0
  -31.4313  -24.4021   16.9091 C   0  0  0  0  0  0  0  0  0  0  0  0
  -30.0299  -25.7956   18.4872 C   0  0  0  0  0  0  0  0  0  0  0  0
  -31.8994  -24.1824   15.4876 C   0  0  0  0  0  0  0  0  0  0  0  0
  -33.4701  -23.4223   18.0397 C   0  0  0  0  0  0  0  0  0  0  0  0
  -28.6631  -26.4467   18.4572 C   0  0  0  0  0  0  0  0  0  1  0  0
  -31.9468  -23.4300   17.9563 C   0  0  2  0  0  0  0  0  0  0  0  0
  -30.4891  -17.7944   15.1413 N   0  0  0  0  0  0  0  0  0  0  0  0
  -27.8521  -17.4577   19.2150 N   0  0  0  0  0  0  0  0  0  0  0  0
  -31.4394  -22.1054   17.6822 N   0  0  0  0  0  0  0  0  0  0  0  0
  -29.4836  -22.3063   18.9115 O   0  0  0  0  0  0  0  0  0  0  0  0
  -30.6456  -25.6066   19.5319 O   0  0  0  0  0  0  0  0  0  0  0  0
  -31.4485  -12.4701   19.0860 H   0  0  0  0  0  0  0  0  0  0  0  0
  -30.3970  -11.2460   19.6950 H   0  0  0  0  0  0  0  0  0  0  0  0
  -29.6870  -11.8204   17.4226 H   0  0  0  0  0  0  0  0  0  0  0  0
  -29.6375  -13.5326   17.8649 H   0  0  0  0  0  0  0  0  0  0  0  0
  -27.7830  -11.3650   18.7904 H   0  0  0  0  0  0  0  0  0  0  0  0
  -27.4028  -12.7801   17.8021 H   0  0  0  0  0  0  0  0  0  0  0  0
  -27.7353  -14.2503   19.6136 H   0  0  0  0  0  0  0  0  0  0  0  0
  -28.5890  -11.9550   21.3832 H   0  0  0  0  0  0  0  0  0  0  0  0
  -28.5005  -13.6134   21.8562 H   0  0  0  0  0  0  0  0  0  0  0  0
  -25.2399   -9.5495   22.4318 H   0  0  0  0  0  0  0  0  0  0  0  0
  -23.9663   -7.5070   22.7297 H   0  0  0  0  0  0  0  0  0  0  0  0
  -21.1515   -8.8641   19.9162 H   0  0  0  0  0  0  0  0  0  0  0  0
  -22.4016  -10.9115   19.6476 H   0  0  0  0  0  0  0  0  0  0  0  0
  -21.2319   -7.5552   23.9750 H   0  0  0  0  0  0  0  0  0  0  0  0
  -21.1589   -6.0228   25.8556 H   0  0  0  0  0  0  0  0  0  0  0  0
  -22.0396   -2.8212   23.2809 H   0  0  0  0  0  0  0  0  0  0  0  0
  -22.4401  -11.9703   22.4008 H   0  0  0  0  0  0  0  0  0  0  0  0
  -21.1493  -13.0679   22.2082 H   0  0  0  0  0  0  0  0  0  0  0  0
  -24.6538  -15.7807   20.5848 H   0  0  0  0  0  0  0  0  0  0  0  0
  -26.2762  -15.5453   20.1156 H   0  0  0  0  0  0  0  0  0  0  0  0
  -26.6778  -32.4663   23.1464 H   0  0  0  0  0  0  0  0  0  0  0  0
  -25.0747  -34.0282   25.0566 H   0  0  0  0  0  0  0  0  0  0  0  0
  -22.7881  -31.3489   21.4131 H   0  0  0  0  0  0  0  0  0  0  0  0
  -23.3854  -35.9823   23.3648 H   0  0  0  0  0  0  0  0  0  0  0  0
  -24.3696  -36.8624   22.2204 H   0  0  0  0  0  0  0  0  0  0  0  0
  -23.7669  -37.6632   23.6516 H   0  0  0  0  0  0  0  0  0  0  0  0
  -25.9445  -31.6237   20.5691 H   0  0  0  0  0  0  0  0  0  0  0  0
  -26.7436  -31.0079   22.0108 H   0  0  0  0  0  0  0  0  0  0  0  0
  -28.0090  -29.1452   21.2057 H   0  0  0  0  0  0  0  0  0  0  0  0
  -26.1369  -26.0560   19.0719 H   0  0  0  0  0  0  0  0  0  0  0  0
  -24.0652  -27.2961   19.0997 H   0  0  0  0  0  0  0  0  0  0  0  0
  -23.6156  -30.5365   19.3930 H   0  0  0  0  0  0  0  0  0  0  0  0
  -22.7355  -29.1425   19.9945 H   0  0  0  0  0  0  0  0  0  0  0  0
  -25.1353  -36.2335   25.0565 H   0  0  0  0  0  0  0  0  0  0  0  0
  -21.0070  -28.3206   24.0793 H   0  0  0  0  0  0  0  0  0  0  0  0
  -20.5555  -26.2518   23.3550 H   0  0  0  0  0  0  0  0  0  0  0  0
  -21.5974  -26.8362   22.0454 H   0  0  0  0  0  0  0  0  0  0  0  0
  -19.6810  -25.6422   21.1488 H   0  0  0  0  0  0  0  0  0  0  0  0
  -19.6406  -27.3343   20.7034 H   0  0  0  0  0  0  0  0  0  0  0  0
  -17.4282  -26.6888   21.4113 H   0  0  0  0  0  0  0  0  0  0  0  0
  -18.0803  -26.0130   22.9049 H   0  0  0  0  0  0  0  0  0  0  0  0
  -19.7265  -30.6774   24.2204 H   0  0  0  0  0  0  0  0  0  0  0  0
  -17.5064  -31.5856   24.4483 H   0  0  0  0  0  0  0  0  0  0  0  0
  -15.5878  -30.2839   23.7407 H   0  0  0  0  0  0  0  0  0  0  0  0
  -15.9120  -28.0941   22.7766 H   0  0  0  0  0  0  0  0  0  0  0  0
  -24.5787  -30.7757   25.6817 H   0  0  0  0  0  0  0  0  0  0  0  0
  -25.0041  -32.2289   26.5536 H   0  0  0  0  0  0  0  0  0  0  0  0
  -25.8166  -30.7245   26.9138 H   0  0  0  0  0  0  0  0  0  0  0  0
  -26.2892  -29.7335   24.0803 H   0  0  0  0  0  0  0  0  0  0  0  0
  -27.4336  -29.7484   25.4006 H   0  0  0  0  0  0  0  0  0  0  0  0
  -27.8466  -30.4994   23.8779 H   0  0  0  0  0  0  0  0  0  0  0  0
  -27.2251  -33.3632   26.1242 H   0  0  0  0  0  0  0  0  0  0  0  0
  -28.3902  -32.6065   25.0645 H   0  0  0  0  0  0  0  0  0  0  0  0
  -27.9772  -31.8555   26.5872 H   0  0  0  0  0  0  0  0  0  0  0  0
  -28.2744  -38.0016   24.6863 H   0  0  0  0  0  0  0  0  0  0  0  0
  -28.0396  -36.2711   24.7461 H   0  0  0  0  0  0  0  0  0  0  0  0
  -27.1773  -37.3087   25.8564 H   0  0  0  0  0  0  0  0  0  0  0  0
  -20.9627  -29.9365   21.7352 H   0  0  0  0  0  0  0  0  0  0  0  0
  -26.0447  -38.2561   24.0273 H   0  0  0  0  0  0  0  0  0  0  0  0
  -30.9587  -20.2300   16.0358 H   0  0  0  0  0  0  0  0  0  0  0  0
  -28.6806  -19.9413   19.5565 H   0  0  0  0  0  0  0  0  0  0  0  0
  -28.9201  -16.6653   16.9335 H   0  0  0  0  0  0  0  0  0  0  0  0
  -30.3154  -26.0109   16.3507 H   0  0  0  0  0  0  0  0  0  0  0  0
  -31.4692  -24.9273   14.8513 H   0  0  0  0  0  0  0  0  0  0  0  0
  -31.5938  -23.2116   15.1575 H   0  0  0  0  0  0  0  0  0  0  0  0
  -32.9664  -24.2529   15.4485 H   0  0  0  0  0  0  0  0  0  0  0  0
  -33.8212  -24.4124   18.2430 H   0  0  0  0  0  0  0  0  0  0  0  0
  -33.8765  -23.0837   17.1096 H   0  0  0  0  0  0  0  0  0  0  0  0
  -33.7810  -22.7654   18.8250 H   0  0  0  0  0  0  0  0  0  0  0  0
  -27.9264  -25.7849   18.0519 H   0  0  0  0  0  0  0  0  0  0  0  0
  -28.6162  -27.3214   17.8427 H   0  0  0  0  0  0  0  0  0  0  0  0
  -31.5903  -23.7565   18.9109 H   0  0  0  0  0  0  0  0  0  0  0  0
  -31.0728  -18.3153   14.5436 H   0  0  0  0  0  0  0  0  0  0  0  0
  -30.2454  -16.8695   14.9081 H   0  0  0  0  0  0  0  0  0  0  0  0
  -26.8999  -17.5808   19.4329 H   0  0  0  0  0  0  0  0  0  0  0  0
  -31.9702  -21.5029   17.1126 H   0  0  0  0  0  0  0  0  0  0  0  0
  1 25  1  0
  1 30  2  0
  1 86  1  0
  2  3  1  0
  2 25  1  0
  2 90  1  0
  2 91  1  0
  3  4  1  0
  3 92  1  0
  3 93  1  0
  4  5  1  0
  4 94  1  0
  4 95  1  0
  5  6  1  0
  5 26  1  0
  5 96  1  6
  6 25  1  0
  6 97  1  0
  6 98  1  0
  7  8  2  0
  7 26  1  0
  7 29  1  0
  8  9  1  0
  8 22  1  0
  9 10  1  0
  9 27  2  0
 10 11  2  0
 10 15  1  0
 11 12  1  0
 11 99  1  0
 12 13  2  0
 12100  1  0
 13 14  1  0
 13 31  1  0
 14 15  2  0
 14101  1  0
 15102  1  0
 16 17  2  0
 16 21  1  0
 16 31  1  0
 17 18  1  0
 17103  1  0
 18 19  2  0
 18104  1  0
 19 20  1  0
 19 24  1  0
 20 21  2  0
 20105  1  0
 21 23  1  0
 22 28  1  0
 22 32  2  0
 26 27  1  0
 28106  1  0
 28107  1  0
 29108  1  0
 29109  1  0
 33 34  1  0
 33 66  1  0
 33 70  2  0
 34 36  1  0
 34 59  1  0
 34110  1  6
 35 44  2  0
 35 45  1  0
 35 68  1  0
 36 56  1  0
 36111  1  0
 37 39  1  0
 37 47  1  0
 37 66  1  0
 37112  1  6
 38 43  2  0
 38 46  1  0
 38 47  1  0
 39 64  1  0
 39 67  2  0
 40 52  1  0
 40 53  2  0
 40 58  1  0
 41113  1  0
 41114  1  0
 41115  1  0
 42 43  1  0
 42 66  1  0
 42116  1  0
 42117  1  0
 43 44  1  0
 44118  1  0
 45 46  2  0
 45119  1  0
 46120  1  0
 47121  1  0
 47122  1  0
 48 41  1  0
 48 56  1  0
 48 65  1  0
 48123  1  1
 49 50  1  0
 49 53  1  0
 49 64  1  0
 49124  1  1
 50 51  1  0
 50125  1  0
 50126  1  0
 51 52  1  0
 51127  1  0
 51128  1  0
 52129  1  0
 52130  1  0
 53 54  1  0
 54 55  2  0
 54131  1  0
 55 57  1  0
 55132  1  0
 56 69  2  0
 57 58  2  0
 57133  1  0
 58134  1  0
 59 60  1  0
 59 61  1  0
 59 62  1  0
 60135  1  0
 60136  1  0
 60137  1  0
 61138  1  0
 61139  1  0
 61140  1  0
 62141  1  0
 62142  1  0
 62143  1  0
 63 65  1  0
 63144  1  0
 63145  1  0
 63146  1  0
 64147  1  0
 65148  1  0
 68 83  1  0
 71 74  2  0
 71 75  1  0
 71149  1  0
 72 74  1  0
 72 76  2  0
 72150  1  0
 73 75  2  0
 73 76  1  0
 73151  1  0
 74 78  1  0
 75 85  1  0
 76 86  1  0
 77 79  2  0
 77 80  1  0
 77152  1  0
 78 87  1  0
 78 88  2  0
 79 81  1  0
 79 84  1  0
 80 83  1  0
 80 89  2  0
 81153  1  0
 81154  1  0
 81155  1  0
 82156  1  0
 82157  1  0
 82158  1  0
 83159  1  0
 83160  1  0
 84 82  1  0
 84 87  1  0
 84161  1  1
 85162  1  0
 85163  1  0
 86164  1  0
 87165  1  0
M  ISO  4   1 100  68 101  83 101  86 100
M  END
$$$$
77
     RDKit          3D

163171  0  0  0  0  0  0  0  0999 V2000
  -30.7652  -14.3608   20.6636 C   0  0  0  0  0  0  0  0  0100  0  0
  -30.4392  -12.2669   19.3775 C   0  0  0  0  0  0  0  0  0101  0  0
  -29.4791  -12.5281   18.1977 C   0  0  0  0  0  0  0  0  0102  0  0
  -27.9985  -12.3963   18.6038 C   0  0  0  0  0  0  0  0  0103  0  0
  -27.6639  -13.2170   19.8820 C   0  0  2  0  0  0  0  0  0104  0  0
  -28.6795  -12.9602   21.0279 C   0  0  0  0  0  0  0  0  0105  0  0
  -25.2633  -13.8245   20.5754 C   0  0  0  0  0  0  0  0  0106  0  0
  -24.1645  -13.0409   20.9408 C   0  0  0  0  0  0  0  0  0107  0  0
  -24.6400  -11.7009   20.8697 C   0  0  0  0  0  0  0  0  0108  0  0
  -23.9005  -10.4085   21.0420 C   0  0  0  0  0  0  0  0  0109  0  0
  -24.3588   -9.4123   21.9123 C   0  0  0  0  0  0  0  0  0110  0  0
  -23.6296   -8.2350   22.0803 C   0  0  0  0  0  0  0  0  0111  0  0
  -22.4385   -8.0419   21.3657 C   0  0  0  0  0  0  0  0  0112  0  0
  -22.0103   -9.0167   20.4678 C   0  0  0  0  0  0  0  0  0113  0  0
  -22.7317  -10.1925   20.3102 C   0  0  0  0  0  0  0  0  0114  0  0
  -21.6857   -6.0709   22.5391 C   0  0  0  0  0  0  0  0  0115  0  0
  -21.4064   -6.5490   23.8264 C   0  0  0  0  0  0  0  0  0116  0  0
  -21.3635   -5.6677   24.9085 C   0  0  0  0  0  0  0  0  0117  0  0
  -21.5973   -4.3067   24.7088 C   0  0  0  0  0  0  0  0  0118  0  0
  -21.8700   -3.8284   23.4282 C   0  0  0  0  0  0  0  0  0119  0  0
  -21.9144   -4.7056   22.3460 C   0  0  0  0  0  0  0  0  0120  0  0
  -22.8194  -13.5263   21.1763 C   0  0  0  0  0  0  0  0  0121  0  0
  -22.1559   -4.2206   21.1063 F   0  0  0  0  0  0  0  0  0122  0  0
  -21.5628   -3.4510   25.7555 F   0  0  0  0  0  0  0  0  0123  0  0
  -30.0261  -13.1803   20.4553 N   0  0  0  0  0  0  0  0  0124  0  0
  -26.2911  -12.9356   20.3443 N   0  0  0  0  0  0  0  0  0125  0  0
  -25.9236  -11.6675   20.5847 N   0  0  0  0  0  0  0  0  0126  0  0
  -22.0708  -12.7905   22.0005 N   0  0  0  0  0  0  0  0  0127  0  0
  -25.4117  -15.1773   20.4097 N   0  0  0  0  0  0  0  0  0128  0  0
  -31.7916  -14.6724   20.0536 O   0  0  0  0  0  0  0  0  0129  0  0
  -21.6670   -6.9022   21.4423 O   0  0  0  0  0  0  0  0  0130  0  0
  -22.3946  -14.5564   20.6568 O   0  0  0  0  0  0  0  0  0131  0  0
  -24.6048  -31.8614   23.2223 C   0  0  0  0  0  0  0  0  0100  0  0
  -25.8822  -32.4841   23.8616 C   0  0  1  0  0  0  0  0  0101  0  0
  -27.2536  -27.5042   20.1156 C   0  0  0  0  0  0  0  0  0102  0  0
  -25.5726  -33.8762   24.2210 N   0  0  0  0  0  0  0  0  0103  0  0
  -23.4066  -30.4859   21.5461 C   0  0  2  0  0  0  0  0  0104  0  0
  -24.8467  -28.9636   20.1247 C   0  0  0  0  0  0  0  0  0105  0  0
  -22.7412  -29.4652   22.5052 C   0  0  0  0  0  0  0  0  0106  0  0
  -18.0167  -28.1302   22.8626 C   0  0  0  0  0  0  0  0  0107  0  0
  -24.1342  -36.7390   23.2568 C   0  0  0  0  0  0  0  0  0108  0  0
  -25.9141  -30.8882   21.3456 C   0  0  0  0  0  0  0  0  0109  0  0
  -25.9930  -29.5029   20.7208 C   0  0  0  0  0  0  0  0  0110  0  0
  -27.1758  -28.7612   20.7331 C   0  0  0  0  0  0  0  0  0111  0  0
  -26.1032  -26.9836   19.5230 C   0  0  0  0  0  0  0  0  0112  0  0
  -24.9097  -27.7011   19.5331 C   0  0  0  0  0  0  0  0  0113  0  0
  -23.5715  -29.7899   20.1582 C   0  0  0  0  0  0  0  0  0114  0  0
  -25.3990  -36.3212   24.0232 C   0  0  1  0  0  0  0  0  0115  0  0
  -20.5793  -28.3813   23.1004 C   0  0  2  0  0  0  0  0  0116  0  0
  -20.6548  -26.9392   22.5411 C   0  0  0  0  0  0  0  0  0117  0  0
  -19.5615  -26.6407   21.5143 C   0  0  0  0  0  0  0  0  0118  0  0
  -18.1797  -26.7818   22.1673 C   0  0  0  0  0  0  0  0  0119  0  0
  -19.1385  -28.8769   23.2988 C   0  0  0  0  0  0  0  0  0120  0  0
  -18.9183  -30.1286   23.8878 C   0  0  0  0  0  0  0  0  0121  0  0
  -17.6396  -30.6493   24.0352 C   0  0  0  0  0  0  0  0  0122  0  0
  -25.9153  -34.9582   23.4993 C   0  0  0  0  0  0  0  0  0123  0  0
  -16.5415  -29.9068   23.6254 C   0  0  0  0  0  0  0  0  0124  0  0
  -16.7331  -28.6521   23.0586 C   0  0  0  0  0  0  0  0  0125  0  0
  -26.4583  -31.6439   25.0683 C   0  0  0  0  0  0  0  0  0126  0  0
  -25.3807  -31.3179   26.1374 C   0  0  0  0  0  0  0  0  0127  0  0
  -27.0530  -30.3024   24.5680 C   0  0  0  0  0  0  0  0  0128  0  0
  -27.6014  -32.4281   25.7651 C   0  0  0  0  0  0  0  0  0129  0  0
  -27.5629  -37.2220   24.8621 C   0  0  0  0  0  0  0  0  0130  0  0
  -21.4133  -29.3375   22.3735 N   0  0  0  0  0  0  0  0  0131  0  0
  -26.4706  -37.3372   23.9061 N   0  0  0  0  0  0  0  0  0132  0  0
  -24.6674  -31.0544   22.1178 N   0  0  0  0  0  0  0  0  0133  0  0
  -23.4259  -28.8150   23.2971 O   0  0  0  0  0  0  0  0  0134  0  0
  -28.3948  -26.7345   20.0089 O   0  0  0  0  0  0  0  0  0135  0  0
  -26.5870  -34.9065   22.4671 O   0  0  0  0  0  0  0  0  0136  0  0
  -23.5365  -32.1254   23.7833 O   0  0  0  0  0  0  0  0  0137  0  0
  -30.1887  -22.0660   18.9138 C   0  0  0  0  0  0  0  0  0  0  0  0
  -30.5806  -20.7789   19.2818 C   0  0  0  0  0  0  0  0  0  0  0  0
  -32.8459  -21.5583   19.5952 C   0  0  0  0  0  0  0  0  0  0  0  0
  -31.1254  -23.0992   18.8864 C   0  0  0  0  0  0  0  0  0  0  0  0
  -31.9092  -20.5251   19.6225 C   0  0  0  0  0  0  0  0  0  0  0  0
  -32.4539  -22.8454   19.2271 C   0  0  0  0  0  0  0  0  0  0  0  0
  -30.6890  -24.4338   18.4983 C   0  0  0  0  0  0  0  0  0  0  0  0
  -33.8133  -24.4372   20.6073 C   0  0  0  0  0  0  0  0  0  0  0  0
  -33.9952  -17.1144   21.7425 C   0  0  0  0  0  0  0  0  0  0  0  0
  -32.2233  -17.3519   23.5013 C   0  0  0  0  0  0  0  0  0  0  0  0
  -32.3330  -19.1329   20.0217 C   0  0  0  0  0  0  0  0  0  0  0  0
  -33.4774  -23.9335   19.2071 C   0  0  0  0  0  0  0  0  0  0  0  0
  -32.1975  -18.9163   21.5355 C   0  0  0  0  0  0  0  0  0  0  0  0
  -32.5349  -17.4873   22.0071 C   0  0  0  0  0  0  0  0  0  1  0  0
  -30.7882  -25.4732   19.2801 N   0  0  0  0  0  0  0  0  0  0  0  0
  -31.4485  -12.4701   19.0860 H   0  0  0  0  0  0  0  0  0  0  0  0
  -30.3970  -11.2460   19.6950 H   0  0  0  0  0  0  0  0  0  0  0  0
  -29.6870  -11.8204   17.4226 H   0  0  0  0  0  0  0  0  0  0  0  0
  -29.6375  -13.5326   17.8649 H   0  0  0  0  0  0  0  0  0  0  0  0
  -27.7830  -11.3650   18.7904 H   0  0  0  0  0  0  0  0  0  0  0  0
  -27.4028  -12.7801   17.8021 H   0  0  0  0  0  0  0  0  0  0  0  0
  -27.7353  -14.2503   19.6136 H   0  0  0  0  0  0  0  0  0  0  0  0
  -28.5890  -11.9550   21.3832 H   0  0  0  0  0  0  0  0  0  0  0  0
  -28.5005  -13.6134   21.8562 H   0  0  0  0  0  0  0  0  0  0  0  0
  -25.2399   -9.5495   22.4318 H   0  0  0  0  0  0  0  0  0  0  0  0
  -23.9663   -7.5070   22.7297 H   0  0  0  0  0  0  0  0  0  0  0  0
  -21.1515   -8.8641   19.9162 H   0  0  0  0  0  0  0  0  0  0  0  0
  -22.4016  -10.9115   19.6476 H   0  0  0  0  0  0  0  0  0  0  0  0
  -21.2319   -7.5552   23.9750 H   0  0  0  0  0  0  0  0  0  0  0  0
  -21.1589   -6.0228   25.8556 H   0  0  0  0  0  0  0  0  0  0  0  0
  -22.0396   -2.8212   23.2809 H   0  0  0  0  0  0  0  0  0  0  0  0
  -22.4401  -11.9703   22.4008 H   0  0  0  0  0  0  0  0  0  0  0  0
  -21.1493  -13.0679   22.2082 H   0  0  0  0  0  0  0  0  0  0  0  0
  -24.6538  -15.7807   20.5848 H   0  0  0  0  0  0  0  0  0  0  0  0
  -26.2762  -15.5453   20.1156 H   0  0  0  0  0  0  0  0  0  0  0  0
  -26.6778  -32.4663   23.1464 H   0  0  0  0  0  0  0  0  0  0  0  0
  -25.0747  -34.0282   25.0566 H   0  0  0  0  0  0  0  0  0  0  0  0
  -22.7881  -31.3489   21.4131 H   0  0  0  0  0  0  0  0  0  0  0  0
  -23.3854  -35.9823   23.3648 H   0  0  0  0  0  0  0  0  0  0  0  0
  -24.3696  -36.8624   22.2204 H   0  0  0  0  0  0  0  0  0  0  0  0
  -23.7669  -37.6632   23.6516 H   0  0  0  0  0  0  0  0  0  0  0  0
  -25.9445  -31.6237   20.5691 H   0  0  0  0  0  0  0  0  0  0  0  0
  -26.7436  -31.0079   22.0108 H   0  0  0  0  0  0  0  0  0  0  0  0
  -28.0090  -29.1452   21.2057 H   0  0  0  0  0  0  0  0  0  0  0  0
  -26.1369  -26.0560   19.0719 H   0  0  0  0  0  0  0  0  0  0  0  0
  -24.0652  -27.2961   19.0997 H   0  0  0  0  0  0  0  0  0  0  0  0
  -23.6156  -30.5365   19.3930 H   0  0  0  0  0  0  0  0  0  0  0  0
  -22.7355  -29.1425   19.9945 H   0  0  0  0  0  0  0  0  0  0  0  0
  -25.1353  -36.2335   25.0565 H   0  0  0  0  0  0  0  0  0  0  0  0
  -21.0070  -28.3206   24.0793 H   0  0  0  0  0  0  0  0  0  0  0  0
  -20.5555  -26.2518   23.3550 H   0  0  0  0  0  0  0  0  0  0  0  0
  -21.5974  -26.8362   22.0454 H   0  0  0  0  0  0  0  0  0  0  0  0
  -19.6810  -25.6422   21.1488 H   0  0  0  0  0  0  0  0  0  0  0  0
  -19.6406  -27.3343   20.7034 H   0  0  0  0  0  0  0  0  0  0  0  0
  -17.4282  -26.6888   21.4113 H   0  0  0  0  0  0  0  0  0  0  0  0
  -18.0803  -26.0130   22.9049 H   0  0  0  0  0  0  0  0  0  0  0  0
  -19.7265  -30.6774   24.2204 H   0  0  0  0  0  0  0  0  0  0  0  0
  -17.5064  -31.5856   24.4483 H   0  0  0  0  0  0  0  0  0  0  0  0
  -15.5878  -30.2839   23.7407 H   0  0  0  0  0  0  0  0  0  0  0  0
  -15.9120  -28.0941   22.7766 H   0  0  0  0  0  0  0  0  0  0  0  0
  -24.5787  -30.7757   25.6817 H   0  0  0  0  0  0  0  0  0  0  0  0
  -25.0041  -32.2289   26.5536 H   0  0  0  0  0  0  0  0  0  0  0  0
  -25.8166  -30.7245   26.9138 H   0  0  0  0  0  0  0  0  0  0  0  0
  -26.2892  -29.7335   24.0803 H   0  0  0  0  0  0  0  0  0  0  0  0
  -27.4336  -29.7484   25.4006 H   0  0  0  0  0  0  0  0  0  0  0  0
  -27.8466  -30.4994   23.8779 H   0  0  0  0  0  0  0  0  0  0  0  0
  -27.2251  -33.3632   26.1242 H   0  0  0  0  0  0  0  0  0  0  0  0
  -28.3902  -32.6065   25.0645 H   0  0  0  0  0  0  0  0  0  0  0  0
  -27.9772  -31.8555   26.5872 H   0  0  0  0  0  0  0  0  0  0  0  0
  -28.2744  -38.0016   24.6863 H   0  0  0  0  0  0  0  0  0  0  0  0
  -28.0396  -36.2711   24.7461 H   0  0  0  0  0  0  0  0  0  0  0  0
  -27.1773  -37.3087   25.8564 H   0  0  0  0  0  0  0  0  0  0  0  0
  -20.9627  -29.9365   21.7352 H   0  0  0  0  0  0  0  0  0  0  0  0
  -26.0447  -38.2561   24.0273 H   0  0  0  0  0  0  0  0  0  0  0  0
  -29.2057  -22.2539   18.6618 H   0  0  0  0  0  0  0  0  0  0  0  0
  -29.8876  -20.0144   19.3020 H   0  0  0  0  0  0  0  0  0  0  0  0
  -33.8289  -21.3705   19.8473 H   0  0  0  0  0  0  0  0  0  0  0  0
  -34.5477  -25.2125   20.5408 H   0  0  0  0  0  0  0  0  0  0  0  0
  -34.1992  -23.6297   21.1938 H   0  0  0  0  0  0  0  0  0  0  0  0
  -32.9286  -24.8227   21.0695 H   0  0  0  0  0  0  0  0  0  0  0  0
  -34.1634  -16.0999   22.0381 H   0  0  0  0  0  0  0  0  0  0  0  0
  -34.6359  -17.7607   22.3052 H   0  0  0  0  0  0  0  0  0  0  0  0
  -34.2073  -17.2218   20.6993 H   0  0  0  0  0  0  0  0  0  0  0  0
  -32.6013  -16.4179   23.8613 H   0  0  0  0  0  0  0  0  0  0  0  0
  -31.1643  -17.3890   23.6496 H   0  0  0  0  0  0  0  0  0  0  0  0
  -32.6867  -18.1543   24.0364 H   0  0  0  0  0  0  0  0  0  0  0  0
  -33.3546  -18.9860   19.7395 H   0  0  0  0  0  0  0  0  0  0  0  0
  -31.6959  -18.4321   19.5238 H   0  0  0  0  0  0  0  0  0  0  0  0
  -33.0998  -24.7507   18.6287 H   0  0  0  0  0  0  0  0  0  0  0  0
  -34.3728  -23.5333   18.7793 H   0  0  0  0  0  0  0  0  0  0  0  0
  -31.1874  -19.1313   21.8153 H   0  0  0  0  0  0  0  0  0  0  0  0
  -32.9070  -19.5674   22.0019 H   0  0  0  0  0  0  0  0  0  0  0  0
  -30.7615  -26.3804   18.8986 H   0  0  0  0  0  0  0  0  0  0  0  0
  1 25  1  0
  1 30  2  0
  1 77  1  0
  2  3  1  0
  2 25  1  0
  2 86  1  0
  2 87  1  0
  3  4  1  0
  3 88  1  0
  3 89  1  0
  4  5  1  0
  4 90  1  0
  4 91  1  0
  5  6  1  0
  5 26  1  0
  5 92  1  6
  6 25  1  0
  6 93  1  0
  6 94  1  0
  7  8  2  0
  7 26  1  0
  7 29  1  0
  8  9  1  0
  8 22  1  0
  9 10  1  0
  9 27  2  0
 10 11  2  0
 10 15  1  0
 11 12  1  0
 11 95  1  0
 12 13  2  0
 12 96  1  0
 13 14  1  0
 13 31  1  0
 14 15  2  0
 14 97  1  0
 15 98  1  0
 16 17  2  0
 16 21  1  0
 16 31  1  0
 17 18  1  0
 17 99  1  0
 18 19  2  0
 18100  1  0
 19 20  1  0
 19 24  1  0
 20 21  2  0
 20101  1  0
 21 23  1  0
 22 28  1  0
 22 32  2  0
 26 27  1  0
 28102  1  0
 28103  1  0
 29104  1  0
 29105  1  0
 33 34  1  0
 33 66  1  0
 33 70  2  0
 34 36  1  0
 34 59  1  0
 34106  1  6
 35 44  2  0
 35 45  1  0
 35 68  1  0
 36 56  1  0
 36107  1  0
 37 39  1  0
 37 47  1  0
 37 66  1  0
 37108  1  6
 38 43  2  0
 38 46  1  0
 38 47  1  0
 39 64  1  0
 39 67  2  0
 40 52  1  0
 40 53  2  0
 40 58  1  0
 41109  1  0
 41110  1  0
 41111  1  0
 42 43  1  0
 42 66  1  0
 42112  1  0
 42113  1  0
 43 44  1  0
 44114  1  0
 45 46  2  0
 45115  1  0
 46116  1  0
 47117  1  0
 47118  1  0
 48 41  1  0
 48 56  1  0
 48 65  1  0
 48119  1  1
 49 50  1  0
 49 53  1  0
 49 64  1  0
 49120  1  1
 50 51  1  0
 50121  1  0
 50122  1  0
 51 52  1  0
 51123  1  0
 51124  1  0
 52125  1  0
 52126  1  0
 53 54  1  0
 54 55  2  0
 54127  1  0
 55 57  1  0
 55128  1  0
 56 69  2  0
 57 58  2  0
 57129  1  0
 58130  1  0
 59 60  1  0
 59 61  1  0
 59 62  1  0
 60131  1  0
 60132  1  0
 60133  1  0
 61134  1  0
 61135  1  0
 61136  1  0
 62137  1  0
 62138  1  0
 62139  1  0
 63 65  1  0
 63140  1  0
 63141  1  0
 63142  1  0
 64143  1  0
 65144  1  0
 68 84  1  0
 71 72  2  0
 71 74  1  0
 71145  1  0
 72 75  1  0
 72146  1  0
 73 75  2  0
 73 76  1  0
 73147  1  0
 74 76  2  0
 74 77  1  0
 75 81  1  0
 76 82  1  0
 77 85  2  0
 78 82  1  0
 78148  1  0
 78149  1  0
 78150  1  0
 79151  1  0
 79152  1  0
 79153  1  0
 80 84  1  0
 80154  1  0
 80155  1  0
 80156  1  0
 81 83  1  0
 81157  1  0
 81158  1  0
 82159  1  0
 82160  1  0
 83 84  1  0
 83161  1  0
 83162  1  0
 84 79  1  0
 85163  1  0
M  ISO  4   1 100  68 101  77 100  84 101
M  END
$$$$
78
     RDKit          3D

161170  0  0  0  0  0  0  0  0999 V2000
  -30.7652  -14.3608   20.6636 C   0  0  0  0  0  0  0  0  0100  0  0
  -30.4392  -12.2669   19.3775 C   0  0  0  0  0  0  0  0  0101  0  0
  -29.4791  -12.5281   18.1977 C   0  0  0  0  0  0  0  0  0102  0  0
  -27.9985  -12.3963   18.6038 C   0  0  0  0  0  0  0  0  0103  0  0
  -27.6639  -13.2170   19.8820 C   0  0  2  0  0  0  0  0  0104  0  0
  -28.6795  -12.9602   21.0279 C   0  0  0  0  0  0  0  0  0105  0  0
  -25.2633  -13.8245   20.5754 C   0  0  0  0  0  0  0  0  0106  0  0
  -24.1645  -13.0409   20.9408 C   0  0  0  0  0  0  0  0  0107  0  0
  -24.6400  -11.7009   20.8697 C   0  0  0  0  0  0  0  0  0108  0  0
  -23.9005  -10.4085   21.0420 C   0  0  0  0  0  0  0  0  0109  0  0
  -24.3588   -9.4123   21.9123 C   0  0  0  0  0  0  0  0  0110  0  0
  -23.6296   -8.2350   22.0803 C   0  0  0  0  0  0  0  0  0111  0  0
  -22.4385   -8.0419   21.3657 C   0  0  0  0  0  0  0  0  0112  0  0
  -22.0103   -9.0167   20.4678 C   0  0  0  0  0  0  0  0  0113  0  0
  -22.7317  -10.1925   20.3102 C   0  0  0  0  0  0  0  0  0114  0  0
  -21.6857   -6.0709   22.5391 C   0  0  0  0  0  0  0  0  0115  0  0
  -21.4064   -6.5490   23.8264 C   0  0  0  0  0  0  0  0  0116  0  0
  -21.3635   -5.6677   24.9085 C   0  0  0  0  0  0  0  0  0117  0  0
  -21.5973   -4.3067   24.7088 C   0  0  0  0  0  0  0  0  0118  0  0
  -21.8700   -3.8284   23.4282 C   0  0  0  0  0  0  0  0  0119  0  0
  -21.9144   -4.7056   22.3460 C   0  0  0  0  0  0  0  0  0120  0  0
  -22.8194  -13.5263   21.1763 C   0  0  0  0  0  0  0  0  0121  0  0
  -22.1559   -4.2206   21.1063 F   0  0  0  0  0  0  0  0  0122  0  0
  -21.5628   -3.4510   25.7555 F   0  0  0  0  0  0  0  0  0123  0  0
  -30.0261  -13.1803   20.4553 N   0  0  0  0  0  0  0  0  0124  0  0
  -26.2911  -12.9356   20.3443 N   0  0  0  0  0  0  0  0  0125  0  0
  -25.9236  -11.6675   20.5847 N   0  0  0  0  0  0  0  0  0126  0  0
  -22.0708  -12.7905   22.0005 N   0  0  0  0  0  0  0  0  0127  0  0
  -25.4117  -15.1773   20.4097 N   0  0  0  0  0  0  0  0  0128  0  0
  -31.7916  -14.6724   20.0536 O   0  0  0  0  0  0  0  0  0129  0  0
  -21.6670   -6.9022   21.4423 O   0  0  0  0  0  0  0  0  0130  0  0
  -22.3946  -14.5564   20.6568 O   0  0  0  0  0  0  0  0  0131  0  0
  -24.6048  -31.8614   23.2223 C   0  0  0  0  0  0  0  0  0100  0  0
  -25.8822  -32.4841   23.8616 C   0  0  1  0  0  0  0  0  0101  0  0
  -27.2536  -27.5042   20.1156 C   0  0  0  0  0  0  0  0  0102  0  0
  -25.5726  -33.8762   24.2210 N   0  0  0  0  0  0  0  0  0103  0  0
  -23.4066  -30.4859   21.5461 C   0  0  2  0  0  0  0  0  0104  0  0
  -24.8467  -28.9636   20.1247 C   0  0  0  0  0  0  0  0  0105  0  0
  -22.7412  -29.4652   22.5052 C   0  0  0  0  0  0  0  0  0106  0  0
  -18.0167  -28.1302   22.8626 C   0  0  0  0  0  0  0  0  0107  0  0
  -24.1342  -36.7390   23.2568 C   0  0  0  0  0  0  0  0  0108  0  0
  -25.9141  -30.8882   21.3456 C   0  0  0  0  0  0  0  0  0109  0  0
  -25.9930  -29.5029   20.7208 C   0  0  0  0  0  0  0  0  0110  0  0
  -27.1758  -28.7612   20.7331 C   0  0  0  0  0  0  0  0  0111  0  0
  -26.1032  -26.9836   19.5230 C   0  0  0  0  0  0  0  0  0112  0  0
  -24.9097  -27.7011   19.5331 C   0  0  0  0  0  0  0  0  0113  0  0
  -23.5715  -29.7899   20.1582 C   0  0  0  0  0  0  0  0  0114  0  0
  -25.3990  -36.3212   24.0232 C   0  0  1  0  0  0  0  0  0115  0  0
  -20.5793  -28.3813   23.1004 C   0  0  2  0  0  0  0  0  0116  0  0
  -20.6548  -26.9392   22.5411 C   0  0  0  0  0  0  0  0  0117  0  0
  -19.5615  -26.6407   21.5143 C   0  0  0  0  0  0  0  0  0118  0  0
  -18.1797  -26.7818   22.1673 C   0  0  0  0  0  0  0  0  0119  0  0
  -19.1385  -28.8769   23.2988 C   0  0  0  0  0  0  0  0  0120  0  0
  -18.9183  -30.1286   23.8878 C   0  0  0  0  0  0  0  0  0121  0  0
  -17.6396  -30.6493   24.0352 C   0  0  0  0  0  0  0  0  0122  0  0
  -25.9153  -34.9582   23.4993 C   0  0  0  0  0  0  0  0  0123  0  0
  -16.5415  -29.9068   23.6254 C   0  0  0  0  0  0  0  0  0124  0  0
  -16.7331  -28.6521   23.0586 C   0  0  0  0  0  0  0  0  0125  0  0
  -26.4583  -31.6439   25.0683 C   0  0  0  0  0  0  0  0  0126  0  0
  -25.3807  -31.3179   26.1374 C   0  0  0  0  0  0  0  0  0127  0  0
  -27.0530  -30.3024   24.5680 C   0  0  0  0  0  0  0  0  0128  0  0
  -27.6014  -32.4281   25.7651 C   0  0  0  0  0  0  0  0  0129  0  0
  -27.5629  -37.2220   24.8621 C   0  0  0  0  0  0  0  0  0130  0  0
  -21.4133  -29.3375   22.3735 N   0  0  0  0  0  0  0  0  0131  0  0
  -26.4706  -37.3372   23.9061 N   0  0  0  0  0  0  0  0  0132  0  0
  -24.6674  -31.0544   22.1178 N   0  0  0  0  0  0  0  0  0133  0  0
  -23.4259  -28.8150   23.2971 O   0  0  0  0  0  0  0  0  0134  0  0
  -28.3948  -26.7345   20.0089 O   0  0  0  0  0  0  0  0  0135  0  0
  -26.5870  -34.9065   22.4671 O   0  0  0  0  0  0  0  0  0136  0  0
  -23.5365  -32.1254   23.7833 O   0  0  0  0  0  0  0  0  0137  0  0
  -30.5828  -24.5818   21.5428 C   0  0  0  0  0  0  0  0  0  0  0  0
  -30.9497  -25.6929   20.8158 C   0  0  0  0  0  0  0  0  0  0  0  0
  -30.8740  -25.4628   19.4118 C   0  0  0  0  0  0  0  0  0  0  0  0
  -30.4524  -24.1843   19.1190 C   0  0  0  0  0  0  0  0  0  0  0  0
  -32.2620  -26.1742   17.3049 C   0  0  0  0  0  0  0  0  0  0  0  0
  -32.5880  -27.1595   18.3835 C   0  0  0  0  0  0  0  0  0  0  0  0
  -31.2199  -26.5107   18.3509 C   0  0  0  0  0  0  0  0  0  0  0  0
  -29.6409  -23.7143   14.7050 C   0  0  0  0  0  0  0  0  0  0  0  0
  -27.1983  -23.8292   15.2599 C   0  0  0  0  0  0  0  0  0  0  0  0
  -30.2409  -23.5418   17.7693 C   0  0  0  0  0  0  0  0  0  0  0  0
  -28.9254  -24.0066   17.1290 C   0  0  0  0  0  0  0  0  0  0  0  0
  -28.5209  -21.8198   15.9287 C   0  0  0  0  0  0  0  0  0  1  0  0
  -28.5759  -23.3581   15.7589 C   0  0  0  0  0  0  0  0  0  0  0  0
  -30.1492  -23.2681   20.5335 S   0  0  0  0  0  0  0  0  0  0  0  0
  -31.4485  -12.4701   19.0860 H   0  0  0  0  0  0  0  0  0  0  0  0
  -30.3970  -11.2460   19.6950 H   0  0  0  0  0  0  0  0  0  0  0  0
  -29.6870  -11.8204   17.4226 H   0  0  0  0  0  0  0  0  0  0  0  0
  -29.6375  -13.5326   17.8649 H   0  0  0  0  0  0  0  0  0  0  0  0
  -27.7830  -11.3650   18.7904 H   0  0  0  0  0  0  0  0  0  0  0  0
  -27.4028  -12.7801   17.8021 H   0  0  0  0  0  0  0  0  0  0  0  0
  -27.7353  -14.2503   19.6136 H   0  0  0  0  0  0  0  0  0  0  0  0
  -28.5890  -11.9550   21.3832 H   0  0  0  0  0  0  0  0  0  0  0  0
  -28.5005  -13.6134   21.8562 H   0  0  0  0  0  0  0  0  0  0  0  0
  -25.2399   -9.5495   22.4318 H   0  0  0  0  0  0  0  0  0  0  0  0
  -23.9663   -7.5070   22.7297 H   0  0  0  0  0  0  0  0  0  0  0  0
  -21.1515   -8.8641   19.9162 H   0  0  0  0  0  0  0  0  0  0  0  0
  -22.4016  -10.9115   19.6476 H   0  0  0  0  0  0  0  0  0  0  0  0
  -21.2319   -7.5552   23.9750 H   0  0  0  0  0  0  0  0  0  0  0  0
  -21.1589   -6.0228   25.8556 H   0  0  0  0  0  0  0  0  0  0  0  0
  -22.0396   -2.8212   23.2809 H   0  0  0  0  0  0  0  0  0  0  0  0
  -22.4401  -11.9703   22.4008 H   0  0  0  0  0  0  0  0  0  0  0  0
  -21.1493  -13.0679   22.2082 H   0  0  0  0  0  0  0  0  0  0  0  0
  -24.6538  -15.7807   20.5848 H   0  0  0  0  0  0  0  0  0  0  0  0
  -26.2762  -15.5453   20.1156 H   0  0  0  0  0  0  0  0  0  0  0  0
  -26.6778  -32.4663   23.1464 H   0  0  0  0  0  0  0  0  0  0  0  0
  -25.0747  -34.0282   25.0566 H   0  0  0  0  0  0  0  0  0  0  0  0
  -22.7881  -31.3489   21.4131 H   0  0  0  0  0  0  0  0  0  0  0  0
  -23.3854  -35.9823   23.3648 H   0  0  0  0  0  0  0  0  0  0  0  0
  -24.3696  -36.8624   22.2204 H   0  0  0  0  0  0  0  0  0  0  0  0
  -23.7669  -37.6632   23.6516 H   0  0  0  0  0  0  0  0  0  0  0  0
  -25.9445  -31.6237   20.5691 H   0  0  0  0  0  0  0  0  0  0  0  0
  -26.7436  -31.0079   22.0108 H   0  0  0  0  0  0  0  0  0  0  0  0
  -28.0090  -29.1452   21.2057 H   0  0  0  0  0  0  0  0  0  0  0  0
  -26.1369  -26.0560   19.0719 H   0  0  0  0  0  0  0  0  0  0  0  0
  -24.0652  -27.2961   19.0997 H   0  0  0  0  0  0  0  0  0  0  0  0
  -23.6156  -30.5365   19.3930 H   0  0  0  0  0  0  0  0  0  0  0  0
  -22.7355  -29.1425   19.9945 H   0  0  0  0  0  0  0  0  0  0  0  0
  -25.1353  -36.2335   25.0565 H   0  0  0  0  0  0  0  0  0  0  0  0
  -21.0070  -28.3206   24.0793 H   0  0  0  0  0  0  0  0  0  0  0  0
  -20.5555  -26.2518   23.3550 H   0  0  0  0  0  0  0  0  0  0  0  0
  -21.5974  -26.8362   22.0454 H   0  0  0  0  0  0  0  0  0  0  0  0
  -19.6810  -25.6422   21.1488 H   0  0  0  0  0  0  0  0  0  0  0  0
  -19.6406  -27.3343   20.7034 H   0  0  0  0  0  0  0  0  0  0  0  0
  -17.4282  -26.6888   21.4113 H   0  0  0  0  0  0  0  0  0  0  0  0
  -18.0803  -26.0130   22.9049 H   0  0  0  0  0  0  0  0  0  0  0  0
  -19.7265  -30.6774   24.2204 H   0  0  0  0  0  0  0  0  0  0  0  0
  -17.5064  -31.5856   24.4483 H   0  0  0  0  0  0  0  0  0  0  0  0
  -15.5878  -30.2839   23.7407 H   0  0  0  0  0  0  0  0  0  0  0  0
  -15.9120  -28.0941   22.7766 H   0  0  0  0  0  0  0  0  0  0  0  0
  -24.5787  -30.7757   25.6817 H   0  0  0  0  0  0  0  0  0  0  0  0
  -25.0041  -32.2289   26.5536 H   0  0  0  0  0  0  0  0  0  0  0  0
  -25.8166  -30.7245   26.9138 H   0  0  0  0  0  0  0  0  0  0  0  0
  -26.2892  -29.7335   24.0803 H   0  0  0  0  0  0  0  0  0  0  0  0
  -27.4336  -29.7484   25.4006 H   0  0  0  0  0  0  0  0  0  0  0  0
  -27.8466  -30.4994   23.8779 H   0  0  0  0  0  0  0  0  0  0  0  0
  -27.2251  -33.3632   26.1242 H   0  0  0  0  0  0  0  0  0  0  0  0
  -28.3902  -32.6065   25.0645 H   0  0  0  0  0  0  0  0  0  0  0  0
  -27.9772  -31.8555   26.5872 H   0  0  0  0  0  0  0  0  0  0  0  0
  -28.2744  -38.0016   24.6863 H   0  0  0  0  0  0  0  0  0  0  0  0
  -28.0396  -36.2711   24.7461 H   0  0  0  0  0  0  0  0  0  0  0  0
  -27.1773  -37.3087   25.8564 H   0  0  0  0  0  0  0  0  0  0  0  0
  -20.9627  -29.9365   21.7352 H   0  0  0  0  0  0  0  0  0  0  0  0
  -26.0447  -38.2561   24.0273 H   0  0  0  0  0  0  0  0  0  0  0  0
  -30.5707  -24.5454   22.5741 H   0  0  0  0  0  0  0  0  0  0  0  0
  -32.7261  -25.2101   17.3044 H   0  0  0  0  0  0  0  0  0  0  0  0
  -32.2898  -26.1898   16.2354 H   0  0  0  0  0  0  0  0  0  0  0  0
  -32.6926  -28.1973   18.1449 H   0  0  0  0  0  0  0  0  0  0  0  0
  -33.3637  -27.2480   19.1151 H   0  0  0  0  0  0  0  0  0  0  0  0
  -30.2102  -26.8644   18.3333 H   0  0  0  0  0  0  0  0  0  0  0  0
  -29.6822  -24.7767   14.5846 H   0  0  0  0  0  0  0  0  0  0  0  0
  -29.3847  -23.2592   13.7711 H   0  0  0  0  0  0  0  0  0  0  0  0
  -30.5957  -23.3545   15.0271 H   0  0  0  0  0  0  0  0  0  0  0  0
  -27.2088  -24.8917   15.1338 H   0  0  0  0  0  0  0  0  0  0  0  0
  -26.4492  -23.5624   15.9759 H   0  0  0  0  0  0  0  0  0  0  0  0
  -26.9791  -23.3610   14.3231 H   0  0  0  0  0  0  0  0  0  0  0  0
  -30.2132  -22.4790   17.8899 H   0  0  0  0  0  0  0  0  0  0  0  0
  -31.0480  -23.8297   17.1286 H   0  0  0  0  0  0  0  0  0  0  0  0
  -28.9855  -25.0653   16.9858 H   0  0  0  0  0  0  0  0  0  0  0  0
  -28.1505  -23.7030   17.8015 H   0  0  0  0  0  0  0  0  0  0  0  0
  -29.3870  -21.2033   15.8080 H   0  0  0  0  0  0  0  0  0  0  0  0
  -27.9337  -20.9757   15.6326 H   0  0  0  0  0  0  0  0  0  0  0  0
  1 25  1  0
  1 30  2  0
  1 72  1  0
  2  3  1  0
  2 25  1  0
  2 85  1  0
  2 86  1  0
  3  4  1  0
  3 87  1  0
  3 88  1  0
  4  5  1  0
  4 89  1  0
  4 90  1  0
  5  6  1  0
  5 26  1  0
  5 91  1  6
  6 25  1  0
  6 92  1  0
  6 93  1  0
  7  8  2  0
  7 26  1  0
  7 29  1  0
  8  9  1  0
  8 22  1  0
  9 10  1  0
  9 27  2  0
 10 11  2  0
 10 15  1  0
 11 12  1  0
 11 94  1  0
 12 13  2  0
 12 95  1  0
 13 14  1  0
 13 31  1  0
 14 15  2  0
 14 96  1  0
 15 97  1  0
 16 17  2  0
 16 21  1  0
 16 31  1  0
 17 18  1  0
 17 98  1  0
 18 19  2  0
 18 99  1  0
 19 20  1  0
 19 24  1  0
 20 21  2  0
 20100  1  0
 21 23  1  0
 22 28  1  0
 22 32  2  0
 26 27  1  0
 28101  1  0
 28102  1  0
 29103  1  0
 29104  1  0
 33 34  1  0
 33 66  1  0
 33 70  2  0
 34 36  1  0
 34 59  1  0
 34105  1  6
 35 44  2  0
 35 45  1  0
 35 68  1  0
 36 56  1  0
 36106  1  0
 37 39  1  0
 37 47  1  0
 37 66  1  0
 37107  1  6
 38 43  2  0
 38 46  1  0
 38 47  1  0
 39 64  1  0
 39 67  2  0
 40 52  1  0
 40 53  2  0
 40 58  1  0
 41108  1  0
 41109  1  0
 41110  1  0
 42 43  1  0
 42 66  1  0
 42111  1  0
 42112  1  0
 43 44  1  0
 44113  1  0
 45 46  2  0
 45114  1  0
 46115  1  0
 47116  1  0
 47117  1  0
 48 41  1  0
 48 56  1  0
 48 65  1  0
 48118  1  1
 49 50  1  0
 49 53  1  0
 49 64  1  0
 49119  1  1
 50 51  1  0
 50120  1  0
 50121  1  0
 51 52  1  0
 51122  1  0
 51123  1  0
 52124  1  0
 52125  1  0
 53 54  1  0
 54 55  2  0
 54126  1  0
 55 57  1  0
 55127  1  0
 56 69  2  0
 57 58  2  0
 57128  1  0
 58129  1  0
 59 60  1  0
 59 61  1  0
 59 62  1  0
 60130  1  0
 60131  1  0
 60132  1  0
 61133  1  0
 61134  1  0
 61135  1  0
 62136  1  0
 62137  1  0
 62138  1  0
 63 65  1  0
 63139  1  0
 63140  1  0
 63141  1  0
 64142  1  0
 65143  1  0
 68 82  1  0
 71 72  2  0
 71 84  1  0
 71144  1  0
 72 73  1  0
 73 74  2  0
 74 80  1  0
 74 84  1  0
 75 76  1  0
 75 77  1  0
 75145  1  0
 75146  1  0
 76 77  1  0
 76147  1  0
 76148  1  0
 77 73  1  0
 77149  1  0
 78150  1  0
 78151  1  0
 78152  1  0
 79 83  1  0
 79153  1  0
 79154  1  0
 79155  1  0
 80 81  1  0
 80156  1  0
 80157  1  0
 81 83  1  0
 81158  1  0
 81159  1  0
 82 83  1  0
 82160  1  0
 82161  1  0
 83 78  1  0
M  ISO  4   1 100  68 101  72 100  82 101
M  END
$$$$
79
     RDKit          3D

161169  0  0  0  0  0  0  0  0999 V2000
  -30.7652  -14.3608   20.6636 C   0  0  0  0  0  0  0  0  0100  0  0
  -30.4392  -12.2669   19.3775 C   0  0  0  0  0  0  0  0  0101  0  0
  -29.4791  -12.5281   18.1977 C   0  0  0  0  0  0  0  0  0102  0  0
  -27.9985  -12.3963   18.6038 C   0  0  0  0  0  0  0  0  0103  0  0
  -27.6639  -13.2170   19.8820 C   0  0  2  0  0  0  0  0  0104  0  0
  -28.6795  -12.9602   21.0279 C   0  0  0  0  0  0  0  0  0105  0  0
  -25.2633  -13.8245   20.5754 C   0  0  0  0  0  0  0  0  0106  0  0
  -24.1645  -13.0409   20.9408 C   0  0  0  0  0  0  0  0  0107  0  0
  -24.6400  -11.7009   20.8697 C   0  0  0  0  0  0  0  0  0108  0  0
  -23.9005  -10.4085   21.0420 C   0  0  0  0  0  0  0  0  0109  0  0
  -24.3588   -9.4123   21.9123 C   0  0  0  0  0  0  0  0  0110  0  0
  -23.6296   -8.2350   22.0803 C   0  0  0  0  0  0  0  0  0111  0  0
  -22.4385   -8.0419   21.3657 C   0  0  0  0  0  0  0  0  0112  0  0
  -22.0103   -9.0167   20.4678 C   0  0  0  0  0  0  0  0  0113  0  0
  -22.7317  -10.1925   20.3102 C   0  0  0  0  0  0  0  0  0114  0  0
  -21.6857   -6.0709   22.5391 C   0  0  0  0  0  0  0  0  0115  0  0
  -21.4064   -6.5490   23.8264 C   0  0  0  0  0  0  0  0  0116  0  0
  -21.3635   -5.6677   24.9085 C   0  0  0  0  0  0  0  0  0117  0  0
  -21.5973   -4.3067   24.7088 C   0  0  0  0  0  0  0  0  0118  0  0
  -21.8700   -3.8284   23.4282 C   0  0  0  0  0  0  0  0  0119  0  0
  -21.9144   -4.7056   22.3460 C   0  0  0  0  0  0  0  0  0120  0  0
  -22.8194  -13.5263   21.1763 C   0  0  0  0  0  0  0  0  0121  0  0
  -22.1559   -4.2206   21.1063 F   0  0  0  0  0  0  0  0  0122  0  0
  -21.5628   -3.4510   25.7555 F   0  0  0  0  0  0  0  0  0123  0  0
  -30.0261  -13.1803   20.4553 N   0  0  0  0  0  0  0  0  0124  0  0
  -26.2911  -12.9356   20.3443 N   0  0  0  0  0  0  0  0  0125  0  0
  -25.9236  -11.6675   20.5847 N   0  0  0  0  0  0  0  0  0126  0  0
  -22.0708  -12.7905   22.0005 N   0  0  0  0  0  0  0  0  0127  0  0
  -25.4117  -15.1773   20.4097 N   0  0  0  0  0  0  0  0  0128  0  0
  -31.7916  -14.6724   20.0536 O   0  0  0  0  0  0  0  0  0129  0  0
  -21.6670   -6.9022   21.4423 O   0  0  0  0  0  0  0  0  0130  0  0
  -22.3946  -14.5564   20.6568 O   0  0  0  0  0  0  0  0  0131  0  0
  -24.6048  -31.8614   23.2223 C   0  0  0  0  0  0  0  0  0100  0  0
  -25.8822  -32.4841   23.8616 C   0  0  1  0  0  0  0  0  0101  0  0
  -27.2536  -27.5042   20.1156 C   0  0  0  0  0  0  0  0  0102  0  0
  -25.5726  -33.8762   24.2210 N   0  0  0  0  0  0  0  0  0103  0  0
  -23.4066  -30.4859   21.5461 C   0  0  2  0  0  0  0  0  0104  0  0
  -24.8467  -28.9636   20.1247 C   0  0  0  0  0  0  0  0  0105  0  0
  -22.7412  -29.4652   22.5052 C   0  0  0  0  0  0  0  0  0106  0  0
  -18.0167  -28.1302   22.8626 C   0  0  0  0  0  0  0  0  0107  0  0
  -24.1342  -36.7390   23.2568 C   0  0  0  0  0  0  0  0  0108  0  0
  -25.9141  -30.8882   21.3456 C   0  0  0  0  0  0  0  0  0109  0  0
  -25.9930  -29.5029   20.7208 C   0  0  0  0  0  0  0  0  0110  0  0
  -27.1758  -28.7612   20.7331 C   0  0  0  0  0  0  0  0  0111  0  0
  -26.1032  -26.9836   19.5230 C   0  0  0  0  0  0  0  0  0112  0  0
  -24.9097  -27.7011   19.5331 C   0  0  0  0  0  0  0  0  0113  0  0
  -23.5715  -29.7899   20.1582 C   0  0  0  0  0  0  0  0  0114  0  0
  -25.3990  -36.3212   24.0232 C   0  0  1  0  0  0  0  0  0115  0  0
  -20.5793  -28.3813   23.1004 C   0  0  2  0  0  0  0  0  0116  0  0
  -20.6548  -26.9392   22.5411 C   0  0  0  0  0  0  0  0  0117  0  0
  -19.5615  -26.6407   21.5143 C   0  0  0  0  0  0  0  0  0118  0  0
  -18.1797  -26.7818   22.1673 C   0  0  0  0  0  0  0  0  0119  0  0
  -19.1385  -28.8769   23.2988 C   0  0  0  0  0  0  0  0  0120  0  0
  -18.9183  -30.1286   23.8878 C   0  0  0  0  0  0  0  0  0121  0  0
  -17.6396  -30.6493   24.0352 C   0  0  0  0  0  0  0  0  0122  0  0
  -25.9153  -34.9582   23.4993 C   0  0  0  0  0  0  0  0  0123  0  0
  -16.5415  -29.9068   23.6254 C   0  0  0  0  0  0  0  0  0124  0  0
  -16.7331  -28.6521   23.0586 C   0  0  0  0  0  0  0  0  0125  0  0
  -26.4583  -31.6439   25.0683 C   0  0  0  0  0  0  0  0  0126  0  0
  -25.3807  -31.3179   26.1374 C   0  0  0  0  0  0  0  0  0127  0  0
  -27.0530  -30.3024   24.5680 C   0  0  0  0  0  0  0  0  0128  0  0
  -27.6014  -32.4281   25.7651 C   0  0  0  0  0  0  0  0  0129  0  0
  -27.5629  -37.2220   24.8621 C   0  0  0  0  0  0  0  0  0130  0  0
  -21.4133  -29.3375   22.3735 N   0  0  0  0  0  0  0  0  0131  0  0
  -26.4706  -37.3372   23.9061 N   0  0  0  0  0  0  0  0  0132  0  0
  -24.6674  -31.0544   22.1178 N   0  0  0  0  0  0  0  0  0133  0  0
  -23.4259  -28.8150   23.2971 O   0  0  0  0  0  0  0  0  0134  0  0
  -28.3948  -26.7345   20.0089 O   0  0  0  0  0  0  0  0  0135  0  0
  -26.5870  -34.9065   22.4671 O   0  0  0  0  0  0  0  0  0136  0  0
  -23.5365  -32.1254   23.7833 O   0  0  0  0  0  0  0  0  0137  0  0
  -27.6148  -23.3140   16.8418 C   0  0  0  0  0  0  0  0  0  0  0  0
  -27.6608  -21.4672   15.2847 C   0  0  0  0  0  0  0  0  0  0  0  0
  -28.1138  -22.4817   17.8437 C   0  0  0  0  0  0  0  0  0  0  0  0
  -28.1599  -20.6349   16.2866 C   0  0  0  0  0  0  0  0  0  0  0  0
  -27.3882  -22.8067   15.5623 C   0  0  0  0  0  0  0  0  0  0  0  0
  -28.3864  -21.1422   17.5661 C   0  0  0  0  0  0  0  0  0  0  0  0
  -25.1161  -26.1012   13.6166 C   0  0  0  0  0  0  0  0  0  0  0  0
  -25.0534  -24.1876   11.9750 C   0  0  0  0  0  0  0  0  0  0  0  0
  -23.1425  -24.5618   13.5240 C   0  0  0  0  0  0  0  0  0  0  0  0
  -26.8483  -23.7072   14.4785 C   0  0  0  0  0  0  0  0  0  0  0  0
  -24.8269  -26.7475   14.9631 C   0  0  0  0  0  0  0  0  0  1  0  0
  -25.3132  -23.6924   14.4505 C   0  0  0  0  0  0  0  0  0  0  0  0
  -24.6750  -24.6353   13.4004 C   0  0  0  0  0  0  0  0  0  0  0  0
  -28.8937  -20.2966   18.5836 N   0  0  0  0  0  0  0  0  0  0  0  0
  -25.6805  -26.7413   12.7260 O   0  0  0  0  0  0  0  0  0  0  0  0
  -31.4485  -12.4701   19.0860 H   0  0  0  0  0  0  0  0  0  0  0  0
  -30.3970  -11.2460   19.6950 H   0  0  0  0  0  0  0  0  0  0  0  0
  -29.6870  -11.8204   17.4226 H   0  0  0  0  0  0  0  0  0  0  0  0
  -29.6375  -13.5326   17.8649 H   0  0  0  0  0  0  0  0  0  0  0  0
  -27.7830  -11.3650   18.7904 H   0  0  0  0  0  0  0  0  0  0  0  0
  -27.4028  -12.7801   17.8021 H   0  0  0  0  0  0  0  0  0  0  0  0
  -27.7353  -14.2503   19.6136 H   0  0  0  0  0  0  0  0  0  0  0  0
  -28.5890  -11.9550   21.3832 H   0  0  0  0  0  0  0  0  0  0  0  0
  -28.5005  -13.6134   21.8562 H   0  0  0  0  0  0  0  0  0  0  0  0
  -25.2399   -9.5495   22.4318 H   0  0  0  0  0  0  0  0  0  0  0  0
  -23.9663   -7.5070   22.7297 H   0  0  0  0  0  0  0  0  0  0  0  0
  -21.1515   -8.8641   19.9162 H   0  0  0  0  0  0  0  0  0  0  0  0
  -22.4016  -10.9115   19.6476 H   0  0  0  0  0  0  0  0  0  0  0  0
  -21.2319   -7.5552   23.9750 H   0  0  0  0  0  0  0  0  0  0  0  0
  -21.1589   -6.0228   25.8556 H   0  0  0  0  0  0  0  0  0  0  0  0
  -22.0396   -2.8212   23.2809 H   0  0  0  0  0  0  0  0  0  0  0  0
  -22.4401  -11.9703   22.4008 H   0  0  0  0  0  0  0  0  0  0  0  0
  -21.1493  -13.0679   22.2082 H   0  0  0  0  0  0  0  0  0  0  0  0
  -24.6538  -15.7807   20.5848 H   0  0  0  0  0  0  0  0  0  0  0  0
  -26.2762  -15.5453   20.1156 H   0  0  0  0  0  0  0  0  0  0  0  0
  -26.6778  -32.4663   23.1464 H   0  0  0  0  0  0  0  0  0  0  0  0
  -25.0747  -34.0282   25.0566 H   0  0  0  0  0  0  0  0  0  0  0  0
  -22.7881  -31.3489   21.4131 H   0  0  0  0  0  0  0  0  0  0  0  0
  -23.3854  -35.9823   23.3648 H   0  0  0  0  0  0  0  0  0  0  0  0
  -24.3696  -36.8624   22.2204 H   0  0  0  0  0  0  0  0  0  0  0  0
  -23.7669  -37.6632   23.6516 H   0  0  0  0  0  0  0  0  0  0  0  0
  -25.9445  -31.6237   20.5691 H   0  0  0  0  0  0  0  0  0  0  0  0
  -26.7436  -31.0079   22.0108 H   0  0  0  0  0  0  0  0  0  0  0  0
  -28.0090  -29.1452   21.2057 H   0  0  0  0  0  0  0  0  0  0  0  0
  -26.1369  -26.0560   19.0719 H   0  0  0  0  0  0  0  0  0  0  0  0
  -24.0652  -27.2961   19.0997 H   0  0  0  0  0  0  0  0  0  0  0  0
  -23.6156  -30.5365   19.3930 H   0  0  0  0  0  0  0  0  0  0  0  0
  -22.7355  -29.1425   19.9945 H   0  0  0  0  0  0  0  0  0  0  0  0
  -25.1353  -36.2335   25.0565 H   0  0  0  0  0  0  0  0  0  0  0  0
  -21.0070  -28.3206   24.0793 H   0  0  0  0  0  0  0  0  0  0  0  0
  -20.5555  -26.2518   23.3550 H   0  0  0  0  0  0  0  0  0  0  0  0
  -21.5974  -26.8362   22.0454 H   0  0  0  0  0  0  0  0  0  0  0  0
  -19.6810  -25.6422   21.1488 H   0  0  0  0  0  0  0  0  0  0  0  0
  -19.6406  -27.3343   20.7034 H   0  0  0  0  0  0  0  0  0  0  0  0
  -17.4282  -26.6888   21.4113 H   0  0  0  0  0  0  0  0  0  0  0  0
  -18.0803  -26.0130   22.9049 H   0  0  0  0  0  0  0  0  0  0  0  0
  -19.7265  -30.6774   24.2204 H   0  0  0  0  0  0  0  0  0  0  0  0
  -17.5064  -31.5856   24.4483 H   0  0  0  0  0  0  0  0  0  0  0  0
  -15.5878  -30.2839   23.7407 H   0  0  0  0  0  0  0  0  0  0  0  0
  -15.9120  -28.0941   22.7766 H   0  0  0  0  0  0  0  0  0  0  0  0
  -24.5787  -30.7757   25.6817 H   0  0  0  0  0  0  0  0  0  0  0  0
  -25.0041  -32.2289   26.5536 H   0  0  0  0  0  0  0  0  0  0  0  0
  -25.8166  -30.7245   26.9138 H   0  0  0  0  0  0  0  0  0  0  0  0
  -26.2892  -29.7335   24.0803 H   0  0  0  0  0  0  0  0  0  0  0  0
  -27.4336  -29.7484   25.4006 H   0  0  0  0  0  0  0  0  0  0  0  0
  -27.8466  -30.4994   23.8779 H   0  0  0  0  0  0  0  0  0  0  0  0
  -27.2251  -33.3632   26.1242 H   0  0  0  0  0  0  0  0  0  0  0  0
  -28.3902  -32.6065   25.0645 H   0  0  0  0  0  0  0  0  0  0  0  0
  -27.9772  -31.8555   26.5872 H   0  0  0  0  0  0  0  0  0  0  0  0
  -28.2744  -38.0016   24.6863 H   0  0  0  0  0  0  0  0  0  0  0  0
  -28.0396  -36.2711   24.7461 H   0  0  0  0  0  0  0  0  0  0  0  0
  -27.1773  -37.3087   25.8564 H   0  0  0  0  0  0  0  0  0  0  0  0
  -20.9627  -29.9365   21.7352 H   0  0  0  0  0  0  0  0  0  0  0  0
  -26.0447  -38.2561   24.0273 H   0  0  0  0  0  0  0  0  0  0  0  0
  -27.4133  -24.3051   17.0471 H   0  0  0  0  0  0  0  0  0  0  0  0
  -27.4932  -21.0919   14.3381 H   0  0  0  0  0  0  0  0  0  0  0  0
  -28.2813  -22.8569   18.7904 H   0  0  0  0  0  0  0  0  0  0  0  0
  -28.3616  -19.6438   16.0813 H   0  0  0  0  0  0  0  0  0  0  0  0
  -24.6052  -24.8485   11.2628 H   0  0  0  0  0  0  0  0  0  0  0  0
  -24.7004  -23.1913   11.8086 H   0  0  0  0  0  0  0  0  0  0  0  0
  -26.1173  -24.2122   11.8641 H   0  0  0  0  0  0  0  0  0  0  0  0
  -22.6948  -25.2112   12.8010 H   0  0  0  0  0  0  0  0  0  0  0  0
  -22.8489  -24.8661   14.5069 H   0  0  0  0  0  0  0  0  0  0  0  0
  -22.8184  -23.5570   13.3500 H   0  0  0  0  0  0  0  0  0  0  0  0
  -27.2170  -23.3719   13.5316 H   0  0  0  0  0  0  0  0  0  0  0  0
  -27.1717  -24.7071   14.6795 H   0  0  0  0  0  0  0  0  0  0  0  0
  -23.9034  -26.3109   15.2817 H   0  0  0  0  0  0  0  0  0  0  0  0
  -24.9443  -27.7731   14.6816 H   0  0  0  0  0  0  0  0  0  0  0  0
  -24.9596  -23.9830   15.4177 H   0  0  0  0  0  0  0  0  0  0  0  0
  -25.0259  -22.6984   14.1778 H   0  0  0  0  0  0  0  0  0  0  0  0
  -29.0341  -20.8898   19.3567 H   0  0  0  0  0  0  0  0  0  0  0  0
  1 25  1  0
  1 30  2  0
  1 84  1  0
  2  3  1  0
  2 25  1  0
  2 86  1  0
  2 87  1  0
  3  4  1  0
  3 88  1  0
  3 89  1  0
  4  5  1  0
  4 90  1  0
  4 91  1  0
  5  6  1  0
  5 26  1  0
  5 92  1  6
  6 25  1  0
  6 93  1  0
  6 94  1  0
  7  8  2  0
  7 26  1  0
  7 29  1  0
  8  9  1  0
  8 22  1  0
  9 10  1  0
  9 27  2  0
 10 11  2  0
 10 15  1  0
 11 12  1  0
 11 95  1  0
 12 13  2  0
 12 96  1  0
 13 14  1  0
 13 31  1  0
 14 15  2  0
 14 97  1  0
 15 98  1  0
 16 17  2  0
 16 21  1  0
 16 31  1  0
 17 18  1  0
 17 99  1  0
 18 19  2  0
 18100  1  0
 19 20  1  0
 19 24  1  0
 20 21  2  0
 20101  1  0
 21 23  1  0
 22 28  1  0
 22 32  2  0
 26 27  1  0
 28102  1  0
 28103  1  0
 29104  1  0
 29105  1  0
 33 34  1  0
 33 66  1  0
 33 70  2  0
 34 36  1  0
 34 59  1  0
 34106  1  6
 35 44  2  0
 35 45  1  0
 35 68  1  0
 36 56  1  0
 36107  1  0
 37 39  1  0
 37 47  1  0
 37 66  1  0
 37108  1  6
 38 43  2  0
 38 46  1  0
 38 47  1  0
 39 64  1  0
 39 67  2  0
 40 52  1  0
 40 53  2  0
 40 58  1  0
 41109  1  0
 41110  1  0
 41111  1  0
 42 43  1  0
 42 66  1  0
 42112  1  0
 42113  1  0
 43 44  1  0
 44114  1  0
 45 46  2  0
 45115  1  0
 46116  1  0
 47117  1  0
 47118  1  0
 48 41  1  0
 48 56  1  0
 48 65  1  0
 48119  1  1
 49 50  1  0
 49 53  1  0
 49 64  1  0
 49120  1  1
 50 51  1  0
 50121  1  0
 50122  1  0
 51 52  1  0
 51123  1  0
 51124  1  0
 52125  1  0
 52126  1  0
 53 54  1  0
 54 55  2  0
 54127  1  0
 55 57  1  0
 55128  1  0
 56 69  2  0
 57 58  2  0
 57129  1  0
 58130  1  0
 59 60  1  0
 59 61  1  0
 59 62  1  0
 60131  1  0
 60132  1  0
 60133  1  0
 61134  1  0
 61135  1  0
 61136  1  0
 62137  1  0
 62138  1  0
 62139  1  0
 63 65  1  0
 63140  1  0
 63141  1  0
 63142  1  0
 64143  1  0
 65144  1  0
 68 81  1  0
 71 73  2  0
 71 75  1  0
 71145  1  0
 72 74  1  0
 72 75  2  0
 72146  1  0
 73 76  1  0
 73147  1  0
 74 76  2  0
 74148  1  0
 75 80  1  0
 76 84  1  0
 77 81  1  0
 77 83  1  0
 77 85  2  0
 78149  1  0
 78150  1  0
 78151  1  0
 79 83  1  0
 79152  1  0
 79153  1  0
 79154  1  0
 80 82  1  0
 80155  1  0
 80156  1  0
 81157  1  0
 81158  1  0
 82 83  1  0
 82159  1  0
 82160  1  0
 83 78  1  0
 84161  1  0
M  ISO  4   1 100  68 101  81 101  84 100
M  END
$$$$
80
     RDKit          3D

171179  0  0  0  0  0  0  0  0999 V2000
  -30.7652  -14.3608   20.6636 C   0  0  0  0  0  0  0  0  0100  0  0
  -30.4392  -12.2669   19.3775 C   0  0  0  0  0  0  0  0  0101  0  0
  -29.4791  -12.5281   18.1977 C   0  0  0  0  0  0  0  0  0102  0  0
  -27.9985  -12.3963   18.6038 C   0  0  0  0  0  0  0  0  0103  0  0
  -27.6639  -13.2170   19.8820 C   0  0  2  0  0  0  0  0  0104  0  0
  -28.6795  -12.9602   21.0279 C   0  0  0  0  0  0  0  0  0105  0  0
  -25.2633  -13.8245   20.5754 C   0  0  0  0  0  0  0  0  0106  0  0
  -24.1645  -13.0409   20.9408 C   0  0  0  0  0  0  0  0  0107  0  0
  -24.6400  -11.7009   20.8697 C   0  0  0  0  0  0  0  0  0108  0  0
  -23.9005  -10.4085   21.0420 C   0  0  0  0  0  0  0  0  0109  0  0
  -24.3588   -9.4123   21.9123 C   0  0  0  0  0  0  0  0  0110  0  0
  -23.6296   -8.2350   22.0803 C   0  0  0  0  0  0  0  0  0111  0  0
  -22.4385   -8.0419   21.3657 C   0  0  0  0  0  0  0  0  0112  0  0
  -22.0103   -9.0167   20.4678 C   0  0  0  0  0  0  0  0  0113  0  0
  -22.7317  -10.1925   20.3102 C   0  0  0  0  0  0  0  0  0114  0  0
  -21.6857   -6.0709   22.5391 C   0  0  0  0  0  0  0  0  0115  0  0
  -21.4064   -6.5490   23.8264 C   0  0  0  0  0  0  0  0  0116  0  0
  -21.3635   -5.6677   24.9085 C   0  0  0  0  0  0  0  0  0117  0  0
  -21.5973   -4.3067   24.7088 C   0  0  0  0  0  0  0  0  0118  0  0
  -21.8700   -3.8284   23.4282 C   0  0  0  0  0  0  0  0  0119  0  0
  -21.9144   -4.7056   22.3460 C   0  0  0  0  0  0  0  0  0120  0  0
  -22.8194  -13.5263   21.1763 C   0  0  0  0  0  0  0  0  0121  0  0
  -22.1559   -4.2206   21.1063 F   0  0  0  0  0  0  0  0  0122  0  0
  -21.5628   -3.4510   25.7555 F   0  0  0  0  0  0  0  0  0123  0  0
  -30.0261  -13.1803   20.4553 N   0  0  0  0  0  0  0  0  0124  0  0
  -26.2911  -12.9356   20.3443 N   0  0  0  0  0  0  0  0  0125  0  0
  -25.9236  -11.6675   20.5847 N   0  0  0  0  0  0  0  0  0126  0  0
  -22.0708  -12.7905   22.0005 N   0  0  0  0  0  0  0  0  0127  0  0
  -25.4117  -15.1773   20.4097 N   0  0  0  0  0  0  0  0  0128  0  0
  -31.7916  -14.6724   20.0536 O   0  0  0  0  0  0  0  0  0129  0  0
  -21.6670   -6.9022   21.4423 O   0  0  0  0  0  0  0  0  0130  0  0
  -22.3946  -14.5564   20.6568 O   0  0  0  0  0  0  0  0  0131  0  0
  -24.6048  -31.8614   23.2223 C   0  0  0  0  0  0  0  0  0100  0  0
  -25.8822  -32.4841   23.8616 C   0  0  1  0  0  0  0  0  0101  0  0
  -27.2536  -27.5042   20.1156 C   0  0  0  0  0  0  0  0  0102  0  0
  -25.5726  -33.8762   24.2210 N   0  0  0  0  0  0  0  0  0103  0  0
  -23.4066  -30.4859   21.5461 C   0  0  2  0  0  0  0  0  0104  0  0
  -24.8467  -28.9636   20.1247 C   0  0  0  0  0  0  0  0  0105  0  0
  -22.7412  -29.4652   22.5052 C   0  0  0  0  0  0  0  0  0106  0  0
  -18.0167  -28.1302   22.8626 C   0  0  0  0  0  0  0  0  0107  0  0
  -24.1342  -36.7390   23.2568 C   0  0  0  0  0  0  0  0  0108  0  0
  -25.9141  -30.8882   21.3456 C   0  0  0  0  0  0  0  0  0109  0  0
  -25.9930  -29.5029   20.7208 C   0  0  0  0  0  0  0  0  0110  0  0
  -27.1758  -28.7612   20.7331 C   0  0  0  0  0  0  0  0  0111  0  0
  -26.1032  -26.9836   19.5230 C   0  0  0  0  0  0  0  0  0112  0  0
  -24.9097  -27.7011   19.5331 C   0  0  0  0  0  0  0  0  0113  0  0
  -23.5715  -29.7899   20.1582 C   0  0  0  0  0  0  0  0  0114  0  0
  -25.3990  -36.3212   24.0232 C   0  0  1  0  0  0  0  0  0115  0  0
  -20.5793  -28.3813   23.1004 C   0  0  2  0  0  0  0  0  0116  0  0
  -20.6548  -26.9392   22.5411 C   0  0  0  0  0  0  0  0  0117  0  0
  -19.5615  -26.6407   21.5143 C   0  0  0  0  0  0  0  0  0118  0  0
  -18.1797  -26.7818   22.1673 C   0  0  0  0  0  0  0  0  0119  0  0
  -19.1385  -28.8769   23.2988 C   0  0  0  0  0  0  0  0  0120  0  0
  -18.9183  -30.1286   23.8878 C   0  0  0  0  0  0  0  0  0121  0  0
  -17.6396  -30.6493   24.0352 C   0  0  0  0  0  0  0  0  0122  0  0
  -25.9153  -34.9582   23.4993 C   0  0  0  0  0  0  0  0  0123  0  0
  -16.5415  -29.9068   23.6254 C   0  0  0  0  0  0  0  0  0124  0  0
  -16.7331  -28.6521   23.0586 C   0  0  0  0  0  0  0  0  0125  0  0
  -26.4583  -31.6439   25.0683 C   0  0  0  0  0  0  0  0  0126  0  0
  -25.3807  -31.3179   26.1374 C   0  0  0  0  0  0  0  0  0127  0  0
  -27.0530  -30.3024   24.5680 C   0  0  0  0  0  0  0  0  0128  0  0
  -27.6014  -32.4281   25.7651 C   0  0  0  0  0  0  0  0  0129  0  0
  -27.5629  -37.2220   24.8621 C   0  0  0  0  0  0  0  0  0130  0  0
  -21.4133  -29.3375   22.3735 N   0  0  0  0  0  0  0  0  0131  0  0
  -26.4706  -37.3372   23.9061 N   0  0  0  0  0  0  0  0  0132  0  0
  -24.6674  -31.0544   22.1178 N   0  0  0  0  0  0  0  0  0133  0  0
  -23.4259  -28.8150   23.2971 O   0  0  0  0  0  0  0  0  0134  0  0
  -28.3948  -26.7345   20.0089 O   0  0  0  0  0  0  0  0  0135  0  0
  -26.5870  -34.9065   22.4671 O   0  0  0  0  0  0  0  0  0136  0  0
  -23.5365  -32.1254   23.7833 O   0  0  0  0  0  0  0  0  0137  0  0
  -28.1064  -22.2001   18.7788 C   0  0  0  0  0  0  0  0  0  0  0  0
  -27.1200  -20.0433   19.1789 C   0  0  0  0  0  0  0  0  0  0  0  0
  -26.9983  -21.3606   18.7508 C   0  0  0  0  0  0  0  0  0  0  0  0
  -29.3040  -21.6780   19.2402 C   0  0  0  0  0  0  0  0  0  0  0  0
  -28.3619  -19.6177   19.6221 C   0  0  0  0  0  0  0  0  0  0  0  0
  -25.7175  -21.8579   18.2745 C   0  0  0  0  0  0  0  0  0  0  0  0
  -30.2946  -23.7938   20.2100 C   0  0  0  0  0  0  0  0  0  0  0  0
  -25.4219  -23.3161   18.4740 C   0  0  0  0  0  0  0  0  0  0  0  0
  -31.8267  -21.8792   19.7988 C   0  0  0  0  0  0  0  0  0  0  0  0
  -30.8413  -23.0648   17.8511 C   0  0  0  0  0  0  0  0  0  0  0  0
  -27.9503  -23.0489   23.9870 C   0  0  0  0  0  0  0  0  0  0  0  0
  -29.9404  -24.4412   24.5950 C   0  0  0  0  0  0  0  0  0  0  0  0
  -29.9586  -23.5155   21.6738 C   0  0  0  0  0  0  0  0  0  0  0  0
  -29.0252  -24.5828   22.2546 C   0  0  0  0  0  0  0  0  0  0  0  0
  -30.5478  -22.5754   19.2873 C   0  0  0  0  0  0  0  0  0  0  0  0
  -28.6704  -24.3753   23.7410 C   0  0  0  0  0  0  0  0  0  1  0  0
  -29.4609  -20.4039   19.6641 N   0  0  0  0  0  0  0  0  0  0  0  0
  -28.4757  -18.2741   20.0573 N   0  0  0  0  0  0  0  0  0  0  0  0
  -24.8538  -21.1719   17.7235 O   0  0  0  0  0  0  0  0  0  0  0  0
  -30.3851  -24.9501   19.7915 O   0  0  0  0  0  0  0  0  0  0  0  0
  -31.4485  -12.4701   19.0860 H   0  0  0  0  0  0  0  0  0  0  0  0
  -30.3970  -11.2460   19.6950 H   0  0  0  0  0  0  0  0  0  0  0  0
  -29.6870  -11.8204   17.4226 H   0  0  0  0  0  0  0  0  0  0  0  0
  -29.6375  -13.5326   17.8649 H   0  0  0  0  0  0  0  0  0  0  0  0
  -27.7830  -11.3650   18.7904 H   0  0  0  0  0  0  0  0  0  0  0  0
  -27.4028  -12.7801   17.8021 H   0  0  0  0  0  0  0  0  0  0  0  0
  -27.7353  -14.2503   19.6136 H   0  0  0  0  0  0  0  0  0  0  0  0
  -28.5890  -11.9550   21.3832 H   0  0  0  0  0  0  0  0  0  0  0  0
  -28.5005  -13.6134   21.8562 H   0  0  0  0  0  0  0  0  0  0  0  0
  -25.2399   -9.5495   22.4318 H   0  0  0  0  0  0  0  0  0  0  0  0
  -23.9663   -7.5070   22.7297 H   0  0  0  0  0  0  0  0  0  0  0  0
  -21.1515   -8.8641   19.9162 H   0  0  0  0  0  0  0  0  0  0  0  0
  -22.4016  -10.9115   19.6476 H   0  0  0  0  0  0  0  0  0  0  0  0
  -21.2319   -7.5552   23.9750 H   0  0  0  0  0  0  0  0  0  0  0  0
  -21.1589   -6.0228   25.8556 H   0  0  0  0  0  0  0  0  0  0  0  0
  -22.0396   -2.8212   23.2809 H   0  0  0  0  0  0  0  0  0  0  0  0
  -22.4401  -11.9703   22.4008 H   0  0  0  0  0  0  0  0  0  0  0  0
  -21.1493  -13.0679   22.2082 H   0  0  0  0  0  0  0  0  0  0  0  0
  -24.6538  -15.7807   20.5848 H   0  0  0  0  0  0  0  0  0  0  0  0
  -26.2762  -15.5453   20.1156 H   0  0  0  0  0  0  0  0  0  0  0  0
  -26.6778  -32.4663   23.1464 H   0  0  0  0  0  0  0  0  0  0  0  0
  -25.0747  -34.0282   25.0566 H   0  0  0  0  0  0  0  0  0  0  0  0
  -22.7881  -31.3489   21.4131 H   0  0  0  0  0  0  0  0  0  0  0  0
  -23.3854  -35.9823   23.3648 H   0  0  0  0  0  0  0  0  0  0  0  0
  -24.3696  -36.8624   22.2204 H   0  0  0  0  0  0  0  0  0  0  0  0
  -23.7669  -37.6632   23.6516 H   0  0  0  0  0  0  0  0  0  0  0  0
  -25.9445  -31.6237   20.5691 H   0  0  0  0  0  0  0  0  0  0  0  0
  -26.7436  -31.0079   22.0108 H   0  0  0  0  0  0  0  0  0  0  0  0
  -28.0090  -29.1452   21.2057 H   0  0  0  0  0  0  0  0  0  0  0  0
  -26.1369  -26.0560   19.0719 H   0  0  0  0  0  0  0  0  0  0  0  0
  -24.0652  -27.2961   19.0997 H   0  0  0  0  0  0  0  0  0  0  0  0
  -23.6156  -30.5365   19.3930 H   0  0  0  0  0  0  0  0  0  0  0  0
  -22.7355  -29.1425   19.9945 H   0  0  0  0  0  0  0  0  0  0  0  0
  -25.1353  -36.2335   25.0565 H   0  0  0  0  0  0  0  0  0  0  0  0
  -21.0070  -28.3206   24.0793 H   0  0  0  0  0  0  0  0  0  0  0  0
  -20.5555  -26.2518   23.3550 H   0  0  0  0  0  0  0  0  0  0  0  0
  -21.5974  -26.8362   22.0454 H   0  0  0  0  0  0  0  0  0  0  0  0
  -19.6810  -25.6422   21.1488 H   0  0  0  0  0  0  0  0  0  0  0  0
  -19.6406  -27.3343   20.7034 H   0  0  0  0  0  0  0  0  0  0  0  0
  -17.4282  -26.6888   21.4113 H   0  0  0  0  0  0  0  0  0  0  0  0
  -18.0803  -26.0130   22.9049 H   0  0  0  0  0  0  0  0  0  0  0  0
  -19.7265  -30.6774   24.2204 H   0  0  0  0  0  0  0  0  0  0  0  0
  -17.5064  -31.5856   24.4483 H   0  0  0  0  0  0  0  0  0  0  0  0
  -15.5878  -30.2839   23.7407 H   0  0  0  0  0  0  0  0  0  0  0  0
  -15.9120  -28.0941   22.7766 H   0  0  0  0  0  0  0  0  0  0  0  0
  -24.5787  -30.7757   25.6817 H   0  0  0  0  0  0  0  0  0  0  0  0
  -25.0041  -32.2289   26.5536 H   0  0  0  0  0  0  0  0  0  0  0  0
  -25.8166  -30.7245   26.9138 H   0  0  0  0  0  0  0  0  0  0  0  0
  -26.2892  -29.7335   24.0803 H   0  0  0  0  0  0  0  0  0  0  0  0
  -27.4336  -29.7484   25.4006 H   0  0  0  0  0  0  0  0  0  0  0  0
  -27.8466  -30.4994   23.8779 H   0  0  0  0  0  0  0  0  0  0  0  0
  -27.2251  -33.3632   26.1242 H   0  0  0  0  0  0  0  0  0  0  0  0
  -28.3902  -32.6065   25.0645 H   0  0  0  0  0  0  0  0  0  0  0  0
  -27.9772  -31.8555   26.5872 H   0  0  0  0  0  0  0  0  0  0  0  0
  -28.2744  -38.0016   24.6863 H   0  0  0  0  0  0  0  0  0  0  0  0
  -28.0396  -36.2711   24.7461 H   0  0  0  0  0  0  0  0  0  0  0  0
  -27.1773  -37.3087   25.8564 H   0  0  0  0  0  0  0  0  0  0  0  0
  -20.9627  -29.9365   21.7352 H   0  0  0  0  0  0  0  0  0  0  0  0
  -26.0447  -38.2561   24.0273 H   0  0  0  0  0  0  0  0  0  0  0  0
  -28.0389  -23.1812   18.4658 H   0  0  0  0  0  0  0  0  0  0  0  0
  -26.3109  -19.4028   19.1669 H   0  0  0  0  0  0  0  0  0  0  0  0
  -26.2519  -23.7851   18.9599 H   0  0  0  0  0  0  0  0  0  0  0  0
  -24.5468  -23.4229   19.0804 H   0  0  0  0  0  0  0  0  0  0  0  0
  -25.2563  -23.7797   17.5240 H   0  0  0  0  0  0  0  0  0  0  0  0
  -31.6652  -21.5238   20.7951 H   0  0  0  0  0  0  0  0  0  0  0  0
  -32.6380  -22.5769   19.7961 H   0  0  0  0  0  0  0  0  0  0  0  0
  -32.0636  -21.0542   19.1599 H   0  0  0  0  0  0  0  0  0  0  0  0
  -29.9758  -23.5557   17.4577 H   0  0  0  0  0  0  0  0  0  0  0  0
  -31.0885  -22.2275   17.2325 H   0  0  0  0  0  0  0  0  0  0  0  0
  -31.6629  -23.7501   17.8687 H   0  0  0  0  0  0  0  0  0  0  0  0
  -28.1874  -22.6907   24.9670 H   0  0  0  0  0  0  0  0  0  0  0  0
  -28.2661  -22.3312   23.2589 H   0  0  0  0  0  0  0  0  0  0  0  0
  -26.8935  -23.1966   23.9073 H   0  0  0  0  0  0  0  0  0  0  0  0
  -29.8270  -23.8107   25.4521 H   0  0  0  0  0  0  0  0  0  0  0  0
  -30.1043  -25.4496   24.9132 H   0  0  0  0  0  0  0  0  0  0  0  0
  -30.7770  -24.1093   24.0163 H   0  0  0  0  0  0  0  0  0  0  0  0
  -30.8657  -23.5024   22.2412 H   0  0  0  0  0  0  0  0  0  0  0  0
  -29.4588  -22.5709   21.7272 H   0  0  0  0  0  0  0  0  0  0  0  0
  -28.1167  -24.5769   21.6893 H   0  0  0  0  0  0  0  0  0  0  0  0
  -29.5483  -25.5141   22.1917 H   0  0  0  0  0  0  0  0  0  0  0  0
  -27.5849  -18.0775   20.4274 H   0  0  0  0  0  0  0  0  0  0  0  0
  1 25  1  0
  1 30  2  0
  1 88  1  0
  2  3  1  0
  2 25  1  0
  2 91  1  0
  2 92  1  0
  3  4  1  0
  3 93  1  0
  3 94  1  0
  4  5  1  0
  4 95  1  0
  4 96  1  0
  5  6  1  0
  5 26  1  0
  5 97  1  6
  6 25  1  0
  6 98  1  0
  6 99  1  0
  7  8  2  0
  7 26  1  0
  7 29  1  0
  8  9  1  0
  8 22  1  0
  9 10  1  0
  9 27  2  0
 10 11  2  0
 10 15  1  0
 11 12  1  0
 11100  1  0
 12 13  2  0
 12101  1  0
 13 14  1  0
 13 31  1  0
 14 15  2  0
 14102  1  0
 15103  1  0
 16 17  2  0
 16 21  1  0
 16 31  1  0
 17 18  1  0
 17104  1  0
 18 19  2  0
 18105  1  0
 19 20  1  0
 19 24  1  0
 20 21  2  0
 20106  1  0
 21 23  1  0
 22 28  1  0
 22 32  2  0
 26 27  1  0
 28107  1  0
 28108  1  0
 29109  1  0
 29110  1  0
 33 34  1  0
 33 66  1  0
 33 70  2  0
 34 36  1  0
 34 59  1  0
 34111  1  6
 35 44  2  0
 35 45  1  0
 35 68  1  0
 36 56  1  0
 36112  1  0
 37 39  1  0
 37 47  1  0
 37 66  1  0
 37113  1  6
 38 43  2  0
 38 46  1  0
 38 47  1  0
 39 64  1  0
 39 67  2  0
 40 52  1  0
 40 53  2  0
 40 58  1  0
 41114  1  0
 41115  1  0
 41116  1  0
 42 43  1  0
 42 66  1  0
 42117  1  0
 42118  1  0
 43 44  1  0
 44119  1  0
 45 46  2  0
 45120  1  0
 46121  1  0
 47122  1  0
 47123  1  0
 48 41  1  0
 48 56  1  0
 48 65  1  0
 48124  1  1
 49 50  1  0
 49 53  1  0
 49 64  1  0
 49125  1  1
 50 51  1  0
 50126  1  0
 50127  1  0
 51 52  1  0
 51128  1  0
 51129  1  0
 52130  1  0
 52131  1  0
 53 54  1  0
 54 55  2  0
 54132  1  0
 55 57  1  0
 55133  1  0
 56 69  2  0
 57 58  2  0
 57134  1  0
 58135  1  0
 59 60  1  0
 59 61  1  0
 59 62  1  0
 60136  1  0
 60137  1  0
 60138  1  0
 61139  1  0
 61140  1  0
 61141  1  0
 62142  1  0
 62143  1  0
 62144  1  0
 63 65  1  0
 63145  1  0
 63146  1  0
 63147  1  0
 64148  1  0
 65149  1  0
 68 86  1  0
 71 73  2  0
 71 74  1  0
 71150  1  0
 72 73  1  0
 72 75  2  0
 72151  1  0
 73 76  1  0
 74 85  1  0
 74 87  2  0
 75 87  1  0
 75 88  1  0
 76 78  1  0
 76 89  2  0
 77 83  1  0
 77 85  1  0
 77 90  2  0
 78152  1  0
 78153  1  0
 78154  1  0
 79155  1  0
 79156  1  0
 79157  1  0
 80 85  1  0
 80158  1  0
 80159  1  0
 80160  1  0
 81161  1  0
 81162  1  0
 81163  1  0
 82 86  1  0
 82164  1  0
 82165  1  0
 82166  1  0
 83 84  1  0
 83167  1  0
 83168  1  0
 84 86  1  0
 84169  1  0
 84170  1  0
 85 79  1  0
 86 81  1  0
 88171  1  0
M  ISO  4   1 100  68 101  86 101  88 100
M  END
$$$$
81
     RDKit          3D

160168  0  0  0  0  0  0  0  0999 V2000
  -30.7652  -14.3608   20.6636 C   0  0  0  0  0  0  0  0  0100  0  0
  -30.4392  -12.2669   19.3775 C   0  0  0  0  0  0  0  0  0101  0  0
  -29.4791  -12.5281   18.1977 C   0  0  0  0  0  0  0  0  0102  0  0
  -27.9985  -12.3963   18.6038 C   0  0  0  0  0  0  0  0  0103  0  0
  -27.6639  -13.2170   19.8820 C   0  0  2  0  0  0  0  0  0104  0  0
  -28.6795  -12.9602   21.0279 C   0  0  0  0  0  0  0  0  0105  0  0
  -25.2633  -13.8245   20.5754 C   0  0  0  0  0  0  0  0  0106  0  0
  -24.1645  -13.0409   20.9408 C   0  0  0  0  0  0  0  0  0107  0  0
  -24.6400  -11.7009   20.8697 C   0  0  0  0  0  0  0  0  0108  0  0
  -23.9005  -10.4085   21.0420 C   0  0  0  0  0  0  0  0  0109  0  0
  -24.3588   -9.4123   21.9123 C   0  0  0  0  0  0  0  0  0110  0  0
  -23.6296   -8.2350   22.0803 C   0  0  0  0  0  0  0  0  0111  0  0
  -22.4385   -8.0419   21.3657 C   0  0  0  0  0  0  0  0  0112  0  0
  -22.0103   -9.0167   20.4678 C   0  0  0  0  0  0  0  0  0113  0  0
  -22.7317  -10.1925   20.3102 C   0  0  0  0  0  0  0  0  0114  0  0
  -21.6857   -6.0709   22.5391 C   0  0  0  0  0  0  0  0  0115  0  0
  -21.4064   -6.5490   23.8264 C   0  0  0  0  0  0  0  0  0116  0  0
  -21.3635   -5.6677   24.9085 C   0  0  0  0  0  0  0  0  0117  0  0
  -21.5973   -4.3067   24.7088 C   0  0  0  0  0  0  0  0  0118  0  0
  -21.8700   -3.8284   23.4282 C   0  0  0  0  0  0  0  0  0119  0  0
  -21.9144   -4.7056   22.3460 C   0  0  0  0  0  0  0  0  0120  0  0
  -22.8194  -13.5263   21.1763 C   0  0  0  0  0  0  0  0  0121  0  0
  -22.1559   -4.2206   21.1063 F   0  0  0  0  0  0  0  0  0122  0  0
  -21.5628   -3.4510   25.7555 F   0  0  0  0  0  0  0  0  0123  0  0
  -30.0261  -13.1803   20.4553 N   0  0  0  0  0  0  0  0  0124  0  0
  -26.2911  -12.9356   20.3443 N   0  0  0  0  0  0  0  0  0125  0  0
  -25.9236  -11.6675   20.5847 N   0  0  0  0  0  0  0  0  0126  0  0
  -22.0708  -12.7905   22.0005 N   0  0  0  0  0  0  0  0  0127  0  0
  -25.4117  -15.1773   20.4097 N   0  0  0  0  0  0  0  0  0128  0  0
  -31.7916  -14.6724   20.0536 O   0  0  0  0  0  0  0  0  0129  0  0
  -21.6670   -6.9022   21.4423 O   0  0  0  0  0  0  0  0  0130  0  0
  -22.3946  -14.5564   20.6568 O   0  0  0  0  0  0  0  0  0131  0  0
  -24.6048  -31.8614   23.2223 C   0  0  0  0  0  0  0  0  0100  0  0
  -25.8822  -32.4841   23.8616 C   0  0  1  0  0  0  0  0  0101  0  0
  -27.2536  -27.5042   20.1156 C   0  0  0  0  0  0  0  0  0102  0  0
  -25.5726  -33.8762   24.2210 N   0  0  0  0  0  0  0  0  0103  0  0
  -23.4066  -30.4859   21.5461 C   0  0  2  0  0  0  0  0  0104  0  0
  -24.8467  -28.9636   20.1247 C   0  0  0  0  0  0  0  0  0105  0  0
  -22.7412  -29.4652   22.5052 C   0  0  0  0  0  0  0  0  0106  0  0
  -18.0167  -28.1302   22.8626 C   0  0  0  0  0  0  0  0  0107  0  0
  -24.1342  -36.7390   23.2568 C   0  0  0  0  0  0  0  0  0108  0  0
  -25.9141  -30.8882   21.3456 C   0  0  0  0  0  0  0  0  0109  0  0
  -25.9930  -29.5029   20.7208 C   0  0  0  0  0  0  0  0  0110  0  0
  -27.1758  -28.7612   20.7331 C   0  0  0  0  0  0  0  0  0111  0  0
  -26.1032  -26.9836   19.5230 C   0  0  0  0  0  0  0  0  0112  0  0
  -24.9097  -27.7011   19.5331 C   0  0  0  0  0  0  0  0  0113  0  0
  -23.5715  -29.7899   20.1582 C   0  0  0  0  0  0  0  0  0114  0  0
  -25.3990  -36.3212   24.0232 C   0  0  1  0  0  0  0  0  0115  0  0
  -20.5793  -28.3813   23.1004 C   0  0  2  0  0  0  0  0  0116  0  0
  -20.6548  -26.9392   22.5411 C   0  0  0  0  0  0  0  0  0117  0  0
  -19.5615  -26.6407   21.5143 C   0  0  0  0  0  0  0  0  0118  0  0
  -18.1797  -26.7818   22.1673 C   0  0  0  0  0  0  0  0  0119  0  0
  -19.1385  -28.8769   23.2988 C   0  0  0  0  0  0  0  0  0120  0  0
  -18.9183  -30.1286   23.8878 C   0  0  0  0  0  0  0  0  0121  0  0
  -17.6396  -30.6493   24.0352 C   0  0  0  0  0  0  0  0  0122  0  0
  -25.9153  -34.9582   23.4993 C   0  0  0  0  0  0  0  0  0123  0  0
  -16.5415  -29.9068   23.6254 C   0  0  0  0  0  0  0  0  0124  0  0
  -16.7331  -28.6521   23.0586 C   0  0  0  0  0  0  0  0  0125  0  0
  -26.4583  -31.6439   25.0683 C   0  0  0  0  0  0  0  0  0126  0  0
  -25.3807  -31.3179   26.1374 C   0  0  0  0  0  0  0  0  0127  0  0
  -27.0530  -30.3024   24.5680 C   0  0  0  0  0  0  0  0  0128  0  0
  -27.6014  -32.4281   25.7651 C   0  0  0  0  0  0  0  0  0129  0  0
  -27.5629  -37.2220   24.8621 C   0  0  0  0  0  0  0  0  0130  0  0
  -21.4133  -29.3375   22.3735 N   0  0  0  0  0  0  0  0  0131  0  0
  -26.4706  -37.3372   23.9061 N   0  0  0  0  0  0  0  0  0132  0  0
  -24.6674  -31.0544   22.1178 N   0  0  0  0  0  0  0  0  0133  0  0
  -23.4259  -28.8150   23.2971 O   0  0  0  0  0  0  0  0  0134  0  0
  -28.3948  -26.7345   20.0089 O   0  0  0  0  0  0  0  0  0135  0  0
  -26.5870  -34.9065   22.4671 O   0  0  0  0  0  0  0  0  0136  0  0
  -23.5365  -32.1254   23.7833 O   0  0  0  0  0  0  0  0  0137  0  0
  -30.5096  -18.3445   23.9955 C   0  0  0  0  0  0  0  0  0  0  0  0
  -31.8948  -18.3259   24.1584 C   0  0  0  0  0  0  0  0  0  0  0  0
  -32.0601  -16.5327   22.5477 C   0  0  0  0  0  0  0  0  0  0  0  0
  -29.8996  -17.4572   23.1087 C   0  0  0  0  0  0  0  0  0  0  0  0
  -30.6749  -16.5513   22.3848 C   0  0  0  0  0  0  0  0  0  0  0  0
  -32.6700  -17.4200   23.4344 C   0  0  0  0  0  0  0  0  0  0  0  0
  -36.0331  -18.6490   23.3661 C   0  0  0  0  0  0  0  0  0  0  0  0
  -37.1428  -18.7935   24.1055 C   0  0  0  0  0  0  0  0  0  0  0  0
  -39.3977  -17.7254   24.1437 C   0  0  0  0  0  0  0  0  0  0  0  0
  -27.7289  -18.6872   23.1329 C   0  0  0  0  0  0  0  0  0  0  0  0
  -34.6527  -18.6337   23.9363 C   0  0  0  0  0  0  0  0  0  0  0  0
  -38.5284  -18.8152   23.5307 C   0  0  1  0  0  0  0  0  0  1  0  0
  -30.0773  -15.6405   21.4787 N   0  0  0  0  0  0  0  0  0  0  0  0
  -28.4951  -17.4936   22.9597 N   0  0  0  0  0  0  0  0  0  0  0  0
  -34.0312  -17.4024   23.5955 O   0  0  0  0  0  0  0  0  0  0  0  0
  -31.4485  -12.4701   19.0860 H   0  0  0  0  0  0  0  0  0  0  0  0
  -30.3970  -11.2460   19.6950 H   0  0  0  0  0  0  0  0  0  0  0  0
  -29.6870  -11.8204   17.4226 H   0  0  0  0  0  0  0  0  0  0  0  0
  -29.6375  -13.5326   17.8649 H   0  0  0  0  0  0  0  0  0  0  0  0
  -27.7830  -11.3650   18.7904 H   0  0  0  0  0  0  0  0  0  0  0  0
  -27.4028  -12.7801   17.8021 H   0  0  0  0  0  0  0  0  0  0  0  0
  -27.7353  -14.2503   19.6136 H   0  0  0  0  0  0  0  0  0  0  0  0
  -28.5890  -11.9550   21.3832 H   0  0  0  0  0  0  0  0  0  0  0  0
  -28.5005  -13.6134   21.8562 H   0  0  0  0  0  0  0  0  0  0  0  0
  -25.2399   -9.5495   22.4318 H   0  0  0  0  0  0  0  0  0  0  0  0
  -23.9663   -7.5070   22.7297 H   0  0  0  0  0  0  0  0  0  0  0  0
  -21.1515   -8.8641   19.9162 H   0  0  0  0  0  0  0  0  0  0  0  0
  -22.4016  -10.9115   19.6476 H   0  0  0  0  0  0  0  0  0  0  0  0
  -21.2319   -7.5552   23.9750 H   0  0  0  0  0  0  0  0  0  0  0  0
  -21.1589   -6.0228   25.8556 H   0  0  0  0  0  0  0  0  0  0  0  0
  -22.0396   -2.8212   23.2809 H   0  0  0  0  0  0  0  0  0  0  0  0
  -22.4401  -11.9703   22.4008 H   0  0  0  0  0  0  0  0  0  0  0  0
  -21.1493  -13.0679   22.2082 H   0  0  0  0  0  0  0  0  0  0  0  0
  -24.6538  -15.7807   20.5848 H   0  0  0  0  0  0  0  0  0  0  0  0
  -26.2762  -15.5453   20.1156 H   0  0  0  0  0  0  0  0  0  0  0  0
  -26.6778  -32.4663   23.1464 H   0  0  0  0  0  0  0  0  0  0  0  0
  -25.0747  -34.0282   25.0566 H   0  0  0  0  0  0  0  0  0  0  0  0
  -22.7881  -31.3489   21.4131 H   0  0  0  0  0  0  0  0  0  0  0  0
  -23.3854  -35.9823   23.3648 H   0  0  0  0  0  0  0  0  0  0  0  0
  -24.3696  -36.8624   22.2204 H   0  0  0  0  0  0  0  0  0  0  0  0
  -23.7669  -37.6632   23.6516 H   0  0  0  0  0  0  0  0  0  0  0  0
  -25.9445  -31.6237   20.5691 H   0  0  0  0  0  0  0  0  0  0  0  0
  -26.7436  -31.0079   22.0108 H   0  0  0  0  0  0  0  0  0  0  0  0
  -28.0090  -29.1452   21.2057 H   0  0  0  0  0  0  0  0  0  0  0  0
  -26.1369  -26.0560   19.0719 H   0  0  0  0  0  0  0  0  0  0  0  0
  -24.0652  -27.2961   19.0997 H   0  0  0  0  0  0  0  0  0  0  0  0
  -23.6156  -30.5365   19.3930 H   0  0  0  0  0  0  0  0  0  0  0  0
  -22.7355  -29.1425   19.9945 H   0  0  0  0  0  0  0  0  0  0  0  0
  -25.1353  -36.2335   25.0565 H   0  0  0  0  0  0  0  0  0  0  0  0
  -21.0070  -28.3206   24.0793 H   0  0  0  0  0  0  0  0  0  0  0  0
  -20.5555  -26.2518   23.3550 H   0  0  0  0  0  0  0  0  0  0  0  0
  -21.5974  -26.8362   22.0454 H   0  0  0  0  0  0  0  0  0  0  0  0
  -19.6810  -25.6422   21.1488 H   0  0  0  0  0  0  0  0  0  0  0  0
  -19.6406  -27.3343   20.7034 H   0  0  0  0  0  0  0  0  0  0  0  0
  -17.4282  -26.6888   21.4113 H   0  0  0  0  0  0  0  0  0  0  0  0
  -18.0803  -26.0130   22.9049 H   0  0  0  0  0  0  0  0  0  0  0  0
  -19.7265  -30.6774   24.2204 H   0  0  0  0  0  0  0  0  0  0  0  0
  -17.5064  -31.5856   24.4483 H   0  0  0  0  0  0  0  0  0  0  0  0
  -15.5878  -30.2839   23.7407 H   0  0  0  0  0  0  0  0  0  0  0  0
  -15.9120  -28.0941   22.7766 H   0  0  0  0  0  0  0  0  0  0  0  0
  -24.5787  -30.7757   25.6817 H   0  0  0  0  0  0  0  0  0  0  0  0
  -25.0041  -32.2289   26.5536 H   0  0  0  0  0  0  0  0  0  0  0  0
  -25.8166  -30.7245   26.9138 H   0  0  0  0  0  0  0  0  0  0  0  0
  -26.2892  -29.7335   24.0803 H   0  0  0  0  0  0  0  0  0  0  0  0
  -27.4336  -29.7484   25.4006 H   0  0  0  0  0  0  0  0  0  0  0  0
  -27.8466  -30.4994   23.8779 H   0  0  0  0  0  0  0  0  0  0  0  0
  -27.2251  -33.3632   26.1242 H   0  0  0  0  0  0  0  0  0  0  0  0
  -28.3902  -32.6065   25.0645 H   0  0  0  0  0  0  0  0  0  0  0  0
  -27.9772  -31.8555   26.5872 H   0  0  0  0  0  0  0  0  0  0  0  0
  -28.2744  -38.0016   24.6863 H   0  0  0  0  0  0  0  0  0  0  0  0
  -28.0396  -36.2711   24.7461 H   0  0  0  0  0  0  0  0  0  0  0  0
  -27.1773  -37.3087   25.8564 H   0  0  0  0  0  0  0  0  0  0  0  0
  -20.9627  -29.9365   21.7352 H   0  0  0  0  0  0  0  0  0  0  0  0
  -26.0447  -38.2561   24.0273 H   0  0  0  0  0  0  0  0  0  0  0  0
  -29.9360  -19.0147   24.5311 H   0  0  0  0  0  0  0  0  0  0  0  0
  -32.3461  -18.9823   24.8145 H   0  0  0  0  0  0  0  0  0  0  0  0
  -32.6337  -15.8624   22.0122 H   0  0  0  0  0  0  0  0  0  0  0  0
  -36.1391  -18.5423   22.3451 H   0  0  0  0  0  0  0  0  0  0  0  0
  -37.0376  -18.8955   25.1270 H   0  0  0  0  0  0  0  0  0  0  0  0
  -40.4068  -17.8431   23.8079 H   0  0  0  0  0  0  0  0  0  0  0  0
  -39.0315  -16.7659   23.8433 H   0  0  0  0  0  0  0  0  0  0  0  0
  -39.3656  -17.8015   25.2105 H   0  0  0  0  0  0  0  0  0  0  0  0
  -26.6932  -18.4729   22.9707 H   0  0  0  0  0  0  0  0  0  0  0  0
  -28.0547  -19.4253   22.4301 H   0  0  0  0  0  0  0  0  0  0  0  0
  -27.8651  -19.0572   24.1276 H   0  0  0  0  0  0  0  0  0  0  0  0
  -34.0870  -19.4465   23.5311 H   0  0  0  0  0  0  0  0  0  0  0  0
  -34.6973  -18.7366   25.0004 H   0  0  0  0  0  0  0  0  0  0  0  0
  -39.4914  -18.9331   23.0793 H   0  0  0  0  0  0  0  0  0  0  0  0
  -29.1188  -15.7845   21.3062 H   0  0  0  0  0  0  0  0  0  0  0  0
  -28.0242  -16.6610   22.7266 H   0  0  0  0  0  0  0  0  0  0  0  0
  1 25  1  0
  1 30  2  0
  1 83  1  0
  2  3  1  0
  2 25  1  0
  2 86  1  0
  2 87  1  0
  3  4  1  0
  3 88  1  0
  3 89  1  0
  4  5  1  0
  4 90  1  0
  4 91  1  0
  5  6  1  0
  5 26  1  0
  5 92  1  6
  6 25  1  0
  6 93  1  0
  6 94  1  0
  7  8  2  0
  7 26  1  0
  7 29  1  0
  8  9  1  0
  8 22  1  0
  9 10  1  0
  9 27  2  0
 10 11  2  0
 10 15  1  0
 11 12  1  0
 11 95  1  0
 12 13  2  0
 12 96  1  0
 13 14  1  0
 13 31  1  0
 14 15  2  0
 14 97  1  0
 15 98  1  0
 16 17  2  0
 16 21  1  0
 16 31  1  0
 17 18  1  0
 17 99  1  0
 18 19  2  0
 18100  1  0
 19 20  1  0
 19 24  1  0
 20 21  2  0
 20101  1  0
 21 23  1  0
 22 28  1  0
 22 32  2  0
 26 27  1  0
 28102  1  0
 28103  1  0
 29104  1  0
 29105  1  0
 33 34  1  0
 33 66  1  0
 33 70  2  0
 34 36  1  0
 34 59  1  0
 34106  1  6
 35 44  2  0
 35 45  1  0
 35 68  1  0
 36 56  1  0
 36107  1  0
 37 39  1  0
 37 47  1  0
 37 66  1  0
 37108  1  6
 38 43  2  0
 38 46  1  0
 38 47  1  0
 39 64  1  0
 39 67  2  0
 40 52  1  0
 40 53  2  0
 40 58  1  0
 41109  1  0
 41110  1  0
 41111  1  0
 42 43  1  0
 42 66  1  0
 42112  1  0
 42113  1  0
 43 44  1  0
 44114  1  0
 45 46  2  0
 45115  1  0
 46116  1  0
 47117  1  0
 47118  1  0
 48 41  1  0
 48 56  1  0
 48 65  1  0
 48119  1  1
 49 50  1  0
 49 53  1  0
 49 64  1  0
 49120  1  1
 50 51  1  0
 50121  1  0
 50122  1  0
 51 52  1  0
 51123  1  0
 51124  1  0
 52125  1  0
 52126  1  0
 53 54  1  0
 54 55  2  0
 54127  1  0
 55 57  1  0
 55128  1  0
 56 69  2  0
 57 58  2  0
 57129  1  0
 58130  1  0
 59 60  1  0
 59 61  1  0
 59 62  1  0
 60131  1  0
 60132  1  0
 60133  1  0
 61134  1  0
 61135  1  0
 61136  1  0
 62137  1  0
 62138  1  0
 62139  1  0
 63 65  1  0
 63140  1  0
 63141  1  0
 63142  1  0
 64143  1  0
 65144  1  0
 68 82  1  0
 71 72  2  0
 71 74  1  0
 71145  1  0
 72 76  1  0
 72146  1  0
 73 75  1  0
 73 76  2  0
 73147  1  0
 74 75  2  0
 74 84  1  0
 75 83  1  0
 76 85  1  0
 77 78  2  0
 77 81  1  0
 77148  1  0
 78 82  1  0
 78149  1  0
 79150  1  0
 79151  1  0
 79152  1  0
 80 84  1  0
 80153  1  0
 80154  1  0
 80155  1  0
 81 85  1  0
 81156  1  0
 81157  1  0
 82 79  1  0
 82158  1  1
 83159  1  0
 84160  1  0
M  ISO  4   1 100  68 101  82 101  83 100
M  END
$$$$
82
     RDKit          3D

159167  0  0  0  0  0  0  0  0999 V2000
  -30.7652  -14.3608   20.6636 C   0  0  0  0  0  0  0  0  0100  0  0
  -30.4392  -12.2669   19.3775 C   0  0  0  0  0  0  0  0  0101  0  0
  -29.4791  -12.5281   18.1977 C   0  0  0  0  0  0  0  0  0102  0  0
  -27.9985  -12.3963   18.6038 C   0  0  0  0  0  0  0  0  0103  0  0
  -27.6639  -13.2170   19.8820 C   0  0  2  0  0  0  0  0  0104  0  0
  -28.6795  -12.9602   21.0279 C   0  0  0  0  0  0  0  0  0105  0  0
  -25.2633  -13.8245   20.5754 C   0  0  0  0  0  0  0  0  0106  0  0
  -24.1645  -13.0409   20.9408 C   0  0  0  0  0  0  0  0  0107  0  0
  -24.6400  -11.7009   20.8697 C   0  0  0  0  0  0  0  0  0108  0  0
  -23.9005  -10.4085   21.0420 C   0  0  0  0  0  0  0  0  0109  0  0
  -24.3588   -9.4123   21.9123 C   0  0  0  0  0  0  0  0  0110  0  0
  -23.6296   -8.2350   22.0803 C   0  0  0  0  0  0  0  0  0111  0  0
  -22.4385   -8.0419   21.3657 C   0  0  0  0  0  0  0  0  0112  0  0
  -22.0103   -9.0167   20.4678 C   0  0  0  0  0  0  0  0  0113  0  0
  -22.7317  -10.1925   20.3102 C   0  0  0  0  0  0  0  0  0114  0  0
  -21.6857   -6.0709   22.5391 C   0  0  0  0  0  0  0  0  0115  0  0
  -21.4064   -6.5490   23.8264 C   0  0  0  0  0  0  0  0  0116  0  0
  -21.3635   -5.6677   24.9085 C   0  0  0  0  0  0  0  0  0117  0  0
  -21.5973   -4.3067   24.7088 C   0  0  0  0  0  0  0  0  0118  0  0
  -21.8700   -3.8284   23.4282 C   0  0  0  0  0  0  0  0  0119  0  0
  -21.9144   -4.7056   22.3460 C   0  0  0  0  0  0  0  0  0120  0  0
  -22.8194  -13.5263   21.1763 C   0  0  0  0  0  0  0  0  0121  0  0
  -22.1559   -4.2206   21.1063 F   0  0  0  0  0  0  0  0  0122  0  0
  -21.5628   -3.4510   25.7555 F   0  0  0  0  0  0  0  0  0123  0  0
  -30.0261  -13.1803   20.4553 N   0  0  0  0  0  0  0  0  0124  0  0
  -26.2911  -12.9356   20.3443 N   0  0  0  0  0  0  0  0  0125  0  0
  -25.9236  -11.6675   20.5847 N   0  0  0  0  0  0  0  0  0126  0  0
  -22.0708  -12.7905   22.0005 N   0  0  0  0  0  0  0  0  0127  0  0
  -25.4117  -15.1773   20.4097 N   0  0  0  0  0  0  0  0  0128  0  0
  -31.7916  -14.6724   20.0536 O   0  0  0  0  0  0  0  0  0129  0  0
  -21.6670   -6.9022   21.4423 O   0  0  0  0  0  0  0  0  0130  0  0
  -22.3946  -14.5564   20.6568 O   0  0  0  0  0  0  0  0  0131  0  0
  -24.6048  -31.8614   23.2223 C   0  0  0  0  0  0  0  0  0100  0  0
  -25.8822  -32.4841   23.8616 C   0  0  1  0  0  0  0  0  0101  0  0
  -27.2536  -27.5042   20.1156 C   0  0  0  0  0  0  0  0  0102  0  0
  -25.5726  -33.8762   24.2210 N   0  0  0  0  0  0  0  0  0103  0  0
  -23.4066  -30.4859   21.5461 C   0  0  2  0  0  0  0  0  0104  0  0
  -24.8467  -28.9636   20.1247 C   0  0  0  0  0  0  0  0  0105  0  0
  -22.7412  -29.4652   22.5052 C   0  0  0  0  0  0  0  0  0106  0  0
  -18.0167  -28.1302   22.8626 C   0  0  0  0  0  0  0  0  0107  0  0
  -24.1342  -36.7390   23.2568 C   0  0  0  0  0  0  0  0  0108  0  0
  -25.9141  -30.8882   21.3456 C   0  0  0  0  0  0  0  0  0109  0  0
  -25.9930  -29.5029   20.7208 C   0  0  0  0  0  0  0  0  0110  0  0
  -27.1758  -28.7612   20.7331 C   0  0  0  0  0  0  0  0  0111  0  0
  -26.1032  -26.9836   19.5230 C   0  0  0  0  0  0  0  0  0112  0  0
  -24.9097  -27.7011   19.5331 C   0  0  0  0  0  0  0  0  0113  0  0
  -23.5715  -29.7899   20.1582 C   0  0  0  0  0  0  0  0  0114  0  0
  -25.3990  -36.3212   24.0232 C   0  0  1  0  0  0  0  0  0115  0  0
  -20.5793  -28.3813   23.1004 C   0  0  2  0  0  0  0  0  0116  0  0
  -20.6548  -26.9392   22.5411 C   0  0  0  0  0  0  0  0  0117  0  0
  -19.5615  -26.6407   21.5143 C   0  0  0  0  0  0  0  0  0118  0  0
  -18.1797  -26.7818   22.1673 C   0  0  0  0  0  0  0  0  0119  0  0
  -19.1385  -28.8769   23.2988 C   0  0  0  0  0  0  0  0  0120  0  0
  -18.9183  -30.1286   23.8878 C   0  0  0  0  0  0  0  0  0121  0  0
  -17.6396  -30.6493   24.0352 C   0  0  0  0  0  0  0  0  0122  0  0
  -25.9153  -34.9582   23.4993 C   0  0  0  0  0  0  0  0  0123  0  0
  -16.5415  -29.9068   23.6254 C   0  0  0  0  0  0  0  0  0124  0  0
  -16.7331  -28.6521   23.0586 C   0  0  0  0  0  0  0  0  0125  0  0
  -26.4583  -31.6439   25.0683 C   0  0  0  0  0  0  0  0  0126  0  0
  -25.3807  -31.3179   26.1374 C   0  0  0  0  0  0  0  0  0127  0  0
  -27.0530  -30.3024   24.5680 C   0  0  0  0  0  0  0  0  0128  0  0
  -27.6014  -32.4281   25.7651 C   0  0  0  0  0  0  0  0  0129  0  0
  -27.5629  -37.2220   24.8621 C   0  0  0  0  0  0  0  0  0130  0  0
  -21.4133  -29.3375   22.3735 N   0  0  0  0  0  0  0  0  0131  0  0
  -26.4706  -37.3372   23.9061 N   0  0  0  0  0  0  0  0  0132  0  0
  -24.6674  -31.0544   22.1178 N   0  0  0  0  0  0  0  0  0133  0  0
  -23.4259  -28.8150   23.2971 O   0  0  0  0  0  0  0  0  0134  0  0
  -28.3948  -26.7345   20.0089 O   0  0  0  0  0  0  0  0  0135  0  0
  -26.5870  -34.9065   22.4671 O   0  0  0  0  0  0  0  0  0136  0  0
  -23.5365  -32.1254   23.7833 O   0  0  0  0  0  0  0  0  0137  0  0
  -29.7796  -18.9109   20.2318 C   0  0  0  0  0  0  0  0  0  0  0  0
  -29.4549  -19.5867   21.4323 C   0  0  0  0  0  0  0  0  0  0  0  0
  -29.9517  -18.8110   22.4537 C   0  0  0  0  0  0  0  0  0  0  0  0
  -30.4519  -17.7705   20.6053 C   0  0  0  0  0  0  0  0  0  0  0  0
  -28.7646  -20.8074   21.5796 C   0  0  0  0  0  0  0  0  0  0  0  0
  -28.2416  -21.5890   20.5746 C   0  0  0  0  0  0  0  0  0  0  0  0
  -29.9533  -18.9406   23.9194 C   0  0  0  0  0  0  0  0  0  0  0  0
  -33.0459  -15.4254   18.2528 C   0  0  0  0  0  0  0  0  0  0  0  0
  -31.4487  -15.6212   16.3365 C   0  0  0  0  0  0  0  0  0  0  0  0
  -30.8199  -14.2444   18.3610 C   0  0  0  0  0  0  0  0  0  1  0  0
  -30.9188  -16.7646   18.5015 C   0  0  0  0  0  0  0  0  0  0  0  0
  -31.5564  -15.5097   17.8681 C   0  0  0  0  0  0  0  0  0  0  0  0
  -30.5610  -17.7022   21.9581 O   0  0  0  0  0  0  0  0  0  0  0  0
  -31.0145  -16.7260   19.9197 O   0  0  0  0  0  0  0  0  0  0  0  0
  -31.4485  -12.4701   19.0860 H   0  0  0  0  0  0  0  0  0  0  0  0
  -30.3970  -11.2460   19.6950 H   0  0  0  0  0  0  0  0  0  0  0  0
  -29.6870  -11.8204   17.4226 H   0  0  0  0  0  0  0  0  0  0  0  0
  -29.6375  -13.5326   17.8649 H   0  0  0  0  0  0  0  0  0  0  0  0
  -27.7830  -11.3650   18.7904 H   0  0  0  0  0  0  0  0  0  0  0  0
  -27.4028  -12.7801   17.8021 H   0  0  0  0  0  0  0  0  0  0  0  0
  -27.7353  -14.2503   19.6136 H   0  0  0  0  0  0  0  0  0  0  0  0
  -28.5890  -11.9550   21.3832 H   0  0  0  0  0  0  0  0  0  0  0  0
  -28.5005  -13.6134   21.8562 H   0  0  0  0  0  0  0  0  0  0  0  0
  -25.2399   -9.5495   22.4318 H   0  0  0  0  0  0  0  0  0  0  0  0
  -23.9663   -7.5070   22.7297 H   0  0  0  0  0  0  0  0  0  0  0  0
  -21.1515   -8.8641   19.9162 H   0  0  0  0  0  0  0  0  0  0  0  0
  -22.4016  -10.9115   19.6476 H   0  0  0  0  0  0  0  0  0  0  0  0
  -21.2319   -7.5552   23.9750 H   0  0  0  0  0  0  0  0  0  0  0  0
  -21.1589   -6.0228   25.8556 H   0  0  0  0  0  0  0  0  0  0  0  0
  -22.0396   -2.8212   23.2809 H   0  0  0  0  0  0  0  0  0  0  0  0
  -22.4401  -11.9703   22.4008 H   0  0  0  0  0  0  0  0  0  0  0  0
  -21.1493  -13.0679   22.2082 H   0  0  0  0  0  0  0  0  0  0  0  0
  -24.6538  -15.7807   20.5848 H   0  0  0  0  0  0  0  0  0  0  0  0
  -26.2762  -15.5453   20.1156 H   0  0  0  0  0  0  0  0  0  0  0  0
  -26.6778  -32.4663   23.1464 H   0  0  0  0  0  0  0  0  0  0  0  0
  -25.0747  -34.0282   25.0566 H   0  0  0  0  0  0  0  0  0  0  0  0
  -22.7881  -31.3489   21.4131 H   0  0  0  0  0  0  0  0  0  0  0  0
  -23.3854  -35.9823   23.3648 H   0  0  0  0  0  0  0  0  0  0  0  0
  -24.3696  -36.8624   22.2204 H   0  0  0  0  0  0  0  0  0  0  0  0
  -23.7669  -37.6632   23.6516 H   0  0  0  0  0  0  0  0  0  0  0  0
  -25.9445  -31.6237   20.5691 H   0  0  0  0  0  0  0  0  0  0  0  0
  -26.7436  -31.0079   22.0108 H   0  0  0  0  0  0  0  0  0  0  0  0
  -28.0090  -29.1452   21.2057 H   0  0  0  0  0  0  0  0  0  0  0  0
  -26.1369  -26.0560   19.0719 H   0  0  0  0  0  0  0  0  0  0  0  0
  -24.0652  -27.2961   19.0997 H   0  0  0  0  0  0  0  0  0  0  0  0
  -23.6156  -30.5365   19.3930 H   0  0  0  0  0  0  0  0  0  0  0  0
  -22.7355  -29.1425   19.9945 H   0  0  0  0  0  0  0  0  0  0  0  0
  -25.1353  -36.2335   25.0565 H   0  0  0  0  0  0  0  0  0  0  0  0
  -21.0070  -28.3206   24.0793 H   0  0  0  0  0  0  0  0  0  0  0  0
  -20.5555  -26.2518   23.3550 H   0  0  0  0  0  0  0  0  0  0  0  0
  -21.5974  -26.8362   22.0454 H   0  0  0  0  0  0  0  0  0  0  0  0
  -19.6810  -25.6422   21.1488 H   0  0  0  0  0  0  0  0  0  0  0  0
  -19.6406  -27.3343   20.7034 H   0  0  0  0  0  0  0  0  0  0  0  0
  -17.4282  -26.6888   21.4113 H   0  0  0  0  0  0  0  0  0  0  0  0
  -18.0803  -26.0130   22.9049 H   0  0  0  0  0  0  0  0  0  0  0  0
  -19.7265  -30.6774   24.2204 H   0  0  0  0  0  0  0  0  0  0  0  0
  -17.5064  -31.5856   24.4483 H   0  0  0  0  0  0  0  0  0  0  0  0
  -15.5878  -30.2839   23.7407 H   0  0  0  0  0  0  0  0  0  0  0  0
  -15.9120  -28.0941   22.7766 H   0  0  0  0  0  0  0  0  0  0  0  0
  -24.5787  -30.7757   25.6817 H   0  0  0  0  0  0  0  0  0  0  0  0
  -25.0041  -32.2289   26.5536 H   0  0  0  0  0  0  0  0  0  0  0  0
  -25.8166  -30.7245   26.9138 H   0  0  0  0  0  0  0  0  0  0  0  0
  -26.2892  -29.7335   24.0803 H   0  0  0  0  0  0  0  0  0  0  0  0
  -27.4336  -29.7484   25.4006 H   0  0  0  0  0  0  0  0  0  0  0  0
  -27.8466  -30.4994   23.8779 H   0  0  0  0  0  0  0  0  0  0  0  0
  -27.2251  -33.3632   26.1242 H   0  0  0  0  0  0  0  0  0  0  0  0
  -28.3902  -32.6065   25.0645 H   0  0  0  0  0  0  0  0  0  0  0  0
  -27.9772  -31.8555   26.5872 H   0  0  0  0  0  0  0  0  0  0  0  0
  -28.2744  -38.0016   24.6863 H   0  0  0  0  0  0  0  0  0  0  0  0
  -28.0396  -36.2711   24.7461 H   0  0  0  0  0  0  0  0  0  0  0  0
  -27.1773  -37.3087   25.8564 H   0  0  0  0  0  0  0  0  0  0  0  0
  -20.9627  -29.9365   21.7352 H   0  0  0  0  0  0  0  0  0  0  0  0
  -26.0447  -38.2561   24.0273 H   0  0  0  0  0  0  0  0  0  0  0  0
  -29.5569  -19.2128   19.2704 H   0  0  0  0  0  0  0  0  0  0  0  0
  -28.6380  -21.1516   22.5442 H   0  0  0  0  0  0  0  0  0  0  0  0
  -27.8409  -22.4428   20.1557 H   0  0  0  0  0  0  0  0  0  0  0  0
  -29.4509  -19.8432   24.1982 H   0  0  0  0  0  0  0  0  0  0  0  0
  -30.9625  -18.9701   24.2737 H   0  0  0  0  0  0  0  0  0  0  0  0
  -29.4477  -18.1027   24.3521 H   0  0  0  0  0  0  0  0  0  0  0  0
  -33.4798  -14.5534   17.8099 H   0  0  0  0  0  0  0  0  0  0  0  0
  -33.1366  -15.3675   19.3174 H   0  0  0  0  0  0  0  0  0  0  0  0
  -33.5557  -16.2968   17.8983 H   0  0  0  0  0  0  0  0  0  0  0  0
  -31.8875  -14.7565   15.8842 H   0  0  0  0  0  0  0  0  0  0  0  0
  -31.9653  -16.4978   16.0055 H   0  0  0  0  0  0  0  0  0  0  0  0
  -30.4184  -15.6868   16.0552 H   0  0  0  0  0  0  0  0  0  0  0  0
  -31.2097  -13.6367   19.1507 H   0  0  0  0  0  0  0  0  0  0  0  0
  -30.3521  -13.3658   17.9683 H   0  0  0  0  0  0  0  0  0  0  0  0
  -29.8871  -16.8116   18.2219 H   0  0  0  0  0  0  0  0  0  0  0  0
  -31.4433  -17.6278   18.1485 H   0  0  0  0  0  0  0  0  0  0  0  0
  1 25  1  0
  1 30  2  0
  1 76  1  0
  2  3  1  0
  2 25  1  0
  2 85  1  0
  2 86  1  0
  3  4  1  0
  3 87  1  0
  3 88  1  0
  4  5  1  0
  4 89  1  0
  4 90  1  0
  5  6  1  0
  5 26  1  0
  5 91  1  6
  6 25  1  0
  6 92  1  0
  6 93  1  0
  7  8  2  0
  7 26  1  0
  7 29  1  0
  8  9  1  0
  8 22  1  0
  9 10  1  0
  9 27  2  0
 10 11  2  0
 10 15  1  0
 11 12  1  0
 11 94  1  0
 12 13  2  0
 12 95  1  0
 13 14  1  0
 13 31  1  0
 14 15  2  0
 14 96  1  0
 15 97  1  0
 16 17  2  0
 16 21  1  0
 16 31  1  0
 17 18  1  0
 17 98  1  0
 18 19  2  0
 18 99  1  0
 19 20  1  0
 19 24  1  0
 20 21  2  0
 20100  1  0
 21 23  1  0
 22 28  1  0
 22 32  2  0
 26 27  1  0
 28101  1  0
 28102  1  0
 29103  1  0
 29104  1  0
 33 34  1  0
 33 66  1  0
 33 70  2  0
 34 36  1  0
 34 59  1  0
 34105  1  6
 35 44  2  0
 35 45  1  0
 35 68  1  0
 36 56  1  0
 36106  1  0
 37 39  1  0
 37 47  1  0
 37 66  1  0
 37107  1  6
 38 43  2  0
 38 46  1  0
 38 47  1  0
 39 64  1  0
 39 67  2  0
 40 52  1  0
 40 53  2  0
 40 58  1  0
 41108  1  0
 41109  1  0
 41110  1  0
 42 43  1  0
 42 66  1  0
 42111  1  0
 42112  1  0
 43 44  1  0
 44113  1  0
 45 46  2  0
 45114  1  0
 46115  1  0
 47116  1  0
 47117  1  0
 48 41  1  0
 48 56  1  0
 48 65  1  0
 48118  1  1
 49 50  1  0
 49 53  1  0
 49 64  1  0
 49119  1  1
 50 51  1  0
 50120  1  0
 50121  1  0
 51 52  1  0
 51122  1  0
 51123  1  0
 52124  1  0
 52125  1  0
 53 54  1  0
 54 55  2  0
 54126  1  0
 55 57  1  0
 55127  1  0
 56 69  2  0
 57 58  2  0
 57128  1  0
 58129  1  0
 59 60  1  0
 59 61  1  0
 59 62  1  0
 60130  1  0
 60131  1  0
 60132  1  0
 61133  1  0
 61134  1  0
 61135  1  0
 62136  1  0
 62137  1  0
 62138  1  0
 63 65  1  0
 63139  1  0
 63140  1  0
 63141  1  0
 64142  1  0
 65143  1  0
 68 80  1  0
 71 72  1  0
 71 74  2  0
 71144  1  0
 72 73  2  0
 72 75  1  0
 73 77  1  0
 73 83  1  0
 74 83  1  0
 74 84  1  0
 75 76  2  0
 75145  1  0
 76146  1  0
 77147  1  0
 77148  1  0
 77149  1  0
 78150  1  0
 78151  1  0
 78152  1  0
 79 82  1  0
 79153  1  0
 79154  1  0
 79155  1  0
 80 82  1  0
 80156  1  0
 80157  1  0
 81 82  1  0
 81 84  1  0
 81158  1  0
 81159  1  0
 82 78  1  0
M  ISO  4   1 100  68 101  76 100  80 101
M  END
$$$$
83
     RDKit          3D

169177  0  0  0  0  0  0  0  0999 V2000
  -30.7652  -14.3608   20.6636 C   0  0  0  0  0  0  0  0  0100  0  0
  -30.4392  -12.2669   19.3775 C   0  0  0  0  0  0  0  0  0101  0  0
  -29.4791  -12.5281   18.1977 C   0  0  0  0  0  0  0  0  0102  0  0
  -27.9985  -12.3963   18.6038 C   0  0  0  0  0  0  0  0  0103  0  0
  -27.6639  -13.2170   19.8820 C   0  0  2  0  0  0  0  0  0104  0  0
  -28.6795  -12.9602   21.0279 C   0  0  0  0  0  0  0  0  0105  0  0
  -25.2633  -13.8245   20.5754 C   0  0  0  0  0  0  0  0  0106  0  0
  -24.1645  -13.0409   20.9408 C   0  0  0  0  0  0  0  0  0107  0  0
  -24.6400  -11.7009   20.8697 C   0  0  0  0  0  0  0  0  0108  0  0
  -23.9005  -10.4085   21.0420 C   0  0  0  0  0  0  0  0  0109  0  0
  -24.3588   -9.4123   21.9123 C   0  0  0  0  0  0  0  0  0110  0  0
  -23.6296   -8.2350   22.0803 C   0  0  0  0  0  0  0  0  0111  0  0
  -22.4385   -8.0419   21.3657 C   0  0  0  0  0  0  0  0  0112  0  0
  -22.0103   -9.0167   20.4678 C   0  0  0  0  0  0  0  0  0113  0  0
  -22.7317  -10.1925   20.3102 C   0  0  0  0  0  0  0  0  0114  0  0
  -21.6857   -6.0709   22.5391 C   0  0  0  0  0  0  0  0  0115  0  0
  -21.4064   -6.5490   23.8264 C   0  0  0  0  0  0  0  0  0116  0  0
  -21.3635   -5.6677   24.9085 C   0  0  0  0  0  0  0  0  0117  0  0
  -21.5973   -4.3067   24.7088 C   0  0  0  0  0  0  0  0  0118  0  0
  -21.8700   -3.8284   23.4282 C   0  0  0  0  0  0  0  0  0119  0  0
  -21.9144   -4.7056   22.3460 C   0  0  0  0  0  0  0  0  0120  0  0
  -22.8194  -13.5263   21.1763 C   0  0  0  0  0  0  0  0  0121  0  0
  -22.1559   -4.2206   21.1063 F   0  0  0  0  0  0  0  0  0122  0  0
  -21.5628   -3.4510   25.7555 F   0  0  0  0  0  0  0  0  0123  0  0
  -30.0261  -13.1803   20.4553 N   0  0  0  0  0  0  0  0  0124  0  0
  -26.2911  -12.9356   20.3443 N   0  0  0  0  0  0  0  0  0125  0  0
  -25.9236  -11.6675   20.5847 N   0  0  0  0  0  0  0  0  0126  0  0
  -22.0708  -12.7905   22.0005 N   0  0  0  0  0  0  0  0  0127  0  0
  -25.4117  -15.1773   20.4097 N   0  0  0  0  0  0  0  0  0128  0  0
  -31.7916  -14.6724   20.0536 O   0  0  0  0  0  0  0  0  0129  0  0
  -21.6670   -6.9022   21.4423 O   0  0  0  0  0  0  0  0  0130  0  0
  -22.3946  -14.5564   20.6568 O   0  0  0  0  0  0  0  0  0131  0  0
  -24.6048  -31.8614   23.2223 C   0  0  0  0  0  0  0  0  0100  0  0
  -25.8822  -32.4841   23.8616 C   0  0  1  0  0  0  0  0  0101  0  0
  -27.2536  -27.5042   20.1156 C   0  0  0  0  0  0  0  0  0102  0  0
  -25.5726  -33.8762   24.2210 N   0  0  0  0  0  0  0  0  0103  0  0
  -23.4066  -30.4859   21.5461 C   0  0  2  0  0  0  0  0  0104  0  0
  -24.8467  -28.9636   20.1247 C   0  0  0  0  0  0  0  0  0105  0  0
  -22.7412  -29.4652   22.5052 C   0  0  0  0  0  0  0  0  0106  0  0
  -18.0167  -28.1302   22.8626 C   0  0  0  0  0  0  0  0  0107  0  0
  -24.1342  -36.7390   23.2568 C   0  0  0  0  0  0  0  0  0108  0  0
  -25.9141  -30.8882   21.3456 C   0  0  0  0  0  0  0  0  0109  0  0
  -25.9930  -29.5029   20.7208 C   0  0  0  0  0  0  0  0  0110  0  0
  -27.1758  -28.7612   20.7331 C   0  0  0  0  0  0  0  0  0111  0  0
  -26.1032  -26.9836   19.5230 C   0  0  0  0  0  0  0  0  0112  0  0
  -24.9097  -27.7011   19.5331 C   0  0  0  0  0  0  0  0  0113  0  0
  -23.5715  -29.7899   20.1582 C   0  0  0  0  0  0  0  0  0114  0  0
  -25.3990  -36.3212   24.0232 C   0  0  1  0  0  0  0  0  0115  0  0
  -20.5793  -28.3813   23.1004 C   0  0  2  0  0  0  0  0  0116  0  0
  -20.6548  -26.9392   22.5411 C   0  0  0  0  0  0  0  0  0117  0  0
  -19.5615  -26.6407   21.5143 C   0  0  0  0  0  0  0  0  0118  0  0
  -18.1797  -26.7818   22.1673 C   0  0  0  0  0  0  0  0  0119  0  0
  -19.1385  -28.8769   23.2988 C   0  0  0  0  0  0  0  0  0120  0  0
  -18.9183  -30.1286   23.8878 C   0  0  0  0  0  0  0  0  0121  0  0
  -17.6396  -30.6493   24.0352 C   0  0  0  0  0  0  0  0  0122  0  0
  -25.9153  -34.9582   23.4993 C   0  0  0  0  0  0  0  0  0123  0  0
  -16.5415  -29.9068   23.6254 C   0  0  0  0  0  0  0  0  0124  0  0
  -16.7331  -28.6521   23.0586 C   0  0  0  0  0  0  0  0  0125  0  0
  -26.4583  -31.6439   25.0683 C   0  0  0  0  0  0  0  0  0126  0  0
  -25.3807  -31.3179   26.1374 C   0  0  0  0  0  0  0  0  0127  0  0
  -27.0530  -30.3024   24.5680 C   0  0  0  0  0  0  0  0  0128  0  0
  -27.6014  -32.4281   25.7651 C   0  0  0  0  0  0  0  0  0129  0  0
  -27.5629  -37.2220   24.8621 C   0  0  0  0  0  0  0  0  0130  0  0
  -21.4133  -29.3375   22.3735 N   0  0  0  0  0  0  0  0  0131  0  0
  -26.4706  -37.3372   23.9061 N   0  0  0  0  0  0  0  0  0132  0  0
  -24.6674  -31.0544   22.1178 N   0  0  0  0  0  0  0  0  0133  0  0
  -23.4259  -28.8150   23.2971 O   0  0  0  0  0  0  0  0  0134  0  0
  -28.3948  -26.7345   20.0089 O   0  0  0  0  0  0  0  0  0135  0  0
  -26.5870  -34.9065   22.4671 O   0  0  0  0  0  0  0  0  0136  0  0
  -23.5365  -32.1254   23.7833 O   0  0  0  0  0  0  0  0  0137  0  0
  -31.6210  -20.4477   20.7262 C   0  0  0  0  0  0  0  0  0  0  0  0
  -29.4772  -21.5617   20.7274 C   0  0  0  0  0  0  0  0  0  0  0  0
  -31.4708  -22.7791   20.1106 C   0  0  0  0  0  0  0  0  0  0  0  0
  -30.2419  -20.4132   20.9322 C   0  0  0  0  0  0  0  0  0  0  0  0
  -32.2355  -21.6307   20.3154 C   0  0  0  0  0  0  0  0  0  0  0  0
  -30.0916  -22.7446   20.3166 C   0  0  0  0  0  0  0  0  0  0  0  0
  -29.5844  -19.1470   21.3719 C   0  0  0  0  0  0  0  0  0  0  0  0
  -29.7623  -25.1636   19.7022 C   0  0  0  0  0  0  0  0  0  0  0  0
  -34.2505  -23.4996   21.7397 C   0  0  0  0  0  0  0  0  0  0  0  0
  -34.3030  -21.1349   22.5328 C   0  0  0  0  0  0  0  0  0  0  0  0
  -36.0903  -21.9881   20.9952 C   0  0  0  0  0  0  0  0  0  0  0  0
  -33.7102  -21.6678   20.0952 C   0  0  0  0  0  0  0  0  0  0  0  0
  -30.4485  -17.9112   21.5864 C   0  0  0  0  0  0  0  0  0  0  0  0
  -28.6054  -26.1365   19.6008 C   0  0  0  0  0  0  0  0  0  0  0  0
  -29.6446  -16.7049   22.0554 C   0  0  0  0  0  0  0  0  0  1  0  0
  -34.5900  -22.0507   21.3302 C   0  0  0  0  0  0  0  0  0  0  0  0
  -29.3272  -23.8936   20.1113 N   0  0  0  0  0  0  0  0  0  0  0  0
  -28.3684  -19.1338   21.5489 O   0  0  0  0  0  0  0  0  0  0  0  0
  -30.9136  -25.5016   19.4464 O   0  0  0  0  0  0  0  0  0  0  0  0
  -31.4485  -12.4701   19.0860 H   0  0  0  0  0  0  0  0  0  0  0  0
  -30.3970  -11.2460   19.6950 H   0  0  0  0  0  0  0  0  0  0  0  0
  -29.6870  -11.8204   17.4226 H   0  0  0  0  0  0  0  0  0  0  0  0
  -29.6375  -13.5326   17.8649 H   0  0  0  0  0  0  0  0  0  0  0  0
  -27.7830  -11.3650   18.7904 H   0  0  0  0  0  0  0  0  0  0  0  0
  -27.4028  -12.7801   17.8021 H   0  0  0  0  0  0  0  0  0  0  0  0
  -27.7353  -14.2503   19.6136 H   0  0  0  0  0  0  0  0  0  0  0  0
  -28.5890  -11.9550   21.3832 H   0  0  0  0  0  0  0  0  0  0  0  0
  -28.5005  -13.6134   21.8562 H   0  0  0  0  0  0  0  0  0  0  0  0
  -25.2399   -9.5495   22.4318 H   0  0  0  0  0  0  0  0  0  0  0  0
  -23.9663   -7.5070   22.7297 H   0  0  0  0  0  0  0  0  0  0  0  0
  -21.1515   -8.8641   19.9162 H   0  0  0  0  0  0  0  0  0  0  0  0
  -22.4016  -10.9115   19.6476 H   0  0  0  0  0  0  0  0  0  0  0  0
  -21.2319   -7.5552   23.9750 H   0  0  0  0  0  0  0  0  0  0  0  0
  -21.1589   -6.0228   25.8556 H   0  0  0  0  0  0  0  0  0  0  0  0
  -22.0396   -2.8212   23.2809 H   0  0  0  0  0  0  0  0  0  0  0  0
  -22.4401  -11.9703   22.4008 H   0  0  0  0  0  0  0  0  0  0  0  0
  -21.1493  -13.0679   22.2082 H   0  0  0  0  0  0  0  0  0  0  0  0
  -24.6538  -15.7807   20.5848 H   0  0  0  0  0  0  0  0  0  0  0  0
  -26.2762  -15.5453   20.1156 H   0  0  0  0  0  0  0  0  0  0  0  0
  -26.6778  -32.4663   23.1464 H   0  0  0  0  0  0  0  0  0  0  0  0
  -25.0747  -34.0282   25.0566 H   0  0  0  0  0  0  0  0  0  0  0  0
  -22.7881  -31.3489   21.4131 H   0  0  0  0  0  0  0  0  0  0  0  0
  -23.3854  -35.9823   23.3648 H   0  0  0  0  0  0  0  0  0  0  0  0
  -24.3696  -36.8624   22.2204 H   0  0  0  0  0  0  0  0  0  0  0  0
  -23.7669  -37.6632   23.6516 H   0  0  0  0  0  0  0  0  0  0  0  0
  -25.9445  -31.6237   20.5691 H   0  0  0  0  0  0  0  0  0  0  0  0
  -26.7436  -31.0079   22.0108 H   0  0  0  0  0  0  0  0  0  0  0  0
  -28.0090  -29.1452   21.2057 H   0  0  0  0  0  0  0  0  0  0  0  0
  -26.1369  -26.0560   19.0719 H   0  0  0  0  0  0  0  0  0  0  0  0
  -24.0652  -27.2961   19.0997 H   0  0  0  0  0  0  0  0  0  0  0  0
  -23.6156  -30.5365   19.3930 H   0  0  0  0  0  0  0  0  0  0  0  0
  -22.7355  -29.1425   19.9945 H   0  0  0  0  0  0  0  0  0  0  0  0
  -25.1353  -36.2335   25.0565 H   0  0  0  0  0  0  0  0  0  0  0  0
  -21.0070  -28.3206   24.0793 H   0  0  0  0  0  0  0  0  0  0  0  0
  -20.5555  -26.2518   23.3550 H   0  0  0  0  0  0  0  0  0  0  0  0
  -21.5974  -26.8362   22.0454 H   0  0  0  0  0  0  0  0  0  0  0  0
  -19.6810  -25.6422   21.1488 H   0  0  0  0  0  0  0  0  0  0  0  0
  -19.6406  -27.3343   20.7034 H   0  0  0  0  0  0  0  0  0  0  0  0
  -17.4282  -26.6888   21.4113 H   0  0  0  0  0  0  0  0  0  0  0  0
  -18.0803  -26.0130   22.9049 H   0  0  0  0  0  0  0  0  0  0  0  0
  -19.7265  -30.6774   24.2204 H   0  0  0  0  0  0  0  0  0  0  0  0
  -17.5064  -31.5856   24.4483 H   0  0  0  0  0  0  0  0  0  0  0  0
  -15.5878  -30.2839   23.7407 H   0  0  0  0  0  0  0  0  0  0  0  0
  -15.9120  -28.0941   22.7766 H   0  0  0  0  0  0  0  0  0  0  0  0
  -24.5787  -30.7757   25.6817 H   0  0  0  0  0  0  0  0  0  0  0  0
  -25.0041  -32.2289   26.5536 H   0  0  0  0  0  0  0  0  0  0  0  0
  -25.8166  -30.7245   26.9138 H   0  0  0  0  0  0  0  0  0  0  0  0
  -26.2892  -29.7335   24.0803 H   0  0  0  0  0  0  0  0  0  0  0  0
  -27.4336  -29.7484   25.4006 H   0  0  0  0  0  0  0  0  0  0  0  0
  -27.8466  -30.4994   23.8779 H   0  0  0  0  0  0  0  0  0  0  0  0
  -27.2251  -33.3632   26.1242 H   0  0  0  0  0  0  0  0  0  0  0  0
  -28.3902  -32.6065   25.0645 H   0  0  0  0  0  0  0  0  0  0  0  0
  -27.9772  -31.8555   26.5872 H   0  0  0  0  0  0  0  0  0  0  0  0
  -28.2744  -38.0016   24.6863 H   0  0  0  0  0  0  0  0  0  0  0  0
  -28.0396  -36.2711   24.7461 H   0  0  0  0  0  0  0  0  0  0  0  0
  -27.1773  -37.3087   25.8564 H   0  0  0  0  0  0  0  0  0  0  0  0
  -20.9627  -29.9365   21.7352 H   0  0  0  0  0  0  0  0  0  0  0  0
  -26.0447  -38.2561   24.0273 H   0  0  0  0  0  0  0  0  0  0  0  0
  -32.1868  -19.5980   20.8777 H   0  0  0  0  0  0  0  0  0  0  0  0
  -28.4568  -21.5362   20.8798 H   0  0  0  0  0  0  0  0  0  0  0  0
  -31.9254  -23.6543   19.8067 H   0  0  0  0  0  0  0  0  0  0  0  0
  -34.8439  -23.7797   22.5848 H   0  0  0  0  0  0  0  0  0  0  0  0
  -33.2134  -23.5644   21.9949 H   0  0  0  0  0  0  0  0  0  0  0  0
  -34.4588  -24.1591   20.9233 H   0  0  0  0  0  0  0  0  0  0  0  0
  -34.9206  -21.4246   23.3571 H   0  0  0  0  0  0  0  0  0  0  0  0
  -34.5155  -20.1204   22.2673 H   0  0  0  0  0  0  0  0  0  0  0  0
  -33.2734  -21.2228   22.8103 H   0  0  0  0  0  0  0  0  0  0  0  0
  -36.6604  -22.2552   21.8604 H   0  0  0  0  0  0  0  0  0  0  0  0
  -36.3071  -22.6709   20.2004 H   0  0  0  0  0  0  0  0  0  0  0  0
  -36.3469  -20.9946   20.6918 H   0  0  0  0  0  0  0  0  0  0  0  0
  -33.9058  -22.3818   19.3226 H   0  0  0  0  0  0  0  0  0  0  0  0
  -33.9858  -20.6631   19.8514 H   0  0  0  0  0  0  0  0  0  0  0  0
  -31.1901  -18.1361   22.3242 H   0  0  0  0  0  0  0  0  0  0  0  0
  -30.8902  -17.6587   20.6451 H   0  0  0  0  0  0  0  0  0  0  0  0
  -28.3080  -26.5924   18.6796 H   0  0  0  0  0  0  0  0  0  0  0  0
  -28.1430  -26.9676   20.0911 H   0  0  0  0  0  0  0  0  0  0  0  0
  -29.7048  -16.3186   23.0514 H   0  0  0  0  0  0  0  0  0  0  0  0
  -29.3226  -15.7282   21.7599 H   0  0  0  0  0  0  0  0  0  0  0  0
  -28.3606  -23.8019   20.2740 H   0  0  0  0  0  0  0  0  0  0  0  0
  1 25  1  0
  1 30  2  0
  1 84  1  0
  2  3  1  0
  2 25  1  0
  2 90  1  0
  2 91  1  0
  3  4  1  0
  3 92  1  0
  3 93  1  0
  4  5  1  0
  4 94  1  0
  4 95  1  0
  5  6  1  0
  5 26  1  0
  5 96  1  6
  6 25  1  0
  6 97  1  0
  6 98  1  0
  7  8  2  0
  7 26  1  0
  7 29  1  0
  8  9  1  0
  8 22  1  0
  9 10  1  0
  9 27  2  0
 10 11  2  0
 10 15  1  0
 11 12  1  0
 11 99  1  0
 12 13  2  0
 12100  1  0
 13 14  1  0
 13 31  1  0
 14 15  2  0
 14101  1  0
 15102  1  0
 16 17  2  0
 16 21  1  0
 16 31  1  0
 17 18  1  0
 17103  1  0
 18 19  2  0
 18104  1  0
 19 20  1  0
 19 24  1  0
 20 21  2  0
 20105  1  0
 21 23  1  0
 22 28  1  0
 22 32  2  0
 26 27  1  0
 28106  1  0
 28107  1  0
 29108  1  0
 29109  1  0
 33 34  1  0
 33 66  1  0
 33 70  2  0
 34 36  1  0
 34 59  1  0
 34110  1  6
 35 44  2  0
 35 45  1  0
 35 68  1  0
 36 56  1  0
 36111  1  0
 37 39  1  0
 37 47  1  0
 37 66  1  0
 37112  1  6
 38 43  2  0
 38 46  1  0
 38 47  1  0
 39 64  1  0
 39 67  2  0
 40 52  1  0
 40 53  2  0
 40 58  1  0
 41113  1  0
 41114  1  0
 41115  1  0
 42 43  1  0
 42 66  1  0
 42116  1  0
 42117  1  0
 43 44  1  0
 44118  1  0
 45 46  2  0
 45119  1  0
 46120  1  0
 47121  1  0
 47122  1  0
 48 41  1  0
 48 56  1  0
 48 65  1  0
 48123  1  1
 49 50  1  0
 49 53  1  0
 49 64  1  0
 49124  1  1
 50 51  1  0
 50125  1  0
 50126  1  0
 51 52  1  0
 51127  1  0
 51128  1  0
 52129  1  0
 52130  1  0
 53 54  1  0
 54 55  2  0
 54131  1  0
 55 57  1  0
 55132  1  0
 56 69  2  0
 57 58  2  0
 57133  1  0
 58134  1  0
 59 60  1  0
 59 61  1  0
 59 62  1  0
 60135  1  0
 60136  1  0
 60137  1  0
 61138  1  0
 61139  1  0
 61140  1  0
 62141  1  0
 62142  1  0
 62143  1  0
 63 65  1  0
 63144  1  0
 63145  1  0
 63146  1  0
 64147  1  0
 65148  1  0
 68 85  1  0
 71 74  2  0
 71 75  1  0
 71149  1  0
 72 74  1  0
 72 76  2  0
 72150  1  0
 73 75  2  0
 73 76  1  0
 73151  1  0
 74 77  1  0
 75 82  1  0
 76 87  1  0
 77 83  1  0
 77 88  2  0
 78 84  1  0
 78 87  1  0
 78 89  2  0
 79152  1  0
 79153  1  0
 79154  1  0
 80 86  1  0
 80155  1  0
 80156  1  0
 80157  1  0
 81 86  1  0
 81158  1  0
 81159  1  0
 81160  1  0
 82 86  1  0
 82161  1  0
 82162  1  0
 83 85  1  0
 83163  1  0
 83164  1  0
 84165  1  0
 84166  1  0
 85167  1  0
 85168  1  0
 86 79  1  0
 87169  1  0
M  ISO  4   1 100  68 101  84 100  85 101
M  END
$$$$
84
     RDKit          3D

172180  0  0  0  0  0  0  0  0999 V2000
  -30.7652  -14.3608   20.6636 C   0  0  0  0  0  0  0  0  0100  0  0
  -30.4392  -12.2669   19.3775 C   0  0  0  0  0  0  0  0  0101  0  0
  -29.4791  -12.5281   18.1977 C   0  0  0  0  0  0  0  0  0102  0  0
  -27.9985  -12.3963   18.6038 C   0  0  0  0  0  0  0  0  0103  0  0
  -27.6639  -13.2170   19.8820 C   0  0  2  0  0  0  0  0  0104  0  0
  -28.6795  -12.9602   21.0279 C   0  0  0  0  0  0  0  0  0105  0  0
  -25.2633  -13.8245   20.5754 C   0  0  0  0  0  0  0  0  0106  0  0
  -24.1645  -13.0409   20.9408 C   0  0  0  0  0  0  0  0  0107  0  0
  -24.6400  -11.7009   20.8697 C   0  0  0  0  0  0  0  0  0108  0  0
  -23.9005  -10.4085   21.0420 C   0  0  0  0  0  0  0  0  0109  0  0
  -24.3588   -9.4123   21.9123 C   0  0  0  0  0  0  0  0  0110  0  0
  -23.6296   -8.2350   22.0803 C   0  0  0  0  0  0  0  0  0111  0  0
  -22.4385   -8.0419   21.3657 C   0  0  0  0  0  0  0  0  0112  0  0
  -22.0103   -9.0167   20.4678 C   0  0  0  0  0  0  0  0  0113  0  0
  -22.7317  -10.1925   20.3102 C   0  0  0  0  0  0  0  0  0114  0  0
  -21.6857   -6.0709   22.5391 C   0  0  0  0  0  0  0  0  0115  0  0
  -21.4064   -6.5490   23.8264 C   0  0  0  0  0  0  0  0  0116  0  0
  -21.3635   -5.6677   24.9085 C   0  0  0  0  0  0  0  0  0117  0  0
  -21.5973   -4.3067   24.7088 C   0  0  0  0  0  0  0  0  0118  0  0
  -21.8700   -3.8284   23.4282 C   0  0  0  0  0  0  0  0  0119  0  0
  -21.9144   -4.7056   22.3460 C   0  0  0  0  0  0  0  0  0120  0  0
  -22.8194  -13.5263   21.1763 C   0  0  0  0  0  0  0  0  0121  0  0
  -22.1559   -4.2206   21.1063 F   0  0  0  0  0  0  0  0  0122  0  0
  -21.5628   -3.4510   25.7555 F   0  0  0  0  0  0  0  0  0123  0  0
  -30.0261  -13.1803   20.4553 N   0  0  0  0  0  0  0  0  0124  0  0
  -26.2911  -12.9356   20.3443 N   0  0  0  0  0  0  0  0  0125  0  0
  -25.9236  -11.6675   20.5847 N   0  0  0  0  0  0  0  0  0126  0  0
  -22.0708  -12.7905   22.0005 N   0  0  0  0  0  0  0  0  0127  0  0
  -25.4117  -15.1773   20.4097 N   0  0  0  0  0  0  0  0  0128  0  0
  -31.7916  -14.6724   20.0536 O   0  0  0  0  0  0  0  0  0129  0  0
  -21.6670   -6.9022   21.4423 O   0  0  0  0  0  0  0  0  0130  0  0
  -22.3946  -14.5564   20.6568 O   0  0  0  0  0  0  0  0  0131  0  0
  -24.6048  -31.8614   23.2223 C   0  0  0  0  0  0  0  0  0100  0  0
  -25.8822  -32.4841   23.8616 C   0  0  1  0  0  0  0  0  0101  0  0
  -27.2536  -27.5042   20.1156 C   0  0  0  0  0  0  0  0  0102  0  0
  -25.5726  -33.8762   24.2210 N   0  0  0  0  0  0  0  0  0103  0  0
  -23.4066  -30.4859   21.5461 C   0  0  2  0  0  0  0  0  0104  0  0
  -24.8467  -28.9636   20.1247 C   0  0  0  0  0  0  0  0  0105  0  0
  -22.7412  -29.4652   22.5052 C   0  0  0  0  0  0  0  0  0106  0  0
  -18.0167  -28.1302   22.8626 C   0  0  0  0  0  0  0  0  0107  0  0
  -24.1342  -36.7390   23.2568 C   0  0  0  0  0  0  0  0  0108  0  0
  -25.9141  -30.8882   21.3456 C   0  0  0  0  0  0  0  0  0109  0  0
  -25.9930  -29.5029   20.7208 C   0  0  0  0  0  0  0  0  0110  0  0
  -27.1758  -28.7612   20.7331 C   0  0  0  0  0  0  0  0  0111  0  0
  -26.1032  -26.9836   19.5230 C   0  0  0  0  0  0  0  0  0112  0  0
  -24.9097  -27.7011   19.5331 C   0  0  0  0  0  0  0  0  0113  0  0
  -23.5715  -29.7899   20.1582 C   0  0  0  0  0  0  0  0  0114  0  0
  -25.3990  -36.3212   24.0232 C   0  0  1  0  0  0  0  0  0115  0  0
  -20.5793  -28.3813   23.1004 C   0  0  2  0  0  0  0  0  0116  0  0
  -20.6548  -26.9392   22.5411 C   0  0  0  0  0  0  0  0  0117  0  0
  -19.5615  -26.6407   21.5143 C   0  0  0  0  0  0  0  0  0118  0  0
  -18.1797  -26.7818   22.1673 C   0  0  0  0  0  0  0  0  0119  0  0
  -19.1385  -28.8769   23.2988 C   0  0  0  0  0  0  0  0  0120  0  0
  -18.9183  -30.1286   23.8878 C   0  0  0  0  0  0  0  0  0121  0  0
  -17.6396  -30.6493   24.0352 C   0  0  0  0  0  0  0  0  0122  0  0
  -25.9153  -34.9582   23.4993 C   0  0  0  0  0  0  0  0  0123  0  0
  -16.5415  -29.9068   23.6254 C   0  0  0  0  0  0  0  0  0124  0  0
  -16.7331  -28.6521   23.0586 C   0  0  0  0  0  0  0  0  0125  0  0
  -26.4583  -31.6439   25.0683 C   0  0  0  0  0  0  0  0  0126  0  0
  -25.3807  -31.3179   26.1374 C   0  0  0  0  0  0  0  0  0127  0  0
  -27.0530  -30.3024   24.5680 C   0  0  0  0  0  0  0  0  0128  0  0
  -27.6014  -32.4281   25.7651 C   0  0  0  0  0  0  0  0  0129  0  0
  -27.5629  -37.2220   24.8621 C   0  0  0  0  0  0  0  0  0130  0  0
  -21.4133  -29.3375   22.3735 N   0  0  0  0  0  0  0  0  0131  0  0
  -26.4706  -37.3372   23.9061 N   0  0  0  0  0  0  0  0  0132  0  0
  -24.6674  -31.0544   22.1178 N   0  0  0  0  0  0  0  0  0133  0  0
  -23.4259  -28.8150   23.2971 O   0  0  0  0  0  0  0  0  0134  0  0
  -28.3948  -26.7345   20.0089 O   0  0  0  0  0  0  0  0  0135  0  0
  -26.5870  -34.9065   22.4671 O   0  0  0  0  0  0  0  0  0136  0  0
  -23.5365  -32.1254   23.7833 O   0  0  0  0  0  0  0  0  0137  0  0
  -31.1059  -21.1896   22.9592 C   0  0  0  0  0  0  0  0  0  0  0  0
  -30.8523  -22.7342   21.1190 C   0  0  0  0  0  0  0  0  0  0  0  0
  -30.0999  -23.3547   23.3293 C   0  0  0  0  0  0  0  0  0  0  0  0
  -31.2722  -21.4976   21.6090 C   0  0  0  0  0  0  0  0  0  0  0  0
  -30.5197  -22.1181   23.8194 C   0  0  0  0  0  0  0  0  0  0  0  0
  -30.2661  -23.6628   21.9791 C   0  0  0  0  0  0  0  0  0  0  0  0
  -30.5628  -18.4083   20.6520 C   0  0  0  0  0  0  0  0  0  0  0  0
  -30.9068  -19.5533   20.0278 C   0  0  0  0  0  0  0  0  0  0  0  0
  -29.0005  -21.1172   25.5447 C   0  0  0  0  0  0  0  0  0  0  0  0
  -31.1881  -19.4775   17.5257 C   0  0  0  0  0  0  0  0  0  0  0  0
  -30.6815  -15.4347   21.4505 C   0  0  0  0  0  0  0  0  0  0  0  0
  -31.2739  -15.9123   19.0600 C   0  0  0  0  0  0  0  0  0  0  0  0
  -31.9069  -20.4919   20.6776 C   0  0  0  0  0  0  0  0  0  0  0  0
  -30.3422  -21.7887   25.2631 C   0  0  0  0  0  0  0  0  0  0  0  0
  -29.5714  -17.3697   20.1947 C   0  0  0  0  0  0  0  0  0  0  0  0
  -30.3492  -19.9860   18.6892 C   0  0  0  0  0  0  0  0  0  0  0  0
  -30.1536  -15.9430   20.1058 C   0  0  0  0  0  0  0  0  0  1  0  0
  -29.8397  -24.9190   21.4813 N   0  0  0  0  0  0  0  0  0  0  0  0
  -31.4485  -12.4701   19.0860 H   0  0  0  0  0  0  0  0  0  0  0  0
  -30.3970  -11.2460   19.6950 H   0  0  0  0  0  0  0  0  0  0  0  0
  -29.6870  -11.8204   17.4226 H   0  0  0  0  0  0  0  0  0  0  0  0
  -29.6375  -13.5326   17.8649 H   0  0  0  0  0  0  0  0  0  0  0  0
  -27.7830  -11.3650   18.7904 H   0  0  0  0  0  0  0  0  0  0  0  0
  -27.4028  -12.7801   17.8021 H   0  0  0  0  0  0  0  0  0  0  0  0
  -27.7353  -14.2503   19.6136 H   0  0  0  0  0  0  0  0  0  0  0  0
  -28.5890  -11.9550   21.3832 H   0  0  0  0  0  0  0  0  0  0  0  0
  -28.5005  -13.6134   21.8562 H   0  0  0  0  0  0  0  0  0  0  0  0
  -25.2399   -9.5495   22.4318 H   0  0  0  0  0  0  0  0  0  0  0  0
  -23.9663   -7.5070   22.7297 H   0  0  0  0  0  0  0  0  0  0  0  0
  -21.1515   -8.8641   19.9162 H   0  0  0  0  0  0  0  0  0  0  0  0
  -22.4016  -10.9115   19.6476 H   0  0  0  0  0  0  0  0  0  0  0  0
  -21.2319   -7.5552   23.9750 H   0  0  0  0  0  0  0  0  0  0  0  0
  -21.1589   -6.0228   25.8556 H   0  0  0  0  0  0  0  0  0  0  0  0
  -22.0396   -2.8212   23.2809 H   0  0  0  0  0  0  0  0  0  0  0  0
  -22.4401  -11.9703   22.4008 H   0  0  0  0  0  0  0  0  0  0  0  0
  -21.1493  -13.0679   22.2082 H   0  0  0  0  0  0  0  0  0  0  0  0
  -24.6538  -15.7807   20.5848 H   0  0  0  0  0  0  0  0  0  0  0  0
  -26.2762  -15.5453   20.1156 H   0  0  0  0  0  0  0  0  0  0  0  0
  -26.6778  -32.4663   23.1464 H   0  0  0  0  0  0  0  0  0  0  0  0
  -25.0747  -34.0282   25.0566 H   0  0  0  0  0  0  0  0  0  0  0  0
  -22.7881  -31.3489   21.4131 H   0  0  0  0  0  0  0  0  0  0  0  0
  -23.3854  -35.9823   23.3648 H   0  0  0  0  0  0  0  0  0  0  0  0
  -24.3696  -36.8624   22.2204 H   0  0  0  0  0  0  0  0  0  0  0  0
  -23.7669  -37.6632   23.6516 H   0  0  0  0  0  0  0  0  0  0  0  0
  -25.9445  -31.6237   20.5691 H   0  0  0  0  0  0  0  0  0  0  0  0
  -26.7436  -31.0079   22.0108 H   0  0  0  0  0  0  0  0  0  0  0  0
  -28.0090  -29.1452   21.2057 H   0  0  0  0  0  0  0  0  0  0  0  0
  -26.1369  -26.0560   19.0719 H   0  0  0  0  0  0  0  0  0  0  0  0
  -24.0652  -27.2961   19.0997 H   0  0  0  0  0  0  0  0  0  0  0  0
  -23.6156  -30.5365   19.3930 H   0  0  0  0  0  0  0  0  0  0  0  0
  -22.7355  -29.1425   19.9945 H   0  0  0  0  0  0  0  0  0  0  0  0
  -25.1353  -36.2335   25.0565 H   0  0  0  0  0  0  0  0  0  0  0  0
  -21.0070  -28.3206   24.0793 H   0  0  0  0  0  0  0  0  0  0  0  0
  -20.5555  -26.2518   23.3550 H   0  0  0  0  0  0  0  0  0  0  0  0
  -21.5974  -26.8362   22.0454 H   0  0  0  0  0  0  0  0  0  0  0  0
  -19.6810  -25.6422   21.1488 H   0  0  0  0  0  0  0  0  0  0  0  0
  -19.6406  -27.3343   20.7034 H   0  0  0  0  0  0  0  0  0  0  0  0
  -17.4282  -26.6888   21.4113 H   0  0  0  0  0  0  0  0  0  0  0  0
  -18.0803  -26.0130   22.9049 H   0  0  0  0  0  0  0  0  0  0  0  0
  -19.7265  -30.6774   24.2204 H   0  0  0  0  0  0  0  0  0  0  0  0
  -17.5064  -31.5856   24.4483 H   0  0  0  0  0  0  0  0  0  0  0  0
  -15.5878  -30.2839   23.7407 H   0  0  0  0  0  0  0  0  0  0  0  0
  -15.9120  -28.0941   22.7766 H   0  0  0  0  0  0  0  0  0  0  0  0
  -24.5787  -30.7757   25.6817 H   0  0  0  0  0  0  0  0  0  0  0  0
  -25.0041  -32.2289   26.5536 H   0  0  0  0  0  0  0  0  0  0  0  0
  -25.8166  -30.7245   26.9138 H   0  0  0  0  0  0  0  0  0  0  0  0
  -26.2892  -29.7335   24.0803 H   0  0  0  0  0  0  0  0  0  0  0  0
  -27.4336  -29.7484   25.4006 H   0  0  0  0  0  0  0  0  0  0  0  0
  -27.8466  -30.4994   23.8779 H   0  0  0  0  0  0  0  0  0  0  0  0
  -27.2251  -33.3632   26.1242 H   0  0  0  0  0  0  0  0  0  0  0  0
  -28.3902  -32.6065   25.0645 H   0  0  0  0  0  0  0  0  0  0  0  0
  -27.9772  -31.8555   26.5872 H   0  0  0  0  0  0  0  0  0  0  0  0
  -28.2744  -38.0016   24.6863 H   0  0  0  0  0  0  0  0  0  0  0  0
  -28.0396  -36.2711   24.7461 H   0  0  0  0  0  0  0  0  0  0  0  0
  -27.1773  -37.3087   25.8564 H   0  0  0  0  0  0  0  0  0  0  0  0
  -20.9627  -29.9365   21.7352 H   0  0  0  0  0  0  0  0  0  0  0  0
  -26.0447  -38.2561   24.0273 H   0  0  0  0  0  0  0  0  0  0  0  0
  -31.4166  -20.2747   23.3218 H   0  0  0  0  0  0  0  0  0  0  0  0
  -30.9753  -22.9621   20.1200 H   0  0  0  0  0  0  0  0  0  0  0  0
  -29.6663  -24.0417   23.9657 H   0  0  0  0  0  0  0  0  0  0  0  0
  -31.0351  -18.2211   21.5503 H   0  0  0  0  0  0  0  0  0  0  0  0
  -28.9218  -20.9019   26.5899 H   0  0  0  0  0  0  0  0  0  0  0  0
  -28.9334  -20.2066   24.9869 H   0  0  0  0  0  0  0  0  0  0  0  0
  -28.2059  -21.7725   25.2547 H   0  0  0  0  0  0  0  0  0  0  0  0
  -30.7565  -19.8073   16.6038 H   0  0  0  0  0  0  0  0  0  0  0  0
  -31.2137  -18.4080   17.5451 H   0  0  0  0  0  0  0  0  0  0  0  0
  -32.1839  -19.8597   17.6102 H   0  0  0  0  0  0  0  0  0  0  0  0
  -30.8331  -14.3768   21.3973 H   0  0  0  0  0  0  0  0  0  0  0  0
  -29.9704  -15.6549   22.2191 H   0  0  0  0  0  0  0  0  0  0  0  0
  -31.6099  -15.9172   21.6746 H   0  0  0  0  0  0  0  0  0  0  0  0
  -31.6006  -14.9035   18.9168 H   0  0  0  0  0  0  0  0  0  0  0  0
  -32.0951  -16.5084   19.3994 H   0  0  0  0  0  0  0  0  0  0  0  0
  -30.9080  -16.3036   18.1338 H   0  0  0  0  0  0  0  0  0  0  0  0
  -32.6066  -19.9067   21.2370 H   0  0  0  0  0  0  0  0  0  0  0  0
  -32.3771  -21.0443   19.8911 H   0  0  0  0  0  0  0  0  0  0  0  0
  -30.4001  -22.6932   25.8318 H   0  0  0  0  0  0  0  0  0  0  0  0
  -31.1154  -21.1025   25.5392 H   0  0  0  0  0  0  0  0  0  0  0  0
  -29.2148  -17.6487   19.2252 H   0  0  0  0  0  0  0  0  0  0  0  0
  -28.7923  -17.3412   20.9276 H   0  0  0  0  0  0  0  0  0  0  0  0
  -30.3251  -21.0552   18.6553 H   0  0  0  0  0  0  0  0  0  0  0  0
  -29.3676  -19.5712   18.5925 H   0  0  0  0  0  0  0  0  0  0  0  0
  -29.6427  -25.8735   21.3420 H   0  0  0  0  0  0  0  0  0  0  0  0
  1 25  1  0
  1 30  2  0
  1 88  1  0
  2  3  1  0
  2 25  1  0
  2 89  1  0
  2 90  1  0
  3  4  1  0
  3 91  1  0
  3 92  1  0
  4  5  1  0
  4 93  1  0
  4 94  1  0
  5  6  1  0
  5 26  1  0
  5 95  1  6
  6 25  1  0
  6 96  1  0
  6 97  1  0
  7  8  2  0
  7 26  1  0
  7 29  1  0
  8  9  1  0
  8 22  1  0
  9 10  1  0
  9 27  2  0
 10 11  2  0
 10 15  1  0
 11 12  1  0
 11 98  1  0
 12 13  2  0
 12 99  1  0
 13 14  1  0
 13 31  1  0
 14 15  2  0
 14100  1  0
 15101  1  0
 16 17  2  0
 16 21  1  0
 16 31  1  0
 17 18  1  0
 17102  1  0
 18 19  2  0
 18103  1  0
 19 20  1  0
 19 24  1  0
 20 21  2  0
 20104  1  0
 21 23  1  0
 22 28  1  0
 22 32  2  0
 26 27  1  0
 28105  1  0
 28106  1  0
 29107  1  0
 29108  1  0
 33 34  1  0
 33 66  1  0
 33 70  2  0
 34 36  1  0
 34 59  1  0
 34109  1  6
 35 44  2  0
 35 45  1  0
 35 68  1  0
 36 56  1  0
 36110  1  0
 37 39  1  0
 37 47  1  0
 37 66  1  0
 37111  1  6
 38 43  2  0
 38 46  1  0
 38 47  1  0
 39 64  1  0
 39 67  2  0
 40 52  1  0
 40 53  2  0
 40 58  1  0
 41112  1  0
 41113  1  0
 41114  1  0
 42 43  1  0
 42 66  1  0
 42115  1  0
 42116  1  0
 43 44  1  0
 44117  1  0
 45 46  2  0
 45118  1  0
 46119  1  0
 47120  1  0
 47121  1  0
 48 41  1  0
 48 56  1  0
 48 65  1  0
 48122  1  1
 49 50  1  0
 49 53  1  0
 49 64  1  0
 49123  1  1
 50 51  1  0
 50124  1  0
 50125  1  0
 51 52  1  0
 51126  1  0
 51127  1  0
 52128  1  0
 52129  1  0
 53 54  1  0
 54 55  2  0
 54130  1  0
 55 57  1  0
 55131  1  0
 56 69  2  0
 57 58  2  0
 57132  1  0
 58133  1  0
 59 60  1  0
 59 61  1  0
 59 62  1  0
 60134  1  0
 60135  1  0
 60136  1  0
 61137  1  0
 61138  1  0
 61139  1  0
 62140  1  0
 62141  1  0
 62142  1  0
 63 65  1  0
 63143  1  0
 63144  1  0
 63145  1  0
 64146  1  0
 65147  1  0
 68 87  1  0
 71 74  2  0
 71 75  1  0
 71148  1  0
 72 74  1  0
 72 76  2  0
 72149  1  0
 73 75  2  0
 73 76  1  0
 73150  1  0
 74 83  1  0
 75 84  1  0
 76 88  1  0
 77 78  2  0
 77 85  1  0
 77151  1  0
 78 83  1  0
 78 86  1  0
 79 84  1  0
 79152  1  0
 79153  1  0
 79154  1  0
 80 86  1  0
 80155  1  0
 80156  1  0
 80157  1  0
 81158  1  0
 81159  1  0
 81160  1  0
 82 87  1  0
 82161  1  0
 82162  1  0
 82163  1  0
 83164  1  0
 83165  1  0
 84166  1  0
 84167  1  0
 85 87  1  0
 85168  1  0
 85169  1  0
 86170  1  0
 86171  1  0
 87 81  1  0
 88172  1  0
M  ISO  4   1 100  68 101  87 101  88 100
M  END
$$$$
85
     RDKit          3D

163171  0  0  0  0  0  0  0  0999 V2000
  -30.7652  -14.3608   20.6636 C   0  0  0  0  0  0  0  0  0100  0  0
  -30.4392  -12.2669   19.3775 C   0  0  0  0  0  0  0  0  0101  0  0
  -29.4791  -12.5281   18.1977 C   0  0  0  0  0  0  0  0  0102  0  0
  -27.9985  -12.3963   18.6038 C   0  0  0  0  0  0  0  0  0103  0  0
  -27.6639  -13.2170   19.8820 C   0  0  2  0  0  0  0  0  0104  0  0
  -28.6795  -12.9602   21.0279 C   0  0  0  0  0  0  0  0  0105  0  0
  -25.2633  -13.8245   20.5754 C   0  0  0  0  0  0  0  0  0106  0  0
  -24.1645  -13.0409   20.9408 C   0  0  0  0  0  0  0  0  0107  0  0
  -24.6400  -11.7009   20.8697 C   0  0  0  0  0  0  0  0  0108  0  0
  -23.9005  -10.4085   21.0420 C   0  0  0  0  0  0  0  0  0109  0  0
  -24.3588   -9.4123   21.9123 C   0  0  0  0  0  0  0  0  0110  0  0
  -23.6296   -8.2350   22.0803 C   0  0  0  0  0  0  0  0  0111  0  0
  -22.4385   -8.0419   21.3657 C   0  0  0  0  0  0  0  0  0112  0  0
  -22.0103   -9.0167   20.4678 C   0  0  0  0  0  0  0  0  0113  0  0
  -22.7317  -10.1925   20.3102 C   0  0  0  0  0  0  0  0  0114  0  0
  -21.6857   -6.0709   22.5391 C   0  0  0  0  0  0  0  0  0115  0  0
  -21.4064   -6.5490   23.8264 C   0  0  0  0  0  0  0  0  0116  0  0
  -21.3635   -5.6677   24.9085 C   0  0  0  0  0  0  0  0  0117  0  0
  -21.5973   -4.3067   24.7088 C   0  0  0  0  0  0  0  0  0118  0  0
  -21.8700   -3.8284   23.4282 C   0  0  0  0  0  0  0  0  0119  0  0
  -21.9144   -4.7056   22.3460 C   0  0  0  0  0  0  0  0  0120  0  0
  -22.8194  -13.5263   21.1763 C   0  0  0  0  0  0  0  0  0121  0  0
  -22.1559   -4.2206   21.1063 F   0  0  0  0  0  0  0  0  0122  0  0
  -21.5628   -3.4510   25.7555 F   0  0  0  0  0  0  0  0  0123  0  0
  -30.0261  -13.1803   20.4553 N   0  0  0  0  0  0  0  0  0124  0  0
  -26.2911  -12.9356   20.3443 N   0  0  0  0  0  0  0  0  0125  0  0
  -25.9236  -11.6675   20.5847 N   0  0  0  0  0  0  0  0  0126  0  0
  -22.0708  -12.7905   22.0005 N   0  0  0  0  0  0  0  0  0127  0  0
  -25.4117  -15.1773   20.4097 N   0  0  0  0  0  0  0  0  0128  0  0
  -31.7916  -14.6724   20.0536 O   0  0  0  0  0  0  0  0  0129  0  0
  -21.6670   -6.9022   21.4423 O   0  0  0  0  0  0  0  0  0130  0  0
  -22.3946  -14.5564   20.6568 O   0  0  0  0  0  0  0  0  0131  0  0
  -24.6048  -31.8614   23.2223 C   0  0  0  0  0  0  0  0  0100  0  0
  -25.8822  -32.4841   23.8616 C   0  0  1  0  0  0  0  0  0101  0  0
  -27.2536  -27.5042   20.1156 C   0  0  0  0  0  0  0  0  0102  0  0
  -25.5726  -33.8762   24.2210 N   0  0  0  0  0  0  0  0  0103  0  0
  -23.4066  -30.4859   21.5461 C   0  0  2  0  0  0  0  0  0104  0  0
  -24.8467  -28.9636   20.1247 C   0  0  0  0  0  0  0  0  0105  0  0
  -22.7412  -29.4652   22.5052 C   0  0  0  0  0  0  0  0  0106  0  0
  -18.0167  -28.1302   22.8626 C   0  0  0  0  0  0  0  0  0107  0  0
  -24.1342  -36.7390   23.2568 C   0  0  0  0  0  0  0  0  0108  0  0
  -25.9141  -30.8882   21.3456 C   0  0  0  0  0  0  0  0  0109  0  0
  -25.9930  -29.5029   20.7208 C   0  0  0  0  0  0  0  0  0110  0  0
  -27.1758  -28.7612   20.7331 C   0  0  0  0  0  0  0  0  0111  0  0
  -26.1032  -26.9836   19.5230 C   0  0  0  0  0  0  0  0  0112  0  0
  -24.9097  -27.7011   19.5331 C   0  0  0  0  0  0  0  0  0113  0  0
  -23.5715  -29.7899   20.1582 C   0  0  0  0  0  0  0  0  0114  0  0
  -25.3990  -36.3212   24.0232 C   0  0  1  0  0  0  0  0  0115  0  0
  -20.5793  -28.3813   23.1004 C   0  0  2  0  0  0  0  0  0116  0  0
  -20.6548  -26.9392   22.5411 C   0  0  0  0  0  0  0  0  0117  0  0
  -19.5615  -26.6407   21.5143 C   0  0  0  0  0  0  0  0  0118  0  0
  -18.1797  -26.7818   22.1673 C   0  0  0  0  0  0  0  0  0119  0  0
  -19.1385  -28.8769   23.2988 C   0  0  0  0  0  0  0  0  0120  0  0
  -18.9183  -30.1286   23.8878 C   0  0  0  0  0  0  0  0  0121  0  0
  -17.6396  -30.6493   24.0352 C   0  0  0  0  0  0  0  0  0122  0  0
  -25.9153  -34.9582   23.4993 C   0  0  0  0  0  0  0  0  0123  0  0
  -16.5415  -29.9068   23.6254 C   0  0  0  0  0  0  0  0  0124  0  0
  -16.7331  -28.6521   23.0586 C   0  0  0  0  0  0  0  0  0125  0  0
  -26.4583  -31.6439   25.0683 C   0  0  0  0  0  0  0  0  0126  0  0
  -25.3807  -31.3179   26.1374 C   0  0  0  0  0  0  0  0  0127  0  0
  -27.0530  -30.3024   24.5680 C   0  0  0  0  0  0  0  0  0128  0  0
  -27.6014  -32.4281   25.7651 C   0  0  0  0  0  0  0  0  0129  0  0
  -27.5629  -37.2220   24.8621 C   0  0  0  0  0  0  0  0  0130  0  0
  -21.4133  -29.3375   22.3735 N   0  0  0  0  0  0  0  0  0131  0  0
  -26.4706  -37.3372   23.9061 N   0  0  0  0  0  0  0  0  0132  0  0
  -24.6674  -31.0544   22.1178 N   0  0  0  0  0  0  0  0  0133  0  0
  -23.4259  -28.8150   23.2971 O   0  0  0  0  0  0  0  0  0134  0  0
  -28.3948  -26.7345   20.0089 O   0  0  0  0  0  0  0  0  0135  0  0
  -26.5870  -34.9065   22.4671 O   0  0  0  0  0  0  0  0  0136  0  0
  -23.5365  -32.1254   23.7833 O   0  0  0  0  0  0  0  0  0137  0  0
  -30.4218  -22.9719   20.1872 C   0  0  0  0  0  0  0  0  0  0  0  0
  -29.3745  -24.0925   18.3206 C   0  0  0  0  0  0  0  0  0  0  0  0
  -29.6305  -21.6902   18.2983 C   0  0  0  0  0  0  0  0  0  0  0  0
  -29.9874  -24.1462   19.5724 C   0  0  0  0  0  0  0  0  0  0  0  0
  -30.2434  -21.7439   19.5501 C   0  0  0  0  0  0  0  0  0  0  0  0
  -29.1960  -22.8645   17.6835 C   0  0  0  0  0  0  0  0  0  0  0  0
  -30.9169  -26.4052   19.6433 C   0  0  0  0  0  0  0  0  0  0  0  0
  -30.1781  -25.4536   20.2498 C   0  0  0  0  0  0  0  0  0  0  0  0
  -29.5245  -25.5950   21.5970 C   0  0  0  0  0  0  0  0  0  0  0  0
  -32.7731  -27.8730   20.3900 C   0  0  0  0  0  0  0  0  0  0  0  0
  -31.3424  -28.9260   17.8339 C   0  0  0  0  0  0  0  0  0  0  0  0
  -29.2072  -28.9636   19.1417 C   0  0  0  0  0  0  0  0  0  1  0  0
  -31.2574  -27.7864   20.1647 C   0  0  1  0  0  0  0  0  0  0  0  0
  -30.7418  -28.9356   19.2445 C   0  0  1  0  0  0  0  0  0  0  0  0
  -30.6850  -20.5507   20.1738 N   0  0  0  0  0  0  0  0  0  0  0  0
  -28.6100  -22.8127   16.4802 F   0  0  0  0  0  0  0  0  0  0  0  0
  -31.4485  -12.4701   19.0860 H   0  0  0  0  0  0  0  0  0  0  0  0
  -30.3970  -11.2460   19.6950 H   0  0  0  0  0  0  0  0  0  0  0  0
  -29.6870  -11.8204   17.4226 H   0  0  0  0  0  0  0  0  0  0  0  0
  -29.6375  -13.5326   17.8649 H   0  0  0  0  0  0  0  0  0  0  0  0
  -27.7830  -11.3650   18.7904 H   0  0  0  0  0  0  0  0  0  0  0  0
  -27.4028  -12.7801   17.8021 H   0  0  0  0  0  0  0  0  0  0  0  0
  -27.7353  -14.2503   19.6136 H   0  0  0  0  0  0  0  0  0  0  0  0
  -28.5890  -11.9550   21.3832 H   0  0  0  0  0  0  0  0  0  0  0  0
  -28.5005  -13.6134   21.8562 H   0  0  0  0  0  0  0  0  0  0  0  0
  -25.2399   -9.5495   22.4318 H   0  0  0  0  0  0  0  0  0  0  0  0
  -23.9663   -7.5070   22.7297 H   0  0  0  0  0  0  0  0  0  0  0  0
  -21.1515   -8.8641   19.9162 H   0  0  0  0  0  0  0  0  0  0  0  0
  -22.4016  -10.9115   19.6476 H   0  0  0  0  0  0  0  0  0  0  0  0
  -21.2319   -7.5552   23.9750 H   0  0  0  0  0  0  0  0  0  0  0  0
  -21.1589   -6.0228   25.8556 H   0  0  0  0  0  0  0  0  0  0  0  0
  -22.0396   -2.8212   23.2809 H   0  0  0  0  0  0  0  0  0  0  0  0
  -22.4401  -11.9703   22.4008 H   0  0  0  0  0  0  0  0  0  0  0  0
  -21.1493  -13.0679   22.2082 H   0  0  0  0  0  0  0  0  0  0  0  0
  -24.6538  -15.7807   20.5848 H   0  0  0  0  0  0  0  0  0  0  0  0
  -26.2762  -15.5453   20.1156 H   0  0  0  0  0  0  0  0  0  0  0  0
  -26.6778  -32.4663   23.1464 H   0  0  0  0  0  0  0  0  0  0  0  0
  -25.0747  -34.0282   25.0566 H   0  0  0  0  0  0  0  0  0  0  0  0
  -22.7881  -31.3489   21.4131 H   0  0  0  0  0  0  0  0  0  0  0  0
  -23.3854  -35.9823   23.3648 H   0  0  0  0  0  0  0  0  0  0  0  0
  -24.3696  -36.8624   22.2204 H   0  0  0  0  0  0  0  0  0  0  0  0
  -23.7669  -37.6632   23.6516 H   0  0  0  0  0  0  0  0  0  0  0  0
  -25.9445  -31.6237   20.5691 H   0  0  0  0  0  0  0  0  0  0  0  0
  -26.7436  -31.0079   22.0108 H   0  0  0  0  0  0  0  0  0  0  0  0
  -28.0090  -29.1452   21.2057 H   0  0  0  0  0  0  0  0  0  0  0  0
  -26.1369  -26.0560   19.0719 H   0  0  0  0  0  0  0  0  0  0  0  0
  -24.0652  -27.2961   19.0997 H   0  0  0  0  0  0  0  0  0  0  0  0
  -23.6156  -30.5365   19.3930 H   0  0  0  0  0  0  0  0  0  0  0  0
  -22.7355  -29.1425   19.9945 H   0  0  0  0  0  0  0  0  0  0  0  0
  -25.1353  -36.2335   25.0565 H   0  0  0  0  0  0  0  0  0  0  0  0
  -21.0070  -28.3206   24.0793 H   0  0  0  0  0  0  0  0  0  0  0  0
  -20.5555  -26.2518   23.3550 H   0  0  0  0  0  0  0  0  0  0  0  0
  -21.5974  -26.8362   22.0454 H   0  0  0  0  0  0  0  0  0  0  0  0
  -19.6810  -25.6422   21.1488 H   0  0  0  0  0  0  0  0  0  0  0  0
  -19.6406  -27.3343   20.7034 H   0  0  0  0  0  0  0  0  0  0  0  0
  -17.4282  -26.6888   21.4113 H   0  0  0  0  0  0  0  0  0  0  0  0
  -18.0803  -26.0130   22.9049 H   0  0  0  0  0  0  0  0  0  0  0  0
  -19.7265  -30.6774   24.2204 H   0  0  0  0  0  0  0  0  0  0  0  0
  -17.5064  -31.5856   24.4483 H   0  0  0  0  0  0  0  0  0  0  0  0
  -15.5878  -30.2839   23.7407 H   0  0  0  0  0  0  0  0  0  0  0  0
  -15.9120  -28.0941   22.7766 H   0  0  0  0  0  0  0  0  0  0  0  0
  -24.5787  -30.7757   25.6817 H   0  0  0  0  0  0  0  0  0  0  0  0
  -25.0041  -32.2289   26.5536 H   0  0  0  0  0  0  0  0  0  0  0  0
  -25.8166  -30.7245   26.9138 H   0  0  0  0  0  0  0  0  0  0  0  0
  -26.2892  -29.7335   24.0803 H   0  0  0  0  0  0  0  0  0  0  0  0
  -27.4336  -29.7484   25.4006 H   0  0  0  0  0  0  0  0  0  0  0  0
  -27.8466  -30.4994   23.8779 H   0  0  0  0  0  0  0  0  0  0  0  0
  -27.2251  -33.3632   26.1242 H   0  0  0  0  0  0  0  0  0  0  0  0
  -28.3902  -32.6065   25.0645 H   0  0  0  0  0  0  0  0  0  0  0  0
  -27.9772  -31.8555   26.5872 H   0  0  0  0  0  0  0  0  0  0  0  0
  -28.2744  -38.0016   24.6863 H   0  0  0  0  0  0  0  0  0  0  0  0
  -28.0396  -36.2711   24.7461 H   0  0  0  0  0  0  0  0  0  0  0  0
  -27.1773  -37.3087   25.8564 H   0  0  0  0  0  0  0  0  0  0  0  0
  -20.9627  -29.9365   21.7352 H   0  0  0  0  0  0  0  0  0  0  0  0
  -26.0447  -38.2561   24.0273 H   0  0  0  0  0  0  0  0  0  0  0  0
  -30.8752  -23.0116   21.1134 H   0  0  0  0  0  0  0  0  0  0  0  0
  -29.0531  -24.9613   17.8658 H   0  0  0  0  0  0  0  0  0  0  0  0
  -29.4985  -20.7817   17.8270 H   0  0  0  0  0  0  0  0  0  0  0  0
  -31.2951  -26.1639   18.7139 H   0  0  0  0  0  0  0  0  0  0  0  0
  -29.0021  -24.6924   21.8365 H   0  0  0  0  0  0  0  0  0  0  0  0
  -28.8336  -26.4117   21.5743 H   0  0  0  0  0  0  0  0  0  0  0  0
  -30.2729  -25.7815   22.3387 H   0  0  0  0  0  0  0  0  0  0  0  0
  -33.0859  -27.0699   21.0241 H   0  0  0  0  0  0  0  0  0  0  0  0
  -33.0120  -28.8073   20.8537 H   0  0  0  0  0  0  0  0  0  0  0  0
  -33.2781  -27.8022   19.4493 H   0  0  0  0  0  0  0  0  0  0  0  0
  -30.9398  -29.7409   17.2693 H   0  0  0  0  0  0  0  0  0  0  0  0
  -31.1009  -28.0029   17.3497 H   0  0  0  0  0  0  0  0  0  0  0  0
  -32.4056  -29.0275   17.8982 H   0  0  0  0  0  0  0  0  0  0  0  0
  -28.9068  -29.0964   18.1234 H   0  0  0  0  0  0  0  0  0  0  0  0
  -28.7950  -29.7735   19.7066 H   0  0  0  0  0  0  0  0  0  0  0  0
  -30.7468  -27.9263   21.0945 H   0  0  0  0  0  0  0  0  0  0  0  0
  -31.0800  -29.8259   19.7322 H   0  0  0  0  0  0  0  0  0  0  0  0
  -31.2808  -20.8592   20.8943 H   0  0  0  0  0  0  0  0  0  0  0  0
  1 25  1  0
  1 30  2  0
  1 85  1  0
  2  3  1  0
  2 25  1  0
  2 87  1  0
  2 88  1  0
  3  4  1  0
  3 89  1  0
  3 90  1  0
  4  5  1  0
  4 91  1  0
  4 92  1  0
  5  6  1  0
  5 26  1  0
  5 93  1  6
  6 25  1  0
  6 94  1  0
  6 95  1  0
  7  8  2  0
  7 26  1  0
  7 29  1  0
  8  9  1  0
  8 22  1  0
  9 10  1  0
  9 27  2  0
 10 11  2  0
 10 15  1  0
 11 12  1  0
 11 96  1  0
 12 13  2  0
 12 97  1  0
 13 14  1  0
 13 31  1  0
 14 15  2  0
 14 98  1  0
 15 99  1  0
 16 17  2  0
 16 21  1  0
 16 31  1  0
 17 18  1  0
 17100  1  0
 18 19  2  0
 18101  1  0
 19 20  1  0
 19 24  1  0
 20 21  2  0
 20102  1  0
 21 23  1  0
 22 28  1  0
 22 32  2  0
 26 27  1  0
 28103  1  0
 28104  1  0
 29105  1  0
 29106  1  0
 33 34  1  0
 33 66  1  0
 33 70  2  0
 34 36  1  0
 34 59  1  0
 34107  1  6
 35 44  2  0
 35 45  1  0
 35 68  1  0
 36 56  1  0
 36108  1  0
 37 39  1  0
 37 47  1  0
 37 66  1  0
 37109  1  6
 38 43  2  0
 38 46  1  0
 38 47  1  0
 39 64  1  0
 39 67  2  0
 40 52  1  0
 40 53  2  0
 40 58  1  0
 41110  1  0
 41111  1  0
 41112  1  0
 42 43  1  0
 42 66  1  0
 42113  1  0
 42114  1  0
 43 44  1  0
 44115  1  0
 45 46  2  0
 45116  1  0
 46117  1  0
 47118  1  0
 47119  1  0
 48 41  1  0
 48 56  1  0
 48 65  1  0
 48120  1  1
 49 50  1  0
 49 53  1  0
 49 64  1  0
 49121  1  1
 50 51  1  0
 50122  1  0
 50123  1  0
 51 52  1  0
 51124  1  0
 51125  1  0
 52126  1  0
 52127  1  0
 53 54  1  0
 54 55  2  0
 54128  1  0
 55 57  1  0
 55129  1  0
 56 69  2  0
 57 58  2  0
 57130  1  0
 58131  1  0
 59 60  1  0
 59 61  1  0
 59 62  1  0
 60132  1  0
 60133  1  0
 60134  1  0
 61135  1  0
 61136  1  0
 61137  1  0
 62138  1  0
 62139  1  0
 62140  1  0
 63 65  1  0
 63141  1  0
 63142  1  0
 63143  1  0
 64144  1  0
 65145  1  0
 68 82  1  0
 71 74  2  0
 71 75  1  0
 71146  1  0
 72 74  1  0
 72 76  2  0
 72147  1  0
 73 75  2  0
 73 76  1  0
 73148  1  0
 74 78  1  0
 75 85  1  0
 76 86  1  0
 77 78  2  0
 77 83  1  0
 77149  1  0
 78 79  1  0
 79150  1  0
 79151  1  0
 79152  1  0
 80153  1  0
 80154  1  0
 80155  1  0
 81156  1  0
 81157  1  0
 81158  1  0
 82 84  1  0
 82159  1  0
 82160  1  0
 83 80  1  0
 83 84  1  0
 83161  1  1
 84 81  1  0
 84162  1  1
 85163  1  0
M  ISO  4   1 100  68 101  82 101  85 100
M  END
$$$$
86
     RDKit          3D

165173  0  0  0  0  0  0  0  0999 V2000
  -30.7652  -14.3608   20.6636 C   0  0  0  0  0  0  0  0  0100  0  0
  -30.4392  -12.2669   19.3775 C   0  0  0  0  0  0  0  0  0101  0  0
  -29.4791  -12.5281   18.1977 C   0  0  0  0  0  0  0  0  0102  0  0
  -27.9985  -12.3963   18.6038 C   0  0  0  0  0  0  0  0  0103  0  0
  -27.6639  -13.2170   19.8820 C   0  0  2  0  0  0  0  0  0104  0  0
  -28.6795  -12.9602   21.0279 C   0  0  0  0  0  0  0  0  0105  0  0
  -25.2633  -13.8245   20.5754 C   0  0  0  0  0  0  0  0  0106  0  0
  -24.1645  -13.0409   20.9408 C   0  0  0  0  0  0  0  0  0107  0  0
  -24.6400  -11.7009   20.8697 C   0  0  0  0  0  0  0  0  0108  0  0
  -23.9005  -10.4085   21.0420 C   0  0  0  0  0  0  0  0  0109  0  0
  -24.3588   -9.4123   21.9123 C   0  0  0  0  0  0  0  0  0110  0  0
  -23.6296   -8.2350   22.0803 C   0  0  0  0  0  0  0  0  0111  0  0
  -22.4385   -8.0419   21.3657 C   0  0  0  0  0  0  0  0  0112  0  0
  -22.0103   -9.0167   20.4678 C   0  0  0  0  0  0  0  0  0113  0  0
  -22.7317  -10.1925   20.3102 C   0  0  0  0  0  0  0  0  0114  0  0
  -21.6857   -6.0709   22.5391 C   0  0  0  0  0  0  0  0  0115  0  0
  -21.4064   -6.5490   23.8264 C   0  0  0  0  0  0  0  0  0116  0  0
  -21.3635   -5.6677   24.9085 C   0  0  0  0  0  0  0  0  0117  0  0
  -21.5973   -4.3067   24.7088 C   0  0  0  0  0  0  0  0  0118  0  0
  -21.8700   -3.8284   23.4282 C   0  0  0  0  0  0  0  0  0119  0  0
  -21.9144   -4.7056   22.3460 C   0  0  0  0  0  0  0  0  0120  0  0
  -22.8194  -13.5263   21.1763 C   0  0  0  0  0  0  0  0  0121  0  0
  -22.1559   -4.2206   21.1063 F   0  0  0  0  0  0  0  0  0122  0  0
  -21.5628   -3.4510   25.7555 F   0  0  0  0  0  0  0  0  0123  0  0
  -30.0261  -13.1803   20.4553 N   0  0  0  0  0  0  0  0  0124  0  0
  -26.2911  -12.9356   20.3443 N   0  0  0  0  0  0  0  0  0125  0  0
  -25.9236  -11.6675   20.5847 N   0  0  0  0  0  0  0  0  0126  0  0
  -22.0708  -12.7905   22.0005 N   0  0  0  0  0  0  0  0  0127  0  0
  -25.4117  -15.1773   20.4097 N   0  0  0  0  0  0  0  0  0128  0  0
  -31.7916  -14.6724   20.0536 O   0  0  0  0  0  0  0  0  0129  0  0
  -21.6670   -6.9022   21.4423 O   0  0  0  0  0  0  0  0  0130  0  0
  -22.3946  -14.5564   20.6568 O   0  0  0  0  0  0  0  0  0131  0  0
  -24.6048  -31.8614   23.2223 C   0  0  0  0  0  0  0  0  0100  0  0
  -25.8822  -32.4841   23.8616 C   0  0  1  0  0  0  0  0  0101  0  0
  -27.2536  -27.5042   20.1156 C   0  0  0  0  0  0  0  0  0102  0  0
  -25.5726  -33.8762   24.2210 N   0  0  0  0  0  0  0  0  0103  0  0
  -23.4066  -30.4859   21.5461 C   0  0  2  0  0  0  0  0  0104  0  0
  -24.8467  -28.9636   20.1247 C   0  0  0  0  0  0  0  0  0105  0  0
  -22.7412  -29.4652   22.5052 C   0  0  0  0  0  0  0  0  0106  0  0
  -18.0167  -28.1302   22.8626 C   0  0  0  0  0  0  0  0  0107  0  0
  -24.1342  -36.7390   23.2568 C   0  0  0  0  0  0  0  0  0108  0  0
  -25.9141  -30.8882   21.3456 C   0  0  0  0  0  0  0  0  0109  0  0
  -25.9930  -29.5029   20.7208 C   0  0  0  0  0  0  0  0  0110  0  0
  -27.1758  -28.7612   20.7331 C   0  0  0  0  0  0  0  0  0111  0  0
  -26.1032  -26.9836   19.5230 C   0  0  0  0  0  0  0  0  0112  0  0
  -24.9097  -27.7011   19.5331 C   0  0  0  0  0  0  0  0  0113  0  0
  -23.5715  -29.7899   20.1582 C   0  0  0  0  0  0  0  0  0114  0  0
  -25.3990  -36.3212   24.0232 C   0  0  1  0  0  0  0  0  0115  0  0
  -20.5793  -28.3813   23.1004 C   0  0  2  0  0  0  0  0  0116  0  0
  -20.6548  -26.9392   22.5411 C   0  0  0  0  0  0  0  0  0117  0  0
  -19.5615  -26.6407   21.5143 C   0  0  0  0  0  0  0  0  0118  0  0
  -18.1797  -26.7818   22.1673 C   0  0  0  0  0  0  0  0  0119  0  0
  -19.1385  -28.8769   23.2988 C   0  0  0  0  0  0  0  0  0120  0  0
  -18.9183  -30.1286   23.8878 C   0  0  0  0  0  0  0  0  0121  0  0
  -17.6396  -30.6493   24.0352 C   0  0  0  0  0  0  0  0  0122  0  0
  -25.9153  -34.9582   23.4993 C   0  0  0  0  0  0  0  0  0123  0  0
  -16.5415  -29.9068   23.6254 C   0  0  0  0  0  0  0  0  0124  0  0
  -16.7331  -28.6521   23.0586 C   0  0  0  0  0  0  0  0  0125  0  0
  -26.4583  -31.6439   25.0683 C   0  0  0  0  0  0  0  0  0126  0  0
  -25.3807  -31.3179   26.1374 C   0  0  0  0  0  0  0  0  0127  0  0
  -27.0530  -30.3024   24.5680 C   0  0  0  0  0  0  0  0  0128  0  0
  -27.6014  -32.4281   25.7651 C   0  0  0  0  0  0  0  0  0129  0  0
  -27.5629  -37.2220   24.8621 C   0  0  0  0  0  0  0  0  0130  0  0
  -21.4133  -29.3375   22.3735 N   0  0  0  0  0  0  0  0  0131  0  0
  -26.4706  -37.3372   23.9061 N   0  0  0  0  0  0  0  0  0132  0  0
  -24.6674  -31.0544   22.1178 N   0  0  0  0  0  0  0  0  0133  0  0
  -23.4259  -28.8150   23.2971 O   0  0  0  0  0  0  0  0  0134  0  0
  -28.3948  -26.7345   20.0089 O   0  0  0  0  0  0  0  0  0135  0  0
  -26.5870  -34.9065   22.4671 O   0  0  0  0  0  0  0  0  0136  0  0
  -23.5365  -32.1254   23.7833 O   0  0  0  0  0  0  0  0  0137  0  0
  -30.5219  -18.2449   24.1090 C   0  0  0  0  0  0  0  0  0  0  0  0
  -32.6978  -17.3877   23.5023 C   0  0  0  0  0  0  0  0  0  0  0  0
  -29.9250  -17.3767   23.1950 C   0  0  0  0  0  0  0  0  0  0  0  0
  -32.1008  -16.5195   22.5883 C   0  0  0  0  0  0  0  0  0  0  0  0
  -31.9083  -18.2505   24.2626 C   0  0  0  0  0  0  0  0  0  0  0  0
  -30.7144  -16.5139   22.4347 C   0  0  0  0  0  0  0  0  0  0  0  0
  -31.9860  -18.8476   26.6702 C   0  0  0  0  0  0  0  0  0  0  0  0
  -34.0953  -19.0276   25.4008 C   0  0  0  0  0  0  0  0  0  0  0  0
  -34.1782  -21.8171   23.7699 C   0  0  0  0  0  0  0  0  0  0  0  0
  -32.3775  -20.7221   22.4155 C   0  0  0  0  0  0  0  0  0  0  0  0
  -32.2160  -20.7200   25.0101 C   0  0  0  0  0  0  0  0  0  0  0  0
  -31.8935  -22.8253   23.6511 C   0  0  0  0  0  0  0  0  0  1  0  0
  -32.5681  -19.2104   25.2730 C   0  0  0  0  0  0  0  0  0  0  0  0
  -32.6727  -21.4798   23.7170 C   0  0  0  0  0  0  0  0  0  0  0  0
  -30.1083  -15.6316   21.5063 N   0  0  0  0  0  0  0  0  0  0  0  0
  -31.4485  -12.4701   19.0860 H   0  0  0  0  0  0  0  0  0  0  0  0
  -30.3970  -11.2460   19.6950 H   0  0  0  0  0  0  0  0  0  0  0  0
  -29.6870  -11.8204   17.4226 H   0  0  0  0  0  0  0  0  0  0  0  0
  -29.6375  -13.5326   17.8649 H   0  0  0  0  0  0  0  0  0  0  0  0
  -27.7830  -11.3650   18.7904 H   0  0  0  0  0  0  0  0  0  0  0  0
  -27.4028  -12.7801   17.8021 H   0  0  0  0  0  0  0  0  0  0  0  0
  -27.7353  -14.2503   19.6136 H   0  0  0  0  0  0  0  0  0  0  0  0
  -28.5890  -11.9550   21.3832 H   0  0  0  0  0  0  0  0  0  0  0  0
  -28.5005  -13.6134   21.8562 H   0  0  0  0  0  0  0  0  0  0  0  0
  -25.2399   -9.5495   22.4318 H   0  0  0  0  0  0  0  0  0  0  0  0
  -23.9663   -7.5070   22.7297 H   0  0  0  0  0  0  0  0  0  0  0  0
  -21.1515   -8.8641   19.9162 H   0  0  0  0  0  0  0  0  0  0  0  0
  -22.4016  -10.9115   19.6476 H   0  0  0  0  0  0  0  0  0  0  0  0
  -21.2319   -7.5552   23.9750 H   0  0  0  0  0  0  0  0  0  0  0  0
  -21.1589   -6.0228   25.8556 H   0  0  0  0  0  0  0  0  0  0  0  0
  -22.0396   -2.8212   23.2809 H   0  0  0  0  0  0  0  0  0  0  0  0
  -22.4401  -11.9703   22.4008 H   0  0  0  0  0  0  0  0  0  0  0  0
  -21.1493  -13.0679   22.2082 H   0  0  0  0  0  0  0  0  0  0  0  0
  -24.6538  -15.7807   20.5848 H   0  0  0  0  0  0  0  0  0  0  0  0
  -26.2762  -15.5453   20.1156 H   0  0  0  0  0  0  0  0  0  0  0  0
  -26.6778  -32.4663   23.1464 H   0  0  0  0  0  0  0  0  0  0  0  0
  -25.0747  -34.0282   25.0566 H   0  0  0  0  0  0  0  0  0  0  0  0
  -22.7881  -31.3489   21.4131 H   0  0  0  0  0  0  0  0  0  0  0  0
  -23.3854  -35.9823   23.3648 H   0  0  0  0  0  0  0  0  0  0  0  0
  -24.3696  -36.8624   22.2204 H   0  0  0  0  0  0  0  0  0  0  0  0
  -23.7669  -37.6632   23.6516 H   0  0  0  0  0  0  0  0  0  0  0  0
  -25.9445  -31.6237   20.5691 H   0  0  0  0  0  0  0  0  0  0  0  0
  -26.7436  -31.0079   22.0108 H   0  0  0  0  0  0  0  0  0  0  0  0
  -28.0090  -29.1452   21.2057 H   0  0  0  0  0  0  0  0  0  0  0  0
  -26.1369  -26.0560   19.0719 H   0  0  0  0  0  0  0  0  0  0  0  0
  -24.0652  -27.2961   19.0997 H   0  0  0  0  0  0  0  0  0  0  0  0
  -23.6156  -30.5365   19.3930 H   0  0  0  0  0  0  0  0  0  0  0  0
  -22.7355  -29.1425   19.9945 H   0  0  0  0  0  0  0  0  0  0  0  0
  -25.1353  -36.2335   25.0565 H   0  0  0  0  0  0  0  0  0  0  0  0
  -21.0070  -28.3206   24.0793 H   0  0  0  0  0  0  0  0  0  0  0  0
  -20.5555  -26.2518   23.3550 H   0  0  0  0  0  0  0  0  0  0  0  0
  -21.5974  -26.8362   22.0454 H   0  0  0  0  0  0  0  0  0  0  0  0
  -19.6810  -25.6422   21.1488 H   0  0  0  0  0  0  0  0  0  0  0  0
  -19.6406  -27.3343   20.7034 H   0  0  0  0  0  0  0  0  0  0  0  0
  -17.4282  -26.6888   21.4113 H   0  0  0  0  0  0  0  0  0  0  0  0
  -18.0803  -26.0130   22.9049 H   0  0  0  0  0  0  0  0  0  0  0  0
  -19.7265  -30.6774   24.2204 H   0  0  0  0  0  0  0  0  0  0  0  0
  -17.5064  -31.5856   24.4483 H   0  0  0  0  0  0  0  0  0  0  0  0
  -15.5878  -30.2839   23.7407 H   0  0  0  0  0  0  0  0  0  0  0  0
  -15.9120  -28.0941   22.7766 H   0  0  0  0  0  0  0  0  0  0  0  0
  -24.5787  -30.7757   25.6817 H   0  0  0  0  0  0  0  0  0  0  0  0
  -25.0041  -32.2289   26.5536 H   0  0  0  0  0  0  0  0  0  0  0  0
  -25.8166  -30.7245   26.9138 H   0  0  0  0  0  0  0  0  0  0  0  0
  -26.2892  -29.7335   24.0803 H   0  0  0  0  0  0  0  0  0  0  0  0
  -27.4336  -29.7484   25.4006 H   0  0  0  0  0  0  0  0  0  0  0  0
  -27.8466  -30.4994   23.8779 H   0  0  0  0  0  0  0  0  0  0  0  0
  -27.2251  -33.3632   26.1242 H   0  0  0  0  0  0  0  0  0  0  0  0
  -28.3902  -32.6065   25.0645 H   0  0  0  0  0  0  0  0  0  0  0  0
  -27.9772  -31.8555   26.5872 H   0  0  0  0  0  0  0  0  0  0  0  0
  -28.2744  -38.0016   24.6863 H   0  0  0  0  0  0  0  0  0  0  0  0
  -28.0396  -36.2711   24.7461 H   0  0  0  0  0  0  0  0  0  0  0  0
  -27.1773  -37.3087   25.8564 H   0  0  0  0  0  0  0  0  0  0  0  0
  -20.9627  -29.9365   21.7352 H   0  0  0  0  0  0  0  0  0  0  0  0
  -26.0447  -38.2561   24.0273 H   0  0  0  0  0  0  0  0  0  0  0  0
  -29.9378  -18.8831   24.6716 H   0  0  0  0  0  0  0  0  0  0  0  0
  -33.7235  -17.3917   23.6160 H   0  0  0  0  0  0  0  0  0  0  0  0
  -28.8993  -17.3727   23.0813 H   0  0  0  0  0  0  0  0  0  0  0  0
  -32.6848  -15.8813   22.0257 H   0  0  0  0  0  0  0  0  0  0  0  0
  -32.2031  -17.8236   26.8921 H   0  0  0  0  0  0  0  0  0  0  0  0
  -30.9261  -18.9943   26.6640 H   0  0  0  0  0  0  0  0  0  0  0  0
  -32.4286  -19.4755   27.4150 H   0  0  0  0  0  0  0  0  0  0  0  0
  -34.3174  -17.9962   25.5792 H   0  0  0  0  0  0  0  0  0  0  0  0
  -34.4580  -19.6169   26.2169 H   0  0  0  0  0  0  0  0  0  0  0  0
  -34.5693  -19.3430   24.4948 H   0  0  0  0  0  0  0  0  0  0  0  0
  -34.7453  -20.9109   23.8160 H   0  0  0  0  0  0  0  0  0  0  0  0
  -34.3808  -22.4092   24.6378 H   0  0  0  0  0  0  0  0  0  0  0  0
  -34.4520  -22.3650   22.8925 H   0  0  0  0  0  0  0  0  0  0  0  0
  -32.8973  -19.7869   22.4215 H   0  0  0  0  0  0  0  0  0  0  0  0
  -32.7042  -21.3063   21.5807 H   0  0  0  0  0  0  0  0  0  0  0  0
  -31.3252  -20.5448   22.3368 H   0  0  0  0  0  0  0  0  0  0  0  0
  -32.6216  -21.2675   25.8351 H   0  0  0  0  0  0  0  0  0  0  0  0
  -31.1554  -20.6771   24.8756 H   0  0  0  0  0  0  0  0  0  0  0  0
  -32.6703  -23.4993   23.9464 H   0  0  0  0  0  0  0  0  0  0  0  0
  -31.0040  -22.3307   23.9813 H   0  0  0  0  0  0  0  0  0  0  0  0
  -29.1531  -15.7972   21.3350 H   0  0  0  0  0  0  0  0  0  0  0  0
  1 25  1  0
  1 30  2  0
  1 85  1  0
  2  3  1  0
  2 25  1  0
  2 86  1  0
  2 87  1  0
  3  4  1  0
  3 88  1  0
  3 89  1  0
  4  5  1  0
  4 90  1  0
  4 91  1  0
  5  6  1  0
  5 26  1  0
  5 92  1  6
  6 25  1  0
  6 93  1  0
  6 94  1  0
  7  8  2  0
  7 26  1  0
  7 29  1  0
  8  9  1  0
  8 22  1  0
  9 10  1  0
  9 27  2  0
 10 11  2  0
 10 15  1  0
 11 12  1  0
 11 95  1  0
 12 13  2  0
 12 96  1  0
 13 14  1  0
 13 31  1  0
 14 15  2  0
 14 97  1  0
 15 98  1  0
 16 17  2  0
 16 21  1  0
 16 31  1  0
 17 18  1  0
 17 99  1  0
 18 19  2  0
 18100  1  0
 19 20  1  0
 19 24  1  0
 20 21  2  0
 20101  1  0
 21 23  1  0
 22 28  1  0
 22 32  2  0
 26 27  1  0
 28102  1  0
 28103  1  0
 29104  1  0
 29105  1  0
 33 34  1  0
 33 66  1  0
 33 70  2  0
 34 36  1  0
 34 59  1  0
 34106  1  6
 35 44  2  0
 35 45  1  0
 35 68  1  0
 36 56  1  0
 36107  1  0
 37 39  1  0
 37 47  1  0
 37 66  1  0
 37108  1  6
 38 43  2  0
 38 46  1  0
 38 47  1  0
 39 64  1  0
 39 67  2  0
 40 52  1  0
 40 53  2  0
 40 58  1  0
 41109  1  0
 41110  1  0
 41111  1  0
 42 43  1  0
 42 66  1  0
 42112  1  0
 42113  1  0
 43 44  1  0
 44114  1  0
 45 46  2  0
 45115  1  0
 46116  1  0
 47117  1  0
 47118  1  0
 48 41  1  0
 48 56  1  0
 48 65  1  0
 48119  1  1
 49 50  1  0
 49 53  1  0
 49 64  1  0
 49120  1  1
 50 51  1  0
 50121  1  0
 50122  1  0
 51 52  1  0
 51123  1  0
 51124  1  0
 52125  1  0
 52126  1  0
 53 54  1  0
 54 55  2  0
 54127  1  0
 55 57  1  0
 55128  1  0
 56 69  2  0
 57 58  2  0
 57129  1  0
 58130  1  0
 59 60  1  0
 59 61  1  0
 59 62  1  0
 60131  1  0
 60132  1  0
 60133  1  0
 61134  1  0
 61135  1  0
 61136  1  0
 62137  1  0
 62138  1  0
 62139  1  0
 63 65  1  0
 63140  1  0
 63141  1  0
 63142  1  0
 64143  1  0
 65144  1  0
 68 82  1  0
 71 73  2  0
 71 75  1  0
 71145  1  0
 72 74  1  0
 72 75  2  0
 72146  1  0
 73 76  1  0
 73147  1  0
 74 76  2  0
 74148  1  0
 75 83  1  0
 76 85  1  0
 77149  1  0
 77150  1  0
 77151  1  0
 78 83  1  0
 78152  1  0
 78153  1  0
 78154  1  0
 79155  1  0
 79156  1  0
 79157  1  0
 80 84  1  0
 80158  1  0
 80159  1  0
 80160  1  0
 81 83  1  0
 81 84  1  0
 81161  1  0
 81162  1  0
 82 84  1  0
 82163  1  0
 82164  1  0
 83 77  1  0
 84 79  1  0
 85165  1  0
M  ISO  4   1 100  68 101  82 101  85 100
M  END
$$$$
87
     RDKit          3D

179187  0  0  0  0  0  0  0  0999 V2000
  -30.7652  -14.3608   20.6636 C   0  0  0  0  0  0  0  0  0100  0  0
  -30.4392  -12.2669   19.3775 C   0  0  0  0  0  0  0  0  0101  0  0
  -29.4791  -12.5281   18.1977 C   0  0  0  0  0  0  0  0  0102  0  0
  -27.9985  -12.3963   18.6038 C   0  0  0  0  0  0  0  0  0103  0  0
  -27.6639  -13.2170   19.8820 C   0  0  2  0  0  0  0  0  0104  0  0
  -28.6795  -12.9602   21.0279 C   0  0  0  0  0  0  0  0  0105  0  0
  -25.2633  -13.8245   20.5754 C   0  0  0  0  0  0  0  0  0106  0  0
  -24.1645  -13.0409   20.9408 C   0  0  0  0  0  0  0  0  0107  0  0
  -24.6400  -11.7009   20.8697 C   0  0  0  0  0  0  0  0  0108  0  0
  -23.9005  -10.4085   21.0420 C   0  0  0  0  0  0  0  0  0109  0  0
  -24.3588   -9.4123   21.9123 C   0  0  0  0  0  0  0  0  0110  0  0
  -23.6296   -8.2350   22.0803 C   0  0  0  0  0  0  0  0  0111  0  0
  -22.4385   -8.0419   21.3657 C   0  0  0  0  0  0  0  0  0112  0  0
  -22.0103   -9.0167   20.4678 C   0  0  0  0  0  0  0  0  0113  0  0
  -22.7317  -10.1925   20.3102 C   0  0  0  0  0  0  0  0  0114  0  0
  -21.6857   -6.0709   22.5391 C   0  0  0  0  0  0  0  0  0115  0  0
  -21.4064   -6.5490   23.8264 C   0  0  0  0  0  0  0  0  0116  0  0
  -21.3635   -5.6677   24.9085 C   0  0  0  0  0  0  0  0  0117  0  0
  -21.5973   -4.3067   24.7088 C   0  0  0  0  0  0  0  0  0118  0  0
  -21.8700   -3.8284   23.4282 C   0  0  0  0  0  0  0  0  0119  0  0
  -21.9144   -4.7056   22.3460 C   0  0  0  0  0  0  0  0  0120  0  0
  -22.8194  -13.5263   21.1763 C   0  0  0  0  0  0  0  0  0121  0  0
  -22.1559   -4.2206   21.1063 F   0  0  0  0  0  0  0  0  0122  0  0
  -21.5628   -3.4510   25.7555 F   0  0  0  0  0  0  0  0  0123  0  0
  -30.0261  -13.1803   20.4553 N   0  0  0  0  0  0  0  0  0124  0  0
  -26.2911  -12.9356   20.3443 N   0  0  0  0  0  0  0  0  0125  0  0
  -25.9236  -11.6675   20.5847 N   0  0  0  0  0  0  0  0  0126  0  0
  -22.0708  -12.7905   22.0005 N   0  0  0  0  0  0  0  0  0127  0  0
  -25.4117  -15.1773   20.4097 N   0  0  0  0  0  0  0  0  0128  0  0
  -31.7916  -14.6724   20.0536 O   0  0  0  0  0  0  0  0  0129  0  0
  -21.6670   -6.9022   21.4423 O   0  0  0  0  0  0  0  0  0130  0  0
  -22.3946  -14.5564   20.6568 O   0  0  0  0  0  0  0  0  0131  0  0
  -24.6048  -31.8614   23.2223 C   0  0  0  0  0  0  0  0  0100  0  0
  -25.8822  -32.4841   23.8616 C   0  0  1  0  0  0  0  0  0101  0  0
  -27.2536  -27.5042   20.1156 C   0  0  0  0  0  0  0  0  0102  0  0
  -25.5726  -33.8762   24.2210 N   0  0  0  0  0  0  0  0  0103  0  0
  -23.4066  -30.4859   21.5461 C   0  0  2  0  0  0  0  0  0104  0  0
  -24.8467  -28.9636   20.1247 C   0  0  0  0  0  0  0  0  0105  0  0
  -22.7412  -29.4652   22.5052 C   0  0  0  0  0  0  0  0  0106  0  0
  -18.0167  -28.1302   22.8626 C   0  0  0  0  0  0  0  0  0107  0  0
  -24.1342  -36.7390   23.2568 C   0  0  0  0  0  0  0  0  0108  0  0
  -25.9141  -30.8882   21.3456 C   0  0  0  0  0  0  0  0  0109  0  0
  -25.9930  -29.5029   20.7208 C   0  0  0  0  0  0  0  0  0110  0  0
  -27.1758  -28.7612   20.7331 C   0  0  0  0  0  0  0  0  0111  0  0
  -26.1032  -26.9836   19.5230 C   0  0  0  0  0  0  0  0  0112  0  0
  -24.9097  -27.7011   19.5331 C   0  0  0  0  0  0  0  0  0113  0  0
  -23.5715  -29.7899   20.1582 C   0  0  0  0  0  0  0  0  0114  0  0
  -25.3990  -36.3212   24.0232 C   0  0  1  0  0  0  0  0  0115  0  0
  -20.5793  -28.3813   23.1004 C   0  0  2  0  0  0  0  0  0116  0  0
  -20.6548  -26.9392   22.5411 C   0  0  0  0  0  0  0  0  0117  0  0
  -19.5615  -26.6407   21.5143 C   0  0  0  0  0  0  0  0  0118  0  0
  -18.1797  -26.7818   22.1673 C   0  0  0  0  0  0  0  0  0119  0  0
  -19.1385  -28.8769   23.2988 C   0  0  0  0  0  0  0  0  0120  0  0
  -18.9183  -30.1286   23.8878 C   0  0  0  0  0  0  0  0  0121  0  0
  -17.6396  -30.6493   24.0352 C   0  0  0  0  0  0  0  0  0122  0  0
  -25.9153  -34.9582   23.4993 C   0  0  0  0  0  0  0  0  0123  0  0
  -16.5415  -29.9068   23.6254 C   0  0  0  0  0  0  0  0  0124  0  0
  -16.7331  -28.6521   23.0586 C   0  0  0  0  0  0  0  0  0125  0  0
  -26.4583  -31.6439   25.0683 C   0  0  0  0  0  0  0  0  0126  0  0
  -25.3807  -31.3179   26.1374 C   0  0  0  0  0  0  0  0  0127  0  0
  -27.0530  -30.3024   24.5680 C   0  0  0  0  0  0  0  0  0128  0  0
  -27.6014  -32.4281   25.7651 C   0  0  0  0  0  0  0  0  0129  0  0
  -27.5629  -37.2220   24.8621 C   0  0  0  0  0  0  0  0  0130  0  0
  -21.4133  -29.3375   22.3735 N   0  0  0  0  0  0  0  0  0131  0  0
  -26.4706  -37.3372   23.9061 N   0  0  0  0  0  0  0  0  0132  0  0
  -24.6674  -31.0544   22.1178 N   0  0  0  0  0  0  0  0  0133  0  0
  -23.4259  -28.8150   23.2971 O   0  0  0  0  0  0  0  0  0134  0  0
  -28.3948  -26.7345   20.0089 O   0  0  0  0  0  0  0  0  0135  0  0
  -26.5870  -34.9065   22.4671 O   0  0  0  0  0  0  0  0  0136  0  0
  -23.5365  -32.1254   23.7833 O   0  0  0  0  0  0  0  0  0137  0  0
  -28.5668  -20.7720   21.5590 C   0  0  0  0  0  0  0  0  0  0  0  0
  -30.6629  -20.5260   20.4625 C   0  0  0  0  0  0  0  0  0  0  0  0
  -29.7230  -21.3554   21.0529 C   0  0  0  0  0  0  0  0  0  0  0  0
  -28.3884  -19.3966   21.4607 C   0  0  0  0  0  0  0  0  0  0  0  0
  -29.3879  -18.6550   20.8518 C   0  0  0  0  0  0  0  0  0  0  0  0
  -26.1498  -18.4131   20.9054 C   0  0  0  0  0  0  0  0  0  0  0  0
  -31.8143  -24.0379   18.7981 C   0  0  0  0  0  0  0  0  0  0  0  0
  -31.9537  -27.5958   22.3270 C   0  0  0  0  0  0  0  0  0  0  0  0
  -28.7595  -26.2071   19.3118 C   0  0  0  0  0  0  0  0  0  0  0  0
  -28.2252  -25.4125   21.5973 C   0  0  0  0  0  0  0  0  0  0  0  0
  -28.0478  -23.2163   19.4955 C   0  0  0  0  0  0  0  0  0  0  0  0
  -29.9482  -22.8513   21.1450 C   0  0  0  0  0  0  0  0  0  0  0  0
  -27.1468  -18.7747   22.0036 C   0  0  0  0  0  0  0  0  0  0  0  0
  -30.3606  -23.5995   18.6990 C   0  0  0  0  0  0  0  0  0  0  0  0
  -30.6297  -25.8659   21.0522 C   0  0  0  0  0  0  0  0  0  0  0  0
  -30.5960  -27.2537   21.7204 C   0  0  2  0  0  0  0  0  0  1  0  0
  -29.2824  -25.3069   20.4573 C   0  0  0  0  0  0  0  0  0  0  0  0
  -29.4364  -23.7572   19.9609 C   0  0  1  0  0  0  0  0  0  0  0  0
  -30.5247  -19.1861   20.3485 N   0  0  0  0  0  0  0  0  0  0  0  0
  -29.2172  -17.2522   20.7482 N   0  0  0  0  0  0  0  0  0  0  0  0
  -31.4485  -12.4701   19.0860 H   0  0  0  0  0  0  0  0  0  0  0  0
  -30.3970  -11.2460   19.6950 H   0  0  0  0  0  0  0  0  0  0  0  0
  -29.6870  -11.8204   17.4226 H   0  0  0  0  0  0  0  0  0  0  0  0
  -29.6375  -13.5326   17.8649 H   0  0  0  0  0  0  0  0  0  0  0  0
  -27.7830  -11.3650   18.7904 H   0  0  0  0  0  0  0  0  0  0  0  0
  -27.4028  -12.7801   17.8021 H   0  0  0  0  0  0  0  0  0  0  0  0
  -27.7353  -14.2503   19.6136 H   0  0  0  0  0  0  0  0  0  0  0  0
  -28.5890  -11.9550   21.3832 H   0  0  0  0  0  0  0  0  0  0  0  0
  -28.5005  -13.6134   21.8562 H   0  0  0  0  0  0  0  0  0  0  0  0
  -25.2399   -9.5495   22.4318 H   0  0  0  0  0  0  0  0  0  0  0  0
  -23.9663   -7.5070   22.7297 H   0  0  0  0  0  0  0  0  0  0  0  0
  -21.1515   -8.8641   19.9162 H   0  0  0  0  0  0  0  0  0  0  0  0
  -22.4016  -10.9115   19.6476 H   0  0  0  0  0  0  0  0  0  0  0  0
  -21.2319   -7.5552   23.9750 H   0  0  0  0  0  0  0  0  0  0  0  0
  -21.1589   -6.0228   25.8556 H   0  0  0  0  0  0  0  0  0  0  0  0
  -22.0396   -2.8212   23.2809 H   0  0  0  0  0  0  0  0  0  0  0  0
  -22.4401  -11.9703   22.4008 H   0  0  0  0  0  0  0  0  0  0  0  0
  -21.1493  -13.0679   22.2082 H   0  0  0  0  0  0  0  0  0  0  0  0
  -24.6538  -15.7807   20.5848 H   0  0  0  0  0  0  0  0  0  0  0  0
  -26.2762  -15.5453   20.1156 H   0  0  0  0  0  0  0  0  0  0  0  0
  -26.6778  -32.4663   23.1464 H   0  0  0  0  0  0  0  0  0  0  0  0
  -25.0747  -34.0282   25.0566 H   0  0  0  0  0  0  0  0  0  0  0  0
  -22.7881  -31.3489   21.4131 H   0  0  0  0  0  0  0  0  0  0  0  0
  -23.3854  -35.9823   23.3648 H   0  0  0  0  0  0  0  0  0  0  0  0
  -24.3696  -36.8624   22.2204 H   0  0  0  0  0  0  0  0  0  0  0  0
  -23.7669  -37.6632   23.6516 H   0  0  0  0  0  0  0  0  0  0  0  0
  -25.9445  -31.6237   20.5691 H   0  0  0  0  0  0  0  0  0  0  0  0
  -26.7436  -31.0079   22.0108 H   0  0  0  0  0  0  0  0  0  0  0  0
  -28.0090  -29.1452   21.2057 H   0  0  0  0  0  0  0  0  0  0  0  0
  -26.1369  -26.0560   19.0719 H   0  0  0  0  0  0  0  0  0  0  0  0
  -24.0652  -27.2961   19.0997 H   0  0  0  0  0  0  0  0  0  0  0  0
  -23.6156  -30.5365   19.3930 H   0  0  0  0  0  0  0  0  0  0  0  0
  -22.7355  -29.1425   19.9945 H   0  0  0  0  0  0  0  0  0  0  0  0
  -25.1353  -36.2335   25.0565 H   0  0  0  0  0  0  0  0  0  0  0  0
  -21.0070  -28.3206   24.0793 H   0  0  0  0  0  0  0  0  0  0  0  0
  -20.5555  -26.2518   23.3550 H   0  0  0  0  0  0  0  0  0  0  0  0
  -21.5974  -26.8362   22.0454 H   0  0  0  0  0  0  0  0  0  0  0  0
  -19.6810  -25.6422   21.1488 H   0  0  0  0  0  0  0  0  0  0  0  0
  -19.6406  -27.3343   20.7034 H   0  0  0  0  0  0  0  0  0  0  0  0
  -17.4282  -26.6888   21.4113 H   0  0  0  0  0  0  0  0  0  0  0  0
  -18.0803  -26.0130   22.9049 H   0  0  0  0  0  0  0  0  0  0  0  0
  -19.7265  -30.6774   24.2204 H   0  0  0  0  0  0  0  0  0  0  0  0
  -17.5064  -31.5856   24.4483 H   0  0  0  0  0  0  0  0  0  0  0  0
  -15.5878  -30.2839   23.7407 H   0  0  0  0  0  0  0  0  0  0  0  0
  -15.9120  -28.0941   22.7766 H   0  0  0  0  0  0  0  0  0  0  0  0
  -24.5787  -30.7757   25.6817 H   0  0  0  0  0  0  0  0  0  0  0  0
  -25.0041  -32.2289   26.5536 H   0  0  0  0  0  0  0  0  0  0  0  0
  -25.8166  -30.7245   26.9138 H   0  0  0  0  0  0  0  0  0  0  0  0
  -26.2892  -29.7335   24.0803 H   0  0  0  0  0  0  0  0  0  0  0  0
  -27.4336  -29.7484   25.4006 H   0  0  0  0  0  0  0  0  0  0  0  0
  -27.8466  -30.4994   23.8779 H   0  0  0  0  0  0  0  0  0  0  0  0
  -27.2251  -33.3632   26.1242 H   0  0  0  0  0  0  0  0  0  0  0  0
  -28.3902  -32.6065   25.0645 H   0  0  0  0  0  0  0  0  0  0  0  0
  -27.9772  -31.8555   26.5872 H   0  0  0  0  0  0  0  0  0  0  0  0
  -28.2744  -38.0016   24.6863 H   0  0  0  0  0  0  0  0  0  0  0  0
  -28.0396  -36.2711   24.7461 H   0  0  0  0  0  0  0  0  0  0  0  0
  -27.1773  -37.3087   25.8564 H   0  0  0  0  0  0  0  0  0  0  0  0
  -20.9627  -29.9365   21.7352 H   0  0  0  0  0  0  0  0  0  0  0  0
  -26.0447  -38.2561   24.0273 H   0  0  0  0  0  0  0  0  0  0  0  0
  -27.8439  -21.3575   22.0058 H   0  0  0  0  0  0  0  0  0  0  0  0
  -31.5215  -20.9578   20.0866 H   0  0  0  0  0  0  0  0  0  0  0  0
  -25.2796  -17.9720   21.3448 H   0  0  0  0  0  0  0  0  0  0  0  0
  -26.6005  -17.7164   20.2298 H   0  0  0  0  0  0  0  0  0  0  0  0
  -25.8706  -19.2976   20.3719 H   0  0  0  0  0  0  0  0  0  0  0  0
  -32.3033  -23.8660   17.8620 H   0  0  0  0  0  0  0  0  0  0  0  0
  -32.3048  -23.4759   19.5652 H   0  0  0  0  0  0  0  0  0  0  0  0
  -31.8571  -25.0801   19.0368 H   0  0  0  0  0  0  0  0  0  0  0  0
  -31.8953  -27.5279   23.3932 H   0  0  0  0  0  0  0  0  0  0  0  0
  -32.2285  -28.5914   22.0475 H   0  0  0  0  0  0  0  0  0  0  0  0
  -32.6893  -26.9080   21.9656 H   0  0  0  0  0  0  0  0  0  0  0  0
  -28.6681  -27.2138   19.6627 H   0  0  0  0  0  0  0  0  0  0  0  0
  -27.8026  -25.8536   18.9889 H   0  0  0  0  0  0  0  0  0  0  0  0
  -29.4464  -26.1762   18.4920 H   0  0  0  0  0  0  0  0  0  0  0  0
  -28.1377  -26.4323   21.9093 H   0  0  0  0  0  0  0  0  0  0  0  0
  -28.5337  -24.8110   22.4267 H   0  0  0  0  0  0  0  0  0  0  0  0
  -27.2782  -25.0668   21.2387 H   0  0  0  0  0  0  0  0  0  0  0  0
  -28.1507  -22.2019   19.1710 H   0  0  0  0  0  0  0  0  0  0  0  0
  -27.6850  -23.8147   18.6860 H   0  0  0  0  0  0  0  0  0  0  0  0
  -27.3560  -23.2616   20.3105 H   0  0  0  0  0  0  0  0  0  0  0  0
  -31.0031  -23.0084   21.2312 H   0  0  0  0  0  0  0  0  0  0  0  0
  -29.3596  -23.1562   21.9849 H   0  0  0  0  0  0  0  0  0  0  0  0
  -26.6821  -19.4652   22.6760 H   0  0  0  0  0  0  0  0  0  0  0  0
  -27.4258  -17.8700   22.5022 H   0  0  0  0  0  0  0  0  0  0  0  0
  -30.3618  -22.5620   18.4373 H   0  0  0  0  0  0  0  0  0  0  0  0
  -29.9358  -24.2693   17.9808 H   0  0  0  0  0  0  0  0  0  0  0  0
  -30.9696  -25.1658   21.7865 H   0  0  0  0  0  0  0  0  0  0  0  0
  -31.2694  -25.9898   20.2034 H   0  0  0  0  0  0  0  0  0  0  0  0
  -30.4617  -28.1054   22.3541 H   0  0  0  0  0  0  0  0  0  0  0  0
  -28.2519  -17.0750   20.6711 H   0  0  0  0  0  0  0  0  0  0  0  0
  1 25  1  0
  1 30  2  0
  1 90  1  0
  2  3  1  0
  2 25  1  0
  2 91  1  0
  2 92  1  0
  3  4  1  0
  3 93  1  0
  3 94  1  0
  4  5  1  0
  4 95  1  0
  4 96  1  0
  5  6  1  0
  5 26  1  0
  5 97  1  6
  6 25  1  0
  6 98  1  0
  6 99  1  0
  7  8  2  0
  7 26  1  0
  7 29  1  0
  8  9  1  0
  8 22  1  0
  9 10  1  0
  9 27  2  0
 10 11  2  0
 10 15  1  0
 11 12  1  0
 11100  1  0
 12 13  2  0
 12101  1  0
 13 14  1  0
 13 31  1  0
 14 15  2  0
 14102  1  0
 15103  1  0
 16 17  2  0
 16 21  1  0
 16 31  1  0
 17 18  1  0
 17104  1  0
 18 19  2  0
 18105  1  0
 19 20  1  0
 19 24  1  0
 20 21  2  0
 20106  1  0
 21 23  1  0
 22 28  1  0
 22 32  2  0
 26 27  1  0
 28107  1  0
 28108  1  0
 29109  1  0
 29110  1  0
 33 34  1  0
 33 66  1  0
 33 70  2  0
 34 36  1  0
 34 59  1  0
 34111  1  6
 35 44  2  0
 35 45  1  0
 35 68  1  0
 36 56  1  0
 36112  1  0
 37 39  1  0
 37 47  1  0
 37 66  1  0
 37113  1  6
 38 43  2  0
 38 46  1  0
 38 47  1  0
 39 64  1  0
 39 67  2  0
 40 52  1  0
 40 53  2  0
 40 58  1  0
 41114  1  0
 41115  1  0
 41116  1  0
 42 43  1  0
 42 66  1  0
 42117  1  0
 42118  1  0
 43 44  1  0
 44119  1  0
 45 46  2  0
 45120  1  0
 46121  1  0
 47122  1  0
 47123  1  0
 48 41  1  0
 48 56  1  0
 48 65  1  0
 48124  1  1
 49 50  1  0
 49 53  1  0
 49 64  1  0
 49125  1  1
 50 51  1  0
 50126  1  0
 50127  1  0
 51 52  1  0
 51128  1  0
 51129  1  0
 52130  1  0
 52131  1  0
 53 54  1  0
 54 55  2  0
 54132  1  0
 55 57  1  0
 55133  1  0
 56 69  2  0
 57 58  2  0
 57134  1  0
 58135  1  0
 59 60  1  0
 59 61  1  0
 59 62  1  0
 60136  1  0
 60137  1  0
 60138  1  0
 61139  1  0
 61140  1  0
 61141  1  0
 62142  1  0
 62143  1  0
 62144  1  0
 63 65  1  0
 63145  1  0
 63146  1  0
 63147  1  0
 64148  1  0
 65149  1  0
 68 86  1  0
 71 73  2  0
 71 74  1  0
 71150  1  0
 72 73  1  0
 72 89  2  0
 72151  1  0
 73 82  1  0
 74 75  2  0
 74 83  1  0
 75 89  1  0
 75 90  1  0
 76 83  1  0
 76152  1  0
 76153  1  0
 76154  1  0
 77 84  1  0
 77155  1  0
 77156  1  0
 77157  1  0
 78158  1  0
 78159  1  0
 78160  1  0
 79161  1  0
 79162  1  0
 79163  1  0
 80 87  1  0
 80164  1  0
 80165  1  0
 80166  1  0
 81167  1  0
 81168  1  0
 81169  1  0
 88 82  1  1
 82170  1  0
 82171  1  0
 83172  1  0
 83173  1  0
 84 88  1  0
 84174  1  0
 84175  1  0
 85 86  1  0
 85 87  1  0
 85176  1  0
 85177  1  0
 86 78  1  0
 86178  1  1
 87 79  1  0
 87 88  1  0
 88 81  1  0
 90179  1  0
M  ISO  4   1 100  68 101  86 101  90 100
M  END
$$$$
88
     RDKit          3D

169177  0  0  0  0  0  0  0  0999 V2000
  -30.7652  -14.3608   20.6636 C   0  0  0  0  0  0  0  0  0100  0  0
  -30.4392  -12.2669   19.3775 C   0  0  0  0  0  0  0  0  0101  0  0
  -29.4791  -12.5281   18.1977 C   0  0  0  0  0  0  0  0  0102  0  0
  -27.9985  -12.3963   18.6038 C   0  0  0  0  0  0  0  0  0103  0  0
  -27.6639  -13.2170   19.8820 C   0  0  2  0  0  0  0  0  0104  0  0
  -28.6795  -12.9602   21.0279 C   0  0  0  0  0  0  0  0  0105  0  0
  -25.2633  -13.8245   20.5754 C   0  0  0  0  0  0  0  0  0106  0  0
  -24.1645  -13.0409   20.9408 C   0  0  0  0  0  0  0  0  0107  0  0
  -24.6400  -11.7009   20.8697 C   0  0  0  0  0  0  0  0  0108  0  0
  -23.9005  -10.4085   21.0420 C   0  0  0  0  0  0  0  0  0109  0  0
  -24.3588   -9.4123   21.9123 C   0  0  0  0  0  0  0  0  0110  0  0
  -23.6296   -8.2350   22.0803 C   0  0  0  0  0  0  0  0  0111  0  0
  -22.4385   -8.0419   21.3657 C   0  0  0  0  0  0  0  0  0112  0  0
  -22.0103   -9.0167   20.4678 C   0  0  0  0  0  0  0  0  0113  0  0
  -22.7317  -10.1925   20.3102 C   0  0  0  0  0  0  0  0  0114  0  0
  -21.6857   -6.0709   22.5391 C   0  0  0  0  0  0  0  0  0115  0  0
  -21.4064   -6.5490   23.8264 C   0  0  0  0  0  0  0  0  0116  0  0
  -21.3635   -5.6677   24.9085 C   0  0  0  0  0  0  0  0  0117  0  0
  -21.5973   -4.3067   24.7088 C   0  0  0  0  0  0  0  0  0118  0  0
  -21.8700   -3.8284   23.4282 C   0  0  0  0  0  0  0  0  0119  0  0
  -21.9144   -4.7056   22.3460 C   0  0  0  0  0  0  0  0  0120  0  0
  -22.8194  -13.5263   21.1763 C   0  0  0  0  0  0  0  0  0121  0  0
  -22.1559   -4.2206   21.1063 F   0  0  0  0  0  0  0  0  0122  0  0
  -21.5628   -3.4510   25.7555 F   0  0  0  0  0  0  0  0  0123  0  0
  -30.0261  -13.1803   20.4553 N   0  0  0  0  0  0  0  0  0124  0  0
  -26.2911  -12.9356   20.3443 N   0  0  0  0  0  0  0  0  0125  0  0
  -25.9236  -11.6675   20.5847 N   0  0  0  0  0  0  0  0  0126  0  0
  -22.0708  -12.7905   22.0005 N   0  0  0  0  0  0  0  0  0127  0  0
  -25.4117  -15.1773   20.4097 N   0  0  0  0  0  0  0  0  0128  0  0
  -31.7916  -14.6724   20.0536 O   0  0  0  0  0  0  0  0  0129  0  0
  -21.6670   -6.9022   21.4423 O   0  0  0  0  0  0  0  0  0130  0  0
  -22.3946  -14.5564   20.6568 O   0  0  0  0  0  0  0  0  0131  0  0
  -24.6048  -31.8614   23.2223 C   0  0  0  0  0  0  0  0  0100  0  0
  -25.8822  -32.4841   23.8616 C   0  0  1  0  0  0  0  0  0101  0  0
  -27.2536  -27.5042   20.1156 C   0  0  0  0  0  0  0  0  0102  0  0
  -25.5726  -33.8762   24.2210 N   0  0  0  0  0  0  0  0  0103  0  0
  -23.4066  -30.4859   21.5461 C   0  0  2  0  0  0  0  0  0104  0  0
  -24.8467  -28.9636   20.1247 C   0  0  0  0  0  0  0  0  0105  0  0
  -22.7412  -29.4652   22.5052 C   0  0  0  0  0  0  0  0  0106  0  0
  -18.0167  -28.1302   22.8626 C   0  0  0  0  0  0  0  0  0107  0  0
  -24.1342  -36.7390   23.2568 C   0  0  0  0  0  0  0  0  0108  0  0
  -25.9141  -30.8882   21.3456 C   0  0  0  0  0  0  0  0  0109  0  0
  -25.9930  -29.5029   20.7208 C   0  0  0  0  0  0  0  0  0110  0  0
  -27.1758  -28.7612   20.7331 C   0  0  0  0  0  0  0  0  0111  0  0
  -26.1032  -26.9836   19.5230 C   0  0  0  0  0  0  0  0  0112  0  0
  -24.9097  -27.7011   19.5331 C   0  0  0  0  0  0  0  0  0113  0  0
  -23.5715  -29.7899   20.1582 C   0  0  0  0  0  0  0  0  0114  0  0
  -25.3990  -36.3212   24.0232 C   0  0  1  0  0  0  0  0  0115  0  0
  -20.5793  -28.3813   23.1004 C   0  0  2  0  0  0  0  0  0116  0  0
  -20.6548  -26.9392   22.5411 C   0  0  0  0  0  0  0  0  0117  0  0
  -19.5615  -26.6407   21.5143 C   0  0  0  0  0  0  0  0  0118  0  0
  -18.1797  -26.7818   22.1673 C   0  0  0  0  0  0  0  0  0119  0  0
  -19.1385  -28.8769   23.2988 C   0  0  0  0  0  0  0  0  0120  0  0
  -18.9183  -30.1286   23.8878 C   0  0  0  0  0  0  0  0  0121  0  0
  -17.6396  -30.6493   24.0352 C   0  0  0  0  0  0  0  0  0122  0  0
  -25.9153  -34.9582   23.4993 C   0  0  0  0  0  0  0  0  0123  0  0
  -16.5415  -29.9068   23.6254 C   0  0  0  0  0  0  0  0  0124  0  0
  -16.7331  -28.6521   23.0586 C   0  0  0  0  0  0  0  0  0125  0  0
  -26.4583  -31.6439   25.0683 C   0  0  0  0  0  0  0  0  0126  0  0
  -25.3807  -31.3179   26.1374 C   0  0  0  0  0  0  0  0  0127  0  0
  -27.0530  -30.3024   24.5680 C   0  0  0  0  0  0  0  0  0128  0  0
  -27.6014  -32.4281   25.7651 C   0  0  0  0  0  0  0  0  0129  0  0
  -27.5629  -37.2220   24.8621 C   0  0  0  0  0  0  0  0  0130  0  0
  -21.4133  -29.3375   22.3735 N   0  0  0  0  0  0  0  0  0131  0  0
  -26.4706  -37.3372   23.9061 N   0  0  0  0  0  0  0  0  0132  0  0
  -24.6674  -31.0544   22.1178 N   0  0  0  0  0  0  0  0  0133  0  0
  -23.4259  -28.8150   23.2971 O   0  0  0  0  0  0  0  0  0134  0  0
  -28.3948  -26.7345   20.0089 O   0  0  0  0  0  0  0  0  0135  0  0
  -26.5870  -34.9065   22.4671 O   0  0  0  0  0  0  0  0  0136  0  0
  -23.5365  -32.1254   23.7833 O   0  0  0  0  0  0  0  0  0137  0  0
  -26.0273  -23.9905   22.8267 C   0  0  0  0  0  0  0  0  0  0  0  0
  -24.9555  -21.8454   23.1213 C   0  0  0  0  0  0  0  0  0  0  0  0
  -24.6589  -23.0712   21.0606 C   0  0  0  0  0  0  0  0  0  0  0  0
  -25.7689  -22.8669   23.6118 C   0  0  0  0  0  0  0  0  0  0  0  0
  -25.4722  -24.0926   21.5511 C   0  0  0  0  0  0  0  0  0  0  0  0
  -24.4005  -21.9475   21.8457 C   0  0  0  0  0  0  0  0  0  0  0  0
  -26.3583  -22.7587   24.9669 C   0  0  0  0  0  0  0  0  0  0  0  0
  -24.6948  -26.4053   20.9682 C   0  0  0  0  0  0  0  0  0  0  0  0
  -25.7910  -25.0589   19.1738 C   0  0  0  0  0  0  0  0  0  0  0  0
  -30.2754  -24.4931   25.1629 C   0  0  0  0  0  0  0  0  0  0  0  0
  -30.0398  -24.5472   27.6535 C   0  0  0  0  0  0  0  0  0  0  0  0
  -28.4948  -25.9370   26.2145 C   0  0  0  0  0  0  0  0  0  1  0  0
  -28.2771  -23.4210   26.2752 C   0  0  0  0  0  0  0  0  0  0  0  0
  -25.7485  -25.2940   20.7122 C   0  0  0  0  0  0  0  0  0  0  0  0
  -29.2676  -24.6038   26.3230 C   0  0  0  0  0  0  0  0  0  0  0  0
  -25.7912  -22.1217   25.9364 N   0  0  0  0  0  0  0  0  0  0  0  0
  -23.5779  -20.9148   21.3498 N   0  0  0  0  0  0  0  0  0  0  0  0
  -27.5532  -23.4099   25.0514 O   0  0  0  0  0  0  0  0  0  0  0  0
  -31.4485  -12.4701   19.0860 H   0  0  0  0  0  0  0  0  0  0  0  0
  -30.3970  -11.2460   19.6950 H   0  0  0  0  0  0  0  0  0  0  0  0
  -29.6870  -11.8204   17.4226 H   0  0  0  0  0  0  0  0  0  0  0  0
  -29.6375  -13.5326   17.8649 H   0  0  0  0  0  0  0  0  0  0  0  0
  -27.7830  -11.3650   18.7904 H   0  0  0  0  0  0  0  0  0  0  0  0
  -27.4028  -12.7801   17.8021 H   0  0  0  0  0  0  0  0  0  0  0  0
  -27.7353  -14.2503   19.6136 H   0  0  0  0  0  0  0  0  0  0  0  0
  -28.5890  -11.9550   21.3832 H   0  0  0  0  0  0  0  0  0  0  0  0
  -28.5005  -13.6134   21.8562 H   0  0  0  0  0  0  0  0  0  0  0  0
  -25.2399   -9.5495   22.4318 H   0  0  0  0  0  0  0  0  0  0  0  0
  -23.9663   -7.5070   22.7297 H   0  0  0  0  0  0  0  0  0  0  0  0
  -21.1515   -8.8641   19.9162 H   0  0  0  0  0  0  0  0  0  0  0  0
  -22.4016  -10.9115   19.6476 H   0  0  0  0  0  0  0  0  0  0  0  0
  -21.2319   -7.5552   23.9750 H   0  0  0  0  0  0  0  0  0  0  0  0
  -21.1589   -6.0228   25.8556 H   0  0  0  0  0  0  0  0  0  0  0  0
  -22.0396   -2.8212   23.2809 H   0  0  0  0  0  0  0  0  0  0  0  0
  -22.4401  -11.9703   22.4008 H   0  0  0  0  0  0  0  0  0  0  0  0
  -21.1493  -13.0679   22.2082 H   0  0  0  0  0  0  0  0  0  0  0  0
  -24.6538  -15.7807   20.5848 H   0  0  0  0  0  0  0  0  0  0  0  0
  -26.2762  -15.5453   20.1156 H   0  0  0  0  0  0  0  0  0  0  0  0
  -26.6778  -32.4663   23.1464 H   0  0  0  0  0  0  0  0  0  0  0  0
  -25.0747  -34.0282   25.0566 H   0  0  0  0  0  0  0  0  0  0  0  0
  -22.7881  -31.3489   21.4131 H   0  0  0  0  0  0  0  0  0  0  0  0
  -23.3854  -35.9823   23.3648 H   0  0  0  0  0  0  0  0  0  0  0  0
  -24.3696  -36.8624   22.2204 H   0  0  0  0  0  0  0  0  0  0  0  0
  -23.7669  -37.6632   23.6516 H   0  0  0  0  0  0  0  0  0  0  0  0
  -25.9445  -31.6237   20.5691 H   0  0  0  0  0  0  0  0  0  0  0  0
  -26.7436  -31.0079   22.0108 H   0  0  0  0  0  0  0  0  0  0  0  0
  -28.0090  -29.1452   21.2057 H   0  0  0  0  0  0  0  0  0  0  0  0
  -26.1369  -26.0560   19.0719 H   0  0  0  0  0  0  0  0  0  0  0  0
  -24.0652  -27.2961   19.0997 H   0  0  0  0  0  0  0  0  0  0  0  0
  -23.6156  -30.5365   19.3930 H   0  0  0  0  0  0  0  0  0  0  0  0
  -22.7355  -29.1425   19.9945 H   0  0  0  0  0  0  0  0  0  0  0  0
  -25.1353  -36.2335   25.0565 H   0  0  0  0  0  0  0  0  0  0  0  0
  -21.0070  -28.3206   24.0793 H   0  0  0  0  0  0  0  0  0  0  0  0
  -20.5555  -26.2518   23.3550 H   0  0  0  0  0  0  0  0  0  0  0  0
  -21.5974  -26.8362   22.0454 H   0  0  0  0  0  0  0  0  0  0  0  0
  -19.6810  -25.6422   21.1488 H   0  0  0  0  0  0  0  0  0  0  0  0
  -19.6406  -27.3343   20.7034 H   0  0  0  0  0  0  0  0  0  0  0  0
  -17.4282  -26.6888   21.4113 H   0  0  0  0  0  0  0  0  0  0  0  0
  -18.0803  -26.0130   22.9049 H   0  0  0  0  0  0  0  0  0  0  0  0
  -19.7265  -30.6774   24.2204 H   0  0  0  0  0  0  0  0  0  0  0  0
  -17.5064  -31.5856   24.4483 H   0  0  0  0  0  0  0  0  0  0  0  0
  -15.5878  -30.2839   23.7407 H   0  0  0  0  0  0  0  0  0  0  0  0
  -15.9120  -28.0941   22.7766 H   0  0  0  0  0  0  0  0  0  0  0  0
  -24.5787  -30.7757   25.6817 H   0  0  0  0  0  0  0  0  0  0  0  0
  -25.0041  -32.2289   26.5536 H   0  0  0  0  0  0  0  0  0  0  0  0
  -25.8166  -30.7245   26.9138 H   0  0  0  0  0  0  0  0  0  0  0  0
  -26.2892  -29.7335   24.0803 H   0  0  0  0  0  0  0  0  0  0  0  0
  -27.4336  -29.7484   25.4006 H   0  0  0  0  0  0  0  0  0  0  0  0
  -27.8466  -30.4994   23.8779 H   0  0  0  0  0  0  0  0  0  0  0  0
  -27.2251  -33.3632   26.1242 H   0  0  0  0  0  0  0  0  0  0  0  0
  -28.3902  -32.6065   25.0645 H   0  0  0  0  0  0  0  0  0  0  0  0
  -27.9772  -31.8555   26.5872 H   0  0  0  0  0  0  0  0  0  0  0  0
  -28.2744  -38.0016   24.6863 H   0  0  0  0  0  0  0  0  0  0  0  0
  -28.0396  -36.2711   24.7461 H   0  0  0  0  0  0  0  0  0  0  0  0
  -27.1773  -37.3087   25.8564 H   0  0  0  0  0  0  0  0  0  0  0  0
  -20.9627  -29.9365   21.7352 H   0  0  0  0  0  0  0  0  0  0  0  0
  -26.0447  -38.2561   24.0273 H   0  0  0  0  0  0  0  0  0  0  0  0
  -26.6291  -24.7462   23.1896 H   0  0  0  0  0  0  0  0  0  0  0  0
  -24.7643  -21.0141   23.7022 H   0  0  0  0  0  0  0  0  0  0  0  0
  -24.2483  -23.1468   20.1168 H   0  0  0  0  0  0  0  0  0  0  0  0
  -25.0662  -27.3399   20.6029 H   0  0  0  0  0  0  0  0  0  0  0  0
  -24.5059  -26.4826   22.0186 H   0  0  0  0  0  0  0  0  0  0  0  0
  -23.7861  -26.1592   20.4596 H   0  0  0  0  0  0  0  0  0  0  0  0
  -25.3793  -25.9093   18.6715 H   0  0  0  0  0  0  0  0  0  0  0  0
  -25.2181  -24.1887   18.9300 H   0  0  0  0  0  0  0  0  0  0  0  0
  -26.8049  -24.9171   18.8625 H   0  0  0  0  0  0  0  0  0  0  0  0
  -30.9578  -25.3163   25.2035 H   0  0  0  0  0  0  0  0  0  0  0  0
  -29.7499  -24.5110   24.2310 H   0  0  0  0  0  0  0  0  0  0  0  0
  -30.8184  -23.5751   25.2485 H   0  0  0  0  0  0  0  0  0  0  0  0
  -30.7309  -25.3627   27.6997 H   0  0  0  0  0  0  0  0  0  0  0  0
  -30.5745  -23.6225   27.7165 H   0  0  0  0  0  0  0  0  0  0  0  0
  -29.3507  -24.6170   28.4691 H   0  0  0  0  0  0  0  0  0  0  0  0
  -29.0134  -26.7338   26.7055 H   0  0  0  0  0  0  0  0  0  0  0  0
  -27.5292  -25.9280   26.6755 H   0  0  0  0  0  0  0  0  0  0  0  0
  -27.5875  -23.5094   27.0886 H   0  0  0  0  0  0  0  0  0  0  0  0
  -28.8320  -22.5092   26.3506 H   0  0  0  0  0  0  0  0  0  0  0  0
  -24.9250  -21.6764   25.7927 H   0  0  0  0  0  0  0  0  0  0  0  0
  -23.3955  -20.1217   21.9039 H   0  0  0  0  0  0  0  0  0  0  0  0
  -23.1860  -20.9870   20.4495 H   0  0  0  0  0  0  0  0  0  0  0  0
  1 25  1  0
  1 30  2  0
  1 84  1  0
  2  3  1  0
  2 25  1  0
  2 89  1  0
  2 90  1  0
  3  4  1  0
  3 91  1  0
  3 92  1  0
  4  5  1  0
  4 93  1  0
  4 94  1  0
  5  6  1  0
  5 26  1  0
  5 95  1  6
  6 25  1  0
  6 96  1  0
  6 97  1  0
  7  8  2  0
  7 26  1  0
  7 29  1  0
  8  9  1  0
  8 22  1  0
  9 10  1  0
  9 27  2  0
 10 11  2  0
 10 15  1  0
 11 12  1  0
 11 98  1  0
 12 13  2  0
 12 99  1  0
 13 14  1  0
 13 31  1  0
 14 15  2  0
 14100  1  0
 15101  1  0
 16 17  2  0
 16 21  1  0
 16 31  1  0
 17 18  1  0
 17102  1  0
 18 19  2  0
 18103  1  0
 19 20  1  0
 19 24  1  0
 20 21  2  0
 20104  1  0
 21 23  1  0
 22 28  1  0
 22 32  2  0
 26 27  1  0
 28105  1  0
 28106  1  0
 29107  1  0
 29108  1  0
 33 34  1  0
 33 66  1  0
 33 70  2  0
 34 36  1  0
 34 59  1  0
 34109  1  6
 35 44  2  0
 35 45  1  0
 35 68  1  0
 36 56  1  0
 36110  1  0
 37 39  1  0
 37 47  1  0
 37 66  1  0
 37111  1  6
 38 43  2  0
 38 46  1  0
 38 47  1  0
 39 64  1  0
 39 67  2  0
 40 52  1  0
 40 53  2  0
 40 58  1  0
 41112  1  0
 41113  1  0
 41114  1  0
 42 43  1  0
 42 66  1  0
 42115  1  0
 42116  1  0
 43 44  1  0
 44117  1  0
 45 46  2  0
 45118  1  0
 46119  1  0
 47120  1  0
 47121  1  0
 48 41  1  0
 48 56  1  0
 48 65  1  0
 48122  1  1
 49 50  1  0
 49 53  1  0
 49 64  1  0
 49123  1  1
 50 51  1  0
 50124  1  0
 50125  1  0
 51 52  1  0
 51126  1  0
 51127  1  0
 52128  1  0
 52129  1  0
 53 54  1  0
 54 55  2  0
 54130  1  0
 55 57  1  0
 55131  1  0
 56 69  2  0
 57 58  2  0
 57132  1  0
 58133  1  0
 59 60  1  0
 59 61  1  0
 59 62  1  0
 60134  1  0
 60135  1  0
 60136  1  0
 61137  1  0
 61138  1  0
 61139  1  0
 62140  1  0
 62141  1  0
 62142  1  0
 63 65  1  0
 63143  1  0
 63144  1  0
 63145  1  0
 64146  1  0
 65147  1  0
 68 82  1  0
 71 74  2  0
 71 75  1  0
 71148  1  0
 72 74  1  0
 72 76  2  0
 72149  1  0
 73 75  2  0
 73 76  1  0
 73150  1  0
 74 77  1  0
 75 84  1  0
 76 87  1  0
 77 86  2  0
 77 88  1  0
 78151  1  0
 78152  1  0
 78153  1  0
 79 84  1  0
 79154  1  0
 79155  1  0
 79156  1  0
 80157  1  0
 80158  1  0
 80159  1  0
 81 85  1  0
 81160  1  0
 81161  1  0
 81162  1  0
 82 85  1  0
 82163  1  0
 82164  1  0
 83 85  1  0
 83 88  1  0
 83165  1  0
 83166  1  0
 84 78  1  0
 85 80  1  0
 86167  1  0
 87168  1  0
 87169  1  0
M  ISO  4   1 100  68 101  82 101  84 100
M  END
$$$$
89
     RDKit          3D

161169  0  0  0  0  0  0  0  0999 V2000
  -30.7652  -14.3608   20.6636 C   0  0  0  0  0  0  0  0  0100  0  0
  -30.4392  -12.2669   19.3775 C   0  0  0  0  0  0  0  0  0101  0  0
  -29.4791  -12.5281   18.1977 C   0  0  0  0  0  0  0  0  0102  0  0
  -27.9985  -12.3963   18.6038 C   0  0  0  0  0  0  0  0  0103  0  0
  -27.6639  -13.2170   19.8820 C   0  0  2  0  0  0  0  0  0104  0  0
  -28.6795  -12.9602   21.0279 C   0  0  0  0  0  0  0  0  0105  0  0
  -25.2633  -13.8245   20.5754 C   0  0  0  0  0  0  0  0  0106  0  0
  -24.1645  -13.0409   20.9408 C   0  0  0  0  0  0  0  0  0107  0  0
  -24.6400  -11.7009   20.8697 C   0  0  0  0  0  0  0  0  0108  0  0
  -23.9005  -10.4085   21.0420 C   0  0  0  0  0  0  0  0  0109  0  0
  -24.3588   -9.4123   21.9123 C   0  0  0  0  0  0  0  0  0110  0  0
  -23.6296   -8.2350   22.0803 C   0  0  0  0  0  0  0  0  0111  0  0
  -22.4385   -8.0419   21.3657 C   0  0  0  0  0  0  0  0  0112  0  0
  -22.0103   -9.0167   20.4678 C   0  0  0  0  0  0  0  0  0113  0  0
  -22.7317  -10.1925   20.3102 C   0  0  0  0  0  0  0  0  0114  0  0
  -21.6857   -6.0709   22.5391 C   0  0  0  0  0  0  0  0  0115  0  0
  -21.4064   -6.5490   23.8264 C   0  0  0  0  0  0  0  0  0116  0  0
  -21.3635   -5.6677   24.9085 C   0  0  0  0  0  0  0  0  0117  0  0
  -21.5973   -4.3067   24.7088 C   0  0  0  0  0  0  0  0  0118  0  0
  -21.8700   -3.8284   23.4282 C   0  0  0  0  0  0  0  0  0119  0  0
  -21.9144   -4.7056   22.3460 C   0  0  0  0  0  0  0  0  0120  0  0
  -22.8194  -13.5263   21.1763 C   0  0  0  0  0  0  0  0  0121  0  0
  -22.1559   -4.2206   21.1063 F   0  0  0  0  0  0  0  0  0122  0  0
  -21.5628   -3.4510   25.7555 F   0  0  0  0  0  0  0  0  0123  0  0
  -30.0261  -13.1803   20.4553 N   0  0  0  0  0  0  0  0  0124  0  0
  -26.2911  -12.9356   20.3443 N   0  0  0  0  0  0  0  0  0125  0  0
  -25.9236  -11.6675   20.5847 N   0  0  0  0  0  0  0  0  0126  0  0
  -22.0708  -12.7905   22.0005 N   0  0  0  0  0  0  0  0  0127  0  0
  -25.4117  -15.1773   20.4097 N   0  0  0  0  0  0  0  0  0128  0  0
  -31.7916  -14.6724   20.0536 O   0  0  0  0  0  0  0  0  0129  0  0
  -21.6670   -6.9022   21.4423 O   0  0  0  0  0  0  0  0  0130  0  0
  -22.3946  -14.5564   20.6568 O   0  0  0  0  0  0  0  0  0131  0  0
  -24.6048  -31.8614   23.2223 C   0  0  0  0  0  0  0  0  0100  0  0
  -25.8822  -32.4841   23.8616 C   0  0  1  0  0  0  0  0  0101  0  0
  -27.2536  -27.5042   20.1156 C   0  0  0  0  0  0  0  0  0102  0  0
  -25.5726  -33.8762   24.2210 N   0  0  0  0  0  0  0  0  0103  0  0
  -23.4066  -30.4859   21.5461 C   0  0  2  0  0  0  0  0  0104  0  0
  -24.8467  -28.9636   20.1247 C   0  0  0  0  0  0  0  0  0105  0  0
  -22.7412  -29.4652   22.5052 C   0  0  0  0  0  0  0  0  0106  0  0
  -18.0167  -28.1302   22.8626 C   0  0  0  0  0  0  0  0  0107  0  0
  -24.1342  -36.7390   23.2568 C   0  0  0  0  0  0  0  0  0108  0  0
  -25.9141  -30.8882   21.3456 C   0  0  0  0  0  0  0  0  0109  0  0
  -25.9930  -29.5029   20.7208 C   0  0  0  0  0  0  0  0  0110  0  0
  -27.1758  -28.7612   20.7331 C   0  0  0  0  0  0  0  0  0111  0  0
  -26.1032  -26.9836   19.5230 C   0  0  0  0  0  0  0  0  0112  0  0
  -24.9097  -27.7011   19.5331 C   0  0  0  0  0  0  0  0  0113  0  0
  -23.5715  -29.7899   20.1582 C   0  0  0  0  0  0  0  0  0114  0  0
  -25.3990  -36.3212   24.0232 C   0  0  1  0  0  0  0  0  0115  0  0
  -20.5793  -28.3813   23.1004 C   0  0  2  0  0  0  0  0  0116  0  0
  -20.6548  -26.9392   22.5411 C   0  0  0  0  0  0  0  0  0117  0  0
  -19.5615  -26.6407   21.5143 C   0  0  0  0  0  0  0  0  0118  0  0
  -18.1797  -26.7818   22.1673 C   0  0  0  0  0  0  0  0  0119  0  0
  -19.1385  -28.8769   23.2988 C   0  0  0  0  0  0  0  0  0120  0  0
  -18.9183  -30.1286   23.8878 C   0  0  0  0  0  0  0  0  0121  0  0
  -17.6396  -30.6493   24.0352 C   0  0  0  0  0  0  0  0  0122  0  0
  -25.9153  -34.9582   23.4993 C   0  0  0  0  0  0  0  0  0123  0  0
  -16.5415  -29.9068   23.6254 C   0  0  0  0  0  0  0  0  0124  0  0
  -16.7331  -28.6521   23.0586 C   0  0  0  0  0  0  0  0  0125  0  0
  -26.4583  -31.6439   25.0683 C   0  0  0  0  0  0  0  0  0126  0  0
  -25.3807  -31.3179   26.1374 C   0  0  0  0  0  0  0  0  0127  0  0
  -27.0530  -30.3024   24.5680 C   0  0  0  0  0  0  0  0  0128  0  0
  -27.6014  -32.4281   25.7651 C   0  0  0  0  0  0  0  0  0129  0  0
  -27.5629  -37.2220   24.8621 C   0  0  0  0  0  0  0  0  0130  0  0
  -21.4133  -29.3375   22.3735 N   0  0  0  0  0  0  0  0  0131  0  0
  -26.4706  -37.3372   23.9061 N   0  0  0  0  0  0  0  0  0132  0  0
  -24.6674  -31.0544   22.1178 N   0  0  0  0  0  0  0  0  0133  0  0
  -23.4259  -28.8150   23.2971 O   0  0  0  0  0  0  0  0  0134  0  0
  -28.3948  -26.7345   20.0089 O   0  0  0  0  0  0  0  0  0135  0  0
  -26.5870  -34.9065   22.4671 O   0  0  0  0  0  0  0  0  0136  0  0
  -23.5365  -32.1254   23.7833 O   0  0  0  0  0  0  0  0  0137  0  0
  -28.7417  -22.5689   22.3690 C   0  0  0  0  0  0  0  0  0  0  0  0
  -27.6642  -24.2266   23.7575 C   0  0  0  0  0  0  0  0  0  0  0  0
  -26.3459  -22.5152   22.6758 C   0  0  0  0  0  0  0  0  0  0  0  0
  -28.8220  -23.6919   23.1923 C   0  0  0  0  0  0  0  0  0  0  0  0
  -27.5036  -21.9805   22.1107 C   0  0  0  0  0  0  0  0  0  0  0  0
  -26.4261  -23.6382   23.4992 C   0  0  0  0  0  0  0  0  0  0  0  0
  -30.0930  -25.9313   21.4698 C   0  0  0  0  0  0  0  0  0  0  0  0
  -31.0828  -23.3569   24.2270 C   0  0  0  0  0  0  0  0  0  0  0  0
  -30.0950  -27.4823   17.9321 C   0  0  0  0  0  0  0  0  0  0  0  0
  -30.8692  -24.8404   22.1988 C   0  0  0  0  0  0  0  0  0  0  0  0
  -30.3500  -26.0300   19.9713 C   0  0  0  0  0  0  0  0  0  0  0  0
  -30.1716  -24.3335   23.4748 C   0  0  1  0  0  0  0  0  0  0  0  0
  -29.5164  -27.1163   19.2925 C   0  0  2  0  0  0  0  0  0  1  0  0
  -27.4217  -20.8399   21.2741 N   0  0  0  0  0  0  0  0  0  0  0  0
  -29.3452  -26.7083   22.0612 O   0  0  0  0  0  0  0  0  0  0  0  0
  -25.3144  -24.1517   24.0420 F   0  0  0  0  0  0  0  0  0  0  0  0
  -31.4485  -12.4701   19.0860 H   0  0  0  0  0  0  0  0  0  0  0  0
  -30.3970  -11.2460   19.6950 H   0  0  0  0  0  0  0  0  0  0  0  0
  -29.6870  -11.8204   17.4226 H   0  0  0  0  0  0  0  0  0  0  0  0
  -29.6375  -13.5326   17.8649 H   0  0  0  0  0  0  0  0  0  0  0  0
  -27.7830  -11.3650   18.7904 H   0  0  0  0  0  0  0  0  0  0  0  0
  -27.4028  -12.7801   17.8021 H   0  0  0  0  0  0  0  0  0  0  0  0
  -27.7353  -14.2503   19.6136 H   0  0  0  0  0  0  0  0  0  0  0  0
  -28.5890  -11.9550   21.3832 H   0  0  0  0  0  0  0  0  0  0  0  0
  -28.5005  -13.6134   21.8562 H   0  0  0  0  0  0  0  0  0  0  0  0
  -25.2399   -9.5495   22.4318 H   0  0  0  0  0  0  0  0  0  0  0  0
  -23.9663   -7.5070   22.7297 H   0  0  0  0  0  0  0  0  0  0  0  0
  -21.1515   -8.8641   19.9162 H   0  0  0  0  0  0  0  0  0  0  0  0
  -22.4016  -10.9115   19.6476 H   0  0  0  0  0  0  0  0  0  0  0  0
  -21.2319   -7.5552   23.9750 H   0  0  0  0  0  0  0  0  0  0  0  0
  -21.1589   -6.0228   25.8556 H   0  0  0  0  0  0  0  0  0  0  0  0
  -22.0396   -2.8212   23.2809 H   0  0  0  0  0  0  0  0  0  0  0  0
  -22.4401  -11.9703   22.4008 H   0  0  0  0  0  0  0  0  0  0  0  0
  -21.1493  -13.0679   22.2082 H   0  0  0  0  0  0  0  0  0  0  0  0
  -24.6538  -15.7807   20.5848 H   0  0  0  0  0  0  0  0  0  0  0  0
  -26.2762  -15.5453   20.1156 H   0  0  0  0  0  0  0  0  0  0  0  0
  -26.6778  -32.4663   23.1464 H   0  0  0  0  0  0  0  0  0  0  0  0
  -25.0747  -34.0282   25.0566 H   0  0  0  0  0  0  0  0  0  0  0  0
  -22.7881  -31.3489   21.4131 H   0  0  0  0  0  0  0  0  0  0  0  0
  -23.3854  -35.9823   23.3648 H   0  0  0  0  0  0  0  0  0  0  0  0
  -24.3696  -36.8624   22.2204 H   0  0  0  0  0  0  0  0  0  0  0  0
  -23.7669  -37.6632   23.6516 H   0  0  0  0  0  0  0  0  0  0  0  0
  -25.9445  -31.6237   20.5691 H   0  0  0  0  0  0  0  0  0  0  0  0
  -26.7436  -31.0079   22.0108 H   0  0  0  0  0  0  0  0  0  0  0  0
  -28.0090  -29.1452   21.2057 H   0  0  0  0  0  0  0  0  0  0  0  0
  -26.1369  -26.0560   19.0719 H   0  0  0  0  0  0  0  0  0  0  0  0
  -24.0652  -27.2961   19.0997 H   0  0  0  0  0  0  0  0  0  0  0  0
  -23.6156  -30.5365   19.3930 H   0  0  0  0  0  0  0  0  0  0  0  0
  -22.7355  -29.1425   19.9945 H   0  0  0  0  0  0  0  0  0  0  0  0
  -25.1353  -36.2335   25.0565 H   0  0  0  0  0  0  0  0  0  0  0  0
  -21.0070  -28.3206   24.0793 H   0  0  0  0  0  0  0  0  0  0  0  0
  -20.5555  -26.2518   23.3550 H   0  0  0  0  0  0  0  0  0  0  0  0
  -21.5974  -26.8362   22.0454 H   0  0  0  0  0  0  0  0  0  0  0  0
  -19.6810  -25.6422   21.1488 H   0  0  0  0  0  0  0  0  0  0  0  0
  -19.6406  -27.3343   20.7034 H   0  0  0  0  0  0  0  0  0  0  0  0
  -17.4282  -26.6888   21.4113 H   0  0  0  0  0  0  0  0  0  0  0  0
  -18.0803  -26.0130   22.9049 H   0  0  0  0  0  0  0  0  0  0  0  0
  -19.7265  -30.6774   24.2204 H   0  0  0  0  0  0  0  0  0  0  0  0
  -17.5064  -31.5856   24.4483 H   0  0  0  0  0  0  0  0  0  0  0  0
  -15.5878  -30.2839   23.7407 H   0  0  0  0  0  0  0  0  0  0  0  0
  -15.9120  -28.0941   22.7766 H   0  0  0  0  0  0  0  0  0  0  0  0
  -24.5787  -30.7757   25.6817 H   0  0  0  0  0  0  0  0  0  0  0  0
  -25.0041  -32.2289   26.5536 H   0  0  0  0  0  0  0  0  0  0  0  0
  -25.8166  -30.7245   26.9138 H   0  0  0  0  0  0  0  0  0  0  0  0
  -26.2892  -29.7335   24.0803 H   0  0  0  0  0  0  0  0  0  0  0  0
  -27.4336  -29.7484   25.4006 H   0  0  0  0  0  0  0  0  0  0  0  0
  -27.8466  -30.4994   23.8779 H   0  0  0  0  0  0  0  0  0  0  0  0
  -27.2251  -33.3632   26.1242 H   0  0  0  0  0  0  0  0  0  0  0  0
  -28.3902  -32.6065   25.0645 H   0  0  0  0  0  0  0  0  0  0  0  0
  -27.9772  -31.8555   26.5872 H   0  0  0  0  0  0  0  0  0  0  0  0
  -28.2744  -38.0016   24.6863 H   0  0  0  0  0  0  0  0  0  0  0  0
  -28.0396  -36.2711   24.7461 H   0  0  0  0  0  0  0  0  0  0  0  0
  -27.1773  -37.3087   25.8564 H   0  0  0  0  0  0  0  0  0  0  0  0
  -20.9627  -29.9365   21.7352 H   0  0  0  0  0  0  0  0  0  0  0  0
  -26.0447  -38.2561   24.0273 H   0  0  0  0  0  0  0  0  0  0  0  0
  -29.5983  -22.1733   21.9509 H   0  0  0  0  0  0  0  0  0  0  0  0
  -27.7236  -25.0575   24.3667 H   0  0  0  0  0  0  0  0  0  0  0  0
  -25.4299  -22.0799   22.4847 H   0  0  0  0  0  0  0  0  0  0  0  0
  -30.5857  -23.0134   25.1101 H   0  0  0  0  0  0  0  0  0  0  0  0
  -31.9906  -23.8536   24.4991 H   0  0  0  0  0  0  0  0  0  0  0  0
  -31.3081  -22.5220   23.5969 H   0  0  0  0  0  0  0  0  0  0  0  0
  -31.1363  -27.7056   18.0358 H   0  0  0  0  0  0  0  0  0  0  0  0
  -29.5833  -28.3389   17.5456 H   0  0  0  0  0  0  0  0  0  0  0  0
  -29.9719  -26.6596   17.2591 H   0  0  0  0  0  0  0  0  0  0  0  0
  -31.8276  -25.2312   22.4700 H   0  0  0  0  0  0  0  0  0  0  0  0
  -30.9427  -24.0082   21.5303 H   0  0  0  0  0  0  0  0  0  0  0  0
  -30.1135  -25.0881   19.5221 H   0  0  0  0  0  0  0  0  0  0  0  0
  -31.3800  -26.2880   19.8396 H   0  0  0  0  0  0  0  0  0  0  0  0
  -29.9840  -25.1894   24.0889 H   0  0  0  0  0  0  0  0  0  0  0  0
  -29.3537  -28.1695   19.1961 H   0  0  0  0  0  0  0  0  0  0  0  0
  -26.7246  -20.9490   20.5875 H   0  0  0  0  0  0  0  0  0  0  0  0
  1 25  1  0
  1 30  2  0
  1 84  1  0
  2  3  1  0
  2 25  1  0
  2 87  1  0
  2 88  1  0
  3  4  1  0
  3 89  1  0
  3 90  1  0
  4  5  1  0
  4 91  1  0
  4 92  1  0
  5  6  1  0
  5 26  1  0
  5 93  1  6
  6 25  1  0
  6 94  1  0
  6 95  1  0
  7  8  2  0
  7 26  1  0
  7 29  1  0
  8  9  1  0
  8 22  1  0
  9 10  1  0
  9 27  2  0
 10 11  2  0
 10 15  1  0
 11 12  1  0
 11 96  1  0
 12 13  2  0
 12 97  1  0
 13 14  1  0
 13 31  1  0
 14 15  2  0
 14 98  1  0
 15 99  1  0
 16 17  2  0
 16 21  1  0
 16 31  1  0
 17 18  1  0
 17100  1  0
 18 19  2  0
 18101  1  0
 19 20  1  0
 19 24  1  0
 20 21  2  0
 20102  1  0
 21 23  1  0
 22 28  1  0
 22 32  2  0
 26 27  1  0
 28103  1  0
 28104  1  0
 29105  1  0
 29106  1  0
 33 34  1  0
 33 66  1  0
 33 70  2  0
 34 36  1  0
 34 59  1  0
 34107  1  6
 35 44  2  0
 35 45  1  0
 35 68  1  0
 36 56  1  0
 36108  1  0
 37 39  1  0
 37 47  1  0
 37 66  1  0
 37109  1  6
 38 43  2  0
 38 46  1  0
 38 47  1  0
 39 64  1  0
 39 67  2  0
 40 52  1  0
 40 53  2  0
 40 58  1  0
 41110  1  0
 41111  1  0
 41112  1  0
 42 43  1  0
 42 66  1  0
 42113  1  0
 42114  1  0
 43 44  1  0
 44115  1  0
 45 46  2  0
 45116  1  0
 46117  1  0
 47118  1  0
 47119  1  0
 48 41  1  0
 48 56  1  0
 48 65  1  0
 48120  1  1
 49 50  1  0
 49 53  1  0
 49 64  1  0
 49121  1  1
 50 51  1  0
 50122  1  0
 50123  1  0
 51 52  1  0
 51124  1  0
 51125  1  0
 52126  1  0
 52127  1  0
 53 54  1  0
 54 55  2  0
 54128  1  0
 55 57  1  0
 55129  1  0
 56 69  2  0
 57 58  2  0
 57130  1  0
 58131  1  0
 59 60  1  0
 59 61  1  0
 59 62  1  0
 60132  1  0
 60133  1  0
 60134  1  0
 61135  1  0
 61136  1  0
 61137  1  0
 62138  1  0
 62139  1  0
 62140  1  0
 63 65  1  0
 63141  1  0
 63142  1  0
 63143  1  0
 64144  1  0
 65145  1  0
 68 83  1  0
 71 74  2  0
 71 75  1  0
 71146  1  0
 72 74  1  0
 72 76  2  0
 72147  1  0
 73 75  2  0
 73 76  1  0
 73148  1  0
 74 82  1  0
 75 84  1  0
 76 86  1  0
 77 80  1  0
 77 81  1  0
 77 85  2  0
 78149  1  0
 78150  1  0
 78151  1  0
 79152  1  0
 79153  1  0
 79154  1  0
 80 82  1  0
 80155  1  0
 80156  1  0
 81 83  1  0
 81157  1  0
 81158  1  0
 82 78  1  0
 82159  1  1
 83 79  1  0
 83160  1  1
 84161  1  0
M  ISO  4   1 100  68 101  83 101  84 100
M  END
$$$$
90
     RDKit          3D

159167  0  0  0  0  0  0  0  0999 V2000
  -30.7652  -14.3608   20.6636 C   0  0  0  0  0  0  0  0  0100  0  0
  -30.4392  -12.2669   19.3775 C   0  0  0  0  0  0  0  0  0101  0  0
  -29.4791  -12.5281   18.1977 C   0  0  0  0  0  0  0  0  0102  0  0
  -27.9985  -12.3963   18.6038 C   0  0  0  0  0  0  0  0  0103  0  0
  -27.6639  -13.2170   19.8820 C   0  0  2  0  0  0  0  0  0104  0  0
  -28.6795  -12.9602   21.0279 C   0  0  0  0  0  0  0  0  0105  0  0
  -25.2633  -13.8245   20.5754 C   0  0  0  0  0  0  0  0  0106  0  0
  -24.1645  -13.0409   20.9408 C   0  0  0  0  0  0  0  0  0107  0  0
  -24.6400  -11.7009   20.8697 C   0  0  0  0  0  0  0  0  0108  0  0
  -23.9005  -10.4085   21.0420 C   0  0  0  0  0  0  0  0  0109  0  0
  -24.3588   -9.4123   21.9123 C   0  0  0  0  0  0  0  0  0110  0  0
  -23.6296   -8.2350   22.0803 C   0  0  0  0  0  0  0  0  0111  0  0
  -22.4385   -8.0419   21.3657 C   0  0  0  0  0  0  0  0  0112  0  0
  -22.0103   -9.0167   20.4678 C   0  0  0  0  0  0  0  0  0113  0  0
  -22.7317  -10.1925   20.3102 C   0  0  0  0  0  0  0  0  0114  0  0
  -21.6857   -6.0709   22.5391 C   0  0  0  0  0  0  0  0  0115  0  0
  -21.4064   -6.5490   23.8264 C   0  0  0  0  0  0  0  0  0116  0  0
  -21.3635   -5.6677   24.9085 C   0  0  0  0  0  0  0  0  0117  0  0
  -21.5973   -4.3067   24.7088 C   0  0  0  0  0  0  0  0  0118  0  0
  -21.8700   -3.8284   23.4282 C   0  0  0  0  0  0  0  0  0119  0  0
  -21.9144   -4.7056   22.3460 C   0  0  0  0  0  0  0  0  0120  0  0
  -22.8194  -13.5263   21.1763 C   0  0  0  0  0  0  0  0  0121  0  0
  -22.1559   -4.2206   21.1063 F   0  0  0  0  0  0  0  0  0122  0  0
  -21.5628   -3.4510   25.7555 F   0  0  0  0  0  0  0  0  0123  0  0
  -30.0261  -13.1803   20.4553 N   0  0  0  0  0  0  0  0  0124  0  0
  -26.2911  -12.9356   20.3443 N   0  0  0  0  0  0  0  0  0125  0  0
  -25.9236  -11.6675   20.5847 N   0  0  0  0  0  0  0  0  0126  0  0
  -22.0708  -12.7905   22.0005 N   0  0  0  0  0  0  0  0  0127  0  0
  -25.4117  -15.1773   20.4097 N   0  0  0  0  0  0  0  0  0128  0  0
  -31.7916  -14.6724   20.0536 O   0  0  0  0  0  0  0  0  0129  0  0
  -21.6670   -6.9022   21.4423 O   0  0  0  0  0  0  0  0  0130  0  0
  -22.3946  -14.5564   20.6568 O   0  0  0  0  0  0  0  0  0131  0  0
  -24.6048  -31.8614   23.2223 C   0  0  0  0  0  0  0  0  0100  0  0
  -25.8822  -32.4841   23.8616 C   0  0  1  0  0  0  0  0  0101  0  0
  -27.2536  -27.5042   20.1156 C   0  0  0  0  0  0  0  0  0102  0  0
  -25.5726  -33.8762   24.2210 N   0  0  0  0  0  0  0  0  0103  0  0
  -23.4066  -30.4859   21.5461 C   0  0  2  0  0  0  0  0  0104  0  0
  -24.8467  -28.9636   20.1247 C   0  0  0  0  0  0  0  0  0105  0  0
  -22.7412  -29.4652   22.5052 C   0  0  0  0  0  0  0  0  0106  0  0
  -18.0167  -28.1302   22.8626 C   0  0  0  0  0  0  0  0  0107  0  0
  -24.1342  -36.7390   23.2568 C   0  0  0  0  0  0  0  0  0108  0  0
  -25.9141  -30.8882   21.3456 C   0  0  0  0  0  0  0  0  0109  0  0
  -25.9930  -29.5029   20.7208 C   0  0  0  0  0  0  0  0  0110  0  0
  -27.1758  -28.7612   20.7331 C   0  0  0  0  0  0  0  0  0111  0  0
  -26.1032  -26.9836   19.5230 C   0  0  0  0  0  0  0  0  0112  0  0
  -24.9097  -27.7011   19.5331 C   0  0  0  0  0  0  0  0  0113  0  0
  -23.5715  -29.7899   20.1582 C   0  0  0  0  0  0  0  0  0114  0  0
  -25.3990  -36.3212   24.0232 C   0  0  1  0  0  0  0  0  0115  0  0
  -20.5793  -28.3813   23.1004 C   0  0  2  0  0  0  0  0  0116  0  0
  -20.6548  -26.9392   22.5411 C   0  0  0  0  0  0  0  0  0117  0  0
  -19.5615  -26.6407   21.5143 C   0  0  0  0  0  0  0  0  0118  0  0
  -18.1797  -26.7818   22.1673 C   0  0  0  0  0  0  0  0  0119  0  0
  -19.1385  -28.8769   23.2988 C   0  0  0  0  0  0  0  0  0120  0  0
  -18.9183  -30.1286   23.8878 C   0  0  0  0  0  0  0  0  0121  0  0
  -17.6396  -30.6493   24.0352 C   0  0  0  0  0  0  0  0  0122  0  0
  -25.9153  -34.9582   23.4993 C   0  0  0  0  0  0  0  0  0123  0  0
  -16.5415  -29.9068   23.6254 C   0  0  0  0  0  0  0  0  0124  0  0
  -16.7331  -28.6521   23.0586 C   0  0  0  0  0  0  0  0  0125  0  0
  -26.4583  -31.6439   25.0683 C   0  0  0  0  0  0  0  0  0126  0  0
  -25.3807  -31.3179   26.1374 C   0  0  0  0  0  0  0  0  0127  0  0
  -27.0530  -30.3024   24.5680 C   0  0  0  0  0  0  0  0  0128  0  0
  -27.6014  -32.4281   25.7651 C   0  0  0  0  0  0  0  0  0129  0  0
  -27.5629  -37.2220   24.8621 C   0  0  0  0  0  0  0  0  0130  0  0
  -21.4133  -29.3375   22.3735 N   0  0  0  0  0  0  0  0  0131  0  0
  -26.4706  -37.3372   23.9061 N   0  0  0  0  0  0  0  0  0132  0  0
  -24.6674  -31.0544   22.1178 N   0  0  0  0  0  0  0  0  0133  0  0
  -23.4259  -28.8150   23.2971 O   0  0  0  0  0  0  0  0  0134  0  0
  -28.3948  -26.7345   20.0089 O   0  0  0  0  0  0  0  0  0135  0  0
  -26.5870  -34.9065   22.4671 O   0  0  0  0  0  0  0  0  0136  0  0
  -23.5365  -32.1254   23.7833 O   0  0  0  0  0  0  0  0  0137  0  0
  -29.8574  -17.4784   23.1409 C   0  0  0  0  0  0  0  0  0  0  0  0
  -31.8278  -18.3872   24.2032 C   0  0  0  0  0  0  0  0  0  0  0  0
  -32.0443  -16.6381   22.5507 C   0  0  0  0  0  0  0  0  0  0  0  0
  -30.4420  -18.3644   24.0458 C   0  0  0  0  0  0  0  0  0  0  0  0
  -30.6585  -16.6152   22.3934 C   0  0  0  0  0  0  0  0  0  0  0  0
  -32.6289  -17.5241   23.4556 C   0  0  0  0  0  0  0  0  0  0  0  0
  -29.5864  -19.2849   24.8466 C   0  0  0  0  0  0  0  0  0  0  0  0
  -25.1916  -18.3598   24.0132 C   0  0  0  0  0  0  0  0  0  0  0  0
  -25.5106  -19.0767   26.3905 C   0  0  0  0  0  0  0  0  0  0  0  0
  -28.1726  -18.8776   25.2332 C   0  0  0  0  0  0  0  0  0  0  0  0
  -27.1526  -19.8619   24.6518 C   0  0  0  0  0  0  0  0  0  0  0  0
  -25.6824  -19.4855   24.9242 C   0  0  0  0  0  0  0  0  0  1  0  0
  -30.0401  -20.4410   25.2171 N   0  0  0  0  0  0  0  0  0  0  0  0
  -30.0650  -15.7151   21.4739 N   0  0  0  0  0  0  0  0  0  0  0  0
  -33.9594  -17.5439   23.6088 F   0  0  0  0  0  0  0  0  0  0  0  0
  -31.4485  -12.4701   19.0860 H   0  0  0  0  0  0  0  0  0  0  0  0
  -30.3970  -11.2460   19.6950 H   0  0  0  0  0  0  0  0  0  0  0  0
  -29.6870  -11.8204   17.4226 H   0  0  0  0  0  0  0  0  0  0  0  0
  -29.6375  -13.5326   17.8649 H   0  0  0  0  0  0  0  0  0  0  0  0
  -27.7830  -11.3650   18.7904 H   0  0  0  0  0  0  0  0  0  0  0  0
  -27.4028  -12.7801   17.8021 H   0  0  0  0  0  0  0  0  0  0  0  0
  -27.7353  -14.2503   19.6136 H   0  0  0  0  0  0  0  0  0  0  0  0
  -28.5890  -11.9550   21.3832 H   0  0  0  0  0  0  0  0  0  0  0  0
  -28.5005  -13.6134   21.8562 H   0  0  0  0  0  0  0  0  0  0  0  0
  -25.2399   -9.5495   22.4318 H   0  0  0  0  0  0  0  0  0  0  0  0
  -23.9663   -7.5070   22.7297 H   0  0  0  0  0  0  0  0  0  0  0  0
  -21.1515   -8.8641   19.9162 H   0  0  0  0  0  0  0  0  0  0  0  0
  -22.4016  -10.9115   19.6476 H   0  0  0  0  0  0  0  0  0  0  0  0
  -21.2319   -7.5552   23.9750 H   0  0  0  0  0  0  0  0  0  0  0  0
  -21.1589   -6.0228   25.8556 H   0  0  0  0  0  0  0  0  0  0  0  0
  -22.0396   -2.8212   23.2809 H   0  0  0  0  0  0  0  0  0  0  0  0
  -22.4401  -11.9703   22.4008 H   0  0  0  0  0  0  0  0  0  0  0  0
  -21.1493  -13.0679   22.2082 H   0  0  0  0  0  0  0  0  0  0  0  0
  -24.6538  -15.7807   20.5848 H   0  0  0  0  0  0  0  0  0  0  0  0
  -26.2762  -15.5453   20.1156 H   0  0  0  0  0  0  0  0  0  0  0  0
  -26.6778  -32.4663   23.1464 H   0  0  0  0  0  0  0  0  0  0  0  0
  -25.0747  -34.0282   25.0566 H   0  0  0  0  0  0  0  0  0  0  0  0
  -22.7881  -31.3489   21.4131 H   0  0  0  0  0  0  0  0  0  0  0  0
  -23.3854  -35.9823   23.3648 H   0  0  0  0  0  0  0  0  0  0  0  0
  -24.3696  -36.8624   22.2204 H   0  0  0  0  0  0  0  0  0  0  0  0
  -23.7669  -37.6632   23.6516 H   0  0  0  0  0  0  0  0  0  0  0  0
  -25.9445  -31.6237   20.5691 H   0  0  0  0  0  0  0  0  0  0  0  0
  -26.7436  -31.0079   22.0108 H   0  0  0  0  0  0  0  0  0  0  0  0
  -28.0090  -29.1452   21.2057 H   0  0  0  0  0  0  0  0  0  0  0  0
  -26.1369  -26.0560   19.0719 H   0  0  0  0  0  0  0  0  0  0  0  0
  -24.0652  -27.2961   19.0997 H   0  0  0  0  0  0  0  0  0  0  0  0
  -23.6156  -30.5365   19.3930 H   0  0  0  0  0  0  0  0  0  0  0  0
  -22.7355  -29.1425   19.9945 H   0  0  0  0  0  0  0  0  0  0  0  0
  -25.1353  -36.2335   25.0565 H   0  0  0  0  0  0  0  0  0  0  0  0
  -21.0070  -28.3206   24.0793 H   0  0  0  0  0  0  0  0  0  0  0  0
  -20.5555  -26.2518   23.3550 H   0  0  0  0  0  0  0  0  0  0  0  0
  -21.5974  -26.8362   22.0454 H   0  0  0  0  0  0  0  0  0  0  0  0
  -19.6810  -25.6422   21.1488 H   0  0  0  0  0  0  0  0  0  0  0  0
  -19.6406  -27.3343   20.7034 H   0  0  0  0  0  0  0  0  0  0  0  0
  -17.4282  -26.6888   21.4113 H   0  0  0  0  0  0  0  0  0  0  0  0
  -18.0803  -26.0130   22.9049 H   0  0  0  0  0  0  0  0  0  0  0  0
  -19.7265  -30.6774   24.2204 H   0  0  0  0  0  0  0  0  0  0  0  0
  -17.5064  -31.5856   24.4483 H   0  0  0  0  0  0  0  0  0  0  0  0
  -15.5878  -30.2839   23.7407 H   0  0  0  0  0  0  0  0  0  0  0  0
  -15.9120  -28.0941   22.7766 H   0  0  0  0  0  0  0  0  0  0  0  0
  -24.5787  -30.7757   25.6817 H   0  0  0  0  0  0  0  0  0  0  0  0
  -25.0041  -32.2289   26.5536 H   0  0  0  0  0  0  0  0  0  0  0  0
  -25.8166  -30.7245   26.9138 H   0  0  0  0  0  0  0  0  0  0  0  0
  -26.2892  -29.7335   24.0803 H   0  0  0  0  0  0  0  0  0  0  0  0
  -27.4336  -29.7484   25.4006 H   0  0  0  0  0  0  0  0  0  0  0  0
  -27.8466  -30.4994   23.8779 H   0  0  0  0  0  0  0  0  0  0  0  0
  -27.2251  -33.3632   26.1242 H   0  0  0  0  0  0  0  0  0  0  0  0
  -28.3902  -32.6065   25.0645 H   0  0  0  0  0  0  0  0  0  0  0  0
  -27.9772  -31.8555   26.5872 H   0  0  0  0  0  0  0  0  0  0  0  0
  -28.2744  -38.0016   24.6863 H   0  0  0  0  0  0  0  0  0  0  0  0
  -28.0396  -36.2711   24.7461 H   0  0  0  0  0  0  0  0  0  0  0  0
  -27.1773  -37.3087   25.8564 H   0  0  0  0  0  0  0  0  0  0  0  0
  -20.9627  -29.9365   21.7352 H   0  0  0  0  0  0  0  0  0  0  0  0
  -26.0447  -38.2561   24.0273 H   0  0  0  0  0  0  0  0  0  0  0  0
  -28.8321  -17.4615   23.0244 H   0  0  0  0  0  0  0  0  0  0  0  0
  -32.2604  -19.0426   24.8728 H   0  0  0  0  0  0  0  0  0  0  0  0
  -32.6370  -15.9995   21.9976 H   0  0  0  0  0  0  0  0  0  0  0  0
  -24.8815  -17.5276   24.6100 H   0  0  0  0  0  0  0  0  0  0  0  0
  -25.9848  -18.0562   23.3624 H   0  0  0  0  0  0  0  0  0  0  0  0
  -24.3650  -18.7079   23.4297 H   0  0  0  0  0  0  0  0  0  0  0  0
  -25.1448  -18.0724   26.4403 H   0  0  0  0  0  0  0  0  0  0  0  0
  -24.8125  -19.7345   26.8647 H   0  0  0  0  0  0  0  0  0  0  0  0
  -26.4545  -19.1377   26.8907 H   0  0  0  0  0  0  0  0  0  0  0  0
  -28.0873  -18.8711   26.2998 H   0  0  0  0  0  0  0  0  0  0  0  0
  -27.9742  -17.9019   24.8413 H   0  0  0  0  0  0  0  0  0  0  0  0
  -27.2964  -19.9070   23.5925 H   0  0  0  0  0  0  0  0  0  0  0  0
  -27.3233  -20.8014   25.1346 H   0  0  0  0  0  0  0  0  0  0  0  0
  -30.9538  -20.7130   24.9714 H   0  0  0  0  0  0  0  0  0  0  0  0
  -29.1178  -15.8865   21.2675 H   0  0  0  0  0  0  0  0  0  0  0  0
  1 25  1  0
  1 30  2  0
  1 84  1  0
  2  3  1  0
  2 25  1  0
  2 86  1  0
  2 87  1  0
  3  4  1  0
  3 88  1  0
  3 89  1  0
  4  5  1  0
  4 90  1  0
  4 91  1  0
  5  6  1  0
  5 26  1  0
  5 92  1  6
  6 25  1  0
  6 93  1  0
  6 94  1  0
  7  8  2  0
  7 26  1  0
  7 29  1  0
  8  9  1  0
  8 22  1  0
  9 10  1  0
  9 27  2  0
 10 11  2  0
 10 15  1  0
 11 12  1  0
 11 95  1  0
 12 13  2  0
 12 96  1  0
 13 14  1  0
 13 31  1  0
 14 15  2  0
 14 97  1  0
 15 98  1  0
 16 17  2  0
 16 21  1  0
 16 31  1  0
 17 18  1  0
 17 99  1  0
 18 19  2  0
 18100  1  0
 19 20  1  0
 19 24  1  0
 20 21  2  0
 20101  1  0
 21 23  1  0
 22 28  1  0
 22 32  2  0
 26 27  1  0
 28102  1  0
 28103  1  0
 29104  1  0
 29105  1  0
 33 34  1  0
 33 66  1  0
 33 70  2  0
 34 36  1  0
 34 59  1  0
 34106  1  6
 35 44  2  0
 35 45  1  0
 35 68  1  0
 36 56  1  0
 36107  1  0
 37 39  1  0
 37 47  1  0
 37 66  1  0
 37108  1  6
 38 43  2  0
 38 46  1  0
 38 47  1  0
 39 64  1  0
 39 67  2  0
 40 52  1  0
 40 53  2  0
 40 58  1  0
 41109  1  0
 41110  1  0
 41111  1  0
 42 43  1  0
 42 66  1  0
 42112  1  0
 42113  1  0
 43 44  1  0
 44114  1  0
 45 46  2  0
 45115  1  0
 46116  1  0
 47117  1  0
 47118  1  0
 48 41  1  0
 48 56  1  0
 48 65  1  0
 48119  1  1
 49 50  1  0
 49 53  1  0
 49 64  1  0
 49120  1  1
 50 51  1  0
 50121  1  0
 50122  1  0
 51 52  1  0
 51123  1  0
 51124  1  0
 52125  1  0
 52126  1  0
 53 54  1  0
 54 55  2  0
 54127  1  0
 55 57  1  0
 55128  1  0
 56 69  2  0
 57 58  2  0
 57129  1  0
 58130  1  0
 59 60  1  0
 59 61  1  0
 59 62  1  0
 60131  1  0
 60132  1  0
 60133  1  0
 61134  1  0
 61135  1  0
 61136  1  0
 62137  1  0
 62138  1  0
 62139  1  0
 63 65  1  0
 63140  1  0
 63141  1  0
 63142  1  0
 64143  1  0
 65144  1  0
 68 82  1  0
 71 74  2  0
 71 75  1  0
 71145  1  0
 72 74  1  0
 72 76  2  0
 72146  1  0
 73 75  2  0
 73 76  1  0
 73147  1  0
 74 77  1  0
 75 84  1  0
 76 85  1  0
 77 80  1  0
 77 83  2  0
 78148  1  0
 78149  1  0
 78150  1  0
 79 82  1  0
 79151  1  0
 79152  1  0
 79153  1  0
 80 81  1  0
 80154  1  0
 80155  1  0
 81 82  1  0
 81156  1  0
 81157  1  0
 82 78  1  0
 83158  1  0
 84159  1  0
M  ISO  4   1 100  68 101  82 101  84 100
M  END
$$$$
91
     RDKit          3D

156164  0  0  0  0  0  0  0  0999 V2000
  -30.7652  -14.3608   20.6636 C   0  0  0  0  0  0  0  0  0100  0  0
  -30.4392  -12.2669   19.3775 C   0  0  0  0  0  0  0  0  0101  0  0
  -29.4791  -12.5281   18.1977 C   0  0  0  0  0  0  0  0  0102  0  0
  -27.9985  -12.3963   18.6038 C   0  0  0  0  0  0  0  0  0103  0  0
  -27.6639  -13.2170   19.8820 C   0  0  2  0  0  0  0  0  0104  0  0
  -28.6795  -12.9602   21.0279 C   0  0  0  0  0  0  0  0  0105  0  0
  -25.2633  -13.8245   20.5754 C   0  0  0  0  0  0  0  0  0106  0  0
  -24.1645  -13.0409   20.9408 C   0  0  0  0  0  0  0  0  0107  0  0
  -24.6400  -11.7009   20.8697 C   0  0  0  0  0  0  0  0  0108  0  0
  -23.9005  -10.4085   21.0420 C   0  0  0  0  0  0  0  0  0109  0  0
  -24.3588   -9.4123   21.9123 C   0  0  0  0  0  0  0  0  0110  0  0
  -23.6296   -8.2350   22.0803 C   0  0  0  0  0  0  0  0  0111  0  0
  -22.4385   -8.0419   21.3657 C   0  0  0  0  0  0  0  0  0112  0  0
  -22.0103   -9.0167   20.4678 C   0  0  0  0  0  0  0  0  0113  0  0
  -22.7317  -10.1925   20.3102 C   0  0  0  0  0  0  0  0  0114  0  0
  -21.6857   -6.0709   22.5391 C   0  0  0  0  0  0  0  0  0115  0  0
  -21.4064   -6.5490   23.8264 C   0  0  0  0  0  0  0  0  0116  0  0
  -21.3635   -5.6677   24.9085 C   0  0  0  0  0  0  0  0  0117  0  0
  -21.5973   -4.3067   24.7088 C   0  0  0  0  0  0  0  0  0118  0  0
  -21.8700   -3.8284   23.4282 C   0  0  0  0  0  0  0  0  0119  0  0
  -21.9144   -4.7056   22.3460 C   0  0  0  0  0  0  0  0  0120  0  0
  -22.8194  -13.5263   21.1763 C   0  0  0  0  0  0  0  0  0121  0  0
  -22.1559   -4.2206   21.1063 F   0  0  0  0  0  0  0  0  0122  0  0
  -21.5628   -3.4510   25.7555 F   0  0  0  0  0  0  0  0  0123  0  0
  -30.0261  -13.1803   20.4553 N   0  0  0  0  0  0  0  0  0124  0  0
  -26.2911  -12.9356   20.3443 N   0  0  0  0  0  0  0  0  0125  0  0
  -25.9236  -11.6675   20.5847 N   0  0  0  0  0  0  0  0  0126  0  0
  -22.0708  -12.7905   22.0005 N   0  0  0  0  0  0  0  0  0127  0  0
  -25.4117  -15.1773   20.4097 N   0  0  0  0  0  0  0  0  0128  0  0
  -31.7916  -14.6724   20.0536 O   0  0  0  0  0  0  0  0  0129  0  0
  -21.6670   -6.9022   21.4423 O   0  0  0  0  0  0  0  0  0130  0  0
  -22.3946  -14.5564   20.6568 O   0  0  0  0  0  0  0  0  0131  0  0
  -24.6048  -31.8614   23.2223 C   0  0  0  0  0  0  0  0  0100  0  0
  -25.8822  -32.4841   23.8616 C   0  0  1  0  0  0  0  0  0101  0  0
  -27.2536  -27.5042   20.1156 C   0  0  0  0  0  0  0  0  0102  0  0
  -25.5726  -33.8762   24.2210 N   0  0  0  0  0  0  0  0  0103  0  0
  -23.4066  -30.4859   21.5461 C   0  0  2  0  0  0  0  0  0104  0  0
  -24.8467  -28.9636   20.1247 C   0  0  0  0  0  0  0  0  0105  0  0
  -22.7412  -29.4652   22.5052 C   0  0  0  0  0  0  0  0  0106  0  0
  -18.0167  -28.1302   22.8626 C   0  0  0  0  0  0  0  0  0107  0  0
  -24.1342  -36.7390   23.2568 C   0  0  0  0  0  0  0  0  0108  0  0
  -25.9141  -30.8882   21.3456 C   0  0  0  0  0  0  0  0  0109  0  0
  -25.9930  -29.5029   20.7208 C   0  0  0  0  0  0  0  0  0110  0  0
  -27.1758  -28.7612   20.7331 C   0  0  0  0  0  0  0  0  0111  0  0
  -26.1032  -26.9836   19.5230 C   0  0  0  0  0  0  0  0  0112  0  0
  -24.9097  -27.7011   19.5331 C   0  0  0  0  0  0  0  0  0113  0  0
  -23.5715  -29.7899   20.1582 C   0  0  0  0  0  0  0  0  0114  0  0
  -25.3990  -36.3212   24.0232 C   0  0  1  0  0  0  0  0  0115  0  0
  -20.5793  -28.3813   23.1004 C   0  0  2  0  0  0  0  0  0116  0  0
  -20.6548  -26.9392   22.5411 C   0  0  0  0  0  0  0  0  0117  0  0
  -19.5615  -26.6407   21.5143 C   0  0  0  0  0  0  0  0  0118  0  0
  -18.1797  -26.7818   22.1673 C   0  0  0  0  0  0  0  0  0119  0  0
  -19.1385  -28.8769   23.2988 C   0  0  0  0  0  0  0  0  0120  0  0
  -18.9183  -30.1286   23.8878 C   0  0  0  0  0  0  0  0  0121  0  0
  -17.6396  -30.6493   24.0352 C   0  0  0  0  0  0  0  0  0122  0  0
  -25.9153  -34.9582   23.4993 C   0  0  0  0  0  0  0  0  0123  0  0
  -16.5415  -29.9068   23.6254 C   0  0  0  0  0  0  0  0  0124  0  0
  -16.7331  -28.6521   23.0586 C   0  0  0  0  0  0  0  0  0125  0  0
  -26.4583  -31.6439   25.0683 C   0  0  0  0  0  0  0  0  0126  0  0
  -25.3807  -31.3179   26.1374 C   0  0  0  0  0  0  0  0  0127  0  0
  -27.0530  -30.3024   24.5680 C   0  0  0  0  0  0  0  0  0128  0  0
  -27.6014  -32.4281   25.7651 C   0  0  0  0  0  0  0  0  0129  0  0
  -27.5629  -37.2220   24.8621 C   0  0  0  0  0  0  0  0  0130  0  0
  -21.4133  -29.3375   22.3735 N   0  0  0  0  0  0  0  0  0131  0  0
  -26.4706  -37.3372   23.9061 N   0  0  0  0  0  0  0  0  0132  0  0
  -24.6674  -31.0544   22.1178 N   0  0  0  0  0  0  0  0  0133  0  0
  -23.4259  -28.8150   23.2971 O   0  0  0  0  0  0  0  0  0134  0  0
  -28.3948  -26.7345   20.0089 O   0  0  0  0  0  0  0  0  0135  0  0
  -26.5870  -34.9065   22.4671 O   0  0  0  0  0  0  0  0  0136  0  0
  -23.5365  -32.1254   23.7833 O   0  0  0  0  0  0  0  0  0137  0  0
  -25.7132  -24.7307   22.8365 C   0  0  0  0  0  0  0  0  0  0  0  0
  -26.3444  -23.7718   21.9926 C   0  0  0  0  0  0  0  0  0  0  0  0
  -24.7869  -24.1514   23.6756 C   0  0  0  0  0  0  0  0  0  0  0  0
  -25.8767  -22.4959   22.2191 C   0  0  0  0  0  0  0  0  0  0  0  0
  -20.2679  -27.2785   23.4043 C   0  0  0  0  0  0  0  0  0  0  0  0
  -20.0603  -24.9349   22.5502 C   0  0  0  0  0  0  0  0  0  0  0  0
  -23.9121  -24.8150   24.7091 C   0  0  0  0  0  0  0  0  0  0  0  0
  -22.4648  -25.0329   24.2488 C   0  0  0  0  0  0  0  0  0  0  0  0
  -22.3625  -25.9388   23.0117 C   0  0  0  0  0  0  0  0  0  0  0  0
  -20.9190  -26.2003   22.5318 C   0  0  0  0  0  0  0  0  0  1  0  0
  -26.2223  -21.2613   21.6156 N   0  0  0  0  0  0  0  0  0  0  0  0
  -24.6813  -22.4580   23.4445 S   0  0  0  0  0  0  0  0  0  0  0  0
  -31.4485  -12.4701   19.0860 H   0  0  0  0  0  0  0  0  0  0  0  0
  -30.3970  -11.2460   19.6950 H   0  0  0  0  0  0  0  0  0  0  0  0
  -29.6870  -11.8204   17.4226 H   0  0  0  0  0  0  0  0  0  0  0  0
  -29.6375  -13.5326   17.8649 H   0  0  0  0  0  0  0  0  0  0  0  0
  -27.7830  -11.3650   18.7904 H   0  0  0  0  0  0  0  0  0  0  0  0
  -27.4028  -12.7801   17.8021 H   0  0  0  0  0  0  0  0  0  0  0  0
  -27.7353  -14.2503   19.6136 H   0  0  0  0  0  0  0  0  0  0  0  0
  -28.5890  -11.9550   21.3832 H   0  0  0  0  0  0  0  0  0  0  0  0
  -28.5005  -13.6134   21.8562 H   0  0  0  0  0  0  0  0  0  0  0  0
  -25.2399   -9.5495   22.4318 H   0  0  0  0  0  0  0  0  0  0  0  0
  -23.9663   -7.5070   22.7297 H   0  0  0  0  0  0  0  0  0  0  0  0
  -21.1515   -8.8641   19.9162 H   0  0  0  0  0  0  0  0  0  0  0  0
  -22.4016  -10.9115   19.6476 H   0  0  0  0  0  0  0  0  0  0  0  0
  -21.2319   -7.5552   23.9750 H   0  0  0  0  0  0  0  0  0  0  0  0
  -21.1589   -6.0228   25.8556 H   0  0  0  0  0  0  0  0  0  0  0  0
  -22.0396   -2.8212   23.2809 H   0  0  0  0  0  0  0  0  0  0  0  0
  -22.4401  -11.9703   22.4008 H   0  0  0  0  0  0  0  0  0  0  0  0
  -21.1493  -13.0679   22.2082 H   0  0  0  0  0  0  0  0  0  0  0  0
  -24.6538  -15.7807   20.5848 H   0  0  0  0  0  0  0  0  0  0  0  0
  -26.2762  -15.5453   20.1156 H   0  0  0  0  0  0  0  0  0  0  0  0
  -26.6778  -32.4663   23.1464 H   0  0  0  0  0  0  0  0  0  0  0  0
  -25.0747  -34.0282   25.0566 H   0  0  0  0  0  0  0  0  0  0  0  0
  -22.7881  -31.3489   21.4131 H   0  0  0  0  0  0  0  0  0  0  0  0
  -23.3854  -35.9823   23.3648 H   0  0  0  0  0  0  0  0  0  0  0  0
  -24.3696  -36.8624   22.2204 H   0  0  0  0  0  0  0  0  0  0  0  0
  -23.7669  -37.6632   23.6516 H   0  0  0  0  0  0  0  0  0  0  0  0
  -25.9445  -31.6237   20.5691 H   0  0  0  0  0  0  0  0  0  0  0  0
  -26.7436  -31.0079   22.0108 H   0  0  0  0  0  0  0  0  0  0  0  0
  -28.0090  -29.1452   21.2057 H   0  0  0  0  0  0  0  0  0  0  0  0
  -26.1369  -26.0560   19.0719 H   0  0  0  0  0  0  0  0  0  0  0  0
  -24.0652  -27.2961   19.0997 H   0  0  0  0  0  0  0  0  0  0  0  0
  -23.6156  -30.5365   19.3930 H   0  0  0  0  0  0  0  0  0  0  0  0
  -22.7355  -29.1425   19.9945 H   0  0  0  0  0  0  0  0  0  0  0  0
  -25.1353  -36.2335   25.0565 H   0  0  0  0  0  0  0  0  0  0  0  0
  -21.0070  -28.3206   24.0793 H   0  0  0  0  0  0  0  0  0  0  0  0
  -20.5555  -26.2518   23.3550 H   0  0  0  0  0  0  0  0  0  0  0  0
  -21.5974  -26.8362   22.0454 H   0  0  0  0  0  0  0  0  0  0  0  0
  -19.6810  -25.6422   21.1488 H   0  0  0  0  0  0  0  0  0  0  0  0
  -19.6406  -27.3343   20.7034 H   0  0  0  0  0  0  0  0  0  0  0  0
  -17.4282  -26.6888   21.4113 H   0  0  0  0  0  0  0  0  0  0  0  0
  -18.0803  -26.0130   22.9049 H   0  0  0  0  0  0  0  0  0  0  0  0
  -19.7265  -30.6774   24.2204 H   0  0  0  0  0  0  0  0  0  0  0  0
  -17.5064  -31.5856   24.4483 H   0  0  0  0  0  0  0  0  0  0  0  0
  -15.5878  -30.2839   23.7407 H   0  0  0  0  0  0  0  0  0  0  0  0
  -15.9120  -28.0941   22.7766 H   0  0  0  0  0  0  0  0  0  0  0  0
  -24.5787  -30.7757   25.6817 H   0  0  0  0  0  0  0  0  0  0  0  0
  -25.0041  -32.2289   26.5536 H   0  0  0  0  0  0  0  0  0  0  0  0
  -25.8166  -30.7245   26.9138 H   0  0  0  0  0  0  0  0  0  0  0  0
  -26.2892  -29.7335   24.0803 H   0  0  0  0  0  0  0  0  0  0  0  0
  -27.4336  -29.7484   25.4006 H   0  0  0  0  0  0  0  0  0  0  0  0
  -27.8466  -30.4994   23.8779 H   0  0  0  0  0  0  0  0  0  0  0  0
  -27.2251  -33.3632   26.1242 H   0  0  0  0  0  0  0  0  0  0  0  0
  -28.3902  -32.6065   25.0645 H   0  0  0  0  0  0  0  0  0  0  0  0
  -27.9772  -31.8555   26.5872 H   0  0  0  0  0  0  0  0  0  0  0  0
  -28.2744  -38.0016   24.6863 H   0  0  0  0  0  0  0  0  0  0  0  0
  -28.0396  -36.2711   24.7461 H   0  0  0  0  0  0  0  0  0  0  0  0
  -27.1773  -37.3087   25.8564 H   0  0  0  0  0  0  0  0  0  0  0  0
  -20.9627  -29.9365   21.7352 H   0  0  0  0  0  0  0  0  0  0  0  0
  -26.0447  -38.2561   24.0273 H   0  0  0  0  0  0  0  0  0  0  0  0
  -25.9251  -25.7406   22.8210 H   0  0  0  0  0  0  0  0  0  0  0  0
  -27.0670  -24.0055   21.2938 H   0  0  0  0  0  0  0  0  0  0  0  0
  -19.2589  -26.9982   23.6240 H   0  0  0  0  0  0  0  0  0  0  0  0
  -20.2730  -28.2118   22.8811 H   0  0  0  0  0  0  0  0  0  0  0  0
  -20.8172  -27.3784   24.3171 H   0  0  0  0  0  0  0  0  0  0  0  0
  -19.0928  -25.1661   22.9444 H   0  0  0  0  0  0  0  0  0  0  0  0
  -20.5285  -24.1950   23.1652 H   0  0  0  0  0  0  0  0  0  0  0  0
  -19.9588  -24.5582   21.5538 H   0  0  0  0  0  0  0  0  0  0  0  0
  -24.3367  -25.7674   24.9489 H   0  0  0  0  0  0  0  0  0  0  0  0
  -23.8748  -24.1585   25.5532 H   0  0  0  0  0  0  0  0  0  0  0  0
  -21.9160  -25.4839   25.0490 H   0  0  0  0  0  0  0  0  0  0  0  0
  -22.0647  -24.0771   23.9818 H   0  0  0  0  0  0  0  0  0  0  0  0
  -22.9025  -25.4760   22.2122 H   0  0  0  0  0  0  0  0  0  0  0  0
  -22.7678  -26.8881   23.2935 H   0  0  0  0  0  0  0  0  0  0  0  0
  -25.5396  -21.1675   20.9125 H   0  0  0  0  0  0  0  0  0  0  0  0
  1 25  1  0
  1 30  2  0
  1 81  1  0
  2  3  1  0
  2 25  1  0
  2 83  1  0
  2 84  1  0
  3  4  1  0
  3 85  1  0
  3 86  1  0
  4  5  1  0
  4 87  1  0
  4 88  1  0
  5  6  1  0
  5 26  1  0
  5 89  1  6
  6 25  1  0
  6 90  1  0
  6 91  1  0
  7  8  2  0
  7 26  1  0
  7 29  1  0
  8  9  1  0
  8 22  1  0
  9 10  1  0
  9 27  2  0
 10 11  2  0
 10 15  1  0
 11 12  1  0
 11 92  1  0
 12 13  2  0
 12 93  1  0
 13 14  1  0
 13 31  1  0
 14 15  2  0
 14 94  1  0
 15 95  1  0
 16 17  2  0
 16 21  1  0
 16 31  1  0
 17 18  1  0
 17 96  1  0
 18 19  2  0
 18 97  1  0
 19 20  1  0
 19 24  1  0
 20 21  2  0
 20 98  1  0
 21 23  1  0
 22 28  1  0
 22 32  2  0
 26 27  1  0
 28 99  1  0
 28100  1  0
 29101  1  0
 29102  1  0
 33 34  1  0
 33 66  1  0
 33 70  2  0
 34 36  1  0
 34 59  1  0
 34103  1  6
 35 44  2  0
 35 45  1  0
 35 68  1  0
 36 56  1  0
 36104  1  0
 37 39  1  0
 37 47  1  0
 37 66  1  0
 37105  1  6
 38 43  2  0
 38 46  1  0
 38 47  1  0
 39 64  1  0
 39 67  2  0
 40 52  1  0
 40 53  2  0
 40 58  1  0
 41106  1  0
 41107  1  0
 41108  1  0
 42 43  1  0
 42 66  1  0
 42109  1  0
 42110  1  0
 43 44  1  0
 44111  1  0
 45 46  2  0
 45112  1  0
 46113  1  0
 47114  1  0
 47115  1  0
 48 41  1  0
 48 56  1  0
 48 65  1  0
 48116  1  1
 49 50  1  0
 49 53  1  0
 49 64  1  0
 49117  1  1
 50 51  1  0
 50118  1  0
 50119  1  0
 51 52  1  0
 51120  1  0
 51121  1  0
 52122  1  0
 52123  1  0
 53 54  1  0
 54 55  2  0
 54124  1  0
 55 57  1  0
 55125  1  0
 56 69  2  0
 57 58  2  0
 57126  1  0
 58127  1  0
 59 60  1  0
 59 61  1  0
 59 62  1  0
 60128  1  0
 60129  1  0
 60130  1  0
 61131  1  0
 61132  1  0
 61133  1  0
 62134  1  0
 62135  1  0
 62136  1  0
 63 65  1  0
 63137  1  0
 63138  1  0
 63139  1  0
 64140  1  0
 65141  1  0
 68 80  1  0
 71 72  1  0
 71 73  2  0
 71142  1  0
 72 74  2  0
 72143  1  0
 73 77  1  0
 73 82  1  0
 74 81  1  0
 74 82  1  0
 75144  1  0
 75145  1  0
 75146  1  0
 76 80  1  0
 76147  1  0
 76148  1  0
 76149  1  0
 77 78  1  0
 77150  1  0
 77151  1  0
 78 79  1  0
 78152  1  0
 78153  1  0
 79 80  1  0
 79154  1  0
 79155  1  0
 80 75  1  0
 81156  1  0
M  ISO  4   1 100  68 101  80 101  81 100
M  END
$$$$
92
     RDKit          3D

165173  0  0  0  0  0  0  0  0999 V2000
  -30.7652  -14.3608   20.6636 C   0  0  0  0  0  0  0  0  0100  0  0
  -30.4392  -12.2669   19.3775 C   0  0  0  0  0  0  0  0  0101  0  0
  -29.4791  -12.5281   18.1977 C   0  0  0  0  0  0  0  0  0102  0  0
  -27.9985  -12.3963   18.6038 C   0  0  0  0  0  0  0  0  0103  0  0
  -27.6639  -13.2170   19.8820 C   0  0  2  0  0  0  0  0  0104  0  0
  -28.6795  -12.9602   21.0279 C   0  0  0  0  0  0  0  0  0105  0  0
  -25.2633  -13.8245   20.5754 C   0  0  0  0  0  0  0  0  0106  0  0
  -24.1645  -13.0409   20.9408 C   0  0  0  0  0  0  0  0  0107  0  0
  -24.6400  -11.7009   20.8697 C   0  0  0  0  0  0  0  0  0108  0  0
  -23.9005  -10.4085   21.0420 C   0  0  0  0  0  0  0  0  0109  0  0
  -24.3588   -9.4123   21.9123 C   0  0  0  0  0  0  0  0  0110  0  0
  -23.6296   -8.2350   22.0803 C   0  0  0  0  0  0  0  0  0111  0  0
  -22.4385   -8.0419   21.3657 C   0  0  0  0  0  0  0  0  0112  0  0
  -22.0103   -9.0167   20.4678 C   0  0  0  0  0  0  0  0  0113  0  0
  -22.7317  -10.1925   20.3102 C   0  0  0  0  0  0  0  0  0114  0  0
  -21.6857   -6.0709   22.5391 C   0  0  0  0  0  0  0  0  0115  0  0
  -21.4064   -6.5490   23.8264 C   0  0  0  0  0  0  0  0  0116  0  0
  -21.3635   -5.6677   24.9085 C   0  0  0  0  0  0  0  0  0117  0  0
  -21.5973   -4.3067   24.7088 C   0  0  0  0  0  0  0  0  0118  0  0
  -21.8700   -3.8284   23.4282 C   0  0  0  0  0  0  0  0  0119  0  0
  -21.9144   -4.7056   22.3460 C   0  0  0  0  0  0  0  0  0120  0  0
  -22.8194  -13.5263   21.1763 C   0  0  0  0  0  0  0  0  0121  0  0
  -22.1559   -4.2206   21.1063 F   0  0  0  0  0  0  0  0  0122  0  0
  -21.5628   -3.4510   25.7555 F   0  0  0  0  0  0  0  0  0123  0  0
  -30.0261  -13.1803   20.4553 N   0  0  0  0  0  0  0  0  0124  0  0
  -26.2911  -12.9356   20.3443 N   0  0  0  0  0  0  0  0  0125  0  0
  -25.9236  -11.6675   20.5847 N   0  0  0  0  0  0  0  0  0126  0  0
  -22.0708  -12.7905   22.0005 N   0  0  0  0  0  0  0  0  0127  0  0
  -25.4117  -15.1773   20.4097 N   0  0  0  0  0  0  0  0  0128  0  0
  -31.7916  -14.6724   20.0536 O   0  0  0  0  0  0  0  0  0129  0  0
  -21.6670   -6.9022   21.4423 O   0  0  0  0  0  0  0  0  0130  0  0
  -22.3946  -14.5564   20.6568 O   0  0  0  0  0  0  0  0  0131  0  0
  -24.6048  -31.8614   23.2223 C   0  0  0  0  0  0  0  0  0100  0  0
  -25.8822  -32.4841   23.8616 C   0  0  1  0  0  0  0  0  0101  0  0
  -27.2536  -27.5042   20.1156 C   0  0  0  0  0  0  0  0  0102  0  0
  -25.5726  -33.8762   24.2210 N   0  0  0  0  0  0  0  0  0103  0  0
  -23.4066  -30.4859   21.5461 C   0  0  2  0  0  0  0  0  0104  0  0
  -24.8467  -28.9636   20.1247 C   0  0  0  0  0  0  0  0  0105  0  0
  -22.7412  -29.4652   22.5052 C   0  0  0  0  0  0  0  0  0106  0  0
  -18.0167  -28.1302   22.8626 C   0  0  0  0  0  0  0  0  0107  0  0
  -24.1342  -36.7390   23.2568 C   0  0  0  0  0  0  0  0  0108  0  0
  -25.9141  -30.8882   21.3456 C   0  0  0  0  0  0  0  0  0109  0  0
  -25.9930  -29.5029   20.7208 C   0  0  0  0  0  0  0  0  0110  0  0
  -27.1758  -28.7612   20.7331 C   0  0  0  0  0  0  0  0  0111  0  0
  -26.1032  -26.9836   19.5230 C   0  0  0  0  0  0  0  0  0112  0  0
  -24.9097  -27.7011   19.5331 C   0  0  0  0  0  0  0  0  0113  0  0
  -23.5715  -29.7899   20.1582 C   0  0  0  0  0  0  0  0  0114  0  0
  -25.3990  -36.3212   24.0232 C   0  0  1  0  0  0  0  0  0115  0  0
  -20.5793  -28.3813   23.1004 C   0  0  2  0  0  0  0  0  0116  0  0
  -20.6548  -26.9392   22.5411 C   0  0  0  0  0  0  0  0  0117  0  0
  -19.5615  -26.6407   21.5143 C   0  0  0  0  0  0  0  0  0118  0  0
  -18.1797  -26.7818   22.1673 C   0  0  0  0  0  0  0  0  0119  0  0
  -19.1385  -28.8769   23.2988 C   0  0  0  0  0  0  0  0  0120  0  0
  -18.9183  -30.1286   23.8878 C   0  0  0  0  0  0  0  0  0121  0  0
  -17.6396  -30.6493   24.0352 C   0  0  0  0  0  0  0  0  0122  0  0
  -25.9153  -34.9582   23.4993 C   0  0  0  0  0  0  0  0  0123  0  0
  -16.5415  -29.9068   23.6254 C   0  0  0  0  0  0  0  0  0124  0  0
  -16.7331  -28.6521   23.0586 C   0  0  0  0  0  0  0  0  0125  0  0
  -26.4583  -31.6439   25.0683 C   0  0  0  0  0  0  0  0  0126  0  0
  -25.3807  -31.3179   26.1374 C   0  0  0  0  0  0  0  0  0127  0  0
  -27.0530  -30.3024   24.5680 C   0  0  0  0  0  0  0  0  0128  0  0
  -27.6014  -32.4281   25.7651 C   0  0  0  0  0  0  0  0  0129  0  0
  -27.5629  -37.2220   24.8621 C   0  0  0  0  0  0  0  0  0130  0  0
  -21.4133  -29.3375   22.3735 N   0  0  0  0  0  0  0  0  0131  0  0
  -26.4706  -37.3372   23.9061 N   0  0  0  0  0  0  0  0  0132  0  0
  -24.6674  -31.0544   22.1178 N   0  0  0  0  0  0  0  0  0133  0  0
  -23.4259  -28.8150   23.2971 O   0  0  0  0  0  0  0  0  0134  0  0
  -28.3948  -26.7345   20.0089 O   0  0  0  0  0  0  0  0  0135  0  0
  -26.5870  -34.9065   22.4671 O   0  0  0  0  0  0  0  0  0136  0  0
  -23.5365  -32.1254   23.7833 O   0  0  0  0  0  0  0  0  0137  0  0
  -33.9238  -16.3917   17.6505 C   0  0  0  0  0  0  0  0  0  0  0  0
  -35.2403  -16.7767   17.3974 C   0  0  0  0  0  0  0  0  0  0  0  0
  -34.5574  -17.7206   15.2808 C   0  0  0  0  0  0  0  0  0  0  0  0
  -32.9240  -16.6710   16.7187 C   0  0  0  0  0  0  0  0  0  0  0  0
  -35.5571  -17.4412   16.2126 C   0  0  0  0  0  0  0  0  0  0  0  0
  -33.2408  -17.3355   15.5339 C   0  0  0  0  0  0  0  0  0  0  0  0
  -38.8160  -18.9330   17.4082 C   0  0  0  0  0  0  0  0  0  0  0  0
  -31.5587  -16.2556   17.0122 C   0  0  0  0  0  0  0  0  0  0  0  0
  -31.1611  -14.9880   17.2441 C   0  0  0  0  0  0  0  0  0  0  0  0
  -37.5264  -18.8449   17.0311 C   0  0  0  0  0  0  0  0  0  0  0  0
  -31.8067  -16.4284   13.6882 C   0  0  0  0  0  0  0  0  0  0  0  0
  -37.2038  -18.5656   14.5586 C   0  0  0  0  0  0  0  0  0  0  0  0
  -37.8465  -16.5581   15.8333 C   0  0  0  0  0  0  0  0  0  0  0  0
  -32.1955  -17.6511   14.5127 C   0  0  0  0  0  0  0  0  0  0  0  0
  -36.5325  -19.7805   17.6948 C   0  0  0  0  0  0  0  0  0  1  0  0
  -37.0143  -17.8692   15.9327 C   0  0  0  0  0  0  0  0  0  0  0  0
  -31.4485  -12.4701   19.0860 H   0  0  0  0  0  0  0  0  0  0  0  0
  -30.3970  -11.2460   19.6950 H   0  0  0  0  0  0  0  0  0  0  0  0
  -29.6870  -11.8204   17.4226 H   0  0  0  0  0  0  0  0  0  0  0  0
  -29.6375  -13.5326   17.8649 H   0  0  0  0  0  0  0  0  0  0  0  0
  -27.7830  -11.3650   18.7904 H   0  0  0  0  0  0  0  0  0  0  0  0
  -27.4028  -12.7801   17.8021 H   0  0  0  0  0  0  0  0  0  0  0  0
  -27.7353  -14.2503   19.6136 H   0  0  0  0  0  0  0  0  0  0  0  0
  -28.5890  -11.9550   21.3832 H   0  0  0  0  0  0  0  0  0  0  0  0
  -28.5005  -13.6134   21.8562 H   0  0  0  0  0  0  0  0  0  0  0  0
  -25.2399   -9.5495   22.4318 H   0  0  0  0  0  0  0  0  0  0  0  0
  -23.9663   -7.5070   22.7297 H   0  0  0  0  0  0  0  0  0  0  0  0
  -21.1515   -8.8641   19.9162 H   0  0  0  0  0  0  0  0  0  0  0  0
  -22.4016  -10.9115   19.6476 H   0  0  0  0  0  0  0  0  0  0  0  0
  -21.2319   -7.5552   23.9750 H   0  0  0  0  0  0  0  0  0  0  0  0
  -21.1589   -6.0228   25.8556 H   0  0  0  0  0  0  0  0  0  0  0  0
  -22.0396   -2.8212   23.2809 H   0  0  0  0  0  0  0  0  0  0  0  0
  -22.4401  -11.9703   22.4008 H   0  0  0  0  0  0  0  0  0  0  0  0
  -21.1493  -13.0679   22.2082 H   0  0  0  0  0  0  0  0  0  0  0  0
  -24.6538  -15.7807   20.5848 H   0  0  0  0  0  0  0  0  0  0  0  0
  -26.2762  -15.5453   20.1156 H   0  0  0  0  0  0  0  0  0  0  0  0
  -26.6778  -32.4663   23.1464 H   0  0  0  0  0  0  0  0  0  0  0  0
  -25.0747  -34.0282   25.0566 H   0  0  0  0  0  0  0  0  0  0  0  0
  -22.7881  -31.3489   21.4131 H   0  0  0  0  0  0  0  0  0  0  0  0
  -23.3854  -35.9823   23.3648 H   0  0  0  0  0  0  0  0  0  0  0  0
  -24.3696  -36.8624   22.2204 H   0  0  0  0  0  0  0  0  0  0  0  0
  -23.7669  -37.6632   23.6516 H   0  0  0  0  0  0  0  0  0  0  0  0
  -25.9445  -31.6237   20.5691 H   0  0  0  0  0  0  0  0  0  0  0  0
  -26.7436  -31.0079   22.0108 H   0  0  0  0  0  0  0  0  0  0  0  0
  -28.0090  -29.1452   21.2057 H   0  0  0  0  0  0  0  0  0  0  0  0
  -26.1369  -26.0560   19.0719 H   0  0  0  0  0  0  0  0  0  0  0  0
  -24.0652  -27.2961   19.0997 H   0  0  0  0  0  0  0  0  0  0  0  0
  -23.6156  -30.5365   19.3930 H   0  0  0  0  0  0  0  0  0  0  0  0
  -22.7355  -29.1425   19.9945 H   0  0  0  0  0  0  0  0  0  0  0  0
  -25.1353  -36.2335   25.0565 H   0  0  0  0  0  0  0  0  0  0  0  0
  -21.0070  -28.3206   24.0793 H   0  0  0  0  0  0  0  0  0  0  0  0
  -20.5555  -26.2518   23.3550 H   0  0  0  0  0  0  0  0  0  0  0  0
  -21.5974  -26.8362   22.0454 H   0  0  0  0  0  0  0  0  0  0  0  0
  -19.6810  -25.6422   21.1488 H   0  0  0  0  0  0  0  0  0  0  0  0
  -19.6406  -27.3343   20.7034 H   0  0  0  0  0  0  0  0  0  0  0  0
  -17.4282  -26.6888   21.4113 H   0  0  0  0  0  0  0  0  0  0  0  0
  -18.0803  -26.0130   22.9049 H   0  0  0  0  0  0  0  0  0  0  0  0
  -19.7265  -30.6774   24.2204 H   0  0  0  0  0  0  0  0  0  0  0  0
  -17.5064  -31.5856   24.4483 H   0  0  0  0  0  0  0  0  0  0  0  0
  -15.5878  -30.2839   23.7407 H   0  0  0  0  0  0  0  0  0  0  0  0
  -15.9120  -28.0941   22.7766 H   0  0  0  0  0  0  0  0  0  0  0  0
  -24.5787  -30.7757   25.6817 H   0  0  0  0  0  0  0  0  0  0  0  0
  -25.0041  -32.2289   26.5536 H   0  0  0  0  0  0  0  0  0  0  0  0
  -25.8166  -30.7245   26.9138 H   0  0  0  0  0  0  0  0  0  0  0  0
  -26.2892  -29.7335   24.0803 H   0  0  0  0  0  0  0  0  0  0  0  0
  -27.4336  -29.7484   25.4006 H   0  0  0  0  0  0  0  0  0  0  0  0
  -27.8466  -30.4994   23.8779 H   0  0  0  0  0  0  0  0  0  0  0  0
  -27.2251  -33.3632   26.1242 H   0  0  0  0  0  0  0  0  0  0  0  0
  -28.3902  -32.6065   25.0645 H   0  0  0  0  0  0  0  0  0  0  0  0
  -27.9772  -31.8555   26.5872 H   0  0  0  0  0  0  0  0  0  0  0  0
  -28.2744  -38.0016   24.6863 H   0  0  0  0  0  0  0  0  0  0  0  0
  -28.0396  -36.2711   24.7461 H   0  0  0  0  0  0  0  0  0  0  0  0
  -27.1773  -37.3087   25.8564 H   0  0  0  0  0  0  0  0  0  0  0  0
  -20.9627  -29.9365   21.7352 H   0  0  0  0  0  0  0  0  0  0  0  0
  -26.0447  -38.2561   24.0273 H   0  0  0  0  0  0  0  0  0  0  0  0
  -33.6894  -15.9002   18.5271 H   0  0  0  0  0  0  0  0  0  0  0  0
  -35.9800  -16.5699   18.0867 H   0  0  0  0  0  0  0  0  0  0  0  0
  -34.7918  -18.2122   14.4042 H   0  0  0  0  0  0  0  0  0  0  0  0
  -39.0940  -19.6011   18.1440 H   0  0  0  0  0  0  0  0  0  0  0  0
  -39.5264  -18.3325   16.9614 H   0  0  0  0  0  0  0  0  0  0  0  0
  -30.8364  -16.9920   17.0454 H   0  0  0  0  0  0  0  0  0  0  0  0
  -30.9941  -14.2887   16.5038 H   0  0  0  0  0  0  0  0  0  0  0  0
  -31.0589  -16.7030   12.9739 H   0  0  0  0  0  0  0  0  0  0  0  0
  -31.4197  -15.6698   14.3360 H   0  0  0  0  0  0  0  0  0  0  0  0
  -32.6688  -16.0546   13.1763 H   0  0  0  0  0  0  0  0  0  0  0  0
  -36.6566  -19.4850   14.5462 H   0  0  0  0  0  0  0  0  0  0  0  0
  -36.8427  -17.9251   13.7813 H   0  0  0  0  0  0  0  0  0  0  0  0
  -38.2428  -18.7668   14.4010 H   0  0  0  0  0  0  0  0  0  0  0  0
  -37.7668  -16.0146   16.7515 H   0  0  0  0  0  0  0  0  0  0  0  0
  -38.8725  -16.8000   15.6499 H   0  0  0  0  0  0  0  0  0  0  0  0
  -37.4724  -15.9582   15.0302 H   0  0  0  0  0  0  0  0  0  0  0  0
  -32.5739  -18.4046   13.8540 H   0  0  0  0  0  0  0  0  0  0  0  0
  -31.3222  -17.9889   15.0306 H   0  0  0  0  0  0  0  0  0  0  0  0
  -37.2898  -20.4083   18.1158 H   0  0  0  0  0  0  0  0  0  0  0  0
  -35.7811  -19.0464   17.4917 H   0  0  0  0  0  0  0  0  0  0  0  0
  1 25  1  0
  1 30  2  0
  1 79  1  0
  2  3  1  0
  2 25  1  0
  2 87  1  0
  2 88  1  0
  3  4  1  0
  3 89  1  0
  3 90  1  0
  4  5  1  0
  4 91  1  0
  4 92  1  0
  5  6  1  0
  5 26  1  0
  5 93  1  6
  6 25  1  0
  6 94  1  0
  6 95  1  0
  7  8  2  0
  7 26  1  0
  7 29  1  0
  8  9  1  0
  8 22  1  0
  9 10  1  0
  9 27  2  0
 10 11  2  0
 10 15  1  0
 11 12  1  0
 11 96  1  0
 12 13  2  0
 12 97  1  0
 13 14  1  0
 13 31  1  0
 14 15  2  0
 14 98  1  0
 15 99  1  0
 16 17  2  0
 16 21  1  0
 16 31  1  0
 17 18  1  0
 17100  1  0
 18 19  2  0
 18101  1  0
 19 20  1  0
 19 24  1  0
 20 21  2  0
 20102  1  0
 21 23  1  0
 22 28  1  0
 22 32  2  0
 26 27  1  0
 28103  1  0
 28104  1  0
 29105  1  0
 29106  1  0
 33 34  1  0
 33 66  1  0
 33 70  2  0
 34 36  1  0
 34 59  1  0
 34107  1  6
 35 44  2  0
 35 45  1  0
 35 68  1  0
 36 56  1  0
 36108  1  0
 37 39  1  0
 37 47  1  0
 37 66  1  0
 37109  1  6
 38 43  2  0
 38 46  1  0
 38 47  1  0
 39 64  1  0
 39 67  2  0
 40 52  1  0
 40 53  2  0
 40 58  1  0
 41110  1  0
 41111  1  0
 41112  1  0
 42 43  1  0
 42 66  1  0
 42113  1  0
 42114  1  0
 43 44  1  0
 44115  1  0
 45 46  2  0
 45116  1  0
 46117  1  0
 47118  1  0
 47119  1  0
 48 41  1  0
 48 56  1  0
 48 65  1  0
 48120  1  1
 49 50  1  0
 49 53  1  0
 49 64  1  0
 49121  1  1
 50 51  1  0
 50122  1  0
 50123  1  0
 51 52  1  0
 51124  1  0
 51125  1  0
 52126  1  0
 52127  1  0
 53 54  1  0
 54 55  2  0
 54128  1  0
 55 57  1  0
 55129  1  0
 56 69  2  0
 57 58  2  0
 57130  1  0
 58131  1  0
 59 60  1  0
 59 61  1  0
 59 62  1  0
 60132  1  0
 60133  1  0
 60134  1  0
 61135  1  0
 61136  1  0
 61137  1  0
 62138  1  0
 62139  1  0
 62140  1  0
 63 65  1  0
 63141  1  0
 63142  1  0
 63143  1  0
 64144  1  0
 65145  1  0
 68 85  1  0
 71 72  2  0
 71 74  1  0
 71146  1  0
 72 75  1  0
 72147  1  0
 73 75  2  0
 73 76  1  0
 73148  1  0
 74 76  2  0
 74 78  1  0
 75 86  1  0
 76 84  1  0
 77 80  2  0
 77149  1  0
 77150  1  0
 78 79  2  0
 78151  1  0
 79152  1  0
 80 85  1  0
 80 86  1  0
 81 84  1  0
 81153  1  0
 81154  1  0
 81155  1  0
 82156  1  0
 82157  1  0
 82158  1  0
 83 86  1  0
 83159  1  0
 83160  1  0
 83161  1  0
 84162  1  0
 84163  1  0
 85164  1  0
 85165  1  0
 86 82  1  0
M  ISO  4   1 100  68 101  79 100  85 101
M  END
$$$$
93
     RDKit          3D

164172  0  0  0  0  0  0  0  0999 V2000
  -30.7652  -14.3608   20.6636 C   0  0  0  0  0  0  0  0  0100  0  0
  -30.4392  -12.2669   19.3775 C   0  0  0  0  0  0  0  0  0101  0  0
  -29.4791  -12.5281   18.1977 C   0  0  0  0  0  0  0  0  0102  0  0
  -27.9985  -12.3963   18.6038 C   0  0  0  0  0  0  0  0  0103  0  0
  -27.6639  -13.2170   19.8820 C   0  0  2  0  0  0  0  0  0104  0  0
  -28.6795  -12.9602   21.0279 C   0  0  0  0  0  0  0  0  0105  0  0
  -25.2633  -13.8245   20.5754 C   0  0  0  0  0  0  0  0  0106  0  0
  -24.1645  -13.0409   20.9408 C   0  0  0  0  0  0  0  0  0107  0  0
  -24.6400  -11.7009   20.8697 C   0  0  0  0  0  0  0  0  0108  0  0
  -23.9005  -10.4085   21.0420 C   0  0  0  0  0  0  0  0  0109  0  0
  -24.3588   -9.4123   21.9123 C   0  0  0  0  0  0  0  0  0110  0  0
  -23.6296   -8.2350   22.0803 C   0  0  0  0  0  0  0  0  0111  0  0
  -22.4385   -8.0419   21.3657 C   0  0  0  0  0  0  0  0  0112  0  0
  -22.0103   -9.0167   20.4678 C   0  0  0  0  0  0  0  0  0113  0  0
  -22.7317  -10.1925   20.3102 C   0  0  0  0  0  0  0  0  0114  0  0
  -21.6857   -6.0709   22.5391 C   0  0  0  0  0  0  0  0  0115  0  0
  -21.4064   -6.5490   23.8264 C   0  0  0  0  0  0  0  0  0116  0  0
  -21.3635   -5.6677   24.9085 C   0  0  0  0  0  0  0  0  0117  0  0
  -21.5973   -4.3067   24.7088 C   0  0  0  0  0  0  0  0  0118  0  0
  -21.8700   -3.8284   23.4282 C   0  0  0  0  0  0  0  0  0119  0  0
  -21.9144   -4.7056   22.3460 C   0  0  0  0  0  0  0  0  0120  0  0
  -22.8194  -13.5263   21.1763 C   0  0  0  0  0  0  0  0  0121  0  0
  -22.1559   -4.2206   21.1063 F   0  0  0  0  0  0  0  0  0122  0  0
  -21.5628   -3.4510   25.7555 F   0  0  0  0  0  0  0  0  0123  0  0
  -30.0261  -13.1803   20.4553 N   0  0  0  0  0  0  0  0  0124  0  0
  -26.2911  -12.9356   20.3443 N   0  0  0  0  0  0  0  0  0125  0  0
  -25.9236  -11.6675   20.5847 N   0  0  0  0  0  0  0  0  0126  0  0
  -22.0708  -12.7905   22.0005 N   0  0  0  0  0  0  0  0  0127  0  0
  -25.4117  -15.1773   20.4097 N   0  0  0  0  0  0  0  0  0128  0  0
  -31.7916  -14.6724   20.0536 O   0  0  0  0  0  0  0  0  0129  0  0
  -21.6670   -6.9022   21.4423 O   0  0  0  0  0  0  0  0  0130  0  0
  -22.3946  -14.5564   20.6568 O   0  0  0  0  0  0  0  0  0131  0  0
  -24.6048  -31.8614   23.2223 C   0  0  0  0  0  0  0  0  0100  0  0
  -25.8822  -32.4841   23.8616 C   0  0  1  0  0  0  0  0  0101  0  0
  -27.2536  -27.5042   20.1156 C   0  0  0  0  0  0  0  0  0102  0  0
  -25.5726  -33.8762   24.2210 N   0  0  0  0  0  0  0  0  0103  0  0
  -23.4066  -30.4859   21.5461 C   0  0  2  0  0  0  0  0  0104  0  0
  -24.8467  -28.9636   20.1247 C   0  0  0  0  0  0  0  0  0105  0  0
  -22.7412  -29.4652   22.5052 C   0  0  0  0  0  0  0  0  0106  0  0
  -18.0167  -28.1302   22.8626 C   0  0  0  0  0  0  0  0  0107  0  0
  -24.1342  -36.7390   23.2568 C   0  0  0  0  0  0  0  0  0108  0  0
  -25.9141  -30.8882   21.3456 C   0  0  0  0  0  0  0  0  0109  0  0
  -25.9930  -29.5029   20.7208 C   0  0  0  0  0  0  0  0  0110  0  0
  -27.1758  -28.7612   20.7331 C   0  0  0  0  0  0  0  0  0111  0  0
  -26.1032  -26.9836   19.5230 C   0  0  0  0  0  0  0  0  0112  0  0
  -24.9097  -27.7011   19.5331 C   0  0  0  0  0  0  0  0  0113  0  0
  -23.5715  -29.7899   20.1582 C   0  0  0  0  0  0  0  0  0114  0  0
  -25.3990  -36.3212   24.0232 C   0  0  1  0  0  0  0  0  0115  0  0
  -20.5793  -28.3813   23.1004 C   0  0  2  0  0  0  0  0  0116  0  0
  -20.6548  -26.9392   22.5411 C   0  0  0  0  0  0  0  0  0117  0  0
  -19.5615  -26.6407   21.5143 C   0  0  0  0  0  0  0  0  0118  0  0
  -18.1797  -26.7818   22.1673 C   0  0  0  0  0  0  0  0  0119  0  0
  -19.1385  -28.8769   23.2988 C   0  0  0  0  0  0  0  0  0120  0  0
  -18.9183  -30.1286   23.8878 C   0  0  0  0  0  0  0  0  0121  0  0
  -17.6396  -30.6493   24.0352 C   0  0  0  0  0  0  0  0  0122  0  0
  -25.9153  -34.9582   23.4993 C   0  0  0  0  0  0  0  0  0123  0  0
  -16.5415  -29.9068   23.6254 C   0  0  0  0  0  0  0  0  0124  0  0
  -16.7331  -28.6521   23.0586 C   0  0  0  0  0  0  0  0  0125  0  0
  -26.4583  -31.6439   25.0683 C   0  0  0  0  0  0  0  0  0126  0  0
  -25.3807  -31.3179   26.1374 C   0  0  0  0  0  0  0  0  0127  0  0
  -27.0530  -30.3024   24.5680 C   0  0  0  0  0  0  0  0  0128  0  0
  -27.6014  -32.4281   25.7651 C   0  0  0  0  0  0  0  0  0129  0  0
  -27.5629  -37.2220   24.8621 C   0  0  0  0  0  0  0  0  0130  0  0
  -21.4133  -29.3375   22.3735 N   0  0  0  0  0  0  0  0  0131  0  0
  -26.4706  -37.3372   23.9061 N   0  0  0  0  0  0  0  0  0132  0  0
  -24.6674  -31.0544   22.1178 N   0  0  0  0  0  0  0  0  0133  0  0
  -23.4259  -28.8150   23.2971 O   0  0  0  0  0  0  0  0  0134  0  0
  -28.3948  -26.7345   20.0089 O   0  0  0  0  0  0  0  0  0135  0  0
  -26.5870  -34.9065   22.4671 O   0  0  0  0  0  0  0  0  0136  0  0
  -23.5365  -32.1254   23.7833 O   0  0  0  0  0  0  0  0  0137  0  0
  -28.2180  -22.5575   18.8443 C   0  0  0  0  0  0  0  0  0  0  0  0
  -27.8191  -22.0173   21.1650 C   0  0  0  0  0  0  0  0  0  0  0  0
  -26.3497  -21.1520   19.4535 C   0  0  0  0  0  0  0  0  0  0  0  0
  -28.5748  -22.6659   20.1884 C   0  0  0  0  0  0  0  0  0  0  0  0
  -27.1054  -21.8006   18.4769 C   0  0  0  0  0  0  0  0  0  0  0  0
  -26.7065  -21.2603   20.7976 C   0  0  0  0  0  0  0  0  0  0  0  0
  -27.8129  -19.6271   16.0112 C   0  0  0  0  0  0  0  0  0  0  0  0
  -27.7965  -20.9623   16.1858 C   0  0  0  0  0  0  0  0  0  0  0  0
  -28.8096  -21.9066   15.5787 C   0  0  0  0  0  0  0  0  0  0  0  0
  -26.2549  -23.0525   16.4818 C   0  0  0  0  0  0  0  0  0  0  0  0
  -29.6840  -25.7602   18.4944 C   0  0  0  0  0  0  0  0  0  0  0  0
  -29.7771  -23.4845   20.5857 C   0  0  0  0  0  0  0  0  0  0  0  0
  -29.4551  -24.9583   20.8732 C   0  0  0  0  0  0  0  0  0  0  0  0
  -26.7235  -21.6847   17.0398 C   0  0  2  0  0  0  0  0  0  0  0  0
  -28.7694  -25.6862   19.7105 C   0  0  1  0  0  0  0  0  0  1  0  0
  -25.9804  -20.6384   21.7357 F   0  0  0  0  0  0  0  0  0  0  0  0
  -31.4485  -12.4701   19.0860 H   0  0  0  0  0  0  0  0  0  0  0  0
  -30.3970  -11.2460   19.6950 H   0  0  0  0  0  0  0  0  0  0  0  0
  -29.6870  -11.8204   17.4226 H   0  0  0  0  0  0  0  0  0  0  0  0
  -29.6375  -13.5326   17.8649 H   0  0  0  0  0  0  0  0  0  0  0  0
  -27.7830  -11.3650   18.7904 H   0  0  0  0  0  0  0  0  0  0  0  0
  -27.4028  -12.7801   17.8021 H   0  0  0  0  0  0  0  0  0  0  0  0
  -27.7353  -14.2503   19.6136 H   0  0  0  0  0  0  0  0  0  0  0  0
  -28.5890  -11.9550   21.3832 H   0  0  0  0  0  0  0  0  0  0  0  0
  -28.5005  -13.6134   21.8562 H   0  0  0  0  0  0  0  0  0  0  0  0
  -25.2399   -9.5495   22.4318 H   0  0  0  0  0  0  0  0  0  0  0  0
  -23.9663   -7.5070   22.7297 H   0  0  0  0  0  0  0  0  0  0  0  0
  -21.1515   -8.8641   19.9162 H   0  0  0  0  0  0  0  0  0  0  0  0
  -22.4016  -10.9115   19.6476 H   0  0  0  0  0  0  0  0  0  0  0  0
  -21.2319   -7.5552   23.9750 H   0  0  0  0  0  0  0  0  0  0  0  0
  -21.1589   -6.0228   25.8556 H   0  0  0  0  0  0  0  0  0  0  0  0
  -22.0396   -2.8212   23.2809 H   0  0  0  0  0  0  0  0  0  0  0  0
  -22.4401  -11.9703   22.4008 H   0  0  0  0  0  0  0  0  0  0  0  0
  -21.1493  -13.0679   22.2082 H   0  0  0  0  0  0  0  0  0  0  0  0
  -24.6538  -15.7807   20.5848 H   0  0  0  0  0  0  0  0  0  0  0  0
  -26.2762  -15.5453   20.1156 H   0  0  0  0  0  0  0  0  0  0  0  0
  -26.6778  -32.4663   23.1464 H   0  0  0  0  0  0  0  0  0  0  0  0
  -25.0747  -34.0282   25.0566 H   0  0  0  0  0  0  0  0  0  0  0  0
  -22.7881  -31.3489   21.4131 H   0  0  0  0  0  0  0  0  0  0  0  0
  -23.3854  -35.9823   23.3648 H   0  0  0  0  0  0  0  0  0  0  0  0
  -24.3696  -36.8624   22.2204 H   0  0  0  0  0  0  0  0  0  0  0  0
  -23.7669  -37.6632   23.6516 H   0  0  0  0  0  0  0  0  0  0  0  0
  -25.9445  -31.6237   20.5691 H   0  0  0  0  0  0  0  0  0  0  0  0
  -26.7436  -31.0079   22.0108 H   0  0  0  0  0  0  0  0  0  0  0  0
  -28.0090  -29.1452   21.2057 H   0  0  0  0  0  0  0  0  0  0  0  0
  -26.1369  -26.0560   19.0719 H   0  0  0  0  0  0  0  0  0  0  0  0
  -24.0652  -27.2961   19.0997 H   0  0  0  0  0  0  0  0  0  0  0  0
  -23.6156  -30.5365   19.3930 H   0  0  0  0  0  0  0  0  0  0  0  0
  -22.7355  -29.1425   19.9945 H   0  0  0  0  0  0  0  0  0  0  0  0
  -25.1353  -36.2335   25.0565 H   0  0  0  0  0  0  0  0  0  0  0  0
  -21.0070  -28.3206   24.0793 H   0  0  0  0  0  0  0  0  0  0  0  0
  -20.5555  -26.2518   23.3550 H   0  0  0  0  0  0  0  0  0  0  0  0
  -21.5974  -26.8362   22.0454 H   0  0  0  0  0  0  0  0  0  0  0  0
  -19.6810  -25.6422   21.1488 H   0  0  0  0  0  0  0  0  0  0  0  0
  -19.6406  -27.3343   20.7034 H   0  0  0  0  0  0  0  0  0  0  0  0
  -17.4282  -26.6888   21.4113 H   0  0  0  0  0  0  0  0  0  0  0  0
  -18.0803  -26.0130   22.9049 H   0  0  0  0  0  0  0  0  0  0  0  0
  -19.7265  -30.6774   24.2204 H   0  0  0  0  0  0  0  0  0  0  0  0
  -17.5064  -31.5856   24.4483 H   0  0  0  0  0  0  0  0  0  0  0  0
  -15.5878  -30.2839   23.7407 H   0  0  0  0  0  0  0  0  0  0  0  0
  -15.9120  -28.0941   22.7766 H   0  0  0  0  0  0  0  0  0  0  0  0
  -24.5787  -30.7757   25.6817 H   0  0  0  0  0  0  0  0  0  0  0  0
  -25.0041  -32.2289   26.5536 H   0  0  0  0  0  0  0  0  0  0  0  0
  -25.8166  -30.7245   26.9138 H   0  0  0  0  0  0  0  0  0  0  0  0
  -26.2892  -29.7335   24.0803 H   0  0  0  0  0  0  0  0  0  0  0  0
  -27.4336  -29.7484   25.4006 H   0  0  0  0  0  0  0  0  0  0  0  0
  -27.8466  -30.4994   23.8779 H   0  0  0  0  0  0  0  0  0  0  0  0
  -27.2251  -33.3632   26.1242 H   0  0  0  0  0  0  0  0  0  0  0  0
  -28.3902  -32.6065   25.0645 H   0  0  0  0  0  0  0  0  0  0  0  0
  -27.9772  -31.8555   26.5872 H   0  0  0  0  0  0  0  0  0  0  0  0
  -28.2744  -38.0016   24.6863 H   0  0  0  0  0  0  0  0  0  0  0  0
  -28.0396  -36.2711   24.7461 H   0  0  0  0  0  0  0  0  0  0  0  0
  -27.1773  -37.3087   25.8564 H   0  0  0  0  0  0  0  0  0  0  0  0
  -20.9627  -29.9365   21.7352 H   0  0  0  0  0  0  0  0  0  0  0  0
  -26.0447  -38.2561   24.0273 H   0  0  0  0  0  0  0  0  0  0  0  0
  -28.7772  -23.0373   18.1217 H   0  0  0  0  0  0  0  0  0  0  0  0
  -28.0831  -22.0975   22.1594 H   0  0  0  0  0  0  0  0  0  0  0  0
  -25.5266  -20.5920   19.1816 H   0  0  0  0  0  0  0  0  0  0  0  0
  -27.3742  -19.2756   15.1458 H   0  0  0  0  0  0  0  0  0  0  0  0
  -29.5187  -21.3478   15.0044 H   0  0  0  0  0  0  0  0  0  0  0  0
  -29.3184  -22.4334   16.3588 H   0  0  0  0  0  0  0  0  0  0  0  0
  -28.3086  -22.6068   14.9434 H   0  0  0  0  0  0  0  0  0  0  0  0
  -25.5187  -23.4712   17.1358 H   0  0  0  0  0  0  0  0  0  0  0  0
  -25.8308  -22.9145   15.5092 H   0  0  0  0  0  0  0  0  0  0  0  0
  -27.0916  -23.7161   16.4152 H   0  0  0  0  0  0  0  0  0  0  0  0
  -30.0173  -24.7762   18.2384 H   0  0  0  0  0  0  0  0  0  0  0  0
  -30.5296  -26.3755   18.7210 H   0  0  0  0  0  0  0  0  0  0  0  0
  -29.1475  -26.1809   17.6697 H   0  0  0  0  0  0  0  0  0  0  0  0
  -30.4909  -23.4441   19.7896 H   0  0  0  0  0  0  0  0  0  0  0  0
  -30.1539  -23.0644   21.4948 H   0  0  0  0  0  0  0  0  0  0  0  0
  -30.3708  -25.4657   21.0943 H   0  0  0  0  0  0  0  0  0  0  0  0
  -28.7683  -24.9704   21.6936 H   0  0  0  0  0  0  0  0  0  0  0  0
  -25.8755  -21.0359   16.9709 H   0  0  0  0  0  0  0  0  0  0  0  0
  -27.9071  -25.1091   19.4493 H   0  0  0  0  0  0  0  0  0  0  0  0
  1 25  1  0
  1 30  2  0
  1 77  1  0
  2  3  1  0
  2 25  1  0
  2 87  1  0
  2 88  1  0
  3  4  1  0
  3 89  1  0
  3 90  1  0
  4  5  1  0
  4 91  1  0
  4 92  1  0
  5  6  1  0
  5 26  1  0
  5 93  1  6
  6 25  1  0
  6 94  1  0
  6 95  1  0
  7  8  2  0
  7 26  1  0
  7 29  1  0
  8  9  1  0
  8 22  1  0
  9 10  1  0
  9 27  2  0
 10 11  2  0
 10 15  1  0
 11 12  1  0
 11 96  1  0
 12 13  2  0
 12 97  1  0
 13 14  1  0
 13 31  1  0
 14 15  2  0
 14 98  1  0
 15 99  1  0
 16 17  2  0
 16 21  1  0
 16 31  1  0
 17 18  1  0
 17100  1  0
 18 19  2  0
 18101  1  0
 19 20  1  0
 19 24  1  0
 20 21  2  0
 20102  1  0
 21 23  1  0
 22 28  1  0
 22 32  2  0
 26 27  1  0
 28103  1  0
 28104  1  0
 29105  1  0
 29106  1  0
 33 34  1  0
 33 66  1  0
 33 70  2  0
 34 36  1  0
 34 59  1  0
 34107  1  6
 35 44  2  0
 35 45  1  0
 35 68  1  0
 36 56  1  0
 36108  1  0
 37 39  1  0
 37 47  1  0
 37 66  1  0
 37109  1  6
 38 43  2  0
 38 46  1  0
 38 47  1  0
 39 64  1  0
 39 67  2  0
 40 52  1  0
 40 53  2  0
 40 58  1  0
 41110  1  0
 41111  1  0
 41112  1  0
 42 43  1  0
 42 66  1  0
 42113  1  0
 42114  1  0
 43 44  1  0
 44115  1  0
 45 46  2  0
 45116  1  0
 46117  1  0
 47118  1  0
 47119  1  0
 48 41  1  0
 48 56  1  0
 48 65  1  0
 48120  1  1
 49 50  1  0
 49 53  1  0
 49 64  1  0
 49121  1  1
 50 51  1  0
 50122  1  0
 50123  1  0
 51 52  1  0
 51124  1  0
 51125  1  0
 52126  1  0
 52127  1  0
 53 54  1  0
 54 55  2  0
 54128  1  0
 55 57  1  0
 55129  1  0
 56 69  2  0
 57 58  2  0
 57130  1  0
 58131  1  0
 59 60  1  0
 59 61  1  0
 59 62  1  0
 60132  1  0
 60133  1  0
 60134  1  0
 61135  1  0
 61136  1  0
 61137  1  0
 62138  1  0
 62139  1  0
 62140  1  0
 63 65  1  0
 63141  1  0
 63142  1  0
 63143  1  0
 64144  1  0
 65145  1  0
 68 85  1  0
 71 74  2  0
 71 75  1  0
 71146  1  0
 72 74  1  0
 72 76  2  0
 72147  1  0
 73 75  2  0
 73 76  1  0
 73148  1  0
 74 82  1  0
 75 84  1  0
 76 86  1  0
 77 78  2  0
 77149  1  0
 78 79  1  0
 78 84  1  0
 79150  1  0
 79151  1  0
 79152  1  0
 80153  1  0
 80154  1  0
 80155  1  0
 81156  1  0
 81157  1  0
 81158  1  0
 82 83  1  0
 82159  1  0
 82160  1  0
 83 85  1  0
 83161  1  0
 83162  1  0
 84 80  1  0
 84163  1  1
 85 81  1  0
 85164  1  6
M  ISO  4   1 100  68 101  77 100  85 101
M  END
$$$$
94
     RDKit          3D

170178  0  0  0  0  0  0  0  0999 V2000
  -30.7652  -14.3608   20.6636 C   0  0  0  0  0  0  0  0  0100  0  0
  -30.4392  -12.2669   19.3775 C   0  0  0  0  0  0  0  0  0101  0  0
  -29.4791  -12.5281   18.1977 C   0  0  0  0  0  0  0  0  0102  0  0
  -27.9985  -12.3963   18.6038 C   0  0  0  0  0  0  0  0  0103  0  0
  -27.6639  -13.2170   19.8820 C   0  0  2  0  0  0  0  0  0104  0  0
  -28.6795  -12.9602   21.0279 C   0  0  0  0  0  0  0  0  0105  0  0
  -25.2633  -13.8245   20.5754 C   0  0  0  0  0  0  0  0  0106  0  0
  -24.1645  -13.0409   20.9408 C   0  0  0  0  0  0  0  0  0107  0  0
  -24.6400  -11.7009   20.8697 C   0  0  0  0  0  0  0  0  0108  0  0
  -23.9005  -10.4085   21.0420 C   0  0  0  0  0  0  0  0  0109  0  0
  -24.3588   -9.4123   21.9123 C   0  0  0  0  0  0  0  0  0110  0  0
  -23.6296   -8.2350   22.0803 C   0  0  0  0  0  0  0  0  0111  0  0
  -22.4385   -8.0419   21.3657 C   0  0  0  0  0  0  0  0  0112  0  0
  -22.0103   -9.0167   20.4678 C   0  0  0  0  0  0  0  0  0113  0  0
  -22.7317  -10.1925   20.3102 C   0  0  0  0  0  0  0  0  0114  0  0
  -21.6857   -6.0709   22.5391 C   0  0  0  0  0  0  0  0  0115  0  0
  -21.4064   -6.5490   23.8264 C   0  0  0  0  0  0  0  0  0116  0  0
  -21.3635   -5.6677   24.9085 C   0  0  0  0  0  0  0  0  0117  0  0
  -21.5973   -4.3067   24.7088 C   0  0  0  0  0  0  0  0  0118  0  0
  -21.8700   -3.8284   23.4282 C   0  0  0  0  0  0  0  0  0119  0  0
  -21.9144   -4.7056   22.3460 C   0  0  0  0  0  0  0  0  0120  0  0
  -22.8194  -13.5263   21.1763 C   0  0  0  0  0  0  0  0  0121  0  0
  -22.1559   -4.2206   21.1063 F   0  0  0  0  0  0  0  0  0122  0  0
  -21.5628   -3.4510   25.7555 F   0  0  0  0  0  0  0  0  0123  0  0
  -30.0261  -13.1803   20.4553 N   0  0  0  0  0  0  0  0  0124  0  0
  -26.2911  -12.9356   20.3443 N   0  0  0  0  0  0  0  0  0125  0  0
  -25.9236  -11.6675   20.5847 N   0  0  0  0  0  0  0  0  0126  0  0
  -22.0708  -12.7905   22.0005 N   0  0  0  0  0  0  0  0  0127  0  0
  -25.4117  -15.1773   20.4097 N   0  0  0  0  0  0  0  0  0128  0  0
  -31.7916  -14.6724   20.0536 O   0  0  0  0  0  0  0  0  0129  0  0
  -21.6670   -6.9022   21.4423 O   0  0  0  0  0  0  0  0  0130  0  0
  -22.3946  -14.5564   20.6568 O   0  0  0  0  0  0  0  0  0131  0  0
  -24.6048  -31.8614   23.2223 C   0  0  0  0  0  0  0  0  0100  0  0
  -25.8822  -32.4841   23.8616 C   0  0  1  0  0  0  0  0  0101  0  0
  -27.2536  -27.5042   20.1156 C   0  0  0  0  0  0  0  0  0102  0  0
  -25.5726  -33.8762   24.2210 N   0  0  0  0  0  0  0  0  0103  0  0
  -23.4066  -30.4859   21.5461 C   0  0  2  0  0  0  0  0  0104  0  0
  -24.8467  -28.9636   20.1247 C   0  0  0  0  0  0  0  0  0105  0  0
  -22.7412  -29.4652   22.5052 C   0  0  0  0  0  0  0  0  0106  0  0
  -18.0167  -28.1302   22.8626 C   0  0  0  0  0  0  0  0  0107  0  0
  -24.1342  -36.7390   23.2568 C   0  0  0  0  0  0  0  0  0108  0  0
  -25.9141  -30.8882   21.3456 C   0  0  0  0  0  0  0  0  0109  0  0
  -25.9930  -29.5029   20.7208 C   0  0  0  0  0  0  0  0  0110  0  0
  -27.1758  -28.7612   20.7331 C   0  0  0  0  0  0  0  0  0111  0  0
  -26.1032  -26.9836   19.5230 C   0  0  0  0  0  0  0  0  0112  0  0
  -24.9097  -27.7011   19.5331 C   0  0  0  0  0  0  0  0  0113  0  0
  -23.5715  -29.7899   20.1582 C   0  0  0  0  0  0  0  0  0114  0  0
  -25.3990  -36.3212   24.0232 C   0  0  1  0  0  0  0  0  0115  0  0
  -20.5793  -28.3813   23.1004 C   0  0  2  0  0  0  0  0  0116  0  0
  -20.6548  -26.9392   22.5411 C   0  0  0  0  0  0  0  0  0117  0  0
  -19.5615  -26.6407   21.5143 C   0  0  0  0  0  0  0  0  0118  0  0
  -18.1797  -26.7818   22.1673 C   0  0  0  0  0  0  0  0  0119  0  0
  -19.1385  -28.8769   23.2988 C   0  0  0  0  0  0  0  0  0120  0  0
  -18.9183  -30.1286   23.8878 C   0  0  0  0  0  0  0  0  0121  0  0
  -17.6396  -30.6493   24.0352 C   0  0  0  0  0  0  0  0  0122  0  0
  -25.9153  -34.9582   23.4993 C   0  0  0  0  0  0  0  0  0123  0  0
  -16.5415  -29.9068   23.6254 C   0  0  0  0  0  0  0  0  0124  0  0
  -16.7331  -28.6521   23.0586 C   0  0  0  0  0  0  0  0  0125  0  0
  -26.4583  -31.6439   25.0683 C   0  0  0  0  0  0  0  0  0126  0  0
  -25.3807  -31.3179   26.1374 C   0  0  0  0  0  0  0  0  0127  0  0
  -27.0530  -30.3024   24.5680 C   0  0  0  0  0  0  0  0  0128  0  0
  -27.6014  -32.4281   25.7651 C   0  0  0  0  0  0  0  0  0129  0  0
  -27.5629  -37.2220   24.8621 C   0  0  0  0  0  0  0  0  0130  0  0
  -21.4133  -29.3375   22.3735 N   0  0  0  0  0  0  0  0  0131  0  0
  -26.4706  -37.3372   23.9061 N   0  0  0  0  0  0  0  0  0132  0  0
  -24.6674  -31.0544   22.1178 N   0  0  0  0  0  0  0  0  0133  0  0
  -23.4259  -28.8150   23.2971 O   0  0  0  0  0  0  0  0  0134  0  0
  -28.3948  -26.7345   20.0089 O   0  0  0  0  0  0  0  0  0135  0  0
  -26.5870  -34.9065   22.4671 O   0  0  0  0  0  0  0  0  0136  0  0
  -23.5365  -32.1254   23.7833 O   0  0  0  0  0  0  0  0  0137  0  0
  -33.9471  -23.4002   20.5277 C   0  0  0  0  0  0  0  0  0  0  0  0
  -32.5618  -21.4895   20.9907 C   0  0  0  0  0  0  0  0  0  0  0  0
  -33.7669  -22.1662   21.1425 C   0  0  0  0  0  0  0  0  0  0  0  0
  -32.8997  -23.9102   19.7777 C   0  0  0  0  0  0  0  0  0  0  0  0
  -31.5763  -22.0852   20.2201 C   0  0  0  0  0  0  0  0  0  0  0  0
  -34.8614  -21.5709   21.9614 C   0  0  0  0  0  0  0  0  0  0  0  0
  -33.4807  -26.6164   21.1905 C   0  0  0  0  0  0  0  0  0  0  0  0
  -32.9899  -27.7352   19.0140 C   0  0  0  0  0  0  0  0  0  0  0  0
  -29.8577  -28.4484   19.1944 C   0  0  0  0  0  0  0  0  0  0  0  0
  -30.8030  -28.6838   21.5058 C   0  0  0  0  0  0  0  0  0  0  0  0
  -33.0595  -25.2506   19.0950 C   0  0  0  0  0  0  0  0  0  0  0  0
  -31.1041  -26.4501   20.2204 C   0  0  0  0  0  0  0  0  0  0  0  0
  -28.8613  -27.1858   21.1089 C   0  0  0  0  0  0  0  0  0  1  0  0
  -32.6346  -26.5311   19.9041 C   0  0  0  0  0  0  0  0  0  0  0  0
  -30.1997  -27.6977   20.4978 C   0  0  0  0  0  0  0  0  0  0  0  0
  -31.7147  -23.2823   19.6075 N   0  0  0  0  0  0  0  0  0  0  0  0
  -30.3517  -21.3878   20.0720 N   0  0  0  0  0  0  0  0  0  0  0  0
  -31.4485  -12.4701   19.0860 H   0  0  0  0  0  0  0  0  0  0  0  0
  -30.3970  -11.2460   19.6950 H   0  0  0  0  0  0  0  0  0  0  0  0
  -29.6870  -11.8204   17.4226 H   0  0  0  0  0  0  0  0  0  0  0  0
  -29.6375  -13.5326   17.8649 H   0  0  0  0  0  0  0  0  0  0  0  0
  -27.7830  -11.3650   18.7904 H   0  0  0  0  0  0  0  0  0  0  0  0
  -27.4028  -12.7801   17.8021 H   0  0  0  0  0  0  0  0  0  0  0  0
  -27.7353  -14.2503   19.6136 H   0  0  0  0  0  0  0  0  0  0  0  0
  -28.5890  -11.9550   21.3832 H   0  0  0  0  0  0  0  0  0  0  0  0
  -28.5005  -13.6134   21.8562 H   0  0  0  0  0  0  0  0  0  0  0  0
  -25.2399   -9.5495   22.4318 H   0  0  0  0  0  0  0  0  0  0  0  0
  -23.9663   -7.5070   22.7297 H   0  0  0  0  0  0  0  0  0  0  0  0
  -21.1515   -8.8641   19.9162 H   0  0  0  0  0  0  0  0  0  0  0  0
  -22.4016  -10.9115   19.6476 H   0  0  0  0  0  0  0  0  0  0  0  0
  -21.2319   -7.5552   23.9750 H   0  0  0  0  0  0  0  0  0  0  0  0
  -21.1589   -6.0228   25.8556 H   0  0  0  0  0  0  0  0  0  0  0  0
  -22.0396   -2.8212   23.2809 H   0  0  0  0  0  0  0  0  0  0  0  0
  -22.4401  -11.9703   22.4008 H   0  0  0  0  0  0  0  0  0  0  0  0
  -21.1493  -13.0679   22.2082 H   0  0  0  0  0  0  0  0  0  0  0  0
  -24.6538  -15.7807   20.5848 H   0  0  0  0  0  0  0  0  0  0  0  0
  -26.2762  -15.5453   20.1156 H   0  0  0  0  0  0  0  0  0  0  0  0
  -26.6778  -32.4663   23.1464 H   0  0  0  0  0  0  0  0  0  0  0  0
  -25.0747  -34.0282   25.0566 H   0  0  0  0  0  0  0  0  0  0  0  0
  -22.7881  -31.3489   21.4131 H   0  0  0  0  0  0  0  0  0  0  0  0
  -23.3854  -35.9823   23.3648 H   0  0  0  0  0  0  0  0  0  0  0  0
  -24.3696  -36.8624   22.2204 H   0  0  0  0  0  0  0  0  0  0  0  0
  -23.7669  -37.6632   23.6516 H   0  0  0  0  0  0  0  0  0  0  0  0
  -25.9445  -31.6237   20.5691 H   0  0  0  0  0  0  0  0  0  0  0  0
  -26.7436  -31.0079   22.0108 H   0  0  0  0  0  0  0  0  0  0  0  0
  -28.0090  -29.1452   21.2057 H   0  0  0  0  0  0  0  0  0  0  0  0
  -26.1369  -26.0560   19.0719 H   0  0  0  0  0  0  0  0  0  0  0  0
  -24.0652  -27.2961   19.0997 H   0  0  0  0  0  0  0  0  0  0  0  0
  -23.6156  -30.5365   19.3930 H   0  0  0  0  0  0  0  0  0  0  0  0
  -22.7355  -29.1425   19.9945 H   0  0  0  0  0  0  0  0  0  0  0  0
  -25.1353  -36.2335   25.0565 H   0  0  0  0  0  0  0  0  0  0  0  0
  -21.0070  -28.3206   24.0793 H   0  0  0  0  0  0  0  0  0  0  0  0
  -20.5555  -26.2518   23.3550 H   0  0  0  0  0  0  0  0  0  0  0  0
  -21.5974  -26.8362   22.0454 H   0  0  0  0  0  0  0  0  0  0  0  0
  -19.6810  -25.6422   21.1488 H   0  0  0  0  0  0  0  0  0  0  0  0
  -19.6406  -27.3343   20.7034 H   0  0  0  0  0  0  0  0  0  0  0  0
  -17.4282  -26.6888   21.4113 H   0  0  0  0  0  0  0  0  0  0  0  0
  -18.0803  -26.0130   22.9049 H   0  0  0  0  0  0  0  0  0  0  0  0
  -19.7265  -30.6774   24.2204 H   0  0  0  0  0  0  0  0  0  0  0  0
  -17.5064  -31.5856   24.4483 H   0  0  0  0  0  0  0  0  0  0  0  0
  -15.5878  -30.2839   23.7407 H   0  0  0  0  0  0  0  0  0  0  0  0
  -15.9120  -28.0941   22.7766 H   0  0  0  0  0  0  0  0  0  0  0  0
  -24.5787  -30.7757   25.6817 H   0  0  0  0  0  0  0  0  0  0  0  0
  -25.0041  -32.2289   26.5536 H   0  0  0  0  0  0  0  0  0  0  0  0
  -25.8166  -30.7245   26.9138 H   0  0  0  0  0  0  0  0  0  0  0  0
  -26.2892  -29.7335   24.0803 H   0  0  0  0  0  0  0  0  0  0  0  0
  -27.4336  -29.7484   25.4006 H   0  0  0  0  0  0  0  0  0  0  0  0
  -27.8466  -30.4994   23.8779 H   0  0  0  0  0  0  0  0  0  0  0  0
  -27.2251  -33.3632   26.1242 H   0  0  0  0  0  0  0  0  0  0  0  0
  -28.3902  -32.6065   25.0645 H   0  0  0  0  0  0  0  0  0  0  0  0
  -27.9772  -31.8555   26.5872 H   0  0  0  0  0  0  0  0  0  0  0  0
  -28.2744  -38.0016   24.6863 H   0  0  0  0  0  0  0  0  0  0  0  0
  -28.0396  -36.2711   24.7461 H   0  0  0  0  0  0  0  0  0  0  0  0
  -27.1773  -37.3087   25.8564 H   0  0  0  0  0  0  0  0  0  0  0  0
  -20.9627  -29.9365   21.7352 H   0  0  0  0  0  0  0  0  0  0  0  0
  -26.0447  -38.2561   24.0273 H   0  0  0  0  0  0  0  0  0  0  0  0
  -34.8332  -23.9199   20.6269 H   0  0  0  0  0  0  0  0  0  0  0  0
  -32.4063  -20.5725   21.4379 H   0  0  0  0  0  0  0  0  0  0  0  0
  -35.7044  -22.2299   21.9631 H   0  0  0  0  0  0  0  0  0  0  0  0
  -35.1467  -20.6279   21.5440 H   0  0  0  0  0  0  0  0  0  0  0  0
  -34.5186  -21.4277   22.9648 H   0  0  0  0  0  0  0  0  0  0  0  0
  -34.5177  -26.6701   20.9324 H   0  0  0  0  0  0  0  0  0  0  0  0
  -33.3069  -25.7473   21.7900 H   0  0  0  0  0  0  0  0  0  0  0  0
  -33.2046  -27.4910   21.7417 H   0  0  0  0  0  0  0  0  0  0  0  0
  -34.0438  -27.7433   18.8290 H   0  0  0  0  0  0  0  0  0  0  0  0
  -32.7077  -28.6406   19.5095 H   0  0  0  0  0  0  0  0  0  0  0  0
  -32.4652  -27.6588   18.0846 H   0  0  0  0  0  0  0  0  0  0  0  0
  -30.7580  -28.8147   18.7470 H   0  0  0  0  0  0  0  0  0  0  0  0
  -29.2094  -29.2704   19.4158 H   0  0  0  0  0  0  0  0  0  0  0  0
  -29.3684  -27.7809   18.5162 H   0  0  0  0  0  0  0  0  0  0  0  0
  -31.7285  -29.0621   21.1246 H   0  0  0  0  0  0  0  0  0  0  0  0
  -30.9783  -28.1820   22.4345 H   0  0  0  0  0  0  0  0  0  0  0  0
  -30.1231  -29.4952   21.6616 H   0  0  0  0  0  0  0  0  0  0  0  0
  -32.4728  -25.2270   18.2005 H   0  0  0  0  0  0  0  0  0  0  0  0
  -34.1138  -25.3581   18.9471 H   0  0  0  0  0  0  0  0  0  0  0  0
  -31.0200  -25.8320   21.0898 H   0  0  0  0  0  0  0  0  0  0  0  0
  -30.7185  -26.1254   19.2766 H   0  0  0  0  0  0  0  0  0  0  0  0
  -28.2650  -27.9721   21.5225 H   0  0  0  0  0  0  0  0  0  0  0  0
  -28.9218  -26.5089   21.9354 H   0  0  0  0  0  0  0  0  0  0  0  0
  -29.5007  -21.8513   19.8984 H   0  0  0  0  0  0  0  0  0  0  0  0
  1 25  1  0
  1 30  2  0
  1 87  1  0
  2  3  1  0
  2 25  1  0
  2 88  1  0
  2 89  1  0
  3  4  1  0
  3 90  1  0
  3 91  1  0
  4  5  1  0
  4 92  1  0
  4 93  1  0
  5  6  1  0
  5 26  1  0
  5 94  1  6
  6 25  1  0
  6 95  1  0
  6 96  1  0
  7  8  2  0
  7 26  1  0
  7 29  1  0
  8  9  1  0
  8 22  1  0
  9 10  1  0
  9 27  2  0
 10 11  2  0
 10 15  1  0
 11 12  1  0
 11 97  1  0
 12 13  2  0
 12 98  1  0
 13 14  1  0
 13 31  1  0
 14 15  2  0
 14 99  1  0
 15100  1  0
 16 17  2  0
 16 21  1  0
 16 31  1  0
 17 18  1  0
 17101  1  0
 18 19  2  0
 18102  1  0
 19 20  1  0
 19 24  1  0
 20 21  2  0
 20103  1  0
 21 23  1  0
 22 28  1  0
 22 32  2  0
 26 27  1  0
 28104  1  0
 28105  1  0
 29106  1  0
 29107  1  0
 33 34  1  0
 33 66  1  0
 33 70  2  0
 34 36  1  0
 34 59  1  0
 34108  1  6
 35 44  2  0
 35 45  1  0
 35 68  1  0
 36 56  1  0
 36109  1  0
 37 39  1  0
 37 47  1  0
 37 66  1  0
 37110  1  6
 38 43  2  0
 38 46  1  0
 38 47  1  0
 39 64  1  0
 39 67  2  0
 40 52  1  0
 40 53  2  0
 40 58  1  0
 41111  1  0
 41112  1  0
 41113  1  0
 42 43  1  0
 42 66  1  0
 42114  1  0
 42115  1  0
 43 44  1  0
 44116  1  0
 45 46  2  0
 45117  1  0
 46118  1  0
 47119  1  0
 47120  1  0
 48 41  1  0
 48 56  1  0
 48 65  1  0
 48121  1  1
 49 50  1  0
 49 53  1  0
 49 64  1  0
 49122  1  1
 50 51  1  0
 50123  1  0
 50124  1  0
 51 52  1  0
 51125  1  0
 51126  1  0
 52127  1  0
 52128  1  0
 53 54  1  0
 54 55  2  0
 54129  1  0
 55 57  1  0
 55130  1  0
 56 69  2  0
 57 58  2  0
 57131  1  0
 58132  1  0
 59 60  1  0
 59 61  1  0
 59 62  1  0
 60133  1  0
 60134  1  0
 60135  1  0
 61136  1  0
 61137  1  0
 61138  1  0
 62139  1  0
 62140  1  0
 62141  1  0
 63 65  1  0
 63142  1  0
 63143  1  0
 63144  1  0
 64145  1  0
 65146  1  0
 68 83  1  0
 71 73  2  0
 71 74  1  0
 71147  1  0
 72 73  1  0
 72 75  2  0
 72148  1  0
 73 76  1  0
 74 81  1  0
 74 86  2  0
 75 86  1  0
 75 87  1  0
 76149  1  0
 76150  1  0
 76151  1  0
 77152  1  0
 77153  1  0
 77154  1  0
 78 84  1  0
 78155  1  0
 78156  1  0
 78157  1  0
 79158  1  0
 79159  1  0
 79160  1  0
 80 85  1  0
 80161  1  0
 80162  1  0
 80163  1  0
 81 84  1  0
 81164  1  0
 81165  1  0
 82 84  1  0
 82 85  1  0
 82166  1  0
 82167  1  0
 83 85  1  0
 83168  1  0
 83169  1  0
 84 77  1  0
 85 79  1  0
 87170  1  0
M  ISO  4   1 100  68 101  83 101  87 100
M  END
$$$$
95
     RDKit          3D

160168  0  0  0  0  0  0  0  0999 V2000
  -30.7652  -14.3608   20.6636 C   0  0  0  0  0  0  0  0  0100  0  0
  -30.4392  -12.2669   19.3775 C   0  0  0  0  0  0  0  0  0101  0  0
  -29.4791  -12.5281   18.1977 C   0  0  0  0  0  0  0  0  0102  0  0
  -27.9985  -12.3963   18.6038 C   0  0  0  0  0  0  0  0  0103  0  0
  -27.6639  -13.2170   19.8820 C   0  0  2  0  0  0  0  0  0104  0  0
  -28.6795  -12.9602   21.0279 C   0  0  0  0  0  0  0  0  0105  0  0
  -25.2633  -13.8245   20.5754 C   0  0  0  0  0  0  0  0  0106  0  0
  -24.1645  -13.0409   20.9408 C   0  0  0  0  0  0  0  0  0107  0  0
  -24.6400  -11.7009   20.8697 C   0  0  0  0  0  0  0  0  0108  0  0
  -23.9005  -10.4085   21.0420 C   0  0  0  0  0  0  0  0  0109  0  0
  -24.3588   -9.4123   21.9123 C   0  0  0  0  0  0  0  0  0110  0  0
  -23.6296   -8.2350   22.0803 C   0  0  0  0  0  0  0  0  0111  0  0
  -22.4385   -8.0419   21.3657 C   0  0  0  0  0  0  0  0  0112  0  0
  -22.0103   -9.0167   20.4678 C   0  0  0  0  0  0  0  0  0113  0  0
  -22.7317  -10.1925   20.3102 C   0  0  0  0  0  0  0  0  0114  0  0
  -21.6857   -6.0709   22.5391 C   0  0  0  0  0  0  0  0  0115  0  0
  -21.4064   -6.5490   23.8264 C   0  0  0  0  0  0  0  0  0116  0  0
  -21.3635   -5.6677   24.9085 C   0  0  0  0  0  0  0  0  0117  0  0
  -21.5973   -4.3067   24.7088 C   0  0  0  0  0  0  0  0  0118  0  0
  -21.8700   -3.8284   23.4282 C   0  0  0  0  0  0  0  0  0119  0  0
  -21.9144   -4.7056   22.3460 C   0  0  0  0  0  0  0  0  0120  0  0
  -22.8194  -13.5263   21.1763 C   0  0  0  0  0  0  0  0  0121  0  0
  -22.1559   -4.2206   21.1063 F   0  0  0  0  0  0  0  0  0122  0  0
  -21.5628   -3.4510   25.7555 F   0  0  0  0  0  0  0  0  0123  0  0
  -30.0261  -13.1803   20.4553 N   0  0  0  0  0  0  0  0  0124  0  0
  -26.2911  -12.9356   20.3443 N   0  0  0  0  0  0  0  0  0125  0  0
  -25.9236  -11.6675   20.5847 N   0  0  0  0  0  0  0  0  0126  0  0
  -22.0708  -12.7905   22.0005 N   0  0  0  0  0  0  0  0  0127  0  0
  -25.4117  -15.1773   20.4097 N   0  0  0  0  0  0  0  0  0128  0  0
  -31.7916  -14.6724   20.0536 O   0  0  0  0  0  0  0  0  0129  0  0
  -21.6670   -6.9022   21.4423 O   0  0  0  0  0  0  0  0  0130  0  0
  -22.3946  -14.5564   20.6568 O   0  0  0  0  0  0  0  0  0131  0  0
  -24.6048  -31.8614   23.2223 C   0  0  0  0  0  0  0  0  0100  0  0
  -25.8822  -32.4841   23.8616 C   0  0  1  0  0  0  0  0  0101  0  0
  -27.2536  -27.5042   20.1156 C   0  0  0  0  0  0  0  0  0102  0  0
  -25.5726  -33.8762   24.2210 N   0  0  0  0  0  0  0  0  0103  0  0
  -23.4066  -30.4859   21.5461 C   0  0  2  0  0  0  0  0  0104  0  0
  -24.8467  -28.9636   20.1247 C   0  0  0  0  0  0  0  0  0105  0  0
  -22.7412  -29.4652   22.5052 C   0  0  0  0  0  0  0  0  0106  0  0
  -18.0167  -28.1302   22.8626 C   0  0  0  0  0  0  0  0  0107  0  0
  -24.1342  -36.7390   23.2568 C   0  0  0  0  0  0  0  0  0108  0  0
  -25.9141  -30.8882   21.3456 C   0  0  0  0  0  0  0  0  0109  0  0
  -25.9930  -29.5029   20.7208 C   0  0  0  0  0  0  0  0  0110  0  0
  -27.1758  -28.7612   20.7331 C   0  0  0  0  0  0  0  0  0111  0  0
  -26.1032  -26.9836   19.5230 C   0  0  0  0  0  0  0  0  0112  0  0
  -24.9097  -27.7011   19.5331 C   0  0  0  0  0  0  0  0  0113  0  0
  -23.5715  -29.7899   20.1582 C   0  0  0  0  0  0  0  0  0114  0  0
  -25.3990  -36.3212   24.0232 C   0  0  1  0  0  0  0  0  0115  0  0
  -20.5793  -28.3813   23.1004 C   0  0  2  0  0  0  0  0  0116  0  0
  -20.6548  -26.9392   22.5411 C   0  0  0  0  0  0  0  0  0117  0  0
  -19.5615  -26.6407   21.5143 C   0  0  0  0  0  0  0  0  0118  0  0
  -18.1797  -26.7818   22.1673 C   0  0  0  0  0  0  0  0  0119  0  0
  -19.1385  -28.8769   23.2988 C   0  0  0  0  0  0  0  0  0120  0  0
  -18.9183  -30.1286   23.8878 C   0  0  0  0  0  0  0  0  0121  0  0
  -17.6396  -30.6493   24.0352 C   0  0  0  0  0  0  0  0  0122  0  0
  -25.9153  -34.9582   23.4993 C   0  0  0  0  0  0  0  0  0123  0  0
  -16.5415  -29.9068   23.6254 C   0  0  0  0  0  0  0  0  0124  0  0
  -16.7331  -28.6521   23.0586 C   0  0  0  0  0  0  0  0  0125  0  0
  -26.4583  -31.6439   25.0683 C   0  0  0  0  0  0  0  0  0126  0  0
  -25.3807  -31.3179   26.1374 C   0  0  0  0  0  0  0  0  0127  0  0
  -27.0530  -30.3024   24.5680 C   0  0  0  0  0  0  0  0  0128  0  0
  -27.6014  -32.4281   25.7651 C   0  0  0  0  0  0  0  0  0129  0  0
  -27.5629  -37.2220   24.8621 C   0  0  0  0  0  0  0  0  0130  0  0
  -21.4133  -29.3375   22.3735 N   0  0  0  0  0  0  0  0  0131  0  0
  -26.4706  -37.3372   23.9061 N   0  0  0  0  0  0  0  0  0132  0  0
  -24.6674  -31.0544   22.1178 N   0  0  0  0  0  0  0  0  0133  0  0
  -23.4259  -28.8150   23.2971 O   0  0  0  0  0  0  0  0  0134  0  0
  -28.3948  -26.7345   20.0089 O   0  0  0  0  0  0  0  0  0135  0  0
  -26.5870  -34.9065   22.4671 O   0  0  0  0  0  0  0  0  0136  0  0
  -23.5365  -32.1254   23.7833 O   0  0  0  0  0  0  0  0  0137  0  0
  -32.0617  -16.6104   22.5501 C   0  0  0  0  0  0  0  0  0  0  0  0
  -32.6491  -17.4942   23.4553 C   0  0  0  0  0  0  0  0  0  0  0  0
  -29.8776  -17.4587   23.1391 C   0  0  0  0  0  0  0  0  0  0  0  0
  -30.4650  -18.3425   24.0444 C   0  0  0  0  0  0  0  0  0  0  0  0
  -30.6759  -16.5927   22.3919 C   0  0  0  0  0  0  0  0  0  0  0  0
  -31.8508  -18.3602   24.2025 C   0  0  0  0  0  0  0  0  0  0  0  0
  -29.6180  -19.2544   24.8311 C   0  0  0  0  0  0  0  0  0  0  0  0
  -29.9805  -20.4766   25.2508 C   0  0  0  0  0  0  0  0  0  0  0  0
  -27.8243  -22.0038   29.0216 C   0  0  0  0  0  0  0  0  0  0  0  0
  -28.2278  -23.8391   27.3690 C   0  0  0  0  0  0  0  0  0  0  0  0
  -29.0774  -21.3823   26.0422 C   0  0  0  0  0  0  0  0  0  0  0  0
  -29.7199  -21.7658   27.3821 C   0  0  0  0  0  0  0  0  0  0  0  0
  -28.8926  -22.7597   28.2246 C   0  0  0  0  0  0  0  0  0  1  0  0
  -30.0798  -15.6939   21.4729 N   0  0  0  0  0  0  0  0  0  0  0  0
  -32.4304  -19.2037   25.0691 F   0  0  0  0  0  0  0  0  0  0  0  0
  -31.4485  -12.4701   19.0860 H   0  0  0  0  0  0  0  0  0  0  0  0
  -30.3970  -11.2460   19.6950 H   0  0  0  0  0  0  0  0  0  0  0  0
  -29.6870  -11.8204   17.4226 H   0  0  0  0  0  0  0  0  0  0  0  0
  -29.6375  -13.5326   17.8649 H   0  0  0  0  0  0  0  0  0  0  0  0
  -27.7830  -11.3650   18.7904 H   0  0  0  0  0  0  0  0  0  0  0  0
  -27.4028  -12.7801   17.8021 H   0  0  0  0  0  0  0  0  0  0  0  0
  -27.7353  -14.2503   19.6136 H   0  0  0  0  0  0  0  0  0  0  0  0
  -28.5890  -11.9550   21.3832 H   0  0  0  0  0  0  0  0  0  0  0  0
  -28.5005  -13.6134   21.8562 H   0  0  0  0  0  0  0  0  0  0  0  0
  -25.2399   -9.5495   22.4318 H   0  0  0  0  0  0  0  0  0  0  0  0
  -23.9663   -7.5070   22.7297 H   0  0  0  0  0  0  0  0  0  0  0  0
  -21.1515   -8.8641   19.9162 H   0  0  0  0  0  0  0  0  0  0  0  0
  -22.4016  -10.9115   19.6476 H   0  0  0  0  0  0  0  0  0  0  0  0
  -21.2319   -7.5552   23.9750 H   0  0  0  0  0  0  0  0  0  0  0  0
  -21.1589   -6.0228   25.8556 H   0  0  0  0  0  0  0  0  0  0  0  0
  -22.0396   -2.8212   23.2809 H   0  0  0  0  0  0  0  0  0  0  0  0
  -22.4401  -11.9703   22.4008 H   0  0  0  0  0  0  0  0  0  0  0  0
  -21.1493  -13.0679   22.2082 H   0  0  0  0  0  0  0  0  0  0  0  0
  -24.6538  -15.7807   20.5848 H   0  0  0  0  0  0  0  0  0  0  0  0
  -26.2762  -15.5453   20.1156 H   0  0  0  0  0  0  0  0  0  0  0  0
  -26.6778  -32.4663   23.1464 H   0  0  0  0  0  0  0  0  0  0  0  0
  -25.0747  -34.0282   25.0566 H   0  0  0  0  0  0  0  0  0  0  0  0
  -22.7881  -31.3489   21.4131 H   0  0  0  0  0  0  0  0  0  0  0  0
  -23.3854  -35.9823   23.3648 H   0  0  0  0  0  0  0  0  0  0  0  0
  -24.3696  -36.8624   22.2204 H   0  0  0  0  0  0  0  0  0  0  0  0
  -23.7669  -37.6632   23.6516 H   0  0  0  0  0  0  0  0  0  0  0  0
  -25.9445  -31.6237   20.5691 H   0  0  0  0  0  0  0  0  0  0  0  0
  -26.7436  -31.0079   22.0108 H   0  0  0  0  0  0  0  0  0  0  0  0
  -28.0090  -29.1452   21.2057 H   0  0  0  0  0  0  0  0  0  0  0  0
  -26.1369  -26.0560   19.0719 H   0  0  0  0  0  0  0  0  0  0  0  0
  -24.0652  -27.2961   19.0997 H   0  0  0  0  0  0  0  0  0  0  0  0
  -23.6156  -30.5365   19.3930 H   0  0  0  0  0  0  0  0  0  0  0  0
  -22.7355  -29.1425   19.9945 H   0  0  0  0  0  0  0  0  0  0  0  0
  -25.1353  -36.2335   25.0565 H   0  0  0  0  0  0  0  0  0  0  0  0
  -21.0070  -28.3206   24.0793 H   0  0  0  0  0  0  0  0  0  0  0  0
  -20.5555  -26.2518   23.3550 H   0  0  0  0  0  0  0  0  0  0  0  0
  -21.5974  -26.8362   22.0454 H   0  0  0  0  0  0  0  0  0  0  0  0
  -19.6810  -25.6422   21.1488 H   0  0  0  0  0  0  0  0  0  0  0  0
  -19.6406  -27.3343   20.7034 H   0  0  0  0  0  0  0  0  0  0  0  0
  -17.4282  -26.6888   21.4113 H   0  0  0  0  0  0  0  0  0  0  0  0
  -18.0803  -26.0130   22.9049 H   0  0  0  0  0  0  0  0  0  0  0  0
  -19.7265  -30.6774   24.2204 H   0  0  0  0  0  0  0  0  0  0  0  0
  -17.5064  -31.5856   24.4483 H   0  0  0  0  0  0  0  0  0  0  0  0
  -15.5878  -30.2839   23.7407 H   0  0  0  0  0  0  0  0  0  0  0  0
  -15.9120  -28.0941   22.7766 H   0  0  0  0  0  0  0  0  0  0  0  0
  -24.5787  -30.7757   25.6817 H   0  0  0  0  0  0  0  0  0  0  0  0
  -25.0041  -32.2289   26.5536 H   0  0  0  0  0  0  0  0  0  0  0  0
  -25.8166  -30.7245   26.9138 H   0  0  0  0  0  0  0  0  0  0  0  0
  -26.2892  -29.7335   24.0803 H   0  0  0  0  0  0  0  0  0  0  0  0
  -27.4336  -29.7484   25.4006 H   0  0  0  0  0  0  0  0  0  0  0  0
  -27.8466  -30.4994   23.8779 H   0  0  0  0  0  0  0  0  0  0  0  0
  -27.2251  -33.3632   26.1242 H   0  0  0  0  0  0  0  0  0  0  0  0
  -28.3902  -32.6065   25.0645 H   0  0  0  0  0  0  0  0  0  0  0  0
  -27.9772  -31.8555   26.5872 H   0  0  0  0  0  0  0  0  0  0  0  0
  -28.2744  -38.0016   24.6863 H   0  0  0  0  0  0  0  0  0  0  0  0
  -28.0396  -36.2711   24.7461 H   0  0  0  0  0  0  0  0  0  0  0  0
  -27.1773  -37.3087   25.8564 H   0  0  0  0  0  0  0  0  0  0  0  0
  -20.9627  -29.9365   21.7352 H   0  0  0  0  0  0  0  0  0  0  0  0
  -26.0447  -38.2561   24.0273 H   0  0  0  0  0  0  0  0  0  0  0  0
  -32.6524  -15.9696   21.9974 H   0  0  0  0  0  0  0  0  0  0  0  0
  -33.6744  -17.5074   23.5722 H   0  0  0  0  0  0  0  0  0  0  0  0
  -28.8523  -17.4456   23.0221 H   0  0  0  0  0  0  0  0  0  0  0  0
  -28.6710  -18.9281   25.0794 H   0  0  0  0  0  0  0  0  0  0  0  0
  -30.9283  -20.8124   25.0184 H   0  0  0  0  0  0  0  0  0  0  0  0
  -28.2397  -21.6734   29.9507 H   0  0  0  0  0  0  0  0  0  0  0  0
  -27.4917  -21.1570   28.4584 H   0  0  0  0  0  0  0  0  0  0  0  0
  -26.9955  -22.6532   29.2123 H   0  0  0  0  0  0  0  0  0  0  0  0
  -27.5109  -24.3707   27.9592 H   0  0  0  0  0  0  0  0  0  0  0  0
  -27.7354  -23.3814   26.5366 H   0  0  0  0  0  0  0  0  0  0  0  0
  -28.9720  -24.5204   27.0127 H   0  0  0  0  0  0  0  0  0  0  0  0
  -28.1526  -20.8777   26.2294 H   0  0  0  0  0  0  0  0  0  0  0  0
  -28.9096  -22.2751   25.4768 H   0  0  0  0  0  0  0  0  0  0  0  0
  -30.6728  -22.2093   27.1815 H   0  0  0  0  0  0  0  0  0  0  0  0
  -29.7913  -20.8652   27.9554 H   0  0  0  0  0  0  0  0  0  0  0  0
  -29.1311  -15.8648   21.2729 H   0  0  0  0  0  0  0  0  0  0  0  0
  1 25  1  0
  1 30  2  0
  1 84  1  0
  2  3  1  0
  2 25  1  0
  2 86  1  0
  2 87  1  0
  3  4  1  0
  3 88  1  0
  3 89  1  0
  4  5  1  0
  4 90  1  0
  4 91  1  0
  5  6  1  0
  5 26  1  0
  5 92  1  6
  6 25  1  0
  6 93  1  0
  6 94  1  0
  7  8  2  0
  7 26  1  0
  7 29  1  0
  8  9  1  0
  8 22  1  0
  9 10  1  0
  9 27  2  0
 10 11  2  0
 10 15  1  0
 11 12  1  0
 11 95  1  0
 12 13  2  0
 12 96  1  0
 13 14  1  0
 13 31  1  0
 14 15  2  0
 14 97  1  0
 15 98  1  0
 16 17  2  0
 16 21  1  0
 16 31  1  0
 17 18  1  0
 17 99  1  0
 18 19  2  0
 18100  1  0
 19 20  1  0
 19 24  1  0
 20 21  2  0
 20101  1  0
 21 23  1  0
 22 28  1  0
 22 32  2  0
 26 27  1  0
 28102  1  0
 28103  1  0
 29104  1  0
 29105  1  0
 33 34  1  0
 33 66  1  0
 33 70  2  0
 34 36  1  0
 34 59  1  0
 34106  1  6
 35 44  2  0
 35 45  1  0
 35 68  1  0
 36 56  1  0
 36107  1  0
 37 39  1  0
 37 47  1  0
 37 66  1  0
 37108  1  6
 38 43  2  0
 38 46  1  0
 38 47  1  0
 39 64  1  0
 39 67  2  0
 40 52  1  0
 40 53  2  0
 40 58  1  0
 41109  1  0
 41110  1  0
 41111  1  0
 42 43  1  0
 42 66  1  0
 42112  1  0
 42113  1  0
 43 44  1  0
 44114  1  0
 45 46  2  0
 45115  1  0
 46116  1  0
 47117  1  0
 47118  1  0
 48 41  1  0
 48 56  1  0
 48 65  1  0
 48119  1  1
 49 50  1  0
 49 53  1  0
 49 64  1  0
 49120  1  1
 50 51  1  0
 50121  1  0
 50122  1  0
 51 52  1  0
 51123  1  0
 51124  1  0
 52125  1  0
 52126  1  0
 53 54  1  0
 54 55  2  0
 54127  1  0
 55 57  1  0
 55128  1  0
 56 69  2  0
 57 58  2  0
 57129  1  0
 58130  1  0
 59 60  1  0
 59 61  1  0
 59 62  1  0
 60131  1  0
 60132  1  0
 60133  1  0
 61134  1  0
 61135  1  0
 61136  1  0
 62137  1  0
 62138  1  0
 62139  1  0
 63 65  1  0
 63140  1  0
 63141  1  0
 63142  1  0
 64143  1  0
 65144  1  0
 68 83  1  0
 71 72  2  0
 71 75  1  0
 71145  1  0
 72 76  1  0
 72146  1  0
 73 74  1  0
 73 75  2  0
 73147  1  0
 74 76  2  0
 74 77  1  0
 75 84  1  0
 76 85  1  0
 77 78  2  0
 77148  1  0
 78 81  1  0
 78149  1  0
 79150  1  0
 79151  1  0
 79152  1  0
 80 83  1  0
 80153  1  0
 80154  1  0
 80155  1  0
 81 82  1  0
 81156  1  0
 81157  1  0
 82 83  1  0
 82158  1  0
 82159  1  0
 83 79  1  0
 84160  1  0
M  ISO  4   1 100  68 101  83 101  84 100
M  END
$$$$
